16
gdb 98052	4.02636	0.7942	0.66891	0.5113	79.47	-0.2426	-0.0793	0.1633	1660.7992	0.121421	-437.907595	-437.89705	-437.896106	-437.946151	34.277	
C	-0.1746639603	 1.4308048964	 0.0411820387	-0.335246
N	 0.1670400116	 0.026618328	-0.026025917	-0.31973
C	 0.6100616371	-0.5723901791	-1.1517900933	 0.342605
O	 0.7822309988	-0.0453857608	-2.2352984492	-0.373112
C	 0.892814519	-2.0750536414	-0.9177222147	 0.090464
O	 0.7129794424	-2.5793656545	 0.1747824065	-0.311143
C	 1.3691059392	-2.7968792773	-2.0618503912	 0.050393
C	 1.7709744011	-3.4246004361	-3.0113206735	 0.164212
C	 2.2535239004	-4.1716360704	-4.1571699042	-0.507597
H	 0.4504963475	 1.9566911119	 0.7711490902	 0.132322
H	-0.0054372702	 1.8594518978	-0.9477850067	 0.168973
H	-1.2256903868	 1.5705348465	 0.3169571686	 0.132322
H	 0.0851856527	-0.5709642466	 0.784133107	 0.266024
H	 1.5702613563	-4.9935182252	-4.3975612273	 0.165963
H	 2.345187022	-3.531353872	-5.0400751383	 0.167586
H	 3.2351858392	-4.6099170472	-3.9465152956	 0.165963
12.4945	47.9886	71.2353	89.9449	133.5415	156.18	209.1905	291.4168	345.0906	383.3398	410.8937	469.482	504.4404	634.8524	644.529	805.9633	834.4868	925.7397	1042.5333	1052.3408	1076.1219	1152.3496	1181.5961	1211.7587	1285.849	1407.469	1443.4612	1466.3579	1471.363	1494.0111	1497.6641	1568.5345	1741.5924	1791.4751	2341.2723	3029.3422	3032.6993	3082.5282	3095.6744	3104.2936	3147.9837	3608.6463
CNC(=O)C(=O)C#CC	CNC(=O)C(=O)C#CC	
InChI=1S/C6H7NO2/c1-3-4-5(8)6(9)7-2/h1-2H3,(H,7,9)	InChI=1S/C6H7NO2/c1-3-4-5(8)6(9)7-2/h1-2H3,(H,7,9)
