21
gdb 89314	2.62415	1.50529	1.18045	1.0537	77.6	-0.2465	0.0738	0.3203	1117.2603	0.182406	-424.222592	-424.2139	-424.212956	-424.254928	35.456	
C	-0.1005783446	 1.5332797365	 0.0699710751	-0.421841
C	 0.0754266834	 0.0172336247	 0.0346749763	 0.023637
C	 1.0176857952	-0.5372143337	-1.0849398139	-0.301068
C	 2.0027668908	-1.3381738638	-0.2059643923	 0.424787
O	 2.9881358147	-2.0995287303	-0.8309597964	-0.484138
C	 2.3112947436	-0.3232409549	 0.941748071	-0.366675
C	 0.8062634822	-0.5857998617	 1.2550328495	 0.417835
O	 0.1980347325	-0.2556322812	 2.4627829163	-0.493511
C	 1.0551476856	-2.0531653411	 0.784950049	-0.330843
H	 0.8604223409	 2.0553189997	 0.1284944148	 0.110655
H	-0.6128064124	 1.8851272698	-0.8317242945	 0.109609
H	-0.6953610927	 1.8298771444	 0.938436331	 0.131003
H	-0.9154915976	-0.4452950945	-0.0376342077	 0.074643
H	 0.5042686142	-1.1771037417	-1.8081701132	 0.101045
H	 1.5216972795	 0.2661665445	-1.635601757	 0.085222
H	 3.4675797445	-1.5290703821	-1.4415417711	 0.27724
H	 2.9760830692	-0.7575790433	 1.6932979198	 0.090724
H	 2.6325281474	 0.6889797091	 0.6829233906	 0.087792
H	 0.7080424553	-0.6453848511	 3.179685319	 0.279294
H	 0.212394312	-2.6211031108	 0.3811735197	 0.09236
H	 1.6070123761	-2.6453991686	 1.519711134	 0.09223
168.3107	213.6161	242.8242	247.0459	263.2204	297.0661	323.0195	404.9348	434.4985	461.84	498.1418	536.1344	571.4805	605.465	692.2566	797.9365	826.1541	863.1789	929.9283	940.2104	964.0209	996.9437	1011.6881	1028.6609	1082.3817	1111.0991	1117.0675	1132.545	1150.4886	1156.2804	1185.7804	1229.6887	1233.7259	1262.711	1322.7998	1327.712	1365.0457	1387.7224	1399.9936	1410.9909	1479.3337	1491.2593	1497.2254	1502.2229	1531.3909	3031.2913	3034.9533	3035.847	3050.1113	3059.0179	3090.2358	3098.323	3113.1475	3115.8451	3119.4228	3802.4647	3820.3447
CC1CC2(O)CC1(O)C2	C[C@H]1C[C@@]2(O)C[C@]1(O)C2	
InChI=1S/C7H12O2/c1-5-2-6(8)3-7(5,9)4-6/h5,8-9H,2-4H2,1H3	InChI=1S/C7H12O2/c1-5-2-6(8)3-7(5,9)4-6/h5,8-9H,2-4H2,1H3/t5-,6-,7+/m0/s1
