23
gdb 113452	3.76425	0.95321	0.92792	0.1995	90.58	-0.2358	0.0968	0.3326	1424.1382	0.205735	-351.116422	-351.107417	-351.106473	-351.150232	35.213	
C	 0.0017565303	 1.5003473267	-0.304614445	-0.369775
C	-0.0552514253	 0.0923122583	 0.2997996871	-0.196344
C	-1.4351488424	-0.5289599575	 0.2228182521	-0.049692
C	-1.883365291	-1.2358626057	-1.0428117667	-0.373397
C	-1.6278656593	-2.0197815024	 0.210608163	 0.374022
C	-0.5800766975	-3.1464920316	 0.3756993683	-0.319765
C	-1.6318539164	-3.9529280906	 1.1544434149	-0.038291
C	-2.1272241353	-3.1728973102	 2.3403843567	-0.27732
C	-2.6584945037	-2.8306425123	 0.9735612088	-0.129818
H	 1.0094895719	 1.9227813106	-0.2379759499	 0.107539
H	-0.290454702	 1.4865273553	-1.359863117	 0.116954
H	-0.6801666019	 2.180789604	 0.217321743	 0.112469
H	 0.6622619352	-0.5571091866	-0.2175543266	 0.094165
H	 0.2725987771	 0.1310002883	 1.3473219561	 0.09358
H	-2.2089401846	 0.0359710518	 0.7408490784	 0.074904
H	-2.9098296743	-1.1113808033	-1.3745229832	 0.105583
H	-1.1634966992	-1.3244245782	-1.8524547412	 0.103678
H	-0.3095495981	-3.6048142993	-0.5794524981	 0.102349
H	 0.3380981346	-2.9045419941	 0.923077228	 0.093488
H	-1.7795799108	-5.0226646655	 1.0739148515	 0.083906
H	-2.8171659889	-3.7037578222	 2.9891976663	 0.106509
H	-1.4683116767	-2.4807675147	 2.8603250795	 0.103836
H	-3.7118786718	-2.8992811609	 0.7269971941	 0.081421
67.5881	114.934	139.6494	179.819	245.0732	304.1013	341.9981	409.308	430.3427	468.9735	596.4471	742.4053	773.8706	786.5767	810.2363	825.1067	893.6411	904.4491	923.1276	932.6367	971.6909	972.7582	975.0589	1017.1467	1049.6241	1055.3438	1063.7832	1080.6642	1091.7105	1109.8016	1126.9673	1152.2754	1188.493	1197.6074	1217.0556	1249.1092	1286.6702	1293.0265	1317.6116	1344.4527	1372.298	1406.6455	1433.9625	1477.4601	1482.1724	1489.5204	1496.9876	1499.6302	1506.846	3012.522	3030.0861	3034.0818	3045.7529	3090.5161	3097.3202	3102.439	3103.3993	3110.6229	3114.8351	3171.6312	3184.3494	3194.5323	3198.6871
CCC1CC11CC2CC12	CC[C@H]1C[C@]21C[C@H]1C[C@@H]21	
InChI=1S/C9H14/c1-2-7-5-9(7)4-6-3-8(6)9/h6-8H,2-5H2,1H3	InChI=1S/C9H14/c1-2-7-5-9(7)4-6-3-8(6)9/h6-8H,2-5H2,1H3/t6-,7+,8-,9+/m1/s1
