16
gdb 61129	5.72476	0.5986	0.55421	3.1539	92.68	-0.2566	-0.0272	0.2294	1881.0709	0.121827	-363.580055	-363.570272	-363.569328	-363.615338	34.639	
C	-0.0170902407	 1.5885179131	-0.0305062954	-0.393587
C	-0.0245123106	 0.0474987672	 0.0040779595	-0.221544
C	 0.7503701252	-0.5097110004	 1.2362145041	-0.331172
C	 2.1580501246	-0.1194015712	 1.2295290058	 0.262612
N	 3.2692560196	 0.1969367975	 1.2044709945	-0.306583
C	-1.3817030199	-0.4843727416	 0.0073919596	 0.409973
C	-2.5088605431	-0.9249406425	 0.0231471226	-0.239123
C	-3.7782152737	-1.415233837	 0.0395044675	 0.292597
C	-4.9037927766	-1.8516680905	 0.0543700631	-0.5554
H	 1.010829456	 1.9599114333	-0.0555292471	 0.148796
H	-0.5419080138	 1.9513980723	-0.9168766814	 0.138675
H	-0.5168264329	 1.9968228203	 0.8528716705	 0.132734
H	 0.4875359802	-0.3201085979	-0.8949248117	 0.135916
H	 0.282574999	-0.1471036862	 2.1578023195	 0.163644
H	 0.6861708398	-1.6019298855	 1.2516106637	 0.166196
H	-5.8945108031	-2.2335907009	 0.0670163451	 0.196267
57.8944	65.7767	121.651	161.9383	225.7034	238.8483	270.7481	332.8341	396.9839	450.1082	484.5442	516.9744	548.1835	552.3325	601.7452	608.662	730.8292	851.9421	893.609	960.0285	1020.442	1092.2201	1102.9631	1189.2589	1242.7722	1290.7973	1331.786	1362.8124	1412.3439	1464.0869	1494.6082	1499.9085	2183.0081	2361.2764	2364.0597	3022.7126	3048.5565	3056.9824	3100.1535	3125.1233	3134.5612	3503.892
CC(CC#N)C#CC#C	C[C@@H](CC#N)C#CC#C	
InChI=1S/C8H7N/c1-3-4-5-8(2)6-7-9/h1,8H,6H2,2H3	InChI=1S/C8H7N/c1-3-4-5-8(2)6-7-9/h1,8H,6H2,2H3/t8-/m1/s1
