20
gdb 70796	2.73686	1.76324	1.45011	1.3561	78.41	-0.227	0.0855	0.3125	1002.1298	0.171585	-403.113831	-403.106038	-403.105094	-403.14544	31.869	
C	 0.1099742009	 1.4556579608	-0.1078920055	-0.506684
C	 0.016267143	-0.0347726182	 0.0337667744	 0.403973
C	-1.3144881467	-0.7936796134	-0.1558248187	-0.253145
C	-0.7522125912	-2.1054589841	 0.4292195498	-0.101926
N	-0.4114027724	-1.7668920743	 1.8412033689	-0.314071
C	 0.6060420193	-0.8840304553	 1.2649126024	-0.156163
C	 0.8015984659	-1.8456240989	 0.0806363108	 0.490205
C	 1.7729307934	-2.9738644677	-0.0626935095	-0.517238
O	 0.8750124276	-0.7918391519	-0.8818602081	-0.360332
H	 1.1380537509	 1.7978416204	 0.0429235066	 0.12716
H	-0.2122001143	 1.7735783403	-1.1052993538	 0.129867
H	-0.5313706682	 1.948547347	 0.6301206528	 0.11895
H	-2.1587117966	-0.411693974	 0.4274280223	 0.086749
H	-1.5819822284	-0.8360539423	-1.2141111851	 0.107393
H	-1.2653844881	-3.0494030046	 0.2469075707	 0.069951
H	-1.1635086212	-1.2954512689	 2.3441220758	 0.207356
H	 1.3897237553	-0.4548241906	 1.8899680207	 0.075033
H	 1.6706801326	-3.6590402136	 0.7833536833	 0.139112
H	 1.5836804886	-3.5319014529	-0.9859384661	 0.127203
H	 2.8008737597	-2.6005613777	-0.0935284119	 0.126605
193.1497	206.9685	212.8341	241.4608	260.8311	328.4171	469.3896	519.8265	538.36	598.1689	622.2993	706.3676	744.9493	790.9795	839.6554	866.2679	881.0107	904.1924	936.5481	961.0854	999.1272	1016.2241	1035.7305	1059.9561	1098.9504	1125.3508	1142.3168	1169.1281	1187.6425	1225.9596	1233.0867	1236.6962	1297.8295	1323.0554	1333.2549	1383.489	1410.2501	1430.1344	1476.4545	1479.258	1480.8953	1492.0943	1494.6804	3034.1414	3038.3759	3052.3374	3102.4219	3105.2557	3110.9395	3114.5318	3114.7246	3122.0662	3123.4004	3444.7616
CC12CC3NC1C3(C)O2	C[C@]12C[C@@H]3N[C@H]1[C@]3(C)O2	
InChI=1S/C7H11NO/c1-6-3-4-7(2,9-6)5(6)8-4/h4-5,8H,3H2,1-2H3	InChI=1S/C7H11NO/c1-6-3-4-7(2,9-6)5(6)8-4/h4-5,8H,3H2,1-2H3/t4-,5+,6-,7+/m0/s1
