19
gdb 95550	2.46598	1.76335	1.14576	2.5432	77.57	-0.2439	-0.0052	0.2387	1091.8621	0.159617	-423.004016	-422.995896	-422.994952	-423.036976	31.224	
C	 0.4914417737	 1.5609060801	 0.0399261486	-0.396712
C	 0.0910734138	 0.0877600257	-0.0432628878	 0.070985
O	 1.059951198	-0.5465190186	-0.8497258662	-0.234348
C	 0.6932956424	-1.7737343578	-1.4373768878	-0.142693
C	 0.7500529944	-2.9779990446	-0.5362309176	-0.070733
C	 0.5846574401	-3.0200078205	 0.7855113198	-0.056627
C	 0.244724331	-1.9111603698	 1.7125387277	 0.004459
O	 1.2047612124	-0.8653844611	 1.99604403	-0.249746
C	-0.0115368864	-0.5066138551	 1.3538854306	 0.050556
H	 1.4725174579	 1.6482671305	 0.5145314465	 0.143834
H	 0.5476353241	 1.991323956	-0.962536151	 0.121571
H	-0.2344366061	 2.1306779995	 0.6273891771	 0.112892
H	-0.9049701851	 0.0046062074	-0.5146871795	 0.065942
H	-0.3121772733	-1.6995096013	-1.8920633374	 0.10093
H	 1.3958538217	-1.9245200986	-2.2653881942	 0.118165
H	 0.9533844109	-3.9138788894	-1.054522898	 0.096307
H	 0.6693398943	-3.9885813564	 1.2731651754	 0.092853
H	-0.2486155438	-2.2627652175	 2.6205303881	 0.088699
H	-0.71365072	 0.0411121716	 1.9909663256	 0.083667
44.8878	198.8746	219.195	230.159	286.9493	303.5925	391.2378	415.1693	485.9528	603.3081	678.2347	714.8152	744.461	799.5592	852.0109	879.0571	889.7977	956.8729	988.2904	1008.3207	1028.4807	1041.2673	1081.891	1136.2539	1154.1125	1165.516	1186.0323	1251.5924	1295.8786	1306.9793	1338.6291	1379.9056	1397.1225	1405.409	1419.8109	1433.7808	1474.7025	1483.683	1489.8222	1500.5834	1735.1214	2932.9996	2941.6655	3046.5757	3052.4107	3054.6985	3088.6551	3123.6506	3132.7372	3133.8908	3159.0413
CC1OCC=CC2OC12	C[C@H]1OCC=C[C@H]2O[C@@H]12	
InChI=1S/C7H10O2/c1-5-7-6(9-7)3-2-4-8-5/h2-3,5-7H,4H2,1H3	InChI=1S/C7H10O2/c1-5-7-6(9-7)3-2-4-8-5/h2-3,5-7H,4H2,1H3/t5-,6-,7+/m1/s1
