19
gdb 41985	2.50094	2.09525	1.63724	2.3577	73.31	-0.2296	0.0735	0.3031	903.5728	0.163328	-423.016191	-423.009557	-423.008613	-423.046975	27.432	
C	-0.0331004774	 1.5178944813	-0.2024778934	-0.091093
O	 1.2729028672	 1.9949974036	 0.1256017282	-0.265767
C	 1.9501004156	 1.0251806136	 0.9253876118	 0.083065
C	 1.7586098552	 1.3680048571	 2.4050699477	-0.086836
O	 0.3841391068	 1.3523471965	 2.748323084	-0.243751
C	-0.201019773	 0.0666725743	 2.6524971382	-0.107436
C	 0.0660777902	-0.6383928233	 1.3366108632	-0.046803
C	-0.0043689318	 0.0016045885	-0.0339747456	-0.0818
C	 1.3338036174	-0.3328381996	 0.5768276317	-0.102364
H	-0.7831479977	 2.003713686	 0.4334038823	 0.107239
H	-0.239319209	 1.7851799221	-1.245394844	 0.099204
H	 3.0155158684	 1.0627973422	 0.671932991	 0.078473
H	 2.3362527409	 0.6695882868	 3.0359780579	 0.07849
H	 2.1049008585	 2.3862722844	 2.6003266281	 0.114027
H	 0.1735098725	-0.5774891146	 3.4680038134	 0.089657
H	-1.2743545557	 0.2135749548	 2.8149489279	 0.110229
H	-0.233428149	-1.6838317381	 1.3578176195	 0.086938
H	-0.4045426018	-0.6030286663	-0.8397797656	 0.091276
H	 1.9700649227	-1.1232069393	 0.1979537736	 0.087252
155.3772	212.4907	274.3327	364.0514	428.7744	457.6855	583.9139	698.4559	715.2194	743.929	777.4677	805.4701	848.659	874.0346	938.8138	945.0278	976.6684	999.2317	1049.6741	1055.0027	1065.4342	1074.6268	1088.7674	1122.9294	1128.1942	1148.7357	1199.4192	1233.2997	1260.9901	1306.6294	1314.4107	1332.972	1341.1332	1356.0728	1384.2548	1387.5492	1415.4627	1447.1592	1481.326	1500.798	1522.2808	2946.5269	2956.3983	3021.9395	3047.8791	3057.5157	3061.8074	3096.8567	3132.1271	3171.392	3183.3801
C1OC2COCC3C1C23	C1O[C@H]2COC[C@H]3[C@@H]1[C@@H]23	
InChI=1S/C7H10O2/c1-4-5-2-9-6(3-8-1)7(4)5/h4-7H,1-3H2	InChI=1S/C7H10O2/c1-4-5-2-9-6(3-8-1)7(4)5/h4-7H,1-3H2/t4-,5+,6-,7-/m0/s1
