25
gdb 117623	2.50645	0.75675	0.67555	0.1199	98.91	-0.2389	0.0675	0.3065	1874.6893	0.225388	-352.349457	-352.337229	-352.336285	-352.388182	43.315	
C	-0.1324688908	 1.6411741822	 0.0121551999	-0.380671
C	 0.0069229856	 0.1146028588	 0.0026735483	-0.190699
C	-1.359249586	-0.5830384795	 0.0117937799	-0.162311
C	-1.3543748004	-2.1412877518	 0.0033599411	 0.048777
C	-0.6672413298	-2.6894423176	-1.2693143632	-0.40062
C	-0.6434526843	-2.7030602246	 1.256894851	-0.400622
C	-2.7544094735	-2.5891334143	 0.0141087282	 0.099321
C	-3.9050927134	-2.9462604983	 0.0232050046	 0.030573
C	-5.2954205503	-3.3810743922	 0.0346442745	-0.49803
H	 0.8461258594	 2.1313692374	 0.0055866132	 0.109756
H	-0.6881245992	 1.9928060217	-0.8641970495	 0.114246
H	-0.6715275957	 1.9833486483	 0.9025056375	 0.114245
H	 0.5800686468	-0.1869518863	-0.881807378	 0.098507
H	 0.5965707331	-0.1963421215	 0.8729409006	 0.098506
H	-1.9217092935	-0.2548001296	 0.8948600487	 0.097025
H	-1.9382209173	-0.2453677569	-0.8569294138	 0.097027
H	 0.3942507273	-2.4248066669	-1.287692921	 0.111292
H	-0.7443813082	-3.7797842667	-1.3043425859	 0.117948
H	-1.1395223255	-2.2892532762	-2.1714427394	 0.116345
H	-1.0986079562	-2.3126428057	 2.1720140638	 0.116344
H	-0.7200572514	-3.7937220204	 1.2816322708	 0.11795
H	 0.4182315951	-2.4385592938	 1.2581285056	 0.111297
H	-5.3726849184	-4.4742182573	 0.0302983252	 0.144612
H	-5.8206047902	-3.0174724392	 0.9251025779	 0.144595
H	-5.837657293	-3.0092489695	-0.8420854699	 0.144587
26.6825	59.9087	75.8992	91.1499	131.3638	207.5908	239.7352	256.638	269.7495	292.177	295.9111	310.4656	355.6837	363.283	409.3229	549.1125	553.8987	682.4012	744.5978	815.0554	865.6806	921.4557	941.6655	968.2413	1014.0059	1049.1007	1054.0176	1054.0683	1067.3065	1071.905	1111.9349	1209.7125	1224.0065	1252.7233	1286.1285	1326.6896	1338.7339	1391.0039	1394.4789	1410.3423	1414.8736	1418.3636	1478.2457	1479.8464	1479.951	1482.1513	1491.1838	1493.03	1499.753	1501.5843	1509.545	1512.5335	2364.8367	3018.8441	3023.9175	3029.0813	3033.8742	3035.7311	3041.7892	3050.0512	3071.6634	3083.2777	3083.3127	3099.4707	3101.4043	3110.0935	3112.3758	3113.5222	3115.5546
CCCC(C)(C)C#CC	CCCC(C)(C)C#CC	
InChI=1S/C9H16/c1-5-7-9(3,4)8-6-2/h5,7H2,1-4H3	InChI=1S/C9H16/c1-5-7-9(3,4)8-6-2/h5,7H2,1-4H3
