21
gdb 78318	2.98889	1.38564	1.21215	1.6767	82.09	-0.2401	0.0743	0.3144	1146.4977	0.182112	-387.041046	-387.032666	-387.031722	-387.073355	33.44	
C	-0.0828900168	 1.4300197424	 0.0036908037	-0.428794
C	 0.0541338549	-0.0775263568	 0.0546048842	-0.014428
C	 1.4108622687	-0.6539647564	-0.2536328854	-0.083393
C	 0.8523409395	-0.6612466138	 1.1833127342	-0.103646
C	 0.8386801396	-2.209847858	 1.14920384	 0.442945
C	 1.4166815593	-2.9327602156	 2.3357985513	-0.479457
O	-0.3961893717	-2.8175843364	 0.6568959873	-0.337465
C	 0.1488552078	-2.9474891215	-0.6818933571	-0.115953
C	 1.431882282	-2.1987757985	-0.2782826455	-0.13235
H	 0.8333129585	 1.9257036172	 0.3423432314	 0.113641
H	-0.2891188664	 1.7727941962	-1.0159923221	 0.118032
H	-0.902555325	 1.7719638988	 0.644538126	 0.12071
H	-0.8344790041	-0.618495143	-0.2560597133	 0.101135
H	 2.1958841479	-0.0313477688	-0.6671817046	 0.082406
H	 1.1485822578	-0.0677400155	 2.0420119508	 0.074168
H	 0.7455759341	-2.8370894729	 3.1972078748	 0.12885
H	 1.5461583617	-3.9973351721	 2.120847403	 0.121026
H	 2.3866102285	-2.5071105334	 2.6132829781	 0.11923
H	 0.3060081904	-4.001644726	-0.9429582452	 0.098183
H	-0.4900845541	-2.4816020645	-1.4410153523	 0.099931
H	 2.3956450476	-2.6538937315	-0.5044193996	 0.07523
169.22	189.4755	210.3758	226.2076	235.1242	274.8823	332.7094	370.4188	465.502	515.9872	616.611	727.3128	768.6782	810.8541	858.3103	867.7124	875.6912	916.202	932.0792	978.6694	982.2616	1005.5353	1035.8402	1044.7599	1064.1645	1104.0426	1120.6879	1145.4013	1147.5062	1164.1021	1180.1365	1210.8845	1243.9261	1278.1111	1313.8626	1328.0998	1349.9796	1405.2476	1417.1283	1428.7675	1480.5529	1487.4987	1495.4909	1502.9161	1520.6895	3012.9911	3028.2843	3030.5018	3058.5749	3093.474	3095.1752	3097.9713	3113.2489	3116.2147	3157.0452	3159.1465	3175.749
CC1C2C1C1(C)OCC21	C[C@H]1[C@H]2[C@@H]1[C@@]1(C)OC[C@@H]21	
InChI=1S/C8H12O/c1-4-6-5-3-9-8(5,2)7(4)6/h4-7H,3H2,1-2H3	InChI=1S/C8H12O/c1-4-6-5-3-9-8(5,2)7(4)6/h4-7H,3H2,1-2H3/t4-,5-,6+,7+,8-/m0/s1
