17
gdb 74252	3.24882	1.33256	1.10319	1.5397	79.04	-0.2461	0.0028	0.2489	1128.0362	0.13557	-380.823573	-380.815362	-380.814417	-380.856275	31.257	
C	-0.0585842946	 1.4801044686	 0.0628380732	-0.471694
C	 0.0024476521	-0.0081144202	-0.0176387978	 0.33327
N	 0.0925170887	-0.6706081971	-1.1032594631	-0.2483
C	 0.1140067828	-2.1119303997	-0.751791334	-0.188787
C	 1.2360599962	-2.8144878853	-1.3681560001	 0.351374
C	 2.1613028623	-3.4080682336	-1.8528174116	-0.461531
C	 0.1139127149	-2.1337902055	 0.7881387425	-0.038707
C	 1.212343772	-1.4356875298	 1.489131526	-0.25177
N	-0.0771771275	-0.736457504	 1.2219109794	-0.152132
H	 0.7504355645	 1.8580888655	 0.6976428976	 0.13925
H	 0.0212341676	 1.9175659916	-0.9321693088	 0.148228
H	-0.9988436019	 1.7905044984	 0.529872634	 0.147709
H	-0.8191895366	-2.5610910103	-1.1180520281	 0.119907
H	 2.9767149319	-3.9284839208	-2.2909753961	 0.198899
H	-0.4701315567	-2.8895493263	 1.3009608561	 0.10888
H	 1.4035233106	-1.6435170242	 2.5368834461	 0.127003
H	 2.0765259637	-1.1288665071	 0.9061342046	 0.138401
96.0511	134.7948	165.5696	207.3256	302.438	335.2332	359.5723	501.0576	531.3847	622.058	633.3137	645.7603	654.8813	739.9008	795.0717	838.5582	863.7002	927.5928	985.5612	1019.7814	1042.4799	1060.572	1075.2492	1095.0963	1108.5198	1160.5251	1215.2844	1276.2784	1289.8925	1326.5988	1371.5052	1407.6441	1471.0936	1475.4077	1499.5987	1709.2145	2240.7969	3012.2613	3044.2287	3100.0336	3116.56	3159.4177	3175.2202	3211.2512	3504.0543
CC1=NC(C#C)C2CN12	CC1=N[C@@H](C#C)[C@H]2CN12	
InChI=1S/C7H8N2/c1-3-6-7-4-9(7)5(2)8-6/h1,6-7H,4H2,2H3	InChI=1S/C7H8N2/c1-3-6-7-4-9(7)5(2)8-6/h1,6-7H,4H2,2H3/t6-,7+,9?/m0/s1
