23
gdb 115788	3.68781	1.01111	0.90322	1.1582	85.51	-0.2537	0.0804	0.3342	1387.0183	0.206518	-388.296207	-388.286932	-388.285988	-388.329867	36.127	
C	-0.0259598548	 1.5038752461	 0.002153627	-0.480897
C	 0.0134689095	-0.0056171476	 0.0007310088	 0.361501
C	-0.8510247294	-0.77819109	 0.9690206151	-0.336634
C	 0.6576674088	-0.8097441982	 1.1111456175	-0.089746
C	 1.4064024227	-1.9878911805	 0.5002952018	 0.033985
C	 1.356106616	-3.2620472752	 1.3321386437	-0.089376
O	 2.1042598836	-4.262436793	 0.6519134248	-0.424254
C	 0.7915845973	-2.1387450295	-0.9130987594	-0.231097
C	 0.3420302627	-0.7161525912	-1.3111256394	-0.272847
H	 0.9127336463	 1.9259960327	-0.3766876861	 0.111612
H	-0.8367064975	 1.8817556471	-0.6325381277	 0.114477
H	-0.187208395	 1.8985597352	 1.0106166218	 0.110496
H	-1.397408934	-0.1982279663	 1.7058013524	 0.10277
H	-1.3795021641	-1.6651164156	 0.6345326491	 0.104456
H	 1.0947192755	-0.3108384172	 1.97092641	 0.07329
H	 2.4633979296	-1.7055225407	 0.3999072604	 0.075555
H	 1.7718507836	-3.0703912779	 2.3348378532	 0.080045
H	 0.3067598564	-3.5715025821	 1.4664683086	 0.081795
H	 2.0514905696	-5.0761824804	 1.161141247	 0.28489
H	 1.494231294	-2.5776436217	-1.6235061095	 0.108121
H	-0.0686399695	-2.8162276026	-0.8710657197	 0.097854
H	-0.4967703972	-0.7237385496	-2.0171133894	 0.090694
H	 1.1649942257	-0.1799372414	-1.80177872	 0.093311
87.1808	132.3554	188.1889	210.1774	220.2177	263.6411	302.8855	344.2903	388.4822	434.4255	484.5368	553.1726	630.137	688.1812	819.0799	832.9144	858.1102	923.362	933.6105	949.8921	970.6989	988.9355	1016.6167	1045.0938	1055.1979	1072.9138	1080.4166	1091.6827	1100.2951	1159.3046	1187.1787	1223.6308	1244.123	1258.7018	1268.435	1295.1744	1324.8144	1326.7557	1339.1736	1371.0741	1407.7396	1420.4375	1456.3353	1486.9313	1488.1728	1492.1661	1503.3996	1513.8568	1521.9617	2959.1978	2984.8771	3015.4317	3015.8666	3020.4622	3044.6137	3061.7785	3074.6459	3093.4926	3113.0026	3124.942	3150.2654	3205.084	3831.1164
CC12CC1C(CO)CC2	C[C@]12C[C@H]1[C@@H](CO)CC2	
InChI=1S/C8H14O/c1-8-3-2-6(5-9)7(8)4-8/h6-7,9H,2-5H2,1H3	InChI=1S/C8H14O/c1-8-3-2-6(5-9)7(8)4-8/h6-7,9H,2-5H2,1H3/t6-,7+,8+/m1/s1
