21
gdb 60055	2.43838	1.1413	0.93598	1.8777	75.37	-0.2321	0.0662	0.2983	1345.8592	0.179926	-461.344366	-461.334249	-461.333305	-461.379096	38.623	
C	-0.3551125693	 1.5689902763	 0.117284985	-0.409672
C	-0.4570678072	 0.0807753886	-0.2027738633	 0.129924
O	 0.8525463054	-0.4764635193	-0.4346178248	-0.435914
C	-1.2220785579	-0.7070604994	 0.8723409234	-0.281293
C	-1.3539649524	-2.1801961691	 0.5347091928	 0.413598
O	-0.1510665851	-2.89553202	 0.5089447575	-0.482429
C	-2.5305495744	-2.9743659132	 1.0374735287	-0.383656
C	-2.4238951705	-2.6162242347	-0.4337855453	 0.030038
O	-3.2578843743	-1.6267928052	-0.9713958562	-0.426201
H	 0.2171656608	 2.0873925818	-0.6569305916	 0.125505
H	-1.3482016933	 2.0243375007	 0.1799325971	 0.124681
H	 0.1453191318	 1.7283448079	 1.0810767703	 0.107356
H	-0.9748419218	-0.0531021313	-1.1580315932	 0.11738
H	 1.3870494831	-0.2910902226	 0.3469694812	 0.282567
H	-0.7102306187	-0.6047330734	 1.8398402305	 0.087284
H	-2.2168498991	-0.2654243337	 0.9766364393	 0.111224
H	 0.450908296	-2.3697241553	-0.0406514125	 0.28031
H	-2.3450624847	-4.0036147631	 1.3236747678	 0.120523
H	-3.2774481595	-2.4508107642	 1.6252938034	 0.108573
H	-2.1453083327	-3.4179353882	-1.1164446914	 0.092028
H	-4.1510219463	-1.9835923827	-1.0225935086	 0.288173
66.0508	90.5647	173.9856	230.106	250.9737	251.7886	299.5441	313.4322	332.603	378.8719	418.0403	459.3674	467.7397	471.6224	558.4887	653.5362	769.796	817.8385	839.7158	898.8706	918.5702	944.9389	949.4231	993.3633	1032.6038	1050.3726	1081.7167	1095.9807	1151.62	1162.9193	1187.3943	1261.0546	1275.8977	1307.2635	1322.7688	1338.823	1383.3696	1395.7423	1402.8267	1423.4843	1437.9481	1459.8329	1491.3571	1494.472	1507.7568	3011.3608	3024.13	3068.2374	3094.0025	3103.1359	3113.4727	3120.1043	3130.6724	3225.9454	3688.6619	3787.3453	3796.8661
CC(O)CC1(O)CC1O	C[C@@H](O)C[C@@]1(O)C[C@H]1O	
InChI=1S/C6H12O3/c1-4(7)2-6(9)3-5(6)8/h4-5,7-9H,2-3H2,1H3	InChI=1S/C6H12O3/c1-4(7)2-6(9)3-5(6)8/h4-5,7-9H,2-3H2,1H3/t4-,5-,6-/m1/s1
