16
gdb 13955	5.02309	1.33611	1.23509	4.421	68.72	-0.269	0.0313	0.3003	992.8034	0.131755	-342.760174	-342.752894	-342.75195	-342.792196	27.02	
N	-0.0793866593	-1.0955636351	-0.4924585772	-0.307511
C	-0.0753617628	 0.0298706119	-0.2309746973	 0.258874
C	-0.0407071028	 1.4532874488	 0.1153232247	-0.430757
C	 1.3704798431	 1.988571409	 0.1586213378	 0.351872
C	 2.4523325878	 1.6187517882	 1.1883088127	-0.292298
C	 2.9978290649	 3.0838359981	 1.0892379259	-0.234851
C	 1.8964301188	 3.3944118841	 0.0649174641	-0.09606
N	 1.9608443219	 2.4836216008	-1.0751387902	-0.343083
H	-0.6164994355	 2.0132302161	-0.6280716695	 0.164704
H	-0.5328682128	 1.5840983202	 1.0862804705	 0.149926
H	 2.0481131368	 1.3967012421	 2.1790100369	 0.114214
H	 3.1219216462	 0.8045903577	 0.8949220656	 0.113198
H	 2.8872679797	 3.631868535	 2.027488623	 0.114025
H	 4.0229095403	 3.2121566074	 0.7272268627	 0.106558
H	 1.3732526954	 4.3350795248	-0.0668662542	 0.10063
H	 2.8974184783	 2.1218174507	-1.2477414154	 0.230558
60.1304	110.7935	228.7074	307.0549	368.9115	389.2498	450.5837	483.1709	716.0145	757.3904	781.7123	842.329	901.4316	923.6175	935.3644	952.1502	955.0211	1038.1245	1062.3122	1091.6161	1125.1615	1182.7229	1193.7598	1223.9171	1238.6041	1257.3922	1278.7497	1317.5078	1324.4077	1435.0702	1450.025	1479.1341	1500.4592	2362.4885	3044.048	3050.8856	3058.5302	3095.238	3102.1693	3118.9256	3176.331	3462.4212
N#CCC12CCC1N2	N#CC[C@]12CC[C@H]1N2	
InChI=1S/C6H8N2/c7-4-3-6-2-1-5(6)8-6/h5,8H,1-3H2	InChI=1S/C6H8N2/c7-4-3-6-2-1-5(6)8-6/h5,8H,1-3H2/t5-,6-/m1/s1
