20
gdb 84993	2.501	1.37084	1.12679	3.7459	75.55	-0.2452	0.028	0.2732	1181.8154	0.170561	-440.346167	-440.336867	-440.335923	-440.379743	35.659	
C	-0.0002427912	 1.5459609208	-0.0364147909	-0.403042
C	 0.0874296424	 0.0227199636	-0.0315430891	 0.047364
C	 0.817344602	-0.5757044569	-1.2591864291	-0.263876
C	 1.4982741443	-1.8468148391	-0.7287813793	 0.299523
C	 0.6080035636	-3.0946750672	-0.8293680404	-0.429997
O	 2.7441314509	-2.076157525	-1.3552867345	-0.484238
C	 1.7356216298	-1.5000557232	 0.7526302062	 0.377402
O	 2.553888362	-2.0543787218	 1.4612179008	-0.410759
N	 0.8950542872	-0.4860613768	 1.0771728716	-0.323823
H	 0.9981212433	 1.991030143	-0.0906773735	 0.129401
H	-0.5791166397	 1.8868890838	-0.9003768046	 0.128097
H	-0.4975864646	 1.9206664732	 0.8647833931	 0.117188
H	-0.9316634001	-0.3871337387	 0.0323073226	 0.08538
H	 0.1359354275	-0.7594971102	-2.092981215	 0.105827
H	 1.5990020252	 0.1123149588	-1.5953198877	 0.11866
H	 0.5010697767	-3.3762902634	-1.8807900008	 0.125567
H	 1.0680248162	-3.9270149352	-0.2889654328	 0.13066
H	-0.3889403177	-2.9215519592	-0.4090263853	 0.112055
H	 3.3100173702	-2.4562100824	-0.666771488	 0.287586
H	 0.831476752	-0.1329550639	 2.0196701469	 0.251025
91.2363	113.1458	215.4038	240.3558	248.2605	280.6485	296.6052	337.9419	388.1997	433.8793	460.9701	516.3597	540.4276	608.1777	644.9071	735.2874	761.4454	866.757	886.858	942.6277	970.1777	973.5271	1022.9879	1078.4614	1137.1979	1157.446	1165.6148	1205.1644	1242.3611	1273.454	1322.905	1349.3344	1393.4892	1399.7003	1407.7486	1414.572	1435.016	1483.0645	1492.3014	1492.7236	1495.4774	1500.1899	1820.2788	2982.8446	3033.3036	3033.8935	3061.0006	3102.6112	3106.1035	3113.1018	3117.3702	3120.7589	3629.1907	3724.7243
CC1CC(C)(O)C(=O)N1	C[C@H]1C[C@@](C)(O)C(=O)N1	
InChI=1S/C6H11NO2/c1-4-3-6(2,9)5(8)7-4/h4,9H,3H2,1-2H3,(H,7,8)	InChI=1S/C6H11NO2/c1-4-3-6(2,9)5(8)7-4/h4,9H,3H2,1-2H3,(H,7,8)/t4-,6+/m0/s1
