17
gdb 99567	2.26076	1.15243	0.89692	3.6211	74.76	-0.2689	0.0133	0.2822	1308.2879	0.134259	-417.966614	-417.95649	-417.955546	-418.001896	36.094	
N	-0.0834868448	 1.5276017913	-0.0265347963	-0.488646
C	 0.0491056955	 0.072392294	-0.0245345934	-0.154811
C	 0.6787231524	-0.4590675268	-1.2548806523	 0.264893
N	 1.175085739	-0.8290872174	-2.2316165721	-0.323175
C	 0.816634375	-0.4415842455	 1.2295989051	-0.182287
C	 2.2503292174	 0.1328336068	 1.3414274277	-0.075929
O	 2.951448527	-0.4275392928	 2.4266532612	-0.4153
C	 0.0682885368	-0.1620506819	 2.4515876931	 0.31316
C	-0.4991681162	 0.0644131651	 3.4871205677	-0.445693
H	 0.7934004826	 1.9677470153	-0.286644228	 0.248336
H	-0.7666759036	 1.8125264497	-0.7207321474	 0.249863
H	-0.9607187862	-0.3474864596	 0.0266801129	 0.146021
H	 0.9199799829	-1.5288588615	 1.1240055364	 0.134866
H	 2.8127852361	-0.1277137048	 0.4394586462	 0.132509
H	 2.1974636759	 1.2288298374	 1.4160743183	 0.102002
H	 2.4520927598	-0.223349443	 3.2266381594	 0.288803
H	-1.0222815595	 0.2619730538	 4.3903994414	 0.205386
60.114	100.8642	123.006	161.0008	191.5582	215.9372	250.7702	295.3939	338.1214	394.0001	410.278	488.8523	549.3165	585.6577	627.7632	668.1136	677.6035	820.4664	838.3234	930.0901	958.2968	1034.5179	1065.6343	1090.5274	1146.4365	1188.0816	1218.1327	1287.7025	1310.761	1359.7981	1390.4721	1400.6681	1428.649	1512.2443	1667.8689	2233.5528	2343.8474	2996.4412	3038.2421	3064.5301	3088.3074	3499.965	3509.652	3587.3033	3783.8376
NC(C#N)C(CO)C#C	N[C@@H](C#N)[C@@H](CO)C#C	
InChI=1S/C6H8N2O/c1-2-5(4-9)6(8)3-7/h1,5-6,9H,4,8H2	InChI=1S/C6H8N2O/c1-2-5(4-9)6(8)3-7/h1,5-6,9H,4,8H2/t5-,6+/m1/s1
