16
gdb 28709	3.78683	0.95683	0.81407	2.6265	73.71	-0.2356	-0.0333	0.2023	1385.56	0.123092	-437.937861	-437.929155	-437.928211	-437.973098	30.054	
C	-0.0099919896	 1.4478016364	 0.0335525855	-0.495358
C	-0.1351911258	-0.0295181928	 0.0769594986	 0.324306
C	-1.1625022991	-0.9053014871	 0.1999256589	-0.194621
N	-0.6747476947	-2.2070200891	 0.1851875825	-0.296652
C	 0.606379853	-2.0692332744	 0.0603224092	 0.350553
C	 1.6489236242	-3.1252878658	-0.0541851878	-0.373384
C	 2.1517974988	-3.2875731427	-1.4876474844	 0.15718
O	 3.3110658245	-3.369100428	-1.7893663294	-0.226658
O	 1.0150889787	-0.7733884953	-0.0186679838	-0.201834
H	 0.4470443849	 1.7845813212	-0.9034215764	 0.146107
H	-0.9994489038	 1.9029836946	 0.1153574333	 0.143554
H	 0.6096928505	 1.8226797538	 0.8556310298	 0.145738
H	-2.2153498014	-0.6945573714	 0.3014400935	 0.123377
H	 2.5072645827	-2.9267103906	 0.5926901369	 0.143849
H	 1.1849027292	-4.0720306836	 0.2443792199	 0.159472
H	 1.3418088479	-3.3386551251	-2.2487022163	 0.094372
28.0536	58.594	127.1319	148.2567	235.0943	256.2186	373.4974	395.3835	449.8417	635.0824	651.3994	712.7506	741.2159	830.9221	851.4726	956.1144	988.4499	1029.0439	1039.5991	1044.7299	1067.7737	1144.196	1193.7628	1232.3231	1262.2226	1291.4452	1370.8964	1417.7216	1419.0766	1439.5231	1472.4123	1490.3382	1603.1579	1647.6403	1841.3305	2890.531	3034.9849	3055.7906	3087.9844	3119.4193	3131.4649	3264.3442
CC1=CN=C(CC=O)O1	Cc1cnc(CC=O)o1	
InChI=1S/C6H7NO2/c1-5-4-7-6(9-5)2-3-8/h3-4H,2H2,1H3	InChI=1S/C6H7NO2/c1-5-4-7-6(9-5)2-3-8/h3-4H,2H2,1H3
