13
gdb 53994	1.88231	1.58606	1.39947	3.5158	59.82	-0.2915	-0.0768	0.2147	1005.3994	0.086567	-489.924702	-489.915734	-489.91479	-489.958577	31.78	
N	 0.7414524361	-0.0281360535	 0.7641120904	-0.508683
C	-0.1514651139	 0.0973047587	-0.2268127505	 0.387791
O	-0.0902681746	 0.860025864	-1.1709568984	-0.363627
C	-1.4217460652	-0.8312737851	-0.1329264868	 0.04984
O	-2.1626540254	-0.6766057281	-1.2971041168	-0.438949
C	-0.9941074122	-2.3146208451	 0.0054929524	 0.130161
O	-0.288262587	-2.7246642515	 0.8857404844	-0.237394
C	-2.1933870648	-0.4566568063	 1.0703058319	 0.269656
N	-2.7996802624	-0.177378067	 2.0135015287	-0.317892
H	 1.5862314874	 0.5201852139	 0.7280367249	 0.282978
H	 0.6702863947	-0.7970330217	 1.4151181237	 0.294384
H	-1.7438490301	 0.0788178606	-1.7551806351	 0.311116
H	-1.3999095128	-2.9451262591	-0.8088852289	 0.140619
79.0921	101.7366	134.5173	178.4384	226.4895	323.2706	335.1922	415.3164	438.5111	453.9556	487.1069	562.9915	582.4266	606.1337	674.2055	709.2379	780.7836	875.8393	1038.435	1105.3751	1130.1063	1182.408	1343.0932	1378.6535	1416.7864	1627.0466	1818.465	1829.3231	2351.1772	2965.8752	3563.737	3580.7606	3702.0773
NC(=O)C(O)(C=O)C#N	NC(=O)[C@@](O)(C=O)C#N	
InChI=1S/C4H4N2O3/c5-1-4(9,2-7)3(6)8/h2,9H,(H2,6,8)	InChI=1S/C4H4N2O3/c5-1-4(9,2-7)3(6)8/h2,9H,(H2,6,8)/t4-/m0/s1
