18
gdb 89622	3.77584	1.1454	0.97852	13.7179	73.41	-0.1761	-0.0066	0.1695	1215.4331	0.147979	-439.018043	-439.009526	-439.008582	-439.051568	31.576	
C	-0.1612755907	 1.525159534	 0.0197008186	-0.347853
N	 0.1551729987	 0.0816128937	-0.0986202947	-0.086601
H	-0.6552388744	-0.4056330606	-0.4769588395	 0.300203
C	 1.4118646585	-0.3858411069	-0.8852799601	-0.256809
C	 1.892801836	-1.1649383122	 0.3245761729	 0.238903
C	 2.0322546193	-0.255822414	 1.5030972202	-0.34178
C	 0.6601821374	-0.6839752369	 1.1054615121	-0.087085
C	 2.3658529318	-2.6446223058	 0.240305796	 0.287003
O	 2.3746108927	-3.0672841672	-0.9294592145	-0.485369
O	 2.596626861	-3.1491219572	 1.3471548057	-0.481135
H	 0.710411637	 2.0451565379	 0.414833122	 0.181569
H	-0.4134086162	 1.9215818383	-0.9660827892	 0.167811
H	-1.0038779479	 1.6509590257	 0.7026350907	 0.170144
H	 1.1245353651	-1.0504299227	-1.6992757029	 0.179091
H	 1.98864478	 0.4719403876	-1.2400551317	 0.136179
H	 2.3837849171	-0.8017794463	 2.3745013364	 0.176002
H	 2.3651283966	 0.7764840912	 1.4230786159	 0.105041
H	-0.0653552621	-1.2110743989	 1.711028562	 0.144687
71.9993	104.8007	142.7232	211.5533	239.1511	282.0149	381.2964	417.7809	495.3914	523.3265	653.6058	731.6462	767.5828	805.2977	815.7739	855.9983	902.8117	924.6101	961.3699	1030.462	1040.222	1070.9083	1073.4841	1088.286	1179.7699	1195.7337	1218.735	1245.312	1259.146	1308.9915	1329.7079	1363.4969	1427.5446	1450.3997	1464.0258	1493.1657	1494.533	1495.3899	1796.4957	3066.7682	3074.0693	3103.8663	3152.0852	3168.2483	3175.4121	3203.8691	3206.8307	3489.6912
C[NH+]1CC2(CC12)C([O-])=O	C[NH]1C[C@]2(C[C@@H]12)C(=O)[O]	
InChI=1S/C6H9NO2/c1-7-3-6(5(8)9)2-4(6)7/h4H,2-3H2,1H3,(H,8,9)	InChI=1S/C6H9NO2/c1-7-3-6(5(8)9)2-4(6)7/h4,7H,2-3H2,1H3/t4-,6+/m1/s1
