21
gdb 86030	2.92264	1.06737	0.94006	1.9479	84.66	-0.2409	0.0494	0.2904	1359.1558	0.179217	-387.055349	-387.045319	-387.044374	-387.090423	37.589	
C	 0.5625112146	 1.4954467373	 0.2186183455	-0.399875
C	 0.0315236293	 0.0931638435	-0.0017787466	 0.173286
C	 0.4802024745	-0.6797444614	-1.2604463446	-0.362597
C	 1.0022851368	-1.7408249031	-0.2598290761	 0.431957
C	 0.2096731419	-3.0402952388	-0.2168550155	-0.435234
C	 2.523845954	-1.9791514843	-0.3231192719	-0.399978
C	 3.0492804899	-2.7772115418	 0.7773943221	 0.315816
C	 3.4806197928	-3.4372435428	 1.6844949051	-0.446077
O	 0.660557989	-0.8838862669	 0.8633816983	-0.334759
H	 1.6432952742	 1.5360633189	 0.0509869451	 0.116698
H	 0.0760720244	 2.2006597452	-0.4645952565	 0.11448
H	 0.3636569105	 1.8209319429	 1.244560106	 0.129112
H	-1.058031071	 0.0810399828	 0.1430232627	 0.073019
H	-0.3091799942	-1.0120576668	-1.9365790782	 0.105225
H	 1.2621229024	-0.1786871	-1.8369243413	 0.101885
H	 0.4077285986	-3.6463843101	-1.1080955815	 0.111276
H	 0.4858249499	-3.6230599719	 0.665576102	 0.141431
H	-0.8626772054	-2.8304409306	-0.1736309569	 0.115479
H	 2.7569974954	-2.4667413477	-1.2797199425	 0.126553
H	 3.0234391186	-1.0036902967	-0.3366423822	 0.127794
H	 3.8637719738	-4.0138138378	 2.489419457	 0.194509
47.314	75.7546	138.8852	212.2218	224.1726	261.4796	314.6223	321.4721	351.8214	373.1527	403.3126	450.4693	517.5836	614.8841	637.1965	686.5607	785.98	861.4086	881.6416	901.9908	913.5082	937.5254	959.9941	982.6163	1004.4297	1079.617	1113.3147	1132.3146	1191.7896	1197.2073	1235.0541	1267.8804	1291.4588	1317.3279	1344.5433	1391.9933	1408.3784	1411.0789	1454.1543	1481.8091	1482.7473	1489.9207	1492.0596	1495.5663	2238.2282	2996.9485	3016.7962	3032.0768	3036.8879	3060.7199	3065.5701	3104.5114	3107.1808	3111.4114	3124.0004	3127.7313	3506.7115
CC1CC(C)(CC#C)O1	C[C@H]1C[C@@](C)(CC#C)O1	
InChI=1S/C8H12O/c1-4-5-8(3)6-7(2)9-8/h1,7H,5-6H2,2-3H3	InChI=1S/C8H12O/c1-4-5-8(3)6-7(2)9-8/h1,7H,5-6H2,2-3H3/t7-,8+/m0/s1
