15
gdb 124258	4.42491	1.03113	0.84065	3.35	71.37	-0.2358	-0.0557	0.1801	1289.4803	0.112748	-453.990109	-453.981745	-453.980801	-454.0234	30.502	
C	 0.0029938459	 1.5087319362	-0.0992611231	-0.513608
C	-0.0018453051	-0.0051383115	 0.0457743114	 0.326293
O	 0.0093553304	-0.5467997878	 1.1314771582	-0.301626
C	-0.0207097866	-0.8070159401	-1.1916671253	 0.312359
C	-0.0286988688	-2.1855805957	-1.3473297632	-0.390519
C	-0.0467687396	-2.3752667937	-2.7391620709	 0.443688
O	-0.0598400812	-3.561043883	-3.3757135761	-0.426078
N	-0.0500580725	-1.2245733831	-3.4116214297	-0.320534
N	-0.0340965348	-0.2826324657	-2.4488429792	-0.287635
H	 0.8829654911	 1.8435593009	-0.6606430539	 0.140482
H	-0.8875854657	 1.8513262048	-0.6387996354	 0.140469
H	 0.0172224964	 1.9596182227	 0.8929824285	 0.154314
H	-0.0222229315	-2.9230038318	-0.5639176835	 0.139267
H	-0.0708586045	-3.3790894323	-4.3238971214	 0.30614
H	-0.0331895936	 0.6855974202	-2.7186895164	 0.276987
77.0089	130.5741	150.9684	161.8184	337.2813	348.2039	410.0366	424.6552	431.0222	506.849	574.9392	611.2274	698.2225	713.2259	741.2543	837.5163	936.1094	1004.5761	1019.6331	1041.5106	1100.2221	1176.2161	1226.9963	1246.4613	1317.1407	1375.8166	1436.7748	1472.321	1478.5728	1493.4136	1569.8744	1605.3335	1779.0723	3031.8726	3093.614	3157.5632	3294.8113	3683.4006	3794.7224
CC(=O)C1=CC(O)=NN1	CC(=O)c1cc(O)n[nH]1	
InChI=1S/C5H6N2O2/c1-3(8)4-2-5(9)7-6-4/h2H,1H3,(H2,6,7,9)	InChI=1S/C5H6N2O2/c1-3(8)4-2-5(9)7-6-4/h2H,1H3,(H2,6,7,9)
