15
gdb 51857	3.56803	1.09502	0.87505	3.8848	63.2	-0.2619	-0.0556	0.2063	1243.9185	0.111188	-494.927153	-494.918898	-494.917954	-494.961028	28.808	
O	-0.1882183821	 0.0653407034	-0.0245368521	-0.264911
C	-0.1108253319	 1.2533110215	-0.0622571507	 0.182281
O	 1.0529492512	 1.9040334393	 0.1986429059	-0.188634
C	 1.0597162884	 3.310314497	 0.0402428329	-0.010272
C	 2.3189797727	 3.9490240844	 0.6275806673	-0.124306
O	 2.4878583713	 5.1481320297	-0.1267228192	-0.248908
C	 2.1822957999	 4.8649232255	-1.4819973614	-0.184375
C	 1.166267846	 3.7287967254	-1.442275201	 0.359438
O	 0.5887809137	 3.207702531	-2.355412095	-0.286488
H	-0.9482419824	 1.9379210601	-0.2832096075	 0.094413
H	 0.1566644002	 3.7655255167	 0.4695640229	 0.1249
H	 2.2336706377	 4.2273927254	 1.6784180422	 0.133702
H	 3.1686587218	 3.260959467	 0.5036729592	 0.124608
H	 1.7856395734	 5.7631191369	-1.963323681	 0.15091
H	 3.0666799502	 4.5302467569	-2.0487602325	 0.137642
70.1694	78.9662	136.3345	182.698	241.5375	292.9304	377.3664	427.3647	536.1433	585.8604	662.4633	705.9377	768.1641	935.0683	955.6619	1021.6857	1033.1887	1079.4995	1091.5608	1122.1508	1146.9745	1184.3236	1208.9003	1241.2434	1281.4925	1311.3032	1343.2478	1393.0413	1436.368	1472.0436	1515.1672	1866.7692	1879.857	2981.6293	2988.1471	3003.7928	3022.9629	3095.3094	3128.6673
O=COC1COCC1=O	O=CO[C@H]1COCC1=O	
InChI=1S/C5H6O4/c6-3-9-5-2-8-1-4(5)7/h3,5H,1-2H2	InChI=1S/C5H6O4/c6-3-9-5-2-8-1-4(5)7/h3,5H,1-2H2/t5-/m0/s1
