19
gdb 54522	3.2243	1.31626	1.0836	2.1411	75.62	-0.2449	-0.022	0.2229	1162.3278	0.158711	-423.052019	-423.043447	-423.042503	-423.085494	32.162	
C	 0.6289916993	 0.3506398084	-0.9837327141	-0.483207
C	-0.1912591157	 0.3660911579	 0.2889576562	 0.293522
O	 0.1384184797	 0.9886778143	 1.2752370522	-0.305583
C	-1.471922961	-0.4172768463	 0.2947722764	 0.314245
C	-2.5576582227	-0.1225821703	 1.31316894	-0.281558
C	-3.5196676147	-1.3284667516	 1.2017648918	-0.225001
C	-2.6411400026	-2.5151449836	 0.7384206041	-0.240793
C	-1.5308127385	-1.8582130513	-0.0562652281	-0.00256
O	-1.9717251913	-0.8668972629	-0.9812881908	-0.292028
H	 1.5625231394	 0.8881681318	-0.8150264743	 0.138431
H	 0.8373893629	-0.6719735511	-1.3132179949	 0.139635
H	 0.06270281	 0.8243987913	-1.7921713019	 0.155686
H	-2.0850872267	-0.0559422675	 2.2978235545	 0.128473
H	-3.0552527864	 0.8333606471	 1.1263556761	 0.113041
H	-4.040375269	-1.5356079055	 2.1392222382	 0.104287
H	-4.277481218	-1.1219824754	 0.4430043102	 0.121144
H	-2.192141924	-3.0430250657	 1.5886513731	 0.110963
H	-3.1968666162	-3.2525096451	 0.1509016396	 0.114262
H	-0.6513022046	-2.4215919745	-0.3602827584	 0.097041
66.1602	120.8237	149.5525	188.1047	223.9349	335.6269	349.8757	433.4652	493.0506	583.2464	610.8577	657.6247	687.9449	812.5101	859.6408	888.9415	893.4588	918.2549	946.484	972.4551	998.9498	1039.8128	1045.8293	1110.4828	1124.6798	1169.3832	1207.799	1248.1216	1276.9199	1300.1789	1325.267	1341.1377	1348.9527	1387.1867	1424.4145	1455.4748	1470.7994	1478.2754	1484.8333	1500.2774	1794.5238	3038.7896	3047.8225	3061.8218	3074.1299	3086.7695	3100.8258	3109.226	3123.1574	3141.1593	3157.2041
CC(=O)C12CCCC1O2	CC(=O)[C@]12CCC[C@H]1O2	
InChI=1S/C7H10O2/c1-5(8)7-4-2-3-6(7)9-7/h6H,2-4H2,1H3	InChI=1S/C7H10O2/c1-5(8)7-4-2-3-6(7)9-7/h6H,2-4H2,1H3/t6-,7-/m1/s1
