15
gdb 12178	3.3157	1.74253	1.36011	3.7578	63.92	-0.2474	-0.0413	0.2061	913.2683	0.117485	-399.828126	-399.820036	-399.819092	-399.861141	27.795	
C	-0.0428244144	 1.4357957489	 0.0731848733	-0.354365
N	-0.0057535605	-0.0052849786	 0.0159527479	-0.051621
C	-1.0548888075	-1.0135727892	 0.0800931457	-0.077197
C	 0.0737290635	-2.1011746908	 0.0201562494	-0.407987
C	 1.0412466931	-0.8923958955	-0.038078825	 0.42743
O	 2.2307918366	-0.7387814814	-0.1052855891	-0.363879
C	-1.8856707185	-1.0300244009	 1.3423432064	 0.151888
O	-1.7231243526	-0.2852328405	 2.2740528442	-0.239542
H	 0.9903889058	 1.78898615	 0.0410975414	 0.162967
H	-0.5852531869	 1.8561768003	-0.7822699054	 0.125919
H	-0.5137923734	 1.7753283276	 0.9998111521	 0.155214
H	-1.7278180512	-1.033031162	-0.789820111	 0.10027
H	 0.1811017447	-2.7143537824	 0.9170271655	 0.143561
H	 0.0669557735	-2.7348353726	-0.8672456441	 0.141295
H	-2.6814209522	-1.8100946229	 1.3495189586	 0.086046
72.2674	122.6652	148.1375	157.1135	223.0041	268.7399	320.6231	493.9728	558.8546	688.1861	693.8567	760.001	861.41	907.9829	971.0137	1033.6122	1052.8517	1075.2823	1127.0228	1150.7927	1184.5649	1216.5918	1297.8486	1352.1738	1403.2365	1416.7386	1447.4076	1468.6126	1482.3901	1518.0442	1830.0481	1889.8594	2871.6016	3002.626	3026.6739	3088.362	3096.414	3138.2483	3151.1822
CN1C(CC1=O)C=O	CN1[C@@H](CC1=O)C=O	
InChI=1S/C5H7NO2/c1-6-4(3-7)2-5(6)8/h3-4H,2H2,1H3	InChI=1S/C5H7NO2/c1-6-4(3-7)2-5(6)8/h3-4H,2H2,1H3/t4-/m0/s1
