17
gdb 35225	3.4981	1.16915	1.00973	4.9475	80.77	-0.2458	-0.0087	0.2371	1185.7135	0.13742	-380.872234	-380.864278	-380.863334	-380.905861	29.754	
N	 0.007702527	-1.1456800281	-0.1393841442	-0.343067
C	-0.0012339186	 0.0092722639	-0.0785447569	 0.341139
C	 0.0202049946	 1.4501924218	-0.0523889996	-0.267952
N	 0.4014621224	 2.0907603428	 1.2216481565	-0.354008
C	 1.3202849524	 2.2035473782	 0.0832049963	 0.334253
C	 2.6956174573	 1.5297011918	 0.1786940331	-0.299835
C	 3.6719696947	 2.4839970365	-0.5651898528	-0.270408
C	 2.8041105356	 3.6424834946	-0.9913608416	-0.070204
C	 1.5268879997	 3.4802333212	-0.6474565519	-0.144331
H	-0.7577756672	 1.9118113992	-0.6553876476	 0.127401
H	-0.1393357117	 2.9445457011	 1.3456101885	 0.241118
H	 2.9640369351	 1.4085876187	 1.2303065785	 0.129795
H	 2.6811785118	 0.5320242995	-0.2664309265	 0.133349
H	 4.498956291	 2.8156642023	 0.0737829009	 0.117614
H	 4.1362698661	 2.0001077802	-1.4329323871	 0.120347
H	 3.1986209857	 4.4988503346	-1.5267197649	 0.106538
H	 0.7147618143	 4.1699254618	-0.8522685008	 0.098251
28.6845	116.9449	137.3438	272.9821	325.8764	362.2761	443.4689	517.0498	569.3555	608.3362	734.6715	759.5002	796.0413	819.5597	845.1356	912.1844	921.7408	949.2962	971.0336	998.3577	1021.6939	1051.5638	1075.1573	1126.807	1179.9703	1202.0729	1240.6196	1251.3171	1291.7922	1307.6105	1344.8787	1382.8149	1437.3223	1479.2617	1499.5919	1681.1386	2354.8729	3031.6022	3055.828	3075.9679	3119.2091	3141.7776	3181.0418	3207.8272	3488.9579
N#CC1NC11CCC=C1	N#C[C@H]1N[C@]21CCC=C2	
InChI=1S/C7H8N2/c8-5-6-7(9-6)3-1-2-4-7/h1,3,6,9H,2,4H2	InChI=1S/C7H8N2/c8-5-6-7(9-6)3-1-2-4-7/h1,3,6,9H,2,4H2/t6-,7+/m1/s1
