19
gdb 69562	2.62414	1.54673	1.35378	2.2816	74.49	-0.2245	0.0747	0.2992	1034.1582	0.158259	-422.964737	-422.956615	-422.955671	-422.996649	33.185	
O	-0.0758908287	 1.4355756094	 0.0749612632	-0.463719
C	-0.0018146414	 0.0532572465	 0.070080394	 0.39425
C	-0.2931163805	-0.7588245755	-1.1585620399	-0.368434
C	-1.1613223588	-0.9354694415	 0.0681354872	-0.142682
C	-0.4698817567	-1.7662247865	 1.166324155	 0.44311
O	-1.3433969313	-1.9451857571	 2.240847645	-0.485209
C	 0.5024901215	-2.9257298445	 0.7757441928	-0.306347
C	 1.6945148018	-1.9116823255	 0.7526010777	-0.248742
C	 0.7305316188	-0.7610142437	 1.168486356	-0.172052
H	 0.6281490178	 1.77931117	-0.4864023555	 0.283023
H	-0.7771403292	-0.1869868447	-1.9448327832	 0.114803
H	 0.3622147688	-1.5445051474	-1.5228284523	 0.108311
H	-2.2313094229	-0.7694453955	 0.0431633546	 0.099465
H	-0.8432788652	-2.3015336308	 2.9828472982	 0.276449
H	 0.5876440585	-3.6642648383	 1.57940061	 0.090943
H	 0.2840626028	-3.46261202	-0.1510389165	 0.104207
H	 2.4617818591	-2.1277647085	 1.499662685	 0.097767
H	 2.1910319879	-1.786043495	-0.212603793	 0.100312
H	 0.9610055879	-0.1749397111	 2.0584099318	 0.074544
142.7631	227.8062	247.3563	277.2915	297.921	341.9498	357.4416	406.0813	463.6602	487.1358	586.0387	629.6	723.546	749.4795	811.5562	841.5639	879.6182	922.2556	936.0946	951.6644	981.3769	998.0909	1020.0867	1049.1604	1074.5449	1085.0498	1091.8088	1111.9541	1192.324	1211.1633	1214.7664	1225.9806	1247.7676	1272.0662	1296.9494	1316.8991	1389.0736	1403.6587	1470.6083	1487.5682	1505.5026	3047.6061	3063.4491	3094.8261	3111.1278	3118.6866	3119.9306	3191.3011	3201.9191	3786.0922	3805.4655
OC12CC1C1(O)CCC21	O[C@]12C[C@H]1[C@@]1(O)CC[C@@H]21	
InChI=1S/C7H10O2/c8-6-2-1-4(6)7(9)3-5(6)7/h4-5,8-9H,1-3H2	InChI=1S/C7H10O2/c8-6-2-1-4(6)7(9)3-5(6)7/h4-5,8-9H,1-3H2/t4-,5+,6-,7+/m1/s1
