19
gdb 54756	2.70648	1.33403	1.12796	2.0996	76.33	-0.2333	-0.0244	0.2089	1163.5909	0.156471	-422.982732	-422.973689	-422.972745	-423.017006	33.591	
C	-1.2385945445	 0.940200502	 0.4352129656	-0.480822
C	-0.0551540768	 0.012627773	 0.2199347794	 0.350375
O	 0.8252569956	-0.0981648588	 1.0459274001	-0.307085
C	-0.0585756569	-0.7460496399	-1.0895321876	-0.117776
C	 1.121205898	-1.6325033713	-1.5532449486	 0.038651
C	 0.7930597425	-2.6951493925	-0.483535036	-0.26909
C	-0.521729282	-2.2572727394	-1.1799559238	 0.390758
C	-1.9039205161	-2.8238907442	-1.0966868334	-0.513973
O	 0.1883927306	-2.3225528075	-2.4803995972	-0.34358
H	-1.2027724156	 1.7622390694	-0.2895042497	 0.145593
H	-2.1836511599	 0.412160396	 0.2646420159	 0.137604
H	-1.2132582696	 1.3476319011	 1.4464926665	 0.142844
H	-0.5023394431	-0.1609666569	-1.8996292227	 0.087309
H	 2.0850522226	-1.3186921514	-1.9509440919	 0.100658
H	 1.112742584	-3.7063808862	-0.7387539885	 0.103687
H	 0.9504446087	-2.4325297223	 0.561169704	 0.129346
H	-2.3057051931	-2.7049257418	-0.0856244244	 0.130501
H	-2.5718593059	-2.3208406243	-1.8023509877	 0.134271
H	-1.8867493785	-3.8914552449	-1.3365849902	 0.140729
40.271	120.5118	136.8679	186.062	219.5762	296.8429	311.3622	354.648	433.7619	553.2844	587.3939	613.6339	647.1579	693.3159	802.1316	871.2421	877.5906	921.0966	942.7207	957.5848	1007.6896	1018.3962	1038.3068	1067.095	1085.4009	1142.9154	1178.685	1188.1245	1202.8283	1231.4	1252.1601	1316.0318	1371.7218	1386.6568	1412.5534	1461.6852	1473.5163	1477.1738	1486.9889	1492.4797	1796.6016	3033.0865	3039.4319	3081.8218	3088.721	3093.2031	3114.8771	3115.5832	3134.7379	3152.031	3173.8566
CC(=O)C1C2CC1(C)O2	CC(=O)[C@H]1[C@H]2C[C@]1(C)O2	
InChI=1S/C7H10O2/c1-4(8)6-5-3-7(6,2)9-5/h5-6H,3H2,1-2H3	InChI=1S/C7H10O2/c1-4(8)6-5-3-7(6,2)9-5/h5-6H,3H2,1-2H3/t5-,6+,7+/m1/s1
