14
gdb 7903	3.59806	1.68831	1.19107	4.318	58.45	-0.2377	-0.0915	0.1462	937.1261	0.105986	-419.708318	-419.700947	-419.700003	-419.740209	27.123	
O	 0.1831279418	 1.2182690529	-0.5620830567	-0.422471
C	 0.0552649999	-0.0564318627	 0.0353732964	 0.096785
C	 0.5077770657	-0.1113775924	 1.5120411242	-0.366674
C	-0.3306754593	-1.2121712543	 2.1455180235	 0.313298
O	-0.1119676535	-1.840454275	 3.1435674205	-0.273844
C	-1.5769009484	-1.4148075603	 1.2221823762	 0.310504
O	-2.4513449835	-2.2100286961	 1.427247726	-0.275515
C	-1.4311366452	-0.4435775715	 0.0620395344	-0.33479
H	 1.1201885973	 1.4241099722	-0.6446892285	 0.288632
H	 0.613825943	-0.8109214733	-0.5394508127	 0.089376
H	 1.5780056444	-0.2677484167	 1.6652025168	 0.131471
H	 0.2318412123	 0.839339285	 1.9899250666	 0.147859
H	-2.0133622922	 0.4587737957	 0.2969324455	 0.15283
H	-1.8140418122	-0.8498408634	-0.8753543322	 0.142539
87.6168	113.7617	292.3532	311.6339	323.7252	357.7764	453.0242	490.9541	521.622	597.1592	649.0369	708.452	859.0746	890.2499	915.0437	1022.1422	1072.6405	1095.9838	1132.4002	1161.2275	1190.3401	1227.6747	1275.7525	1280.3028	1365.2224	1429.1212	1438.0812	1456.8619	1844.0287	1867.7964	2984.0986	3025.5263	3031.9557	3110.8369	3125.1476	3813.7431
OC1CC(=O)C(=O)C1	OC1CC(=O)C(=O)C1	
InChI=1S/C5H6O3/c6-3-1-4(7)5(8)2-3/h3,6H,1-2H2	InChI=1S/C5H6O3/c6-3-1-4(7)5(8)2-3/h3,6H,1-2H2
