17
gdb 50448	3.31951	1.28295	0.99247	4.2653	77.7	-0.2387	-0.0221	0.2166	1167.796	0.137727	-418.028459	-418.020504	-418.01956	-418.061443	29.433	
O	-0.331458251	 0.1644600759	-0.7627756634	-0.311408
C	-0.0486280882	 1.3268207576	-0.6028755324	 0.165117
N	 1.0554235057	 1.8000914552	 0.0874569642	-0.090381
C	 1.2895560109	 3.2444007996	 0.1812405127	-0.240486
C	 1.4283478968	 3.7155219435	 1.6070008487	-0.060978
C	 2.4215378531	 3.2770786086	 2.3752625583	-0.054232
C	 3.4657703048	 2.2926859561	 1.8911852893	-0.213735
N	 2.992642105	 1.023459136	 1.3407030394	-0.268652
C	 1.9694928069	 0.8661820154	 0.6120830494	 0.126896
H	-0.6621959443	 2.157433521	-1.0022025796	 0.084685
H	 2.1920482594	 3.4942267599	-0.3927041008	 0.133864
H	 0.4524189945	 3.7388626971	-0.317405142	 0.123253
H	 0.6864538886	 4.4093528169	 1.9899700451	 0.104381
H	 2.5040276464	 3.6188906281	 3.4037476964	 0.104693
H	 4.1183501586	 2.7761399004	 1.1463768494	 0.12461
H	 4.1260576778	 2.0351776579	 2.7244658123	 0.120138
H	 1.700981655	-0.1403066192	 0.2979064428	 0.152234
66.3626	101.8803	218.9407	251.7594	280.7337	337.8356	378.6405	436.8056	540.5667	581.7096	693.6148	744.744	771.674	892.3356	905.5375	935.0702	980.2451	985.9102	995.0222	1019.0563	1025.4514	1079.8132	1199.5238	1226.2717	1241.245	1274.5399	1347.1475	1374.5762	1383.4164	1410.1776	1447.322	1454.2788	1481.1225	1498.4992	1726.4878	1753.0175	1809.6648	2942.7724	2978.3095	3013.0542	3069.2197	3095.7338	3157.3239	3164.0358	3183.7388
O=CN1CC=CCN=C1	O=CN1CC=CCN=C1	
InChI=1S/C6H8N2O/c9-6-8-4-2-1-3-7-5-8/h1-2,5-6H,3-4H2	InChI=1S/C6H8N2O/c9-6-8-4-2-1-3-7-5-8/h1-2,5-6H,3-4H2
