20
gdb 113969	3.43386	0.79745	0.69845	2.5719	81.35	-0.2461	0.024	0.2701	1678.8073	0.167825	-440.24165	-440.231439	-440.230495	-440.277884	35.632	
C	-0.4490021521	 0.9115194215	-0.0020848799	-0.238562
O	 0.411947999	-0.1992343013	 0.2021570625	-0.230627
C	 0.9352559696	-0.7030574799	-0.9750787483	 0.105435
C	 1.2530009464	-2.1704676538	-0.9722255867	-0.356836
C	 0.1046237759	-1.6474402445	-1.8098680929	 0.053922
O	-1.2134671348	-1.8539300115	-1.3796836973	-0.201888
C	-1.6917661615	-3.1156050728	-1.5014334606	 0.132221
N	-2.8990859145	-3.3623425529	-1.2589313778	-0.204838
C	-3.3364997609	-4.7361512514	-1.3905497304	-0.314081
H	 0.0787832063	 1.7408789398	-0.496574184	 0.101964
H	-1.3232689515	 0.6327196729	-0.6011230689	 0.136444
H	-0.776018277	 1.241027776	 0.9863959429	 0.129564
H	 1.5964554492	-0.0233708751	-1.5162611589	 0.088313
H	 2.147483236	-2.5294459738	-1.4680526516	 0.12109
H	 0.9802626159	-2.6911511088	-0.0610498942	 0.14191
H	 0.2168172283	-1.6198510345	-2.8917599638	 0.103194
H	-0.9374907937	-3.8535921798	-1.8125705221	 0.080834
H	-4.1535047372	-4.7930359954	-2.1188483336	 0.127725
H	-2.5424757612	-5.4328579572	-1.7063516131	 0.095405
H	-3.7396658122	-5.0867510177	-0.4336178911	 0.12881
47.7991	79.0986	87.4946	148.3912	178.2666	206.0395	220.2063	272.1197	305.1784	356.1675	421.0802	505.7808	536.608	688.0194	773.9763	813.4816	880.3722	983.2529	1002.4178	1045.7621	1064.86	1071.0675	1092.2437	1127.5518	1136.8384	1142.0584	1159.3021	1174.3836	1185.8965	1216.8963	1244.5936	1279.0207	1365.2934	1393.5707	1408.5961	1450.1304	1466.4916	1480.9972	1487.7509	1491.8676	1504.4359	1507.2181	1780.2129	2966.534	2991.5942	3009.1345	3058.4849	3070.1748	3078.0494	3080.8173	3123.3947	3128.011	3141.6276	3235.8662
COC1CC1OC=NC	CO[C@H]1C[C@H]1OC=NC	
InChI=1S/C6H11NO2/c1-7-4-9-6-3-5(6)8-2/h4-6H,3H2,1-2H3	InChI=1S/C6H11NO2/c1-7-4-9-6-3-5(6)8-2/h4-6H,3H2,1-2H3/t5-,6+/m0/s1
