18
gdb 89320	1.96378	1.76445	1.11805	3.0008	80.33	-0.2389	0.0326	0.2715	1135.0715	0.145516	-401.877472	-401.868347	-401.867403	-401.910893	34.737	
C	 0.0297572634	 1.5279963563	 0.0093975859	-0.476523
C	-0.0664731672	 0.0350451126	 0.0675713989	 0.259035
C	-1.3501309636	-0.8031423429	-0.0209756577	-0.331784
C	-0.72029866	-1.8143991081	 0.9986292739	 0.032183
O	-0.4377208516	-3.1197560445	 0.5454237293	-0.433713
C	 0.5450292212	-0.9452708811	 1.0633872678	 0.157407
N	 1.0911155246	-0.7691813894	-0.288570975	-0.395651
C	 1.3623277509	-0.7455341134	 2.2127300893	 0.214383
C	 2.0139061955	-0.5786333468	 3.2102953359	-0.413231
H	 1.0261203722	 1.8544181898	 0.316960012	 0.143349
H	-0.1458657579	 1.8871262924	-1.0114962586	 0.124495
H	-0.7132229742	 1.9955451357	 0.6635631888	 0.119266
H	-2.2351078145	-0.3018880172	 0.3798524103	 0.106844
H	-1.5802371409	-1.2063960683	-1.0129352945	 0.096444
H	-1.2582544342	-1.823348048	 1.9541950977	 0.084299
H	-1.2699654387	-3.5916034216	 0.4386601378	 0.28847
H	 0.8670686881	-1.5751475482	-0.8711293528	 0.238466
H	 2.6041580269	-0.4338874872	 4.0807934409	 0.18626
106.577	126.457	161.5598	194.7409	234.4783	275.9538	335.7461	372.0158	419.3237	491.5511	549.3842	568.4803	585.4692	595.6976	655.1305	737.724	758.1545	807.2521	862.6788	939.5801	971.0459	1047.8542	1072.3112	1101.83	1120.3739	1152.9745	1177.6006	1191.9092	1211.1025	1241.7552	1284.8273	1343.3055	1392.9636	1413.4013	1457.3018	1481.9103	1485.848	1496.1482	2236.9234	3031.6737	3032.1639	3043.6888	3093.107	3104.2917	3126.6122	3462.4135	3503.6248	3817.1942
CC12CC(O)C1(N2)C#C	C[C@]12C[C@@H](O)[C@]1(N2)C#C	
InChI=1S/C7H9NO/c1-3-7-5(9)4-6(7,2)8-7/h1,5,8-9H,4H2,2H3	InChI=1S/C7H9NO/c1-3-7-5(9)4-6(7,2)8-7/h1,5,8-9H,4H2,2H3/t5-,6+,7-/m1/s1
