25
gdb 112805	1.9015	1.34059	0.87733	1.1477	89.9	-0.2434	0.0796	0.323	1458.7924	0.227629	-389.480772	-389.470099	-389.469155	-389.516348	39.492	
C	 0.127638919	 1.697854421	 0.0567214325	-0.387772
C	 0.0565629913	 0.1664926839	 0.0323787625	-0.167514
C	 0.7318176015	-0.4416515541	-1.2009148796	-0.057166
C	 0.7403680285	-2.0097690424	-1.2868917029	 0.025376
C	 0.626750848	-2.8518064957	-0.0242311406	-0.409445
C	-0.4782707499	-1.9391495838	-2.2481451896	-0.275894
C	-0.1310123643	-0.446743716	-2.4957147809	 0.159946
O	-1.1770703108	 0.4907104318	-2.5276951726	-0.236701
C	-1.9584960409	 0.4139730128	-3.6974593356	-0.238499
H	 1.1686421747	 2.0414715702	 0.0529089545	 0.103979
H	-0.3729361137	 2.1206242188	-0.8169420771	 0.136978
H	-0.3504066068	 2.0997960068	 0.9560995137	 0.102221
H	 0.5451548723	-0.2323216706	 0.9302323995	 0.089061
H	-0.9917260408	-0.1484221116	 0.0837572015	 0.098679
H	 1.7181637768	 0.0194140311	-1.3222853175	 0.058866
H	 1.6269404877	-2.3259555511	-1.8478537832	 0.068908
H	-0.2522738148	-2.5767184393	 0.5669285082	 0.116466
H	 0.5366126705	-3.9141611376	-0.2775588352	 0.110646
H	 1.5089886578	-2.7391115616	 0.6160159864	 0.113212
H	-0.4996194366	-2.6198066735	-3.1029541964	 0.090422
H	-1.4232956169	-2.0237712892	-1.7012755249	 0.102813
H	 0.4984056135	-0.3350751165	-3.3932435345	 0.059505
H	-2.7276410366	 1.187095036	-3.6283175377	 0.125271
H	-1.3546261783	 0.5924341574	-4.601578053	 0.102561
H	-2.4495340809	-0.5652286771	-3.8014356175	 0.108081
77.457	101.4085	126.2737	158.2128	177.7923	203.6846	230.5454	251.0135	292.2843	331.1799	360.1503	428.6689	474.7721	539.369	646.7454	772.4933	786.737	828.9424	895.2624	924.7664	938.628	980.5431	1019.1574	1030.4546	1043.737	1072.8127	1116.3785	1139.244	1159.7457	1171.5538	1185.614	1191.4222	1223.2323	1247.7947	1267.3629	1274.4612	1284.9422	1319.459	1341.2894	1369.277	1392.3575	1400.1268	1406.1517	1412.8015	1479.3575	1480.1177	1485.8638	1491.1873	1495.3783	1498.4484	1499.5886	1511.0136	1514.975	2964.5833	2974.9291	3021.2138	3023.2612	3026.9125	3029.6489	3031.8892	3043.5823	3048.9845	3065.9609	3088.1898	3093.6202	3100.6663	3107.0183	3112.8087	3132.1034
CCC1C(C)CC1OC	CC[C@H]1[C@@H](C)C[C@H]1OC	
InChI=1S/C8H16O/c1-4-7-6(2)5-8(7)9-3/h6-8H,4-5H2,1-3H3	InChI=1S/C8H16O/c1-4-7-6(2)5-8(7)9-3/h6-8H,4-5H2,1-3H3/t6-,7-,8+/m0/s1
