20
gdb 111155	2.87381	1.35626	1.08686	1.4409	80.25	-0.2243	0.078	0.3023	1182.113	0.170113	-403.042197	-403.033878	-403.032933	-403.0752	32.382	
C	 0.1934045362	 1.6932752662	-0.0073176512	-0.372143
C	 0.1747033553	 0.1709092912	 0.1214034459	-0.132719
N	 0.6434447456	-0.4421645131	-1.126485712	-0.100105
C	-0.3483021511	-0.6491710936	-2.2639274705	-0.13465
C	 0.6647925023	-1.6960173203	-2.8093295671	-0.220002
C	 0.5409933868	-1.9492334415	-1.2796133712	-0.131848
C	-0.9836993802	-1.8116707154	-1.472511808	 0.528017
C	-2.196139083	-2.0667702654	-0.7112233157	-0.31346
O	-1.8939588326	-2.7805159742	-1.9324542789	-0.298884
H	 1.1881358113	 2.0407506129	-0.299580806	 0.126424
H	-0.5184773289	 2.0341542822	-0.7668635759	 0.113809
H	-0.0799942706	 2.1659846279	 0.941028262	 0.110988
H	 0.8776741512	-0.1400415954	 0.9043294856	 0.100328
H	-0.823714631	-0.1606741565	 0.4421702146	 0.087619
H	-0.820040013	 0.180469588	-2.7903467557	 0.087422
H	 0.2705885043	-2.4663181989	-3.4720331953	 0.116572
H	 1.621738514	-1.2812010965	-3.125553488	 0.105235
H	 1.1081770536	-2.6363259713	-0.6508001898	 0.085433
H	-2.1574529408	-2.6675596419	 0.1965255428	 0.121172
H	-3.0395173393	-1.3802707342	-0.7744774058	 0.120791
64.2529	156.0351	185.8831	228.7383	279.0532	330.7463	351.667	414.5037	491.038	586.0509	663.7941	734.3399	784.6475	811.0162	817.7003	887.6885	890.9908	901.414	965.4219	992.1949	1023.5443	1050.1169	1078.7282	1107.6918	1111.6493	1120.0384	1130.8183	1161.1041	1167.6617	1174.5024	1187.0763	1216.6214	1234.1828	1252.6127	1305.71	1380.8297	1408.4818	1451.2189	1483.9037	1489.7587	1493.3273	1510.6182	1552.0988	2994.0482	3036.8793	3044.1512	3081.695	3087.3386	3103.5039	3114.42	3120.3109	3122.5886	3165.9099	3170.8738
CCN1C2CC1C21CO1	CCN1[C@H]2C[C@@H]1[C@]12CO1	
InChI=1S/C7H11NO/c1-2-8-5-3-6(8)7(5)4-9-7/h5-6H,2-4H2,1H3	InChI=1S/C7H11NO/c1-2-8-5-3-6(8)7(5)4-9-7/h5-6H,2-4H2,1H3/t5-,6+,7+
