14
gdb 129714	3.43837	1.29539	0.94414	5.2767	68.81	-0.2169	-0.0398	0.1772	1140.109	0.10125	-470.022858	-470.014401	-470.013457	-470.056027	30.097	
N	 0.1067992319	 1.4280304698	-0.1191021394	-0.616246
C	-0.0176496418	 0.0377197746	-0.0347633283	 0.331957
C	-1.1218179014	-0.7750389062	-0.0645242747	 0.145994
O	-2.4040803711	-0.3122079356	-0.1006246254	-0.45346
C	-0.6144106481	-2.1019516849	-0.0139435434	-0.070424
N	 0.7028415703	-2.1292208458	 0.0474126806	-0.236513
N	 1.0757295129	-0.816294944	 0.0200770235	-0.076107
C	 2.4216060346	-0.4308082265	-0.0125169308	 0.181572
O	 3.351449041	-1.1835370596	 0.0549459082	-0.269575
H	 0.3997127675	 1.8598405812	 0.7519869271	 0.258579
H	-0.7786760952	 1.8370343979	-0.3953280888	 0.265138
H	-2.9932743032	-1.0294108506	-0.3520669713	 0.306255
H	-1.173202611	-3.0285524451	-0.0090121699	 0.121565
H	 2.5043794935	 0.6636577049	-0.1193943174	 0.111264
101.2806	130.3707	191.8631	208.411	220.2295	268.5181	309.6008	347.8692	414.6324	535.2456	645.1536	683.8691	695.543	758.7061	803.7238	857.8607	872.5261	1012.3385	1036.7872	1139.2148	1167.992	1252.9632	1270.1594	1358.6981	1388.9977	1437.4513	1456.5211	1517.1472	1648.8189	1705.0312	1841.6677	3005.1335	3222.6517	3502.1868	3592.0725	3842.237
NC1=C(O)C=NN1C=O	Nc1c(O)cnn1C=O	
InChI=1S/C4H5N3O2/c5-4-3(9)1-6-7(4)2-8/h1-2,9H,5H2	InChI=1S/C4H5N3O2/c5-4-3(9)1-6-7(4)2-8/h1-2,9H,5H2
