21
gdb 40906	3.35125	1.24109	1.21288	2.1141	81.43	-0.2384	0.0687	0.3071	1142.9449	0.185068	-387.067756	-387.060017	-387.059072	-387.100032	30.594	
C	-0.1825707433	 1.4922820453	-0.1665582155	-0.148774
O	 1.165195844	 1.6437395008	 0.3298542752	-0.2796
C	 1.3480041683	 0.2154646945	 0.4339540293	-0.152265
C	-0.0662429381	-0.029169631	-0.0847512867	 0.302737
C	-1.028546424	-1.0750658239	 0.3961691328	-0.114695
C	-2.5176994946	-0.7618782285	 0.3383868284	-0.217011
C	-2.7503279327	-0.1808703479	-1.0771300253	-0.223992
C	-1.6606014535	-0.8205234142	-1.9708383628	-0.217012
C	-0.4993703201	-1.1112733811	-1.0295588288	-0.114696
H	-0.918673699	 1.9586549016	 0.5022057743	 0.100368
H	-0.2966890832	 1.9161048687	-1.173508299	 0.100368
H	 2.164851471	-0.1420962731	-0.2080695983	 0.098204
H	 1.5425972545	-0.099548611	 1.4684505898	 0.098205
H	-0.6736467109	-1.7763164671	 1.145765702	 0.07948
H	-3.0813435602	-1.6931771567	 0.4696576842	 0.101441
H	-2.8478331699	-0.075000979	 1.1254397413	 0.099179
H	-3.7598093787	-0.378140381	-1.4468019651	 0.097712
H	-2.6325699878	 0.9071303381	-1.0610532706	 0.11025
H	-2.0176534707	-1.7659581519	-2.3961750149	 0.101441
H	-1.3862428806	-0.1750070532	-2.8124303042	 0.099179
H	 0.2468149094	-1.8392963093	-1.3341759861	 0.07948
98.9564	165.1833	176.4398	239.0123	254.6591	394.9099	429.6955	552.6142	648.0375	653.5147	815.4542	819.786	849.0274	880.8649	893.1619	899.5576	959.7907	960.9152	980.3182	982.4443	1031.3716	1042.8363	1060.6631	1066.7189	1104.1066	1135.4492	1154.4794	1164.2225	1170.2644	1180.5483	1195.0649	1252.7136	1276.0875	1306.9172	1310.8303	1328.0813	1329.248	1353.5293	1377.7379	1466.522	1493.6689	1497.9638	1510.7179	1517.5939	1535.7594	2988.9737	3001.128	3032.0426	3032.5059	3033.7841	3034.8311	3052.543	3069.158	3072.2696	3101.1342	3144.9366	3154.8129
C1OCC11C2CCCC12	C1OCC21[C@H]1CCC[C@@H]21	
InChI=1S/C8H12O/c1-2-6-7(3-1)8(6)4-9-5-8/h6-7H,1-5H2	InChI=1S/C8H12O/c1-2-6-7(3-1)8(6)4-9-5-8/h6-7H,1-5H2/t6-,7+
