20
gdb 70272	3.73156	1.02015	0.90815	1.8417	79.77	-0.2483	-0.0258	0.2224	1322.0159	0.171252	-403.155417	-403.146786	-403.145841	-403.188976	32.77	
C	-0.1048779684	 1.50785548	 0.048775071	-0.466734
C	-0.031742367	 0.0019209916	 0.0622223495	 0.343043
C	-1.2383934208	-0.7918411742	-0.4293254844	-0.30406
C	-1.0138203255	-2.2494772743	 0.0577720251	-0.091479
C	-0.1245496534	-2.1018857765	 1.3260987584	-0.261607
C	 0.641328334	-0.8074287719	 1.1166472368	-0.053391
N	 1.2961798341	-0.588435102	-0.1834504258	-0.371684
C	-2.3174324584	-2.9489824336	 0.3648196722	 0.153366
O	-2.6989708304	-3.9704149967	-0.1424302022	-0.246422
H	 0.8168518546	 1.9377914905	 0.4475792009	 0.132093
H	-0.2344839957	 1.883907915	-0.972524426	 0.120755
H	-0.94907312	 1.8672902032	 0.6478223241	 0.113593
H	-2.1458484644	-0.3726672965	 0.0270916974	 0.105579
H	-1.3763689256	-0.7409954683	-1.5147560419	 0.115721
H	-0.5078084938	-2.8447341323	-0.705946334	 0.096823
H	-0.748165349	-2.0081818464	 2.2257964471	 0.10833
H	 0.5191964744	-2.9752132047	 1.4725199393	 0.119003
H	 1.1461076331	-0.3569515146	 1.9669347694	 0.090696
H	 1.2456401986	-1.4173993499	-0.7708510216	 0.226277
H	-2.9327950764	-2.4241744584	 1.1362918246	 0.070102
66.8159	92.8396	195.0561	225.4069	272.5147	341.6825	359.8953	362.6439	393.1388	491.1592	581.7706	683.3673	713.8949	821.2728	866.6721	878.38	899.4376	925.6572	981.0051	988.4515	1028.4369	1064.8864	1076.4372	1083.6272	1090.7135	1139.4245	1183.7621	1191.6294	1235.1784	1270.6813	1286.0905	1309.8356	1328.2158	1336.8919	1343.438	1412.6901	1425.6537	1444.3133	1481.9983	1486.9072	1493.2938	1500.6809	1836.8066	2833.372	3014.5616	3019.9485	3030.7619	3065.9372	3073.0493	3088.1146	3089.786	3124.3178	3147.0253	3491.1962
CC12CC(CC1N2)C=O	C[C@]12C[C@@H](C[C@H]1N2)C=O	
InChI=1S/C7H11NO/c1-7-3-5(4-9)2-6(7)8-7/h4-6,8H,2-3H2,1H3	InChI=1S/C7H11NO/c1-7-3-5(4-9)2-6(7)8-7/h4-6,8H,2-3H2,1H3/t5-,6-,7+/m1/s1
