17
gdb 127406	2.96999	1.70693	1.11688	4.1392	76.41	-0.1958	0.0129	0.2087	1057.6703	0.138346	-417.992417	-417.984877	-417.983933	-418.024468	28.386	
C	-0.1187381419	 1.5235353073	-0.0060039095	-0.344035
N	 0.1442025142	 0.0974082361	 0.0215296522	-0.174969
C	 0.7216682644	-0.5443297652	-1.1905246179	-0.163854
C	 1.3710885818	-1.8908907889	-0.7089981769	-0.372526
C	 1.5340490357	-1.6088011945	 0.7602120098	 0.09586
C	 0.8194996804	-0.4900493641	 1.0593525508	 0.51246
O	 0.8374441632	-0.1792324241	 2.3426958111	-0.256182
N	 1.6359916552	-1.1896303891	 2.9938241066	-0.175401
C	 2.0079940389	-2.0076005355	 2.0255274015	-0.117609
H	 0.7795257512	 2.112954868	-0.2525604791	 0.11742
H	-0.8897821045	 1.7408916453	-0.7504011124	 0.131956
H	-0.4859459393	 1.8406822971	 0.9722999318	 0.154596
H	-0.0535789173	-0.6911590218	-1.9470221893	 0.118313
H	 1.4925463718	 0.1166622531	-1.6155110502	 0.107016
H	 0.6959992352	-2.7350082078	-0.8969782178	 0.120749
H	 2.2986012324	-2.0915640864	-1.2522992919	 0.119408
H	 2.6243988185	-2.8525106595	 2.3029773313	 0.126798
127.8753	150.7022	200.3855	228.9165	259.3664	327.5823	480.7617	584.2853	610.2813	640.471	720.4344	740.4519	802.2355	839.6587	912.4134	931.2176	956.1745	996.4834	1071.1208	1100.4778	1146.9164	1186.9902	1192.1471	1209.7418	1234.5318	1270.015	1297.3556	1359.6654	1408.6013	1442.2661	1455.5419	1487.3819	1496.5802	1503.0673	1515.7205	1584.9918	1652.8272	2973.4018	2986.6222	3024.3007	3078.5083	3082.6163	3091.1403	3133.7122	3230.912
CN1CCC2=C1ON=C2	CN1CCc2c1onc2	
InChI=1S/C6H8N2O/c1-8-3-2-5-4-7-9-6(5)8/h4H,2-3H2,1H3	InChI=1S/C6H8N2O/c1-8-3-2-5-4-7-9-6(5)8/h4H,2-3H2,1H3
