18
gdb 47036	3.4557	1.44057	1.1384	3.1248	73.74	-0.2524	0.0226	0.275	1078.4301	0.149663	-439.080753	-439.073314	-439.07237	-439.112997	28.982	
N	-0.1006603013	 1.2163475519	 0.665054536	-0.511088
C	-0.0080305411	 0.0877049826	 0.1021466684	 0.375102
C	-1.2441908757	-0.7555826503	-0.130965106	-0.168466
O	-1.1582228032	-1.5273604719	-1.3154575643	-0.256961
C	-0.0851659188	-2.4416858407	-1.2211798043	 0.081999
C	 0.4214752516	-2.7860965806	-2.6369057814	-0.250412
C	 1.443979193	-1.6176698044	-2.5223138699	-0.252191
C	 1.2376787347	-1.6730182272	-0.9882723574	 0.123054
O	 1.1885582506	-0.4384575363	-0.2795231345	-0.255231
H	 0.8263326488	 1.6307848124	 0.7845990058	 0.21949
H	-1.4055882919	-1.4078734343	 0.7440781493	 0.112667
H	-2.1014416334	-0.0894448508	-0.2232590117	 0.148373
H	-0.3329958387	-3.2581313409	-0.527865214	 0.068818
H	 0.8995168845	-3.767735606	-2.6706428974	 0.111017
H	-0.3323090367	-2.7217509736	-3.4223578218	 0.12369
H	 2.456200652	-1.7764122964	-2.8967210604	 0.107348
H	 1.0438334744	-0.6893617349	-2.9336244371	 0.127364
H	 1.9934729912	-2.2915665187	-0.4961075395	 0.095428
72.3656	115.6559	246.3115	331.5414	382.7564	397.7749	451.004	495.2599	585.665	672.9445	742.6766	769.9732	833.6813	873.3323	908.2016	913.3734	934.7256	972.076	999.9964	1043.9466	1072.4201	1084.3646	1131.3507	1154.6438	1178.9007	1204.4233	1244.0241	1259.9595	1271.1267	1291.3912	1297.649	1325.5896	1359.8105	1392.3801	1410.2282	1469.949	1479.41	1486.5799	1756.4528	2966.7556	2998.6203	3068.9057	3079.0974	3083.5008	3133.7214	3142.2537	3147.4444	3460.4492
N=C1COC2CCC2O1	[NH][C]1CO[C@H]2CC[C@H]2O1	
InChI=1S/C6H9NO2/c7-6-3-8-4-1-2-5(4)9-6/h4-5,7H,1-3H2	InChI=1S/C6H9NO2/c7-6-3-8-4-1-2-5(4)9-6/h4-5,7H,1-3H2/t4-,5+/m0/s1
