20
gdb 105695	2.59954	1.10527	0.90963	4.3151	78.2	-0.2482	0.0316	0.2798	1356.3565	0.168833	-440.250096	-440.24021	-440.239266	-440.285714	35.383	
C	 0.3371020785	-0.3993492854	 1.4038160856	-0.251878
O	-0.305101302	 0.0289097812	 0.2168376832	-0.283406
C	-1.4656532266	-0.6824248207	-0.1179504423	 0.439688
C	-2.6964736282	-0.2900995777	 0.6667418406	-0.173209
O	-3.1616871851	 1.0120635274	 0.3157944723	-0.175364
C	-2.6081474691	 2.0592338837	 0.9589164207	 0.140941
N	-2.8956127491	 3.2366655269	 0.6076997027	-0.445482
C	-1.6142366121	-0.9866224419	-1.5760133565	-0.298438
C	-1.3140907086	-2.10632929	-0.6026449209	-0.333405
H	 1.2502941587	 0.1926616569	 1.4972865966	 0.133381
H	-0.2784730505	-0.2335088035	 2.2997508404	 0.104037
H	 0.601846368	-1.4643667198	 1.3611352429	 0.111991
H	-3.5201343712	-0.9703565227	 0.4367552887	 0.120034
H	-2.510896915	-0.344022899	 1.7481809716	 0.105047
H	-1.9431343247	 1.7674152978	 1.7822145004	 0.082148
H	-2.4173194187	 3.9026043629	 1.2107222574	 0.22575
H	-2.6035436557	-0.9191130906	-2.0138112405	 0.126921
H	-0.8058426714	-0.6541778343	-2.2157780582	 0.13124
H	-0.3101265075	-2.5149185552	-0.6134019341	 0.123452
H	-2.0917742096	-2.8265426361	-0.3716676407	 0.116551
49.1681	68.4997	118.2997	145.3652	193.1629	232.391	252.0026	297.2078	345.0343	386.6045	441.1034	556.4635	663.0211	730.6531	775.7861	816.214	896.8553	910.3057	926.6849	982.6695	989.8735	1035.843	1042.7243	1056.3584	1080.0301	1103.801	1136.6742	1182.8832	1188.0273	1218.458	1236.7674	1287.3255	1327.4199	1365.1987	1402.816	1426.978	1456.05	1475.6242	1482.8957	1497.1529	1500.2405	1509.7032	1744.9335	2991.8128	3015.9839	3033.6297	3046.3028	3102.2332	3121.4301	3136.3218	3146.9023	3221.3113	3239.8389	3517.9745
COC1(COC=N)CC1	COC1(CO[CH][NH])CC1	
InChI=1S/C6H11NO2/c1-8-6(2-3-6)4-9-5-7/h5,7H,2-4H2,1H3	InChI=1S/C6H11NO2/c1-8-6(2-3-6)4-9-5-7/h5,7H,2-4H2,1H3
