17
gdb 116858	5.59666	0.53092	0.4894	1.9416	78.96	-0.2673	-0.0334	0.2339	2212.7092	0.132547	-458.941616	-458.931074	-458.93013	-458.979183	34.321	
C	-0.0126520793	 1.4079779606	 0.009308312	-0.221661
O	 0.0784633369	 0.0002652405	 0.0011645941	-0.226294
C	-1.1916907692	-0.6123879016	 0.0096111949	-0.211555
C	-1.0559651261	-2.0610281285	 0.0006870975	 0.175443
C	-0.9765270595	-3.2626109661	-0.0064086582	 0.011584
C	-0.9662024399	-4.7054477887	-0.0141028774	 0.250207
O	-1.9569700905	-5.3946962293	-0.0081263621	-0.357888
O	 0.2930332674	-5.1792923689	-0.0287219869	-0.214836
C	 0.3990635651	-6.6096840277	-0.0372194557	-0.241191
H	 1.0082022795	 1.7948062569	 0.0019505506	 0.136894
H	-0.5459588418	 1.7880438149	-0.8762331304	 0.109201
H	-0.5295813629	 1.7787861929	 0.9083835486	 0.109201
H	-1.7698097737	-0.3094756939	 0.9007099856	 0.127679
H	-1.7860773183	-0.3001261067	-0.8674489017	 0.127677
H	-0.069080264	-7.0359629063	 0.8535905162	 0.144079
H	-0.0863512806	-7.0266899513	-0.9231601396	 0.144081
H	 1.467438557	-6.8236176368	-0.0487175375	 0.137379
42.4735	58.1704	69.739	109.575	123.6333	173.7724	215.4563	235.9388	304.1443	326.9041	392.7236	409.1763	584.7972	612.9964	772.848	836.9609	969.6464	992.377	1016.9416	1099.637	1155.6903	1177.2068	1182.8032	1212.7002	1221.1404	1253.0105	1284.7266	1407.3625	1471.2447	1476.5496	1480.7626	1486.3068	1489.6704	1496.2644	1513.8597	1790.758	2359.1202	2946.061	2963.8903	2973.8496	3019.2146	3052.8143	3127.3497	3127.5601	3163.525
COCC#CC(=O)OC	COCC#CC(=O)OC	
InChI=1S/C6H8O3/c1-8-5-3-4-6(7)9-2/h5H2,1-2H3	InChI=1S/C6H8O3/c1-8-5-3-4-6(7)9-2/h5H2,1-2H3
