16
gdb 91616	2.31691	2.07292	1.49288	3.8615	64.38	-0.2629	0.0199	0.2827	909.674	0.126319	-475.031926	-475.024869	-475.023925	-475.063368	27.851	
O	 0.0001676567	 1.4396725341	-0.0389856127	-0.419159
C	 0.0364445173	 0.0339306708	 0.0301626352	 0.112211
C	 0.5835315541	-0.5598917742	 1.3707049565	-0.281392
C	-0.6530542487	-1.34280407	 1.8365183149	 0.181566
O	-1.2062391223	-1.830156064	 0.631877601	-0.249597
C	-1.4122189462	-0.5312272646	 0.045418861	-0.065321
C	-2.1697493092	 0.1535289105	 1.1677319471	 0.468599
N	-3.0882721825	 1.0066031221	 1.0906044846	-0.551641
O	-1.6328353431	-0.3932081924	 2.3141537706	-0.261185
H	 0.9008878819	 1.764964926	-0.1276654613	 0.292647
H	 0.5679762735	-0.3964159663	-0.8274048629	 0.086908
H	 1.4319633468	-1.2302947625	 1.2163963239	 0.113154
H	 0.8611024442	 0.2276566115	 2.0736544068	 0.122473
H	-0.5315862848	-2.1341236686	 2.5733748897	 0.106655
H	-1.9294284059	-0.5914039102	-0.9066641782	 0.11737
H	-3.406539882	 1.2861544578	 2.0203028837	 0.226712
124.442	151.0384	252.6695	351.2903	403.6101	424.3289	488.4288	525.4862	629.8193	701.7244	737.8605	831.3361	854.9313	861.7179	899.9553	910.5524	925.3695	981.1137	1003.9541	1028.9055	1057.879	1092.8277	1113.9097	1179.2629	1194.5438	1243.566	1257.7943	1261.8367	1313.3869	1327.1303	1354.7497	1373.8643	1422.4187	1474.7785	1814.5908	3024.1178	3075.1219	3133.9711	3152.7634	3188.3238	3471.6465	3830.4654
OC1CC2OC1C(=N)O2	O[C@H]1C[C@@H]2O[C@H]1[C]([NH])O2	
InChI=1S/C5H7NO3/c6-5-4-2(7)1-3(8-4)9-5/h2-4,6-7H,1H2	InChI=1S/C5H7NO3/c6-5-4-2(7)1-3(8-4)9-5/h2-4,6-7H,1H2/t2-,3+,4+/m0/s1
