18
gdb 81503	3.69699	1.26202	1.06012	1.8507	79.71	-0.24	0.0271	0.2671	1156.652	0.146042	-401.83802	-401.82936	-401.828415	-401.870671	33.869	
C	-0.1624941038	 1.5702476502	-0.0329525098	-0.440588
C	-0.0076567143	 0.0611340364	-0.0071637966	 0.029466
C	 1.2712667588	-0.5948626112	-0.6085918482	-0.103049
N	 2.0403834968	-0.0208979896	 0.5617102927	-0.337385
C	 0.780116231	-0.6136721591	 1.1601061781	-0.078003
C	 0.9532873224	-1.8771584911	 0.259452683	 0.277624
O	-0.2225245173	-2.6163391851	 0.0167142941	-0.479852
C	 2.0777541735	-2.763795407	 0.5407850688	 0.243815
C	 2.9664246844	-3.5535784252	 0.727826695	-0.445635
H	 0.7680895795	 2.0702579554	 0.2389787495	 0.141928
H	-0.461986759	 1.9063723767	-1.0319514729	 0.111679
H	-0.9471592667	 1.885421808	 0.6637674984	 0.112925
H	-0.9303224312	-0.4546777487	-0.2696585303	 0.096856
H	 1.6551231684	-0.5546848448	-1.6300657671	 0.080461
H	 2.8415588248	-0.620757578	 0.7788610215	 0.216261
H	 0.5790041068	-0.5919482209	 2.2325613511	 0.08559
H	 0.0124122114	-3.3846496999	-0.5139213615	 0.288462
H	 3.7554345345	-4.241749696	 0.9083896943	 0.199446
126.4035	147.0325	208.9375	247.3694	258.9779	271.9335	340.2335	374.8021	477.722	522.7192	534.1748	619.7829	648.2537	676.597	700.6747	780.825	804.1833	806.9482	882.4601	941.8699	1011.7547	1043.7284	1054.1659	1084.0304	1102.9508	1135.3321	1151.7356	1181.4051	1199.0397	1220.9237	1236.5179	1297.263	1297.7087	1361.5029	1398.1524	1422.4323	1492.6952	1506.8798	2222.0744	3034.8364	3088.5408	3095.2563	3104.4224	3124.5484	3146.0068	3402.8857	3498.2742	3817.9249
CC1C2NC1C2(O)C#C	C[C@H]1[C@H]2N[C@@H]1[C@]2(O)C#C	
InChI=1S/C7H9NO/c1-3-7(9)5-4(2)6(7)8-5/h1,4-6,8-9H,2H3	InChI=1S/C7H9NO/c1-3-7(9)5-4(2)6(7)8-5/h1,4-6,8-9H,2H3/t4-,5+,6-,7-
