18
gdb 12832	3.18026	2.26268	1.712	1.4065	73.37	-0.2339	0.0071	0.241	833.391	0.154527	-347.778092	-347.770982	-347.770038	-347.808915	28.211	
C	-0.1018443058	 1.6112400466	-0.119733329	-0.443191
C	 0.0426523944	 0.1025646191	 0.0119935669	 0.42614
C	 0.7474317413	-0.579115701	-1.1774264487	-0.286867
C	 2.1778510886	-0.8599210711	-0.6050735355	-0.246467
C	 1.9055952207	-1.0718728301	 0.8864341904	-0.20249
C	 0.7590878723	-0.4792188041	 1.1945358	 0.161696
C	-0.5758482528	-0.6654725135	 1.8673598474	-0.170335
O	-1.2097373999	-0.4682670491	 0.5668930297	-0.34533
H	 0.8412077018	 2.0668240467	-0.4402779657	 0.117133
H	-0.8654634024	 1.8451278148	-0.8691194224	 0.126469
H	-0.4024582984	 2.0692704182	 0.8267674871	 0.116938
H	 0.2473258485	-1.5297171619	-1.3849689903	 0.117113
H	 0.7558450707	 0.0171011555	-2.0948867972	 0.090844
H	 2.6356941509	-1.74560205	-1.0572557713	 0.107648
H	 2.8627316425	-0.0236516307	-0.8009298615	 0.108713
H	 2.5081623269	-1.7176063034	 1.5143510715	 0.098438
H	-0.7824371426	-1.6517554084	 2.2957181054	 0.117681
H	-0.8816700266	 0.1127805826	 2.5789067132	 0.105869
147.8044	235.4484	245.6605	261.199	349.3953	358.333	459.6377	563.2395	646.2325	706.0222	769.7103	820.9903	864.4464	872.1443	896.7801	932.9806	945.4335	959.9464	997.0325	1012.1425	1068.4437	1100.529	1139.2634	1167.9185	1198.6531	1220.2258	1238.5071	1283.6563	1306.1881	1320.4775	1348.6431	1405.2151	1476.5925	1486.6111	1490.252	1495.1684	1513.601	1744.2972	3011.9519	3016.0635	3033.0433	3052.751	3072.3177	3073.1172	3102.4321	3106.286	3112.651	3199.9782
CC12CCC=C1CO2	C[C@@]12CC[CH][C]1CO2	
InChI=1S/C7H10O/c1-7-4-2-3-6(7)5-8-7/h3H,2,4-5H2,1H3	InChI=1S/C7H10O/c1-7-4-2-3-6(7)5-8-7/h3H,2,4-5H2,1H3/t7-/m1/s1
