16
gdb 133105	2.8181	1.45864	1.03463	2.3586	72.9	-0.2656	-0.038	0.2276	1127.5917	0.125509	-442.101357	-442.0936	-442.092656	-442.134094	28.553	
C	 0.0488658141	 1.567620994	-0.0910276	-0.378217
C	 0.0015720471	 0.0394307769	 0.0837018215	-0.303221
C	-1.3983050379	-0.5151049246	 0.0716518873	 0.094835
C	-2.0500647017	-1.0054359467	 1.1980381939	-0.042064
N	-3.2994728546	-1.4874760884	 1.1896645746	-0.25494
C	-3.9107010007	-1.4789061805	 0.0109624927	 0.072124
N	-3.4027441862	-1.0431250219	-1.148498872	-0.301674
C	-2.1787645547	-0.579134281	-1.0861640192	 0.308151
F	-1.6525461747	-0.142397649	-2.2270481161	-0.062548
H	 1.0831585185	 1.9231288474	-0.0746818585	 0.121933
H	-0.3971820933	 1.8630764933	-1.0442989904	 0.136249
H	-0.4977871734	 2.0720262778	 0.7115649937	 0.123784
H	 0.5827073791	-0.4316970958	-0.7170734972	 0.124679
H	 0.4808122604	-0.2407396343	 1.0279678709	 0.111103
H	-1.5349261902	-1.0118734072	 2.1570229128	 0.120616
H	-4.9257414317	-1.8648868299	-0.0242516441	 0.12919
73.3246	129.621	203.9701	217.2184	296.2027	347.9517	457.7889	490.2199	552.3817	603.4791	633.9695	758.203	786.9446	820.9737	893.707	960.2883	974.9569	1008.956	1071.9444	1088.6838	1153.8025	1215.4488	1263.4837	1285.6031	1323.0109	1333.1675	1362.5249	1408.1415	1433.8361	1475.8319	1493.4903	1500.928	1509.9861	1597.1593	1638.8123	3038.2387	3044.1367	3076.2118	3115.3039	3126.0724	3148.9302	3177.3392
CCC1=CN=CN=C1F	CCc1cncnc1F	
InChI=1S/C6H7FN2/c1-2-5-3-8-4-9-6(5)7/h3-4H,2H2,1H3	InChI=1S/C6H7FN2/c1-2-5-3-8-4-9-6(5)7/h3-4H,2H2,1H3
