19
gdb 6978	2.55483	2.25087	1.65871	1.6604	70.97	-0.2443	0.0266	0.2709	890.3706	0.164994	-365.093193	-365.084859	-365.083914	-365.1257	31.565	
C	-0.4436358038	 1.4297244007	 0.0035851333	-0.408909
C	 0.1355581548	 0.0291174021	-0.0723755501	 0.088124
O	 1.2264978075	 0.0146174203	-1.0380809602	-0.236929
C	 2.1948209335	-0.7376069897	-0.4680541511	 0.105187
N	 2.0648504767	-1.1509846255	 0.7212387258	-0.290744
C	 0.7761381769	-0.5998105979	 1.2164088059	 0.261864
C	 1.0976450179	 0.4109121806	 2.3271468755	-0.411968
C	-0.0931218082	-1.7337772637	 1.7683160525	-0.417279
H	 0.2996200387	 2.1544498528	 0.3438800422	 0.128882
H	-0.8011048397	 1.7421741158	-0.981484778	 0.129012
H	-1.2927821466	 1.4517958	 0.6938190997	 0.122923
H	-0.6263615355	-0.6568292028	-0.4645219044	 0.084719
H	 3.0496854094	-0.9262861657	-1.109332716	 0.134952
H	 1.7274652967	 1.2252261169	 1.9583975168	 0.118925
H	 0.1862212174	 0.8420068865	 2.7534288603	 0.109613
H	 1.6453741956	-0.0956479198	 3.1261022568	 0.128302
H	 0.3990200139	-2.2118429179	 2.6196074864	 0.126583
H	-1.0647611238	-1.3518556781	 2.1022533629	 0.10938
H	-0.2666311714	-2.4974351047	 1.0045241015	 0.117364
51.5968	213.1018	238.048	258.4443	279.2713	300.8083	308.8955	337.2439	423.8449	510.2796	594.8144	609.4389	735.1289	811.6489	850.0145	925.318	941.6476	966.2203	970.5054	1009.9077	1052.9233	1084.0936	1120.5694	1147.1726	1201.5526	1221.7711	1257.255	1329.1605	1360.8339	1386.7883	1396.4338	1413.0087	1418.371	1473.7511	1481.7178	1487.0748	1497.5503	1498.8325	1512.0971	1704.9296	3016.9827	3031.4697	3040.191	3047.617	3101.8096	3111.0036	3116.136	3117.7721	3122.0477	3131.642	3205.1812
CC1OC=NC1(C)C	C[C@H]1O[CH][N]C1(C)C	
InChI=1S/C6H11NO/c1-5-6(2,3)7-4-8-5/h4-5H,1-3H3	InChI=1S/C6H11NO/c1-5-6(2,3)7-4-8-5/h4-5H,1-3H3/t5-/m1/s1
