18
gdb 67947	2.44296	1.8352	1.33149	3.6419	77.	-0.242	0.0038	0.2458	1006.0589	0.148582	-401.981457	-401.973792	-401.972848	-402.013326	30.255	
C	 0.0602530808	 1.5589480425	-0.0910251727	-0.447149
C	-0.06642713	 0.0411585663	-0.0300691653	 0.29463
C	-1.4113208486	-0.5189105689	 0.5321264034	-0.440559
C	-0.5214963332	-1.2907195415	 1.5235238674	 0.410036
O	-0.6732311471	-2.1915312924	 2.3007296922	-0.344056
N	 0.6433645281	-0.6227211392	 1.1147418044	-0.131203
C	 1.8123881421	-1.3797802391	 0.6535546691	-0.248772
C	 1.5875444229	-1.418425372	-0.8483271169	-0.070139
C	 0.549332506	-0.6673130176	-1.2169006225	-0.130367
H	 1.0987895833	 1.8590261159	-0.2598820804	 0.124621
H	-0.5451071486	 1.9598985031	-0.9113715529	 0.120673
H	-0.2839272739	 2.0126196098	 0.8430144297	 0.125506
H	-2.0854016127	 0.2191859212	 0.972932572	 0.127416
H	-1.9732266828	-1.1742615834	-0.1358822923	 0.134342
H	 2.7577970456	-0.8875154166	 0.916378938	 0.11903
H	 1.8135144093	-2.369140034	 1.1237594504	 0.142214
H	 2.2302147307	-1.9811463548	-1.515454656	 0.108463
H	 0.2097435181	-0.5112368093	-2.2340896578	 0.105315
107.6422	203.9575	227.7265	250.0519	305.334	344.8741	444.0409	516.1052	575.8104	596.3874	659.8206	734.3942	754.0534	784.7939	870.1874	897.1496	926.5762	947.0016	964.6156	968.0496	1042.3849	1051.3034	1086.9301	1100.9637	1155.5262	1178.9858	1207.4868	1236.6215	1242.527	1291.1559	1332.9525	1358.0912	1406.6518	1450.2157	1486.5314	1493.4444	1499.7107	1666.1184	1882.5929	3019.7311	3034.2235	3073.9407	3076.3784	3104.8019	3115.3758	3136.0034	3193.5531	3217.2893
CC12CC(=O)N1CC=C2	C[C@]12CC(=O)N1CC=C2	
InChI=1S/C7H9NO/c1-7-3-2-4-8(7)6(9)5-7/h2-3H,4-5H2,1H3	InChI=1S/C7H9NO/c1-7-3-2-4-8(7)6(9)5-7/h2-3H,4-5H2,1H3/t7-/m0/s1
