21
gdb 50073	3.08599	0.94933	0.78682	3.2997	85.06	-0.2438	-0.0153	0.2285	1485.8646	0.182346	-387.079122	-387.070154	-387.06921	-387.113779	33.408	
O	-0.1280159723	 0.0600902663	-0.6342533616	-0.273588
C	-0.0372329028	 1.1718131503	-0.1722096932	 0.164473
C	 1.2330464394	 1.9128267512	-0.0241877302	-0.108796
C	 1.2185312974	 3.4331158143	-0.1453279355	-0.316243
C	 1.4929024938	 2.8202922938	 1.1867701979	-0.018754
C	 0.5340226829	 2.9453433195	 2.3409350361	 0.039428
C	 0.5835354099	 1.8949051992	 3.4893569009	-0.230225
C	 0.3471798844	 3.0479269699	 4.5014718071	-0.21009
C	 0.8066457371	 4.0485024142	 3.4074271351	-0.234433
H	-0.9450300692	 1.724002826	 0.1645346622	 0.063887
H	 2.0900119514	 1.3832307518	-0.4260548877	 0.10555
H	 2.0245042828	 3.8913146509	-0.7067622303	 0.12697
H	 0.2484231401	 3.8992924865	-0.2922006493	 0.122453
H	 2.5368392811	 2.8084569547	 1.4936552267	 0.09358
H	-0.4937054242	 3.0438626243	 1.9768258225	 0.07045
H	-0.1369090969	 1.0739934237	 3.4595781199	 0.103499
H	 1.5878428144	 1.4704919221	 3.5903807281	 0.101177
H	-0.713812889	 3.1670801613	 4.7390621375	 0.104229
H	 0.9102276231	 3.0257250252	 5.4369467852	 0.099103
H	 1.877735806	 4.2639001605	 3.4841077854	 0.099028
H	 0.2694375206	 4.9949954246	 3.3105394632	 0.098302
45.8087	91.332	126.4003	153.1032	221.544	288.7027	343.4887	390.35	433.6774	547.1617	626.318	750.8409	784.2789	833.985	850.8749	873.5964	901.3483	932.8048	952.0305	965.1516	975.1153	1026.3305	1046.7905	1049.5032	1074.7133	1097.7316	1136.9142	1187.3299	1193.0105	1202.987	1227.7275	1255.7138	1256.5241	1261.7135	1277.6207	1288.4469	1328.8651	1343.4042	1426.4131	1451.7687	1477.78	1486.8785	1488.5221	1510.2844	1813.6149	2858.7645	3045.7156	3048.1277	3054.3782	3060.5482	3099.5944	3103.9524	3119.3347	3128.0532	3128.729	3176.8798	3218.1658
O=CC1CC1C1CCC1	O=C[C@H]1C[C@H]1C1CCC1	
InChI=1S/C8H12O/c9-5-7-4-8(7)6-2-1-3-6/h5-8H,1-4H2	InChI=1S/C8H12O/c9-5-7-4-8(7)6-2-1-3-6/h5-8H,1-4H2/t7-,8+/m1/s1
