18
gdb 114964	3.64577	0.94866	0.8053	1.7083	69.06	-0.2599	0.0126	0.2725	1404.7896	0.147605	-476.231612	-476.22247	-476.221525	-476.266417	32.572	
O	 0.0789030491	 1.2825267108	 0.335879755	-0.418324
C	-0.0321533459	-0.118721005	 0.22355592	-0.065919
C	-1.4472632353	-0.5606568402	-0.1209725915	 0.06405
C	-1.6656392044	-2.0964387653	-0.1245594043	-0.210953
N	-2.5881647836	-2.3466125774	 0.9919228075	-0.333005
C	-2.8756376582	-1.2143763709	 1.4873778675	 0.387455
C	-3.8023594593	-1.0270825621	 2.6502745483	-0.126769
O	-4.2947247765	-2.2535023135	 3.1180933138	-0.419749
O	-2.3330503235	-0.0972843919	 0.9457128511	-0.276587
H	-0.5673665717	 1.5607643609	 0.994788146	 0.292692
H	 0.6461328601	-0.4299067523	-0.5787088585	 0.118868
H	 0.2848001426	-0.6334152615	 1.1461431554	 0.096361
H	-1.777930767	-0.0680460574	-1.0392475392	 0.105392
H	-2.1018138744	-2.4574514649	-1.0609944044	 0.125299
H	-0.7283242369	-2.6434795637	 0.0318924251	 0.120482
H	-3.2600168619	-0.4910620672	 3.4448783817	 0.119143
H	-4.6236523481	-0.3647765607	 2.3344825012	 0.122775
H	-3.906082875	-2.9339868379	 2.5494094853	 0.29879
47.5236	91.9373	121.9478	176.4684	218.8956	240.7339	302.9135	382.9565	402.2665	443.8498	502.832	601.228	704.4623	758.0174	840.3574	913.1334	958.5703	1020.3404	1032.3295	1042.2361	1061.9093	1097.8339	1115.7077	1122.3056	1202.5236	1230.901	1242.2693	1247.0862	1312.4332	1324.0441	1342.7424	1370.0953	1403.0379	1429.7541	1482.6519	1493.9929	1505.2149	1506.8093	1742.6287	2970.4219	2986.7409	3002.9771	3037.083	3066.4509	3074.549	3087.9357	3724.4326	3803.5507
OCC1CN=C(CO)O1	OC[C@H]1CN=C(CO)O1	
InChI=1S/C5H9NO3/c7-2-4-1-6-5(3-8)9-4/h4,7-8H,1-3H2	InChI=1S/C5H9NO3/c7-2-4-1-6-5(3-8)9-4/h4,7-8H,1-3H2/t4-/m1/s1
