17
gdb 36184	3.91505	1.13109	1.10615	1.9018	76.52	-0.23	0.0497	0.2797	1145.0444	0.134913	-384.581736	-384.574047	-384.573103	-384.614309	30.075	
C	-0.1070349009	-1.1589413246	-0.3086781462	-0.448192
C	-0.043872114	 0.0180247414	-0.0752637925	 0.311573
C	 0.0601181018	 1.4466401409	 0.2150625243	-0.485909
C	 1.4772924245	 1.956849741	 0.1371110167	 0.302785
C	 2.6704932691	 1.5999569009	 1.0255788493	-0.279263
C	 3.3756896711	 2.790397021	 0.3271171825	 0.06641
O	 3.5405566934	 2.3320301692	-1.0461843737	-0.294494
C	 2.1267659099	 2.4644616833	-1.1653245751	 0.064399
C	 1.9627316976	 3.3999516419	-0.0149355098	-0.210368
H	-0.1689626916	-2.1978740581	-0.5186342027	 0.19749
H	-0.5697319008	 2.0103245817	-0.4869178265	 0.130847
H	-0.3535227212	 1.6457450106	 1.2132803136	 0.133656
H	 2.4593494628	 1.812821621	 2.0774279636	 0.101059
H	 3.1430484384	 0.6196841722	 0.9139207302	 0.109592
H	 4.2530222891	 3.2915482311	 0.7295081334	 0.089601
H	 1.6678335443	 2.4122267152	-2.1441292076	 0.11114
H	 1.4896873664	 4.3634367712	 0.1173114504	 0.099673
61.4398	98.4587	260.4853	278.6823	342.6487	421.1002	461.8406	529.8566	622.0228	639.4572	684.1948	752.5613	772.7992	807.5908	817.5935	892.5771	906.7958	922.5365	949.5581	970.1141	985.4767	1036.2774	1041.7582	1050.1915	1120.793	1147.4017	1159.6149	1191.0171	1223.0854	1247.7654	1298.6225	1317.2272	1334.353	1406.4943	1465.466	1488.7575	2240.6153	3006.2624	3034.4368	3051.1853	3112.032	3149.3958	3199.6181	3213.2392	3506.4121
C#CCC12CC3OC1C23	C#CC[C@@]12C[C@H]3O[C@@H]1[C@@H]23	
InChI=1S/C8H8O/c1-2-3-8-4-5-6(8)7(8)9-5/h1,5-7H,3-4H2	InChI=1S/C8H8O/c1-2-3-8-4-5-6(8)7(8)9-5/h1,5-7H,3-4H2/t5-,6+,7-,8+/m1/s1
