18
gdb 26331	3.4847	1.02626	0.93723	2.3404	74.72	-0.2379	0.0027	0.2406	1324.7996	0.146866	-439.130421	-439.121231	-439.120286	-439.164995	33.152	
C	 0.1113653918	 1.4856532613	-0.0504830815	-0.393102
C	 0.0124586335	-0.041320771	 0.0652205401	 0.01474
O	 0.5826285676	-0.4999094291	 1.2850690761	-0.4338
C	-1.4075747724	-0.5155212897	-0.0459470682	 0.265205
C	-2.0780427986	-1.1480335526	-1.0337695814	-0.15253
O	-3.3667178896	-1.3553274848	-0.6113152592	-0.174569
C	-3.4077317197	-0.834165351	 0.6399815381	 0.387453
C	-4.6923033136	-0.915609693	 1.3819942392	-0.488829
N	-2.2810658458	-0.322574714	 1.0254751941	-0.364855
H	 1.1493313801	 1.7978460973	 0.0925777101	 0.121237
H	-0.2313704347	 1.8297120072	-1.0318573602	 0.110533
H	-0.5077314643	 1.9638200005	 0.7152075379	 0.125509
H	 0.6046927057	-0.5018667515	-0.7337532288	 0.089089
H	-0.0823248024	-0.3444072829	 1.9676568565	 0.291609
H	-1.8304253602	-1.5038251302	-2.0186648573	 0.147428
H	-5.011082985	-1.9560549041	 1.5016422031	 0.149356
H	-4.5631513498	-0.4661366047	 2.3666226825	 0.156853
H	-5.4885628324	-0.3862792178	 0.8486799689	 0.148672
51.1663	90.5944	128.3844	162.5493	246.2463	254.9649	328.3833	370.3849	377.0144	447.1316	509.8425	637.4379	665.0217	731.5819	746.2486	774.4285	903.4358	943.8993	995.1924	1018.026	1053.7586	1066.078	1092.0362	1100.9833	1133.7802	1211.9471	1272.9807	1298.2461	1346.1114	1369.5374	1397.3029	1411.8927	1431.8723	1475.3176	1480.5085	1488.6627	1495.0942	1623.255	1639.763	3036.1471	3046.0935	3047.359	3101.2358	3110.5866	3122.5396	3158.8654	3293.5929	3779.4001
CC(O)C1=COC(C)=N1	C[C@@H](O)c1coc(C)n1	
InChI=1S/C6H9NO2/c1-4(8)6-3-9-5(2)7-6/h3-4,8H,1-2H3	InChI=1S/C6H9NO2/c1-4(8)6-3-9-5(2)7-6/h3-4,8H,1-2H3/t4-/m1/s1
