18
gdb 116236	2.76161	1.19744	0.89909	2.3922	71.03	-0.2572	0.0159	0.2732	1297.2577	0.147078	-476.22256	-476.213234	-476.21229	-476.257611	32.431	
C	 0.0409245684	 1.499097074	-0.0201149163	-0.337167
N	 0.0683630564	 0.0484327273	 0.0745504529	-0.319404
C	 0.4119532902	-0.6405412129	-0.9162197252	 0.411995
O	 0.7699491639	-0.1742798391	-2.1576911395	-0.244619
C	 1.2392965899	-1.271861132	-2.9283954823	 0.014785
O	 0.7487875854	-2.4465469765	-2.328680887	-0.270545
C	 0.5189133207	-2.1494902731	-0.9452383759	-0.03545
C	 1.659235594	-2.6934290745	-0.0807782222	-0.062713
O	 1.7920257018	-4.0881615352	-0.2428215225	-0.419024
H	 0.5815428281	 1.9189273234	 0.8346178471	 0.129424
H	 0.4712685126	 1.8984820443	-0.9452595796	 0.124562
H	-0.9964336715	 1.843736442	 0.0605844127	 0.131858
H	 0.8430990229	-1.1935158136	-3.9450191971	 0.131836
H	 2.3401266285	-1.2499908098	-2.9462776851	 0.107832
H	-0.4199531415	-2.6282637577	-0.6549487842	 0.124921
H	 2.5939483915	-2.1618893568	-0.3259580059	 0.085979
H	 1.4326880106	-2.4981548382	 0.9709452695	 0.136105
H	 1.8491703082	-4.2482781217	-1.1923365496	 0.289624
75.182	76.8108	113.0167	132.2658	157.4129	226.9449	263.2618	338.1479	426.8291	438.1468	557.6673	649.8376	705.1968	750.6008	844.6777	904.1139	1009.1346	1037.1139	1054.4884	1077.0945	1087.3743	1108.3769	1133.1823	1146.1488	1173.3468	1212.3952	1221.7842	1235.4624	1289.8437	1347.0096	1390.2691	1421.3044	1440.2391	1442.2599	1493.6058	1497.8931	1498.6391	1550.2717	1822.7201	2965.6255	2982.8779	3020.2319	3082.8831	3083.1445	3086.868	3093.5119	3102.1179	3792.6041
CN=C1OCOC1CO	CN=C1OCO[C@H]1CO	
InChI=1S/C5H9NO3/c1-6-5-4(2-7)8-3-9-5/h4,7H,2-3H2,1H3	InChI=1S/C5H9NO3/c1-6-5-4(2-7)8-3-9-5/h4,7H,2-3H2,1H3/t4-/m0/s1
