17
gdb 87309	1.85972	1.62435	1.06133	4.0121	79.49	-0.2484	0.018	0.2664	1174.6683	0.133291	-380.812926	-380.803473	-380.802529	-380.847338	34.358	
C	-0.2636150909	 1.4391800006	 0.2247617117	-0.328838
N	 0.0176795534	 0.0121502151	 0.1477685266	-0.087415
C	 1.3542009524	-0.4295256592	-0.1909884109	-0.281758
C	 0.8066762568	-0.6512696914	 1.1935349375	 0.073353
C	 1.4448224192	 0.144325236	 2.3420515875	-0.425886
C	 0.4833422147	 0.5299588413	 3.3763363652	 0.286131
N	-0.2747684256	 0.8508855223	 4.1867267119	-0.308621
C	 0.3364870839	-1.9577161815	 1.5884789178	 0.314161
C	-0.023567772	-3.0463272286	 1.9476626244	-0.400327
H	 0.5970224611	 2.0635126716	 0.5109143959	 0.100945
H	-0.6014274557	 1.7708618574	-0.7614145309	 0.136847
H	-1.0718854816	 1.6101479222	 0.9405015587	 0.155025
H	 1.4277147018	-1.2638387488	-0.8824457666	 0.133251
H	 2.1412895034	 0.3200545959	-0.285394001	 0.109982
H	 2.2253149467	-0.4704832828	 2.8022126169	 0.167978
H	 1.9324000136	 1.0476173465	 1.966431545	 0.153098
H	-0.3625464412	-4.0037910866	 2.2584150703	 0.202075
58.174	108.3525	141.183	169.2856	198.8495	271.4513	306.5317	382.1509	394.1729	425.2238	484.3289	540.2769	561.0191	624.6642	665.2	717.5306	807.9283	870.547	901.301	961.3153	975.126	1056.1568	1125.7132	1132.7795	1145.6372	1196.3707	1209.9998	1259.2442	1319.288	1377.801	1446.8845	1460.4595	1487.7932	1499.9122	1507.1431	2242.4056	2365.0111	2979.9815	3061.3087	3076.0357	3080.6062	3106.0711	3123.115	3182.0422	3501.6116
CN1CC1(CC#N)C#C	CN1C[C@]1(CC#N)C#C	
InChI=1S/C7H8N2/c1-3-7(4-5-8)6-9(7)2/h1H,4,6H2,2H3	InChI=1S/C7H8N2/c1-3-7(4-5-8)6-9(7)2/h1H,4,6H2,2H3/t7-,9?/m1/s1
