16
gdb 28885	2.41154	1.85508	1.05598	2.2746	74.98	-0.2272	-0.0035	0.2237	1076.0381	0.126696	-434.154611	-434.146543	-434.145598	-434.186968	30.823	
C	-0.04193182	 1.5710438765	-0.0081712683	-0.531269
C	 0.0057440473	 0.0679734138	-0.0011113746	 0.122501
C	-0.0357494811	-0.6950667663	-1.1811537376	 0.32912
N	-0.1488634911	-0.0971197326	-2.4084323798	-0.564807
N	-0.0082241537	-2.0416095097	-1.1847102612	-0.337456
C	 0.0576319812	-2.6218013207	 0.0049319069	 0.062162
N	 0.1079113052	-2.0248870365	 1.1936388511	-0.372779
C	 0.0818841317	-0.6893440074	 1.1640652296	 0.369829
O	 0.1325209452	-0.0619552509	 2.3562667889	-0.41576
H	 0.8441189381	 2.0062648965	-0.490657531	 0.123014
H	-0.9211255912	 1.9384211272	-0.551644459	 0.132242
H	-0.085069347	 1.9614719547	 1.0088565643	 0.153624
H	 0.1477372185	 0.8586007018	-2.5106818164	 0.257385
H	 0.0265380696	-0.7042696166	-3.1936175034	 0.260729
H	 0.0770929522	-3.7095052592	 0.0117593011	 0.112529
H	 0.1732781151	-0.7667294007	 3.0179897895	 0.298935
109.7451	144.7102	233.7291	273.2109	288.641	346.0213	396.9349	507.4221	520.3172	534.4634	534.6897	552.2802	573.2077	706.2479	718.8933	823.3192	897.5938	953.8982	997.2512	1045.4406	1062.0576	1113.517	1209.1793	1267.2917	1332.6894	1358.5577	1367.9987	1410.3245	1473.5385	1492.4501	1495.845	1507.7782	1613.3005	1636.4862	1666.8157	3009.2257	3057.2496	3145.1814	3156.7987	3596.799	3718.7492	3763.0955
CC1=C(N)N=CN=C1O	Cc1c(N)ncnc1O	
InChI=1S/C5H7N3O/c1-3-4(6)7-2-8-5(3)9/h2H,1H3,(H3,6,7,8,9)	InChI=1S/C5H7N3O/c1-3-4(6)7-2-8-5(3)9/h2H,1H3,(H3,6,7,8,9)
