15
gdb 32188	2.6489	1.44737	0.94158	4.2022	70.16	-0.2235	-0.0449	0.1786	1174.7702	0.113204	-453.983128	-453.975008	-453.974064	-454.016319	28.742	
C	 0.8679697582	 0.6008470041	 0.1587910946	-0.254555
O	-0.5160931895	 0.8982469402	 0.0047103874	-0.263206
C	-1.3372957045	-0.1452920945	 0.1943778978	 0.411983
C	-1.1796172557	-1.4621733572	 0.5067844633	-0.2303
N	-2.4279268997	-2.0816614998	 0.5727381144	-0.259289
C	-3.3070105272	-1.1663698494	 0.3084656124	 0.02649
N	-2.709374994	 0.0686341594	 0.0611271613	-0.154211
C	-3.3521196168	 1.2677970715	-0.2538683367	 0.172156
O	-4.5457686296	 1.3701035863	-0.3507084363	-0.283895
H	 1.1835804414	-0.1580670551	-0.566638312	 0.138977
H	 1.40392321	 1.5323855892	-0.0221905249	 0.147877
H	 1.0757998771	 0.2419910402	 1.1735957161	 0.138978
H	-0.2692043526	-2.0084284527	 0.6881496272	 0.120903
H	-4.3786465879	-1.2744297357	 0.2676525689	 0.163894
H	-2.6376728592	 2.0929343735	-0.3999439034	 0.124198
81.1027	152.2649	166.4034	192.8629	224.5156	254.6737	341.0289	406.1915	595.249	663.4483	672.2942	688.4873	792.7904	816.9228	826.2593	932.506	1044.9288	1063.1629	1108.3949	1182.8567	1193.8832	1218.4949	1252.7008	1281.7036	1342.7307	1421.9697	1446.7231	1476.6218	1485.5073	1506.1437	1554.1342	1636.8773	1826.202	3021.0628	3025.9668	3086.4202	3154.9028	3271.0411	3281.2059
COC1=CN=CN1C=O	COc1cncn1C=O	
InChI=1S/C5H6N2O2/c1-9-5-2-6-3-7(5)4-8/h2-4H,1H3	InChI=1S/C5H6N2O2/c1-9-5-2-6-3-7(5)4-8/h2-4H,1H3
