17
gdb 65332	3.998	1.05007	0.93624	3.0445	73.83	-0.2623	-0.0107	0.2516	1247.695	0.135036	-417.97191	-417.963115	-417.96217	-418.005541	32.019	
C	-0.0977909502	 1.7464807158	 0.3695802803	-0.468417
C	-0.1264159151	 0.2608222741	 0.1047014887	 0.358266
O	 0.8098113082	-0.2300732283	-0.8625047011	-0.269138
C	 1.0086889641	-0.6117344253	 0.5061527417	-0.167351
C	 2.1841128375	-0.0825314853	 1.1607028673	 0.312459
N	 3.1157978848	 0.3274448093	 1.7083771809	-0.325156
C	-1.4915535221	-0.3683168281	 0.0195241905	-0.070507
C	-2.1943517636	-0.4061411061	-1.2875246528	-0.234287
N	-1.6763873449	-1.643847438	-0.6764919367	-0.324112
H	 0.9253799688	 2.11613531	 0.4573487743	 0.155587
H	-0.5965465531	 2.2763983711	-0.4472350302	 0.140657
H	-0.6323726158	 1.9751008117	 1.2970333817	 0.138341
H	 0.8087120265	-1.658900996	 0.7248066561	 0.147262
H	-2.0807291321	-0.2606343231	 0.9279763696	 0.10735
H	-3.2762353511	-0.3230886117	-1.3235602578	 0.126809
H	-1.6705380205	-0.0072239705	-2.1520652385	 0.127159
H	-0.8039032911	-1.8813677896	-1.147566674	 0.24508
92.1024	116.1782	137.8505	180.3276	214.7485	260.1612	328.4763	373.6013	438.6917	499.172	576.8132	642.5787	687.7481	822.4587	843.6743	874.1774	920.3597	963.2263	981.0143	1008.095	1039.4014	1082.186	1108.3213	1119.9159	1151.283	1191.9314	1232.8846	1284.8863	1305.3823	1322.82	1415.4322	1418.2115	1425.0922	1482.2866	1495.633	1507.0212	2360.0599	3047.9772	3114.2428	3115.0415	3131.3352	3137.2946	3142.042	3203.7875	3477.8504
CC1(OC1C#N)C1CN1	C[C@]1(O[C@H]1C#N)[C@H]1CN1	
InChI=1S/C6H8N2O/c1-6(4-3-8-4)5(2-7)9-6/h4-5,8H,3H2,1H3	InChI=1S/C6H8N2O/c1-6(4-3-8-4)5(2-7)9-6/h4-5,8H,3H2,1H3/t4-,5+,6+/m1/s1
