18
gdb 32859	4.80083	0.8329	0.71614	2.3878	75.95	-0.1686	0.0687	0.2373	1554.6854	0.14661	-439.108257	-439.098645	-439.097701	-439.143152	34.603	
C	 0.1001816143	 1.4826039643	-0.0277827643	-0.391787
C	 0.8028011772	 0.2561570903	-0.5789691194	-0.043957
O	-0.1339870612	-0.8173020608	-0.5975994693	-0.269366
C	 0.3390272114	-1.9918659654	-1.0659099434	 0.444866
C	 1.5689343268	-2.3950906157	-1.5454554915	-0.444771
C	 1.4195264886	-3.7779385988	-1.8857638691	 0.324962
O	 2.3781761452	-4.6044254937	-2.4021166241	-0.451527
C	 0.1357884897	-4.165969013	-1.6104475128	-0.182582
N	-0.5187464303	-3.0447228953	-1.1029453619	-0.338514
H	-0.7535064847	 1.7532832736	-0.65524451	 0.13096
H	-0.2624394416	 1.2966293072	 0.9869465161	 0.13096
H	 0.7919139816	 2.3295386281	 0.000878821	 0.121036
H	 1.1728224404	 0.4341060588	-1.5984959501	 0.107193
H	 1.6638756921	-0.022938307	 0.0444693457	 0.107191
H	 2.4578841137	-1.79325624	-1.6433893423	 0.086242
H	 3.1888090927	-4.0985943836	-2.5032831523	 0.293357
H	-0.3617301438	-5.1122619608	-1.7253175985	 0.115081
H	-1.476136982	-2.9993288082	-0.8043134338	 0.260658
61.3353	83.4906	135.5249	148.9325	221.7115	244.9048	262.2362	321.5823	388.5351	416.3032	493.4814	592.0054	631.912	652.8354	673.399	714.3855	754.7865	825.4855	920.3155	988.9728	1018.8494	1085.0368	1110.1879	1139.4199	1170.3196	1188.4405	1208.0519	1294.6459	1313.2267	1323.9946	1399.6834	1423.8422	1448.7971	1483.1091	1500.3897	1510.5824	1527.1226	1594.3679	1663.1879	2997.6241	3032.4468	3047.2698	3122.2676	3125.0591	3253.8306	3292.1046	3698.672	3849.811
CCOC1=CC(O)=CN1	CCOc1cc(O)c[nH]1	
InChI=1S/C6H9NO2/c1-2-9-6-3-5(8)4-7-6/h3-4,7-8H,2H2,1H3	InChI=1S/C6H9NO2/c1-2-9-6-3-5(8)4-7-6/h3-4,7-8H,2H2,1H3
