19
gdb 49162	3.83892	1.19649	1.06731	3.5442	83.7	-0.2446	-0.051	0.1936	1163.6916	0.161666	-385.908082	-385.900772	-385.899827	-385.939818	29.354	
O	-0.083822217	-0.0155793857	 0.0265959805	-0.280174
C	-0.0078244376	 1.1940447128	 0.0381048803	 0.079501
C	 1.2484389555	 1.9475803588	-0.0002766638	 0.221567
C	 1.24555538	 3.2914162301	 0.015599528	-0.135245
C	 2.5637489976	 4.0152004548	-0.0255893452	-0.061159
C	 3.4415831175	 3.3474336105	-1.1350729606	-0.218064
C	 3.7308102952	 2.2294134897	-0.0905842997	-0.02592
C	 3.5220533652	 3.3223771172	 0.998655163	-0.218064
C	 2.5730328102	 1.2169867125	-0.058760785	-0.303494
H	-0.9234331481	 1.8281680932	 0.0800898597	 0.060998
H	 0.311744098	 3.8475452007	 0.057289666	 0.10132
H	 2.4640032328	 5.1007101475	-0.0090792958	 0.066276
H	 2.9497600721	 3.0731109817	-2.0716422034	 0.099523
H	 4.3348133309	 3.9413497126	-1.3443137968	 0.101955
H	 4.6990327524	 1.7262216346	-0.1330135858	 0.066928
H	 4.4290270024	 3.9120128036	 1.1539153538	 0.101954
H	 3.1019201795	 3.0257169083	 1.9629103313	 0.099521
H	 2.6633373153	 0.5455042981	 0.804255522	 0.121286
H	 2.5974685281	 0.5658416089	-0.9415072586	 0.121293
97.7339	199.265	216.201	330.9218	370.6931	426.8943	488.2774	497.725	533.2986	680.503	787.7934	816.7023	855.4405	856.471	868.5831	889.4551	931.6664	939.3146	996.8344	1021.2027	1048.3484	1067.3152	1091.6627	1098.5426	1116.2737	1131.839	1201.6774	1217.516	1246.6838	1252.6219	1285.346	1317.1755	1332.0945	1355.7861	1397.5178	1425.9472	1470.5778	1477.5881	1508.87	1687.0774	1783.1959	2864.4362	3029.2978	3055.3707	3057.4115	3058.9126	3084.2234	3103.0215	3115.6893	3118.4211	3157.8342
O=CC1=CC2CC(C2)C1	O=CC1=C[C@@H]2C[C@@H](C2)C1	
InChI=1S/C8H10O/c9-5-8-3-6-1-7(2-6)4-8/h3,5-7H,1-2,4H2	InChI=1S/C8H10O/c9-5-8-3-6-1-7(2-6)4-8/h3,5-7H,1-2,4H2/t6-,7+
