19
gdb 39773	3.75289	1.53664	1.40966	2.2119	78.93	-0.228	0.0771	0.3051	976.8597	0.162361	-381.974774	-381.9681	-381.967155	-382.00542	28.51	
C	 0.0629958454	 1.3960186484	-0.1408865263	-0.253246
C	 1.3238909429	 0.6458686653	 0.0866516372	-0.018997
C	 1.8178006494	 0.3688052913	 1.5139515776	-0.155629
C	 0.5590953663	 0.6180535763	 2.3945397919	-0.26101
C	-0.0298042879	-0.5146493555	 1.5032923468	-0.068072
N	 0.0021149787	-0.0601094193	 0.0751511492	-0.112674
C	 1.3884045243	-1.1246983784	 1.5971217178	 0.465289
C	 1.990065663	-2.3684450191	 1.1057987168	-0.343979
N	 1.7952119954	-2.1208699024	 2.5657245557	-0.408529
H	-0.3237887478	 2.0861345706	 0.5997125008	 0.116127
H	-0.1783526212	 1.6737032336	-1.1633474731	 0.117202
H	 1.998892888	 0.4407290578	-0.7396612802	 0.094315
H	 2.8136611855	 0.7134114145	 1.7932952292	 0.066081
H	 0.7107384405	 0.2631942468	 3.4142723835	 0.116489
H	 0.0978415018	 1.6049140643	 2.41558809	 0.09605
H	-0.9314041504	-1.0665882186	 1.7610736762	 0.082282
H	 1.367585397	-3.1568906685	 0.6930394989	 0.127679
H	 3.0015851403	-2.3333867675	 0.7080661886	 0.110945
H	 2.6829956189	-1.8663890498	 2.9937862597	 0.229679
166.7397	246.2214	273.9759	398.9544	445.7118	471.1205	578.8568	645.4533	648.9725	733.1413	774.9836	824.2728	847.9038	876.0582	900.5921	914.6334	946.1551	972.7952	976.2737	1017.7401	1022.1996	1032.2181	1048.1928	1082.7995	1094.8262	1111.1425	1116.6478	1138.7163	1151.0248	1206.1053	1213.7599	1238.7769	1245.855	1257.3326	1267.4182	1284.4536	1362.7568	1433.9436	1484.319	1520.4324	1535.7657	3091.2741	3106.8944	3114.9773	3125.302	3142.1803	3145.027	3146.6224	3192.9692	3208.7502	3484.8147
C1C2C3CC(N12)C31CN1	C1[C@H]2[C@H]3C[C@@H](N12)[C@]13CN1	
InChI=1S/C7H10N2/c1-4-5-2-9(5)6(1)7(4)3-8-7/h4-6,8H,1-3H2	InChI=1S/C7H10N2/c1-4-5-2-9(5)6(1)7(4)3-8-7/h4-6,8H,1-3H2/t4-,5+,6-,7-,9?/m1/s1
