15
gdb 117615	2.2728	1.1911	0.97121	5.7691	67.05	-0.3062	-0.0301	0.2761	1252.033	0.109818	-453.934337	-453.924603	-453.923659	-453.969456	33.361	
C	-0.1584927272	 1.3571547095	-0.0683568932	-0.240625
O	-0.0840591983	-0.0574619801	-0.1204390103	-0.257464
C	 0.7708311705	-0.5425131578	-1.1214699716	-0.093055
C	 0.6341062041	-2.0851969089	-1.0496198155	 0.067241
O	-0.7199181901	-2.4554508238	-1.1190954399	-0.424537
C	 1.3406076251	-2.6832272111	-2.1997363171	 0.305914
N	 1.9122654215	-3.1034422977	-3.1094846529	-0.308662
C	 1.2544482925	-2.5773157097	 0.2111769441	 0.289817
N	 1.71739495	-2.945709229	 1.2023756716	-0.317554
H	 0.8225899767	 1.7968216593	 0.1557532664	 0.129787
H	-0.5266548956	 1.7723457101	-1.016994103	 0.124593
H	-0.8560572423	 1.609191085	 0.7318284537	 0.149166
H	 0.4518142288	-0.2161495254	-2.122272972	 0.129768
H	 1.8150931563	-0.2409784129	-0.9607337266	 0.134504
H	-1.1880973417	-1.8110073374	-0.5663439037	 0.311107
61.1286	110.7229	122.9869	135.1452	188.9556	226.5565	237.4348	300.8582	364.789	424.0718	452.635	497.0066	527.4804	578.8755	633.3828	755.5317	939.5687	977.0148	1048.8921	1121.3701	1141.9155	1165.7901	1188.6766	1228.8456	1271.2503	1387.0369	1419.0928	1479.0292	1488.4559	1496.8375	1518.6547	2364.1273	2378.3652	2994.1465	3002.1765	3047.1716	3058.3609	3139.5315	3730.7948
COCC(O)(C#N)C#N	COCC(O)(C#N)C#N	
InChI=1S/C5H6N2O2/c1-9-4-5(8,2-6)3-7/h8H,4H2,1H3	InChI=1S/C5H6N2O2/c1-9-4-5(8,2-6)3-7/h8H,4H2,1H3
