17
gdb 82287	2.50778	1.83048	1.20994	3.6689	74.84	-0.2467	-0.0612	0.1855	1013.622	0.137459	-421.847132	-421.839731	-421.838787	-421.878895	29.424	
O	-0.1160326911	 1.4593435931	-0.1512208196	-0.441064
C	-0.0661258879	 0.0593245283	-0.0673372807	 0.038004
C	-1.4521814321	-0.5455033633	-0.0633918764	-0.053636
C	-2.2229373348	-0.7504924809	-1.3264693307	-0.282664
C	-1.6031967582	-1.9540647193	-0.6086780488	-0.093783
C	-0.4206035405	-2.5865177999	-1.2211854621	-0.03189
C	 0.7094232884	-1.9193912486	-1.5123648576	-0.175045
C	 0.8462330338	-0.5007030609	-1.1723976708	 0.328389
O	 1.665104119	 0.2455779473	-1.6822402712	-0.362772
H	 0.6552448855	 1.6987018474	-0.6910568326	 0.290819
H	 0.4279870932	-0.2520195829	 0.8745956756	 0.090139
H	-2.0322281096	-0.3086354238	 0.8225370509	 0.105499
H	-3.3016901054	-0.6505732602	-1.2888054579	 0.124694
H	-1.7703346326	-0.4608338695	-2.2686788634	 0.13437
H	-2.2940721722	-2.6242007423	-0.109560366	 0.098743
H	-0.5061931588	-3.6376077611	-1.4873520549	 0.115213
H	 1.5306500633	-2.3795019335	-2.0509973336	 0.114987
94.7553	172.6164	277.9296	314.6394	355.93	433.644	473.5822	503.7604	546.4479	576.5671	661.6066	754.5785	791.9407	813.0342	829.5226	872.915	906.7512	961.2871	999.758	1029.0899	1060.927	1083.1895	1114.1467	1129.9114	1141.7942	1164.9183	1220.5206	1239.2928	1265.4989	1340.0368	1381.0347	1407.2612	1428.442	1448.1253	1485.9158	1663.6983	1758.0156	2904.5714	3137.209	3154.2922	3160.3045	3174.5106	3197.7592	3228.7459	3676.8502
OC1C2CC2C=CC1=O	O[C@H]1[C@H]2C[C@H]2C=CC1=O	
InChI=1S/C7H8O2/c8-6-2-1-4-3-5(4)7(6)9/h1-2,4-5,7,9H,3H2	InChI=1S/C7H8O2/c8-6-2-1-4-3-5(4)7(6)9/h1-2,4-5,7,9H,3H2/t4-,5+,7+/m1/s1
