18
gdb 38531	3.34125	1.65079	1.33317	2.0801	77.27	-0.2277	0.0183	0.246	981.0897	0.150744	-401.926863	-401.920067	-401.919123	-401.958025	27.531	
C	-0.0444837557	 1.4882633584	-0.0038016684	-0.109568
O	 1.3077971871	 1.9597924314	 0.0340513044	-0.284884
C	 2.17489443	 0.8648935879	-0.2034501362	 0.110774
C	 3.31801094	 0.5948658312	 0.7640511282	-0.091462
N	 2.8838964706	 0.0392603272	 2.0601223009	-0.323545
C	 3.3447522033	-0.8819297022	 1.0038150068	-0.031826
C	 2.1810807369	-1.5611383881	 0.2646043536	-0.328335
C	 1.3213323806	-0.3745419661	-0.0546603244	 0.298089
C	 0.0506365007	-0.0183295397	 0.0633105937	-0.250595
H	-0.5925698752	 1.902041529	 0.8539347653	 0.112418
H	-0.5450475437	 1.8498855806	-0.9177886453	 0.097792
H	 2.6165202813	 0.9536479559	-1.2136660944	 0.068217
H	 4.2315498855	 1.1778332935	 0.7141484296	 0.085493
H	 3.6287840878	 0.171788464	 2.7394554255	 0.232214
H	 4.277762499	-1.4188087775	 1.1416186731	 0.086821
H	 2.5636150391	-2.0562230005	-0.637753093	 0.10938
H	 1.6706267395	-2.3131439616	 0.8729563722	 0.117726
H	-0.8021955867	-0.6545423233	 0.2637228784	 0.10129
107.1376	200.2348	258.7017	362.2664	380.9858	490.3722	583.3716	657.7705	699.0533	784.6281	811.3038	817.5711	853.1796	869.4947	895.7787	933.8149	945.8304	976.7393	1008.7134	1020.4076	1039.9646	1071.4811	1108.4416	1128.2631	1152.9649	1173.9303	1185.016	1197.2527	1223.4287	1274.6048	1299.2493	1323.5649	1349.0953	1371.6756	1383.1963	1420.4851	1471.3916	1515.7662	1754.4852	2923.5554	2961.2456	3018.9869	3023.2776	3089.2403	3160.0038	3170.9884	3214.1793	3506.0906
C1OC2C3NC3CC2=C1	C1O[C@H]2[C@H]3N[C@H]3C[C]2[CH]1	
InChI=1S/C7H9NO/c1-2-9-7-4(1)3-5-6(7)8-5/h1,5-8H,2-3H2	InChI=1S/C7H9NO/c1-2-9-7-4(1)3-5-6(7)8-5/h1,5-8H,2-3H2/t5-,6-,7+/m0/s1
