16
gdb 8099	2.83397	1.99288	1.47175	4.1135	66.11	-0.2359	-0.0074	0.2286	888.3792	0.128667	-383.727546	-383.71968	-383.718735	-383.75948	29.578	
C	-0.0407594598	 1.5563243135	 0.0342692681	-0.418442
C	 0.0858867707	 0.0501289552	 0.1551194364	-0.091618
C	 1.3448238367	-0.7556901471	-0.2241533054	-0.286141
C	 2.5682956948	-0.1045556435	 0.3263910635	 0.433445
O	 3.6606746991	 0.1156754276	-0.1192541623	-0.323138
C	 1.9993673926	-0.024520196	 1.7687336294	-0.41468
C	 0.7397721815	-0.7088579615	 1.2427957768	 0.417453
O	 0.1558548499	-1.6936213671	 2.002558444	-0.449669
H	 0.8487883425	 2.0746415358	 0.4005086389	 0.135295
H	-0.1832079401	 1.8444828294	-1.0121808152	 0.129763
H	-0.901510298	 1.922355264	 0.604486436	 0.122254
H	-0.7924628635	-0.4784501688	-0.223408387	 0.087943
H	 1.3096258274	-1.4946052784	-1.0161625297	 0.107477
H	 2.5722145388	-0.6923036908	 2.4190138242	 0.141641
H	 1.8994007288	 0.9522198375	 2.2503187835	 0.11701
H	-0.7283373312	-1.8717744298	 1.6658173089	 0.291406
102.5694	170.9913	207.4502	237.6847	254.9679	343.6809	419.542	469.6728	498.0713	588.2086	609.4896	664.0581	728.5907	824.2255	879.1169	922.31	980.8596	996.4269	1022.6874	1095.4553	1100.3065	1120.7354	1137.8283	1177.3953	1212.9304	1241.7457	1329.0005	1400.0767	1420.5589	1449.0019	1482.7438	1495.2101	1504.4101	1874.2421	3036.8397	3058.0119	3079.4056	3099.7392	3112.5893	3121.3934	3188.5788	3819.3095
CC1C2C(=O)CC12O	C[C@H]1[C@H]2C(=O)C[C@@]12O	
InChI=1S/C6H8O2/c1-3-5-4(7)2-6(3,5)8/h3,5,8H,2H2,1H3	InChI=1S/C6H8O2/c1-3-5-4(7)2-6(3,5)8/h3,5,8H,2H2,1H3/t3-,5-,6+/m0/s1
