22
gdb 76499	2.85903	1.26744	1.11408	1.7477	86.34	-0.2209	0.0789	0.2998	1223.7548	0.193832	-367.154264	-367.145184	-367.14424	-367.187718	34.981	
C	-0.1757681381	 0.8769183125	-1.9771464402	-0.410631
C	-0.0252647591	-0.2863320789	-1.0196898526	-0.090214
C	 1.2941011821	-0.641085539	-0.352294378	-0.101391
C	 2.5763007975	 0.1270964621	-0.5913837529	-0.411942
C	 0.1656652381	-0.0655724293	 0.4584003447	 0.351027
C	 0.1978574039	 1.2295930499	 1.2821285143	-0.251662
N	-0.4327293332	 0.5388617071	 2.4680142881	-0.126502
C	-1.7432049498	 0.0508235513	 1.9999469908	-0.238825
C	-0.5414467038	-0.7200058971	 1.6195177242	-0.120553
H	 0.3974825592	 1.75157244	-1.6574269891	 0.117592
H	 0.161432593	 0.6107345727	-2.9851554077	 0.117941
H	-1.224477187	 1.1858427036	-2.0505682509	 0.116915
H	-0.6441186259	-1.144085917	-1.276750898	 0.079691
H	 1.4506473787	-1.7095817632	-0.2133186509	 0.081436
H	 2.4026647378	 1.2013489006	-0.6983991819	 0.117737
H	 3.2734387199	-0.0087408056	 0.2430779438	 0.120934
H	 3.0788138782	-0.2174117416	-1.5018365395	 0.118063
H	 1.2035283049	 1.5689944362	 1.5427822976	 0.112309
H	-0.3847358466	 2.0832926494	 0.9162424343	 0.099785
H	-2.3602753169	-0.3336941522	 2.8067347179	 0.118083
H	-2.2816111802	 0.6184229278	 1.2428921189	 0.108051
H	-0.3166974028	-1.7022187893	 2.026043027	 0.092157
112.7207	138.5923	159.0289	177.2755	189.7445	253.3235	290.9644	393.7066	452.9665	507.9337	521.2526	558.6162	739.4303	771.3122	786.9857	806.1664	855.4002	907.1244	958.0489	977.0693	1012.6693	1021.221	1032.9562	1051.4717	1084.5512	1099.1717	1108.8901	1119.9596	1146.2717	1151.4429	1174.4812	1197.5262	1214.8294	1237.6798	1282.5289	1307.088	1363.8522	1368.526	1412.6306	1420.9256	1473.0515	1487.0926	1489.7247	1493.3958	1500.3109	1504.2615	1516.6878	3028.4517	3030.7403	3033.6526	3085.8914	3088.495	3095.0367	3097.2263	3098.7855	3108.6411	3116.6625	3128.7571	3147.0735	3192.0527
CC1C(C)C11CN2CC12	C[C@H]1[C@@H](C)[C@]21CN1C[C@@H]21	
InChI=1S/C8H13N/c1-5-6(2)8(5)4-9-3-7(8)9/h5-7H,3-4H2,1-2H3	InChI=1S/C8H13N/c1-5-6(2)8(5)4-9-3-7(8)9/h5-7H,3-4H2,1-2H3/t5-,6+,7-,8+,9?/m0/s1
