18
gdb 110126	2.26096	1.19026	0.94273	2.7256	72.33	-0.2804	0.0148	0.2952	1281.1478	0.14681	-439.072557	-439.062795	-439.061851	-439.108068	34.563	
O	-0.011666011	 1.3832080434	 0.5170441189	-0.417087
C	 0.046407991	 0.1359435185	-0.1512993901	-0.092383
C	-1.3065538482	-0.5491056494	-0.1752449867	-0.064389
C	-1.4991360354	-2.0337581818	-0.2976587038	-0.0644
C	-0.364815431	-3.0339671426	-0.4127455643	-0.092388
O	-0.7513290694	-4.3167930011	 0.0462836305	-0.417076
C	-1.8035972646	-1.3441974148	 1.0340385291	-0.19965
C	-0.9259316655	-1.5499732418	 2.15040772	 0.268793
N	-0.2056293297	-1.7170379322	 3.0421981402	-0.34885
H	-0.1001798293	 1.2071056801	 1.4600324958	 0.294882
H	 0.3535733208	 0.3576477685	-1.1787697869	 0.121991
H	 0.8137738374	-0.5149071115	 0.2860637666	 0.111544
H	-2.0774821569	 0.0679513243	-0.6281621726	 0.115518
H	-2.3916413339	-2.3539724637	-0.8278690673	 0.115525
H	-0.1021194352	-3.1573170337	-1.4686685284	 0.121993
H	 0.5329882854	-2.6784232168	 0.1081020994	 0.111556
H	-0.8124486113	-4.2787085314	 1.0069523018	 0.294871
H	-2.8457386132	-1.2319595639	 1.3120701575	 0.139549
51.58	63.8977	118.3866	153.8893	175.6967	240.0384	297.0844	337.3039	362.4846	388.5303	413.1221	580.4979	609.5977	620.7651	773.3198	801.0247	867.4522	918.4673	969.7481	1008.5449	1026.2329	1070.3349	1072.8202	1120.9981	1124.3228	1143.466	1211.7101	1242.6813	1252.1331	1350.4391	1352.7573	1387.288	1398.4968	1416.1477	1421.7856	1451.8782	1493.5432	1503.3416	2339.069	3018.9243	3033.8321	3076.0773	3081.3913	3148.7304	3157.5281	3175.297	3809.4886	3810.0882
OCC1C(CO)C1C#N	OC[C@H]1[C@@H](CO)[C@H]1C#N	
InChI=1S/C6H9NO2/c7-1-4-5(2-8)6(4)3-9/h4-6,8-9H,2-3H2	InChI=1S/C6H9NO2/c7-1-4-5(2-8)6(4)3-9/h4-6,8-9H,2-3H2/t4-,5+,6-
