17
gdb 84148	2.27257	1.60463	1.13038	1.0611	70.31	-0.2291	-0.0309	0.1982	1106.0362	0.135769	-455.176724	-455.168048	-455.167103	-455.210488	31.932	
C	 0.045124946	 1.5610412622	-0.0553430001	-0.405183
C	 0.0759165531	 0.0334495992	-0.0233390104	 0.015436
N	 0.800834669	-0.5193714863	-1.1679136415	-0.348514
C	 1.5575188483	-1.4380493072	-0.7129883783	 0.480748
N	 2.3380130559	-2.2981732046	-1.428094378	-0.581327
O	 1.5800440079	-1.6729393889	 0.6320627968	-0.235474
C	 0.8126311237	-0.6178864951	 1.2138294932	-0.028216
C	 1.7264588317	 0.3377888045	 1.9612839887	 0.145978
O	 2.9235550594	 0.3598857252	 1.8556483132	-0.240383
H	 1.0570850056	 1.9769699965	-0.0409955281	 0.134342
H	-0.4370037139	 1.8879654457	-0.9798129749	 0.135175
H	-0.5193526953	 1.9725232155	 0.7881925082	 0.110457
H	-0.960782314	-0.3313387849	-0.0396283702	 0.088435
H	 2.495861072	-2.0128516094	-2.3818507222	 0.270665
H	 3.1545926817	-2.6391827836	-0.9439741344	 0.269243
H	 0.1030256009	-1.048683775	 1.9286608395	 0.106924
H	 1.183227308	 1.0440265162	 2.6295690585	 0.081696
53.7664	99.8092	154.4814	261.1808	269.2134	289.6932	323.1765	400.7745	464.5908	471.2305	559.9898	647.5404	679.814	735.3597	752.0694	818.3399	904.5796	927.4749	960.1958	991.1045	1066.0507	1100.9114	1117.3877	1136.5978	1184.029	1250.4039	1297.0048	1344.4762	1379.6721	1407.3683	1412.064	1435.7634	1487.6731	1502.7059	1619.1341	1763.7694	1838.2827	2874.0929	2993.4335	3038.1391	3056.1237	3109.9757	3124.9875	3588.6493	3702.4713
CC1N=C(N)OC1C=O	C[C@H]1[N][C](N)O[C@H]1C=O	
InChI=1S/C5H8N2O2/c1-3-4(2-8)9-5(6)7-3/h2-4H,1H3,(H2,6,7)	InChI=1S/C5H8N2O2/c1-3-4(2-8)9-5(6)7-3/h2-4H,1H3,(H2,6,7)/t3-,4+/m1/s1
