18
gdb 95445	2.58673	1.43271	0.95672	6.5076	75.02	-0.2474	-0.0316	0.2158	1199.9229	0.149921	-439.14	-439.131866	-439.130922	-439.172903	31.065	
N	-0.0059619583	 1.1024292848	-0.0486743591	-0.536386
H	-0.1565135254	 0.1251253383	-0.2863100908	 0.241317
H	 1.596269489	 1.2336062974	 0.7800953656	 0.312711
H	-0.340665114	 1.6587488157	-0.8283880477	 0.245252
C	-0.7166957657	 1.4448719942	 1.1964166425	-0.092285
C	-2.1760410118	 0.9383085646	 1.3415443034	-0.227279
C	-2.3424326542	 0.5995900241	 2.8438931131	-0.264435
C	-0.9231104788	 0.4141143638	 3.3110097139	-0.13479
C	-0.0303739317	 0.8567988306	 2.4218677143	 0.158207
C	 1.4492720541	 0.8461043638	 2.6442026656	 0.350499
O	 1.9508486895	 0.5767020434	 3.7075247219	-0.343423
O	 2.1897454848	 1.1590726072	 1.5687955867	-0.387917
H	-0.6820321293	 2.541712336	 1.2598658637	 0.104761
H	-2.9149250518	 1.6548868819	 0.9737967433	 0.103749
H	-2.2836390145	 0.0235235521	 0.7465302808	 0.101258
H	-2.8157163116	 1.4250420546	 3.3940748945	 0.123095
H	-2.9698673837	-0.2808581626	 3.0192978736	 0.116145
H	-0.6524913264	 0.0054144501	 4.2772278347	 0.12952
90.5398	112.3645	197.0284	238.381	301.4301	365.0057	378.5387	426.8768	476.1174	600.0337	608.2006	725.0849	763.5079	805.1153	827.7279	883.3922	920.77	930.6524	943.3762	976.5902	1008.455	1043.8111	1082.0558	1127.2246	1157.4703	1208.0927	1223.1256	1267.9944	1275.161	1316.5385	1329.1908	1344.319	1417.6024	1478.0996	1483.8367	1494.3621	1650.0504	1698.8968	1833.8542	3006.2348	3014.6086	3036.0271	3065.1119	3099.6511	3216.3959	3294.792	3487.6313	3576.3418
[NH3+]C1CCC=C1C([O-])=O	N[C@H]1CCC=C1C(=O)O	
InChI=1S/C6H9NO2/c7-5-3-1-2-4(5)6(8)9/h2,5H,1,3,7H2,(H,8,9)	InChI=1S/C6H9NO2/c7-5-3-1-2-4(5)6(8)9/h2,5H,1,3,7H2,(H,8,9)/t5-/m0/s1
