21
gdb 7281	2.85217	1.37877	1.09016	3.6404	76.07	-0.2481	0.0344	0.2825	1177.6855	0.186946	-366.303456	-366.293425	-366.292481	-366.33902	35.827	
C	 0.0440011018	 1.5194349328	 0.0652832707	-0.395459
C	-0.0623694733	-0.0131208231	 0.0484450722	 0.039272
C	 0.4965170479	-0.5952473067	 1.3541891532	-0.386702
C	-1.5150374863	-0.4866548511	-0.2062398187	 0.047766
C	-2.1294919037	 0.0734591506	-1.4958145708	-0.406686
N	-1.5927453199	-1.9475870361	-0.2280117982	-0.275352
C	-2.3015811721	-2.6835279225	 0.6681976442	 0.152621
O	-2.9245705368	-2.2405113972	 1.6105513409	-0.327276
H	 1.0646017954	 1.8271984117	 0.3133462788	 0.114154
H	-0.2086874216	 1.967980161	-0.8987800164	 0.11506
H	-0.6222499344	 1.9488047192	 0.8231557347	 0.119139
H	 0.5535194774	-0.3853972197	-0.7855239317	 0.060527
H	 0.474400455	-1.68753424	 1.3540846471	 0.114575
H	 1.533270596	-0.2778752983	 1.5042136232	 0.107975
H	-0.0876865305	-0.251488046	 2.2152203416	 0.126105
H	-2.1336399806	-0.1895188793	 0.6465913289	 0.122459
H	-1.5175209471	-0.183117097	-2.3696727989	 0.107402
H	-3.1290565065	-0.3426784735	-1.6472810061	 0.126621
H	-2.2193564602	 1.1613661374	-1.4593917804	 0.127522
H	-1.1361038646	-2.4381187837	-0.9821232355	 0.240601
H	-2.2457684059	-3.7674177382	 0.4401447314	 0.069678
28.8651	58.0091	174.605	189.3545	206.5078	213.7419	237.8221	302.1248	361.9645	373.0176	408.4593	471.0823	503.8429	534.0442	738.3425	834.1101	883.6839	927.2002	934.5089	966.6328	994.2342	1029.3872	1059.051	1131.2928	1155.3176	1188.9606	1194.4907	1214.8087	1314.2808	1341.0414	1356.5694	1384.2089	1399.9983	1407.9444	1423.2016	1431.8536	1486.6657	1488.7522	1493.0538	1499.6271	1506.2021	1518.5315	1528.3826	1802.5883	2925.6006	2978.6979	3029.3029	3031.4015	3037.7761	3075.3704	3095.2787	3102.3785	3105.1146	3113.2163	3120.5754	3130.0315	3616.7054
CC(C)C(C)NC=O	CC(C)[C@@H](C)NC=O	
InChI=1S/C6H13NO/c1-5(2)6(3)7-4-8/h4-6H,1-3H3,(H,7,8)	InChI=1S/C6H13NO/c1-5(2)6(3)7-4-8/h4-6H,1-3H3,(H,7,8)/t6-/m1/s1
