18
gdb 53816	3.41999	1.06248	0.89059	0.9937	73.49	-0.2372	-0.0615	0.1758	1319.1433	0.147372	-439.127351	-439.118183	-439.117239	-439.162644	32.991	
N	 0.2159129973	 1.2468907527	 0.0895253468	-0.52029
C	 0.1150866998	-0.0973557535	 0.1701237365	 0.330072
O	 1.0075297085	-0.8665876989	 0.475013843	-0.35316
C	-1.3095121734	-0.5998843807	-0.1748050202	 0.270561
O	-2.1744651777	 0.1963149201	-0.4731527209	-0.319707
C	-1.5166838645	-2.078175839	-0.0580701434	-0.051305
C	-1.8273508789	-2.597964247	 1.393853907	-0.223159
C	-2.9052611868	-3.5280199854	 0.7759566745	-0.20953
C	-2.8672940386	-2.6742726695	-0.520472321	-0.246083
H	 1.0906847292	 1.7013305186	 0.2880935695	 0.268151
H	-0.598821291	 1.7768489264	-0.1751827727	 0.278422
H	-0.6412516493	-2.5984035744	-0.4510769488	 0.109282
H	-0.9937674093	-3.0503652003	 1.9319132186	 0.121617
H	-2.2692472171	-1.8142972272	 2.0156790399	 0.111009
H	-2.5197765863	-4.5379778131	 0.6121728882	 0.107363
H	-3.8596075959	-3.6019253372	 1.3017745492	 0.102512
H	-3.6396055432	-1.9013965939	-0.5374301154	 0.121914
H	-2.8739569927	-3.2022482476	-1.4762453709	 0.102331
32.8973	63.2169	103.0533	153.197	230.6137	305.3765	321.1631	361.2607	462.8831	515.1649	608.0058	625.8661	665.9958	732.1123	779.9025	826.4424	861.4712	914.4853	938.9088	958.8498	1001.0454	1016.3897	1086.2028	1109.3655	1140.7086	1207.3149	1228.0716	1242.0416	1258.2065	1275.9053	1278.6538	1343.539	1393.8635	1478.4517	1485.776	1506.8069	1585.6333	1787.0257	1803.0264	3061.8531	3063.9593	3070.6167	3097.6956	3109.3193	3126.3537	3136.7357	3595.5326	3737.7837
NC(=O)C(=O)C1CCC1	NC(=O)C(=O)C1CCC1	
InChI=1S/C6H9NO2/c7-6(9)5(8)4-2-1-3-4/h4H,1-3H2,(H2,7,9)	InChI=1S/C6H9NO2/c7-6(9)5(8)4-2-1-3-4/h4H,1-3H2,(H2,7,9)
