18
gdb 14043	4.68015	1.55136	1.43768	2.0297	72.86	-0.2417	0.0172	0.2589	926.242	0.155316	-347.793127	-347.785956	-347.785012	-347.825349	26.95	
C	 0.0446071177	 1.5320023744	-0.0392621908	-0.122437
O	 1.4279476403	 1.5904717226	 0.3536917566	-0.273166
C	 1.5128801584	 0.1567703409	 0.4364532429	-0.116384
C	 0.0354053091	-0.0193618656	-0.0284738041	 0.279063
C	-0.9647877354	-0.7327820886	 0.9133687443	-0.29947
C	-1.3495225727	-2.0622934079	 0.2133640769	-0.263252
C	-0.8995298421	-1.8385415795	-1.2099991402	-0.074303
C	-0.1607171052	-0.7375843161	-1.3352984162	-0.130567
H	-0.6153575473	 2.0005029994	 0.7038632568	 0.093692
H	-0.1282359996	 2.0038817053	-1.0154230543	 0.097198
H	 2.275577472	-0.250678912	-0.2393630258	 0.097457
H	 1.7209877379	-0.1876944992	 1.4587846729	 0.094652
H	-0.5575970361	-0.8811916086	 1.9172701809	 0.101747
H	-1.8562834899	-0.105388617	 1.0213432747	 0.106744
H	-0.8311989558	-2.9258891918	 0.6523473346	 0.109556
H	-2.4206394398	-2.2807275339	 0.2911752209	 0.106354
H	-1.13600967	-2.5270112055	-2.0141078729	 0.095764
H	 0.3015933787	-0.3880352969	-2.2529238172	 0.097352
46.377	84.4366	231.984	303.8626	367.6224	447.5264	495.8188	698.191	763.1794	787.7428	838.2713	858.2569	900.1486	938.6181	948.9409	973.8623	982.359	993.0859	1006.5972	1046.2337	1087.1978	1113.9854	1154.9631	1160.9151	1179.1348	1194.3485	1238.7491	1268.0602	1305.5194	1307.9558	1323.573	1376.4002	1388.9727	1480.4962	1497.9223	1508.9008	1534.8985	1684.3926	2990.1849	3002.3338	3013.6424	3038.2077	3042.4313	3043.9185	3056.7284	3092.675	3175.0003	3201.4121
C1OCC11CCC=C1	C1OCC21CCC=C2	
InChI=1S/C7H10O/c1-2-4-7(3-1)5-8-6-7/h1,3H,2,4-6H2	InChI=1S/C7H10O/c1-2-4-7(3-1)5-8-6-7/h1,3H,2,4-6H2
