20
gdb 110511	2.64503	1.44537	1.19095	2.2886	78.06	-0.2324	0.0658	0.2983	1134.9327	0.170859	-403.083878	-403.075528	-403.074584	-403.116649	32.864	
C	 0.0929252409	 1.5920601738	 0.0877217742	-0.382665
C	-0.1169124319	 0.0740606809	 0.0358419822	-0.214909
C	 0.5905842018	-0.5598522903	-1.1516625725	 0.070639
N	 2.0979142016	-0.6054422266	-1.1305382818	-0.156975
C	 2.4477761945	-1.9371892524	-0.5080834482	-0.032952
C	 1.1751904179	-2.6967003612	-0.1363019203	-0.320162
C	 0.5758528218	-2.0714602574	-1.4235350014	 0.331458
O	-0.5217893096	-2.6015997863	-2.0699559946	-0.476259
C	 2.0785411127	-1.8525778982	-1.9375973193	-0.141456
H	 1.1590844775	 1.8329272898	 0.134212027	 0.136169
H	-0.3192075208	 2.0781270134	-0.803373251	 0.113969
H	-0.3951820866	 2.0304163171	 0.9633659154	 0.108191
H	 0.2385964746	-0.373428293	 0.9700828916	 0.098254
H	-1.1874336161	-0.1576704864	-0.037611081	 0.105423
H	 0.3169196314	-0.0320616685	-2.073164771	 0.082368
H	 3.4281305405	-2.0090536659	-0.0566579496	 0.098518
H	 1.3333109775	-3.7736152148	-0.2611078914	 0.095171
H	 0.6774450559	-2.5060682885	 0.8189481637	 0.102013
H	-0.4595540692	-3.5624905476	-2.0615211284	 0.285331
H	 2.6149387454	-1.9929046977	-2.8670584436	 0.097875
79.3232	163.5045	193.3081	248.7503	281.1865	297.0495	363.6321	393.8468	535.1265	560.0489	633.7892	688.9407	737.0244	785.4455	829.6032	844.4737	883.6417	930.4589	941.0421	967.7352	974.5682	1008.6	1017.5465	1063.5189	1103.1763	1114.391	1125.6126	1148.7096	1166.9055	1201.1617	1209.3383	1252.7441	1292.395	1302.889	1341.7444	1350.1258	1382.3477	1410.9956	1436.5287	1480.376	1498.4671	1503.5291	1508.6066	3028.6073	3035.0052	3038.0726	3042.1721	3072.9935	3095.0763	3104.1749	3115.1316	3195.0164	3211.3116	3808.7482
CCC1N2C3CC1(O)C23	CC[C@H]1N2[C@H]3C[C@]1(O)[C@@H]23	
InChI=1S/C7H11NO/c1-2-5-7(9)3-4-6(7)8(4)5/h4-6,9H,2-3H2,1H3	InChI=1S/C7H11NO/c1-2-5-7(9)3-4-6(7)8(4)5/h4-6,9H,2-3H2,1H3/t4-,5+,6-,7+,8?/m0/s1
