19
gdb 88702	2.22401	1.47067	1.14368	3.1836	81.07	-0.2266	0.0243	0.2509	1151.8623	0.158866	-382.036369	-382.027405	-382.026461	-382.07028	33.399	
C	 1.479372863	 0.7851088183	-0.3102759778	-0.424189
C	 0.1306603729	 0.2006894997	 0.0459647915	 0.028262
C	 0.0125697066	-1.1594994495	 0.6558260649	-0.283305
N	-0.3261505968	 0.0324865788	 1.4257483515	-0.095741
C	 0.3886684889	 0.5080878731	 2.5588159689	 0.051695
C	 0.4392911679	-0.2744136391	 3.825329103	-0.3032
C	 1.7614253217	 0.067861275	 3.1438356787	-0.199742
C	 2.5909506682	-0.9669428994	 2.6068328947	 0.3029
N	 3.2901972668	-1.7849170342	 2.177016484	-0.361527
H	 2.2915575137	 0.343383221	 0.2700690799	 0.146084
H	 1.6900628085	 0.5994247813	-1.3686653031	 0.128443
H	 1.4924553524	 1.870428341	-0.1593667535	 0.118441
H	-0.676401529	 0.5220412343	-0.611634247	 0.094611
H	-0.8300206935	-1.8037022934	 0.4162760032	 0.117051
H	 0.9390071548	-1.683889811	 0.8681652529	 0.153344
H	 0.2477500279	 1.5794619677	 2.6763433117	 0.115935
H	 0.2189287618	 0.2063783667	 4.7714107099	 0.132022
H	 0.1332654088	-1.312966327	 3.7615885313	 0.145366
H	 2.3357764852	 0.8777279068	 3.5833969953	 0.13355
55.0644	129.5221	154.16	193.2044	214.1483	244.1759	325.0887	383.3888	443.0506	516.1352	566.9409	651.7416	682.2967	735.8834	790.2678	814.9794	878.9089	906.0759	942.0388	996.5732	1024.6863	1052.7653	1080.7975	1117.7605	1123.1104	1127.3304	1150.6547	1164.5249	1168.1008	1198.7611	1231.5633	1366.4445	1374.3687	1405.8462	1411.0253	1426.4661	1484.412	1493.4183	1498.1931	1510.62	2336.2007	3037.0368	3094.3686	3105.0457	3110.6688	3139.3708	3140.7662	3142.2136	3157.7621	3204.5405	3231.8128
CC1CN1C1CC1C#N	C[C@H]1CN1[C@H]1C[C@H]1C#N	
InChI=1S/C7H10N2/c1-5-4-9(5)7-2-6(7)3-8/h5-7H,2,4H2,1H3	InChI=1S/C7H10N2/c1-5-4-9(5)7-2-6(7)3-8/h5-7H,2,4H2,1H3/t5-,6-,7-,9?/m0/s1
