20
gdb 107247	2.43668	1.66204	1.20828	1.0679	78.53	-0.2046	0.0688	0.2734	1098.8596	0.169913	-403.06114	-403.052457	-403.051512	-403.094001	34.391	
C	 0.1159981733	 1.5883855421	-0.0377196203	-0.382718
C	-0.046182494	 0.0615225953	 0.0007076693	-0.303685
C	-1.475137252	-0.3988295815	 0.0172743481	 0.271047
N	-1.9184648234	-1.6967214365	-0.5559861395	-0.390146
C	-2.5212139739	-0.415011426	-1.0260222214	-0.115659
C	-3.608274557	 0.0361666212	-0.0099233614	-0.121325
C	-3.7216492695	-0.9219247443	 1.1630965471	-0.352706
C	-2.5622070418	 0.0322026567	 1.0799181664	 0.345084
O	-2.3242650456	 1.0216730869	 2.0207206874	-0.449179
H	 1.1750646042	 1.8643650178	-0.0413122631	 0.106551
H	-0.3447336942	 2.0050703925	-0.9392259907	 0.113939
H	-0.3623268772	 2.0511048292	 0.8278725915	 0.144123
H	 0.4481815689	-0.3825339096	-0.8737836961	 0.093245
H	 0.4749608704	-0.3437146078	 0.8791309967	 0.100805
H	-1.2212031125	-1.9686877975	-1.2500592859	 0.220876
H	-2.4745594493	-0.1294917844	-2.0694199686	 0.090723
H	-4.3624632801	 0.7801250004	-0.2283319633	 0.095891
H	-4.4668748812	-0.6117640621	 1.8900585172	 0.106245
H	-3.601446869	-1.9891278042	 1.0300619848	 0.139341
H	-2.0660568862	 0.5944017519	 2.845218612	 0.287549
91.0866	142.4866	195.9488	244.5082	269.7568	304.5782	378.3414	416.5143	449.75	481.8314	534.3201	591.812	642.5007	765.5682	792.0764	827.2436	852.8918	901.3085	911.1707	925.1747	952.2329	964.1984	998.7967	1015.8488	1027.6234	1085.4611	1090.8682	1109.1838	1137.9903	1185.7772	1227.3544	1247.8535	1284.4786	1315.7035	1336.8114	1357.2895	1382.2203	1408.3784	1436.2862	1473.7658	1478.5379	1497.3086	1516.4021	3006.1339	3037.0785	3042.3596	3104.7602	3134.0971	3137.3117	3189.2034	3207.1943	3234.1925	3456.4013	3785.1973
CCC12NC1C1CC21O	CC[C@]12N[C@H]1[C@H]1C[C@@]21O	
InChI=1S/C7H11NO/c1-2-6-5(8-6)4-3-7(4,6)9/h4-5,8-9H,2-3H2,1H3	InChI=1S/C7H11NO/c1-2-6-5(8-6)4-3-7(4,6)9/h4-5,8-9H,2-3H2,1H3/t4-,5+,6+,7+/m1/s1
