17
gdb 30229	3.55714	1.32375	1.03571	4.403	75.77	-0.1858	0.0411	0.2269	1144.9462	0.137585	-418.032838	-418.02473	-418.023786	-418.06611	30.109	
C	 0.1240554513	 1.6357368861	 0.0167511224	-0.3966
C	-0.0013400527	 0.117328153	 0.0375028139	-0.152896
C	 0.5636637737	-0.66700696	-1.2211751341	-0.186184
N	 1.4399673818	-1.3847980313	-0.2851776875	-0.108596
C	 1.0356554251	-0.6698700023	 0.8278421933	 0.324837
C	 1.8410594612	-0.9864248311	 1.8602407304	-0.263743
N	 2.7514862868	-1.9195649192	 1.3261769753	-0.356019
C	 2.5640329066	-2.1607807546	-0.0450144396	 0.4337
O	 3.2161983896	-2.8743876227	-0.7794260467	-0.436376
H	 1.1460927018	 1.9431633152	-0.2248301777	 0.128232
H	-0.5525098094	 2.0710567165	-0.7260488388	 0.122659
H	-0.1329554117	 2.0591528558	 0.9927215388	 0.127487
H	-1.0304070893	-0.1764656966	 0.2666441031	 0.101969
H	-0.143751785	-1.3077870197	-1.7528974553	 0.129688
H	 1.1050112899	-0.0386156779	-1.9345590963	 0.130451
H	 1.8872631449	-0.6649803651	 2.8858284333	 0.136228
H	 3.4903385052	-2.3758674461	 1.8312154555	 0.265164
47.0851	105.8377	197.4315	230.6357	270.9921	345.3324	392.3634	465.2126	592.782	631.4624	673.2202	687.8535	712.3304	734.2307	779.2752	879.5622	913.4618	959.1723	1055.665	1080.5133	1087.6226	1110.8744	1139.4688	1176.1378	1238.2618	1247.706	1293.2244	1321.389	1357.068	1381.1433	1398.6901	1412.7455	1493.7939	1496.2184	1514.0343	1678.9148	1832.0536	3035.5816	3054.973	3057.3316	3105.6381	3110.153	3115.1023	3286.1466	3694.2333
CC1CN2C1=CNC2=O	C[C@H]1Cn2c1c[nH]c2=O	
InChI=1S/C6H8N2O/c1-4-3-8-5(4)2-7-6(8)9/h2,4H,3H2,1H3,(H,7,9)	InChI=1S/C6H8N2O/c1-4-3-8-5(4)2-7-6(8)9/h2,4H,3H2,1H3,(H,7,9)/t4-/m0/s1
