17
gdb 111048	2.18394	1.7147	1.14598	2.8968	69.24	-0.2533	-0.0604	0.1929	1072.0243	0.134753	-458.887758	-458.879652	-458.878708	-458.920564	30.59	
O	 0.4916587701	 0.3120581929	 0.9541456799	-0.423505
C	-0.0692119197	 0.2898953259	-0.3435546076	-0.115565
C	-1.4282482751	-0.3946643582	-0.3297305589	-0.022175
C	-2.1397802045	-1.0273404879	-1.5618310051	 0.009833
C	-1.097180666	-2.1673246251	-1.6216659017	-0.269099
C	-1.5487134965	-1.9364324731	-0.1433359979	 0.310977
O	-2.9411936746	-1.8653841871	-0.6240932425	-0.340063
C	-1.2034700345	-2.7579630738	 1.05026752	 0.03645
O	-0.2275347786	-2.5285842431	 1.7274235817	-0.249773
H	 0.5161533359	-0.6000981531	 1.2796139473	 0.294701
H	-0.1926678055	 1.3357707733	-0.6464909258	 0.112156
H	 0.6134464642	-0.172474091	-1.0724344088	 0.086279
H	-2.1277265535	 0.1331327128	 0.3228016352	 0.102118
H	-2.6823414839	-0.544635798	-2.3738236613	 0.108567
H	-1.4624018324	-3.0967723844	-2.0583122687	 0.121506
H	-0.0667837096	-1.9403404801	-1.8945522087	 0.119446
H	-1.8822737557	-3.6068041	 1.269830183	 0.118146
111.2445	120.5118	152.8196	236.6582	258.4801	328.2501	420.8813	458.5227	549.8752	563.7655	607.6749	694.3888	757.6792	793.9499	874.9248	901.5711	936.8204	994.5034	1000.778	1032.8244	1068.8403	1093.6418	1103.5223	1126.9578	1167.6749	1201.7523	1214.414	1229.282	1255.3882	1286.5041	1353.9515	1399.8966	1414.9143	1455.0566	1484.0934	1516.9122	1796.5799	2935.642	2986.5579	3060.904	3090.825	3098.5508	3129.9616	3169.2701	3712.3177
OCC1C2CC1(O2)C=O	OC[C@H]1[C@H]2C[C@@]1(O2)C=O	
InChI=1S/C6H8O3/c7-2-4-5-1-6(4,3-8)9-5/h3-5,7H,1-2H2	InChI=1S/C6H8O3/c7-2-4-5-1-6(4,3-8)9-5/h3-5,7H,1-2H2/t4-,5+,6+/m0/s1
