18
gdb 98738	2.97837	0.94945	0.84719	5.0702	76.22	-0.2371	-0.0185	0.2187	1419.571	0.146346	-439.117648	-439.107966	-439.107021	-439.153332	33.782	
C	-0.0006415586	 1.4661042926	-0.2808746979	-0.335724
N	-0.1570623281	 0.0243709325	-0.3040000273	-0.327234
C	-1.1274610171	-0.6208153932	 0.4014666697	 0.440993
O	-1.9242811366	-0.0416617553	 1.1249540787	-0.390299
C	-1.1297975999	-2.1139792516	 0.2260264432	-0.143698
C	-1.7905331777	-2.9429976419	 1.2822794032	-0.294458
C	-2.4452828082	-2.8552453532	-0.0773676927	-0.102106
C	-3.7403917473	-2.1391989289	-0.2364785981	 0.142118
O	-4.5796927433	-2.4858331075	-1.0339289003	-0.273636
H	 1.0070137229	 1.748554472	 0.0420004321	 0.128536
H	-0.1899066502	 1.904284666	-1.267183169	 0.130936
H	-0.7287557497	 1.860303916	 0.4284214482	 0.175463
H	 0.4445301929	-0.516503935	-0.902360843	 0.248747
H	-0.2642080603	-2.5368948814	-0.2746731561	 0.091188
H	-1.339817358	-3.8864272136	 1.5655892942	 0.128121
H	-2.2572290408	-2.3789300021	 2.0827121122	 0.153555
H	-2.3494451816	-3.7101522174	-0.7384816775	 0.110581
H	-3.8884221383	-1.2729589179	 0.4350041404	 0.116917
42.4988	83.3756	98.5239	132.0799	183.7396	217.7494	287.3709	342.2386	351.3389	418.1402	466.9787	507.9326	668.5126	766.6199	831.3505	840.8244	875.3715	911.5699	972.7294	1057.5469	1057.9148	1093.3151	1101.169	1130.9747	1153.8384	1172.325	1183.8273	1214.7861	1236.6544	1342.0014	1408.4912	1438.6543	1443.543	1472.1005	1493.7946	1500.1296	1566.1374	1761.9196	1807.0289	2971.0257	3030.8421	3084.4812	3142.8463	3151.4036	3158.461	3174.3539	3239.0749	3650.956
CNC(=O)C1CC1C=O	CNC(=O)[C@H]1C[C@H]1C=O	
InChI=1S/C6H9NO2/c1-7-6(9)5-2-4(5)3-8/h3-5H,2H2,1H3,(H,7,9)	InChI=1S/C6H9NO2/c1-7-6(9)5-2-4(5)3-8/h3-5H,2H2,1H3,(H,7,9)/t4-,5-/m0/s1
