18
gdb 55883	3.25716	0.90667	0.76666	3.837	79.14	-0.2377	0.0311	0.2688	1461.101	0.145772	-401.938185	-401.928426	-401.927482	-401.973767	35.511	
N	 0.5001768068	 0.1030540597	 0.93283942	-0.514374
C	-0.025453335	 0.1084590788	-0.3270473348	 0.383698
O	 0.3238392124	 0.903809273	-1.1764276889	-0.362373
C	-1.1071743843	-0.9405388335	-0.6038776095	-0.314252
C	-1.0458046358	-2.206266753	 0.2219882091	-0.031276
C	-1.7161446791	-2.3040170627	 1.5703108023	-0.303339
C	-2.2803766788	-3.0844750441	 0.3921602571	-0.210528
C	-3.5400615139	-2.7128393884	-0.1823940681	 0.334133
C	-4.5978411064	-2.4105566915	-0.6694405195	-0.464052
H	 1.1607193414	 0.8238977229	 1.1725840871	 0.258853
H	 0.1661378715	-0.5176034307	 1.648543712	 0.265042
H	-2.0785957422	-0.4517007543	-0.4640844733	 0.138845
H	-1.0379799844	-1.16961466	-1.6709857795	 0.138419
H	-0.1214915198	-2.7679376948	 0.1171775024	 0.105352
H	-1.2389256862	-2.8733729847	 2.3605668844	 0.122899
H	-2.3015284886	-1.4558474973	 1.9090765096	 0.133343
H	-2.0894632691	-4.1535955843	 0.4042797638	 0.119415
H	-5.5317365585	-2.1448242751	-1.0988980141	 0.200195
38.2257	72.84	100.4987	176.6743	191.1471	216.6341	317.2315	327.0098	445.2994	517.7912	523.3253	558.6228	589.4899	616.8537	656.0154	675.5353	773.0304	823.9579	864.8086	886.1129	891.9237	956.2605	1022.2125	1067.8267	1098.6353	1116.6093	1127.3806	1159.8905	1226.0937	1249.6524	1311.0524	1351.5059	1377.3384	1415.3643	1462.9368	1485.1578	1607.2641	1801.0745	2236.5381	3051.9917	3099.6862	3131.8033	3142.4876	3151.8092	3222.7144	3505.3465	3603.1928	3741.7803
NC(=O)CC1CC1C#C	NC(=O)C[C@H]1C[C@H]1C#C	
InChI=1S/C7H9NO/c1-2-5-3-6(5)4-7(8)9/h1,5-6H,3-4H2,(H2,8,9)	InChI=1S/C7H9NO/c1-2-5-3-6(5)4-7(8)9/h1,5-6H,3-4H2,(H2,8,9)/t5-,6-/m1/s1
