17
gdb 51833	2.80891	1.24697	1.00393	2.9493	72.12	-0.2615	0.	0.2615	1200.7777	0.137104	-455.157436	-455.149077	-455.148133	-455.191273	30.093	
N	-0.6327163222	 1.2569905562	-0.269010722	-0.439605
C	-0.3285592376	 0.033427137	-0.2465833178	 0.117648
O	-1.2547081724	-0.8659520172	 0.1717289278	-0.211688
C	-0.8585181653	-2.2429023978	 0.1620049919	 0.018195
C	-2.0072565639	-3.0518677287	 0.7545654135	-0.260072
C	-2.8954702075	-3.2832302564	-0.4750236394	-0.084332
O	-1.9798498613	-3.3558608904	-1.5881342122	-0.239266
C	-0.7974338091	-2.7671268653	-1.2691113413	 0.420757
N	 0.201554835	-2.6471802528	-2.0319163349	-0.54031
H	 0.1643774804	 1.8028943033	-0.5903951844	 0.231471
H	 0.6245866531	-0.4195609432	-0.5376129949	 0.123321
H	 0.0989582322	-2.3688871517	 0.6730601334	 0.111381
H	-1.6280653492	-4.0040686126	 1.1363630856	 0.124236
H	-2.5118741869	-2.5181802429	 1.5605756135	 0.135789
H	-3.4582281349	-4.2179911096	-0.4476403341	 0.126035
H	-3.5857582896	-2.4501423718	-0.6414171058	 0.137527
H	 0.0048394492	-3.0334401661	-2.9573356889	 0.228915
70.9001	88.7264	128.2248	176.5953	226.3857	279.5513	383.4918	453.0405	565.2491	671.2673	678.8726	721.9986	825.784	859.4537	901.0977	904.3126	928.7096	965.7944	979.2787	1041.6487	1047.0767	1102.9406	1112.2813	1139.85	1216.7187	1228.4216	1279.5113	1289.8733	1308.3936	1346.034	1359.5417	1412.8809	1429.6586	1475.5737	1520.2711	1743.4252	1776.3777	3058.6023	3070.2384	3077.4975	3090.0783	3120.3728	3141.7199	3468.8315	3515.3137
N=COC1CCOC1=N	[NH][CH]O[C@H]1CCO[C]1[NH]	
InChI=1S/C5H8N2O2/c6-3-9-4-1-2-8-5(4)7/h3-4,6-7H,1-2H2	InChI=1S/C5H8N2O2/c6-3-9-4-1-2-8-5(4)7/h3-4,6-7H,1-2H2/t4-/m0/s1
