13
gdb 43505	3.82884	1.10875	0.86436	5.4862	79.77	-0.2377	-0.1077	0.13	1223.4024	0.087766	-419.43685	-419.429032	-419.428088	-419.469587	28.678	
O	-0.0423583265	 0.0161777904	 0.0041130978	-0.271232
C	-0.0395504502	 1.2150008481	 0.0108773495	 0.30629
C	-1.2495038544	 2.1469613197	 0.0320567926	-0.436164
C	-0.6222196646	 3.5309259809	 0.0314775921	 0.147443
C	 0.7323892311	 3.4971417163	 0.0133028733	-0.29183
C	 1.23024237	 2.1165009813	-0.000883528	 0.310029
O	 2.3680083166	 1.713411498	-0.0182935977	-0.303604
C	-1.422374757	 4.6917307122	 0.0483485172	 0.229778
C	-2.1430876709	 5.6578096428	 0.0633778458	-0.362806
H	-1.8920117104	 1.9826037963	-0.8399970464	 0.160058
H	-1.8686988234	 1.972834152	 0.9189571067	 0.160052
H	 1.3796966372	 4.3637587058	 0.0094449347	 0.13671
H	-2.7668335478	 6.5181796264	 0.0766873423	 0.215277
83.8671	123.8669	140.2495	300.4231	312.7447	399.1267	457.2237	481.967	558.9035	584.3785	645.0922	648.2841	665.2885	714.7818	726.0883	877.3206	908.4716	961.9561	1063.9741	1136.4954	1149.2166	1202.5113	1255.0943	1316.0099	1438.475	1614.0983	1810.5664	1864.5182	2217.9215	3050.9883	3087.3914	3230.909	3496.66
O=C1CC(=CC1=O)C#C	O=C1CC(=CC1=O)C#C	
InChI=1S/C7H4O2/c1-2-5-3-6(8)7(9)4-5/h1,3H,4H2	InChI=1S/C7H4O2/c1-2-5-3-6(8)7(9)4-5/h1,3H,4H2
