21
gdb 64225	3.12338	0.97428	0.90842	2.3163	84.86	-0.2433	0.0544	0.2976	1403.4409	0.17949	-387.044662	-387.034559	-387.033614	-387.080017	37.346	
C	-0.1468180974	 1.5579140095	-0.0684603767	-0.443587
C	-0.0480310142	 0.0333749755	-0.0100653471	 0.245693
C	-1.3781967128	-0.6207417946	-0.3716708189	-0.454991
C	 1.2068392113	-0.5189748534	-0.7352735829	-0.101774
O	 1.8619547599	-0.8124290097	 0.5142565559	-0.288655
C	 0.6550107873	-0.5509680915	 1.2564955131	 0.125883
C	 0.8933603031	 0.3222391244	 2.4909521493	-0.385797
C	 1.6298911763	-0.3793016023	 3.5352585311	 0.295723
C	 2.2289238439	-0.9751773221	 4.3895828939	-0.425109
H	 0.8115267692	 2.038440908	 0.1491086639	 0.124274
H	-0.4544605704	 1.8761057152	-1.0707466345	 0.114673
H	-0.8890947355	 1.9418643698	 0.6399304915	 0.116068
H	-1.6998788902	-0.3268372955	-1.377205459	 0.117127
H	-1.3067002701	-1.7127360083	-0.3474922506	 0.119273
H	-2.1678681585	-0.320293155	 0.3267322989	 0.116984
H	 1.0269740762	-1.4273420386	-1.3267847396	 0.093628
H	 1.7795926029	 0.1939916107	-1.3405122322	 0.099615
H	 0.1892157584	-1.4934824223	 1.5801424714	 0.075702
H	 1.4365379153	 1.2271372311	 2.1986006742	 0.132993
H	-0.0814791765	 0.6452339243	 2.8812976035	 0.128576
H	 2.7669964619	-1.4954125451	 5.1424501346	 0.193701
55.2263	61.1313	111.8773	208.4881	214.4692	261.0947	282.2195	339.3036	345.999	368.2214	378.0436	481.0616	534.7555	616.5134	637.5031	637.93	824.6864	864.1535	890.3373	933.2594	958.1572	963.6627	993.2188	1025.553	1033.2774	1052.4576	1103.6764	1159.5772	1207.1066	1230.1984	1230.9623	1271.6517	1304.3146	1315.7812	1369.8655	1400.3008	1404.3864	1424.4003	1453.6377	1485.8072	1488.6722	1504.1545	1507.8181	1526.5192	2241.2258	2989.6388	3001.7398	3019.104	3023.8365	3030.5867	3051.4967	3071.6695	3087.5049	3093.0454	3100.4268	3106.9928	3508.2516
CC1(C)COC1CC#C	CC1(C)CO[C@H]1CC#C	
InChI=1S/C8H12O/c1-4-5-7-8(2,3)6-9-7/h1,7H,5-6H2,2-3H3	InChI=1S/C8H12O/c1-4-5-7-8(2,3)6-9-7/h1,7H,5-6H2,2-3H3/t7-/m0/s1
