14
gdb 15491	3.55447	2.01172	1.29495	1.62	67.88	-0.2392	-0.0232	0.216	884.6493	0.109762	-374.929137	-374.922313	-374.921369	-374.960323	25.017	
N	-0.0207680154	 1.3078349362	 0.0066730475	-0.45395
C	-0.0009136375	 0.0383784643	 0.0024105578	 0.088469
N	-1.1818394922	-0.6933235405	 0.0089471668	-0.092951
C	-2.4844173451	-0.1778595024	 0.0205393508	 0.084744
N	-3.4245203409	-1.0375441136	 0.025048755	-0.253631
C	-2.7765534488	-2.3541567916	 0.0160193217	-0.273155
C	-1.2693106566	-2.0971447972	 0.0052886281	 0.35478
N	-0.2487846585	-2.8487917753	-0.0048252805	-0.535487
H	 0.9288745433	 1.6748312355	 0.0006490984	 0.237891
H	 0.8718590586	-0.6189060927	-0.0063499074	 0.144089
H	-2.6086112788	 0.8972395505	 0.0248268813	 0.173484
H	-3.0747868819	-2.9327826322	 0.8976667089	 0.147648
H	-3.0882735656	-2.9273389501	-0.8645151669	 0.147648
H	-0.5184286106	-3.8310538111	-0.0057823014	 0.230422
122.7758	161.7319	215.9663	228.4918	384.7647	465.6331	573.0303	591.2079	660.3231	759.5029	824.6643	840.5982	907.3393	948.6077	970.5889	1011.8279	1017.4438	1084.0364	1158.7817	1192.734	1196.3202	1286.6874	1300.5623	1334.0459	1400.7125	1436.0706	1456.4271	1689.4955	1719.5051	1753.0916	3044.3883	3076.8714	3112.3209	3241.2483	3500.8454	3511.1346
N=CN1C=NCC1=N	[NH][CH]N1C=NC[C]1[NH]	
InChI=1S/C4H6N4/c5-2-8-3-7-1-4(8)6/h2-3,5-6H,1H2	InChI=1S/C4H6N4/c5-2-8-3-7-1-4(8)6/h2-3,5-6H,1H2
