17
gdb 94955	3.55802	1.37144	1.17874	4.1622	67.12	-0.2576	-0.0056	0.252	1060.124	0.136986	-458.9936	-458.986001	-458.985057	-459.025859	28.752	
C	 0.1049168665	 1.4578615629	-0.1197065289	-0.40817
C	-0.047890839	-0.049689885	 0.1155158056	-0.023734
C	 0.6354232767	-0.8862072703	-0.9911427036	-0.115356
O	 2.015051586	-0.9682690525	-0.6085824803	-0.250295
C	 2.0401200235	-1.0943572272	 0.7868825259	-0.072088
C	 0.7309103819	-0.4934871616	 1.3529429036	 0.086296
O	 0.3302857193	-1.8142562741	 1.8524060213	-0.26193
C	 1.4708777456	-2.4194412158	 1.3715367244	 0.411429
O	 1.7704917998	-3.5647446584	 1.4458004392	-0.313963
H	 1.1575538283	 1.7293628625	-0.2506600476	 0.135089
H	-0.4331290697	 1.7643173464	-1.021399936	 0.12593
H	-0.292722911	 2.0340448923	 0.7215042383	 0.122951
H	-1.1035406498	-0.3172808599	 0.2161646286	 0.101531
H	 0.1978645374	-1.89209767	-1.0532957477	 0.119789
H	 0.596481673	-0.4241852441	-1.9796180433	 0.119746
H	 3.0132953144	-0.787872694	 1.1704219757	 0.121869
H	 0.7694824872	 0.2254433787	 2.1710383047	 0.100907
94.6776	138.5026	214.0126	256.8891	284.604	330.8752	441.185	474.8162	662.0932	693.7627	739.018	810.3108	834.895	870.0769	912.1096	929.2769	968.1107	971.8023	989.5189	1035.3711	1096.4835	1114.6463	1140.9392	1153.315	1202.7365	1234.312	1261.4216	1302.1018	1307.157	1340.0039	1362.6965	1385.5033	1413.516	1496.2644	1501.1473	1514.1133	1941.9066	3014.0248	3037.537	3076.26	3108.2038	3111.5668	3114.3956	3119.2097	3128.5632
CC1COC2C1OC2=O	C[C@H]1CO[C@H]2[C@@H]1OC2=O	
InChI=1S/C6H8O3/c1-3-2-8-5-4(3)9-6(5)7/h3-5H,2H2,1H3	InChI=1S/C6H8O3/c1-3-2-8-5-4(3)9-6(5)7/h3-5H,2H2,1H3/t3-,4+,5-/m0/s1
