18
gdb 73414	2.66055	2.34266	1.63442	1.6527	72.99	-0.2342	0.0776	0.3117	865.9248	0.149562	-401.890448	-401.883834	-401.88289	-401.920972	27.65	
C	 0.0062202074	 1.4612877517	-0.0178102075	-0.482731
C	-0.0293757078	-0.0430139259	 0.10007293	 0.320561
C	-1.407880721	-0.7039087652	 0.0254944707	-0.112301
O	-1.2436143266	-2.0011029689	 0.6199529793	-0.278453
C	 0.1361480707	-2.1409737155	 0.8765568753	 0.12002
C	 1.0508687938	-2.0986747958	-0.3540326036	-0.093256
C	 1.8823601154	-1.0115407098	 0.2172365598	-0.070744
C	 0.7380110265	-0.7535356212	 1.2430275325	-0.174011
N	 0.934626719	-0.6949524838	-0.8870694668	-0.173719
H	 1.0343152948	 1.8305412423	 0.0397644932	 0.12647
H	-0.4090134201	 1.7810957284	-0.9793816367	 0.128917
H	-0.5758233909	 1.9289312317	 0.7830722969	 0.11708
H	-2.1724784874	-0.150919564	 0.5856399794	 0.099283
H	-1.7345145051	-0.7978509646	-1.0187387145	 0.109855
H	 0.303780579	-2.9706437292	 1.5628714543	 0.088393
H	 1.2959468172	-2.8759056275	-1.0660757715	 0.099544
H	 2.9434879876	-0.8112125923	 0.1878469689	 0.102297
H	 0.7890290176	-0.3893677405	 2.2664815004	 0.072796
214.8853	222.2606	267.5991	319.0835	398.8902	499.8135	594.5522	673.8696	692.2815	771.8004	793.4797	833.1507	856.4012	878.0972	910.9234	936.9884	942.1014	961.2284	972.2599	998.2828	1005.6392	1039.6418	1072.6064	1122.9571	1138.2015	1169.8331	1184.1943	1206.9565	1224.2357	1242.2218	1272.6149	1278.0128	1324.0762	1327.4991	1396.9603	1414.2836	1484.8535	1492.6742	1509.3021	3010.1308	3034.7793	3050.5766	3103.2807	3111.345	3126.4571	3144.3193	3200.0024	3224.5117
CC12COC3C4C(C13)N24	C[C@]12CO[C@H]3[C@@H]4[C@H]([C@@H]13)N24	
InChI=1S/C7H9NO/c1-7-2-9-6-3(7)4-5(6)8(4)7/h3-6H,2H2,1H3	InChI=1S/C7H9NO/c1-7-2-9-6-3(7)4-5(6)8(4)7/h3-6H,2H2,1H3/t3-,4+,5+,6-,7+,8?/m1/s1
