16
gdb 46254	3.19367	1.54062	1.26538	2.9462	69.46	-0.2509	0.0034	0.2542	999.0962	0.124447	-437.829291	-437.822038	-437.821094	-437.861151	28.035	
N	-0.0172900216	 1.2108250258	-0.3184471	-0.54713
C	-0.0104202471	-0.0100047569	-0.0408311219	 0.400906
O	 0.9945826606	-0.8340419056	 0.4285065797	-0.262103
C	 0.0905986618	-1.9814827425	 0.5128902708	-0.146829
C	-1.0423829335	-1.1284317503	-0.0916610181	 0.298075
O	-2.2629832455	-1.0041182312	 0.6544871516	-0.31769
C	-3.0224351247	-1.4418261591	-0.4859123054	 0.093687
C	-2.8614016406	-0.483362606	-1.618508064	-0.298389
C	-1.7922957886	-1.5288656838	-1.3551117573	-0.204481
H	 0.8926913417	 1.6440938667	-0.1518662387	 0.232209
H	 0.457310497	-2.8185483674	-0.0860528431	 0.121881
H	-0.0815032229	-2.2796712498	 1.5493211663	 0.133918
H	-3.8562233134	-2.1094257868	-0.3095151568	 0.112062
H	-3.472617578	-0.6853143159	-2.4929048098	 0.119081
H	-2.6583592314	 0.5627759529	-1.4135171171	 0.155232
H	-1.4693596839	-2.2660642001	-2.0768291262	 0.109571
114.2946	127.7309	185.6242	305.5594	344.0335	448.5674	474.9493	597.4563	665.5982	754.7093	774.3533	810.6084	861.9644	877.0576	911.8985	956.7763	967.2997	976.0866	989.3707	1016.3773	1046.1887	1050.7238	1083.3674	1091.5955	1137.2064	1162.3665	1167.4367	1230.4411	1246.8634	1299.6517	1347.9361	1372.4367	1471.4215	1502.7704	1825.4663	3064.7591	3127.1275	3131.6966	3195.2952	3210.9476	3223.41	3476.467
N=C1OCC11OC2CC12	[NH][C]1OC[C@]21O[C@H]1C[C@@H]21	
InChI=1S/C6H7NO2/c7-5-6(2-8-5)3-1-4(3)9-6/h3-4,7H,1-2H2	InChI=1S/C6H7NO2/c7-5-6(2-8-5)3-1-4(3)9-6/h3-4,7H,1-2H2/t3-,4+,6+/m1/s1
