17
gdb 125912	4.55837	1.25536	1.02643	3.5583	74.48	-0.1987	0.0219	0.2205	1140.2498	0.138909	-418.018972	-418.011525	-418.01058	-418.051115	28.674	
C	 0.1634172817	 1.5340829356	 0.069923259	-0.399647
C	 0.0685841417	 0.0237194078	-0.0187867376	 0.133386
C	 0.798866171	-0.6144304628	-1.2607102084	-0.400712
C	 1.4378946903	-1.7802076786	-0.5802124274	 0.27721
C	 1.3299385109	-1.6595751142	 0.7768066288	 0.288478
O	 0.6478541873	-0.5547431675	 1.1937006517	-0.301757
C	 2.0227939335	-2.7464917636	 1.3331081991	-0.15222
N	 2.5375759649	-3.5002164693	 0.349660103	-0.226091
N	 2.1810553974	-2.8907932507	-0.8029605974	-0.318852
H	 1.2101341652	 1.8520897429	 0.0947486479	 0.128726
H	-0.3214075799	 1.9967346505	-0.7958452031	 0.119273
H	-0.3296449905	 1.8973018248	 0.9755231689	 0.133735
H	-0.9829605879	-0.2908117959	-0.0362899022	 0.093271
H	 0.0789068534	-0.8657745787	-2.0456302895	 0.121139
H	 1.5324210454	 0.0788134688	-1.6947186702	 0.118287
H	 2.178257608	-3.0268201997	 2.3627782482	 0.114418
H	 2.4525060376	-3.3139177695	-1.6731988007	 0.271356
60.6309	199.279	235.4684	273.9305	323.603	436.028	460.3771	467.2915	577.7197	677.1639	691.2807	737.9814	784.2454	819.2669	855.8017	890.5045	932.5454	979.2367	1057.2297	1096.8202	1102.9549	1122.8859	1175.907	1199.3176	1237.9703	1257.8265	1332.188	1348.2142	1372.7911	1406.8484	1410.8267	1462.0001	1483.6187	1495.4772	1498.7886	1564.7028	1627.6567	3007.3949	3017.637	3041.142	3071.0911	3113.8435	3123.5141	3261.6406	3681.1418
CC1CC2=C(O1)C=NN2	C[C@H]1Cc2c(O1)cn[nH]2	
InChI=1S/C6H8N2O/c1-4-2-5-6(9-4)3-7-8-5/h3-4H,2H2,1H3,(H,7,8)	InChI=1S/C6H8N2O/c1-4-2-5-6(9-4)3-7-8-5/h3-4H,2H2,1H3,(H,7,8)/t4-/m0/s1
