18
gdb 16466	3.07338	2.87272	1.84397	1.2787	71.18	-0.2328	0.1019	0.3346	772.592	0.155516	-347.767856	-347.76148	-347.760536	-347.797848	26.416	
C	 0.0337067578	 1.5118482792	-0.1062956834	-0.492609
C	 0.0206556349	 0.0141032665	 0.0353161517	 0.501924
O	 0.4172982212	-0.5962045462	-1.1890694722	-0.321788
C	 0.353924134	-1.9973267157	-0.893182805	-0.112725
C	-0.1011635385	-1.957943104	 0.5557523846	-0.054097
C	 0.6542311747	-0.765911725	 1.2369951689	-0.115776
C	-0.6098545677	-0.4822727206	 2.0796649116	-0.259986
C	-1.1550703246	-0.8038487839	 0.6697814261	-0.115795
H	 1.0372968279	 1.85766208	-0.3718241619	 0.128676
H	-0.6497053815	 1.8220886401	-0.9025226694	 0.128697
H	-0.2684331984	 2.003579838	 0.821221582	 0.121696
H	-0.3604049726	-2.4943687135	-1.5620787505	 0.09895
H	 1.3405802033	-2.4586969727	-1.0287830501	 0.098949
H	-0.2526019839	-2.8895841852	 1.1011158355	 0.070869
H	 1.6985811326	-0.7522229005	 1.5539650335	 0.068123
H	-0.8384332023	-1.2148242963	 2.8577662789	 0.093962
H	-0.7491788244	 0.5341850719	 2.4561009914	 0.092805
H	-2.1931540225	-0.8338387319	 0.3339169284	 0.068125
202.338	249.3085	316.819	324.7247	436.8174	450.5084	638.5283	686.5624	733.9898	734.6999	813.054	884.7408	889.7471	917.6119	930.4699	970.7509	990.9936	1013.2814	1026.4859	1052.2844	1076.4095	1097.7359	1114.4853	1159.3743	1168.492	1170.4653	1206.8538	1210.7823	1248.1366	1256.9735	1315.3461	1326.6297	1371.792	1419.5425	1479.4852	1495.8785	1523.9177	1526.3371	3012.4688	3044.9976	3048.2131	3057.7183	3095.2518	3099.3983	3110.4483	3113.3413	3122.3009	3127.2121
CC12OCC3C1CC23	C[C@@]12OC[C@H]3[C@@H]1C[C@@H]23	
InChI=1S/C7H10O/c1-7-5-2-6(7)4(5)3-8-7/h4-6H,2-3H2,1H3	InChI=1S/C7H10O/c1-7-5-2-6(7)4(5)3-8-7/h4-6H,2-3H2,1H3/t4-,5-,6+,7+
