21
gdb 62640	2.76	1.67222	1.21858	1.3151	82.98	-0.2515	0.078	0.3295	1086.8142	0.181196	-387.023355	-387.014785	-387.013841	-387.055571	34.769	
C	-0.1149503343	 1.557328347	 0.0128699744	-0.457665
C	-0.073401206	 0.0293635807	-0.01596739	 0.321016
C	-1.4459383103	-0.534302743	-0.3820901973	-0.467383
C	 1.1692576542	-0.6179663802	-0.692790606	-0.150307
C	 2.0998317288	-0.3014749427	 0.5267079798	-0.056927
C	 2.6198885895	-1.7472177832	 0.6371946365	-0.335428
C	 1.1333875821	-1.8784956444	 0.2639014507	 0.389184
O	 0.3875780971	-3.0394811761	 0.1425525271	-0.469817
C	 0.70117747	-0.6634185817	 1.1433992761	-0.112779
H	 0.8501373873	 2.0000526548	 0.2743506085	 0.108454
H	-0.410501966	 1.954723672	-0.9652692845	 0.109993
H	-0.8530713079	 1.9105613025	 0.7425825131	 0.110984
H	-1.7629299826	-0.1652510411	-1.3653164049	 0.103043
H	-1.445934844	-1.625005969	-0.4067331	 0.135367
H	-2.2018123451	-0.2081526452	 0.3425757135	 0.106287
H	 1.469224995	-0.608865419	-1.7441510616	 0.0573
H	 2.6511973169	 0.6204398343	 0.6868942468	 0.08222
H	 3.352515894	-2.0636783471	-0.1138385708	 0.084356
H	 2.9078028616	-2.0946009347	 1.6346580668	 0.094786
H	 0.7757275772	-3.5757751747	-0.5575938976	 0.282768
H	 0.4656107526	-0.7029799093	 2.2094925396	 0.064548
179.0868	199.6302	215.9269	226.4828	262.1835	309.4643	348.9708	368.88	390.8538	472.5747	528.3037	613.116	676.9216	731.7903	821.5748	828.0762	867.8171	881.8251	929.3234	952.4518	964.7813	985.8808	1011.0479	1013.0792	1055.6283	1058.4697	1086.5492	1123.3852	1146.5617	1165.9819	1172.2074	1199.429	1210.7909	1240.7139	1262.8698	1293.2266	1334.5795	1376.2163	1404.1451	1421.4803	1486.3745	1488.3566	1506.9132	1512.6739	1513.7497	3020.6166	3026.3428	3030.8979	3073.8057	3075.7324	3082.5069	3088.2406	3091.314	3106.569	3138.8329	3158.2762	3802.5053
CC1(C)C2C3CC2(O)C13	CC1(C)[C@H]2[C@@H]3C[C@@]2(O)[C@H]13	
InChI=1S/C8H12O/c1-7(2)5-4-3-8(5,9)6(4)7/h4-6,9H,3H2,1-2H3	InChI=1S/C8H12O/c1-7(2)5-4-3-8(5,9)6(4)7/h4-6,9H,3H2,1-2H3/t4-,5+,6-,8-
