17
gdb 78842	3.4449	1.33275	1.18786	1.8915	71.89	-0.2446	-0.0186	0.226	1057.5373	0.135638	-421.776838	-421.769218	-421.768274	-421.809136	29.309	
O	-0.2338378357	 1.519119478	-0.1879009745	-0.436428
C	-0.0104813103	 0.1275203958	-0.1853053887	 0.127674
C	-1.2418683139	-0.7468699464	-0.0638737894	-0.103601
C	-1.7922125351	-0.9717774523	-1.4775576705	-0.079507
C	-0.6267519971	-1.7859485043	-0.9795450351	-0.074135
C	 0.2762711349	-0.6128545972	-1.5276902072	-0.12094
C	-0.8925058972	-0.1726559286	-2.4418382534	-0.092791
C	-0.8823623394	-0.7905850836	-3.8130710588	 0.131782
O	-0.0471806716	-1.5584297986	-4.2225359981	-0.248006
H	 0.6187291518	 1.9658588417	-0.1780874954	 0.283344
H	 0.7330098591	-0.1603924791	 0.5703167303	 0.072791
H	-1.8635362167	-0.9080274481	 0.8072983447	 0.092962
H	-2.8161168745	-1.2876227309	-1.6310090221	 0.094103
H	-0.47021348	-2.8458410324	-0.8561178482	 0.101193
H	 1.2795316716	-0.7120193854	-1.933085119	 0.083785
H	-1.0946356317	 0.9030201239	-2.5151800453	 0.094662
H	-1.7447789341	-0.4933562426	-4.4549871093	 0.073112
79.1724	166.2119	201.9382	242.3514	273.4051	324.8497	469.5095	585.3871	677.922	731.5239	770.7062	802.1269	804.7409	841.7243	876.1338	905.3004	969.898	979.8306	996.7591	1016.8804	1026.1912	1044.5086	1055.5114	1079.7544	1129.1553	1148.7625	1174.3348	1193.8335	1219.228	1233.8958	1276.8367	1316.1486	1347.9126	1362.9313	1426.4552	1434.9386	1820.0956	2856.5432	3014.1481	3040.8743	3158.0699	3195.2724	3203.9336	3245.824	3816.7454
OC1C2C3C2C1C3C=O	O[C@H]1[C@H]2[C@@H]3[C@H]2[C@H]1[C@H]3C=O	
InChI=1S/C7H8O2/c8-1-2-3-5-4(2)7(9)6(3)5/h1-7,9H	InChI=1S/C7H8O2/c8-1-2-3-5-4(2)7(9)6(3)5/h1-7,9H/t2-,3-,4+,5-,6-,7+/m0/s1
