19
gdb 120270	3.25526	1.1075	0.98148	2.2053	71.77	-0.2369	0.0764	0.3133	1276.9342	0.157545	-460.108935	-460.099964	-460.09902	-460.143146	33.065	
C	 0.0026906563	 1.4788975316	-0.0259820806	-0.385182
C	 0.2198346026	-0.0226787185	 0.0328784543	-0.044074
O	 0.4348191418	-0.4938277738	-1.2940954547	-0.255923
C	 0.6309796132	-1.8702481482	-1.3721389936	 0.083787
C	 0.8468313097	-2.4007852008	-2.784437059	-0.022732
O	 2.0768134486	-1.8459264584	-3.2732067601	-0.250734
C	 2.1486988612	-2.998643902	-2.4235571212	-0.011304
C	 2.078430305	-2.431646651	-0.994981117	 0.073593
O	 3.0428056406	-1.477981306	-0.6619148192	-0.429649
H	 0.8813279436	 1.9774190726	-0.4449644299	 0.128043
H	-0.8597005519	 1.7194563402	-0.6541952728	 0.125794
H	-0.1752479587	 1.876392041	 0.9776732668	 0.115693
H	 1.0864906832	-0.2688828278	 0.6603057652	 0.113729
H	-0.6618665137	-0.525335561	 0.4643233897	 0.084335
H	-0.1565218805	-2.4302226804	-0.8439119427	 0.068332
H	 0.1161954195	-2.7039515557	-3.5245990186	 0.11011
H	 2.6500404432	-3.8765349746	-2.8137620612	 0.10882
H	 2.059074042	-3.1855668353	-0.2054347196	 0.091436
H	 3.0361398845	-0.8410249222	-1.389257146	 0.295927
62.3915	107.017	114.1107	191.0724	226.3128	257.3704	301.6561	374.1527	452.5783	493.4272	629.083	666.2317	754.6118	803.8805	824.2241	859.8134	891.6634	902.7763	923.6826	952.8006	1022.0994	1049.5351	1065.7832	1124.1103	1145.7133	1155.5141	1184.7024	1194.6718	1234.3368	1239.7817	1277.2221	1297.9384	1309.7792	1358.5204	1376.2511	1403.5703	1441.063	1447.436	1483.6679	1500.5693	1524.9091	2966.1753	2984.3143	3037.1144	3045.2627	3099.2077	3119.8963	3122.1375	3185.5368	3200.7787	3767.624
CCOC1C2OC2C1O	CCO[C@H]1[C@H]2O[C@H]2[C@H]1O	
InChI=1S/C6H10O3/c1-2-8-4-3(7)5-6(4)9-5/h3-7H,2H2,1H3	InChI=1S/C6H10O3/c1-2-8-4-3(7)5-6(4)9-5/h3-7H,2H2,1H3/t3-,4+,5-,6+/m0/s1
