17
gdb 87273	2.12712	1.53978	1.03262	2.1829	70.94	-0.2553	-0.0534	0.2019	1181.3098	0.1312	-458.97005	-458.960313	-458.959369	-459.005456	34.144	
C	-0.2117192037	 1.5797542699	 0.2977172371	-0.433397
C	-0.1552480679	 0.0759048018	 0.2180126028	 0.072672
O	 0.838984555	-0.5310975356	-0.5705794152	-0.258923
C	 0.9105287458	-0.7852424895	 0.8422654457	 0.134362
C	 2.0670546165	-0.0958500778	 1.4996638016	 0.088643
O	 2.4368772709	-0.2806747902	 2.63200941	-0.258049
C	 0.4495262294	-2.1897664919	 1.247168549	 0.321607
C	 0.9856099777	-2.8026395119	 2.5172265655	-0.480546
O	-0.3478792267	-2.7545029416	 0.5373626184	-0.289791
H	 0.7791214979	 2.0356651558	 0.3278733841	 0.134673
H	-0.7381051534	 1.9669652899	-0.5808068579	 0.144821
H	-0.7714386322	 1.8907061541	 1.1853652732	 0.139877
H	-1.1191527798	-0.4314815173	 0.1526250129	 0.127946
H	 2.5767087207	 0.6220067529	 0.8232716706	 0.106306
H	 0.8057729034	-2.1454006187	 3.371922898	 0.157244
H	 0.5082090579	-3.7720051903	 2.6640916872	 0.13848
H	 2.0721601086	-2.9210618898	 2.4568091871	 0.154074
30.1635	94.404	160.5216	176.2057	180.2161	219.0271	248.2943	320.4614	356.1004	371.1661	474.0033	503.5319	585.9578	624.2029	692.7874	793.6136	846.3533	953.2444	999.8659	1015.3053	1033.2701	1067.1663	1113.3276	1141.7613	1204.6035	1263.7244	1315.5625	1390.3719	1400.0376	1406.6049	1434.4926	1446.5375	1467.1046	1482.1617	1499.8848	1806.2512	1817.2478	2916.0476	3046.5377	3052.7871	3107.3202	3109.6753	3118.4222	3143.5634	3160.3243
CC1OC1(C=O)C(C)=O	C[C@H]1O[C@]1(C=O)C(=O)C	
InChI=1S/C6H8O3/c1-4(8)6(3-7)5(2)9-6/h3,5H,1-2H3	InChI=1S/C6H8O3/c1-4(8)6(3-7)5(2)9-6/h3,5H,1-2H3/t5-,6-/m1/s1
