25
gdb 117841	2.42127	0.92144	0.82688	2.3171	84.99	-0.251	0.06	0.3109	1578.0455	0.227027	-426.625733	-426.614271	-426.613327	-426.66198	42.458	
C	-0.0384472648	 1.6779311003	 0.0902536406	-0.377553
C	-0.1756780871	 0.1519447936	 0.079987613	-0.186909
C	 0.7367239941	-0.5178347601	 1.1153517315	-0.202534
C	 0.7350833955	-2.0651876645	 1.1466889845	 0.260014
C	-0.6851114485	-2.65511589	 1.1505519285	-0.435409
C	 1.5057893017	-2.6383094338	-0.0694318366	-0.084568
O	 2.9098862101	-2.4538337787	 0.0195780177	-0.43715
C	 1.4669348619	-2.4787445287	 2.4370313709	-0.127861
O	 1.8466438254	-3.8542981274	 2.3416405188	-0.436951
H	 0.9872457451	 1.9845980092	-0.1423987078	 0.116696
H	-0.7013182173	 2.1435870563	-0.6458164102	 0.109166
H	-0.2903687254	 2.0909532351	 1.0736113276	 0.11101
H	-1.2208765824	-0.1172283135	 0.2724785055	 0.096968
H	 0.055779087	-0.2218520476	-0.9248609095	 0.100375
H	 1.7715923341	-0.1942855718	 0.944309845	 0.110056
H	 0.458601518	-0.1429163297	 2.1116182781	 0.080186
H	-1.175689045	-2.537386008	 0.1791477943	 0.114227
H	-0.6465301846	-3.7241265479	 1.3804061546	 0.124159
H	-1.3158823833	-2.1675695579	 1.9023767442	 0.106327
H	 1.2600259693	-3.7019174356	-0.1835697413	 0.094751
H	 1.1834265753	-2.1305112428	-0.9841318951	 0.101169
H	 3.2071581053	-3.0875908258	 0.6833832672	 0.286252
H	 2.3570874083	-1.848698065	 2.5710718477	 0.095135
H	 0.8057802486	-2.3158934503	 3.3007742103	 0.091064
H	 2.2143048988	-4.1254245754	 3.1876475105	 0.291381
79.1869	95.2921	116.6498	137.7196	173.6194	228.6608	247.3919	261.0457	292.4479	315.5418	320.166	344.2069	362.0361	393.8628	500.3866	540.2092	596.379	750.4563	769.0453	866.9961	872.6042	920.2735	937.2621	954.7498	995.4683	1044.2851	1053.095	1077.9508	1085.3268	1108.6112	1168.2394	1184.7733	1205.5262	1253.7565	1270.6476	1295.9158	1306.1352	1330.7026	1353.4017	1396.8404	1404.4086	1410.0927	1413.5039	1426.0257	1453.9271	1481.8034	1492.1102	1497.0083	1498.7952	1500.9456	1506.581	1511.9907	1518.579	2986.9664	2997.3816	3018.4547	3026.6305	3027.7767	3029.1456	3032.4375	3043.164	3065.1044	3078.4904	3095.9275	3097.1709	3101.2391	3109.388	3787.2685	3834.1477
CCCC(C)(CO)CO	CCCC(C)(CO)CO	
InChI=1S/C7H16O2/c1-3-4-7(2,5-8)6-9/h8-9H,3-6H2,1-2H3	InChI=1S/C7H16O2/c1-3-4-7(2,5-8)6-9/h8-9H,3-6H2,1-2H3
