15
gdb 28743	4.53399	0.87991	0.79543	2.9188	70.53	-0.2105	-0.0287	0.1818	1385.0824	0.112372	-453.989074	-453.980619	-453.979675	-454.023579	29.929	
N	 0.0057255569	 1.3019526614	 0.0412918367	-0.586333
C	-0.105600468	-0.064011736	 0.0373978368	 0.453337
N	-1.177460573	-0.7795827604	 0.1829151423	-0.332204
C	-0.6971401728	-2.0876134081	 0.1836285252	-0.186398
C	 0.6459665247	-2.096342711	 0.0369234319	 0.290332
C	 1.7017009652	-3.1352633806	-0.0736008851	-0.393504
C	 2.1770110807	-3.3362096088	-1.5110286312	 0.164393
O	 2.3637297416	-4.4104315265	-2.0159834146	-0.230505
O	 1.0466663788	-0.7662129319	-0.0621967763	-0.217688
H	 0.7792407399	 1.6707073448	-0.4918770286	 0.265812
H	-0.8710649466	 1.7683833878	-0.1376774967	 0.273997
H	-1.3607172489	-2.9313458282	 0.291666593	 0.126309
H	 2.5779355343	-2.8461736929	 0.5249723278	 0.141877
H	 1.3391988698	-4.0932305591	 0.3062265302	 0.144618
H	 2.3426770075	-2.3904000105	-2.0739334514	 0.085958
40.6169	55.9731	126.2162	237.8141	270.9974	315.522	377.836	427.0913	458.889	588.1267	634.4769	684.6991	735.2337	764.1606	809.0871	859.5596	965.0872	987.6	1036.326	1047.6309	1087.107	1182.7761	1201.1861	1231.167	1279.0318	1307.5027	1418.3842	1436.8417	1439.5666	1602.4305	1656.4363	1682.4927	1838.2533	2884.1297	3011.6254	3116.852	3261.3877	3578.2773	3687.3124
NC1=NC=C(CC=O)O1	Nc1ncc(CC=O)o1	
InChI=1S/C5H6N2O2/c6-5-7-3-4(9-5)1-2-8/h2-3H,1H2,(H2,6,7)	InChI=1S/C5H6N2O2/c6-5-7-3-4(9-5)1-2-8/h2-3H,1H2,(H2,6,7)
