20
gdb 13020	2.48382	2.39617	1.55372	1.1914	73.79	-0.25	0.0743	0.3242	909.0943	0.177844	-349.010501	-349.002617	-349.001673	-349.042009	31.438	
C	-0.0470559953	 1.574642309	-0.0170952033	-0.415044
C	 0.0409355632	 0.047885145	 0.0006758296	-0.008824
C	 0.7990429198	-0.5657132149	-1.1986977524	-0.239449
C	 1.3088517389	-1.942038986	-0.7062294965	-0.220813
C	 1.5071195273	-1.761365485	 0.7916691114	-0.075302
C	 2.2530329726	-0.5206050129	 1.2573644651	-0.360631
C	 0.7433853037	-0.5422415031	 1.2223525656	 0.415649
O	 0.0345595887	-0.5643135557	 2.4270391734	-0.479898
H	 0.9509163611	 2.0278511759	-0.0138378678	 0.11265
H	-0.5746130525	 1.9336793172	-0.9068710688	 0.114039
H	-0.5905887665	 1.9504723273	 0.8574027682	 0.10448
H	-0.9791153491	-0.3602446122	 0.0232715047	 0.077925
H	 0.1694259567	-0.6456359524	-2.089165678	 0.096739
H	 1.6432658562	 0.0778804518	-1.4714174519	 0.099039
H	 0.5499846178	-2.7149083184	-0.8777784728	 0.100613
H	 2.2162442613	-2.259816527	-1.2312561792	 0.095145
H	 1.541385159	-2.6325205806	 1.436016345	 0.088665
H	 2.6969589512	-0.5831236862	 2.2449345916	 0.109094
H	 2.8176303592	 0.0750519562	 0.5465019459	 0.105137
H	 0.0954541169	 0.3113572321	 2.8234844003	 0.280785
139.8282	223.5074	232.3464	239.637	274.2634	329.0353	385.3675	442.1932	504.8881	555.635	626.5425	662.704	817.0175	834.7608	863.6377	910.3266	923.9021	944.7831	965.7771	989.1339	1032.1481	1049.1972	1066.7613	1087.6361	1128.8883	1139.2033	1187.9341	1225.2905	1243.9252	1275.5495	1311.2089	1327.5868	1337.2019	1340.0985	1381.4329	1404.7365	1407.9165	1485.0205	1492.1665	1496.2636	1501.6888	1513.2573	3009.5157	3023.1746	3031.1222	3042.3305	3068.9376	3086.6919	3091.8246	3096.71	3124.7206	3175.9541	3213.5636	3799.3677
CC1CCC2CC12O	C[C@H]1CC[C@H]2C[C@@]12O	
InChI=1S/C7H12O/c1-5-2-3-6-4-7(5,6)8/h5-6,8H,2-4H2,1H3	InChI=1S/C7H12O/c1-5-2-3-6-4-7(5,6)8/h5-6,8H,2-4H2,1H3/t5-,6-,7+/m0/s1
