14
gdb 49886	2.39097	1.4846	1.00419	1.8835	63.62	-0.2669	-0.0503	0.2166	1110.9212	0.101039	-473.915255	-473.907482	-473.906538	-473.948537	27.836	
O	-0.5856977443	 0.8072056973	-0.6452899879	-0.224831
C	 0.2092730812	 0.9761199078	 0.2396274756	 0.151402
C	 1.3987514691	 1.9294576476	 0.1435223298	-0.235608
C	 1.4375701397	 2.7886137935	-1.1224673904	-0.367358
C	 1.4096524909	 4.2342827876	-0.6345613563	 0.421558
O	 1.4417320031	 5.2421608065	-1.2876518669	-0.331084
N	 1.3384356288	 4.1909380269	 0.7608054779	-0.35244
C	 1.3426654578	 2.9246172293	 1.3178346567	 0.411266
O	 1.2941375891	 2.6593416025	 2.4911963422	-0.343438
H	 0.1348429404	 0.4490019454	 1.2113821939	 0.121433
H	 2.2976841868	 1.319249604	 0.2936204697	 0.143889
H	 2.3289006528	 2.6334517871	-1.7337591205	 0.150991
H	 0.5658627032	 2.5973698811	-1.754918344	 0.175147
H	 1.2976258814	 5.0284923835	 1.3250652603	 0.279074
59.2138	105.5288	139.5013	216.0087	293.2143	394.6435	515.157	554.0339	593.1973	626.9516	659.7176	673.8934	728.7137	806.5476	875.3567	923.4142	969.2789	1040.4849	1091.3302	1169.137	1184.367	1204.0348	1287.3577	1304.6434	1336.6156	1360.09	1410.0746	1463.1308	1826.1166	1840.9186	1881.579	2945.9382	3050.1427	3078.5037	3124.9438	3617.0057
O=CC1CC(=O)NC1=O	O=C[C@H]1CC(=O)NC1=O	
InChI=1S/C5H5NO3/c7-2-3-1-4(8)6-5(3)9/h2-3H,1H2,(H,6,8,9)	InChI=1S/C5H5NO3/c7-2-3-1-4(8)6-5(3)9/h2-3H,1H2,(H,6,8,9)/t3-/m1/s1
