16
gdb 34045	3.20334	1.37024	1.17828	2.5473	69.24	-0.2764	0.0189	0.2953	1047.5745	0.125997	-437.878468	-437.871038	-437.870094	-437.910428	28.333	
N	 0.0355921996	-1.1077700797	 0.054210468	-0.339324
C	 0.0184350469	 0.0489801326	 0.0235144408	 0.231636
C	-0.0178832596	 1.4843444407	-0.0053402427	 0.086449
C	 0.4735603858	 2.1904095589	-1.2652324385	-0.327805
C	 1.3195804887	 2.2331435041	-0.0304232961	 0.083003
O	 1.4291053922	 3.4381538876	 0.662760708	-0.243719
C	 0.4200323476	 3.6412560542	 1.6260389764	 0.008015
O	-0.8621753383	 3.4842257358	 1.0828785824	-0.23038
C	-1.1374034358	 2.1189706643	 0.8230214554	-0.166327
H	 0.7902917969	 1.5727286278	-2.0968377838	 0.140934
H	-0.0432273619	 3.1085195926	-1.520391207	 0.147166
H	 2.229246932	 1.6410582799	 0.001754363	 0.128346
H	 0.5558788536	 2.9480242688	 2.4742802112	 0.094547
H	 0.5163392217	 4.6763854802	 1.9553645234	 0.131428
H	-2.091086721	 2.0840316556	 0.2905778195	 0.136631
H	-1.2428827683	 1.5640383567	 1.7671706998	 0.119398
122.5971	148.1009	176.5138	285.1002	391.9746	413.7608	449.4367	503.1999	547.1098	574.0494	623.1067	752.6219	821.0379	881.7373	929.8763	976.7421	1000.352	1030.4693	1054.7125	1064.4831	1100.5313	1117.1711	1188.2521	1204.0146	1248.8309	1279.574	1287.713	1329.4327	1371.8455	1419.1037	1447.465	1465.6646	1499.2338	1516.5427	2348.581	2956.2699	2999.0058	3098.8753	3131.0595	3145.8553	3158.5487	3245.5858
N#CC12CC1OCOC2	N#C[C@]12C[C@H]1OCOC2	
InChI=1S/C6H7NO2/c7-2-6-1-5(6)9-4-8-3-6/h5H,1,3-4H2	InChI=1S/C6H7NO2/c7-2-6-1-5(6)9-4-8-3-6/h5H,1,3-4H2/t5-,6+/m1/s1
