15
gdb 127490	3.53173	1.26638	0.93841	2.0659	73.47	-0.2252	-0.0713	0.1539	1176.8517	0.113965	-450.168794	-450.160435	-450.15949	-450.201869	30.003	
C	 0.2903530529	 1.2780846197	 0.18393021	-0.34293
N	 0.0976998051	-0.1600100814	 0.1269029354	-0.011942
N	 0.0047980195	-0.7810236685	-1.0680445843	-0.312386
C	-0.1682765899	-2.062991842	-0.7207547815	 0.402612
N	-0.372106887	-3.0561860943	-1.6505825036	-0.587254
N	-0.1832075652	-2.2912128052	 0.6108901048	-0.349897
C	-0.0141836555	-1.0690798745	 1.1219895387	 0.259652
C	 0.0369312266	-0.8126494549	 2.5651772581	 0.095228
O	 0.1893411528	 0.2693235348	 3.0899425389	-0.284908
H	 0.3497578235	 1.5722126788	 1.2296507264	 0.187247
H	 1.2120855176	 1.5413804046	-0.3408805018	 0.15151
H	-0.5498287177	 1.7767625528	-0.3058295876	 0.153209
H	-0.0114508993	-2.8472387415	-2.5692986038	 0.261784
H	-0.1271476936	-3.9770055253	-1.3195018824	 0.263331
H	-0.0818918499	-1.7434635131	 3.1526291728	 0.114744
99.8812	119.3202	182.3763	214.2302	264.9148	294.1035	334.1516	371.6793	414.391	534.5704	585.4187	655.4913	685.2465	776.1175	790.418	832.8267	1034.1658	1052.0768	1078.2024	1117.8503	1157.7455	1243.6388	1311.298	1370.7218	1427.2746	1448.2474	1480.9982	1492.1163	1516.1578	1539.5909	1566.7651	1648.808	1785.6857	2957.1151	3057.9251	3123.7572	3187.488	3582.017	3690.0618
CN1N=C(N)N=C1C=O	Cn1nc(N)nc1C=O	
InChI=1S/C4H6N4O/c1-8-3(2-9)6-4(5)7-8/h2H,1H3,(H2,5,7)	InChI=1S/C4H6N4O/c1-8-3(2-9)6-4(5)7-8/h2H,1H3,(H2,5,7)
