16
gdb 51757	2.75292	1.04769	0.81773	3.6437	70.09	-0.2587	-0.0372	0.2215	1344.0182	0.122799	-437.881822	-437.872857	-437.871913	-437.917636	30.331	
O	-0.2423626034	 0.0818189957	-0.0560033197	-0.233132
C	-0.0546998928	 1.2706744486	-0.0514911281	 0.153569
C	 1.3200420294	 1.9149579897	-0.076754162	-0.301688
C	 1.4720335603	 2.8420009271	-1.2767347025	 0.122763
O	 0.5234145215	 3.9298195342	-1.2662658223	-0.28112
C	 1.5564757139	 4.9275608007	-1.3154563572	-0.074004
C	 2.6729724379	 3.8452204413	-1.3063609295	-0.240414
C	 3.5709938042	 3.8500404289	-0.1664260625	 0.290252
N	 4.2742449267	 3.8577157137	 0.7512337302	-0.322131
H	-0.899267992	 1.9914090125	-0.0277975805	 0.102997
H	 1.4450867892	 2.4988991127	 0.8441420173	 0.140002
H	 2.0798265464	 1.1283306595	-0.1012235319	 0.135898
H	 1.3966979744	 2.2700307182	-2.210029316	 0.106831
H	 1.5155975104	 5.5243641446	-2.232741519	 0.124668
H	 1.539370989	 5.5895834972	-0.4443680015	 0.134465
H	 3.2556684146	 3.7968637454	-2.2277164548	 0.141045
38.7687	56.4393	74.6167	113.9917	201.802	232.7082	339.3056	424.0408	494.3185	526.2125	590.3171	757.2803	797.0034	846.5912	889.7275	933.3493	1004.8671	1022.013	1059.9795	1087.08	1107.6619	1129.9019	1167.6684	1192.7779	1232.505	1265.9033	1304.2296	1347.7395	1362.3919	1389.1482	1423.3129	1450.507	1526.8899	1833.1672	2356.9912	2914.0768	3024.5306	3037.5923	3040.5305	3090.1233	3105.3186	3109.0945
O=CCC1OCC1C#N	O=CC[C@H]1OC[C@H]1C#N	
InChI=1S/C6H7NO2/c7-3-5-4-9-6(5)1-2-8/h2,5-6H,1,4H2	InChI=1S/C6H7NO2/c7-3-5-4-9-6(5)1-2-8/h2,5-6H,1,4H2/t5-,6-/m1/s1
