17
gdb 128138	2.00892	1.78445	1.00229	3.9679	72.42	-0.2025	0.0338	0.2362	1165.2227	0.137009	-451.30804	-451.298901	-451.297957	-451.34171	33.971	
C	 0.4230359779	 1.3630790631	 0.4549554419	-0.328824
N	-0.1916574497	 0.2074417266	-0.2099220387	-0.412524
C	 0.5700812131	-0.382922422	-1.2452289041	-0.055785
C	 0.2638199074	-0.3404645668	-2.5796192898	 0.475068
N	-0.7617721139	 0.2853586411	-3.2378989411	-0.592987
O	 1.1805390806	-0.9741847235	-3.3077310647	-0.229477
N	 2.1813531831	-1.4999623594	-2.4298538953	-0.263991
C	 1.799832966	-1.1178224071	-1.2315686308	 0.386228
N	 2.5772989196	-1.3896822246	-0.116420485	-0.59106
H	 1.4025237337	 1.1504174856	 0.9084220751	 0.115536
H	 0.5617933502	 2.1632199535	-0.2777501441	 0.134212
H	-0.2525154742	 1.7285613073	 1.2346657107	 0.113028
H	-0.4976071609	-0.473991192	 0.4758244509	 0.220263
H	-1.5313168074	 0.5093577675	-2.6216811235	 0.263693
H	-1.0460779332	-0.1536776983	-4.1019042892	 0.263013
H	 3.2676646045	-2.109391782	-0.2871251003	 0.25845
H	 2.0398089033	-1.5818658593	 0.7172620979	 0.245157
79.9303	144.1842	175.8289	188.4114	247.2074	258.6052	329.3306	349.794	380.8119	429.9525	551.9207	581.0084	604.5871	656.5382	677.1444	710.2812	744.8278	798.6442	812.0994	909.1816	1042.2503	1062.549	1117.1922	1137.215	1158.1924	1176.5174	1323.593	1405.7608	1453.4142	1459.3842	1489.164	1507.6213	1522.8053	1570.6132	1620.333	1645.2481	1708.3809	2991.9617	3073.1613	3112.385	3512.585	3548.5806	3557.0535	3647.8114	3665.8597
CNC1=C(N)ON=C1N	CNc1c(N)onc1N	
InChI=1S/C4H8N4O/c1-7-2-3(5)8-9-4(2)6/h7H,6H2,1H3,(H2,5,8)	InChI=1S/C4H8N4O/c1-7-2-3(5)8-9-4(2)6/h7H,6H2,1H3,(H2,5,8)
