16
gdb 28591	4.08329	1.09029	0.91437	3.1798	73.71	-0.196	0.0231	0.219	1246.3079	0.126189	-434.075106	-434.06708	-434.066135	-434.108054	29.773	
N	 0.1090154857	 0.9659557854	-0.9990122617	-0.611786
C	-0.0526738604	-0.1562576008	-0.1723666308	 0.279757
C	-0.8367488275	-0.4329096694	 0.9210988559	-0.158361
N	-0.5167702045	-1.6676350836	 1.4471744782	-0.316571
C	 0.4312897469	-2.1413757091	 0.6748917683	 0.349518
N	 0.7530521591	-1.263275436	-0.3275272521	-0.319357
C	 1.0898786257	-3.4533731519	 0.7938388887	-0.023507
C	 1.2127753903	-4.3818992782	-0.3460019179	-0.177458
O	 2.3250153768	-3.5882214094	 0.0727501539	-0.248229
H	-0.1970362118	 0.7995253388	-1.9531793943	 0.247236
H	-0.4093914767	 1.7561651132	-0.6362985708	 0.252637
H	-1.6037829125	 0.1884272219	 1.3584513008	 0.096025
H	 1.5537377755	-1.3443971103	-0.9332345964	 0.271953
H	 1.0812356731	-3.8700317251	 1.7987072529	 0.119367
H	 1.3059037819	-5.450962662	-0.1606642157	 0.124126
H	 0.7748894083	-4.1075240634	-1.304319099	 0.114648
85.5296	138.4392	151.0747	172.3372	280.5509	368.2022	425.2989	476.9567	574.9878	631.8818	663.9629	721.9397	729.3514	800.3993	819.4881	843.0286	897.7405	982.3458	1021.2727	1049.1743	1092.4181	1135.8227	1145.5544	1167.7882	1175.7256	1217.0861	1259.4562	1298.3334	1384.5725	1440.054	1462.2735	1519.232	1565.2842	1624.3095	1658.5694	3085.0086	3143.8055	3177.1835	3245.0241	3497.2724	3604.1823	3657.5647
NC1=CN=C(N1)C1CO1	Nc1cnc([nH]1)[C@H]1CO1	
InChI=1S/C5H7N3O/c6-4-1-7-5(8-4)3-2-9-3/h1,3H,2,6H2,(H,7,8)	InChI=1S/C5H7N3O/c6-4-1-7-5(8-4)3-2-9-3/h1,3H,2,6H2,(H,7,8)/t3-/m1/s1
