19
gdb 41334	2.98499	1.90429	1.55459	0.9405	73.53	-0.2357	0.0797	0.3153	914.6816	0.162391	-423.000978	-422.994505	-422.99356	-423.031374	27.908	
C	-0.0194033152	 1.5405366515	 0.1702672894	-0.289275
C	 1.540136199	 1.4840761531	-0.060795836	-0.34594
C	 1.2920427924	 0.1702074901	-0.8112001256	 0.43105
C	 0.795531144	 0.2043227001	-2.2748578271	-0.282322
C	 0.0391613325	-1.1033834724	-2.0228407181	 0.059475
C	 1.1946297534	-1.9667995809	-1.4359792442	-0.100881
O	 2.0838244838	-1.0087710583	-0.7927451618	-0.341872
O	-0.8811788757	-0.7228275721	-0.9726535645	-0.298233
C	-0.0292138329	-0.0026943411	-0.0752114	 0.107926
H	-0.3597637358	 1.8815734459	 1.1485708774	 0.107582
H	-0.5383493127	 2.1016124502	-0.6080830995	 0.117959
H	 2.0138319709	 2.3030146724	-0.6044418637	 0.108593
H	 2.0717771262	 1.3185914962	 0.879369704	 0.121312
H	 0.1288784592	 1.0250543364	-2.538264605	 0.10952
H	 1.6283284427	 0.1346611534	-2.9773122867	 0.106546
H	-0.5252532691	-1.5715979308	-2.8281193657	 0.085801
H	 0.8161265765	-2.6871674682	-0.7022766898	 0.111547
H	 1.7514246856	-2.5002119131	-2.2137806543	 0.107752
H	 0.0667135952	-0.5444823025	 0.8715174013	 0.083462
209.4484	273.454	330.9902	391.8757	423.2536	501.9512	537.6422	633.8192	673.3741	749.8444	793.9826	804.2401	843.8391	861.9657	887.6849	926.9659	942.2319	946.2015	975.5658	988.3913	1050.9011	1061.1467	1097.7849	1113.6244	1141.6172	1157.2006	1191.9325	1203.3716	1210.7055	1235.8219	1238.9774	1275.3894	1289.3232	1308.1737	1321.3577	1363.3732	1379.7903	1475.0397	1486.1762	1497.6169	1507.9095	3033.6203	3051.2928	3073.795	3081.5172	3084.897	3088.2228	3126.8927	3137.7148	3146.2755	3153.3852
C1CC23CC(CO2)OC13	C1C[C@@]23C[C@@H](CO2)O[C@H]13	
InChI=1S/C7H10O2/c1-2-7-3-5(4-8-7)9-6(1)7/h5-6H,1-4H2	InChI=1S/C7H10O2/c1-2-7-3-5(4-8-7)9-6(1)7/h5-6H,1-4H2/t5-,6+,7-/m0/s1
