20
gdb 80984	2.45763	1.83559	1.34796	1.8595	79.32	-0.2095	0.0119	0.2214	1022.8854	0.17151	-403.120287	-403.112164	-403.11122	-403.152122	33.068	
C	-0.0669922168	 1.5215670977	-0.0132210659	-0.414168
C	 0.024103212	 0.0071059892	 0.0639486817	 0.035742
N	 1.1141289107	-0.5631051853	-0.8261955718	-0.127612
C	 2.0431568892	-0.4841983255	 0.3608823389	-0.246971
C	 0.7876971925	-0.6082773193	 1.2671651175	 0.376972
O	 0.6821365636	 0.0553859996	 2.49692163	-0.501174
C	 0.4276964249	-2.0857096761	 1.3050845981	-0.138554
C	 0.4453452375	-2.7553671708	 0.1534388202	-0.077215
C	 0.8148220527	-1.9839722227	-1.1020152963	-0.224082
H	 0.8954909106	 2.0085954731	 0.1612639543	 0.121121
H	-0.4221885179	 1.8201836754	-1.0043656643	 0.117344
H	-0.7708350126	 1.8933626511	 0.7375741362	 0.123518
H	-0.9590613151	-0.4358852108	-0.1250151042	 0.071144
H	 2.7967068424	-1.2739316892	 0.4185271788	 0.096091
H	 2.5241457603	 0.4957358462	 0.4011143398	 0.107716
H	 1.1671749483	-0.4461166608	 3.1613714956	 0.275522
H	 0.1559629942	-2.5325065741	 2.2575828514	 0.086643
H	 0.2023292746	-3.812011757	 0.0809218859	 0.092171
H	-0.0021069321	-2.0282071246	-1.834678171	 0.11386
H	 1.6873655609	-2.4354588263	-1.5929761649	 0.111931
185.9963	205.6202	224.9933	243.2376	278.125	347.6872	376.9853	443.3598	487.8867	504.7415	520.772	634.0656	692.8811	745.0401	804.841	824.5236	886.5359	907.6231	929.2286	960.7701	996.7924	1000.6916	1043.2649	1060.5475	1095.9335	1126.9858	1134.1182	1169.172	1197.5253	1221.3666	1261.2382	1272.5727	1284.5187	1344.688	1350.6141	1380.3045	1391.2209	1409.2889	1473.82	1486.3764	1491.4762	1509.7601	1693.4283	3011.788	3040.169	3042.7485	3049.6676	3058.1635	3112.4069	3113.8955	3124.7909	3152.4633	3177.3036	3799.9645
CC1N2CC1(O)C=CC2	C[C@H]1N2C[C@]1(O)C=CC2	
InChI=1S/C7H11NO/c1-6-7(9)3-2-4-8(6)5-7/h2-3,6,9H,4-5H2,1H3	InChI=1S/C7H11NO/c1-6-7(9)3-2-4-8(6)5-7/h2-3,6,9H,4-5H2,1H3/t6-,7-/m1/s1
