19
gdb 48197	2.08133	1.32053	0.8513	2.3814	82.66	-0.249	-0.0303	0.2187	1349.3974	0.156933	-385.852509	-385.843005	-385.842061	-385.887874	34.227	
O	 0.0294267031	 0.0227388401	 0.2695439146	-0.247325
C	 0.0342774156	 1.1834636699	-0.0403588457	 0.166668
C	 1.303277698	 2.0357596336	-0.1273499	-0.283514
C	 1.2545528833	 2.9002600901	-1.2997512756	 0.307259
C	 1.1699736898	 3.6171519575	-2.2612311428	-0.443531
C	 1.4349630832	 2.8504150745	 1.1795173786	 0.045593
C	 1.7001232137	 2.0840609848	 2.5054352192	-0.237155
C	 2.6841463279	 3.2158738911	 2.9088032291	-0.217674
C	 2.7454494546	 3.6497960915	 1.418470758	-0.229983
H	-0.9043495885	 1.7409430703	-0.2540347185	 0.091304
H	 2.149667509	 1.3418745618	-0.1938984328	 0.118957
H	 1.1151271299	 4.2453425389	-3.1158265827	 0.201839
H	 0.5655441479	 3.5091644617	 1.2781854823	 0.08474
H	 0.8461081323	 1.8877870571	 3.1571394699	 0.105705
H	 2.2167740554	 1.1372880566	 2.321480874	 0.114637
H	 2.2002575477	 3.9721187683	 3.5330146732	 0.106225
H	 3.6213484739	 2.921792484	 3.3857174335	 0.102905
H	 3.5903814033	 3.1896368681	 0.896801879	 0.10658
H	 2.73432745	 4.71674371	 1.1880525265	 0.106769
55.9932	66.5058	109.6511	115.9753	184.4769	219.8045	338.9213	364.3181	456.2426	499.6594	508.4971	631.8922	649.7985	656.9329	773.8059	785.7973	894.4188	933.6059	943.9054	960.6957	963.7258	1005.8289	1043.7162	1081.251	1093.049	1143.8123	1203.6364	1213.8521	1254.6794	1259.5692	1261.763	1277.7627	1292.9035	1303.1837	1364.3304	1416.8046	1478.3497	1486.5135	1508.9623	1832.7126	2233.4243	2891.3798	3039.6342	3052.509	3056.9277	3061.3341	3063.7563	3105.7934	3114.0443	3125.9345	3503.3754
O=CC(C#C)C1CCC1	O=C[C@@H](C#C)C1CCC1	
InChI=1S/C8H10O/c1-2-7(6-9)8-4-3-5-8/h1,6-8H,3-5H2	InChI=1S/C8H10O/c1-2-7(6-9)8-4-3-5-8/h1,6-8H,3-5H2/t7-/m1/s1
