18
gdb 105313	2.34029	1.50249	1.14321	2.5002	75.36	-0.2762	0.0244	0.3005	1123.9224	0.146793	-401.926647	-401.918063	-401.917118	-401.959836	32.145	
C	 0.0167577703	 1.5177796917	 0.1674365288	-0.398473
C	-0.0872844238	 0.0069759729	-0.0558297614	-0.243405
C	 0.7015677637	-0.4973154467	-1.274503116	 0.135526
C	 2.2902331993	-0.4428890301	-1.2017804345	-0.308863
C	 2.3056599798	-1.9690851308	-1.3263336917	 0.048173
O	 1.5300637619	-2.4913242526	-0.2371666962	-0.243896
C	 0.8417526744	-2.046163942	-1.3990763392	-0.018611
C	 0.2079135709	 0.0824484807	-2.5189298174	 0.247075
N	-0.1947150293	 0.5298984313	-3.5065906769	-0.346764
H	 1.054970307	 1.8298576528	 0.3225477022	 0.120506
H	-0.3770625347	 2.0755541715	-0.6876816868	 0.141314
H	-0.5535925801	 1.8123899451	 1.0528427131	 0.123347
H	 0.2943260529	-0.5383402897	 0.8121939595	 0.126453
H	-1.1384609404	-0.2794005568	-0.1796363332	 0.113504
H	 2.7294045056	 0.0745750257	-2.0555506399	 0.137344
H	 2.701121614	-0.0468953694	-0.2707524754	 0.124446
H	 3.0678364209	-2.6132743722	-1.7463880151	 0.11928
H	 0.1691476274	-2.7336461514	-1.8978980899	 0.123044
105.0799	135.1899	165.1077	178.2371	206.7606	277.674	366.1679	395.755	507.8891	541.9066	569.0599	623.723	781.6624	797.5731	842.5895	864.5338	887.9669	940.1393	964.1727	980.8526	1006.5125	1037.3597	1053.1591	1113.9752	1122.7095	1169.3041	1226.111	1236.925	1247.261	1269.7846	1322.4892	1354.545	1392.5215	1417.2344	1468.7234	1489.7584	1499.363	1507.1091	2347.5543	3038.1606	3041.3913	3078.8271	3090.0542	3110.223	3117.878	3144.6252	3191.2753	3207.8297
CCC1(CC2OC12)C#N	CC[C@]1(C[C@H]2O[C@@H]12)C#N	
InChI=1S/C7H9NO/c1-2-7(4-8)3-5-6(7)9-5/h5-6H,2-3H2,1H3	InChI=1S/C7H9NO/c1-2-7(4-8)3-5-6(7)9-5/h5-6H,2-3H2,1H3/t5-,6-,7+/m1/s1
