19
gdb 39339	2.86983	1.75838	1.31434	1.1991	73.75	-0.2319	0.0846	0.3165	991.3803	0.161878	-423.011074	-423.003845	-423.002901	-423.042781	28.623	
C	-0.0098301945	 1.4336453346	 0.0469498234	-0.422407
C	 1.3421711596	 0.7519925329	 0.0046689214	 0.084824
O	 2.0662406904	 0.5320134266	 1.1850698164	-0.258814
C	 1.2322467948	-0.1851677692	 2.1010201887	-0.118579
C	 0.1399611135	-0.8799081833	 1.2695466852	-0.101032
C	 0.4863031274	-2.2543713532	 0.6761767057	-0.083563
O	-0.2050152512	-2.3311769574	-0.5674994708	-0.263778
C	-0.3535652512	-1.0177901826	-1.1157193096	-0.16121
C	 0.0901775538	-0.0706948562	-0.0220382636	 0.28515
H	-0.3514735968	 1.8957306104	 0.9681014588	 0.117371
H	-0.3154265077	 1.9577524173	-0.8538158479	 0.118051
H	 1.9907053495	 0.8874510583	-0.8539050571	 0.10365
H	 1.8681008295	-0.8797210388	 2.6602651678	 0.113361
H	 0.7800830417	 0.5100912066	 2.8213925411	 0.101178
H	-0.8132649627	-0.9164087282	 1.8058648459	 0.082205
H	 1.5754280468	-2.3352209816	 0.5269056319	 0.096555
H	 0.1579649673	-3.0975110433	 1.2906233789	 0.10631
H	 0.2519372761	-0.9120909011	-2.0274963898	 0.097053
H	-1.4071803964	-0.8797679617	-1.3915064163	 0.103674
99.7316	175.0152	207.5853	291.8897	339.4119	424.0563	511.9754	568.2862	673.582	737.0093	779.5242	842.0825	843.0129	892.2164	926.9876	945.261	981.756	983.083	1025.8424	1030.1311	1049.2641	1077.3897	1088.7113	1110.7747	1131.4322	1165.9569	1196.0674	1227.7352	1246.5914	1253.206	1276.5555	1297.1353	1328.1744	1357.4735	1380.0965	1407.1375	1416.8652	1481.0477	1515.2621	1521.4607	1529.7651	2972.7421	2994.8651	3006.3927	3030.8294	3059.9475	3068.5476	3086.1434	3119.6604	3174.8904	3205.7382
C1C2OCC3COCC123	C1[C@H]2OC[C@@H]3COC[C@]123	
InChI=1S/C7H10O2/c1-6-7(1)4-8-2-5(7)3-9-6/h5-6H,1-4H2	InChI=1S/C7H10O2/c1-6-7(1)4-8-2-5(7)3-9-6/h5-6H,1-4H2/t5-,6+,7-/m0/s1
