13
gdb 24854	2.65365	1.76541	1.17183	3.8155	69.59	-0.2671	-0.11	0.1571	982.2217	0.091146	-448.954287	-448.947157	-448.946213	-448.986299	26.431	
N	 0.0536183325	 1.1720767387	 0.591398132	-0.49079
C	 0.0062064409	 0.018295054	 0.0624876447	 0.390429
N	-1.2321792559	-0.6131567156	-0.0860463017	-0.343815
C	-1.5364062672	-1.9644047894	-0.1469849837	 0.422557
O	-2.5734367554	-2.3655976117	-0.6112738658	-0.326933
N	-0.6395279465	-2.8614862169	 0.4900151073	-0.213259
C	 0.621935389	-2.8270771415	 0.3428340715	-0.007675
C	 1.4018731545	-1.8284958054	-0.4259437734	-0.014179
N	 1.1313642508	-0.5895972133	-0.5363524368	-0.217618
H	 0.9912913971	 1.5576894582	 0.4826902762	 0.23741
H	-2.0277897713	 0.0066688651	-0.1682158973	 0.280282
H	 1.207057987	-3.6099995272	 0.83420713	 0.141949
H	 2.3220447446	-2.185044395	-0.8954247431	 0.141641
88.926	104.554	256.0622	343.166	413.2905	420.9187	465.0985	535.5259	583.9302	692.6651	711.0986	745.8449	831.4455	843.4643	876.1111	910.5278	933.5651	952.0857	1028.4046	1132.7801	1271.5625	1362.0915	1410.5896	1418.9942	1428.0324	1698.4018	1714.2797	1733.9573	1815.1389	3084.7855	3105.2019	3502.841	3592.9687
N=C1NC(=O)N=CC=N1	[NH][C]1NC(=O)N=CC=N1	
InChI=1S/C4H4N4O/c5-3-6-1-2-7-4(9)8-3/h1-2H,(H2,5,8,9)	InChI=1S/C4H4N4O/c5-3-6-1-2-7-4(9)8-3/h1-2H,(H2,5,8,9)
