14
gdb 20427	6.26632	1.54406	1.31493	1.4844	63.72	-0.2237	0.0011	0.2248	891.6847	0.110218	-374.870201	-374.86371	-374.862766	-374.90152	23.748	
C	-0.0747337686	 1.3512723626	-0.239208976	-0.23243
C	 1.3116026594	 0.8861621557	 0.0430220757	-0.216839
N	 0.1967387235	-0.0509910463	 0.0980338614	-0.152105
C	-0.2043040922	-0.5382204712	 1.3419223337	 0.34147
N	 0.6407424169	-0.7577702904	 2.3519700992	-0.282142
N	-0.147109943	-1.286332588	 3.2884539837	-0.07201
N	-1.4264162223	-1.4261705617	 2.9808303434	-0.189153
C	-1.4934156127	-0.9562812276	 1.7363930867	-0.127027
H	-0.5604963053	 1.9638049063	 0.5163907679	 0.125894
H	-0.4026103998	 1.5251396596	-1.2594048531	 0.125066
H	 2.0089438665	 0.723239133	-0.772844794	 0.124558
H	 1.7608850185	 1.1798138998	 0.9869788931	 0.139192
H	 0.2188095314	-1.5793524436	 4.1788934583	 0.291634
H	-2.4219087624	-0.9369709782	 1.18980703	 0.12389
50.7554	174.2708	212.4455	402.4773	458.2186	492.9828	588.6805	711.9018	747.1849	819.6084	866.4094	905.7843	916.2153	989.6576	1025.3019	1040.3302	1116.592	1133.4152	1155.7793	1174.3862	1178.6448	1201.1217	1248.7732	1280.5111	1387.1125	1409.6217	1492.6625	1503.9597	1518.3209	1576.4385	3111.0916	3122.1688	3198.5216	3214.3635	3276.3847	3678.0335
C1CN1C1=NNN=C1	C1CN1c1n[nH]nc1	
InChI=1S/C4H6N4/c1-2-8(1)4-3-5-7-6-4/h3H,1-2H2,(H,5,6,7)	InChI=1S/C4H6N4/c1-2-8(1)4-3-5-7-6-4/h3H,1-2H2,(H,5,6,7)
