19
gdb 77280	1.88251	1.23767	0.88404	5.0852	77.73	-0.2474	-0.0311	0.2163	1361.783	0.156261	-423.030731	-423.020836	-423.019892	-423.067043	34.515	
C	-0.013056679	 1.5951025438	 0.2090163403	-0.413702
C	 0.10514458	 0.0882979127	 0.1014183068	-0.046408
C	 0.3777931875	-0.6380467297	-1.1790271138	-0.050406
C	 0.5720725223	 0.0641969521	-2.5135731035	-0.314663
C	 1.4464645971	-0.74458886	-3.4530692981	 0.174208
O	 2.3965533636	-0.3065949255	-4.0460456239	-0.23135
C	 1.4455990426	-0.6359701579	-0.0765455173	-0.124986
C	 2.7208134752	 0.1067215193	-0.2111137874	 0.160317
O	 3.7581035718	-0.2665159617	 0.2822879177	-0.267757
H	 0.6340880342	 2.1302695719	-0.4886633845	 0.126904
H	-1.0433128609	 1.907476224	 0.0078645684	 0.127216
H	 0.2448495483	 1.9294536048	 1.2187913593	 0.134125
H	-0.5606022897	-0.4355466801	 0.7826145023	 0.105695
H	-0.1191734145	-1.5999919145	-1.2804644277	 0.105096
H	-0.4122115034	 0.1726933397	-2.9931566393	 0.128341
H	 1.0043680282	 1.0618983608	-2.4252223628	 0.127848
H	 1.140691829	-1.8112897148	-3.5638382006	 0.076366
H	 1.5720006167	-1.5611934684	 0.4759754816	 0.108437
H	 2.6837013208	 1.0488806735	-0.7985674874	 0.074718
32.2916	64.9807	90.7511	136.7316	197.1061	225.3429	236.7377	277.1102	415.5257	419.711	468.7401	537.1745	551.1574	708.3284	772.4204	860.4784	905.8047	944.7444	965.4621	1018.2002	1034.986	1053.4476	1078.7061	1105.4618	1154.1009	1168.703	1187.8254	1226.1164	1257.6653	1291.1958	1343.7916	1390.2452	1423.3501	1429.7434	1435.1154	1453.0535	1469.1357	1496.8377	1508.7026	1807.9321	1839.4	2860.3809	2897.9845	3009.6094	3042.3867	3100.8395	3117.0571	3127.6919	3133.3339	3145.0194	3171.9087
CC1C(CC=O)C1C=O	C[C@H]1[C@@H](CC=O)[C@H]1C=O	
InChI=1S/C7H10O2/c1-5-6(2-3-8)7(5)4-9/h3-7H,2H2,1H3	InChI=1S/C7H10O2/c1-5-6(2-3-8)7(5)4-9/h3-7H,2H2,1H3/t5-,6+,7-/m0/s1
