16
gdb 70925	3.67318	1.58094	1.36017	2.5375	68.17	-0.2547	0.0033	0.258	934.2335	0.125475	-437.802093	-437.79538	-437.794436	-437.832788	27.611	
O	 0.0171340736	 1.3809159697	 0.0020531632	-0.460498
C	 0.0324973938	 0.007749436	 0.0176992193	 0.360274
C	 0.6272761626	-0.9792035662	-1.1325918124	-0.379523
C	-0.0259632847	-1.8325395373	-0.0381416144	 0.409096
C	 0.6553148838	-0.9496343772	 1.0554817837	-0.360118
O	-0.5221990245	-3.1174457112	 0.2858712425	-0.288387
C	-1.6556646888	-2.7494532687	 1.003302625	 0.086132
N	-2.0806517099	-1.5447302446	 0.9862074894	-0.296647
C	-1.2297233356	-0.906680121	-0.0401435871	-0.023122
H	 0.9062817519	 1.7050650357	 0.1836162448	 0.289868
H	 0.1303419878	-0.9426019718	-2.1033855332	 0.113969
H	 1.7158848728	-1.0013038685	-1.2165288715	 0.102942
H	 1.7464338478	-0.9929912234	 1.0982064333	 0.092215
H	 0.199297825	-0.9583423175	 2.0452757922	 0.121255
H	-2.1055050114	-3.569868683	 1.5512241128	 0.142514
H	-1.8054181841	-0.7989705708	-0.9656414676	 0.09003
207.1202	242.1684	288.3005	312.5548	422.4153	505.0356	514.1122	542.3573	598.5451	653.323	725.5722	755.7789	824.9688	880.9746	915.9492	953.5169	978.0733	1009.4226	1035.7512	1042.4723	1050.8842	1075.9398	1109.17	1123.0571	1134.1702	1158.7994	1221.923	1264.3394	1296.7411	1325.1145	1350.8699	1400.2443	1489.8227	1540.2657	1616.4697	3051.808	3066.3014	3071.7343	3144.8604	3150.5327	3219.1296	3806.4266
OC12CC3(C1)OC=NC23	O[C@@]12C[C@]3(C1)O[CH][N][C@@H]23	
InChI=1S/C6H7NO2/c8-5-1-6(2-5)4(5)7-3-9-6/h3-4,8H,1-2H2	InChI=1S/C6H7NO2/c8-5-1-6(2-5)4(5)7-3-9-6/h3-4,8H,1-2H2/t4-,5-,6+/m0/s1
