21
gdb 116779	3.11793	0.84982	0.81093	1.4742	82.32	-0.2451	0.0183	0.2635	1546.4747	0.18072	-420.369815	-420.359392	-420.358448	-420.406161	36.714	
C	-0.102373402	 0.9966542758	-0.5683676435	-0.251185
O	-0.4789722632	 0.0371138535	 0.4113191431	-0.194749
C	-1.2157093469	-0.9988968329	-0.0457429201	 0.120591
N	-1.5452340451	-1.9217771262	 0.744041703	-0.238702
C	-2.3702253911	-3.034258339	 0.2956839433	-0.212223
C	-2.6002128483	-3.2227433108	-1.1988826403	 0.320332
C	-1.4026843413	-3.6845108556	-2.0073671282	-0.443908
C	-3.9549524078	-3.644828785	-1.6401443795	-0.29294
N	-3.4944595779	-2.2661167715	-1.8939813182	-0.348942
H	 0.4239268787	 1.7897312611	-0.0357844684	 0.144629
H	 0.5692445062	 0.5626482334	-1.3193152007	 0.126898
H	-0.9773140989	 1.4239813361	-1.073601055	 0.127258
H	-1.4775383188	-0.927802465	-1.1092031556	 0.105271
H	-1.9188092374	-3.9501289391	 0.7004521841	 0.114287
H	-3.3421075442	-2.9414987778	 0.8014444574	 0.103497
H	-1.1152453069	-4.7008408944	-1.7162102574	 0.119131
H	-1.6415687265	-3.6823634448	-3.0736293913	 0.12661
H	-0.5327847545	-3.0392476968	-1.8529626946	 0.117888
H	-4.0626797664	-4.259913121	-2.5296341624	 0.1152
H	-4.7206504368	-3.8066211154	-0.885581367	 0.111375
H	-3.9235215011	-1.6436027547	-1.2121805388	 0.229683
41.7096	79.1686	105.8523	121.7936	176.0126	191.2327	237.9293	291.4477	335.0045	352.6127	388.8369	412.3537	490.4395	628.7101	737.3418	833.8381	906.061	910.8314	939.4263	985.7985	1014.076	1027.2101	1057.9173	1068.2088	1083.2557	1112.3184	1145.3157	1175.5157	1178.8755	1253.5898	1268.5644	1276.3906	1324.5379	1372.8241	1386.4947	1421.0452	1425.0855	1471.6252	1485.8137	1489.5033	1494.2762	1499.6639	1501.2922	1515.1739	1770.5303	3000.4625	3010.9865	3031.073	3038.4667	3042.5116	3074.6418	3101.5471	3104.1671	3124.1503	3143.0186	3188.0891	3482.3793
COC=NCC1(C)CN1	COC=NC[C@@]1(C)CN1	
InChI=1S/C6H12N2O/c1-6(4-8-6)3-7-5-9-2/h5,8H,3-4H2,1-2H3	InChI=1S/C6H12N2O/c1-6(4-8-6)3-7-5-9-2/h5,8H,3-4H2,1-2H3/t6-/m0/s1
