17
gdb 46323	3.07477	1.35194	1.20868	2.2262	68.85	-0.2384	-0.0347	0.2037	1072.2089	0.135745	-458.963198	-458.955229	-458.954284	-458.99663	29.186	
O	-0.2338878094	 0.2290019804	-0.7853138456	-0.291933
C	-0.1376121242	 1.2822800793	-0.2297081432	 0.337715
C	-1.0946689768	 2.1803377423	 0.5756710895	-0.349133
C	-0.0687122838	 3.3392012761	 0.4040660286	-0.300579
C	 1.000336583	 2.3371539502	-0.1315500843	 0.311968
C	 2.163222764	 1.941493766	 0.8111707418	-0.175122
O	 3.2716738686	 2.6273407174	 0.2521409231	-0.229233
C	 3.0535910747	 2.558889815	-1.1301420482	 0.010534
O	 1.6534201101	 2.7005313178	-1.3266687754	-0.292947
H	-2.0880698399	 2.3155037917	 0.1424085133	 0.138917
H	-1.2122825707	 1.8286084261	 1.6059863589	 0.133963
H	-0.3583082967	 4.040075208	-0.3808404922	 0.128543
H	 0.2041553422	 3.8947002438	 1.3026683272	 0.111225
H	 2.0297849275	 2.2695899868	 1.8432130674	 0.126676
H	 2.3215945711	 0.8526333394	 0.7859540334	 0.115833
H	 3.5782979955	 3.3850992265	-1.6179802634	 0.124258
H	 3.3884040047	 1.5910121131	-1.5406804009	 0.099315
53.6182	78.5437	154.3544	250.8567	265.0295	338.1229	422.3682	508.9887	591.0759	684.1314	743.7223	749.7323	791.3832	863.4958	916.1073	937.0131	975.0252	1021.8304	1026.0485	1056.6642	1094.488	1121.965	1151.2137	1173.2323	1186.8534	1205.6632	1216.7561	1231.2741	1270.1526	1286.0431	1358.8874	1428.0251	1439.8858	1481.1474	1508.0245	1543.9933	1893.9216	2960.0821	2993.5964	3059.7315	3082.0385	3091.206	3117.1298	3119.9886	3141.899
O=C1CCC11COCO1	O=C1CC[C@]21COCO2	
InChI=1S/C6H8O3/c7-5-1-2-6(5)3-8-4-9-6/h1-4H2	InChI=1S/C6H8O3/c7-5-1-2-6(5)3-8-4-9-6/h1-4H2/t6-/m1/s1
