19
gdb 9358	7.02464	0.72397	0.68556	4.3527	70.19	-0.2431	0.0368	0.2799	1640.4988	0.163815	-402.228711	-402.218494	-402.217549	-402.265487	34.185	
C	 0.0003988788	 1.4465697566	-0.1381299164	-0.332871
N	-0.1545305598	 0.009350105	-0.2456318198	-0.313245
C	-1.1679826538	-0.6700590811	 0.3678052466	 0.418619
O	-2.0261395142	-0.119512641	 1.0351778489	-0.374853
C	-1.1339921544	-2.1858122692	 0.1765988728	-0.322571
C	-2.5379449052	-2.7663112159	-0.0139677777	-0.151777
C	-2.548980405	-4.2883092225	 0.0035085272	-0.075928
O	-3.8847618574	-4.7155053099	-0.2108497647	-0.419566
H	 0.9509316056	 1.7134221252	 0.3378193284	 0.123491
H	-0.0456136024	 1.9281875673	-1.1213360369	 0.124118
H	-0.8217473402	 1.8136419667	 0.4772098432	 0.172722
H	 0.5152123175	-0.5105870619	-0.7868655397	 0.242885
H	-0.4778040115	-2.4621210394	-0.6578832539	 0.089639
H	-0.6803865378	-2.6083501143	 1.0838687928	 0.126886
H	-3.1877550364	-2.3844387366	 0.7778149777	 0.138157
H	-2.9628557972	-2.4226688307	-0.9640658799	 0.108388
H	-1.8761656262	-4.6801528788	-0.7785008138	 0.077513
H	-2.1631206175	-4.650065869	 0.9715260743	 0.083462
H	-3.9014490529	-5.6765069205	-0.1870291591	 0.284932
27.0011	75.136	83.369	100.5268	133.7603	171.7595	258.3426	278.0345	295.708	375.5735	442.7625	496.9168	633.4791	721.1488	767.7213	870.6738	898.2971	1022.9867	1037.4047	1071.7266	1087.634	1118.6273	1154.6235	1170.5539	1204.713	1218.3682	1252.0033	1292.6411	1304.4212	1331.1223	1389.2054	1437.5764	1465.2226	1467.577	1492.3397	1500.0938	1500.7596	1528.4034	1558.3665	1778.82	2948.8286	2973.4655	3014.7096	3025.3634	3046.823	3056.0376	3076.3343	3111.1444	3153.5797	3653.6655	3831.0505
CNC(=O)CCCO	CNC(=O)CCCO	
InChI=1S/C5H11NO2/c1-6-5(8)3-2-4-7/h7H,2-4H2,1H3,(H,6,8)	InChI=1S/C5H11NO2/c1-6-5(8)3-2-4-7/h7H,2-4H2,1H3,(H,6,8)
