20
gdb 5884	3.95685	0.89165	0.86328	1.6834	80.77	-0.2467	0.0465	0.2932	1475.6086	0.173472	-348.989996	-348.979558	-348.978614	-349.026049	37.131	
C	 0.0361283794	 1.5598782644	-0.0616681851	-0.362562
C	-0.0053728985	 0.0235502843	 0.0309923254	-0.315065
C	-1.3627651942	-0.5132361388	 0.049611694	-0.003041
C	-2.4957738074	-0.9244331507	 0.0722715657	 0.10107
C	-3.8721575819	-1.4466242157	 0.0580710968	 0.178089
C	-3.8507740297	-2.9850532123	-0.0181845487	-0.396348
C	-4.647860651	-0.9704716669	 1.293457534	-0.382773
O	-4.5922818012	-0.9152700285	-1.0636855289	-0.44339
H	 1.0713660874	 1.913782687	-0.0723631481	 0.11387
H	-0.4569961616	 1.9073839113	-0.9734760425	 0.128441
H	-0.4757190662	 2.013842657	 0.791055255	 0.129459
H	 0.5477151199	-0.410204485	-0.8121859326	 0.127254
H	 0.5240612239	-0.3035291478	 0.935239712	 0.130075
H	-3.3466787309	-3.4163129381	 0.8515572988	 0.1201
H	-4.8770331508	-3.3610224546	-0.0607778847	 0.119557
H	-3.318965739	-3.3162345123	-0.9155193617	 0.110468
H	-4.6652747932	 0.1208720853	 1.3263225837	 0.128644
H	-5.6772814893	-1.3362181876	 1.23810208	 0.119635
H	-4.1839916986	-1.3456022946	 2.2088222049	 0.118265
H	-4.046541327	-1.0514034164	-1.8456190481	 0.278253
23.7777	83.908	106.6583	187.3659	214.1043	222.7116	264.6555	282.2198	321.2651	361.2206	368.0526	393.4378	482.6758	560.4037	583.8144	639.869	785.3767	844.2118	927.91	933.6196	963.4679	1016.7282	1066.2076	1097.2887	1103.9656	1128.1157	1191.3109	1250.0629	1285.9219	1349.2542	1367.1307	1390.6446	1408.6177	1411.2572	1474.9974	1475.8321	1478.8058	1492.772	1494.2296	1503.5986	1505.4768	2355.9998	3019.122	3036.6753	3044.7236	3045.8318	3049.5975	3111.5472	3118.0321	3119.5057	3124.7582	3127.7311	3138.017	3811.0734
CCC#CC(C)(C)O	CCC#CC(C)(C)O	
InChI=1S/C7H12O/c1-4-5-6-7(2,3)8/h8H,4H2,1-3H3	InChI=1S/C7H12O/c1-4-5-6-7(2,3)8/h8H,4H2,1-3H3
