17
gdb 97295	5.5403	0.89332	0.87975	3.0299	79.28	-0.2347	-0.0091	0.2256	1353.6757	0.134675	-417.937938	-417.929696	-417.928751	-417.971033	30.489	
C	-0.4658268062	 1.2445663702	-0.2548628865	-0.312849
N	-0.1515369807	-0.156212183	-0.0600298687	-0.194334
C	 0.7458739162	-0.6651590666	-0.7963052548	 0.053255
N	 1.2535020263	-1.9453167612	-0.5970117408	-0.11491
C	 0.3750897314	-3.0247638604	 0.0046806513	-0.145688
C	-0.3081876742	-3.2004129979	-1.3968081835	-0.234363
C	 1.2077653226	-2.9878965218	-1.7105082839	-0.171889
C	 1.4499028854	-3.9926830443	-0.5522647481	 0.48863
O	 2.0493149891	-4.9790283558	-0.2863639169	-0.304454
H	 0.0864066554	 1.7138238898	-1.0853364697	 0.097278
H	-1.5394988519	 1.3584385144	-0.4440089523	 0.12472
H	-0.2457924504	 1.8047027714	 0.6618665532	 0.128911
H	 1.275167459	-0.1196494299	-1.5922218129	 0.08666
H	-0.0778082398	-2.9201792298	 0.985051073	 0.127168
H	-0.7572192774	-4.1667743079	-1.6393537165	 0.120584
H	-0.9449865638	-2.3598102633	-1.6697465708	 0.139661
H	 1.7129881888	-2.847322014	-2.6633513921	 0.111621
90.4281	125.989	147.2386	191.6628	218.5308	352.8072	379.4088	435.9464	491.459	631.2104	688.7566	749.1644	768.88	824.0535	846.9881	886.3043	957.0159	988.7038	995.0762	1030.0479	1044.8864	1107.8676	1123.6101	1138.2308	1145.9122	1160.7325	1194.2005	1205.493	1213.2685	1309.3828	1388.6748	1444.3954	1478.7467	1491.0287	1501.6926	1732.6867	1952.7962	2969.0408	3005.9231	3055.762	3071.6899	3073.5118	3154.5531	3162.4568	3189.1057
CN=CN1C2CC1C2=O	CN=CN1[C@H]2C[C@@H]1C2=O	
InChI=1S/C6H8N2O/c1-7-3-8-4-2-5(8)6(4)9/h3-5H,2H2,1H3	InChI=1S/C6H8N2O/c1-7-3-8-4-2-5(8)6(4)9/h3-5H,2H2,1H3/t4-,5+
