15
gdb 29089	3.04989	1.45018	0.98892	5.7779	73.57	-0.2183	-0.0407	0.1777	1135.7986	0.113173	-453.992886	-453.984872	-453.983928	-454.025671	29.86	
C	-0.2739316615	 1.5154607652	 0.0681890219	-0.491862
C	 0.0199393305	 0.0535303734	-0.047342037	 0.292978
C	 0.1500539806	-0.6045461544	-1.2002558144	-0.060047
O	 0.4202396093	-1.948961748	-1.2665240506	-0.239869
C	 0.5744503633	-2.7058043806	-0.1272837094	 0.281561
N	 0.8226316886	-3.9416146101	-0.179298903	-0.467133
C	 0.4381695598	-2.0146302081	 1.2191953879	 0.366245
O	 0.5572332314	-2.5967223645	 2.2709078667	-0.329447
N	 0.1672068959	-0.6676234118	 1.141654076	-0.412509
H	 0.5235835538	 2.0395039422	 0.6087950477	 0.141447
H	-0.3659048648	 1.9670941557	-0.9211784833	 0.145749
H	-1.2107946527	 1.690742476	 0.610842345	 0.141476
H	 0.0581111589	-0.1564618043	-2.1775501857	 0.137427
H	 0.8827327998	-4.250026157	-1.1520080566	 0.232
H	 0.074903877	-0.1996753237	 2.0321775747	 0.261983
72.6415	129.2066	189.5927	285.0078	302.8538	355.1189	411.7361	451.8785	524.7911	557.2717	579.0694	621.9209	651.8117	779.0595	796.7775	799.1106	910.0801	977.6193	1034.228	1041.553	1069.3882	1171.7303	1235.7217	1247.9705	1345.3854	1380.0183	1422.5399	1471.7327	1474.5203	1499.9681	1736.0586	1756.8564	1817.6765	3024.5309	3074.2617	3135.0859	3257.8972	3472.8165	3611.8992
CC1=COC(=N)C(=O)N1	CC1=CO[C]([NH])C(=O)N1	
InChI=1S/C5H6N2O2/c1-3-2-9-4(6)5(8)7-3/h2,6H,1H3,(H,7,8)	InChI=1S/C5H6N2O2/c1-3-2-9-4(6)5(8)7-3/h2,6H,1H3,(H,7,8)
