18
gdb 83441	3.1691	1.33207	1.12981	2.3793	71.7	-0.2211	0.0563	0.2773	1112.6899	0.147039	-438.98864	-438.980554	-438.97961	-439.021402	31.07	
O	 0.0086477156	 1.3793291578	-0.0653251225	-0.441267
C	-0.0430355201	-0.0088208708	 0.0385962014	 0.080719
C	-0.4617035328	-0.687393472	 1.3086433614	-0.048509
O	-1.4554341261	 0.1320028632	 1.940956952	-0.303937
C	-2.3669275776	-0.0398485323	 0.8147428511	-0.141885
C	-1.3222456563	-0.8118920812	 0.023255412	 0.24917
N	-1.6634634946	-1.8143339691	-0.9173842003	-0.157902
C	-0.7429071907	-2.9266630862	-1.1204981282	-0.231323
C	-2.0355601307	-3.137797324	-0.412680092	-0.228813
H	-0.3418707709	 1.7206637554	 0.7686496688	 0.2961
H	 0.776261498	-0.4906648091	-0.4902329344	 0.106119
H	 0.1276807443	-1.3421946133	 1.9414301881	 0.104424
H	-3.2266431919	-0.6476238951	 1.1145873161	 0.116173
H	-2.7020621354	 0.9150365841	 0.3967754091	 0.118299
H	-0.6137968957	-3.2468768794	-2.1498115951	 0.12548
H	 0.1604619331	-2.9651700658	-0.5145499082	 0.11538
H	-1.9889584199	-3.300539655	 0.6621541685	 0.119084
H	-2.870078798	-3.6130554271	-0.9186997578	 0.122689
76.4987	151.3865	186.4256	224.9186	252.2331	347.3348	423.722	452.4358	530.63	567.5032	655.5077	779.6232	803.7164	848.6313	863.7073	899.4513	927.5769	948.4283	977.0501	1010.7713	1030.3401	1054.2122	1076.7649	1113.2789	1125.2467	1135.5136	1159.7244	1173.2304	1176.5119	1214.6751	1226.2416	1288.3448	1314.264	1339.0235	1400.7867	1474.1554	1486.7591	1511.5299	1514.2661	3039.9907	3095.032	3100.3789	3105.6921	3145.8098	3170.6026	3186.2896	3201.4201	3755.1689
OC1C2OCC12N1CC1	O[C@H]1[C@H]2OC[C@@]12N1CC1	
InChI=1S/C6H9NO2/c8-4-5-6(4,3-9-5)7-1-2-7/h4-5,8H,1-3H2	InChI=1S/C6H9NO2/c8-4-5-6(4,3-9-5)7-1-2-7/h4-5,8H,1-3H2/t4-,5+,6+/m0/s1
