23
gdb 60490	5.80767	0.48875	0.4678	2.8235	85.14	-0.2537	-0.0254	0.2284	2357.236	0.201743	-425.436047	-425.424564	-425.423619	-425.474592	39.253	
C	 0.0427544796	 1.514446783	 0.0760496346	-0.393203
C	-0.0005656574	-0.0181958634	 0.0457352069	 0.019811
C	 0.7283990054	-0.6294784808	 1.2485143869	-0.379789
C	-1.4479307134	-0.5018670636	-0.03064661	-0.042818
O	-1.461923719	-1.9082736991	-0.1877199635	-0.247635
C	-2.7582838656	-2.453168323	-0.2349896869	-0.058665
C	-2.6332604865	-3.9631657084	-0.4413762534	-0.2809
C	-3.9559429796	-4.672819162	-0.2674521212	 0.153675
O	-4.4616325955	-5.4007821094	-1.0814973688	-0.232701
H	 1.0762021421	 1.8733473366	 0.1007287592	 0.116573
H	-0.4424152444	 1.9512064411	-0.8033604256	 0.112446
H	-0.4629306672	 1.9059697574	 0.96693461	 0.11382
H	 0.496193813	-0.3635273087	-0.8707849935	 0.084584
H	 0.2806916946	-0.2876227377	 2.1899361387	 0.106573
H	 0.6720484436	-1.7200846312	 1.2241852787	 0.12743
H	 1.7832151753	-0.3370750373	 1.2573980047	 0.109337
H	-1.9919778017	-0.2165314987	 0.887786024	 0.081699
H	-1.9675042912	-0.0226689195	-0.8776067292	 0.084714
H	-3.3029598846	-2.2390074229	 0.7017761737	 0.089424
H	-3.3410400795	-2.002733121	-1.0557864878	 0.100774
H	-2.2216376263	-4.1967225406	-1.4257601467	 0.130815
H	-1.9437293827	-4.3453349391	 0.3244336062	 0.131587
H	-4.456544239	-4.4756952617	 0.7104288027	 0.072449
36.5857	49.3976	66.9109	97.161	126.9302	155.1826	212.5371	224.8634	243.7141	276.3493	354.6379	392.5401	440.1242	504.7393	537.9604	788.9097	833.1477	872.8566	923.037	931.6278	961.8644	976.4699	997.1131	1032.1851	1106.5572	1138.0537	1159.4866	1159.9804	1191.3041	1200.5102	1229.9508	1275.0434	1277.6859	1306.968	1329.8955	1374.2448	1394.7724	1398.4906	1417.2609	1431.5067	1451.4779	1467.2367	1489.0382	1489.509	1502.4978	1509.5147	1512.909	1534.7462	1838.5624	2848.9329	2938.3731	2950.2942	2975.8321	2979.9396	3021.2228	3025.2795	3026.8591	3031.13	3089.169	3094.9489	3104.4283	3118.3578	3125.915
CC(C)COCCC=O	CC(C)COCCC=O	
InChI=1S/C7H14O2/c1-7(2)6-9-5-3-4-8/h4,7H,3,5-6H2,1-2H3	InChI=1S/C7H14O2/c1-7(2)6-9-5-3-4-8/h4,7H,3,5-6H2,1-2H3
