12
gdb 5179	7.54259	1.25057	1.11834	3.6474	57.93	-0.2348	-0.0143	0.2206	983.0647	0.083633	-418.51665	-418.509908	-418.508964	-418.548982	23.451	
O	-0.10680029	 0.0478119322	 0.1009109792	-0.241411
C	 0.0738822006	 1.1961485478	-0.1383716692	 0.163688
O	 0.9122448507	 1.9681472903	 0.631972762	-0.214784
C	 0.9954999533	 3.2870151684	 0.331279036	 0.416497
C	 2.035658387	 4.05822644	-0.0685506538	-0.291823
C	 1.510984348	 5.3936937114	-0.1311697453	-0.161484
C	 0.205809775	 5.314050769	 0.2293562524	-0.010315
O	-0.1277927828	 4.0202683445	 0.5228057841	-0.167845
H	-0.3752326108	 1.7704136991	-0.9656743015	 0.110627
H	 3.0355711949	 3.7207213645	-0.2845105447	 0.129018
H	 2.0444112085	 6.2880467283	-0.4117084393	 0.122392
H	-0.5918201744	 6.0307242644	 0.3248831602	 0.145438
30.4355	126.5356	146.2607	373.1779	446.4385	492.0234	615.8927	669.1934	737.6479	804.7994	824.629	857.114	897.9098	973.5664	1031.6552	1032.7965	1088.4883	1099.81	1183.5773	1249.0976	1270.9937	1406.9089	1422.3298	1545.5989	1650.6267	1890.7537	3008.5258	3260.2432	3277.8481	3295.8703
O=COC1=CC=CO1	O=COc1ccco1	
InChI=1S/C5H4O3/c6-4-8-5-2-1-3-7-5/h1-4H	InChI=1S/C5H4O3/c6-4-8-5-2-1-3-7-5/h1-4H
