17
gdb 57151	2.64383	0.91444	0.73334	3.9459	79.51	-0.2667	-0.0624	0.2043	1526.1935	0.132982	-421.779087	-421.769323	-421.768379	-421.815657	33.082	
C	 0.220532117	 1.5458937571	 0.0925888456	-0.387533
C	 0.0079142736	 0.0218302311	-0.0483770172	-0.211591
C	 0.6733796271	-0.4985475713	-1.2371691085	 0.13825
C	 1.2178226697	-0.9320548608	-2.2248505463	 0.006144
C	 1.8593664828	-1.4346782033	-3.4118458109	 0.018324
O	 2.4051555451	-2.5117623549	-3.4896508933	-0.228891
C	 0.4406525164	-0.6875531274	 1.2333851395	 0.102558
C	 1.1217060079	-1.9849255414	 1.2738473702	-0.18975
O	 1.8382844983	-0.760732996	 1.4832972486	-0.230387
H	 1.2805246406	 1.7619862422	 0.2452267764	 0.151157
H	-0.1206746573	 2.0716821501	-0.8018964415	 0.130264
H	-0.3386856985	 1.9235299813	 0.953808045	 0.122742
H	-1.0693610331	-0.1670703818	-0.1694535182	 0.123096
H	 1.816692841	-0.7447730867	-4.2790878626	 0.0992
H	-0.1552430922	-0.3915590322	 2.0994582737	 0.097561
H	 1.013569696	-2.6161509222	 2.1543821489	 0.11826
H	 1.3520864455	-2.4997590738	 0.3443782307	 0.140596
33.3335	58.4189	74.4126	130.407	189.624	226.2678	247.9619	252.5827	380.9556	431.7605	525.1013	552.1809	685.6232	734.1967	821.0689	870.0508	938.1087	988.9943	1013.1465	1022.2875	1070.1399	1084.8978	1113.2566	1165.5243	1170.4072	1191.6376	1290.0175	1293.0843	1344.1045	1402.0516	1422.6767	1428.4155	1492.1413	1502.2512	1525.2098	1766.0954	2327.3894	2919.4968	3001.7615	3048.5519	3086.4569	3096.8012	3124.0377	3138.5294	3190.7935
CC(C#CC=O)C1CO1	C[C@@H](C#CC=O)[C@H]1CO1	
InChI=1S/C7H8O2/c1-6(3-2-4-8)7-5-9-7/h4,6-7H,5H2,1H3	InChI=1S/C7H8O2/c1-6(3-2-4-8)7-5-9-7/h4,6-7H,5H2,1H3/t6-,7+/m0/s1
