18
gdb 7978	3.30224	1.8292	1.3303	1.5771	68.94	-0.2189	0.059	0.2779	963.2006	0.154768	-381.158262	-381.150079	-381.149135	-381.190627	31.002	
C	-0.4837201955	 1.5146806338	-0.0137985587	-0.407435
C	 0.1079039784	 0.1189410533	-0.0831328948	 0.107391
O	 1.2231042561	 0.1178710933	-1.0152502641	-0.265299
C	 2.1496993135	-0.7035408577	-0.4528558527	 0.460151
N	 3.250372295	-0.9137412664	-1.2405570902	-0.579239
N	 1.960074752	-1.1502723385	 0.7265831997	-0.354767
C	 0.730860889	-0.5013542425	 1.2103665267	 0.014371
C	 1.055581688	 0.4808302217	 2.3401702664	-0.384066
H	 0.2446917024	 2.2392004893	 0.3581454253	 0.129882
H	-0.8132690127	 1.8368311249	-1.0056433051	 0.12524
H	-1.3532499881	 1.5233562926	 0.6507089542	 0.121886
H	-0.6386117269	-0.5747009292	-0.4918489952	 0.08345
H	 3.078202167	-0.8921062721	-2.2339316606	 0.259395
H	 3.8311379053	-1.6765102203	-0.9287917426	 0.265618
H	 0.0498975013	-1.2637750053	 1.6064403577	 0.074236
H	 1.7287254671	 1.2729487079	 1.9976669171	 0.11829
H	 0.1510812969	 0.9436297438	 2.7485406472	 0.10447
H	 1.5607341012	-0.0570942686	 3.1465873997	 0.126427
68.005	166.4036	233.9887	257.6604	268.7151	299.6398	397.7279	430.0411	469.4061	492.0305	560.4184	679.4443	724.8626	737.7839	764.4622	887.1426	927.2064	981.7312	1004.4192	1041.7923	1088.5265	1092.3116	1156.0825	1165.679	1193.9757	1287.1112	1336.0048	1359.969	1380.0262	1405.1899	1413.934	1442.1554	1478.3387	1490.121	1496.4699	1505.8879	1617.2311	1751.4132	3007.6079	3032.6131	3035.7239	3047.0362	3106.4065	3115.0216	3119.6947	3129.7879	3587.3551	3700.8816
CC1OC(N)=NC1C	C[C@H]1O[C](N)[N][C@H]1C	
InChI=1S/C5H10N2O/c1-3-4(2)8-5(6)7-3/h3-4H,1-2H3,(H2,6,7)	InChI=1S/C5H10N2O/c1-3-4(2)8-5(6)7-3/h3-4H,1-2H3,(H2,6,7)/t3-,4+/m0/s1
