20
gdb 56184	2.84956	1.09025	1.05595	6.1692	74.92	-0.2423	0.0296	0.2719	1251.9894	0.171535	-440.30815	-440.299112	-440.298168	-440.342035	34.575	
N	-0.4707995733	 0.812703996	 0.0236905553	-0.571923
H	-0.5505612498	-0.1763618656	 0.2404081161	 0.243287
H	 0.4568056409	 0.9513099638	-0.3711468412	 0.239857
H	-2.0711657211	 1.411648677	-0.7352755172	 0.312321
C	-0.6428316182	 1.616877508	 1.231005114	 0.330498
C	-0.5513377035	 3.1113203078	 0.9572264975	-0.256584
C	-1.2863636749	 3.606561167	-0.310098705	-0.332999
C	-2.7489542369	 3.173166914	-0.4174820183	 0.403022
O	-3.6762117362	 3.9209738184	-0.247018408	-0.332397
O	-2.9384697567	 1.8815057298	-0.739002591	-0.378085
C	-1.6430532254	 1.1049252235	 2.2272870313	-0.279956
C	-0.1657123045	 1.1039969589	 2.5697795938	-0.324051
H	-0.935720569	 3.6444350586	 1.83265798	 0.122022
H	 0.5043396703	 3.3997926261	 0.8627579127	 0.103114
H	-1.2727545336	 4.6978776342	-0.323019673	 0.128522
H	-0.7541165206	 3.2551933933	-1.2009391394	 0.113173
H	-2.2920625576	 1.8213587174	 2.7180573023	 0.134272
H	-2.120296843	 0.1515005692	 2.0244395001	 0.118885
H	 0.3473797851	 0.1478283159	 2.5930945058	 0.108007
H	 0.1954832179	 1.8195046866	 3.3013912543	 0.119013
65.5071	112.4818	146.9494	204.6812	252.2015	327.952	343.8239	373.3924	423.5863	454.4691	504.9042	587.713	701.0465	747.5256	772.424	809.3603	864.0945	870.689	899.5079	937.3852	969.1683	977.307	1007.8044	1019.1446	1044.5469	1055.005	1084.7992	1145.0015	1172.0205	1185.4075	1224.7394	1284.2616	1324.6884	1342.7479	1377.4923	1414.3144	1458.2799	1466.068	1481.8924	1491.4747	1507.1268	1650.1268	1858.1219	3016.4606	3048.307	3077.7624	3120.1297	3125.3025	3134.6766	3206.2215	3222.432	3363.5433	3476.4976	3562.41
[NH3+]C1(CCC([O-])=O)CC1	NC1(CCC(=O)O)CC1	
InChI=1S/C6H11NO2/c7-6(3-4-6)2-1-5(8)9/h1-4,7H2,(H,8,9)	InChI=1S/C6H11NO2/c7-6(3-4-6)2-1-5(8)9/h1-4,7H2,(H,8,9)
