17
gdb 38221	3.28283	1.81078	1.45751	1.3124	72.21	-0.2469	0.0174	0.2642	904.4537	0.139528	-417.934357	-417.928009	-417.927064	-417.964848	26.333	
C	-0.0386235103	 1.6014982047	 0.0971163726	-0.235427
C	 1.4444805663	 1.1995548453	-0.0017650987	-0.082631
N	 1.129541769	 0.0969273143	 1.0181057466	-0.378733
C	 0.0131723693	 0.0464281702	-0.0209775734	 0.292598
C	-1.1233136042	-0.8786495314	-0.333078925	-0.297285
N	-1.486613149	-0.6725310728	-1.7475230199	-0.269307
C	-0.7428202027	-0.0329636499	-2.5478910224	 0.129136
O	 0.4912725112	 0.5471726157	-2.3740141743	-0.245484
C	 1.0598234402	 0.1888218806	-1.119011883	 0.106221
H	-0.3562682406	 1.9767037891	 1.0697342931	 0.110208
H	-0.460172729	 2.1542982066	-0.7405620013	 0.118155
H	 2.3355674494	 1.8195427898	 0.0948387958	 0.090422
H	 1.7656084447	-0.6959249801	 0.8683482987	 0.207389
H	-0.8433009958	-1.9303855895	-0.1912353345	 0.121449
H	-2.0155707263	-0.7009710726	 0.2757401579	 0.124755
H	-1.0678664173	 0.1309448529	-3.5735763664	 0.127874
H	 1.7516173951	-0.6493563127	-1.2604958858	 0.080662
152.6278	281.2131	332.7011	393.7383	451.9555	503.7472	566.1296	604.6152	675.4011	759.0774	812.6433	880.5876	898.5171	919.083	946.5922	957.3549	970.9018	977.7307	1040.6707	1048.7227	1065.5603	1094.1781	1114.3513	1149.5432	1181.1691	1201.623	1207.6928	1221.8725	1287.4069	1307.8169	1327.9787	1362.1214	1391.3455	1408.4257	1481.0588	1498.3454	1710.0912	3028.3684	3047.3699	3072.281	3096.8756	3121.5072	3160.5774	3176.8319	3357.1035
C1C2NC11CN=COC21	C1[C@H]2N[C@]31CN=CO[C@@H]23	
InChI=1S/C6H8N2O/c1-4-5-6(1,8-4)2-7-3-9-5/h3-5,8H,1-2H2	InChI=1S/C6H8N2O/c1-4-5-6(1,8-4)2-7-3-9-5/h3-5,8H,1-2H2/t4-,5+,6-/m1/s1
