21
gdb 40530	4.35215	1.02715	0.96242	0.334	90.06	-0.2061	0.0272	0.2333	1314.638	0.184466	-349.943388	-349.935482	-349.934538	-349.976103	31.808	
C	-0.1076645126	 1.4462030997	-0.171607096	-0.272147
C	 1.2893901357	 0.9748512136	 0.1110337963	-0.271757
C	 0.1484080505	-0.028320088	 0.0869661177	-0.085677
C	-0.332838487	-0.7012341474	 1.3086811028	 0.347479
C	-0.7137585691	-1.9842652832	 1.3957854835	-0.209866
C	-1.0651990272	-2.3850516597	 2.7865560419	-0.061825
C	 0.0737454977	-2.3025772959	 3.7866648833	-0.276544
C	-0.857672975	-1.1300000469	 3.6181613821	-0.037419
C	-0.4558854729	-0.0093500641	 2.6613865448	-0.337914
H	-0.6165673394	 2.0141796737	 0.5989846033	 0.115631
H	-0.3637821007	 1.7424633334	-1.1827102409	 0.112913
H	 2.0025123971	 0.9401860808	-0.7051966372	 0.113484
H	 1.7266531599	 1.2244360517	 1.0711672357	 0.11485
H	 0.1196044627	-0.6616957513	-0.7950169722	 0.080177
H	-0.725091596	-2.6797587085	 0.5632265685	 0.081584
H	-1.8773638448	-3.0802299116	 2.9701273901	 0.080823
H	-0.0198770118	-2.8704681257	 4.7071176029	 0.104529
H	 1.0840633549	-2.2372098663	 3.3945058087	 0.107506
H	-1.5212208216	-0.8930476876	 4.4413407279	 0.081382
H	 0.476800922	 0.4822143378	 2.9671421059	 0.107507
H	-1.2222866124	 0.7773087954	 2.6314515008	 0.105284
59.2903	127.582	185.2148	267.7787	337.3471	391.4022	478.246	521.1109	573.7654	689.4879	783.2507	788.9773	810.6226	821.6627	833.3919	842.5696	893.112	909.8981	922.8959	945.3721	988.693	1021.5516	1033.5698	1056.3422	1057.0619	1072.2408	1075.8704	1093.7763	1104.9093	1134.0393	1185.0874	1193.14	1201.9301	1210.5034	1242.5466	1283.1006	1327.2104	1358.7551	1377.5913	1399.4188	1466.5133	1472.6501	1483.6534	1500.0902	1689.1066	3009.1603	3038.9621	3118.0617	3134.5911	3138.5875	3146.2677	3161.8281	3176.2001	3186.094	3207.4771	3213.0062	3228.7257
C1CC1C1=CC2CC2C1	C1CC1C1=C[C@H]2C[C@H]2C1	
InChI=1S/C9H12/c1-2-6(1)7-3-8-5-9(8)4-7/h3,6,8-9H,1-2,4-5H2	InChI=1S/C9H12/c1-2-6(1)7-3-8-5-9(8)4-7/h3,6,8-9H,1-2,4-5H2/t8-,9+/m0/s1
