20
gdb 86817	4.1149	0.83444	0.78121	5.5112	76.32	-0.243	0.021	0.264	1508.1145	0.17078	-440.302072	-440.292932	-440.291988	-440.336823	33.433	
C	-0.1839294299	 1.5634925896	-0.1092773382	-0.395266
C	-0.0999895458	 0.042373078	-0.1457302488	 0.009508
C	 1.1693574777	-0.5270969807	-0.8369768915	-0.178048
N	 1.7792468518	-0.7300974603	 0.498518472	-0.104497
H	 3.106850255	 0.0985585867	 1.6411830504	 0.298085
C	 2.6035189438	-1.8954662987	 0.7559587752	-0.306972
C	 3.5205945609	-1.6781352965	 1.9697650758	 0.414605
O	 3.6787359217	-0.3810780715	 2.2785958972	-0.361835
O	 4.0625171096	-2.5691776556	 2.5629853723	-0.331608
C	 0.4485681267	-0.6165654843	 1.1482610969	-0.183494
H	 0.7542128699	 2.0007537902	 0.2487324925	 0.124135
H	-0.3856652912	 1.9700402955	-1.1058590588	 0.120704
H	-0.9863697748	 1.8973421267	 0.5568169394	 0.12194
H	-1.0383098684	-0.3838573454	-0.5053988347	 0.083693
H	 0.9756543495	-1.4709649619	-1.3658161809	 0.098625
H	 1.7342069868	 0.1420055419	-1.4949843937	 0.109245
H	 2.0310862758	-2.8214179572	 0.914441621	 0.123728
H	 3.2576663814	-2.0626009471	-0.1084263136	 0.14181
H	 0.4383797377	-0.0222320176	 2.0678779083	 0.114041
H	-0.002992018	-1.5982733817	 1.3532220194	 0.101601
62.5105	77.8328	91.2719	174.1817	244.8126	290.8867	316.2339	381.978	404.7891	433.5083	569.8107	625.1261	754.8179	816.5042	834.1631	870.5685	885.0037	900.6706	914.0924	965.5545	984.9263	1071.7604	1094.5401	1117.9382	1146.3606	1157.5409	1205.5492	1228.0447	1234.8075	1244.0196	1278.0063	1298.7622	1330.556	1359.5446	1375.5642	1414.7102	1416.5162	1462.5148	1495.763	1497.4904	1505.3174	1527.1993	1880.8782	2994.6907	2999.4273	3004.4962	3031.7641	3064.5156	3066.4196	3068.7453	3085.3107	3100.9895	3108.6645	3496.0639
CC1C[NH+](CC([O-])=O)C1	CC1CN(CC(=O)O)C1	
InChI=1S/C6H11NO2/c1-5-2-7(3-5)4-6(8)9/h5H,2-4H2,1H3,(H,8,9)	InChI=1S/C6H11NO2/c1-5-2-7(3-5)4-6(8)9/h5H,2-4H2,1H3,(H,8,9)
