20
gdb 83426	2.99809	1.34005	1.12353	1.7419	79.29	-0.2116	0.0777	0.2893	1163.1491	0.170334	-403.065308	-403.056791	-403.055846	-403.098449	32.594	
C	-0.0607017117	 1.536941527	 0.0486470716	-0.427933
C	 0.10019344	 0.0324544915	 0.0473322967	-0.073292
C	 1.4096284281	-0.6703834553	-0.2320722284	 0.009715
O	 2.5096131339	 0.0743647483	 0.2998250837	-0.283663
C	 1.99201751	-0.0715711295	 1.649801172	-0.135777
C	 0.7442204607	-0.784774475	 1.1420507464	 0.274578
N	 0.0811868599	-1.7857006824	 1.9042934804	-0.15519
C	-0.5185768944	-2.9102939177	 1.1951698501	-0.230999
C	 0.7196208756	-3.1008265188	 1.9985477827	-0.228238
H	 0.8852196838	 2.0273851557	 0.2909888833	 0.136386
H	-0.3699621515	 1.8913341993	-0.9402321614	 0.116795
H	-0.8163262768	 1.8589305345	 0.7727569905	 0.118962
H	-0.7355124757	-0.5154823293	-0.3875395131	 0.086826
H	 1.6101922601	-1.3438085282	-1.0582289467	 0.099499
H	 2.6445060672	-0.7239850527	 2.2412040647	 0.108729
H	 1.8644639905	 0.8889427949	 2.1610737511	 0.107742
H	-1.4818512621	-3.2426883064	 1.5702957441	 0.121408
H	-0.4113611575	-2.9518989463	 0.1128327304	 0.114737
H	 1.6449872442	-3.2550576727	 1.4475526583	 0.119559
H	 0.6763451558	-3.5727122468	 2.9753056439	 0.120156
82.2383	149.5316	167.7996	191.1858	233.6142	263.9953	338.5707	450.7382	520.9184	536.9856	613.5391	760.6808	774.5929	818.2198	861.6563	899.0006	920.2297	942.1522	975.9737	993.0402	1009.2186	1029.8755	1067.4851	1082.3917	1100.3107	1119.3542	1124.943	1141.6548	1155.7553	1173.1023	1180.6464	1225.633	1233.9678	1294.6473	1333.6252	1358.921	1408.7258	1471.2026	1487.2836	1493.8434	1502.9456	1515.6951	1517.7515	3028.654	3037.1859	3079.1692	3095.9756	3099.7781	3105.8579	3113.5596	3128.0267	3171.1168	3184.5688	3200.3697
CC1C2OCC12N1CC1	C[C@H]1[C@H]2OC[C@@]12N1CC1	
InChI=1S/C7H11NO/c1-5-6-7(5,4-9-6)8-2-3-8/h5-6H,2-4H2,1H3	InChI=1S/C7H11NO/c1-5-6-7(5,4-9-6)8-2-3-8/h5-6H,2-4H2,1H3/t5-,6+,7+/m0/s1
