20
gdb 114771	3.94964	1.07354	0.9087	2.0551	81.27	-0.2148	0.0176	0.2324	1298.7788	0.172399	-403.118053	-403.109703	-403.108759	-403.151083	32.261	
O	-0.1032915192	 1.49111596	-0.0667443677	-0.421426
C	 0.0203737251	 0.0763442017	-0.0790545158	-0.090932
C	-1.3821905707	-0.519845508	 0.0365559695	-0.032594
C	-1.3288541743	-2.0470551948	-0.1295505006	-0.176883
N	-2.6296500707	-2.6995915124	 0.1069140305	-0.104419
C	-2.7571599163	-3.478437138	 1.3403353251	-0.246624
C	-3.4350704712	-2.1559905124	 1.2059337933	-0.044427
C	-2.9557906642	-0.9398770011	 1.9063425357	-0.097676
C	-2.0319689789	-0.1570070726	 1.3510051853	-0.052187
H	 0.7794872973	 1.8715931598	-0.0512197617	 0.288308
H	 0.4944341774	-0.273171293	-1.0102714029	 0.087664
H	 0.6404155088	-0.2756622408	 0.7615662413	 0.086755
H	-1.9732389292	-0.0889469399	-0.7847097915	 0.104198
H	-1.0098125503	-2.3045336003	-1.146663101	 0.102453
H	-0.5630907075	-2.4398778436	 0.5558401242	 0.090278
H	-3.32727018	-4.4010307625	 1.2619403824	 0.110642
H	-1.8916246423	-3.5270516128	 1.9989688686	 0.107679
H	-4.5067617848	-2.1690845743	 1.0023317001	 0.096479
H	-3.4309152883	-0.6765440854	 2.8479746628	 0.089965
H	-1.7154631606	 0.7688428904	 1.8205591726	 0.102748
80.1079	121.9395	199.8056	214.602	270.0175	348.0543	365.7525	435.952	501.2028	526.9267	568.8677	733.8637	741.6301	790.966	816.2554	891.6311	928.5907	955.3456	999.4466	1023.2951	1053.6448	1072.5388	1084.343	1100.4765	1104.6084	1115.1959	1130.3706	1163.7093	1201.9296	1234.2348	1248.7705	1268.9347	1305.5893	1315.5517	1343.7086	1368.7835	1405.2552	1422.5721	1456.3844	1494.9286	1515.025	1522.209	1709.8003	2960.8984	2986.4286	2989.5484	3009.5758	3043.2118	3088.1743	3089.933	3154.4494	3177.2039	3188.5648	3833.5137
OCC1CN2CC2C=C1	OC[C@H]1CN2C[C@H]2C=C1	
InChI=1S/C7H11NO/c9-5-6-1-2-7-4-8(7)3-6/h1-2,6-7,9H,3-5H2	InChI=1S/C7H11NO/c9-5-6-1-2-7-4-8(7)3-6/h1-2,6-7,9H,3-5H2/t6-,7-,8?/m1/s1
