23
gdb 60477	5.4653	0.50539	0.48017	1.4872	90.	-0.2506	0.0578	0.3085	2319.1591	0.201689	-388.260891	-388.249375	-388.248431	-388.298997	40.649	
C	 0.0494796483	 1.4700724815	 0.1769714713	-0.392663
C	-0.0340353593	-0.0488377028	-0.00466489	 0.159946
C	-1.4711169525	-0.5246480276	-0.1879979857	-0.387244
O	 0.6822887054	-0.4894658844	-1.1539315685	-0.259704
C	 2.0864821486	-0.4903876453	-1.03178854	-0.061659
C	 2.6694424557	-1.1577506927	-2.2717018566	-0.186445
C	 4.2093168967	-1.1976786527	-2.2346290755	-0.356225
C	 4.7897296987	-1.8253226418	-3.4152844117	 0.292216
C	 5.2465842214	-2.3458938144	-4.3975495563	-0.433846
H	 1.0789339354	 1.8073960241	 0.3273625855	 0.115085
H	-0.3532067554	 1.9779766321	-0.7054189534	 0.121985
H	-0.5312992156	 1.7820537813	 1.0508555329	 0.114138
H	 0.3953421071	-0.537452381	 0.8872553319	 0.06166
H	-1.9125494029	-0.0616903504	-1.0763822642	 0.122862
H	-1.4998131712	-1.6095049104	-0.3185022585	 0.1202
H	-2.0814815553	-0.2587342664	 0.6800840902	 0.110953
H	 2.4846999103	 0.5335411501	-0.9374232737	 0.085681
H	 2.3923170291	-1.0376693361	-0.1222899628	 0.081466
H	 2.2736618873	-2.1748276965	-2.3535137045	 0.118482
H	 2.3358247102	-0.614509615	-3.1614463329	 0.120102
H	 4.6019369231	-0.1765520393	-2.1371430208	 0.130017
H	 4.54254967	-1.7358068923	-1.3370439843	 0.129803
H	 5.6598698648	-2.8040468102	-5.2614040523	 0.193192
31.6141	59.0737	79.0644	99.735	139.0287	179.1611	206.4359	245.2891	277.8983	327.813	346.9359	401.2343	444.5498	508.4131	547.3976	615.7448	634.358	755.5687	828.8888	868.1601	922.5166	925.1627	942.3035	967.3136	1039.6582	1076.2264	1116.0807	1120.5422	1153.4666	1173.1036	1199.3838	1219.3815	1273.4058	1299.9294	1309.2018	1360.7561	1367.6069	1377.2634	1396.7454	1413.1888	1439.5273	1475.1679	1480.5029	1485.2774	1495.2093	1498.1626	1509.4805	1528.5045	2240.4486	2942.4392	2952.7055	2975.6019	3012.6358	3036.5713	3040.4746	3042.68	3056.9027	3102.9897	3107.2612	3111.5954	3116.2913	3123.0741	3508.3508
CC(C)OCCCC#C	CC(C)OCCCC#C	
InChI=1S/C8H14O/c1-4-5-6-7-9-8(2)3/h1,8H,5-7H2,2-3H3	InChI=1S/C8H14O/c1-4-5-6-7-9-8(2)3/h1,8H,5-7H2,2-3H3
