18
gdb 40411	3.56102	1.30107	1.14904	1.6977	76.	-0.2324	0.0046	0.237	1100.793	0.148973	-401.906049	-401.898592	-401.897648	-401.938154	29.333	
C	 0.0040775297	 1.4726271864	-0.0160698027	-0.191308
O	 1.1649951196	 0.6464652883	-0.1413452963	-0.23862
C	-0.1027869329	 0.0082581087	 0.0370461749	 0.02611
C	-0.3072170402	-0.746148501	 1.3097193361	 0.318841
C	 0.25623004	-0.2003753617	 2.6239486675	-0.363875
C	 0.5387538129	-1.4442004637	 3.4385009307	-0.0891
C	 0.3056988775	-2.5603917455	 2.7421958741	-0.07691
C	-0.2401915105	-2.2456123902	 1.3892967307	-0.108771
N	-1.5432213367	-1.5409325553	 1.350286304	-0.377117
H	-0.0562204181	 2.0544514784	 0.9023427453	 0.11182
H	-0.293605538	 2.0016700043	-0.9200664398	 0.117889
H	-0.4840325738	-0.5063961328	-0.844643509	 0.096182
H	 1.1735882623	 0.3687450701	 2.4273046508	 0.136923
H	-0.4407562197	 0.4812299596	 3.1290864177	 0.1106
H	 0.8705220501	-1.4001327839	 4.4694668536	 0.101689
H	 0.4534484296	-3.5739758513	 3.0955211583	 0.102568
H	-0.0388428953	-2.8851616377	 0.5358351505	 0.096603
H	-1.9493761765	-1.5229242227	 2.2841779536	 0.226477
78.0085	159.4735	193.2977	308.1691	363.4498	377.864	496.2091	535.1558	600.7909	729.5165	748.5927	772.7048	856.7666	865.5579	880.7876	920.7661	941.5635	956.4187	981.8392	995.2704	1011.1666	1058.9316	1100.4961	1112.5928	1133.8085	1149.9391	1161.6813	1172.7989	1187.4326	1264.3064	1282.6352	1294.217	1323.8607	1360.7523	1391.2376	1461.9327	1472.9581	1529.0121	1662.5118	3021.532	3056.2303	3085.4654	3116.8162	3161.4225	3171.9533	3191.4319	3216.1872	3475.9025
C1OC1C12CC=CC1N2	C1O[C@H]1[C@]12CC=C[C@H]1N2	
InChI=1S/C7H9NO/c1-2-5-7(3-1,8-5)6-4-9-6/h1-2,5-6,8H,3-4H2	InChI=1S/C7H9NO/c1-2-5-7(3-1,8-5)6-4-9-6/h1-2,5-6,8H,3-4H2/t5-,6-,7+/m1/s1
