16
gdb 18449	3.41543	1.69343	1.39447	3.4156	65.95	-0.2347	-0.0227	0.2119	918.5889	0.129255	-383.703417	-383.695944	-383.695	-383.735342	27.659	
C	 1.6064801247	 0.6157259123	-1.8979026982	-0.415842
C	 1.8311210406	-0.721851417	-1.2279406341	 0.150043
O	 3.2311808999	-1.0521301857	-0.9451915019	-0.301497
C	 2.8686957625	-1.4989694857	 0.3620944336	 0.066867
C	 2.4339819897	-0.341942434	 1.2260349385	-0.126803
C	 3.0573291139	 1.0038179902	 1.1329398863	 0.13872
O	 3.0121531716	 1.8168790685	 2.0263540874	-0.273738
C	 1.4620885901	-1.0025998642	 0.2266861023	-0.173821
H	 2.156227801	 0.6564956634	-2.8436969403	 0.135789
H	 0.5413903756	 0.7385505288	-2.1213107569	 0.1272
H	 1.9249717271	 1.4543977931	-1.2760566784	 0.131744
H	 1.4223620549	-1.5239095871	-1.8574721542	 0.095614
H	 3.3029882073	-2.4208852661	 0.7302924074	 0.118625
H	 2.1713306985	-0.612823345	 2.2455147352	 0.115469
H	 3.6144687562	 1.204106394	 0.1971797189	 0.097685
H	 0.5286371164	-1.4183085156	 0.5800260842	 0.113945
82.965	156.9	210.9288	231.5119	281.7502	353.0103	439.3521	539.4335	597.0107	703.5083	791.6486	803.0503	862.864	899.8516	957.7236	993.3393	1025.4696	1049.6403	1052.0842	1069.2983	1088.8495	1107.2308	1160.2306	1196.022	1254.1737	1301.1939	1319.3215	1374.7337	1396.5503	1412.0875	1440.9506	1486.5104	1492.3967	1803.9535	2942.3358	3013.1383	3044.4834	3109.0593	3138.572	3156.2497	3184.8438	3212.2907
CC1OC2C(C=O)C12	C[C@H]1O[C@H]2[C@@H](C=O)[C@@H]12	
InChI=1S/C6H8O2/c1-3-5-4(2-7)6(5)8-3/h2-6H,1H3	InChI=1S/C6H8O2/c1-3-5-4(2-7)6(5)8-3/h2-6H,1H3/t3-,4+,5-,6+/m1/s1
