19
gdb 100166	2.3492	0.99952	0.85383	1.7158	82.92	-0.2382	-0.0346	0.2036	1478.0471	0.15361	-422.996598	-422.985217	-422.984273	-423.035116	38.227	
C	-0.2895341653	 1.355292388	 0.25660839	-0.250462
O	-0.1731360554	-0.050165251	 0.1086557103	-0.275155
C	 0.5671732806	-0.4951956783	-1.0330218361	 0.097142
C	 0.0490616752	 0.0552989909	-2.3668335634	-0.42929
C	 2.0505837686	-0.1155310262	-0.7982128946	 0.131864
O	 2.7603417677	 0.4263914384	-1.6009789972	-0.242808
C	 0.5331486986	-1.9581721905	-1.0087323679	 0.017682
C	 0.5835671898	-3.1614652323	-1.0059734285	 0.119734
C	 0.6157106843	-4.6159557589	-1.0017177785	-0.502468
H	 0.679851501	 1.869827374	 0.1905364951	 0.119092
H	-0.9674280348	 1.7974283396	-0.4846823403	 0.118872
H	-0.7044639135	 1.5219492176	 1.2531870329	 0.134339
H	 0.1924551889	 1.1360531179	-2.4298897842	 0.127967
H	 0.6028074058	-0.39987507	-3.1895944656	 0.142458
H	-1.0115534325	-0.1822677177	-2.4755932676	 0.128988
H	 2.3974534197	-0.3962455723	 0.2199281237	 0.096296
H	 1.0748901249	-5.0023269881	-1.9179952889	 0.155004
H	 1.1914623716	-4.9980236796	-0.1520252313	 0.154682
H	-0.3953955152	-5.0318462516	-0.9345455479	 0.156064
15.7739	57.5622	92.2832	96.1186	131.6887	171.5687	229.5224	254.138	287.048	287.9736	320.9018	377.5791	401.3996	490.2543	533.2074	560.0646	718.8613	827.9055	911.5753	1001.3309	1050.6702	1053.3426	1056.4728	1081.9735	1134.2317	1172.5789	1179.5584	1210.6139	1275.8872	1386.6952	1405.107	1413.2431	1472.3472	1475.1845	1476.6627	1480.7055	1485.0627	1496.5794	1513.0211	1834.4975	2366.0476	2904.4319	2995.3306	3031.0716	3051.781	3061.3644	3094.0414	3094.9606	3120.2488	3139.9497	3146.6513
COC(C)(C=O)C#CC	CO[C@@](C)(C=O)C#CC	
InChI=1S/C7H10O2/c1-4-5-7(2,6-8)9-3/h6H,1-3H3	InChI=1S/C7H10O2/c1-4-5-7(2,6-8)9-3/h6H,1-3H3/t7-/m1/s1
