15
gdb 64635	2.29951	1.63903	1.41246	2.6143	72.12	-0.2477	-0.0245	0.2232	990.6144	0.111672	-416.818337	-416.80992	-416.808976	-416.851202	31.317	
C	-0.0143691425	 1.5428162142	-0.0010248663	-0.407189
C	-0.0075049497	 0.0027230311	-0.0186738354	-0.055751
N	 0.7993309039	-0.4961134387	-1.162931	-0.249297
C	 1.7578090131	-1.1649647511	-0.6534776542	 0.060128
N	 1.78677841	-1.2461931381	 0.7338855974	-0.339064
C	 0.7186798692	-0.5296056972	 1.2566203014	 0.408354
O	 0.4588952761	-0.3535063828	 2.4167715864	-0.353733
C	-1.3612140084	-0.539136328	-0.0805560264	 0.380768
C	-2.4770254656	-0.9814906054	-0.1152978442	-0.48371
H	 1.0114991685	 1.92107362	 0.0117763961	 0.124847
H	-0.5179638562	 1.9165019229	-0.8941038286	 0.142925
H	-0.5372344885	 1.8938497876	 0.891305535	 0.148759
H	 2.532972013	-1.6552993276	-1.2337840271	 0.146139
H	 2.477887542	-1.715679572	 1.2967056878	 0.27336
H	-3.464169045	-1.3720589448	-0.1487583019	 0.203462
87.8609	133.867	182.1399	228.1604	234.4683	293.7583	395.6321	461.747	504.2466	560.6459	585.4355	632.5806	641.1987	652.2785	705.2889	757.8389	835.7911	919.4217	944.8079	957.2875	1065.3171	1113.9879	1117.7642	1189.9375	1239.2782	1348.1065	1393.6107	1402.1607	1483.2732	1486.9261	1678.2024	1862.2758	2241.8429	3052.4525	3132.8221	3150.0099	3193.2051	3501.5206	3651.0755
CC1(N=CNC1=O)C#C	C[C@]1(N=CNC1=O)C#C	
InChI=1S/C6H6N2O/c1-3-6(2)5(9)7-4-8-6/h1,4H,2H3,(H,7,8,9)	InChI=1S/C6H6N2O/c1-3-6(2)5(9)7-4-8-6/h1,4H,2H3,(H,7,8,9)/t6-/m0/s1
