15
gdb 24061	3.96509	1.05848	0.91492	3.0551	72.1	-0.2027	0.0187	0.2214	1240.0514	0.112932	-416.78805	-416.779909	-416.778965	-416.82169	29.796	
C	 1.4065288475	-0.4697471835	 0.2391214439	-0.449927
C	 0.5866341815	 0.3625082131	-0.0394124253	 0.319659
C	-0.4277521709	 1.3566262902	-0.3784955284	-0.235199
O	-0.3482609346	 2.5458400987	 0.4072493528	-0.263395
C	 0.6660068163	 3.3802987621	 0.0851295965	 0.401165
C	 1.7264975867	 3.3520518231	-0.7831995995	-0.215984
N	 2.432589922	 4.5381292735	-0.6857781753	-0.249008
C	 1.8144212514	 5.2530838788	 0.216783203	 0.008085
N	 0.7230437148	 4.5927805316	 0.7248428343	-0.331527
H	 2.1390373385	-1.19932985	 0.4832765695	 0.210599
H	-0.3659889798	 1.6174701706	-1.444008115	 0.144556
H	-1.4268214406	 0.9563656929	-0.184429144	 0.149925
H	 2.0348513043	 2.5589016415	-1.4435924865	 0.113255
H	 2.0921339567	 6.2405193213	 0.5526288227	 0.128489
H	 0.0696415663	 4.9124844661	 1.4200283912	 0.269308
48.1019	69.5554	191.2582	218.7895	311.4162	339.4037	417.2613	484.3993	619.0208	626.9098	662.3872	669.5742	681.3634	693.0595	778.0154	792.3137	919.6111	940.8507	1011.8426	1042.7281	1069.0354	1097.0094	1136.4885	1267.7608	1272.4107	1302.7219	1382.7855	1403.3994	1450.484	1474.5862	1530.464	1624.654	2241.2757	3015.5209	3090.5835	3254.6346	3269.2464	3503.2072	3667.2344
C#CCOC1=CN=CN1	C#CCOc1cnc[nH]1	
InChI=1S/C6H6N2O/c1-2-3-9-6-4-7-5-8-6/h1,4-5H,3H2,(H,7,8)	InChI=1S/C6H6N2O/c1-2-3-9-6-4-7-5-8-6/h1,4-5H,3H2,(H,7,8)
