18
gdb 53065	5.866	0.77533	0.7284	1.3048	93.19	-0.2114	-0.0143	0.1971	1587.889	0.148082	-364.778515	-364.769874	-364.76893	-364.813657	31.632	
C	-0.0687468946	 1.444664781	 0.0612159976	-0.507501
C	-0.0031796818	-0.0069998893	 0.0086383039	 0.199998
C	 0.0692485882	-1.2119826669	-0.0353847788	-0.1228
C	 0.0860179241	-2.6246960277	-0.084857406	 0.195558
C	 1.1591274401	-3.4190284006	-0.2596103678	-0.168835
C	 0.7813679473	-4.8535295884	-0.1695793517	-0.078834
N	 0.2235347533	-5.2173425466	 1.1706289093	-0.331225
C	-0.6903197037	-4.8856563508	 0.0587253308	-0.0537
C	-1.192156505	-3.4484221945	 0.0860526591	-0.317784
H	 0.5587171412	 1.8430643468	 0.8668143292	 0.150998
H	 0.2772004054	 1.8926690678	-0.8774890817	 0.149862
H	-1.0932022495	 1.7914855623	 0.2359065569	 0.149053
H	 2.1724760667	-3.0677636155	-0.405562745	 0.097598
H	 1.3114497068	-5.6136228701	-0.7331074583	 0.087454
H	 0.2527696365	-6.2321988555	 1.2625299835	 0.225703
H	-1.3176010372	-5.6682229842	-0.3542425641	 0.08682
H	-1.6984214596	-3.207093629	 1.0266463115	 0.126851
H	-1.8994674182	-3.2469849088	-0.7276010384	 0.110785
15.6206	84.8744	94.0572	213.0727	297.0909	348.3744	370.2116	434.9774	517.1467	532.1162	552.0556	703.8552	799.1653	812.172	843.7117	879.1533	912.6341	948.8099	964.8249	970.1998	1008.2104	1048.6035	1053.4127	1080.3186	1129.9184	1164.4201	1189.0866	1218.5674	1266.0906	1288.6169	1327.6292	1368.3825	1407.9943	1413.4324	1466.0389	1475.61	1476.341	1654.6137	2345.8471	3022.5471	3034.598	3078.1838	3080.3936	3085.9603	3162.7207	3172.6983	3216.1625	3469.9486
CC#CC1=CC2NC2C1	CC#CC1=C[C@H]2N[C@H]2C1	
InChI=1S/C8H9N/c1-2-3-6-4-7-8(5-6)9-7/h4,7-9H,5H2,1H3	InChI=1S/C8H9N/c1-2-3-6-4-7-8(5-6)9-7/h4,7-9H,5H2,1H3/t7-,8+/m1/s1
