14
gdb 79562	2.67067	1.70514	1.23981	5.7615	66.17	-0.2714	-0.0006	0.2708	971.8073	0.100376	-436.622624	-436.615267	-436.614323	-436.654471	28.034	
O	-0.075058705	 1.3813071999	-0.0468816081	-0.413142
C	-0.0508902567	-0.0069293758	 0.049710284	 0.10386
C	-0.4645522869	-0.7609606604	 1.2918387522	-0.164888
C	-1.581530575	-0.034914702	 2.0013652316	-0.042852
O	-2.7851398047	-0.8023796487	 1.9218792834	-0.273285
C	-2.4090324259	-0.0294023999	 0.7699558313	 0.33129
C	-3.3339332671	 0.9516847626	 0.2918132301	 0.239185
N	-4.0819464764	 1.7294403405	-0.1224343544	-0.344835
C	-1.3375436821	-0.7617381766	-0.0078490605	-0.208145
H	 0.7196822079	 1.7313694655	 0.3701123585	 0.294433
H	 0.7601438664	-0.4895992754	-0.4988629904	 0.107027
H	 0.1060892885	-1.5860638546	 1.6994519478	 0.116271
H	-1.5296184905	 0.7206600107	 2.7747409308	 0.133179
H	-1.5213151925	-1.5773214358	-0.6950033362	 0.121903
108.1879	155.9237	221.2348	280.9619	304.5229	441.1315	501.549	538.3843	579.8629	593.2254	701.5218	741.5316	791.6613	850.9492	879.0969	931.1835	964.7577	978.2919	1004.3825	1047.7751	1082.7505	1099.7235	1166.5709	1205.6974	1262.7095	1277.4054	1286.2165	1323.5874	1399.5562	1461.8257	2364.1507	3092.821	3194.94	3207.5548	3211.4691	3806.9409
OC1C2C3OC3(C#N)C12	O[C@H]1[C@H]2[C@@H]3O[C@]3(C#N)[C@@H]12	
InChI=1S/C6H5NO2/c7-1-6-3-2(4(3)8)5(6)9-6/h2-5,8H	InChI=1S/C6H5NO2/c7-1-6-3-2(4(3)8)5(6)9-6/h2-5,8H/t2-,3+,4-,5-,6+/m0/s1
