15
gdb 49827	2.34062	1.55999	1.12998	4.6107	68.04	-0.2513	-0.0482	0.2031	1068.1696	0.111871	-453.931704	-453.923563	-453.922619	-453.964883	29.422	
O	-0.0366735742	 0.0051033124	-0.288898334	-0.241943
C	 0.0055923702	 1.1643209956	 0.0319878451	 0.153987
C	 1.265272881	 1.9977861553	 0.0138652078	-0.140815
N	 2.4643171677	 1.3074706884	-0.4569275263	-0.351353
C	 2.5913810661	 2.035700038	-1.6362175882	 0.422245
O	 3.3182120895	 1.9410295927	-2.5815226787	-0.339628
C	 1.4166605627	 2.9283473779	-1.2286314697	 0.159303
C	 0.372895827	 3.5565674687	-2.0738794871	-0.294853
N	 1.3525819939	 4.3702919645	-1.3380972419	-0.347171
H	-0.9030535737	 1.7106038606	 0.3723589966	 0.082388
H	 1.3843537961	 2.5130707376	 0.9769024665	 0.111716
H	 2.6731500068	 0.3284981932	-0.3178172465	 0.265274
H	 0.4990388945	 3.5545405077	-3.1522311577	 0.152755
H	-0.6566631077	 3.5217738366	-1.7263986721	 0.124404
H	 0.9402212803	 4.7834227609	-0.5050544638	 0.243692
85.7559	92.6351	208.431	213.1841	245.724	258.9135	367.0213	446.5922	505.8056	642.6337	708.3883	729.795	770.1404	826.5743	877.4452	936.1928	954.4151	979.9844	996.9824	1064.4344	1091.0399	1129.3155	1157.1777	1191.9537	1250.1955	1280.6936	1325.653	1363.1873	1412.1955	1416.7961	1510.0925	1829.054	1912.2165	2877.7409	3017.4499	3111.9874	3204.1678	3504.0104	3609.5757
O=CC1NC(=O)C11CN1	O=C[C@H]1NC(=O)[C@]21CN2	
InChI=1S/C5H6N2O2/c8-1-3-5(2-6-5)4(9)7-3/h1,3,6H,2H2,(H,7,9)	InChI=1S/C5H6N2O2/c8-1-3-5(2-6-5)4(9)7-3/h1,3,6H,2H2,(H,7,9)/t3-,5-/m1/s1
