18
gdb 77260	2.65092	1.12079	0.96453	3.165	80.44	-0.2448	0.0215	0.2663	1277.0088	0.145653	-401.930077	-401.920408	-401.919464	-401.965415	34.799	
C	-0.170839689	 1.4533586493	-0.2000392028	-0.408701
C	 0.0578650343	-0.0346263131	-0.0998131254	-0.033433
C	 0.8863050887	-0.7851719427	-1.1102315759	 0.041026
N	 1.5769951309	-0.0980615225	-2.1549995388	-0.283953
C	 1.1272236168	-0.0965338555	-3.4387287825	 0.148264
O	 0.0945359058	-0.6107584591	-3.8111016678	-0.321267
C	 1.4166896207	-0.6156873465	 0.308088066	-0.27187
C	 2.5491130361	 0.2334439497	 0.5275014715	 0.318954
C	 3.5157934165	 0.9371008581	 0.672857949	-0.456107
H	 0.7075945608	 1.9706482941	-0.5909952621	 0.124785
H	-1.011715048	 1.6622184999	-0.8689558082	 0.133474
H	-0.4013562044	 1.8787891169	 0.7816785352	 0.12431
H	-0.7846139627	-0.5986374431	 0.2908839843	 0.101795
H	 0.5480182615	-1.7744654647	-1.3993745778	 0.126199
H	 2.4763533664	 0.3100991076	-1.9430594972	 0.25507
H	 1.8257125346	 0.4323645432	-4.1175523248	 0.075048
H	 1.3946876984	-1.5068269186	 0.927757378	 0.12273
H	 4.3602394627	 1.5596070069	 0.8382670092	 0.203674
31.497	102.6659	133.0188	155.4548	192.7442	202.014	287.1584	334.0606	358.6342	512.5332	554.6921	590.8693	600.8463	635.1984	657.5775	735.3324	770.1223	819.4572	891.5445	967.9449	992.8898	1030.9942	1044.2773	1094.4331	1119.5736	1143.0657	1155.8979	1217.7163	1278.0417	1353.2863	1373.5768	1421.4961	1422.7691	1429.5108	1488.9415	1498.1259	1522.4453	1805.9173	2226.6808	2935.6665	3044.0437	3105.7734	3128.3871	3148.1705	3154.4054	3170.3425	3500.632	3593.9783
CC1C(NC=O)C1C#C	C[C@H]1[C@@H](NC=O)[C@H]1C#C	
InChI=1S/C7H9NO/c1-3-6-5(2)7(6)8-4-9/h1,4-7H,2H3,(H,8,9)	InChI=1S/C7H9NO/c1-3-6-5(2)7(6)8-4-9/h1,4-7H,2H3,(H,8,9)/t5-,6+,7-/m1/s1
