19
gdb 36089	3.58702	1.19597	1.10155	1.8963	80.06	-0.2447	0.0508	0.2955	1166.0799	0.159333	-385.841231	-385.833192	-385.832248	-385.873886	31.877	
C	-0.0685183448	-1.2170711244	-0.2450276273	-0.45378
C	-0.0307038018	-0.0245167427	-0.1035687162	 0.317551
C	 0.0193884939	 1.4228413936	 0.0727652122	-0.46553
C	 1.4257838955	 1.990868977	 0.0848558998	 0.430465
C	 1.7102765655	 3.512510126	 0.1250159949	-0.281115
C	 2.9599188474	 2.982873555	-0.6093922761	 0.078541
C	 3.721292562	 2.1928461301	 0.4755146732	-0.216572
C	 2.4962348101	 1.4029598437	 1.0351517296	-0.255756
O	 2.1198397353	 1.9465494882	-1.2065503458	-0.325925
H	-0.1040979523	-2.2699242131	-0.3772518347	 0.196772
H	-0.5470364173	 1.9148608196	-0.7267484158	 0.139514
H	-0.4676253654	 1.6975640087	 1.0181937287	 0.133806
H	 1.047941624	 4.0676640584	-0.54084283	 0.10693
H	 1.8235534034	 4.0113867584	 1.0915492777	 0.092007
H	 3.5217234716	 3.5707363115	-1.3346315187	 0.078917
H	 4.4772832297	 1.540410465	 0.0342765745	 0.109904
H	 4.2033795158	 2.8382655714	 1.2148936828	 0.097067
H	 2.2852937196	 1.6099753842	 2.0880430312	 0.095832
H	 2.5835075079	 0.3241678493	 0.8998557299	 0.121372
67.3659	114.3	244.4744	281.2557	336.8439	349.0649	423.2667	455.4483	559.6348	617.6264	636.8425	656.6031	737.7014	807.0022	826.3732	836.6861	876.073	886.2718	941.7344	952.6797	969.5895	982.3239	1014.4825	1036.8427	1097.4426	1130.9829	1158.5226	1182.7269	1225.1227	1236.13	1258.7648	1274.9176	1292.4356	1315.5358	1327.8315	1371.1878	1453.9077	1479.332	1482.3333	1506.423	2241.3901	3020.9924	3059.5852	3061.3792	3062.2145	3072.1809	3113.5785	3127.1375	3132.3008	3137.8362	3506.5997
C#CCC12CC(CC1)O2	C#CC[C@@]12C[C@@H](CC1)O2	
InChI=1S/C8H10O/c1-2-4-8-5-3-7(6-8)9-8/h1,7H,3-6H2	InChI=1S/C8H10O/c1-2-4-8-5-3-7(6-8)9-8/h1,7H,3-6H2/t7-,8+/m1/s1
