14
gdb 131398	3.03488	1.25149	0.99897	1.375	68.49	-0.2371	-0.004	0.2331	1150.2032	0.101192	-432.835	-432.826755	-432.82581	-432.868728	29.994	
O	 0.3529751182	 1.2978204575	 0.0656030462	-0.419945
C	 0.155455675	-0.0309928521	 0.028529254	 0.316996
N	 0.0465210709	-0.7292410232	-1.094033728	-0.301222
N	-0.1462366855	-1.9726234603	-0.6405118608	-0.09096
N	-0.1714878923	-2.1219561048	 0.6725468277	-0.254854
C	 0.0208078897	-0.8880989791	 1.1412624688	 0.245889
C	 0.0669372537	-0.5740475162	 2.6092025093	-0.45213
C	 1.3996146411	-0.2004334026	 3.0820042538	 0.312216
C	 2.4945459324	 0.1068286352	 3.4683261448	-0.461072
H	 0.4045177382	 1.6152244252	-0.8443678511	 0.310366
H	-0.2702645516	-2.7491737792	-1.2674474334	 0.294134
H	-0.6343197871	 0.2401294479	 2.8327566675	 0.147557
H	-0.2881756191	-1.4550354296	 3.1545145707	 0.155003
H	 3.4626452964	 0.3786320512	 3.8090122806	 0.198023
31.236	99.8955	227.7818	266.2025	324.6552	340.1891	378.655	406.2819	458.5678	484.232	617.3044	639.7269	693.1985	703.9659	752.123	803.4381	927.0455	961.3803	989.5787	1145.7153	1190.3858	1207.9031	1261.3172	1297.0067	1341.4885	1414.3048	1455.7058	1465.3462	1587.919	1602.8169	2243.3316	3027.0983	3076.3085	3507.4267	3685.3324	3803.096
OC1=NNN=C1CC#C	Oc1n[nH]nc1CC#C	
InChI=1S/C5H5N3O/c1-2-3-4-5(9)7-8-6-4/h1H,3H2,(H2,6,7,8,9)	InChI=1S/C5H5N3O/c1-2-3-4-5(9)7-8-6-4/h1H,3H2,(H2,6,7,8,9)
