18
gdb 116125	2.52681	1.30418	0.90456	3.3321	68.4	-0.2337	0.005	0.2387	1254.8805	0.148924	-476.243894	-476.235344	-476.2344	-476.277674	31.631	
O	-0.0110728853	 1.4191331122	 0.0154022404	-0.420796
C	 0.0239350962	 0.0127651076	 0.0982380755	-0.060231
C	-1.3526525277	-0.6060291863	-0.1249398915	 0.098861
C	-1.383956831	-2.1278131571	-0.0564914268	-0.203793
N	-2.7472038991	-2.6483295023	-0.0336070037	-0.287671
C	-3.4760718802	-2.1094039869	 1.1080451291	-0.309387
C	-3.2652723765	-0.6325389414	 1.4442943766	 0.39442
O	-3.9631410103	-0.0373764276	 2.2177302831	-0.31796
O	-2.2059469843	 0.0012107076	 0.881492057	-0.256949
H	-0.6894345076	 1.7134046407	 0.6351229399	 0.298324
H	 0.7096420932	-0.3376760379	-0.6807095881	 0.113691
H	 0.4129012566	-0.3313621204	 1.0706712296	 0.095254
H	-1.7364523009	-0.2694706601	-1.0979937273	 0.095682
H	-0.846718445	-2.5403771691	-0.9163983115	 0.120719
H	-0.8690010924	-2.4756272576	 0.8489226506	 0.118225
H	-3.2206885083	-2.3907921406	-0.8944034104	 0.226221
H	-4.5499941603	-2.2640552594	 0.9832678584	 0.14715
H	-3.1900656269	-2.6629876914	 2.013612959	 0.148241
79.6232	93.9079	120.0899	191.4981	285.0954	368.2165	433.8966	437.0136	444.4014	497.8852	539.615	554.2805	650.7523	770.2434	821.4479	913.3081	942.1725	960.9223	1013.9207	1078.3793	1094.3821	1113.0792	1129.9735	1162.9416	1200.9928	1237.6574	1250.0761	1292.8045	1335.0673	1348.9985	1382.8915	1398.6809	1402.3779	1438.6265	1453.0743	1478.437	1490.6574	1497.0626	1847.0307	2973.4762	3015.2612	3019.831	3029.2297	3074.3978	3087.81	3113.9036	3509.7813	3794.7724
OCC1CNCC(=O)O1	OC[C@H]1CNCC(=O)O1	
InChI=1S/C5H9NO3/c7-3-4-1-6-2-5(8)9-4/h4,6-7H,1-3H2	InChI=1S/C5H9NO3/c7-3-4-1-6-2-5(8)9-4/h4,6-7H,1-3H2/t4-/m1/s1
