18
gdb 63094	2.69571	1.53643	1.32116	5.0417	71.71	-0.2637	0.0171	0.2809	1041.5214	0.147506	-439.113553	-439.105246	-439.104302	-439.146147	31.438	
C	-0.0569808658	 1.5288178723	 0.025432994	-0.473651
C	-0.0219399084	 0.0168796007	-0.0726418569	 0.298578
C	-1.2295772064	-0.6734705867	 0.5257752684	-0.448459
C	 0.7116077237	-0.6827695893	-1.1614851955	-0.092111
C	 1.7342945447	 0.0637015223	-2.0041857924	-0.122017
O	 2.7104459841	 0.5301971591	-1.0674352041	-0.23307
C	 2.4173000439	 0.0986498119	 0.2013117142	 0.457205
O	 3.0834115854	 0.3866856231	 1.1465828134	-0.342573
N	 1.2555881442	-0.7292017154	 0.2083218619	-0.21575
H	 0.8076021039	 2.013296127	-0.4313228725	 0.148112
H	-0.9585163709	 1.9052229818	-0.4688366242	 0.125983
H	-0.0991649661	 1.8373317242	 1.0748662623	 0.144793
H	-2.1425262581	-0.3668087501	 0.003788112	 0.121034
H	-1.1336694662	-1.7593161814	 0.4579295809	 0.133136
H	-1.3368152493	-0.4076794067	 1.5821884268	 0.13522
H	 0.3213113389	-1.6165549613	-1.5560894039	 0.106966
H	 2.2209119351	-0.6079154757	-2.7183324977	 0.13039
H	 1.3297483374	 0.9228302343	-2.5491543368	 0.126212
126.3342	172.7879	183.4966	211.3124	222.7767	267.3969	355.5572	427.7517	462.1158	527.321	648.673	685.1821	744.5272	784.5678	824.6012	869.6307	946.0237	964.2573	990.9492	1001.1848	1040.0864	1063.2875	1094.9666	1117.5611	1134.6765	1168.6812	1232.1671	1259.8085	1321.0248	1388.5456	1412.2746	1421.5529	1434.0503	1478.2867	1485.9801	1502.6617	1510.4695	1525.9074	1897.1582	3037.2047	3044.6333	3046.4789	3086.5416	3101.9306	3106.8454	3128.2775	3138.6599	3151.4209
CC1(C)C2COC(=O)N12	CC1(C)[C@H]2COC(=O)N12	
InChI=1S/C6H9NO2/c1-6(2)4-3-9-5(8)7(4)6/h4H,3H2,1-2H3	InChI=1S/C6H9NO2/c1-6(2)4-3-9-5(8)7(4)6/h4H,3H2,1-2H3/t4-,7?/m1/s1
