15
gdb 18983	4.46032	2.33417	1.91331	1.2814	59.71	-0.2444	0.0753	0.3197	704.4649	0.122161	-399.719784	-399.714365	-399.713421	-399.74907	22.315	
C	 0.0279907826	 1.400368674	 0.0749229204	 0.017953
O	 1.3515259229	 1.8783160345	 0.0423426879	-0.269116
C	 2.1165457535	 1.1919732747	-0.9137871497	 0.170875
C	 1.3752991547	 0.4031090261	-2.0431103775	-0.1456
N	 2.627690189	-0.4338188152	-2.1438562071	-0.328022
C	 2.3796497638	-0.317898702	-0.6576317184	-0.103488
C	 0.8551575645	-0.5269701102	-0.8927120369	 0.132085
O	-0.035706726	-0.0067299336	 0.0645475614	-0.268706
H	-0.4305403281	 1.7499151891	 1.0016561886	 0.125061
H	-0.5229630773	 1.7952439014	-0.7959337053	 0.09107
H	 2.972763032	 1.7973714956	-1.2098657158	 0.103795
H	 0.864414532	 0.775681403	-2.9318489584	 0.088713
H	 2.3725947558	-1.3775289915	-2.4539741056	 0.213865
H	 3.0302078338	-0.7767564918	 0.0870244839	 0.08676
H	 0.5308007268	-1.5335516942	-1.1721158475	 0.084756
265.1631	295.0825	441.5379	464.7466	544.994	569.2425	723.7127	782.8561	847.6923	877.8857	888.9893	917.33	985.6602	996.2739	1021.6381	1028.0727	1044.3823	1122.5208	1132.9402	1155.8042	1160.0956	1182.6539	1210.3288	1220.5677	1256.7126	1278.2767	1296.4356	1302.7296	1344.9647	1398.8786	1449.8666	1524.4908	2954.8023	3077.9656	3107.4015	3116.8888	3119.1341	3133.0208	3380.5825
C1OC2C3NC2C3O1	C1O[C@@H]2[C@H]3N[C@@H]2[C@H]3O1	
InChI=1S/C5H7NO2/c1-7-4-2-5(8-1)3(4)6-2/h2-6H,1H2	InChI=1S/C5H7NO2/c1-7-4-2-5(8-1)3(4)6-2/h2-6H,1H2/t2-,3+,4-,5+
