19
gdb 40950	3.57538	1.30134	1.15183	2.5493	78.02	-0.2319	0.005	0.237	1122.0891	0.160419	-423.007929	-423.000114	-422.99917	-423.040614	30.052	
C	 0.0076463802	 1.3506141447	-0.374554692	-0.067995
C	 1.4594943902	 1.5106725163	 0.1098484634	-0.348506
C	 1.2460537998	 0.1348827125	 0.796758178	 0.402699
C	 2.1140436358	-0.9869090707	 0.2274936393	-0.134915
O	 1.9341932754	-2.2099581688	 0.9107152589	-0.244641
C	 2.3364295798	-2.1347438098	 2.2620465227	-0.125033
C	 1.8082629862	-0.9151536024	 2.9632441213	-0.085787
C	 1.2885948245	 0.1116553746	 2.2945684126	-0.10244
O	-0.1301799989	 0.0855112502	 0.3006237767	-0.321546
H	-0.7045169572	 2.0950538813	 0.0015440151	 0.102979
H	-0.1252548779	 1.2559416607	-1.4594538597	 0.101655
H	 2.2225613406	 1.5175618722	-0.671945775	 0.110307
H	 1.6423087765	 2.3414212709	 0.7936539698	 0.111145
H	 1.8435583747	-1.1699646416	-0.8158970963	 0.112648
H	 3.1718603182	-0.6686228834	 0.2660232026	 0.082534
H	 1.9608007422	-3.0438462578	 2.745246799	 0.122232
H	 3.4407190766	-2.1640144197	 2.3428818188	 0.0967
H	 1.8650130534	-0.9110965533	 4.0489533361	 0.098703
H	 0.8692650201	 0.9688719041	 2.8149808687	 0.08926
72.6271	96.9615	215.7523	267.5361	308.7257	389.5855	422.2323	480.647	525.0099	668.5312	732.5268	780.8258	817.0602	858.9929	902.6155	930.28	948.544	984.3003	996.1768	1007.5745	1024.1433	1041.2667	1093.2489	1131.3015	1153.7833	1162.1279	1203.7166	1213.8858	1248.7495	1262.16	1305.4824	1322.6846	1348.829	1369.5749	1411.0867	1425.4795	1473.0037	1486.0832	1486.7114	1533.9285	1717.5724	2917.1767	2942.6763	3014.9932	3051.8013	3058.4511	3069.6075	3093.6598	3125.2309	3149.1983	3171.8557
C1CC2(COCC=C2)O1	C1C[C@]2(COCC=C2)O1	
InChI=1S/C7H10O2/c1-2-7(3-5-9-7)6-8-4-1/h1-2H,3-6H2	InChI=1S/C7H10O2/c1-2-7(3-5-9-7)6-8-4-1/h1-2H,3-6H2/t7-/m1/s1
