23
gdb 99026	3.21509	0.911	0.85298	1.7421	82.97	-0.2585	0.0215	0.28	1534.7084	0.201518	-425.486941	-425.47562	-425.474676	-425.523652	40.952	
C	 0.2592965006	 1.437721637	 0.0053801331	-0.369691
C	-0.0528908816	-0.0564898753	 0.0030288274	-0.291787
C	-1.5439514274	-0.3484895501	 0.015367896	 0.450079
O	-2.4057038404	 0.4977551366	 0.0285255864	-0.367131
O	-1.7520349945	-1.6770480999	 0.0094787248	-0.297252
C	-3.1062008779	-2.2467285612	 0.0194194253	 0.368334
C	-3.8653241016	-1.8231281577	-1.2423612563	-0.417132
C	-2.8376875253	-3.7529652187	 0.0080389261	-0.398165
C	-3.8404913449	-1.8379276334	 1.3006275269	-0.417151
H	 1.3403710608	 1.6030599616	-0.0030103009	 0.10946
H	-0.1729046903	 1.9294879433	-0.8697277138	 0.130616
H	-0.1584429519	 1.9235987323	 0.8907191108	 0.13073
H	 0.376274354	-0.5556279674	-0.8738347287	 0.128381
H	 0.3914526313	-0.5612716809	 0.8690863408	 0.128426
H	-3.2935746156	-2.0886092036	-2.1370255518	 0.114239
H	-4.8239046992	-2.3498497606	-1.2855120198	 0.113087
H	-4.0541670927	-0.7498482109	-1.2483886414	 0.151074
H	-2.2581829415	-4.0476394744	 0.887274789	 0.119726
H	-3.7824008944	-4.3040784063	 0.0140721007	 0.116026
H	-2.2755145421	-4.0373415169	-0.8857206129	 0.119728
H	-4.029030815	-0.7648079245	 1.3228539367	 0.151072
H	-4.7981238839	-2.36519545	 1.3563231983	 0.113096
H	-3.2514391166	-2.1137841891	 2.1808118934	 0.114235
38.5066	74.6514	114.3987	148.0905	195.6685	198.4645	245.5261	264.1347	271.7858	315.6631	332.6817	346.016	424.2865	452.1709	486.3089	585.5644	671.638	754.4426	810.8026	857.4651	905.1052	924.1969	927.5012	965.4766	1017.0624	1051.3823	1060.5075	1098.7991	1105.4969	1190.3496	1243.7876	1266.2028	1277.4924	1280.2134	1379.0884	1394.5555	1399.1111	1415.3134	1424.828	1459.1496	1467.9091	1488.1953	1488.578	1492.0554	1494.3111	1499.9032	1503.4897	1526.0012	1801.9699	3041.7255	3041.9135	3042.3963	3049.684	3051.151	3071.0754	3105.9951	3108.4329	3121.1859	3121.98	3123.1432	3128.444	3155.0165	3157.8787
CCC(=O)OC(C)(C)C	CCC(=O)OC(C)(C)C	
InChI=1S/C7H14O2/c1-5-6(8)9-7(2,3)4/h5H2,1-4H3	InChI=1S/C7H14O2/c1-5-6(8)9-7(2,3)4/h5H2,1-4H3
