17
gdb 50150	4.36338	0.98243	0.89769	2.8128	76.25	-0.2449	-0.0364	0.2085	1284.278	0.135111	-421.823391	-421.815271	-421.814327	-421.857573	29.916	
O	-0.4983686609	 0.2660089392	 0.1594274637	-0.245788
C	-0.0994185081	 1.3770145025	-0.0678457727	 0.154899
C	 1.3526026776	 1.8216050119	 0.0439255594	-0.118727
C	 1.8015766355	 2.6922108347	-1.1643810937	-0.357208
C	 2.1704198019	 4.0624548533	-0.5800748099	 0.429909
C	 3.1067828758	 5.0044076022	-1.2106306815	-0.2481
O	 1.6989506841	 5.239991903	-1.2564740795	-0.2751
C	 1.9496344361	 3.9636550636	 0.8844543084	-0.140159
C	 1.5191699949	 2.7521570692	 1.2331740871	-0.100295
H	-0.7938198967	 2.195505767	-0.3712902466	 0.083278
H	 1.9547415139	 0.9146160115	 0.1590680709	 0.103149
H	 2.6431237929	 2.2286931145	-1.6837720863	 0.122643
H	 0.9987698752	 2.822485415	-1.8975474175	 0.129272
H	 3.6808044437	 5.6992279281	-0.597588015	 0.114448
H	 3.5701880331	 4.7367832775	-2.1604343216	 0.115125
H	 2.1327017709	 4.7960679111	 1.5533061488	 0.113525
H	 1.29159656	 2.4267896357	 2.2416776959	 0.119128
25.141	66.0907	180.6558	283.3275	334.2942	356.3498	365.0157	410.351	548.8292	568.0619	758.1975	778.3094	803.0351	833.8454	884.4319	912.4545	928.8632	977.5792	986.4521	990.1812	1074.8089	1089.874	1123.7463	1129.3937	1163.5698	1209.7313	1234.4738	1260.5829	1291.4122	1300.4181	1340.5692	1419.2682	1428.6103	1480.4303	1528.1549	1674.2731	1834.4714	2859.7641	3057.3643	3061.8533	3071.3771	3108.0541	3157.1817	3195.8614	3219.9641
O=CC1CC2(CO2)C=C1	O=C[C@H]1C[C@]2(CO2)C=C1	
InChI=1S/C7H8O2/c8-4-6-1-2-7(3-6)5-9-7/h1-2,4,6H,3,5H2	InChI=1S/C7H8O2/c8-4-6-1-2-7(3-6)5-9-7/h1-2,4,6H,3,5H2/t6-,7+/m1/s1
