19
gdb 45600	2.71795	1.53133	1.20379	4.2162	73.91	-0.2667	0.0142	0.2809	1077.1231	0.162433	-423.077592	-423.070065	-423.069121	-423.110128	29.18	
O	-0.2963333518	 0.2631898688	 0.5913577143	-0.332037
C	-0.1012483626	 1.3363651581	 0.1158572713	 0.452975
O	-1.0102364929	 2.1678502989	-0.479564096	-0.259529
C	 0.0110250698	 3.2082941305	-0.7111172224	 0.125779
C	-0.3483007865	 4.5160750861	-0.026711581	-0.214854
C	-0.0510698012	 4.5010377678	 1.4777800163	-0.210999
C	 1.4255148541	 4.1600837239	 1.7117992379	-0.188483
C	 1.7672908803	 2.7258463424	 1.2695717683	-0.230422
C	 1.0809584057	 2.2944545833	-0.0492650993	-0.222121
H	 0.1325271396	 3.3366579968	-1.7895701248	 0.09435
H	 0.2359709789	 5.3171246554	-0.4981000775	 0.103696
H	-1.4028570849	 4.7326368525	-0.2290275442	 0.118084
H	-0.2906234101	 5.4788258809	 1.9073272652	 0.100896
H	-0.6939371131	 3.7697655523	 1.9839468388	 0.115798
H	 2.0416859789	 4.8782790383	 1.1540525384	 0.095871
H	 1.6911381673	 4.2802260217	 2.7669200431	 0.102941
H	 2.8512700484	 2.6182253093	 1.1742667569	 0.107593
H	 1.4613435677	 2.0210255083	 2.0509568492	 0.128379
H	 1.8046209225	 1.9016041248	-0.7664992246	 0.112083
55.8974	129.5987	215.2259	282.1424	360.592	424.4857	455.603	528.7615	609.7474	686.137	763.873	782.3881	810.2644	855.915	862.437	890.0513	944.082	960.5491	1004.3602	1051.444	1077.2576	1099.6108	1138.3383	1150.7136	1155.3517	1165.8311	1217.8625	1277.0904	1288.23	1319.8044	1334.4582	1352.1304	1372.8434	1380.8425	1387.1398	1399.6626	1470.4424	1495.8073	1496.1334	1509.4469	1929.9306	3016.0324	3025.2011	3034.2182	3042.907	3072.5537	3075.1207	3076.8563	3081.9666	3083.95	3098.6549
O=C1OC2CCCCC12	O=C1O[C@H]2CCCC[C@@H]12	
InChI=1S/C7H10O2/c8-7-5-3-1-2-4-6(5)9-7/h5-6H,1-4H2	InChI=1S/C7H10O2/c8-7-5-3-1-2-4-6(5)9-7/h5-6H,1-4H2/t5-,6+/m1/s1
