19
gdb 31807	4.53526	0.96684	0.85499	1.8088	88.44	-0.2049	-0.0096	0.1953	1395.7347	0.161557	-382.147769	-382.1392	-382.138256	-382.181333	32.745	
C	 0.0589657482	 1.5525018203	-0.0784360014	-0.363388
C	-0.0069816396	 0.0232801821	 0.078106648	-0.295596
C	-1.4160913875	-0.5173542869	 0.0452970968	 0.255149
C	-2.1001185259	-0.8582195479	 1.209430647	-0.073691
N	-3.352082191	-1.3205165662	 1.2584736457	-0.33424
C	-4.0111098179	-1.4623740325	 0.1046156364	 0.372355
N	-5.3274353024	-1.8840883	 0.1960582619	-0.566298
C	-3.4235714049	-1.1575218672	-1.1361936722	-0.177912
C	-2.1236223043	-0.6879208778	-1.1518364304	-0.142049
H	 1.0949283281	 1.9061059498	-0.0570592344	 0.110512
H	-0.3872724908	 1.870082846	-1.02650841	 0.116843
H	-0.488997018	 2.051034371	 0.7273685482	 0.121362
H	 0.5863445676	-0.444578044	-0.7174589079	 0.101168
H	 0.4675037443	-0.2631507203	 1.0238299234	 0.102641
H	-1.6000423501	-0.7608546697	 2.172534678	 0.094831
H	-5.547423515	-2.3104298326	 1.0843486112	 0.252199
H	-5.6973555948	-2.381122028	-0.5991395751	 0.24697
H	-3.9837445536	-1.2899293214	-2.0560444601	 0.084798
H	-1.6478757025	-0.4530236246	-2.1005154351	 0.094347
46.6242	100.9764	207.965	219.8602	314.894	372.2807	388.6513	420.913	433.1076	499.6662	539.303	605.3806	659.1409	742.4733	785.0707	794.9691	846.7072	871.8796	963.7757	971.4269	978.1423	1033.5939	1056.1869	1083.3486	1099.4753	1165.1864	1242.1068	1274.5752	1328.1414	1339.6598	1352.8049	1355.6058	1406.5704	1439.8841	1484.4743	1495.719	1506.6363	1531.7635	1607.3746	1630.4818	1658.0191	3023.8424	3032.4757	3060.5582	3103.6223	3108.3447	3130.4134	3159.2133	3182.1276	3573.2241	3686.5456
CCC1=CN=C(N)C=C1	CCc1cnc(N)cc1	
InChI=1S/C7H10N2/c1-2-6-3-4-7(8)9-5-6/h3-5H,2H2,1H3,(H2,8,9)	InChI=1S/C7H10N2/c1-2-6-3-4-7(8)9-5-6/h3-5H,2H2,1H3,(H2,8,9)
