17
gdb 75145	2.92195	1.22378	1.167	1.3811	75.52	-0.2251	0.0271	0.2522	1144.6439	0.135009	-418.001447	-417.992477	-417.991533	-418.035521	33.832	
C	-0.1564185358	 1.6357392624	-0.0910423887	-0.42745
C	 0.0438318949	 0.1198762928	-0.0319217656	 0.174671
C	 0.9617873646	-0.425232241	-1.1909278418	-0.21921
N	 2.1755614241	-0.8959450761	-0.5373166245	-0.344011
C	 1.9996003359	-0.7212689821	 0.7120436232	 0.466486
N	 2.9017367366	-0.9723783701	 1.7104106851	-0.578955
O	 0.8313453544	-0.1831669427	 1.1600713143	-0.272762
C	-1.2315116935	-0.5850679252	 0.0594745907	 0.326256
C	-2.2893256625	-1.1538815027	 0.0966136328	-0.482843
H	 0.817164581	 2.1307576273	-0.1484111373	 0.130543
H	-0.7407802794	 1.9007589284	-0.9766727607	 0.131464
H	-0.6856520016	 1.9907394698	 0.7962763991	 0.135153
H	 0.4706356189	-1.2367131465	-1.737542563	 0.118417
H	 1.1807929821	 0.3725172876	-1.9110015975	 0.108343
H	 3.6417121535	-1.6019534074	 1.4412470153	 0.268268
H	 2.4975810105	-1.1566299805	 2.6156370349	 0.263741
H	-3.2214357238	-1.6616635942	 0.1355919339	 0.201889
28.1444	152.1955	173.6077	223.4438	250.6008	317.4772	372.9447	398.1202	421.9308	493.2294	551.6388	560.9048	604.5783	618.3356	669.1964	707.4682	737.2641	811.7051	910.2647	928.522	967.4986	988.9628	1022.0359	1112.8826	1156.3335	1182.9601	1199.1288	1271.2069	1316.4035	1402.8005	1422.1987	1481.2236	1489.3303	1509.1241	1619.7551	1764.1778	2237.2626	3026.2223	3045.4923	3066.4592	3124.0305	3132.6594	3500.683	3589.3202	3702.3472
CC1(CN=C(N)O1)C#C	C[C@]1(CN=C(N)O1)C#C	
InChI=1S/C6H8N2O/c1-3-6(2)4-8-5(7)9-6/h1H,4H2,2H3,(H2,7,8)	InChI=1S/C6H8N2O/c1-3-6(2)4-8-5(7)9-6/h1H,4H2,2H3,(H2,7,8)/t6-/m1/s1
