16
gdb 28819	3.12652	1.41836	1.08451	3.0203	84.24	-0.235	-0.0825	0.1526	1114.0009	0.125152	-396.94308	-396.935194	-396.93425	-396.975659	29.56	
C	-0.4616066404	 1.3811872998	 0.163824128	-0.474996
C	-0.0147472002	-0.0444483045	-0.0221531033	 0.290546
N	-0.1279523482	-0.5812372247	-1.1875140948	-0.275133
C	 0.2222739071	-1.8807840089	-1.5025166429	-0.00011
C	 0.238848387	-2.964618779	-0.7015905169	-0.08831
C	-0.0289627343	-2.9296111077	 0.7430614451	 0.285531
N	-0.7159265911	-3.843109039	 1.3066647141	-0.494931
N	 0.6376062163	-1.9225157795	 1.4730509458	-0.231785
C	 0.6163962063	-0.6875583481	 1.14984455	-0.033037
H	 0.3751571	 2.0145551875	 0.4824157729	 0.140316
H	-0.8677436793	 1.766402689	-0.7715330262	 0.150595
H	-1.225641512	 1.4502869458	 0.9473914242	 0.143971
H	 0.3979993749	-2.0197629992	-2.5666131588	 0.118541
H	 0.397135392	-3.9455805575	-1.1386316684	 0.12689
H	-0.7323055366	-3.6849507251	 2.3177913933	 0.220843
H	 1.1429628386	-0.0023956389	 1.8219251679	 0.12107
74.5675	135.3545	190.7579	282.4105	320.875	332.0957	409.1135	449.5376	482.6733	623.0285	654.3231	692.4736	779.4229	820.6511	868.4571	905.5358	910.6155	937.4699	963.6628	998.0804	1053.2203	1062.9941	1136.3813	1228.4617	1283.8774	1337.7695	1401.0526	1420.7204	1439.5771	1470.7853	1477.7691	1595.9019	1650.6263	1701.6422	1712.8381	3029.5569	3075.0419	3082.4231	3154.3401	3156.7436	3189.2191	3443.5391
CC1=NC=CC(=N)N=C1	CC1=NC=C[C]([NH])N=C1	
InChI=1S/C6H7N3/c1-5-4-9-6(7)2-3-8-5/h2-4,7H,1H3	InChI=1S/C6H7N3/c1-5-4-9-6(7)2-3-8-5/h2-4,7H,1H3
