15
gdb 124299	5.04333	0.94189	0.80263	5.1999	67.66	-0.2695	-0.0371	0.2324	1349.7513	0.110302	-453.945733	-453.937173	-453.936229	-453.980905	29.507	
C	 0.0987454606	 1.539301842	-0.0068269638	-0.475983
C	-0.2898563554	 0.0745704752	 0.0279294451	 0.388363
O	-1.0685849848	-0.3677911059	 0.8374328775	-0.274975
C	 0.3725316613	-0.7960095818	-1.0411247086	-0.449159
C	 0.1342776841	-2.2627713048	-0.9266481309	 0.42051
C	-0.6545233932	-3.0622228016	-0.1570329793	-0.190556
N	-0.4123227133	-4.3576995656	-0.5538153967	-0.112351
N	 0.4358633854	-4.3974256256	-1.4761059884	-0.012996
O	 0.8289320581	-3.0407489038	-1.7604644315	-0.226262
H	 1.1562218446	 1.6494837885	 0.2605184187	 0.151148
H	-0.0202089753	 1.9541110295	-1.0134706185	 0.143461
H	-0.5125684413	 2.0979762595	 0.7020199036	 0.153595
H	 0.0213046092	-0.4407820206	-2.0208649392	 0.163474
H	 1.4519597342	-0.597518022	-1.0469041298	 0.157079
H	-1.3475270641	-2.809463613	 0.6222944317	 0.16465
29.8634	46.2569	109.0833	160.8707	248.4458	308.4453	327.0649	459.0296	565.935	627.8815	656.9288	703.5825	755.261	831.5982	847.0531	865.2238	966.2876	990.424	1051.4658	1057.6852	1115.9059	1167.9885	1217.4268	1227.5685	1318.7917	1384.1891	1394.3061	1442.1497	1463.608	1464.1725	1475.8909	1607.6127	1822.6413	3018.8381	3039.016	3054.1304	3099.842	3158.8993	3335.5961
CC(=O)CC1=CN=NO1	CC(=O)Cc1cnno1	
InChI=1S/C5H6N2O2/c1-4(8)2-5-3-6-7-9-5/h3H,2H2,1H3	InChI=1S/C5H6N2O2/c1-4(8)2-5-3-6-7-9-5/h3H,2H2,1H3
