23
gdb 113814	3.793	0.8005	0.71505	1.416	87.39	-0.2395	0.0808	0.3203	1666.8588	0.204727	-388.260172	-388.250147	-388.249203	-388.2957	37.639	
C	 0.1044891726	 1.5792744697	 0.0598557491	-0.373429
C	-0.2540397198	 0.1096203016	-0.190550644	-0.189009
C	 0.5812801928	-0.5127875225	-1.2911964797	 0.00747
C	 1.9381600336	-1.1098220567	-0.9952022414	-0.308087
C	 0.7971792119	-2.0054741242	-1.4207590639	-0.016049
C	 0.2001741481	-2.9895960228	-0.4637654547	-0.022058
C	-1.0838968856	-3.72548349	-0.8145391878	-0.338555
C	 0.2314235934	-4.4619492341	-0.7706007301	 0.087216
O	 0.8435213754	-4.8481034063	-1.9680866307	-0.415263
H	 1.1553123206	 1.6826569388	 0.3500981677	 0.116997
H	-0.0488112872	 2.1819454027	-0.8423314215	 0.111794
H	-0.5108377702	 2.0102085369	 0.8561460614	 0.106576
H	-0.1278754286	-0.4563854132	 0.7397732693	 0.090818
H	-1.3184320997	 0.0321462365	-0.4492717373	 0.095078
H	 0.5050369606	 0.0171665851	-2.2391115801	 0.074129
H	 2.7582272331	-0.9418529496	-1.6848325569	 0.106618
H	 2.241379794	-1.1552221818	 0.0473937734	 0.102877
H	 0.852494837	-2.3838270471	-2.4359825467	 0.0912
H	 0.3258523113	-2.7441153372	 0.5865726838	 0.083255
H	-1.8215410294	-3.908964173	-0.0405188216	 0.1068
H	-1.4952656689	-3.5352807662	-1.8009819137	 0.111733
H	 0.4033998852	-5.1429150788	 0.0632750932	 0.08242
H	 0.3179130698	-5.5569539181	-2.3525576175	 0.287469
43.0659	85.9363	107.1641	181.1727	191.9969	234.4239	284.915	310.8107	340.7868	410.6424	465.6306	484.0073	617.5695	751.4766	761.9055	797.2256	811.8518	843.7807	863.5161	920.4575	951.7329	962.6482	996.8738	1019.9847	1046.2987	1049.5869	1062.9872	1070.5053	1119.3185	1132.8477	1146.0702	1175.7631	1202.0736	1207.0975	1233.6023	1253.425	1296.5886	1299.301	1316.2191	1344.9374	1407.6858	1414.3981	1419.696	1449.0997	1481.0535	1487.8282	1497.9037	1501.4609	1508.1153	3018.3951	3030.1522	3054.5874	3092.7409	3097.1184	3102.9958	3116.9436	3119.2319	3125.5515	3147.6407	3166.5877	3204.6196	3214.908	3810.0154
CCC1CC1C1CC1O	CC[C@H]1C[C@H]1[C@H]1C[C@H]1O	
InChI=1S/C8H14O/c1-2-5-3-6(5)7-4-8(7)9/h5-9H,2-4H2,1H3	InChI=1S/C8H14O/c1-2-5-3-6(5)7-4-8(7)9/h5-9H,2-4H2,1H3/t5-,6+,7+,8+/m0/s1
