22
gdb 110449	2.98806	1.26882	1.06587	1.6995	85.08	-0.2316	0.0861	0.3177	1246.6721	0.194561	-367.15269	-367.144064	-367.143119	-367.185775	33.737	
C	 0.0216231996	 1.5658016696	-0.0221739486	-0.384113
C	 0.1256836879	 0.0368053886	-0.0010772524	-0.19401
C	 0.6938357939	-0.5476553405	-1.2952898243	 0.006754
C	 0.6337660252	-2.0769600239	-1.3379925156	-0.054987
C	-0.6892176176	-2.0651237264	-2.0033594867	-0.051719
C	-0.3207749508	-0.604700003	-2.4752109362	-0.105441
C	 0.4538020205	-1.3207125068	-3.6047932786	 0.084861
C	 1.7738574582	-0.8139555873	-4.1580420012	-0.420734
N	 0.4896753449	-2.5681284263	-2.7582504565	-0.171436
H	 1.002601498	 2.0272427182	-0.1808131156	 0.115333
H	-0.6393866254	 1.9126947023	-0.823477396	 0.116177
H	-0.3757326313	 1.947492113	 0.9233736779	 0.113265
H	 0.7654034607	-0.2692566141	 0.837297465	 0.093789
H	-0.861232854	-0.4023074002	 0.1939361884	 0.097794
H	 1.6597982417	-0.0757739375	-1.5115050351	 0.059965
H	 1.0403612373	-2.7894322452	-0.6311347448	 0.091886
H	-1.6067789086	-2.6208252433	-1.8635866864	 0.093845
H	-0.9977596349	 0.2263939182	-2.6692259099	 0.066836
H	-0.2275071283	-1.5449707982	-4.4333758597	 0.077495
H	 2.5139431443	-0.6303290299	-3.3758273975	 0.123169
H	 2.1949505988	-1.5541154005	-4.84616236	 0.12677
H	 1.62453386	 0.1180102334	-4.714779286	 0.114502
100.9311	136.1453	177.7125	189.764	243.2756	279.3445	313.9696	386.7171	517.8702	564.5457	693.2857	748.2483	763.0364	791.4044	826.24	864.317	881.0558	891.4092	930.9708	942.0678	974.5664	1007.2736	1039.0771	1044.5876	1076.3031	1091.1958	1104.4315	1131.1032	1149.5413	1159.7698	1176.226	1204.7069	1236.1419	1263.1023	1278.378	1295.0057	1322.2499	1362.1188	1390.4328	1399.4292	1411.6729	1413.1919	1486.2384	1486.7422	1500.0222	1500.6579	1507.1283	3015.003	3026.3987	3032.4953	3036.2573	3041.8188	3050.8187	3098.5804	3101.2095	3103.5396	3121.003	3124.5732	3190.58	3206.6805
CCC1C2C3C1C(C)N23	CC[C@H]1[C@H]2[C@H]3[C@@H]1[C@@H](C)N23	
InChI=1S/C8H13N/c1-3-5-6-4(2)9-7(5)8(6)9/h4-8H,3H2,1-2H3	InChI=1S/C8H13N/c1-3-5-6-4(2)9-7(5)8(6)9/h4-8H,3H2,1-2H3/t4-,5-,6-,7+,8-,9?/m1/s1
