20
gdb 68230	3.11165	1.71318	1.4352	0.4098	77.81	-0.206	0.0873	0.2934	983.9621	0.172301	-403.09172	-403.08439	-403.083446	-403.122806	30.949	
C	-0.1458196513	 1.5389579418	-0.0423254364	-0.471154
C	 0.0661749642	 0.0466369426	 0.0325746186	 0.409127
C	 1.1267853633	-0.6808219932	-0.8329236965	-0.217929
N	 1.2377624334	-1.7256293887	 0.2656071533	-0.139335
C	 0.8136167367	-0.6274176379	 1.209097294	-0.228084
C	 0.126514086	-2.6391667588	-0.006302839	-0.024095
C	-1.0171879331	-2.8619129966	 0.9504851199	-0.337798
C	-1.2024842526	-1.9713678132	-0.2617375563	 0.094987
O	-1.2211736029	-0.569316674	-0.1241876614	-0.304937
H	 0.798024542	 2.0693948921	 0.1144681194	 0.113507
H	-0.5486859712	 1.8211525678	-1.0198023595	 0.126514
H	-0.8593953076	 1.8605702388	 0.7223946399	 0.128126
H	 0.8285439616	-1.0657887983	-1.8109320152	 0.106512
H	 2.0608197519	-0.1183057655	-0.914417199	 0.104198
H	 1.7037806541	-0.0728349494	 1.5210288105	 0.105696
H	 0.2472553422	-0.9196362252	 2.0932883236	 0.107694
H	 0.4309844638	-3.4743774214	-0.6308772215	 0.094932
H	-1.4878676494	-3.8390327316	 0.9147331227	 0.112906
H	-1.0134805575	-2.4125491935	 1.9353422426	 0.123992
H	-1.8674915535	-2.3002154457	-1.0541825597	 0.095141
198.5006	203.6563	262.8224	307.1877	369.539	440.2146	475.1034	500.8364	519.4799	613.831	682.1065	757.4072	786.4293	818.2523	835.5562	868.3404	910.1426	921.7972	951.3046	973.1315	994.6348	999.1309	1022.9672	1069.2706	1100.5739	1128.4549	1147.0188	1157.588	1185.2975	1207.6299	1225.9581	1233.2549	1246.5305	1279.2576	1340.8742	1357.4477	1386.032	1412.3209	1464.905	1479.7519	1489.1036	1493.8161	1520.8039	3039.4383	3053.3926	3061.2649	3112.6508	3115.605	3120.5667	3129.5088	3136.8655	3141.8072	3153.1421	3228.9959
CC12CN(C1)C1CC1O2	C[C@@]12CN(C1)[C@H]1C[C@H]1O2	
InChI=1S/C7H11NO/c1-7-3-8(4-7)5-2-6(5)9-7/h5-6H,2-4H2,1H3	InChI=1S/C7H11NO/c1-7-3-8(4-7)5-2-6(5)9-7/h5-6H,2-4H2,1H3/t5-,6+/m0/s1
