16
gdb 66280	2.05224	1.7076	1.42476	5.7794	70.3	-0.253	-0.0014	0.2516	1002.6787	0.125555	-434.094223	-434.085883	-434.084939	-434.127063	31.303	
O	 0.3142835157	 1.4100673228	 0.3328557148	-0.457669
C	 0.0135583577	 0.0859454986	 0.0113098346	 0.224997
C	-1.4856950037	-0.1688799292	-0.2464768167	-0.256158
C	-1.4768215401	-1.3616363354	-1.222479569	-0.185865
N	-0.2270713386	-1.1586861925	-1.9516781617	-0.3265
C	 0.6503615298	-0.3217385188	-1.3327050141	 0.3561
N	 1.7762049111	 0.1758995679	-1.6509638704	-0.572838
C	 0.5101880592	-0.8424819617	 1.0603778179	 0.25624
N	 0.8698925776	-1.5760250867	 1.877896498	-0.340617
H	 1.1699358525	 1.5817780108	-0.0981936428	 0.300558
H	-2.0556636572	-0.3627984401	 0.6618732325	 0.136165
H	-1.8792893241	 0.7267971437	-0.7338802607	 0.134589
H	-1.4815137244	-2.3191558636	-0.6856792952	 0.133225
H	-2.3346608044	-1.3458683817	-1.9004480745	 0.12505
H	 0.0099173428	-1.6759676387	-2.7817190506	 0.254647
H	 2.113670176	-0.1137703656	-2.5673515419	 0.218076
94.0479	137.5021	154.1673	218.3479	288.2742	357.4358	391.7172	424.0617	487.7875	511.9763	572.2323	653.801	663.1746	688.4395	736.7462	816.5184	856.9942	943.5234	961.1906	1030.8443	1059.2217	1123.6989	1134.1547	1169.9034	1230.1231	1237.0723	1303.0086	1319.3419	1398.4193	1429.3513	1441.6242	1488.1533	1529.9917	1767.1789	2348.4162	3022.6305	3077.144	3088.6758	3148.0421	3497.0905	3653.7423	3656.5084
OC1(CCNC1=N)C#N	O[C@]1(CCN[C]1[NH])C#N	
InChI=1S/C5H7N3O/c6-3-5(9)1-2-8-4(5)7/h9H,1-2H2,(H2,7,8)	InChI=1S/C5H7N3O/c6-3-5(9)1-2-8-4(5)7/h9H,1-2H2,(H2,7,8)/t5-/m1/s1
