17
gdb 130456	3.06867	1.28668	0.95259	5.1658	71.04	-0.2096	0.0056	0.2152	1198.1999	0.137862	-455.135915	-455.127949	-455.127005	-455.168722	30.331	
N	 0.5817576495	 1.6477044132	 1.0877902538	-0.506574
H	 1.1824033258	 0.8455436487	 1.2515878415	 0.249797
H	 0.7827507739	 2.9867674788	 2.2473159993	 0.305811
H	 0.8290209814	 2.0131527859	 0.1718737147	 0.247125
C	-0.8395462575	 1.2444677191	 1.1022584712	-0.169239
C	-1.7560774344	 2.4755554506	 1.1101958825	-0.313253
C	-1.767321285	 3.2451713923	 2.4002109745	 0.272218
N	-2.9190532847	 3.5214903147	 2.972279621	-0.199182
O	-2.6273737983	 4.2599388345	 4.1016143153	-0.172071
C	-1.2876408091	 4.4063595577	 4.2003408607	-0.013222
C	-0.6733593601	 3.7872438423	 3.1552311445	 0.121828
O	 0.6448326517	 3.7217153059	 2.8979047111	-0.450967
H	-1.0971324048	 0.6102455174	 0.2423014491	 0.1042
H	-1.0092809667	 0.6514781671	 2.0064220582	 0.131013
H	-1.4575616986	 3.1381288759	 0.2850376651	 0.114605
H	-2.7839212115	 2.1641718144	 0.9031347957	 0.136118
H	-0.9225426315	 4.9645670016	 5.0461779719	 0.141795
61.6598	169.6298	230.8876	249.89	302.1707	320.5341	381.1246	463.4501	489.7538	609.7704	638.6835	717.8812	736.9756	785.8473	855.6427	867.582	911.7665	918.0795	970.6626	980.6762	1030.4756	1079.1579	1137.3612	1152.2476	1217.7591	1271.1751	1297.3068	1325.9768	1369.0027	1402.563	1416.2748	1468.5598	1505.8486	1516.9603	1529.682	1650.8544	1698.8787	3001.377	3010.4996	3083.1283	3095.4927	3248.245	3279.6073	3492.1941	3571.1203
[NH3+]CCC1=NOC=C1[O-]	NCCc1nocc1O	
InChI=1S/C5H8N2O2/c6-2-1-4-5(8)3-9-7-4/h3,8H,1-2,6H2	InChI=1S/C5H8N2O2/c6-2-1-4-5(8)3-9-7-4/h3,8H,1-2,6H2
