16
gdb 66207	2.38186	1.53003	1.39668	2.361	70.34	-0.2485	0.0184	0.2669	1007.326	0.12363	-437.852251	-437.843838	-437.842894	-437.885036	31.654	
O	-0.0546309034	 1.388681288	 0.0478699648	-0.451043
C	 0.0363031001	-0.0326707252	-0.0385535848	 0.133124
C	 0.7547665912	-0.5644245599	 1.218251931	-0.106863
O	 0.6813599888	-1.9875487785	 1.3126103023	-0.219831
C	-0.508457626	-2.5294272734	 0.9483812317	 0.137896
N	-1.4978679177	-1.9819402999	 0.3867946737	-0.268468
C	-1.4049461517	-0.5816897191	 0.0011784702	-0.176427
C	 0.7426003915	-0.4441318727	-1.2525441188	 0.320826
C	 1.3505799149	-0.7451828856	-2.2449278523	-0.494629
H	 0.7322649133	 1.7640250544	-0.3616507044	 0.289838
H	 1.8158473437	-0.3075844095	 1.2115662522	 0.120494
H	 0.2782983068	-0.1091947826	 2.0943616092	 0.123262
H	-0.5257396805	-3.5862026856	 1.2060513421	 0.128244
H	-1.9708905353	 0.036309945	 0.7086072099	 0.128413
H	-1.8760125925	-0.4553712618	-0.977552907	 0.126599
H	 1.8752550767	-1.0219192136	-3.1263981799	 0.208564
104.8341	128.6568	193.9433	222.4368	245.8588	318.5138	389.9422	437.183	467.0334	501.8207	583.6088	619.5921	632.1498	679.0421	712.3285	848.7471	940.4838	950.0992	968.9613	989.2891	996.8877	1098.3542	1136.4423	1152.8406	1173.1566	1242.3125	1280.1917	1342.7115	1374.3862	1394.0995	1412.9717	1479.053	1503.0305	1742.7664	2231.4816	3037.6546	3044.8023	3088.8443	3117.919	3167.7113	3498.8228	3816.1536
OC1(COC=NC1)C#C	O[C@]1(COC=NC1)C#C	
InChI=1S/C6H7NO2/c1-2-6(8)3-7-5-9-4-6/h1,5,8H,3-4H2	InChI=1S/C6H7NO2/c1-2-6(8)3-7-5-9-4-6/h1,5,8H,3-4H2/t6-/m1/s1
