19
gdb 96381	2.30848	1.6679	1.26125	1.676	70.8	-0.2483	0.0522	0.3005	1057.8525	0.159609	-460.139219	-460.130939	-460.129995	-460.171839	31.973	
O	 0.0761560476	 1.4503769194	-0.1331380205	-0.437697
C	 0.0063954702	 0.0316406079	-0.0184709555	 0.040458
C	 0.7137852356	-0.4981895256	 1.2378145076	-0.242126
C	-0.1162617736	-0.2080300614	 2.4923716292	-0.084834
O	-1.416704806	-0.7633911369	 2.3980865745	-0.239369
C	-2.1523003541	-0.234094935	 1.3082649295	-0.158025
C	-1.439811716	-0.4530170794	-0.0099149514	 0.403473
C	-2.1867913191	-0.575039862	-1.2617154436	-0.24369
O	-1.6453283108	-1.7351961729	-0.6200077368	-0.276529
H	-0.1850734115	 1.8424966414	 0.706322128	 0.281199
H	 0.4922063974	-0.3561345019	-0.9184284008	 0.094993
H	 0.8339659801	-1.5828093443	 1.1430900031	 0.126153
H	 1.7087343906	-0.0481584331	 1.3201219211	 0.104831
H	 0.3440794694	-0.6516200399	 3.3789826841	 0.11804
H	-0.1839778112	 0.881842408	 2.6755630627	 0.074429
H	-3.1193137589	-0.742440428	 1.3034246405	 0.120111
H	-2.3281969169	 0.8473583064	 1.4563885796	 0.084785
H	-3.2741382873	-0.5055822797	-1.2555596997	 0.113179
H	-1.7094581055	-0.2854873429	-2.1968109016	 0.120618
99.4873	177.3952	207.9445	218.8685	280.9832	304.8973	385.4823	407.5305	441.3267	486.9019	583.5441	620.034	766.3845	828.0332	859.0546	881.0384	911.0864	970.3671	992.734	1014.5359	1042.7841	1068.6252	1100.9905	1121.5671	1132.5015	1164.1176	1216.1347	1235.8696	1267.616	1296.9752	1316.2977	1329.6248	1362.93	1373.7264	1408.5259	1412.4878	1454.4141	1464.569	1479.2769	1504.2085	1531.9512	2917.8847	2940.7427	3044.7025	3074.6413	3081.3554	3092.1099	3096.5598	3104.268	3167.4798	3817.6683
OC1CCOCC11CO1	O[C@H]1CCOC[C@]21CO2	
InChI=1S/C6H10O3/c7-5-1-2-8-3-6(5)4-9-6/h5,7H,1-4H2	InChI=1S/C6H10O3/c7-5-1-2-8-3-6(5)4-9-6/h5,7H,1-4H2/t5-,6+/m0/s1
