17
gdb 40635	3.59019	1.30861	1.26841	2.3482	72.53	-0.2349	0.0225	0.2575	1052.4218	0.137536	-417.955587	-417.948415	-417.94747	-417.987699	27.576	
C	 0.4598860432	 1.7656526946	 0.2558072169	-0.222374
C	 1.0478872814	 0.5033339257	-0.2762513324	-0.217849
N	-0.3287241205	 0.5393980531	 0.2031366981	-0.048606
C	-0.5997079839	-0.1087687763	 1.4452510528	-0.013975
C	-1.9995659925	-0.107159872	 1.9958122856	 0.014703
O	-3.03387743	 0.1852415219	 1.0727867542	-0.204401
C	-2.9766346077	-0.8053010315	 0.1432257438	 0.118387
N	-2.1427016358	-1.7511718619	 0.3007974254	-0.253833
C	-1.3862081217	-1.4121790546	 1.4805144724	-0.078762
H	 0.8099057779	 2.1071527665	 1.2286297442	 0.110887
H	 0.1449075844	 2.557427677	-0.417737748	 0.121682
H	 1.169575907	 0.3560582806	-1.3452915502	 0.123564
H	 1.790295865	 0.0004215678	 0.3411137755	 0.112192
H	 0.1697432195	-0.0504109736	 2.22139257	 0.082069
H	-2.2444741875	 0.1728607944	 3.0123445751	 0.111651
H	-3.6834748114	-0.7033572907	-0.6701461294	 0.143135
H	-1.0371340474	-2.2339558311	 2.094027826	 0.101529
72.0469	141.0151	171.7304	307.9055	340.471	454.3141	618.8435	646.3131	742.5107	763.7247	791.034	816.1626	871.3071	890.3465	908.9229	938.4936	966.0928	1014.4922	1019.0293	1049.6892	1075.6469	1088.8881	1110.4346	1116.612	1121.2863	1130.7166	1165.9418	1175.903	1215.1725	1285.9338	1321.5042	1334.6027	1360.8492	1423.1709	1493.9318	1521.0505	1670.8463	3047.5727	3096.0688	3101.0027	3179.8375	3180.9469	3194.3329	3195.6257	3238.8969
C1CN1C1C2OC=NC12	C1CN1[C@H]1[C@H]2OC=N[C@@H]12	
InChI=1S/C6H8N2O/c1-2-8(1)5-4-6(5)9-3-7-4/h3-6H,1-2H2	InChI=1S/C6H8N2O/c1-2-8(1)5-4-6(5)9-3-7-4/h3-6H,1-2H2/t4-,5+,6-/m0/s1
