20
gdb 41879	3.003	1.52273	1.11669	2.3624	78.58	-0.2372	0.0225	0.2597	1106.6416	0.174388	-403.143289	-403.1357	-403.134756	-403.175468	29.944	
C	-0.0540967902	 1.4803175511	-0.272788952	-0.245099
C	 1.4446040411	 1.6243042939	 0.1197012213	-0.236786
C	 1.4224306034	 0.1826011146	 0.7067089075	-0.00172
C	 1.4281664838	 0.1008852402	 2.2319032815	-0.183492
N	 1.1988949459	-1.2405678053	 2.7639054258	-0.26466
C	 0.2913922917	-2.023709919	 2.3712629126	 0.133849
O	-0.7220735246	-1.9067898223	 1.4706954254	-0.228522
C	-1.0552315548	-0.6026101084	 0.9645441686	-0.099685
C	 0.0194245199	-0.0402047715	 0.0568629712	 0.010295
H	-0.7265076352	 2.0250677219	 0.3972997685	 0.100163
H	-0.3182105775	 1.7419750639	-1.2994611109	 0.104801
H	 2.1041435371	 1.7216452767	-0.7459059284	 0.103901
H	 1.6883140858	 2.4253949701	 0.8231093149	 0.100226
H	 2.2007511059	-0.4824428805	 0.3224017109	 0.079073
H	 2.4092741082	 0.428264638	 2.5961418564	 0.105714
H	 0.7075429716	 0.8105130174	 2.6615270783	 0.101248
H	 0.2435840336	-3.0289498232	 2.7919757496	 0.117946
H	-1.9966535966	-0.7442776052	 0.4257127166	 0.114648
H	-1.2568277909	 0.0666285742	 1.8088838929	 0.108974
H	 0.0884093916	-0.6549515667	-0.8453075308	 0.079125
75.595	183.4467	219.2478	273.083	334.1149	377.2942	398.6086	515.4917	579.79	684.4601	744.0694	775.7112	833.1262	866.3323	924.4287	939.4724	950.706	967.1491	975.9447	1004.0925	1013.5776	1034.9762	1087.3656	1153.2618	1163.7527	1167.7275	1219.3897	1244.1971	1251.8135	1263.5513	1282.5536	1286.7777	1301.316	1346.2983	1366.3276	1381.0712	1411.4351	1432.0891	1481.5538	1493.2751	1499.2326	1524.1178	1750.4395	3005.1411	3037.9218	3043.3248	3052.5684	3056.2981	3059.8854	3070.822	3093.1025	3100.2231	3117.946	3132.1321
C1CC2CN=COCC12	C1C[C@H]2CN=COC[C@@H]12	
InChI=1S/C7H11NO/c1-2-7-4-9-5-8-3-6(1)7/h5-7H,1-4H2	InChI=1S/C7H11NO/c1-2-7-4-9-5-8-3-6(1)7/h5-7H,1-4H2/t6-,7+/m0/s1
