18
gdb 85092	1.87752	1.62542	1.18187	5.2283	77.05	-0.261	-0.0433	0.2176	1139.1454	0.145563	-401.978077	-401.968679	-401.967734	-402.012246	34.265	
C	-0.6361071747	 1.2993262879	-0.019646159	-0.419426
C	 0.1108606084	-0.0223909564	-0.1031587742	-0.011308
C	 1.494184305	-0.0514828441	-0.8215788273	-0.371639
C	 2.0375006378	-0.9032935325	 0.3262047698	 0.393259
O	 3.0108911131	-1.566875082	 0.5011994039	-0.276552
C	 0.7738064538	-0.6167541852	 1.2105184314	 0.00001
C	 1.1101747042	 0.3944921224	 2.3218549143	-0.439995
C	 0.112623724	-1.7914459722	 1.7532539663	 0.252855
N	-0.42389454	-2.7301546898	 2.1642573762	-0.33755
H	-0.0098954607	 2.1007539454	 0.3840434436	 0.121724
H	-0.9649052595	 1.6085504564	-1.0170244887	 0.130853
H	-1.5271337533	 1.2144485638	 0.6104521156	 0.134627
H	-0.5412315503	-0.7872617231	-0.5322321494	 0.109962
H	 1.549042847	-0.5031582813	-1.8144315483	 0.144602
H	 1.9848730402	 0.9279679519	-0.8607161491	 0.139103
H	 1.6582843148	 1.2497913615	 1.9175782617	 0.128788
H	 0.1995296093	 0.7611231563	 2.802317501	 0.144152
H	 1.7362666208	-0.0837537692	 3.0786169222	 0.156533
64.157	116.5126	162.5649	208.0977	227.2879	231.0434	264.8959	293.5697	403.9407	444.3121	482.5891	553.0341	602.0165	614.977	663.3769	808.2214	850.035	878.8128	947.8069	984.2811	1037.4987	1061.8419	1094.6567	1130.0894	1166.6486	1177.1563	1219.2806	1231.9032	1294.1922	1370.7942	1406.2585	1418.3428	1442.1626	1485.9849	1488.7958	1500.661	1502.763	1905.6881	2347.1317	3037.8153	3049.2054	3052.1918	3075.3778	3105.3559	3111.1961	3119.7001	3125.9642	3134.4429
CC1CC(=O)C1(C)C#N	C[C@H]1CC(=O)[C@]1(C)C#N	
InChI=1S/C7H9NO/c1-5-3-6(9)7(5,2)4-8/h5H,3H2,1-2H3	InChI=1S/C7H9NO/c1-5-3-6(9)7(5,2)4-8/h5H,3H2,1-2H3/t5-,7+/m0/s1
