17
gdb 75483	2.80189	1.1664	0.89177	4.5426	72.85	-0.2589	-0.0007	0.2581	1289.9915	0.134532	-458.998568	-458.989737	-458.988793	-459.033006	31.025	
C	-0.1258058008	 1.459413218	 0.0828664299	-0.501445
C	-0.0086920105	-0.0258399021	 0.0015779376	 0.299254
C	 0.1935160903	-0.8198023333	-1.0466776474	-0.200341
C	 0.2750214186	-2.2514593697	-0.6104416941	-0.126717
O	-0.0057342857	-2.2152967261	 0.7944521783	-0.25435
C	-0.0444919137	-0.8935127154	 1.2352722252	 0.124797
O	 1.1211096732	-0.5739726095	 2.0282403595	-0.200079
C	 1.0936864294	-0.9389640159	 3.32680249	 0.179171
O	 2.0231247617	-0.7851785787	 4.0600607826	-0.275513
H	 0.6573444493	 1.8704265421	 0.7294764127	 0.154366
H	-0.0394240643	 1.9213159885	-0.9032268957	 0.13232
H	-1.0877419188	 1.7585717833	 0.5174170089	 0.131569
H	 0.3076571671	-0.5085380257	-2.077337749	 0.113519
H	-0.4702222974	-2.8967910658	-1.0928798854	 0.121997
H	 1.266124429	-2.6922463402	-0.7909005656	 0.125362
H	-0.9263156191	-0.7553153078	 1.8769119787	 0.093403
H	 0.1249281418	-1.3797773717	 3.6311359138	 0.082686
54.0337	104.4584	139.4239	168.4175	187.9236	255.7014	270.2941	374.5138	441.2836	526.383	620.1259	715.6666	789.0212	822.0151	939.0302	958.4916	971.5113	997.7962	1034.9706	1039.2324	1047.4772	1068.0503	1118.0998	1177.3523	1196.5823	1208.7111	1287.1005	1361.1015	1379.9927	1389.4037	1414.7485	1444.0715	1478.2431	1491.0529	1513.6813	1736.7405	1868.4707	2954.1863	3003.8957	3007.8975	3028.5546	3040.7622	3082.6097	3124.9922	3218.8246
CC1=CCOC1OC=O	CC1=CCO[C@H]1OC=O	
InChI=1S/C6H8O3/c1-5-2-3-8-6(5)9-4-7/h2,4,6H,3H2,1H3	InChI=1S/C6H8O3/c1-5-2-3-8-6(5)9-4-7/h2,4,6H,3H2,1H3/t6-/m0/s1
