16
gdb 126785	2.74303	1.35325	0.97669	1.8557	68.54	-0.2023	0.0357	0.238	1191.7138	0.123829	-471.21712	-471.2083	-471.207356	-471.251551	31.65	
C	-0.0869135509	 1.5928488604	-0.1975612704	-0.382008
C	 0.0858191996	 0.0781714496	-0.0675819879	-0.139989
N	 0.7540166062	-0.5178167152	-1.2046229216	-0.064905
N	 0.1036515304	-0.6303557158	-2.4398513173	-0.320792
C	 1.031548767	-1.0455171286	-3.2118696198	 0.484462
O	 0.9116331107	-1.3357678875	-4.5023199436	-0.396907
O	 2.2538490605	-1.2071832229	-2.6387512534	-0.252879
C	 2.0825314615	-0.8188308792	-1.2940282509	 0.460742
N	 2.9704448551	-0.7737076959	-0.3947861177	-0.608076
H	 0.8856787342	 2.0893362631	-0.2604346723	 0.132841
H	-0.6636064436	 1.838437242	-1.0934363105	 0.137832
H	-0.6186282962	 1.9867829487	 0.6740194079	 0.119414
H	 0.6974426574	-0.1734058691	 0.802149449	 0.151386
H	-0.8859244048	-0.4136014248	 0.0429347929	 0.124761
H	 1.7739279504	-1.6124046428	-4.8350362176	 0.324124
H	 3.8755319625	-1.0768785821	-0.7386773368	 0.229996
40.9907	68.4613	192.9029	208.468	235.7237	303.0148	304.776	342.5096	415.3514	572.6703	630.3312	663.3211	682.2274	683.9635	727.3686	789.8905	838.5295	942.916	983.7262	1020.1427	1061.0643	1101.7156	1166.2979	1221.2749	1252.9802	1350.1505	1391.9932	1409.3899	1419.6087	1435.8954	1474.3007	1491.2771	1504.7567	1753.9356	1822.3027	3043.8095	3057.0162	3111.4194	3117.806	3133.9399	3564.7422	3821.7828
CCN1N=C(O)OC1=N	CCN1N=C(O)O[C@@H]1[NH]	
InChI=1S/C4H7N3O2/c1-2-7-3(5)9-4(8)6-7/h5H,2H2,1H3,(H,6,8)	InChI=1S/C4H8N3O2/c1-2-7-3(5)9-4(8)6-7/h3,5H,2H2,1H3,(H,6,8)/t3-/m1/s1
