18
gdb 119307	2.32204	1.17231	0.91639	3.108	72.33	-0.2728	0.0048	0.2775	1312.0797	0.146369	-439.070086	-439.060556	-439.059612	-439.105354	33.435	
O	-0.1497623259	 1.4192322951	-0.2086637699	-0.421211
C	 0.0140079786	 0.011448882	-0.1389676158	-0.090395
C	-1.3697289452	-0.5824968838	 0.1055540469	-0.232073
C	-1.377144406	-2.1083581057	 0.1260201379	 0.25984
C	-2.7642107991	-2.8077547476	 0.0279277103	-0.334436
C	-2.2058090583	-3.4225267128	-1.2695269666	-0.068187
O	-0.9711368346	-2.6756428363	-1.1432620593	-0.30225
C	-0.5365895985	-2.6360542413	 1.2182852551	 0.270636
N	 0.1082730764	-3.0554638244	 2.0810427074	-0.343517
H	 0.7135824449	 1.8134002472	-0.3629862236	 0.290184
H	 0.4228709536	-0.3974483277	-1.0742323485	 0.111837
H	 0.6937891677	-0.2749565362	 0.6776216586	 0.110433
H	-1.7699774552	-0.2055402807	 1.053863391	 0.12483
H	-2.0423102622	-0.2542599401	-0.6934431034	 0.117293
H	-2.9992200692	-3.5053598085	 0.8306402083	 0.137982
H	-3.5881489889	-2.105621423	-0.1041349069	 0.12824
H	-2.0280101246	-4.5027741193	-1.2357292646	 0.122142
H	-2.7341480935	-3.171350157	-2.194503547	 0.118653
61.6208	86.9539	96.399	136.3418	199.9546	209.0057	253.8124	340.5676	375.1112	410.8095	539.3164	577.1967	708.2847	772.8834	797.201	867.3868	905.3772	974.0871	993.2867	1007.9879	1022.554	1066.512	1105.3621	1159.3483	1161.2406	1199.9388	1220.4587	1249.3315	1263.697	1271.6185	1319.9889	1339.2699	1354.4512	1465.581	1474.733	1488.0017	1530.2158	1531.4522	2349.5327	2987.6426	3022.9027	3039.0048	3045.0834	3085.2225	3094.7614	3096.3814	3157.2154	3833.6451
OCCC1(CCO1)C#N	OCC[C@]1(CCO1)C#N	
InChI=1S/C6H9NO2/c7-5-6(1-3-8)2-4-9-6/h8H,1-4H2	InChI=1S/C6H9NO2/c7-5-6(1-3-8)2-4-9-6/h8H,1-4H2/t6-/m0/s1
