23
gdb 80562	2.26723	1.36185	1.13421	1.2251	85.06	-0.2432	0.0775	0.3206	1241.1748	0.205604	-388.294525	-388.285038	-388.284093	-388.328365	37.073	
C	-0.1449219524	 1.5425069467	 0.0116030283	-0.420326
C	 0.0414000866	 0.043302471	 0.0789173072	-0.070126
C	 1.3284354455	-0.6885232318	-0.2950003126	-0.108751
C	 2.643042805	 0.0857449201	-0.3476657925	-0.250757
C	 3.1379343486	 0.1552975081	 1.1232768595	 0.071194
C	 4.0455638349	 1.3432698231	 1.4347663724	-0.40921
C	 1.8479520874	 0.0803488266	 1.9832437691	-0.312467
C	 0.8356905407	-0.6936651161	 1.1309546359	 0.379913
O	 0.3129738031	-1.8831941215	 1.6560784872	-0.472262
H	 0.7467585044	 2.0954897438	 0.3174488268	 0.119882
H	-0.3888334804	 1.8584740489	-1.0090389196	 0.117823
H	-0.9666275167	 1.8652707872	 0.661208105	 0.112612
H	-0.8418686817	-0.5168759621	-0.222123415	 0.08211
H	 1.2195394795	-1.5831670426	-0.8975934181	 0.088289
H	 3.3735063502	-0.4141382283	-0.9906419834	 0.097993
H	 2.5094151387	 1.0940850183	-0.759661069	 0.094543
H	 3.697992008	-0.7694823685	 1.3132331857	 0.077319
H	 3.5232213341	 2.292737757	 1.2650899316	 0.110319
H	 4.3783476046	 1.3304986536	 2.4782939142	 0.111638
H	 4.9395747216	 1.3397336041	 0.8016363275	 0.111569
H	 2.0160725224	-0.4548854616	 2.9216881413	 0.100816
H	 1.4927879792	 1.0854460404	 2.2441736344	 0.090762
H	-0.417350053	-1.6537197363	 2.2407306842	 0.277118
65.4836	140.1933	209.8092	228.8054	245.26	261.5537	273.5265	317.9184	386.0067	429.4126	466.8077	514.8954	540.2064	613.3816	727.9502	792.7987	822.9354	852.4827	893.462	930.6741	940.4375	959.2024	999.0498	1021.4586	1050.4505	1082.903	1107.8824	1124.4754	1131.3941	1157.7773	1177.8931	1241.3348	1252.0683	1258.2851	1295.077	1309.5027	1330.9453	1342.6261	1353.9612	1373.7561	1412.3053	1417.1994	1453.1872	1478.4014	1495.5466	1496.8887	1499.9015	1501.7025	1512.3096	3012.1813	3021.2775	3023.6039	3028.339	3032.7917	3078.2039	3082.9267	3086.246	3092.6051	3093.4717	3108.9587	3129.1414	3173.6192	3794.8828
CC1C2CC(C)CC12O	C[C@H]1[C@H]2C[C@@H](C)C[C@@]12O	
InChI=1S/C8H14O/c1-5-3-7-6(2)8(7,9)4-5/h5-7,9H,3-4H2,1-2H3	InChI=1S/C8H14O/c1-5-3-7-6(2)8(7,9)4-5/h5-7,9H,3-4H2,1-2H3/t5-,6+,7-,8-/m1/s1
