18
gdb 93162	2.46735	1.62434	1.1011	3.1935	74.53	-0.258	-0.0014	0.2566	1102.2866	0.149054	-439.096035	-439.087992	-439.087048	-439.128672	31.199	
O	 0.4887276877	-0.1535006423	 1.0877150108	-0.442651
C	-0.2365478569	-0.3305653549	-0.0990225083	 0.03986
C	-1.4006181116	 0.679251703	-0.150289105	-0.263663
C	-2.3921173863	 0.4893099952	-1.2618160868	-0.046876
C	-2.2537958832	-0.2665974191	-2.3496794291	-0.074064
C	-1.0437092544	-1.0785507378	-2.7354289558	-0.142851
O	 0.2232544224	-0.4242413686	-2.5386881745	-0.23838
C	 0.6859539185	-0.1689545735	-1.2979338746	 0.384042
N	 1.8657998171	 0.2460842444	-1.090064795	-0.542897
H	 1.3730825944	 0.1358743955	 0.8006341621	 0.295245
H	-0.6602972058	-1.3471073891	-0.1114320585	 0.093649
H	-1.9209627661	 0.6040282338	 0.8120331537	 0.126306
H	-0.98168382	 1.6947826598	-0.1769873226	 0.126642
H	-3.3235600678	 1.039546786	-1.1447052518	 0.099973
H	-3.0768178333	-0.320203983	-3.0576649014	 0.099496
H	-1.0297503438	-2.0543862754	-2.2315595308	 0.1286
H	-1.0636476742	-1.2765286111	-3.8093674498	 0.129216
H	 2.3986011835	 0.334895237	-1.9542468526	 0.228353
74.0613	140.3188	220.8353	283.4504	340.3906	360.9872	394.8652	437.1002	470.4077	548.0223	596.85	660.5684	691.4902	795.1835	804.9336	879.5667	885.5498	944.9265	995.6076	1011.6485	1025.0314	1041.5425	1085.2303	1134.9353	1152.2645	1193.271	1248.4486	1270.1583	1290.0199	1330.3148	1347.017	1384.5343	1419.5089	1426.5167	1469.4566	1485.6325	1500.8851	1732.6791	1739.6242	2979.8425	3017.3194	3020.9671	3058.6529	3101.2044	3142.3282	3167.5054	3502.2627	3623.1246
OC1CC=CCOC1=N	O[C@H]1CC=CCO[C]1[NH]	
InChI=1S/C6H9NO2/c7-6-5(8)3-1-2-4-9-6/h1-2,5,7-8H,3-4H2	InChI=1S/C6H9NO2/c7-6-5(8)3-1-2-4-9-6/h1-2,5,7-8H,3-4H2/t5-/m0/s1
