19
gdb 61279	2.10648	1.15637	0.86359	1.7374	77.64	-0.265	0.0169	0.2819	1405.6156	0.15487	-423.040582	-423.029864	-423.02892	-423.077844	37.251	
C	-0.0531004776	 1.5550840926	-0.0395554847	-0.412755
C	 0.0087726907	 0.0332294672	 0.0077728095	 0.135783
C	-1.3818378299	-0.6178661488	-0.033762202	-0.365448
C	-1.3446139335	-2.0679890336	 0.1069206353	 0.301856
C	-1.3028523769	-3.2618286127	 0.2356644968	-0.437895
O	 0.7175748016	-0.4660580546	-1.1485274048	-0.247999
C	 2.061672963	-0.5673381902	-1.0495057124	 0.436244
C	 2.6383711343	-1.1608428242	-2.3119369797	-0.478836
O	 2.6944687151	-0.2310960788	-0.0804438064	-0.356067
H	 0.9563573907	 1.9703063318	-0.0077144197	 0.144204
H	-0.5488520371	 1.8960441302	-0.9540958433	 0.122302
H	-0.6087027997	 1.94061787	 0.8209663286	 0.121132
H	 0.5493014673	-0.2918708007	 0.8998201671	 0.121281
H	-1.987395393	-0.1830769501	 0.7708640622	 0.133673
H	-1.8707431617	-0.3444361963	-0.9772053922	 0.136902
H	-1.2719221362	-4.3171968892	 0.3474485075	 0.19658
H	 2.3349241822	-0.5698369244	-3.1803610329	 0.147386
H	 3.7246767582	-1.1886174399	-2.2373440689	 0.14684
H	 2.2480045927	-2.1725750583	-2.45515939	 0.154817
37.8875	50.2998	68.5221	114.3543	149.6317	194.0086	231.2988	288.9786	344.127	367.6597	415.0681	464.4642	537.5642	611.5662	619.0088	638.0974	646.9526	820.0887	883.672	918.5427	957.392	988.5964	1028.61	1064.5786	1081.1534	1122.5492	1148.5295	1251.6668	1264.3068	1313.6858	1372.3218	1388.485	1400.3507	1408.516	1458.7673	1469.3733	1475.6074	1486.56	1500.6761	1821.0486	2242.8855	3027.211	3042.4475	3057.8367	3062.6302	3091.8645	3115.5863	3123.0438	3135.4712	3169.6055	3507.0376
CC(CC#C)OC(C)=O	C[C@@H](CC#C)OC(=O)C	
InChI=1S/C7H10O2/c1-4-5-6(2)9-7(3)8/h1,6H,5H2,2-3H3	InChI=1S/C7H10O2/c1-4-5-6(2)9-7(3)8/h1,6H,5H2,2-3H3/t6-/m0/s1
