18
gdb 69165	2.16794	1.70321	1.39231	2.7375	72.95	-0.2338	-0.0208	0.213	1032.2679	0.144966	-439.060263	-439.051	-439.050056	-439.093718	34.719	
C	-0.0208446763	 1.5326842867	 0.0578204221	-0.511156
C	 0.076168674	 0.0417658621	 0.0023378687	 0.307617
N	-0.7957922505	-0.8738006783	 0.7364541136	-0.370241
C	 0.6882822499	-0.9264354786	 0.9990637431	-0.266046
C	 1.2731606893	-1.7078542138	-0.1369829001	 0.413186
O	 2.158959793	-2.5084588639	-0.2512514725	-0.332983
C	 0.5894505102	-0.7822130864	-1.2069893389	 0.254004
C	-0.4137805225	-1.3592517628	-2.1864229773	-0.462361
O	 1.6221104495	-0.0513029035	-1.8506653601	-0.478405
H	 0.8770768808	 1.9807463845	-0.3742415425	 0.155567
H	-0.8867616196	 1.8890737291	-0.5115421975	 0.135115
H	-0.1275065447	 1.8830390399	 1.089863995	 0.119439
H	-1.1924578994	-0.358853014	 1.5238528357	 0.238054
H	 1.077547025	-0.7627547581	 1.9964540482	 0.115396
H	-1.2535815967	-1.8126964811	-1.6557902351	 0.144318
H	-0.78489555	-0.572441239	-2.8509440975	 0.121912
H	 0.0645738837	-2.1273868191	-2.803701963	 0.121971
H	 2.2655255144	-0.6919718238	-2.177183062	 0.294616
84.0569	174.5967	195.353	207.4817	227.4472	243.95	272.5996	318.2374	362.0173	403.6409	499.0369	529.5382	590.4785	688.9605	705.098	756.6839	802.8255	852.8702	944.3825	963.6013	991.9093	1013.9218	1050.1067	1096.1447	1112.4131	1130.0874	1174.224	1223.4292	1298.7768	1316.6285	1351.0394	1396.6322	1403.6419	1438.4953	1478.5323	1486.0938	1495.6473	1499.5836	1878.5616	3032.8666	3037.361	3093.9417	3102.4188	3127.2417	3136.367	3196.2378	3458.0077	3789.5528
CC12NC1C(=O)C2(C)O	C[C@]12N[C@H]1C(=O)[C@]2(C)O	
InChI=1S/C6H9NO2/c1-5-3(7-5)4(8)6(5,2)9/h3,7,9H,1-2H3	InChI=1S/C6H9NO2/c1-5-3(7-5)4(8)6(5,2)9/h3,7,9H,1-2H3/t3-,5-,6-/m0/s1
