15
gdb 54461	3.64883	1.3594	1.13243	2.6052	65.66	-0.2551	-0.0386	0.2165	1056.0408	0.10917	-457.681361	-457.673427	-457.672483	-457.714315	29.286	
C	 0.4706736079	 0.6394893337	 1.0373736583	-0.485454
C	-0.1233926522	 0.2810190427	-0.3058063367	 0.270003
O	 0.3991507201	 0.5519763097	-1.3668355232	-0.307821
C	-1.4185301436	-0.4387115838	-0.3062295375	 0.31841
O	-2.2430688799	-0.5239532913	 0.8610326398	-0.245714
C	-1.8027314593	-1.7396301257	 0.2932977664	-0.097587
C	-2.6780014328	-2.0608796272	-0.9839248483	-0.008587
O	-3.6308401769	-1.0142859793	-1.1329509687	-0.208103
C	-2.2973157891	-0.7792998941	-1.573293328	-0.066957
H	 1.4646112702	 1.063334698	 0.8913376301	 0.143735
H	-0.1746159226	 1.3656644287	 1.5431895573	 0.159334
H	 0.5247391854	-0.2365747835	 1.6914451993	 0.141287
H	-1.2279455124	-2.4279754211	 0.9014686252	 0.126848
H	-2.88355891	-3.0304160455	-1.418136851	 0.123834
H	-2.1089734347	-0.4681084612	-2.5911359528	 0.136771
74.7278	109.7669	156.2751	161.9142	323.7679	417.5507	435.9187	493.1465	582.0302	612.7403	699.2719	773.0727	799.4238	829.8736	846.7948	881.5136	915.9559	953.2253	978.7565	992.3741	1030.865	1046.21	1072.9027	1190.2491	1201.0254	1238.2679	1278.0671	1365.7621	1385.6638	1421.7409	1457.337	1469.2401	1783.7753	3045.3518	3107.0827	3157.6191	3192.2109	3207.9845	3230.7317
CC(=O)C12OC1C1OC21	CC(=O)[C@]12O[C@H]1[C@H]1O[C@@H]21	
InChI=1S/C6H6O3/c1-2(7)6-4-3(8-4)5(6)9-6/h3-5H,1H3	InChI=1S/C6H6O3/c1-2(7)6-4-3(8-4)5(6)9-6/h3-5H,1H3/t3-,4+,5-,6+/m0/s1
