15
gdb 131378	3.26294	1.57621	1.07995	3.4228	67.61	-0.1958	0.025	0.2208	1045.7325	0.115336	-453.944663	-453.937283	-453.936339	-453.976477	27.917	
O	 0.0096544376	 1.3540685994	 0.0318773319	-0.430226
C	 0.0534337081	 0.0061295089	 0.0736710388	 0.279377
N	 0.2658657597	-0.7287899549	-1.0177205788	-0.331229
N	 0.2190423307	-2.0267479911	-0.5992102632	-0.344052
C	 0.0199802321	-2.1029248443	 0.7371991038	 0.281138
C	-0.1064619331	-0.8246414298	 1.1981841643	 0.239066
O	-0.3886564916	-0.7197949924	 2.5320226131	-0.295743
C	-0.2023173549	-2.0654184355	 3.0464555111	-0.08742
C	-0.2276056328	-3.0771370585	 1.8453741692	-0.373283
H	 0.1536595405	 1.6092525262	-0.8881264158	 0.302436
H	 0.4347788874	-2.7514964218	-1.2593144978	 0.271376
H	 0.7727361641	-2.104762012	 3.5462563485	 0.117643
H	-0.986674934	-2.2515091352	 3.7824244713	 0.12243
H	-1.196870187	-3.582763829	 1.7485246047	 0.12595
H	 0.5373984432	-3.8494571798	 1.9697129692	 0.122537
125.6196	159.4544	243.3926	279.7439	299.5557	366.7973	435.2781	521.0366	616.3768	632.6326	649.7357	706.3935	760.0603	837.3816	847.7725	927.551	986.0438	1073.8979	1092.4717	1115.5979	1192.2289	1197.7553	1239.3569	1279.9325	1292.8586	1349.4109	1393.9341	1449.5925	1491.2896	1511.6744	1550.3117	1615.7061	1653.0436	3020.4113	3032.9639	3074.7001	3115.5285	3695.7859	3793.5479
OC1=NNC2=C1OCC2	Oc1n[nH]c2c1OCC2	
InChI=1S/C5H6N2O2/c8-5-4-3(6-7-5)1-2-9-4/h1-2H2,(H2,6,7,8)	InChI=1S/C5H6N2O2/c8-5-4-3(6-7-5)1-2-9-4/h1-2H2,(H2,6,7,8)
