19
gdb 62012	4.37103	0.65297	0.59472	2.3847	73.76	-0.2482	-0.0397	0.2085	1828.442	0.154797	-460.196008	-460.185454	-460.18451	-460.233444	36.166	
C	-0.0350543968	 1.5190887	-0.109710152	-0.473455
C	 0.0976734357	 0.0142336206	 0.0419399795	 0.374732
O	 1.170963453	-0.5221605378	 0.199034443	-0.291748
C	-1.1989427679	-0.7831535747	-0.0154666723	-0.300592
C	-0.9818619981	-2.2938573071	 0.0364187556	-0.199064
C	-2.3126765714	-3.0609954035	-0.038739926	 0.036842
O	-3.032939663	-2.7342374556	-1.1973611499	-0.435658
C	-2.0643275416	-4.5543831614	 0.0191670125	 0.138309
O	-2.4584383121	-5.2981167736	-0.8465723924	-0.259995
H	 0.9391007179	 1.9925628633	 0.0173260653	 0.143369
H	-0.4329860578	 1.7617184538	-1.1017404349	 0.143267
H	-0.7435654262	 1.9222869966	 0.6221968456	 0.136316
H	-1.8359569795	-0.449410365	 0.816999778	 0.118816
H	-1.7492798092	-0.5117055094	-0.9240705626	 0.145129
H	-0.3433347781	-2.5987970703	-0.7993703402	 0.123604
H	-0.4489778762	-2.5628540912	 0.9550164451	 0.113269
H	-2.906753958	-2.8116331562	 0.8618612892	 0.089906
H	-3.187444875	-3.5765092946	-1.654307038	 0.295403
H	-1.4982846758	-4.9270027141	 0.8970285846	 0.101551
33.2859	57.2947	85.4592	100.1653	124.4896	162.8572	246.4807	283.8003	332.2809	416.0906	435.8171	477.3885	498.0351	592.2929	734.7953	752.468	824.6084	853.9414	898.2755	942.3797	983.591	995.6849	1085.342	1112.1971	1158.8754	1178.0051	1201.8259	1254.4703	1302.3845	1312.2897	1354.4667	1380.3579	1387.4254	1402.3882	1439.6853	1451.262	1465.2094	1475.8267	1477.0719	1809.9838	1813.2805	2919.5588	2937.8908	3012.9139	3037.2698	3048.0625	3066.6973	3094.6923	3098.3634	3152.5655	3686.0983
CC(=O)CCC(O)C=O	CC(=O)CC[C@@H](O)C=O	
InChI=1S/C6H10O3/c1-5(8)2-3-6(9)4-7/h4,6,9H,2-3H2,1H3	InChI=1S/C6H10O3/c1-5(8)2-3-6(9)4-7/h4,6,9H,2-3H2,1H3/t6-/m1/s1
