15
gdb 79662	2.89816	1.53515	1.24336	3.9082	70.72	-0.2469	-0.0115	0.2354	1006.7431	0.111103	-416.707037	-416.699245	-416.698301	-416.739398	29.17	
C	-0.193125876	 1.5436206879	-0.0263865558	-0.308309
N	 0.1794398436	 0.1268914726	 0.0619587109	-0.105452
C	 1.3954969533	-0.5176201026	-0.2986822881	-0.148312
C	 2.7021951077	 0.1900014662	 0.2325147202	 0.000154
O	 2.3262749968	 1.3961785799	 0.9088776859	-0.223206
C	 2.2051755958	 0.1599669981	 1.6000683442	-0.051314
C	 0.8604708593	-0.5477331946	 1.1273369636	 0.165182
C	 0.245890541	-1.6055157159	 1.8658508293	 0.222213
N	-0.2135392866	-2.4558867735	 2.5022879882	-0.341845
H	 0.4750256121	 2.0864506026	-0.6972230518	 0.136836
H	-1.2151234504	 1.6015271103	-0.4149602368	 0.12457
H	-0.1582780496	 2.0251538963	 0.952180674	 0.139114
H	 1.3998224932	-1.3210531951	-1.0274766096	 0.128475
H	 3.704115051	 0.1108047673	-0.1680282146	 0.129186
H	 2.6990867688	 0.0301377307	 2.5543476106	 0.132709
108.9191	135.2712	160.6494	239.7402	259.8753	410.8399	451.95	481.15	539.3263	603.8106	701.3032	734.408	763.981	829.5351	859.0872	875.3559	947.1674	976.0583	987.8975	1008.0091	1044.4804	1137.749	1156.261	1171.3105	1218.6612	1231.777	1253.5612	1371.1024	1418.3745	1457.4333	1487.2255	1506.2682	2348.0231	3040.0326	3111.4624	3143.0862	3175.7456	3203.1493	3218.511
CN1C2C3OC3C12C#N	CN1[C@H]2[C@H]3O[C@H]3[C@@]12C#N	
InChI=1S/C6H6N2O/c1-8-4-3-5(9-3)6(4,8)2-7/h3-5H,1H3	InChI=1S/C6H6N2O/c1-8-4-3-5(9-3)6(4,8)2-7/h3-5H,1H3/t3-,4+,5-,6+,8?/m1/s1
