13
gdb 27654	3.09095	1.30215	0.91813	6.228	68.62	-0.2084	-0.0029	0.2054	1156.2404	0.091343	-448.983202	-448.975242	-448.974297	-449.015601	29.5	
N	 0.0994464369	 1.3900687086	 0.2131492706	-0.613346
C	 0.0089049213	 0.016952656	 0.039382449	 0.258157
C	-1.0591259893	-0.8512094027	-0.0308393203	 0.127666
N	-0.6115738777	-2.177952277	-0.098760449	-0.415704
C	 0.6788840313	-2.081368814	-0.0813095366	 0.437782
O	 1.5768976492	-3.0737799614	-0.1409098639	-0.423564
N	 1.1292007657	-0.7882864873	-0.000811169	-0.341021
C	-2.4175534626	-0.467096268	-0.0370772005	 0.198059
N	-3.5144198482	-0.0889231796	-0.0419036667	-0.364342
H	 0.6320508102	 1.8634419964	-0.5089487336	 0.25841
H	-0.8188346504	 1.8116397506	 0.2862758039	 0.275199
H	 1.0746757834	-3.8971283763	-0.198064223	 0.321407
H	 2.0844195701	-0.4946994153	 0.1200065192	 0.281298
131.5614	144.7983	217.7632	231.8955	302.3675	362.6374	415.2841	441.1608	472.6489	531.2134	542.2966	621.9485	664.4326	702.4935	719.4393	775.0582	829.2364	1040.9726	1095.031	1180.7792	1204.6597	1287.9081	1311.7869	1470.3318	1535.0578	1619.8159	1657.2826	1669.8779	2329.	3512.9483	3608.7128	3664.6816	3799.6959
NC1=C(N=C(O)N1)C#N	Nc1c(nc(O)[nH]1)C#N	
InChI=1S/C4H4N4O/c5-1-2-3(6)8-4(9)7-2/h6H2,(H2,7,8,9)	InChI=1S/C4H4N4O/c5-1-2-3(6)8-4(9)7-2/h6H2,(H2,7,8,9)
