18
gdb 17696	4.92801	1.97463	1.93289	0.289	74.81	-0.2288	0.1005	0.3294	786.9354	0.155504	-310.601304	-310.595119	-310.594174	-310.631106	25.925	
C	 0.071093852	 1.5442551026	 0.0346673264	-0.526862
C	-0.0244061319	 0.0543527833	-0.0059279305	 0.351901
C	 0.8898202369	-1.0091882994	-0.5776582674	-0.123661
C	 0.5107622066	-1.02538802	 0.9114468005	-0.123659
C	-0.769616157	-1.8899210585	 0.85722493	-0.049366
C	-0.5144147944	-3.0260222771	-0.164106626	-0.24149
C	-0.2561417547	-1.8680434754	-1.1597826863	-0.049373
C	-1.2020337334	-0.9289919036	-0.3164157094	-0.111194
H	 1.0871767925	 1.8614945569	 0.2953551843	 0.118985
H	-0.1755392034	 1.9904767163	-0.93624617	 0.117694
H	-0.6100797425	 1.9716306611	 0.7803002753	 0.117693
H	 1.9147866588	-0.9174627235	-0.9144776583	 0.077615
H	 1.2495054232	-0.9459124301	 1.6990740573	 0.077618
H	-1.3463835669	-2.0330097126	 1.7702501774	 0.060089
H	 0.2912239639	-3.7404838512	 0.0332378589	 0.088398
H	-1.4380027219	-3.5633051213	-0.4050447962	 0.092689
H	-0.3254542726	-1.9895140924	-2.2401484241	 0.060088
H	-2.2304149852	-0.687279195	-0.5755959519	 0.062835
210.2364	221.143	248.9061	422.9424	558.5283	565.9075	712.7585	758.1357	785.9402	818.4079	821.2773	855.2282	859.411	875.483	909.7972	930.2641	960.3361	990.3953	1027.097	1035.3219	1039.7104	1054.9225	1091.014	1109.6903	1155.7992	1167.9308	1184.0047	1201.9644	1220.726	1229.8315	1259.1856	1277.2591	1297.9726	1409.3534	1454.9924	1483.4969	1490.2802	1497.1483	3015.9174	3038.4426	3073.9098	3086.1053	3094.1788	3118.1724	3118.4237	3141.005	3184.5675	3194.8428
CC12C3C1C1CC3C21	C[C@@]12[C@H]3[C@@H]1[C@@H]1C[C@H]3[C@H]21	
InChI=1S/C8H10/c1-8-5-3-2-4(5)7(8)6(3)8/h3-7H,2H2,1H3	InChI=1S/C8H10/c1-8-5-3-2-4(5)7(8)6(3)8/h3-7H,2H2,1H3/t3-,4+,5-,6+,7-,8+
