20
gdb 7691	3.98451	1.44136	1.37162	1.2704	75.22	-0.24	0.0767	0.3167	1020.0438	0.175889	-348.976933	-348.968547	-348.967602	-349.008916	32.89	
C	-0.0285395777	 1.5059895785	 0.0005144484	-0.404998
C	 0.0221740376	-0.0168382117	 0.034412351	 0.014421
C	 1.1043365371	-0.6413915457	-0.9143738524	-0.265084
C	 1.8423104612	-1.2006009938	 0.3056005487	-0.119564
C	 0.7781225742	-0.5911520394	 1.2423395568	-0.08387
C	 0.959480476	-2.0766209265	 1.1633018067	 0.404182
C	-0.0622198821	-3.0616963273	 0.6416861481	-0.462769
O	 1.6143927708	-2.5325967003	 2.3282507374	-0.475488
H	 0.9682190872	 1.9350732497	 0.1534255551	 0.115385
H	-0.4062000042	 1.8643810909	-0.9634191448	 0.111114
H	-0.6838834958	 1.8981297621	 0.7862215641	 0.113481
H	-0.9902256313	-0.4156100781	-0.0997533422	 0.06532
H	 0.7633569627	-1.366348719	-1.6611574439	 0.090364
H	 1.6749837598	 0.1362164419	-1.4294853425	 0.101309
H	 2.9177179164	-1.2323591949	 0.4393883001	 0.078847
H	 0.9186705125	-0.0876630957	 2.1922001343	 0.087372
H	-0.596032699	-2.6905102802	-0.2356812689	 0.122497
H	 0.4250959032	-4.0024616155	 0.3555088559	 0.103709
H	-0.7967263075	-3.2881937167	 1.4211278993	 0.125374
H	 2.156445199	-3.2896399983	 2.0796839688	 0.2784
138.855	199.8094	223.2273	235.9732	270.4056	295.074	309.1539	401.5612	421.6594	473.4768	489.0074	666.1274	712.9145	836.2118	849.4161	873.6659	906.0205	948.7461	956.6648	993.5115	1011.0793	1015.9212	1059.5516	1096.0507	1112.9304	1121.9563	1163.3857	1204.269	1239.1428	1251.5818	1272.8802	1282.7271	1316.9768	1364.4956	1408.7263	1414.6875	1438.9618	1485.0485	1492.7493	1493.6765	1500.488	1503.3574	3023.1956	3024.4966	3027.063	3041.5831	3088.4009	3088.8799	3093.7315	3096.1863	3128.2495	3169.1332	3180.7146	3792.5505
CC1CC2C1C2(C)O	C[C@H]1C[C@H]2[C@@H]1[C@]2(C)O	
InChI=1S/C7H12O/c1-4-3-5-6(4)7(5,2)8/h4-6,8H,3H2,1-2H3	InChI=1S/C7H12O/c1-4-3-5-6(4)7(5,2)8/h4-6,8H,3H2,1-2H3/t4-,5-,6+,7+/m0/s1
