16
gdb 16302	3.63025	1.6998	1.41486	3.8559	66.38	-0.2562	-0.0415	0.2146	914.8716	0.128582	-383.711134	-383.703447	-383.702503	-383.743204	28.1	
C	-0.0824705453	 1.5898648311	-0.1545672805	-0.408528
C	 0.0164294488	 0.0752133001	-0.0482033234	-0.058872
C	 1.1413675903	-0.6641041931	-0.8651418148	-0.266262
C	 1.69659166	-1.2014170225	 0.4563329118	-0.013293
O	 2.0089428624	-0.0994868566	 1.2884755614	-0.260633
C	 0.638262199	-0.5001734179	 1.2445801756	 0.31468
C	-0.0290978872	-0.9552685349	 2.4847941355	 0.050354
O	 0.5352923633	-1.2366596863	 3.51147093	-0.252399
H	 0.875875018	 2.0520404455	 0.0977236214	 0.138449
H	-0.3519652989	 1.892799627	-1.1715200796	 0.119478
H	-0.8434480795	 1.9871080803	 0.5257287642	 0.119858
H	-0.9524210026	-0.3985673053	-0.2382096111	 0.085301
H	 0.7483715676	-1.4415104629	-1.5235053177	 0.114208
H	 1.8354972627	-0.0288130334	-1.4210051715	 0.118985
H	 2.1873220207	-2.1432282434	 0.6755584221	 0.124435
H	-1.1350390693	-1.0418446578	 2.3807311568	 0.074241
89.0796	157.0691	193.3083	220.0324	241.9165	319.2554	424.549	464.8784	588.8262	699.3517	748.0588	829.7805	856.7755	864.7156	923.2099	949.0411	999.9319	1042.3429	1074.9186	1100.6446	1109.624	1138.867	1191.5773	1227.9609	1259.1833	1272.8367	1354.6265	1398.3014	1418.033	1432.0783	1473.8505	1492.1538	1503.2513	1816.5036	2869.2127	3035.456	3055.0568	3069.1872	3099.916	3119.9163	3128.3511	3187.1351
CC1CC2OC12C=O	C[C@H]1C[C@H]2O[C@@]12C=O	
InChI=1S/C6H8O2/c1-4-2-5-6(4,3-7)8-5/h3-5H,2H2,1H3	InChI=1S/C6H8O2/c1-4-2-5-6(4,3-7)8-5/h3-5H,2H2,1H3/t4-,5+,6-/m0/s1
