19
gdb 91426	2.61039	1.68286	1.32731	3.7451	69.99	-0.2438	0.0682	0.312	1007.576	0.161165	-460.142494	-460.134823	-460.133879	-460.174248	31.164	
O	-0.0360537925	 1.4852746831	 0.0771263237	-0.427275
C	 0.0347031754	 0.0745582841	 0.0116549223	 0.090719
C	 0.8288756315	-0.5475069525	 1.1887570928	-0.259022
C	 0.3573036093	-1.9833692996	 1.4222110947	 0.091017
C	-0.0589965179	-2.6887595552	 0.1107600602	-0.264249
C	-1.3872324749	-1.9592097451	 0.3900239213	 0.050286
O	-1.050637727	-1.925237056	 1.8133204559	-0.305037
C	-1.4144663095	-0.4864214657	-0.0552341985	 0.127924
O	-2.3263834333	 0.2115330978	 0.7615604773	-0.421872
H	 0.8613691265	 1.8275015268	 0.012758335	 0.279945
H	 0.5266967944	-0.2293127498	-0.925675444	 0.065744
H	 1.9068521338	-0.5129623004	 0.986212079	 0.090291
H	 0.643722176	 0.0320420069	 2.0995743371	 0.118968
H	 0.9591354203	-2.5292654136	 2.1527835727	 0.083052
H	 0.4882935381	-2.4792658775	-0.8095892947	 0.106029
H	-0.1613574517	-3.7658355332	 0.2502768298	 0.115456
H	-2.3383640955	-2.4638388679	 0.2068500677	 0.088587
H	-1.7847315251	-0.3872536066	-1.081339449	 0.083547
H	-2.129425168	-0.0674075456	 1.6665242866	 0.285891
114.652	233.2938	266.4467	273.6419	361.4265	375.0476	408.4291	441.317	495.6464	560.9255	603.2791	691.6665	762.5093	843.334	854.361	880.4064	913.5295	931.3515	974.7462	1012.1787	1025.2667	1058.5551	1082.8421	1096.4242	1138.3054	1151.599	1180.3257	1225.4576	1230.8807	1254.664	1290.2218	1300.7302	1315.9975	1327.8814	1341.5297	1369.9659	1397.2963	1433.7362	1448.1875	1480.5638	1501.2464	2964.1388	3026.7402	3056.6531	3077.6394	3082.0076	3085.1993	3095.4465	3140.0252	3750.7001	3814.8739
OC1CC2CC(O2)C1O	O[C@H]1C[C@@H]2C[C@@H](O2)[C@H]1O	
InChI=1S/C6H10O3/c7-4-1-3-2-5(9-3)6(4)8/h3-8H,1-2H2	InChI=1S/C6H10O3/c7-4-1-3-2-5(9-3)6(4)8/h3-8H,1-2H2/t3-,4+,5-,6+/m1/s1
