13
gdb 129724	2.445	1.9271	1.07833	2.0433	67.76	-0.2129	-0.0552	0.1578	1002.566	0.090959	-486.084296	-486.076827	-486.075883	-486.115982	28.641	
N	-0.011659132	 1.4020556916	 0.1202376779	-0.5893
C	-0.0268028588	 0.0422500346	 0.0420823993	 0.108446
C	-1.1527919109	-0.7454337119	 0.0181976333	 0.399224
O	-2.372504278	-0.1585919194	 0.022999013	-0.427835
N	-1.1396708022	-2.1024177997	-0.0110131209	-0.291361
N	-0.0372596516	-2.7519602683	-0.0263094921	-0.079552
N	 1.09519914	-2.0244128736	-0.0173360014	-0.288628
C	 1.2474540048	-0.6407507716	 0.0063845192	 0.438631
O	 2.3429898713	-0.0970079146	-0.0092143313	-0.410078
H	 0.8804526275	 1.8256678008	-0.0896126141	 0.277481
H	-0.8419365001	 1.9043295551	-0.1466486085	 0.273012
H	-3.0245061808	-0.8722505214	-0.0030392131	 0.308061
H	 1.9409151006	-2.5794466718	-0.0413628613	 0.281899
132.2945	212.3914	258.6265	298.7557	336.1267	408.7171	458.8764	493.1992	508.6362	549.3941	577.9258	579.4914	656.473	711.2756	748.1116	770.3167	933.6258	990.1614	1115.7648	1175.4212	1226.9423	1334.6197	1351.4557	1388.8689	1461.5534	1510.1753	1612.7058	1688.7264	1771.0384	3578.0309	3601.0312	3709.9489	3775.4946
NC1=C(O)N=NNC1=O	N[C]1C(=N[N]NC1=O)O	
InChI=1S/C3H4N4O2/c4-1-2(8)5-7-6-3(1)9/h(H2,4,7)(H2,5,6,8,9)	InChI=1S/C3H4N4O2/c4-1-2(8)5-7-6-3(1)9/h(H2,4,7)(H2,5,6,8,9)
