16
gdb 7486	3.50096	1.52382	1.32434	2.7282	60.85	-0.2499	-0.0293	0.2206	951.1049	0.128207	-420.85495	-420.846709	-420.845764	-420.888375	29.118	
O	 0.1541103809	 1.4597532663	-0.1400246301	-0.477951
C	 0.0250449589	 0.0669128522	 0.0042829788	 0.341483
C	 0.9456799853	-0.5709420476	-1.0415754792	-0.302267
C	 2.3842998852	-0.1577319878	-0.7910360056	 0.152697
O	 3.1296059066	-0.7673766577	-0.0653615303	-0.243006
C	 0.1580748099	-0.5512885067	 1.4217023422	-0.132772
O	-1.0561093904	-1.3059143463	 1.2288362255	-0.2689
C	-1.3971619268	-0.5472624863	 0.054530892	-0.131567
H	-0.3706696125	 1.8909142766	 0.5431931992	 0.285292
H	 0.8704840773	-1.6587571449	-0.9652117347	 0.136959
H	 0.6254904131	-0.2457980371	-2.0372715963	 0.115799
H	 2.7127485386	 0.7730580106	-1.2991274996	 0.09553
H	 1.0263261689	-1.1858007998	 1.6195830431	 0.136825
H	 0.0584275524	 0.1962036843	 2.2236859437	 0.089931
H	-2.175330134	 0.2060499086	 0.2535204029	 0.090706
H	-1.7153618633	-1.1829328745	-0.7791058716	 0.111243
56.3099	84.6958	120.9621	207.1369	289.7033	337.2573	358.1718	422.1164	456.5845	541.9545	666.1042	819.925	891.6989	902.0467	949.0148	974.1652	1003.1064	1026.5308	1029.3291	1106.0426	1126.8915	1144.0011	1164.731	1181.1455	1282.3102	1292.3403	1310.3902	1365.7981	1399.6743	1424.2788	1466.7253	1503.6014	1529.7174	1823.0255	2913.0326	2979.6021	2991.9194	3050.1918	3064.984	3095.131	3118.2789	3805.6978
OC1(CC=O)COC1	OC1(CC=O)COC1	
InChI=1S/C5H8O3/c6-2-1-5(7)3-8-4-5/h2,7H,1,3-4H2	InChI=1S/C5H8O3/c6-2-1-5(7)3-8-4-5/h2,7H,1,3-4H2
