15
gdb 35075	3.78531	1.42392	1.36421	3.9579	75.4	-0.2367	-0.0718	0.1649	955.8925	0.113288	-379.547531	-379.540811	-379.539867	-379.578703	26.631	
N	-0.1184715809	-1.1544731675	 0.1844306413	-0.312451
C	-0.0775961667	-0.0040242162	 0.0875677106	 0.284934
C	-0.0350862249	 1.4567682776	-0.0150686299	-0.12234
C	-0.6417757636	 2.0903216069	 1.2502533279	-0.122118
C	 0.1953970457	 3.0712755623	 1.630760498	 0.03104
C	 1.294733468	 2.64397758	 2.6124242572	-0.269489
C	 2.0849182792	 2.3790881554	 1.2587172426	-0.036897
C	 1.233355761	 3.327793777	 0.5150529301	-0.09135
N	 1.3634971394	 1.9936189319	-0.0377325968	-0.118958
H	-0.482440815	 1.7455214411	-0.9754087862	 0.143421
H	-1.1938987141	 1.4675889948	 1.9462156817	 0.131743
H	 1.8253616015	 3.4378542421	 3.1487850904	 0.124049
H	 1.0637926924	 1.8139440834	 3.2826344002	 0.125668
H	 3.1593863748	 2.2455674857	 1.198731737	 0.124827
H	 1.4532493834	 4.2331345956	-0.0371181741	 0.107923
94.2853	168.3201	309.9696	403.9745	417.6288	512.5442	540.1312	604.0561	682.1028	752.3464	754.3967	797.6659	826.3482	888.2501	897.5455	930.6778	961.6366	992.4688	1000.5045	1028.8126	1056.0671	1070.3669	1101.6118	1187.4945	1197.7737	1211.3039	1225.0975	1272.7976	1311.3157	1332.014	1499.2536	1585.1397	2362.2678	3022.673	3044.9224	3121.8495	3179.8197	3186.8413	3195.4432
N#CC1C=C2CC3C2N13	N#C[C@H]1[CH][C]2C[C@@H]3[C@H]2N13	
InChI=1S/C7H6N2/c8-3-5-1-4-2-6-7(4)9(5)6/h1,5-7H,2H2	InChI=1S/C7H6N2/c8-3-5-1-4-2-6-7(4)9(5)6/h1,5-7H,2H2/t5-,6-,7+,9?/m1/s1
