17
gdb 12055	3.49589	1.84408	1.52521	3.4592	68.04	-0.2417	-0.0296	0.2121	877.7258	0.141235	-363.821461	-363.813816	-363.812872	-363.85341	28.603	
C	-0.0413554139	 1.6742066597	 0.3194249052	-0.47147
C	 0.0115941059	 0.1553221134	 0.1402252064	 0.199954
C	 0.9660481545	-0.4829049389	-0.9022998851	-0.218937
N	 1.6120785384	-1.3744641302	 0.1295104305	-0.118659
C	 2.2401463257	-0.4599373481	 1.0980821687	-0.249466
C	 0.7825787939	-0.6723326787	 1.1884059762	-0.066869
C	-1.4098791847	-0.3725850677	 0.0247923235	 0.123872
O	-1.8404834683	-1.0556186133	-0.866182292	-0.240173
H	 0.950382603	 2.0804904227	 0.532366281	 0.127356
H	-0.4184602204	 2.1608543292	-0.5866341617	 0.132113
H	-0.7016633086	 1.952144344	 1.1492234041	 0.124118
H	 0.4332631258	-1.0773502405	-1.6447305383	 0.141166
H	 1.6708119632	 0.1937011256	-1.3959449167	 0.100706
H	 2.8599339406	-0.9730391152	 1.8274417086	 0.126616
H	 2.643967029	 0.4878334681	 0.7485649349	 0.112724
H	 0.3241201672	-1.2173879951	 2.0091356697	 0.098794
H	-2.0641039014	-0.0616157349	 0.873720775	 0.078155
71.5217	181.374	201.0476	228.6995	319.0445	321.3091	396.6847	476.8076	581.9724	671.158	750.2705	786.807	848.082	875.2219	921.1547	961.9506	991.492	995.1781	1031.7556	1056.6984	1109.4093	1118.6968	1169.6389	1184.3338	1215.1699	1239.8064	1259.5612	1286.4794	1361.5775	1406.2878	1425.7944	1484.7678	1490.4524	1498.2423	1510.0322	1833.9304	2851.7747	3030.3373	3053.0286	3094.4503	3105.2694	3118.8359	3137.8004	3145.441	3195.7046
CC1(CN2CC12)C=O	C[C@]1(CN2C[C@@H]12)C=O	
InChI=1S/C6H9NO/c1-6(4-8)3-7-2-5(6)7/h4-5H,2-3H2,1H3	InChI=1S/C6H9NO/c1-6(4-8)3-7-2-5(6)7/h4-5H,2-3H2,1H3/t5-,6-,7?/m0/s1
