22
gdb 116210	2.35348	1.41035	1.01633	1.0864	82.19	-0.2422	0.0748	0.317	1262.3458	0.195075	-404.33261	-404.323542	-404.322598	-404.36725	34.315	
C	-0.2399604835	 1.579541581	 0.0855952314	-0.383457
C	-0.1412493908	 0.0540360147	-0.0001212447	-0.177653
C	 0.7366443276	-0.5443983652	 1.0997587569	 0.069126
O	 0.2110927374	-0.1460203185	 2.3690740554	-0.274909
C	 0.2283892688	-1.2548269498	 3.2642762109	-0.078965
C	-0.0107987007	-2.4757543544	 2.3754103873	-0.280415
C	 0.7888502843	-2.0824985478	 1.1441869418	 0.300796
C	 0.9636947493	-2.9347769449	-0.0507122359	-0.303752
N	 2.0591294858	-2.7996559624	 0.9321221505	-0.356861
H	 0.7463878075	 2.0453691118	-0.0210050749	 0.110338
H	-0.8839906353	 1.976601609	-0.7047669547	 0.108021
H	-0.6502398994	 1.8832295788	 1.0515284583	 0.138245
H	-1.1400869039	-0.3933479466	 0.0705410418	 0.097924
H	 0.2698018572	-0.2379004842	-0.9742776228	 0.089769
H	 1.7623027492	-0.1475521538	 0.9955927345	 0.063372
H	 1.2021573728	-1.3315001672	 3.7732529928	 0.096505
H	-0.5441970863	-1.0843948948	 4.0187267457	 0.106819
H	 0.3446615514	-3.4144515439	 2.8036659131	 0.115365
H	-1.076094962	-2.5683093719	 2.1364345122	 0.105223
H	 0.5012310235	-3.9179850157	-0.0889941975	 0.117426
H	 1.0724174685	-2.4559366548	-1.0204696283	 0.112039
H	 2.7610163887	-2.1577662194	 0.5679970763	 0.225042
27.5494	103.4488	170.2492	194.6946	234.0644	277.4729	322.1983	352.0823	447.1633	498.3808	532.527	641.5201	744.2445	790.0291	833.6403	890.0578	913.3531	917.402	935.2438	960.3201	977.4582	981.4909	1040.9238	1071.4674	1085.9448	1118.0149	1122.9271	1135.3108	1159.3069	1201.1816	1238.7676	1267.7211	1290.0223	1293.9004	1306.8574	1319.7477	1342.461	1380.5377	1394.3293	1407.4976	1417.2622	1473.204	1477.1193	1496.0742	1509.3244	1514.7384	1521.4682	2934.9577	2981.5669	3025.6579	3035.4831	3046.8339	3064.6976	3090.5563	3100.0679	3102.7086	3124.0956	3127.9493	3184.0796	3478.4637	27.5504	103.4491	170.2493	194.6947	234.0646	277.473	322.1982	352.0824	447.1632	498.3808	532.5268	641.52	744.2445	790.0291	833.6405	890.0579	913.3531	917.4021	935.2438	960.3201	977.4583	981.4911	1040.9237	1071.4674	1085.9448	1118.0149	1122.927	1135.3114	1159.3069	1201.1815	1238.7676	1267.721	1290.0222	1293.9004	1306.8571	1319.7478	1342.4607	1380.5377	1394.329	1407.4975	1417.2622	1473.2042	1477.1194	1496.0741	1509.3243	1514.7393	1521.4683	2934.9577	2981.5669	3025.6579	3035.4831	3046.8339	3064.6976	3090.5563	3100.0679	3102.7087	3124.0955	3127.9493	3184.0796	3478.4641
CCC1OCCC11CN1	CC[C@H]1OCC[C@]21CN2	
InChI=1S/C7H13NO/c1-2-6-7(5-8-7)3-4-9-6/h6,8H,2-5H2,1H3	InChI=1S/C7H13NO/c1-2-6-7(5-8-7)3-4-9-6/h6,8H,2-5H2,1H3/t6-,7-/m1/s1
