19
gdb 82645	2.35512	1.72221	1.32925	0.9018	74.85	-0.2225	0.0668	0.2893	1046.7925	0.157624	-422.959573	-422.95095	-422.950006	-422.992192	33.438	
C	 0.0463773801	 1.6134521409	-0.037255039	-0.423786
C	 0.064542791	 0.0927285732	-0.0071151875	-0.022988
C	 1.1153279008	-0.6572397963	-0.8761664485	-0.038727
O	 2.3900641688	-0.1019019112	-0.4554691034	-0.282827
C	 2.2009344597	-0.7685742665	 0.7892268476	-0.06268
C	 0.6874949846	-0.6603205079	 1.1778248744	 0.234769
C	 0.2089282649	-0.750861293	 2.5956078762	-0.514446
C	 1.2050155141	-1.7597230297	 0.2777699827	 0.275565
O	 1.012755186	-3.1106687297	 0.3656894922	-0.450444
H	 1.0575793249	 2.0096669011	 0.0828840117	 0.132613
H	-0.355952494	 1.9835066877	-0.9870193719	 0.110648
H	-0.5810334552	 2.0156882855	 0.7656384964	 0.110972
H	-0.9275477533	-0.3275376987	-0.2096821198	 0.075835
H	 1.0262776859	-0.774056069	-1.9549224831	 0.080373
H	 3.0123085702	-0.8106094453	 1.5043098684	 0.107594
H	 0.2524976398	 0.2238420328	 3.0942156315	 0.124092
H	-0.8260397494	-1.1074394378	 2.6440084345	 0.125099
H	 0.821839067	-1.4493956926	 3.1754121009	 0.123377
H	 1.761921914	-3.5563429036	-0.0475320234	 0.294964
166.0125	175.7499	181.4432	195.968	218.3589	287.017	316.1027	389.1472	397.1737	530.8274	601.3502	630.6292	676.2376	713.8417	779.042	809.4212	882.3871	906.2563	930.4514	967.3911	1017.7885	1032.0591	1040.6743	1079.4421	1110.6	1130.4167	1148.5376	1188.7844	1218.8791	1236.2567	1282.1663	1311.3468	1339.3176	1377.9284	1401.8015	1416.9739	1484.8297	1488.0471	1493.6769	1501.3936	1514.0668	3024.9103	3031.571	3044.9118	3086.6541	3090.7438	3093.3919	3125.5161	3136.6554	3206.2492	3778.4661
CC1C2OC3C1(C)C23O	C[C@H]1[C@H]2O[C@H]3[C@]1(C)[C@@]23O	
InChI=1S/C7H10O2/c1-3-4-7(8)5(9-4)6(3,7)2/h3-5,8H,1-2H3	InChI=1S/C7H10O2/c1-3-4-7(8)5(9-4)6(3,7)2/h3-5,8H,1-2H3/t3-,4+,5-,6+,7+/m0/s1
