18
gdb 10073	3.42501	1.24877	0.97967	1.6774	70.18	-0.2509	0.0454	0.2963	1184.634	0.150725	-384.889961	-384.880307	-384.879363	-384.924869	33.995	
C	 0.1527952156	 1.3215804859	-0.174747373	-0.245251
O	 0.0246622224	-0.0896726245	-0.201032653	-0.265323
C	-1.2832463647	-0.6012714616	 0.0118550017	 0.088745
C	-1.3000809236	-1.9581566279	-0.6994639506	-0.060964
O	-0.9120089716	-1.832249456	-2.0472030526	-0.4256
C	-1.6168983585	-0.7670097663	 1.5123755024	-0.357499
C	-1.9741446155	 0.463254148	 2.2077615909	 0.286384
C	-2.2949853453	 1.4712934699	 2.7793633585	-0.434912
H	 1.1762289912	 1.5499107734	-0.483123975	 0.125738
H	-0.5463882181	 1.7991095406	-0.8765052173	 0.112393
H	-0.0224110287	 1.7309048143	 0.8258692823	 0.134018
H	-2.0214405973	 0.0610507809	-0.4635813298	 0.086258
H	-0.6445489713	-2.655283265	-0.1497080372	 0.088152
H	-2.313981212	-2.3711813452	-0.6866792929	 0.108877
H	-0.1130081958	-1.290068349	-2.026692765	 0.285812
H	-2.4501839361	-1.4769185656	 1.6028242566	 0.133938
H	-0.7521497647	-1.2369207914	 1.9961910493	 0.141512
H	-2.573334906	 2.3613523397	 3.2870796147	 0.197722
44.944	90.9401	117.7226	152.9322	185.274	247.0291	284.9825	340.9092	376.9296	413.1961	475.6277	490.444	591.8288	619.3229	635.2891	812.6416	883.0627	957.7149	1047.1504	1053.1596	1089.5619	1099.6141	1146.4988	1183.8853	1203.4653	1224.6008	1270.0409	1272.9052	1357.9535	1377.9422	1398.5301	1442.3276	1454.7409	1479.9419	1491.2248	1501.5905	1513.25	2235.7375	2959.8023	2997.75	3006.402	3019.039	3061.5014	3075.8168	3078.4766	3117.9384	3505.1478	3774.0038
COC(CO)CC#C	CO[C@@H](CO)CC#C	
InChI=1S/C6H10O2/c1-3-4-6(5-7)8-2/h1,6-7H,4-5H2,2H3	InChI=1S/C6H10O2/c1-3-4-6(5-7)8-2/h1,6-7H,4-5H2,2H3/t6-/m1/s1
