20
gdb 11575	5.73434	0.94627	0.85989	2.8009	71.29	-0.2546	0.0732	0.3278	1349.3701	0.176348	-386.121721	-386.112614	-386.11167	-386.155696	33.588	
O	 0.0450321387	 1.3873989448	-0.2903356913	-0.429752
C	 0.0664472586	 0.0154073971	 0.0434061244	-0.047282
C	-1.3397810528	-0.5772086346	 0.0507771825	 0.097327
O	-1.8531310934	-0.315845514	-1.257683196	-0.45071
C	-1.3597298553	-2.0716436544	 0.3855500528	-0.219985
C	-2.7593200178	-2.6518446861	 0.4245060399	 0.007826
C	-3.4381063465	-3.1193913588	-0.8478357048	-0.269631
C	-2.9899488715	-4.1202578337	 0.1876812141	-0.28109
H	-0.5284474463	 1.4524550019	-1.0638714223	 0.289976
H	 0.6892672784	-0.5619313464	-0.6607116979	 0.085351
H	 0.5143254272	-0.071349994	 1.0387820754	 0.10265
H	-1.9357274764	-0.0267933426	 0.7978236384	 0.06983
H	-2.7663529874	-0.616747283	-1.2844793545	 0.294305
H	-0.7587026629	-2.6083614147	-0.3596366237	 0.099836
H	-0.8724593124	-2.2210527297	 1.358569327	 0.099843
H	-3.4117549225	-2.1886506016	 1.1618785862	 0.085175
H	-4.5027219184	-2.9471755135	-0.9659936242	 0.113114
H	-2.8718718718	-3.0636555129	-1.7716679336	 0.123213
H	-2.1272802996	-4.7357868503	-0.0453002649	 0.115345
H	-3.7485787279	-4.6246127736	 0.7755243024	 0.114659
70.0197	88.0031	129.2562	158.7653	267.4811	282.5471	325.4695	350.5714	412.1555	458.4674	479.4241	567.7882	779.6758	806.2595	827.1739	861.9209	894.1166	940.0111	965.7489	1029.8044	1048.5989	1062.0512	1079.4305	1085.1181	1117.427	1144.0782	1167.9957	1199.1781	1203.1165	1228.2659	1266.099	1281.8437	1308.7157	1367.0125	1384.6012	1417.1616	1429.9926	1451.393	1468.2459	1473.2414	1500.6531	1506.2519	2959.363	2973.2885	3014.3722	3057.3618	3077.9013	3126.6919	3128.7443	3135.1779	3207.5868	3222.8699	3786.8692	3832.6779
OCC(O)CC1CC1	OC[C@@H](O)CC1CC1	
InChI=1S/C6H12O2/c7-4-6(8)3-5-1-2-5/h5-8H,1-4H2	InChI=1S/C6H12O2/c7-4-6(8)3-5-1-2-5/h5-8H,1-4H2/t6-/m0/s1
