15
gdb 75959	2.20736	1.93102	1.11896	3.2174	61.28	-0.2871	-0.0238	0.2633	1032.2248	0.112518	-494.973578	-494.965694	-494.96475	-495.006294	28.742	
C	-0.8929097512	 0.8897433917	-0.0016331395	-0.401405
C	 0.205782721	-0.1672133521	 0.0037885115	-0.315916
C	 1.0962935589	-0.105522339	-1.2369364348	 0.446129
O	 0.8769417818	 0.5479592372	-2.2118058793	-0.305009
O	 2.2249470122	-0.8691989282	-1.1533734604	-0.214323
C	 2.3678532423	-1.6464981953	 0.0186103013	 0.005617
O	 2.1977176035	-0.8854412431	 1.1975983704	-0.214324
C	 1.0673195087	-0.1227983845	 1.2655327717	 0.446133
O	 0.8253081668	 0.5171337515	 2.2440220055	-0.30501
H	-0.4590982115	 1.8917179167	 0.0103281735	 0.148945
H	-1.5022381124	 0.7921152186	-0.9012534568	 0.138607
H	-1.522909202	 0.7797770379	 0.8821865815	 0.138607
H	-0.244627035	-1.1742328479	-0.0083831863	 0.144698
H	 1.6626157499	-2.4882168364	 0.0046268616	 0.127201
H	 3.393223977	-2.0125245071	 0.0279606502	 0.16005
89.6184	134.4352	167.0237	256.071	273.0243	316.9682	421.7782	479.2207	507.677	588.8979	624.8237	645.9214	785.212	831.191	847.2956	1017.5645	1021.7161	1075.8732	1093.8072	1109.3811	1125.5826	1167.0399	1252.2706	1261.8263	1286.8118	1351.3947	1417.3292	1449.8946	1486.005	1490.5992	1525.2282	1864.0051	1895.9936	2981.702	3020.0306	3070.2768	3146.8782	3154.027	3155.0995
CC1C(=O)OCOC1=O	CC1C(=O)OCOC1=O	
InChI=1S/C5H6O4/c1-3-4(6)8-2-9-5(3)7/h3H,2H2,1H3	InChI=1S/C5H6O4/c1-3-4(6)8-2-9-5(3)7/h3H,2H2,1H3
