14
gdb 43592	3.35222	1.36531	1.12831	2.5546	65.94	-0.2792	-0.0027	0.2766	1034.3071	0.102752	-432.887089	-432.879709	-432.878765	-432.919513	27.219	
O	 0.0309063365	-0.0446864011	-0.0295533515	-0.347453
C	 0.0212611333	 1.1540478701	-0.0213032361	 0.419969
N	-1.0916567052	 1.9645981922	 0.0825952248	-0.316033
C	-0.8149918445	 3.382935247	 0.067955929	-0.150088
C	-1.3798470371	 4.0956897027	 1.2267156065	 0.286334
N	-1.8321700291	 4.6570520131	 2.1293683565	-0.310787
C	 0.7252759904	 3.3846572745	 0.0332796971	-0.036004
C	 1.4520451565	 2.7197170722	 1.1357602701	-0.246919
N	 1.1886514219	 2.0006603211	-0.1358109473	-0.145348
H	-2.0129792071	 1.5736695689	 0.1933413899	 0.275398
H	-1.2012300725	 3.866932915	-0.8389072977	 0.143615
H	 1.2022269042	 4.143835575	-0.5749922516	 0.128767
H	 2.4956360043	 2.9582576841	 1.3092252778	 0.145957
H	 0.8914404083	 2.4141132351	 2.0152617724	 0.152592
60.0993	133.5206	201.2759	279.8961	359.8013	435.3994	468.1957	509.1114	570.6488	656.9374	745.3278	773.4728	808.3225	853.705	877.0821	954.9652	1000.3661	1051.0344	1079.1231	1113.3899	1122.5102	1157.8542	1202.5304	1278.0102	1288.6428	1369.866	1385.0438	1419.5928	1506.6518	1878.3306	2360.2308	3016.9669	3122.6322	3185.1132	3218.6362	3658.558
O=C1NC(C#N)C2CN12	O=C1N[C@@H](C#N)[C@H]2CN12	
InChI=1S/C5H5N3O/c6-1-3-4-2-8(4)5(9)7-3/h3-4H,2H2,(H,7,9)	InChI=1S/C5H5N3O/c6-1-3-4-2-8(4)5(9)7-3/h3-4H,2H2,(H,7,9)/t3-,4+,8?/m0/s1
