13
gdb 15455	3.90835	1.83313	1.2577	3.2036	71.43	-0.2438	-0.0499	0.1938	898.9612	0.095668	-361.452956	-361.446069	-361.445125	-361.484023	25.792	
N	-0.0538706084	 1.2937442106	 0.0103727852	-0.542586
C	-0.033707776	 0.0315489834	 0.0036923374	 0.334389
O	 1.0968041037	-0.7476290814	-0.0081549394	-0.243826
C	 0.7394017225	-2.1304650567	-0.0128500749	-0.129391
C	-0.7562906091	-2.1407190062	-0.0025975908	-0.237391
C	-1.2088827072	-0.8771711751	 0.0070773561	 0.116943
C	-2.5448142355	-0.4185730975	 0.0186832324	 0.270693
C	-3.682458719	-0.0276422826	 0.0285220589	-0.39159
H	 0.8954949944	 1.66933826	 0.0057691287	 0.225966
H	 1.1637508544	-2.6111936904	-0.9051087652	 0.135048
H	 1.1759487127	-2.6203714792	 0.8684682183	 0.135047
H	-1.3515785804	-3.0429264042	-0.0031704551	 0.128524
H	-4.681867442	 0.3311307392	 0.0371118784	 0.198175
142.0096	142.9711	202.9242	334.2952	389.4212	491.9019	531.4974	580.0875	624.4488	647.1853	756.1556	768.5934	803.9165	836.7417	877.1275	955.836	993.0246	1029.223	1093.2391	1180.5901	1196.0571	1244.0596	1338.9248	1387.5144	1499.6882	1668.4903	1763.7942	2240.8586	3008.4217	3035.3061	3240.6151	3484.3175	3504.0141
N=C1OCC=C1C#C	[NH]C1=C([CH]CO1)C#C	
InChI=1S/C6H5NO/c1-2-5-3-4-8-6(5)7/h1,3,7H,4H2	InChI=1S/C6H5NO/c1-2-5-3-4-8-6(5)7/h1,3,7H,4H2
