15
gdb 15957	3.18398	1.91162	1.37521	1.8297	67.18	-0.2538	0.01	0.2639	896.1018	0.117927	-362.567958	-362.560502	-362.559558	-362.599919	27.687	
C	-0.0961939857	-1.1632636328	-0.3946265432	-0.446098
C	-0.0336148266	 0.0042917871	-0.1145283023	 0.333015
C	 0.0552389972	 1.4208353872	 0.1916516696	-0.123661
O	 0.0548033779	 1.7256574041	 1.6096747169	-0.286567
C	 1.2861562184	 2.4850416064	 1.5184818797	-0.128429
C	 1.4261583398	 2.1114817996	 0.0502421651	 0.275997
C	 2.5844775993	 1.6883513938	-0.7531574893	-0.296732
N	 1.8952264864	 2.9728564289	-1.0150828175	-0.358483
H	-0.158149294	-2.1972285535	-0.630333912	 0.20504
H	-0.7525972502	 1.9663238608	-0.3192927791	 0.105458
H	 1.1280671211	 3.5543017562	 1.7036767643	 0.114336
H	 2.0532238749	 2.0997613565	 2.1995071779	 0.115296
H	 3.5903343036	 1.7851216592	-0.3534708403	 0.125608
H	 2.4401887484	 0.8603689945	-1.4423882329	 0.128137
H	 1.2946795995	 2.8965516419	-1.833296197	 0.237086
72.627	128.3693	203.2962	292.4852	318.9573	361.9863	494.0021	537.2562	596.4803	620.52	678.8326	811.4268	851.6046	903.8802	931.0105	955.3695	972.7477	1005.7536	1052.8953	1063.8076	1090.2499	1128.4999	1147.0201	1238.6162	1258.4938	1276.1991	1325.2642	1353.9991	1440.1269	1517.8691	1521.5671	2232.8351	2986.8001	3024.2486	3073.4011	3108.0008	3195.9384	3490.6278	3500.9088
C#CC1OCC11CN1	C#C[C@H]1OC[C@]21CN2	
InChI=1S/C6H7NO/c1-2-5-6(3-7-6)4-8-5/h1,5,7H,3-4H2	InChI=1S/C6H7NO/c1-2-5-6(3-7-6)4-8-5/h1,5,7H,3-4H2/t5-,6+/m1/s1
