19
gdb 114909	2.82051	1.29928	0.93628	4.2586	78.85	-0.2469	-0.0507	0.1962	1258.0058	0.159281	-423.073519	-423.06456	-423.063616	-423.107553	33.039	
C	-0.0942616582	 1.5121059144	 0.1074596666	-0.494213
C	-0.0353431378	 0.023840981	-0.0059601753	 0.222503
C	-0.1137782156	-0.7576760239	-1.0945960593	-0.1497
C	 0.0278149576	-2.2298121962	-0.8015430992	-0.302834
C	 0.1201982286	-2.3043600884	 0.7350705327	-0.124987
C	 1.3132970146	-3.0946367094	 1.3015085773	-0.061707
O	 1.2913709498	-3.1387964249	 2.7075304008	-0.426928
C	 0.1835612078	-0.83970423	 1.177254521	 0.332729
O	 0.4182466801	-0.4569278678	 2.3102524471	-0.363419
H	 0.8146236924	 1.8955743226	 0.5832238432	 0.146806
H	-0.2094040248	 1.9895524603	-0.8685489352	 0.123327
H	-0.9285643563	 1.8191867676	 0.7477240103	 0.143414
H	-0.247697621	-0.3888563392	-2.1071871354	 0.110933
H	-0.8115289264	-2.8064079587	-1.2066605664	 0.122288
H	 0.9306646721	-2.6310826085	-1.2827221781	 0.123618
H	-0.7909843903	-2.7394685687	 1.1627076593	 0.114584
H	 1.2764459988	-4.1297292558	 0.943121048	 0.104844
H	 2.2495393949	-2.6519679013	 0.9161323153	 0.082015
H	 1.1488237738	-2.2275395931	 3.0058530876	 0.296727
58.5635	104.8331	162.3074	189.6553	239.3312	271.9816	285.1945	392.3493	403.2535	521.9625	572.466	588.1134	694.4027	718.2504	781.2974	837.8438	923.9344	929.853	985.8963	1019.8288	1057.1157	1066.26	1079.8113	1095.9975	1104.5399	1185.9417	1203.6793	1238.1753	1279.8956	1295.6172	1334.1639	1354.3049	1383.157	1414.0521	1469.7356	1473.9317	1475.7951	1485.1619	1516.1597	1693.6508	1771.3338	2942.6642	3016.4383	3037.9736	3041.587	3056.0592	3061.621	3092.2924	3124.1127	3181.3473	3702.4057
CC1=CCC(CO)C1=O	CC1=CC[C@@H](CO)C1=O	
InChI=1S/C7H10O2/c1-5-2-3-6(4-8)7(5)9/h2,6,8H,3-4H2,1H3	InChI=1S/C7H10O2/c1-5-2-3-6(4-8)7(5)9/h2,6,8H,3-4H2,1H3/t6-/m0/s1
