18
gdb 7808	3.1555	1.7222	1.20498	1.6442	67.97	-0.2383	-0.015	0.2233	993.3901	0.154805	-384.979251	-384.971579	-384.970635	-385.011202	29.402	
O	-0.0778671251	 1.4478839593	-0.0249772718	-0.434152
C	 0.0000481371	 0.0309807673	 0.0091855212	 0.12206
C	-1.4282856022	-0.5043597931	 0.0719472096	-0.187092
C	-1.4498159683	-2.0378883619	 0.0764837843	-0.223877
C	-0.7285967437	-2.6234184337	-1.1542876728	-0.285459
C	 0.6726042219	-2.0462334482	-1.2994850907	 0.378217
O	 1.6548654396	-2.7339006353	-1.4514111395	-0.304259
C	 0.7415209977	-0.5246824053	-1.2236856817	-0.319786
H	 0.8185916313	 1.7987751809	-0.0333174026	 0.283073
H	 0.5367735222	-0.2973084006	 0.9155611389	 0.07509
H	-1.9202114079	-0.1059800375	 0.9646025196	 0.108435
H	-1.9797468789	-0.1179590595	-0.795092712	 0.104714
H	-0.9644099011	-2.4099047103	 0.9879747516	 0.109964
H	-2.4816078906	-2.4012115061	 0.1052111385	 0.108043
H	-0.6545265266	-3.7122897318	-1.1103621226	 0.118775
H	-1.293847747	-2.3600075544	-2.0597139061	 0.116838
H	 0.2534703962	-0.1079823465	-2.1154094193	 0.122644
H	 1.7927428752	-0.2215512932	-1.2356429245	 0.10677
97.4724	130.8825	249.7646	291.4231	325.5758	387.2259	399.821	458.6022	498.6935	525.4475	646.5959	757.5216	831.0767	867.1328	885.7641	907.1097	966.5885	1032.6419	1047.7434	1079.3496	1095.8775	1122.8796	1172.7781	1225.8269	1232.1278	1268.575	1279.5294	1299.2812	1336.2553	1352.1666	1371.2393	1382.0036	1438.7463	1464.2788	1470.2318	1492.9303	1501.6915	1817.7211	2954.5775	3014.6677	3024.4297	3027.1041	3034.2832	3080.4188	3086.8429	3093.0959	3109.9351	3815.5456
OC1CCCC(=O)C1	O[C@H]1CCCC(=O)C1	
InChI=1S/C6H10O2/c7-5-2-1-3-6(8)4-5/h5,7H,1-4H2	InChI=1S/C6H10O2/c7-5-2-1-3-6(8)4-5/h5,7H,1-4H2/t5-/m0/s1
