25
gdb 91803	2.41923	1.38861	1.17153	0.2783	91.58	-0.249	0.076	0.3251	1243.3934	0.229402	-352.368026	-352.358466	-352.357521	-352.401645	38.118	
C	-0.011407811	 1.5715206828	-0.1164387656	-0.415384
C	 0.1017082546	 0.0494426676	-0.0457909157	 0.055156
C	 0.8492702218	-0.599840982	-1.2362861008	-0.244219
C	 1.2577586809	-1.9817498115	-0.7284352595	-0.075809
C	 2.5470080821	-2.0688820254	 0.0495301618	-0.333557
C	 1.2333545354	-1.9533932855	 0.7892237593	 0.375293
C	 0.7552274838	-3.1321476285	 1.6064988349	-0.485551
C	 0.7746664398	-0.5456310343	 1.2332024	-0.073197
C	 1.8817434211	 0.3190327024	 1.8522514297	-0.398983
H	 0.9730741313	 2.0506952496	-0.1335080711	 0.114552
H	-0.5411378921	 1.8785743242	-1.0248269344	 0.109396
H	-0.5643851355	 1.9752624521	 0.7388740176	 0.109804
H	-0.9160134678	-0.3635468002	-0.0636856206	 0.068829
H	 0.2117327995	-0.6584464644	-2.1238206923	 0.093733
H	 1.725704197	-0.0022882063	-1.5206932062	 0.091012
H	 0.921214951	-2.8602104385	-1.2696870463	 0.074341
H	 3.0481132143	-3.0314237654	 0.0925226511	 0.100247
H	 3.2280455049	-1.2246638824	 0.0116384205	 0.102311
H	 1.0562150031	-4.0809980602	 1.1500014917	 0.109925
H	 1.1686954187	-3.1112014616	 2.6224868055	 0.113464
H	-0.3379710982	-3.1377120244	 1.6963866686	 0.111003
H	 0.0047703721	-0.6726995865	 2.0041046843	 0.063698
H	 2.6542080411	 0.5956190778	 1.1278606215	 0.113139
H	 1.4743302944	 1.2475129755	 2.2644048464	 0.10968
H	 2.3758450576	-0.2179748747	 2.6686350196	 0.111115
66.6355	194.3092	223.9318	230.3125	244.4132	261.2212	275.336	287.2792	355.7619	416.4724	445.0649	495.0956	579.7613	609.9955	701.0592	774.2571	832.0623	854.8293	872.4987	919.5999	925.6575	959.99	982.1466	1010.3222	1033.0971	1055.0239	1063.9274	1072.8666	1090.6733	1109.3812	1127.0572	1157.1855	1185.201	1208.1008	1249.2097	1284.6011	1307.1588	1310.8198	1346.2533	1367.6248	1376.0248	1401.9878	1408.9613	1414.2727	1420.4711	1482.9248	1489.3671	1490.537	1493.7161	1498.5855	1500.3257	1505.5592	1510.9143	2998.9226	3013.7205	3016.982	3025.5012	3027.4292	3034.7644	3070.6835	3075.3934	3090.4697	3090.5678	3095.8564	3100.7547	3102.3782	3118.3355	3154.83	3199.3003
CC1CC2CC2(C)C1C	C[C@H]1C[C@H]2C[C@@]2(C)[C@H]1C	
InChI=1S/C9H16/c1-6-4-8-5-9(8,3)7(6)2/h6-8H,4-5H2,1-3H3	InChI=1S/C9H16/c1-6-4-8-5-9(8,3)7(6)2/h6-8H,4-5H2,1-3H3/t6-,7-,8-,9-/m0/s1
