20
gdb 57921	3.32392	0.90129	0.77794	5.4093	78.11	-0.2438	0.0088	0.2526	1520.8736	0.170356	-436.525902	-436.515456	-436.514512	-436.561885	37.83	
C	-0.0319406817	 1.4512370757	 0.1002165696	-0.383853
C	-0.0183778577	-0.0906918579	 0.152541628	-0.056552
C	 0.8476149147	-0.5985474528	 1.3068555759	-0.378847
C	-1.4444968851	-0.6201801507	 0.2458056553	 0.384489
N	-1.9315941762	-1.0347123882	 1.3391887283	-0.508662
N	-2.1166078125	-0.5602457121	-0.9983130709	-0.400224
C	-3.441952317	-0.8936210925	-1.2352171977	 0.474432
N	-3.8225671193	-0.7240424772	-2.5566318063	-0.563974
O	-4.2191261309	-1.2608511786	-0.3748556899	-0.374881
H	 0.9838290559	 1.8390151775	-0.0230543647	 0.118255
H	-0.6396147615	 1.8342373068	-0.7265277261	 0.104369
H	-0.4430979718	 1.8560023315	 1.0301578104	 0.138201
H	 0.4099909022	-0.4576018838	-0.792640781	 0.069809
H	 0.4304894928	-0.281620265	 2.2650427501	 0.143424
H	 0.8925327868	-1.6903627099	 1.3163041382	 0.120434
H	 1.8657850744	-0.2071192899	 1.2151594809	 0.099988
H	-2.9068040087	-1.3101087059	 1.2165490958	 0.24986
H	-1.5965610707	-0.164722997	-1.7655245715	 0.244408
H	-3.133939064	-0.8469201721	-3.2831083883	 0.251442
H	-4.7211797998	-1.1353056281	-2.7588879461	 0.267881
43.0469	71.999	102.8807	167.0068	205.7893	236.2523	263.0237	310.7248	331.6477	355.5633	412.6611	436.221	509.8559	533.4965	587.1502	668.8346	704.7253	773.1711	852.1842	923.051	933.3018	960.9745	972.3262	974.0673	1099.5442	1117.4353	1121.3973	1134.0471	1199.9551	1287.1175	1326.835	1349.6338	1395.9263	1409.1445	1422.3064	1481.0398	1486.0802	1498.2846	1508.995	1518.1976	1629.2449	1736.8641	1811.2433	2987.4902	3034.0045	3046.2615	3100.4945	3113.584	3117.2824	3135.9675	3480.7748	3578.0754	3626.4773	3693.9004
CC(C)C(=N)NC(N)=O	CC(C)C(=N)NC(=O)N	
InChI=1S/C5H11N3O/c1-3(2)4(6)8-5(7)9/h3H,1-2H3,(H4,6,7,8,9)	InChI=1S/C5H11N3O/c1-3(2)4(6)8-5(7)9/h3H,1-2H3,(H4,6,7,8,9)
