20
gdb 77953	2.62564	1.39864	1.02917	0.4609	88.23	-0.2184	0.0378	0.2562	1217.7796	0.16901	-365.893658	-365.884624	-365.88368	-365.92683	35.068	
C	-0.5560421718	 1.4234650567	-0.0593507869	-0.45792
C	-0.0610656865	-0.0068675899	 0.0565558077	 0.074482
C	 1.1819398114	-0.5823196958	-0.6928607612	-0.071748
C	 2.1515189716	 0.1294725068	 0.3220943805	-0.161562
C	 2.4830363867	 1.5389022515	 0.3083146997	 0.25023
C	 2.8695601068	 2.6793382129	 0.3116743511	-0.398554
C	 0.9595021806	-0.5121228499	 1.1247659572	-0.071749
N	 1.0542264792	-1.7563968802	 0.2606318934	-0.096408
C	 2.1609282133	-2.6893505232	 0.432102243	-0.338002
H	 0.2296262269	 2.1729996888	 0.007711956	 0.145038
H	-1.0732500502	 1.5561142916	-1.0163298438	 0.116189
H	-1.287077582	 1.6238349513	 0.7320751628	 0.116189
H	-0.8944575233	-0.7101760931	-0.0182617367	 0.084047
H	 1.3314950062	-0.7230510416	-1.7655081279	 0.081928
H	 3.0859264936	-0.4182256275	 0.4575809979	 0.104833
H	 3.1774094736	 3.6955874456	 0.310182582	 0.190209
H	 0.8450328761	-0.569542074	 2.2093595769	 0.08193
H	 1.960561026	-3.2955902987	 1.321585851	 0.125157
H	 2.1750172886	-3.3632604895	-0.4307429113	 0.125157
H	 3.1717687032	-2.2651288217	 0.5394301886	 0.100553
126.9525	163.8686	164.1167	181.2387	211.0714	267.023	344.5113	365.9555	442.1601	493.6188	549.803	585.1789	613.0842	635.9463	713.3302	743.3204	804.0275	833.9511	887.4984	889.6876	1017.9429	1049.7487	1053.8671	1058.26	1079.6507	1124.278	1130.7079	1159.2918	1169.9115	1204.6876	1208.0193	1233.4013	1256.0963	1274.7836	1363.9905	1415.6575	1424.37	1450.2154	1497.3623	1498.2887	1499.9861	1503.7173	2218.558	2972.7358	3035.9767	3061.7387	3074.1879	3085.4459	3086.8406	3090.1917	3098.5627	3098.9888	3170.8502	3502.2209
CC1C2C(C#C)C1N2C	C[C@H]1[C@H]2[C@@H](C#C)[C@@H]1N2C	
InChI=1S/C8H11N/c1-4-6-7-5(2)8(6)9(7)3/h1,5-8H,2-3H3	InChI=1S/C8H11N/c1-4-6-7-5(2)8(6)9(7)3/h1,5-8H,2-3H3/t5-,6+,7-,8+
