17
gdb 133708	2.59628	1.24387	1.14663	1.3608	61.43	-0.2624	0.085	0.3473	1134.7075	0.131105	-549.505228	-549.495979	-549.495035	-549.539471	33.721	
C	-0.0508271605	 1.4844783336	-0.1918109724	-0.408592
C	 0.0799549542	-0.0064060564	 0.0024542018	-0.030799
N	 1.4306467216	-0.5926375553	-0.0666339429	-0.374522
C	 0.6971943066	-0.6373297286	 1.2062848173	 0.147758
C	 1.2723054203	 0.1407276449	 2.370456688	-0.473562
C	 0.1214014808	-1.9761368908	 1.618944475	 0.251006
F	 1.0287279957	-2.7197089486	 2.274030848	-0.078917
F	-0.9318794225	-1.8259231766	 2.4374361393	-0.074537
F	-0.2893155212	-2.7019986891	 0.5620786983	-0.087427
H	 0.8043006687	 2.0215644998	 0.2223152944	 0.131098
H	-0.103746131	 1.7189745189	-1.2599888929	 0.128073
H	-0.9646729643	 1.8598079766	 0.2805742382	 0.124092
H	-0.7159280367	-0.5867651548	-0.4593044428	 0.100454
H	 1.3996010906	-1.4979572032	-0.5292570914	 0.240242
H	 1.7033860075	 1.0799297101	 2.024848816	 0.13551
H	 0.4993229192	 0.3573116565	 3.1137856505	 0.131814
H	 2.0637900609	-0.436299327	 2.8565641654	 0.13831
56.4256	147.1825	157.3155	171.729	213.3937	280.8771	295.6896	328.8848	394.141	460.9717	472.4455	554.2503	579.044	604.9019	736.2115	806.7339	844.9596	924.8725	985.8559	1033.0807	1086.8447	1088.8712	1112.4598	1127.6276	1186.0016	1195.3303	1217.5747	1257.7307	1339.0006	1365.2834	1409.1146	1418.7491	1461.0238	1479.0857	1490.5643	1497.8561	1515.0377	3041.9845	3054.3312	3102.458	3119.3211	3126.7106	3143.3557	3155.8021	3507.3655
CC1NC1(C)C(F)(F)F	C[C@H]1N[C@]1(C)C(F)(F)F	
InChI=1S/C5H8F3N/c1-3-4(2,9-3)5(6,7)8/h3,9H,1-2H3	InChI=1S/C5H8F3N/c1-3-4(2,9-3)5(6,7)8/h3,9H,1-2H3/t3-,4+/m1/s1
