22
gdb 83271	2.72148	1.26292	1.15411	1.133	81.78	-0.2122	0.0763	0.2885	1195.5364	0.195679	-404.329178	-404.320364	-404.319419	-404.362276	34.66	
C	-0.4218592564	 1.3902335186	 0.3077303771	-0.425751
C	-0.0356596092	-0.0475201477	 0.0416298753	 0.01378
C	 0.5638957129	-0.5369808655	-1.2441380228	-0.05098
C	 0.9364293353	 0.4066074442	-2.383331226	-0.234074
C	 2.4177167243	 0.7833310093	-2.345623128	 0.147565
O	 2.631352267	 1.7180948295	-3.3950450093	-0.442901
C	 2.7616084835	 1.3613653328	-0.9726845041	-0.247428
C	 2.5056913404	 0.3284008669	 0.1464734005	-0.15596
N	 1.3375463126	-0.5425398662	 0.0046106509	-0.104029
H	 0.0934565055	 2.1093897399	-0.3312051453	 0.124391
H	-1.4983781145	 1.5177233633	 0.149725412	 0.122562
H	-0.2128477527	 1.6592409191	 1.3495392193	 0.122691
H	-0.6955566968	-0.7472268195	 0.5568679738	 0.084177
H	 0.2869397416	-1.538022867	-1.5719788756	 0.08557
H	 0.7060971985	-0.0675475851	-3.3411559776	 0.10674
H	 0.361141596	 1.3388603266	-2.351316927	 0.110225
H	 3.0225170788	-0.1244917974	-2.5143292951	 0.064503
H	 3.5533984926	 1.992990621	-3.364227347	 0.277644
H	 3.8189266857	 1.6557168737	-0.9379084435	 0.083114
H	 2.1756350588	 2.2760788819	-0.8298382002	 0.10713
H	 3.3734888691	-0.3422565387	 0.1903498588	 0.106807
H	 2.454712237	 0.8277620803	 1.1205912638	 0.104225
98.2546	128.5141	209.7092	227.0873	272.3728	285.7278	336.6399	408.4183	447.7216	456.2215	494.1287	563.1991	645.8038	723.3383	767.0037	815.2481	854.9322	912.3811	944.3492	959.5811	991.6948	1048.2325	1061.3768	1077.6889	1100.0138	1119.3162	1146.3981	1160.3476	1179.876	1192.085	1232.1266	1269.284	1291.5966	1323.26	1334.127	1362.0166	1372.6395	1389.3571	1402.1541	1417.5278	1430.4449	1441.2017	1480.3942	1485.6857	1500.0827	1505.614	1513.0746	2949.7571	3012.7248	3023.3004	3035.0759	3045.3905	3056.366	3077.4041	3080.6495	3088.1491	3088.9178	3108.3221	3135.5914	3813.3786
CC1C2CC(O)CCN12	C[C@H]1[C@H]2C[C@@H](O)CCN12	
InChI=1S/C7H13NO/c1-5-7-4-6(9)2-3-8(5)7/h5-7,9H,2-4H2,1H3	InChI=1S/C7H13NO/c1-5-7-4-6(9)2-3-8(5)7/h5-7,9H,2-4H2,1H3/t5-,6-,7+,8?/m0/s1
