22
gdb 120403	3.46818	0.81894	0.70147	2.6523	84.73	-0.2281	-0.0206	0.2075	1671.0839	0.19164	-404.351003	-404.340723	-404.339779	-404.386859	36.947	
C	-0.0029437238	 1.5769443017	 0.0302633327	-0.380713
C	-0.0201837071	 0.046341644	 0.041901331	-0.176195
C	-1.4291515889	-0.5279013137	-0.1142931009	-0.128157
N	-1.4372713036	-1.9792950761	-0.0798129995	-0.095531
C	-0.9050625626	-2.7041463124	-1.2577496107	-0.294659
C	-2.1191516358	-3.6368088419	-1.1523764937	 0.382014
O	-2.4267846821	-4.693599331	-1.6151620061	-0.290727
C	-2.7564739299	-2.6623395933	-0.1485740559	-0.057812
C	-3.3216297442	-3.2063897695	 1.1532929931	-0.397697
H	 1.0151017507	 1.961934453	 0.1397634738	 0.116661
H	-0.4091264414	 1.9735635116	-0.9068001361	 0.115968
H	-0.6030756831	 1.9869860409	 0.8501733727	 0.115964
H	 0.6159431275	-0.3343709279	-0.767611122	 0.099813
H	 0.4087054197	-0.3340455415	 0.9759237763	 0.108048
H	-2.0603956423	-0.1695995026	 0.7088012087	 0.101985
H	-1.8828453046	-0.1424262855	-1.0514771141	 0.071943
H	-0.9273644834	-2.125611326	-2.1977289179	 0.112421
H	 0.0881587552	-3.1486170025	-1.1391096229	 0.131221
H	-3.5161563426	-2.054049171	-0.6742172022	 0.0849
H	-2.5754409865	-3.8150881881	 1.670606089	 0.127489
H	-3.6233256303	-2.3922083934	 1.819879795	 0.121082
H	-4.201209821	-3.8251884748	 0.9506508797	 0.13198
61.1827	85.2572	100.8161	137.7555	186.909	192.8641	236.8338	291.2676	309.4706	345.9838	420.9618	498.2497	576.1061	665.1924	757.5246	758.4839	819.5007	889.3293	904.6439	908.9172	987.5042	1029.8324	1045.8735	1077.1369	1090.9619	1134.9956	1136.3638	1142.823	1193.6221	1204.3854	1253.1507	1276.499	1298.1695	1325.8388	1335.5757	1355.6828	1401.7504	1409.4283	1417.4729	1469.8838	1483.9596	1487.6982	1495.1108	1498.0826	1500.3028	1513.0813	1916.1912	2884.3936	2932.0961	2961.2907	3023.7408	3031.1565	3039.0687	3040.8115	3066.9265	3072.4481	3098.4568	3107.0685	3110.1906	3124.1622
CCCN1CC(=O)C1C	CCCN1CC(=O)[C@H]1C	
InChI=1S/C7H13NO/c1-3-4-8-5-7(9)6(8)2/h6H,3-5H2,1-2H3	InChI=1S/C7H13NO/c1-3-4-8-5-7(9)6(8)2/h6H,3-5H2,1-2H3/t6-/m1/s1
