13
gdb 125209	3.56319	1.62562	1.12416	3.1458	68.78	-0.2273	-0.0691	0.1582	989.0135	0.089272	-452.714605	-452.707609	-452.706665	-452.746151	26.048	
C	 0.0859865258	 1.5075295241	 0.0068410982	-0.496695
C	-0.0722799627	 0.0333986541	 0.0238498172	 0.195429
C	-1.1055547517	-0.8439918805	-0.1015125046	 0.258029
O	-2.4257724383	-0.9132258778	-0.290188751	-0.289414
N	-2.7004318376	-2.4112127613	-0.2892969184	-0.008405
N	-1.6436335854	-3.0284838925	-0.1200574852	-0.188902
C	-0.5786185774	-2.1573772394	 0.0100956858	 0.195334
C	 0.7688772526	-2.0528681685	 0.2017292267	-0.09873
O	 1.0676674892	-0.7337195767	 0.2091567199	-0.173733
H	 0.7503890932	 1.8351874169	-0.8006079842	 0.145502
H	-0.8906425783	 1.9719904194	-0.1459639581	 0.150683
H	 0.4989487329	 1.8823234187	 0.9501019911	 0.145508
H	 1.5855089777	-2.7393017265	 0.3381078926	 0.165394
105.7931	173.8926	247.1962	282.6812	367.9695	405.6819	564.5157	598.9829	607.0704	633.7888	696.5406	715.3561	762.2455	828.2956	934.1169	965.8838	1064.1816	1113.1817	1163.2261	1171.6145	1273.1379	1317.2012	1403.4527	1424.3615	1471.9417	1491.8479	1534.4186	1617.3719	1705.8118	3030.9694	3082.4202	3131.8131	3299.0769
CC1=C2ON=NC2=CO1	Cc1c2onnc2co1	
InChI=1S/C5H4N2O2/c1-3-5-4(2-8-3)6-7-9-5/h2H,1H3	InChI=1S/C5H4N2O2/c1-3-5-4(2-8-3)6-7-9-5/h2H,1H3
