22
gdb 76658	2.68247	0.94926	0.9186	2.9232	83.36	-0.2232	-0.0061	0.2171	1449.6986	0.190597	-404.341108	-404.330241	-404.329297	-404.378227	38.493	
C	-0.2743296324	 1.4510853715	 0.5532315767	-0.415014
C	 0.3925464083	 0.0936851551	 0.497208111	 0.002337
C	 0.6121332139	-0.6702713774	-0.7720707436	-0.002639
C	 0.1786125881	-0.1723367181	-2.1339982991	-0.419878
N	 1.7484708599	-0.1099224985	-0.0246095689	-0.118083
C	 2.5117836353	 1.0043309231	-0.5608699661	-0.250461
C	 3.8429897412	 0.5565804807	-1.1788349191	 0.375589
C	 4.5031502653	-0.67424713	-0.5950924823	-0.459297
O	 4.3390854054	 1.2005845384	-2.0742461613	-0.297608
H	 0.1143518241	 2.0351658964	 1.3948823066	 0.125383
H	-0.1324186131	 2.0421662391	-0.3531543194	 0.123313
H	-1.3517163664	 1.3308892207	 0.7090230547	 0.124271
H	 0.206682479	-0.4982034184	 1.39428646	 0.087388
H	 0.573729252	-1.7573725923	-0.6961696886	 0.087221
H	 0.0809329773	 0.9126990527	-2.1946475354	 0.125748
H	 0.8873105497	-0.4864035156	-2.9085259255	 0.131904
H	-0.7956560177	-0.6040934145	-2.3860518026	 0.125343
H	 2.0094585569	 1.6270103124	-1.3114225073	 0.111434
H	 2.7751638221	 1.6679045434	 0.2759967002	 0.125832
H	 4.553097632	-0.6044888906	 0.4961324252	 0.138436
H	 3.8963028123	-1.5590515946	-0.8112916416	 0.148264
H	 5.500444777	-0.7896808636	-1.0213346137	 0.130514
35.2334	46.9484	120.3744	134.306	142.394	161.9937	216.0693	246.923	288.2695	395.462	452.3127	469.646	508.801	532.4374	558.0466	736.684	770.4606	785.3875	848.1766	877.6773	958.4973	1003.3165	1022.8389	1048.6715	1054.8651	1085.3065	1127.3921	1164.1852	1183.0528	1197.4443	1224.275	1265.1974	1339.8723	1353.2202	1381.6548	1383.5284	1416.2436	1421.0836	1438.2251	1450.7753	1461.6678	1469.1436	1487.6058	1490.1396	1501.1153	1512.1501	1813.5967	3004.1357	3036.9731	3039.3932	3048.0821	3050.7966	3084.1935	3092.5457	3094.8462	3095.8547	3110.1734	3128.5968	3139.5389	3154.776
CC1C(C)N1CC(C)=O	C[C@H]1[C@@H](C)N1CC(=O)C	
InChI=1S/C7H13NO/c1-5(9)4-8-6(2)7(8)3/h6-7H,4H2,1-3H3	InChI=1S/C7H13NO/c1-5(9)4-8-6(2)7(8)3/h6-7H,4H2,1-3H3/t6-,7+,8?
