19
gdb 92707	2.2786	1.74367	1.1007	2.7866	77.75	-0.2366	0.0105	0.2471	1122.9548	0.158371	-423.020684	-423.011893	-423.010949	-423.054147	33.398	
C	-0.3743236835	 1.5028175861	 0.0745283729	-0.504553
C	-0.0757648408	 0.0412540681	-0.0219054147	 0.261224
C	-0.0277145022	-0.7258449951	-1.1162243322	-0.185476
C	 0.3181634928	-2.1635937345	-0.8194330244	-0.309537
C	 0.2062836308	-2.2561489867	 0.7254970593	 0.052848
O	 1.1606657769	-3.0912568641	 1.3508640805	-0.425847
C	 0.2053566631	-0.7882926156	 1.1862402218	 0.325472
C	 0.9465085612	-0.3265997227	 2.3731680248	-0.256265
O	-0.4735798243	-0.4737983605	 2.4118272038	-0.282909
H	 0.506018159	 2.0706986755	 0.4014463367	 0.12637
H	-0.695654225	 1.9083627317	-0.8880231175	 0.124475
H	-1.1595342222	 1.6839834732	 0.8160034541	 0.146642
H	-0.1946660071	-0.363736366	-2.1255023042	 0.09382
H	-0.3324684229	-2.8812997997	-1.330484284	 0.11414
H	 1.3442559476	-2.404930248	-1.1348296956	 0.100038
H	-0.7627128022	-2.6818898793	 1.0045265601	 0.114004
H	 2.0363765402	-2.7852442358	 1.0898189391	 0.276443
H	 1.5030914254	-1.0596811608	 2.9544368607	 0.121153
H	 1.3151167833	 0.6973318641	 2.4257011486	 0.107958
53.1829	146.1767	224.424	245.0368	246.9876	277.6728	306.8313	320.883	467.7487	489.6653	527.2286	606.6216	660.0996	691.4767	822.5459	851.8131	859.4407	928.457	964.0808	1006.1898	1025.1042	1038.3653	1066.2879	1086.6184	1127.8636	1133.7165	1154.4358	1168.4762	1242.1423	1284.887	1301.5581	1325.8122	1337.5888	1405.498	1410.635	1432.1138	1474.0868	1487.4466	1492.7432	1516.5129	1714.3709	2999.1047	3025.6465	3056.9231	3074.1113	3079.916	3083.3162	3120.7326	3172.2718	3183.3653	3798.6056
CC1=CCC(O)C11CO1	CC1=CC[C@@H](O)[C@]21CO2	
InChI=1S/C7H10O2/c1-5-2-3-6(8)7(5)4-9-7/h2,6,8H,3-4H2,1H3	InChI=1S/C7H10O2/c1-5-2-3-6(8)7(5)4-9-7/h2,6,8H,3-4H2,1H3/t6-,7-/m1/s1
