15
gdb 11329	6.35881	1.33886	1.1215	0.3809	68.63	-0.2366	0.0077	0.2443	1029.1638	0.119945	-396.010038	-396.002253	-396.001309	-396.0429	27.384	
C	-0.0077589165	 1.4440716261	 0.0855001565	-0.332222
N	-0.0143806349	-0.0066473221	 0.1598014976	-0.370081
C	-1.1010237524	-0.6282776144	 0.0645861139	 0.520651
N	-1.2194244015	-2.0145945225	 0.1224414846	-0.400823
C	-2.5191105405	-2.4543560673	-0.0071054201	 0.380145
N	-3.0320583958	-3.6141241616	-0.007194571	-0.548668
C	-3.3175316601	-1.1718354316	-0.1670342934	-0.154262
O	-2.3552646346	-0.1120374206	-0.1091489541	-0.255321
H	 0.6362720118	 1.7611919019	-0.7428067865	 0.124711
H	-0.9980057481	 1.8926265736	-0.0531945224	 0.124345
H	 0.4327117911	 1.8514928563	 1.0027846944	 0.124709
H	-0.4075043824	-2.5954604533	 0.2476764215	 0.272299
H	-2.3301796897	-4.3451224713	 0.1128899088	 0.214965
H	-3.8402032674	-1.1430055484	-1.1275456906	 0.149777
H	-4.0471814188	-1.0515755948	 0.6390364309	 0.149776
56.7896	83.2312	154.0666	211.3323	257.7602	389.8183	480.4869	533.0869	536.8284	660.4922	699.2885	712.2148	851.0264	899.932	922.8262	1034.5659	1051.1509	1075.7234	1119.6478	1138.1963	1160.4793	1201.2733	1235.973	1364.8126	1377.7149	1402.4849	1447.2952	1495.7244	1500.696	1502.9745	1777.0145	1833.5501	3015.5828	3058.4896	3072.9409	3084.9694	3102.9992	3473.5374	3672.7096
CN=C1NC(=N)CO1	CN=C1N[C]([NH])CO1	
InChI=1S/C4H7N3O/c1-6-4-7-3(5)2-8-4/h2H2,1H3,(H2,5,6,7)	InChI=1S/C4H7N3O/c1-6-4-7-3(5)2-8-4/h2H2,1H3,(H2,5,6,7)
