20
gdb 13310	4.92291	1.14734	0.98613	0.76	80.03	-0.2573	0.0563	0.3136	1210.5709	0.177669	-311.857355	-311.848869	-311.847925	-311.891229	31.495	
C	 0.0652422501	-1.2592018744	 0.0590560689	-0.448253
C	 0.0146219889	-0.0580037685	 0.0724461159	 0.304867
C	-0.0171605379	 1.4003997164	 0.0920115396	-0.380662
C	 1.3698381698	 2.0464326411	-0.0740119311	 0.050627
C	 2.0525873198	 1.7808014534	-1.4252663589	-0.195462
C	 3.1914496657	 2.8180687113	-1.4759378956	-0.204982
C	 2.6847269521	 4.0356243685	-0.6450265298	-0.209988
C	 1.3473526867	 3.5842676329	-0.0054602776	-0.213387
H	 0.0985129673	-2.3201864306	 0.0461326524	 0.191743
H	-0.6785158682	 1.7622060172	-0.7076708995	 0.123987
H	-0.4681212447	 1.7379457882	 1.0345721679	 0.125909
H	 2.0205697021	 1.6645645293	 0.7244191614	 0.079838
H	 2.3996855114	 0.7503937019	-1.534415363	 0.105262
H	 1.3311254201	 1.9670007061	-2.2326975115	 0.090973
H	 4.0953480223	 2.4014395759	-1.0193151386	 0.099455
H	 3.4569885428	 3.0918865236	-2.5005730196	 0.095535
H	 3.4135830644	 4.3059859114	 0.1247208041	 0.099364
H	 2.5458318782	 4.9249738115	-1.2659000452	 0.098468
H	 0.5003792768	 3.9552193697	-0.597348765	 0.093154
H	 1.2126851425	 3.9626173451	 1.0124207152	 0.093551
37.9821	81.8453	112.357	182.0341	291.6993	350.6527	405.6021	438.7076	597.365	614.4863	627.5934	634.7491	767.2547	811.7738	857.8816	888.6335	906.8267	937.3198	975.8737	982.5981	995.4664	1041.787	1082.5639	1108.0401	1168.7969	1202.9516	1220.6041	1247.6773	1271.6077	1292.1196	1309.68	1325.8605	1339.309	1346.0907	1364.7734	1388.0552	1469.2579	1486.1514	1495.6681	1497.0162	1519.0763	2236.3301	3005.7065	3010.2774	3017.1649	3028.298	3043.1805	3044.4731	3057.0104	3074.0369	3085.1374	3097.4773	3105.5412	3507.2068
C#CCC1CCCC1	C#CCC1CCCC1	
InChI=1S/C8H12/c1-2-5-8-6-3-4-7-8/h1,8H,3-7H2	InChI=1S/C8H12/c1-2-5-8-6-3-4-7-8/h1,8H,3-7H2
