16
gdb 37716	3.57138	2.05297	1.54656	1.579	71.65	-0.2201	-0.0041	0.216	839.9185	0.12539	-400.617064	-400.611102	-400.610158	-400.646942	25.717	
C	-0.0704126371	 1.4991118567	 0.0790181346	-0.228799
C	 1.324622898	 2.1118008492	-0.0532795696	-0.07582
C	 2.3964774565	 1.3360144089	-0.2547945114	-0.21799
C	 1.9999066299	-0.0843990893	-0.3170253357	 0.467639
O	 2.6782258942	-1.3505936884	-0.5066571937	-0.386923
C	 1.2440161376	-1.718581802	-0.3496630557	 0.011713
C	 0.9695824055	-0.6320002843	 0.7128371818	-0.07439
N	-0.1773221419	 0.0125316912	-0.0261736651	-0.169791
C	 0.7307726796	-0.4848571814	-1.1238619404	-0.07439
H	-0.5048417131	 1.7930977408	 1.0437731458	 0.122682
H	-0.7296581744	 1.9316180911	-0.6853396199	 0.122682
H	 1.40115463	 3.192702788	 0.0233671271	 0.10302
H	 3.4143977154	 1.6916341481	-0.3586523344	 0.114096
H	 0.9845310112	-2.774006116	-0.4004792502	 0.104692
H	 1.0504516736	-0.6750171995	 1.7989686672	 0.090789
H	 0.532090245	-0.3556261831	-2.1877681905	 0.090789
229.5305	305.6883	402.1999	464.4268	535.1844	538.3281	621.7643	641.2528	749.6663	779.3738	806.0988	823.0138	824.3417	884.747	897.9731	907.7303	931.3458	955.8544	1008.7256	1015.908	1068.9487	1078.2278	1094.6884	1139.8226	1151.1068	1161.1647	1176.6538	1243.6684	1269.4307	1269.7303	1340.77	1351.656	1421.034	1462.3264	1661.4179	3017.8758	3045.1709	3119.7272	3120.9752	3148.3951	3167.2467	3206.5407
C1C=CC23OC4C2N1C34	C1C=C[C@@]23O[C@H]4[C@@H]2N1[C@@H]34	
InChI=1S/C7H7NO/c1-2-7-5-4(9-7)6(7)8(5)3-1/h1-2,4-6H,3H2	InChI=1S/C7H7NO/c1-2-7-5-4(9-7)6(7)8(5)3-1/h1-2,4-6H,3H2/t4-,5-,6+,7+
