16
gdb 22884	3.43946	1.18624	0.94895	2.1031	72.23	-0.2382	-0.0425	0.1958	1188.9012	0.123751	-474.983553	-474.974974	-474.974029	-475.017003	32.178	
O	-0.0367211947	 1.298180229	 0.1157535371	-0.387451
N	 0.0333741367	-0.1012106898	 0.1021294012	-0.242429
C	-1.1263602127	-0.6347337912	 0.0222709601	 0.338645
C	-2.4591478169	-0.0451088431	-0.0642285361	-0.15269
C	-3.3852068251	-1.013017883	-0.054407124	-0.106522
C	-2.7881087919	-2.3995184153	 0.0949205163	 0.089018
O	-3.2974387022	-3.3440301118	-0.8146020274	-0.432661
C	-1.2515009601	-2.1470954736	-0.0619009081	-0.003232
O	-0.8772965502	-2.6191476261	-1.3545451151	-0.441711
H	 0.888757789	 1.550847223	 0.2007915326	 0.30939
H	-2.6280587166	 1.0206592154	-0.1264231083	 0.128607
H	-4.457508655	-0.8708167449	-0.125517818	 0.11848
H	-3.0012707607	-2.78532937	 1.1002790158	 0.099918
H	-2.7439757234	-3.271478503	-1.6046273641	 0.296285
H	-0.6580562722	-2.6516326034	 0.7083073102	 0.089345
H	-0.1057963341	-2.1136090821	-1.6319186422	 0.297008
45.7013	164.2597	221.1472	248.1202	259.1684	319.0677	353.5774	382.8561	428.2494	444.4792	485.8816	609.685	693.5646	730.0142	775.2705	838.8985	860.9771	888.1262	976.3966	993.4119	1026.5886	1083.6045	1096.857	1140.089	1196.7917	1248.1715	1286.9028	1318.1992	1340.612	1355.0696	1382.7954	1411.1468	1445.1131	1640.594	1725.4258	3021.0663	3048.2752	3204.1821	3242.6243	3750.7594	3816.8701	3819.7164
ON=C1C=CC(O)C1O	ON=C1C=C[C@@H](O)[C@H]1O	
InChI=1S/C5H7NO3/c7-4-2-1-3(6-9)5(4)8/h1-2,4-5,7-9H	InChI=1S/C5H7NO3/c7-4-2-1-3(6-9)5(4)8/h1-2,4-5,7-9H/t4-,5+/m1/s1
