21
gdb 99405	1.7544	1.4175	0.98647	2.2735	83.31	-0.2509	-0.009	0.2419	1330.5239	0.180479	-420.4331	-420.422382	-420.421437	-420.469072	37.646	
C	-1.2887199612	 0.2960732736	-2.5291276982	-0.385891
C	-1.0612128102	 0.6051347955	-1.0409275884	-0.24703
C	-2.2019974486	 0.1451491102	-0.158579449	 0.314046
N	-2.9037612301	 1.0110945976	 0.4471286957	-0.241435
C	-3.9519513534	 0.667521069	 1.3864893659	-0.339801
N	-2.408921313	-1.2705365278	-0.1094767537	-0.097918
C	-1.2807693711	-2.1743169442	 0.1091683587	-0.360322
C	-3.6394993243	-1.8163333297	-0.4009481116	 0.145366
O	-3.8819524082	-3.0023324455	-0.4249498271	-0.332602
H	-0.4443550927	 0.6512946296	-3.1266328365	 0.123649
H	-1.3991936621	-0.7775699568	-2.7104615956	 0.127109
H	-2.1929398555	 0.7925089023	-2.8943995109	 0.130226
H	-0.1261217746	 0.1374889894	-0.7092808036	 0.109998
H	-0.9575729906	 1.6800622231	-0.8827365617	 0.128745
H	-3.8741727015	 1.3469945377	 2.241706194	 0.131531
H	-4.9351105473	 0.8460661254	 0.9353273478	 0.13484
H	-3.9250689224	-0.3669745801	 1.7532126177	 0.120588
H	-0.689401276	-1.8403929334	 0.9654028964	 0.135414
H	-1.6937559726	-3.1627914775	 0.3095229751	 0.17185
H	-0.6312793983	-2.2391418271	-0.7704022654	 0.135186
H	-4.3884456262	-1.0419641114	-0.6368516094	 0.09645
69.2748	85.4229	113.6079	147.3809	175.0714	198.2685	215.3234	247.4273	313.8872	329.6863	337.3456	375.022	419.2592	562.8333	592.4461	713.8611	800.0131	824.6345	952.2524	977.0171	1032.3853	1046.0132	1072.3603	1099.0625	1128.4858	1149.3784	1154.73	1188.9603	1259.0506	1301.8591	1342.8019	1357.8531	1411.0816	1433.7668	1440.6267	1442.0311	1479.5674	1487.0487	1495.2925	1498.4877	1503.8848	1508.597	1515.1447	1740.2984	1794.758	2995.1685	3007.1477	3035.0946	3041.3963	3043.0735	3073.0185	3084.362	3103.4984	3104.6222	3115.401	3125.1333	3159.7376
CCC(=NC)N(C)C=O	CCC(=NC)N(C)C=O	
InChI=1S/C6H12N2O/c1-4-6(7-2)8(3)5-9/h5H,4H2,1-3H3	InChI=1S/C6H12N2O/c1-4-6(7-2)8(3)5-9/h5H,4H2,1-3H3
