14
gdb 128698	2.83662	1.33362	0.91237	4.7337	67.71	-0.2522	-0.0579	0.1943	1193.3681	0.101699	-470.004781	-469.996715	-469.995771	-470.037998	28.011	
C	-0.0015196099	 1.3995866722	 0.0383121301	-0.245951
O	 0.0160717686	-0.0311289514	 0.0225529304	-0.257739
C	 0.6287605445	-0.6217079789	 1.0458324937	 0.366303
N	 1.2090525306	 0.0227661724	 2.0534950015	-0.309836
N	 1.6693711028	-0.9898022411	 2.8036962282	-0.073168
N	 1.4428471624	-2.2068017672	 2.379946867	-0.234171
C	 0.7654378497	-2.0233997947	 1.2339676294	 0.115915
C	 0.2809812323	-3.1085320657	 0.3757859848	 0.084716
O	 0.4305394498	-4.2877489334	 0.5923622739	-0.265685
H	 1.0172546593	 1.7984341676	 0.0260674026	 0.143596
H	-0.5369739756	 1.6989341222	-0.8624464299	 0.14226
H	-0.5179443426	 1.7696148315	 0.9291032312	 0.143608
H	 2.1699550232	-0.8132755778	 3.6605463584	 0.302788
H	-0.255913895	-2.7441905458	-0.5255013911	 0.087364
90.8287	147.4301	148.11	173.7315	245.5171	259.361	384.6478	391.7964	529.2159	577.8555	712.8953	717.1892	766.7186	833.4455	985.8422	1038.2466	1045.44	1176.163	1179.9173	1197.1145	1224.2986	1301.5289	1362.7867	1422.0059	1455.161	1474.2863	1482.5602	1498.3735	1541.2352	1592.9278	1802.5595	2909.5813	3041.0911	3112.8727	3159.0863	3659.0559
COC1=NNN=C1C=O	COc1n[nH]nc1C=O	
InChI=1S/C4H5N3O2/c1-9-4-3(2-8)5-7-6-4/h2H,1H3,(H,5,6,7)	InChI=1S/C4H5N3O2/c1-9-4-3(2-8)5-7-6-4/h2H,1H3,(H,5,6,7)
