14
gdb 130034	3.45013	1.5939	1.09856	2.8632	69.27	-0.233	-0.02	0.213	1010.9169	0.104038	-432.865294	-432.8586	-432.857656	-432.896233	26.254	
N	-0.0523021305	 1.3740748705	 0.1309149731	-0.571508
C	 0.0014786415	 0.0083406878	 0.0321071025	 0.263339
N	-1.0552392141	-0.743841137	 0.0180207304	-0.324869
C	-0.6341131363	-2.1525471132	-0.0086756627	-0.287552
C	 0.8613532732	-2.0622273847	-0.0277823304	 0.364073
C	 1.2521118214	-0.7611641436	 0.0016014548	 0.128599
C	 2.6671833441	-0.8494045623	-0.0025242686	-0.158671
N	 3.0711973821	-2.101232238	-0.0364377192	-0.133616
O	 1.892239253	-2.8928626678	-0.0506722284	-0.225516
H	 0.7111443086	 1.8934408994	-0.2719791247	 0.256411
H	-0.9654714552	 1.7690532831	-0.0418186952	 0.261903
H	-1.0110645978	-2.6898409306	 0.8705054149	 0.14572
H	-1.0416107818	-2.6599022502	-0.8915727723	 0.144295
H	 3.4230713018	-0.0767370134	 0.0177855757	 0.137391
192.7805	207.7929	276.9465	297.3787	391.7086	497.5568	539.7729	620.3803	627.2371	634.3357	646.4515	753.9374	797.1907	841.4796	904.1069	962.471	965.8669	972.6547	1110.0719	1155.7683	1166.7879	1195.0901	1250.2682	1325.2034	1392.9939	1448.7486	1472.8326	1521.9016	1584.6091	1622.7926	1679.921	3035.6656	3064.3176	3241.2801	3577.0133	3692.1318
NC1=NCC2=C1C=NO2	NC1=NCc2c1cno2	
InChI=1S/C5H5N3O/c6-5-3-1-8-9-4(3)2-7-5/h1H,2H2,(H2,6,7)	InChI=1S/C5H5N3O/c6-5-3-1-8-9-4(3)2-7-5/h1H,2H2,(H2,6,7)
