20
gdb 103108	1.86901	1.53394	1.18562	5.5596	80.81	-0.2323	0.0348	0.2672	1182.8682	0.170233	-399.314411	-399.304195	-399.303251	-399.349024	37.433	
C	-0.3528573901	 1.240919905	 0.0296922542	-0.332243
N	 0.2366050232	-0.0972798071	 0.0394764168	-0.320022
C	 0.8229383627	-0.5492521826	-1.1906321161	 0.275682
C	 1.9826983343	 0.2305748328	-1.7848347317	-0.463232
C	 0.7725783676	-2.0534595795	-1.3850383462	-0.033962
N	 0.2329101217	-2.9703035723	-0.4246233986	-0.513114
C	-0.1723194552	-1.1715667552	-2.1922004963	-0.247951
C	-1.5771681047	-1.1781814898	-1.9084145908	 0.321353
N	-2.7158179909	-1.1789442389	-1.7000453905	-0.360444
H	 0.3533058821	 2.0503095543	-0.2130226683	 0.100623
H	-1.1714047517	 1.2690724169	-0.694456515	 0.148835
H	-0.7776429661	 1.4455718961	 1.0162394355	 0.125738
H	 0.9156410731	-0.1791081681	 0.7892915207	 0.218841
H	 2.8078983204	 0.2945540978	-1.0655046598	 0.116754
H	 2.3666146903	-0.2536851139	-2.6883350661	 0.120407
H	 1.6915080279	 1.2510235945	-2.0554379283	 0.129745
H	 1.58093729	-2.4853396196	-1.9687105736	 0.103858
H	 0.97400444	-3.3061678983	 0.1836115436	 0.230498
H	-0.4378593129	-2.4843811943	 0.1652745268	 0.250768
H	 0.0572214884	-1.0444153479	-3.2451207462	 0.127867
108.0561	117.2662	137.0077	188.9487	193.1011	218.8053	233.8874	253.4672	287.9181	374.0136	402.2609	419.1251	538.7895	601.8116	643.4447	678.2968	738.1717	811.1405	833.8411	897.7505	956.013	976.6417	1054.2299	1077.7969	1088.7792	1121.7819	1146.387	1171.5838	1188.3571	1203.1554	1285.6532	1322.5781	1359.3654	1409.6434	1450.8366	1460.3919	1476.4172	1488.3848	1491.6685	1503.8188	1521.2647	1662.6855	2348.2397	2980.8477	3024.1896	3081.5215	3089.1868	3100.0154	3122.9378	3148.8385	3165.7579	3486.259	3514.4919	3567.0205
CNC1(C)C(N)C1C#N	CN[C@@]1(C)[C@@H](N)[C@H]1C#N	
InChI=1S/C6H11N3/c1-6(9-2)4(3-7)5(6)8/h4-5,9H,8H2,1-2H3	InChI=1S/C6H11N3/c1-6(9-2)4(3-7)5(6)8/h4-5,9H,8H2,1-2H3/t4-,5+,6-/m1/s1
