18
gdb 9299	5.14013	0.95962	0.82098	2.9902	76.02	-0.2455	-0.0091	0.2364	1380.0783	0.152744	-381.153516	-381.144324	-381.143379	-381.187717	31.964	
C	 0.2340923083	 1.0069191911	-0.7943994846	-0.398185
C	-0.3046320761	 0.3388631482	 0.4740560854	-0.110616
N	-1.4639051021	-0.5340016402	 0.3702409142	-0.260281
C	-2.0171699752	-0.7378159945	-0.747954567	 0.11148
N	-3.126156443	-1.5690937227	-0.8661604646	-0.084761
C	-3.6667935744	-2.2221728521	 0.3203774785	-0.336098
C	-3.7093620133	-1.7731273315	-2.0981367931	 0.165415
O	-4.6717771654	-2.4733407455	-2.3066124184	-0.323381
H	 1.100740225	 1.62453503	-0.5411620446	 0.119564
H	 0.5588801068	 0.2715531777	-1.5384514433	 0.121676
H	-0.5111435314	 1.6595948621	-1.2618415642	 0.121677
H	 0.4950664499	-0.2515053608	 0.9410373008	 0.116176
H	-0.5557447365	 1.1117800685	 1.2127458716	 0.116176
H	-1.7062282865	-0.307567428	-1.7048983312	 0.102351
H	-3.9700729048	-1.4715140944	 1.0539990583	 0.145007
H	-4.5209878149	-2.8186242664	 0.0044209687	 0.162189
H	-2.9027878508	-2.8542070159	 0.7791443099	 0.145036
H	-3.1880683455	-1.2122998255	-2.8963300262	 0.086576
70.9318	109.5039	127.4769	138.5943	221.3584	273.4374	297.5532	326.0039	329.6892	398.045	488.8744	512.108	767.555	778.4079	884.1367	904.9541	985.0509	1028.8217	1065.883	1078.3716	1115.9781	1146.115	1161.1859	1308.0003	1313.5749	1359.6578	1381.913	1401.8758	1429.0002	1446.0252	1456.4372	1483.1273	1487.7348	1496.1761	1507.2332	1512.4406	1745.737	1819.8655	2956.0244	3016.3412	3032.807	3035.9194	3061.342	3072.9184	3100.557	3109.7356	3124.3465	3178.0688
CCN=CN(C)C=O	CCN=CN(C)C=O	
InChI=1S/C5H10N2O/c1-3-6-4-7(2)5-8/h4-5H,3H2,1-2H3	InChI=1S/C5H10N2O/c1-3-6-4-7(2)5-8/h4-5H,3H2,1-2H3
