21
gdb 74610	3.2663	1.4878	1.26453	0.3529	87.89	-0.214	0.0287	0.2428	1086.8614	0.185172	-349.950693	-349.943243	-349.942299	-349.982126	31.051	
C	-0.1541444936	 1.5833242655	 0.0497585456	-0.477605
C	-0.0065875345	 0.088813768	-0.0034176708	 0.301382
C	 0.029207329	-0.5958054302	-1.1522244769	-0.152415
C	 0.1246871378	-2.076991843	-1.2153943202	-0.055472
C	 1.327766169	-2.8839404801	-0.7257757473	-0.06583
C	 2.0324786641	-2.1610410364	 0.4209057054	-0.24402
C	 0.6567925529	-2.0523200461	 1.1706973848	-0.028222
C	 0.1044742838	-0.6341928901	 1.3246076258	-0.303747
C	 0.0134951487	-2.8880081063	 0.0420898478	-0.093765
H	 0.7082345511	 2.0542741354	 0.5400031183	 0.118681
H	-0.2558505059	 2.0161910708	-0.9493978041	 0.116885
H	-1.036567405	 1.8723631369	 0.6364570459	 0.119111
H	-0.0308704093	-0.0611292545	-2.0978134603	 0.07176
H	-0.3423031009	-2.5312606589	-2.085180717	 0.080868
H	 1.7549062877	-3.6658633899	-1.3432040821	 0.079183
H	 2.7347410911	-2.8087557227	 0.9511922557	 0.097528
H	 2.532379049	-1.2180718946	 0.1770642696	 0.093935
H	 0.6714768353	-2.5703110514	 2.1322552456	 0.066623
H	 0.7603960334	-0.0598086508	 1.9946925796	 0.09726
H	-0.8771490276	-0.6516212424	 1.8233231574	 0.10116
H	-0.715198836	-3.6794103494	 0.1702556974	 0.0767
130.5505	191.4231	264.1088	324.515	336.6638	403.088	455.7882	496.8816	565.8329	707.2028	729.4838	770.3172	784.8073	813.816	848.6434	877.3842	895.7282	948.6684	965.9649	985.7755	1008.1632	1019.9561	1034.807	1059.7454	1068.6657	1077.9919	1094.7766	1135.5399	1163.7873	1184.6437	1206.1349	1251.2658	1264.3478	1297.5681	1309.0662	1324.7855	1357.2711	1394.5487	1413.0245	1426.848	1468.7387	1479.1864	1486.2479	1492.1098	1727.7322	2986.8962	3009.2237	3016.5	3046.7319	3052.5592	3074.7555	3104.2553	3105.6533	3138.0178	3150.6701	3169.1807	3183.1837
CC1=CC2C3CC(C1)C23	CC1=C[C@H]2[C@H]3C[C@@H](C1)[C@@H]23	
InChI=1S/C9H12/c1-5-2-6-4-8-7(3-5)9(6)8/h3,6-9H,2,4H2,1H3	InChI=1S/C9H12/c1-5-2-6-4-8-7(3-5)9(6)8/h3,6-9H,2,4H2,1H3/t6-,7+,8-,9+/m1/s1
