19
gdb 38900	2.66935	1.8152	1.52907	0.9556	73.32	-0.228	0.0771	0.3051	947.859	0.161931	-422.988836	-422.981814	-422.98087	-423.020042	28.668	
C	-0.1409647496	 1.4874330396	 0.2259139647	-0.344058
C	 1.2350420771	 0.8713943301	 0.0180559817	-0.06687
C	 2.1996555163	 0.7516164231	 1.1841808788	-0.24306
C	 1.5712739948	 0.1866625246	 2.450161078	 0.083077
O	 0.7474697738	 1.1329237693	 3.1816124473	-0.292589
C	-0.3456345129	 0.1896057671	 3.2639297649	-0.111969
C	 0.3705694435	-0.7874334654	 2.3059418787	 0.076944
O	-0.1956814947	-0.9704948018	 1.0308049502	-0.269401
C	 0.0149351209	-0.0010066627	 0.035358049	 0.121873
H	-0.3469958517	 1.8876813527	 1.2096958339	 0.145414
H	-0.583795432	 2.0451431307	-0.592823151	 0.108393
H	 1.7131641938	 1.0349737186	-0.9432037341	 0.084435
H	 3.0216124395	 0.0836346175	 0.895797874	 0.10535
H	 2.6529216013	 1.72045165	 1.4289538584	 0.117749
H	 2.3535890199	-0.2125672207	 3.1090565543	 0.07768
H	-0.4794400342	-0.1887022065	 4.2852555419	 0.102556
H	-1.2903505757	 0.6041685371	 2.8977388948	 0.112933
H	 0.5308595117	-1.7924181355	 2.7017063146	 0.090889
H	-0.3357223716	-0.4171236577	-0.9026277801	 0.100655
144.7971	166.6969	288.8832	321.4137	373.8302	412.1172	516.0477	567.7677	690.0499	737.1209	764.7618	805.6118	827.9311	858.3847	870.4149	931.4616	967.539	996.297	1009.0398	1037.5773	1056.3358	1080.3324	1094.4208	1117.0827	1135.3436	1142.7667	1174.9556	1196.9861	1242.1761	1249.1151	1262.1617	1298.011	1330.7064	1354.1807	1369.6823	1399.67	1404.6383	1429.8108	1467.8939	1492.9081	1515.1304	3005.5116	3019.8321	3025.3467	3056.2004	3078.9387	3090.4275	3139.9728	3144.7092	3171.2911	3245.1808
C1C2CC3OCC3OC12	C1[C@H]2C[C@H]3OC[C@H]3O[C@@H]12	
InChI=1S/C7H10O2/c1-4-2-6-7(3-8-6)9-5(1)4/h4-7H,1-3H2	InChI=1S/C7H10O2/c1-4-2-6-7(3-8-6)9-5(1)4/h4-7H,1-3H2/t4-,5-,6+,7+/m0/s1
