17
gdb 72618	2.16613	1.95476	1.6051	1.5205	66.79	-0.2273	0.0663	0.2936	926.4818	0.134958	-458.908517	-458.900698	-458.899753	-458.940427	31.071	
O	 0.1881856765	 1.4056444476	 0.0448794633	-0.480232
C	 0.0420894802	 0.0258553526	 0.0245471947	 0.340654
C	 0.434011161	-0.6902308248	 1.3302845196	-0.276303
C	-0.9095193303	-1.483717771	 1.3390201382	-0.276304
C	-1.3599814793	-0.802233371	 0.0336500888	 0.340658
O	-2.6386221609	-0.2639177963	 0.0632146798	-0.480233
C	-0.8722515446	-1.4900133008	-1.2326759138	-0.064335
O	-0.6410742994	-0.4429781451	-2.1968302326	-0.272722
C	 0.396754103	-0.7404835231	-1.2409377578	-0.064334
H	-0.1257627681	 1.7404307227	-0.8038551976	 0.285612
H	 1.3524488839	-1.2817198014	 1.2934805597	 0.100318
H	 0.5101617263	 0.0226495843	 2.1530384918	 0.12395
H	-0.8352719614	-2.5737858841	 1.3077207943	 0.100317
H	-1.5626343596	-1.2015248926	 2.1665041877	 0.12395
H	-2.7884427877	 0.1677524228	-0.7866147313	 0.285613
H	-1.084488729	-2.479751167	-1.6223793903	 0.106696
H	 1.3621869595	-1.0346410129	-1.6383106142	 0.106696
111.9816	183.2847	237.794	255.9687	343.7928	350.7567	419.7043	449.5008	541.1359	591.2869	612.1753	679.339	738.3796	748.8529	843.3191	869.7821	895.9682	900.3798	950.5986	989.4507	1015.2188	1035.9489	1050.8243	1093.1841	1125.9874	1197.6242	1202.1137	1222.7424	1241.1166	1266.4211	1330.618	1335.8673	1361.858	1376.0385	1388.2484	1470.9844	1491.1537	3063.8607	3069.8913	3117.5004	3134.4646	3172.4395	3186.6533	3786.4107	3789.1266
OC12CCC1(O)C1OC21	O[C@@]12CC[C@]1(O)[C@H]1O[C@@H]21	
InChI=1S/C6H8O3/c7-5-1-2-6(5,8)4-3(5)9-4/h3-4,7-8H,1-2H2	InChI=1S/C6H8O3/c7-5-1-2-6(5,8)4-3(5)9-4/h3-4,7-8H,1-2H2/t3-,4+,5-,6+
