16
gdb 128019	4.96496	0.90759	0.77098	6.5855	77.89	-0.2172	-0.0052	0.2119	1423.5524	0.125346	-430.23854	-430.229968	-430.229024	-430.272329	30.521	
C	-0.2509677229	 1.61792492	 0.0139680959	-0.315258
N	-0.0042511171	 0.19189865	-0.0015417139	-0.197463
C	-1.004763725	-0.5778399141	 0.0740751578	 0.096069
N	-0.9094379914	-1.9566678249	 0.0694167881	-0.445557
C	 0.2630689924	-2.6844118498	-0.0159924248	 0.450266
C	 1.5980720108	-2.3481165349	-0.1160872247	-0.130318
N	 2.3233171299	-3.5019496005	-0.1672620534	-0.179998
N	 1.5362006626	-4.5287631198	-0.1064134007	-0.12261
N	 0.2680296517	-4.0420843528	-0.0133263905	-0.276715
H	 0.2813402181	 2.0762590827	 0.8553612253	 0.131494
H	 0.1482196481	 2.0723128683	-0.9001428437	 0.131487
H	-1.3180191	 1.8834043366	 0.0942409536	 0.095471
H	-2.047347621	-0.2397341257	 0.1509589271	 0.088316
H	-1.7747707791	-2.4650220554	 0.1348684412	 0.256575
H	 2.0382468531	-1.3698981812	-0.1513606651	 0.147033
H	-0.5028368302	-4.6871492785	 0.0471127778	 0.271206
58.9344	129.4507	129.9919	204.1001	255.3874	300.4613	308.355	361.1185	425.4265	472.7066	659.478	695.6747	720.5323	788.7941	841.4749	966.4394	986.743	1030.0343	1036.4657	1070.1501	1122.4831	1140.4717	1151.7093	1205.2084	1241.1641	1340.2976	1368.1784	1405.414	1432.8733	1449.106	1479.3903	1504.7374	1568.6547	1632.5062	1765.4365	2967.3565	3023.1389	3058.1478	3076.8931	3329.3873	3657.4366	3659.004
CN=CNC1=CN=NN1	CN=CNc1cnn[nH]1	
InChI=1S/C4H7N5/c1-5-3-6-4-2-7-9-8-4/h2-3H,1H3,(H2,5,6,7,8,9)	InChI=1S/C4H7N5/c1-5-3-6-4-2-7-9-8-4/h2-3H,1H3,(H2,5,6,7,8,9)
