18
gdb 9152	5.19202	0.76993	0.70542	1.4092	74.87	-0.2458	0.0317	0.2775	1614.3382	0.150165	-384.886883	-384.876596	-384.875652	-384.923675	34.358	
C	 0.1145363013	 1.2691502809	 0.3058161166	-0.229857
O	 0.0090121251	-0.1147782496	 0.061681957	-0.241121
C	 0.5596630996	-0.5289097004	-1.1859730867	-0.041965
C	 2.0938414583	-0.627139487	-1.1374464347	-0.390775
C	-0.0334465494	-1.8183054632	-1.5376222901	 0.052539
C	-0.4854487443	-2.8893441542	-1.8475554721	 0.141418
C	-1.0694449605	-4.170964669	-2.2185995215	-0.218498
O	-0.0868898462	-5.1954376236	-2.1209833892	-0.409147
H	 1.154966358	 1.6043668271	 0.4276864088	 0.106589
H	-0.3455635775	 1.8611703433	-0.5014177188	 0.103828
H	-0.4224654848	 1.4680794557	 1.2363943895	 0.130094
H	 0.2775477886	 0.206739935	-1.9594666444	 0.089211
H	 2.5378236127	 0.3460008353	-0.9103769846	 0.115304
H	 2.3942932831	-1.3432693265	-0.3689518007	 0.138334
H	 2.4814527244	-0.9644164247	-2.1023921297	 0.128958
H	-1.9263453083	-4.3743873212	-1.5557827675	 0.120375
H	-1.4704746105	-4.100622566	-3.2431759328	 0.115455
H	-0.5141515696	-6.024733102	-2.3585851693	 0.289256
25.3797	61.3958	91.0279	109.0318	191.452	216.6725	226.7544	254.5864	293.2475	364.822	378.196	483.2293	529.5614	598.8925	765.5339	854.6878	989.3962	1025.3859	1045.1095	1068.2068	1099.3138	1132.4996	1177.8271	1180.9892	1217.7729	1247.8284	1256.1137	1343.3879	1374.5295	1397.1889	1459.0051	1474.8669	1481.3478	1490.7332	1498.6915	1500.9814	1511.3142	2374.1337	2946.0869	2962.1344	2973.8711	2981.0162	3022.5344	3049.1294	3113.7409	3122.6142	3135.3637	3817.4344
COC(C)C#CCO	CO[C@@H](C)C#CCO	
InChI=1S/C6H10O2/c1-6(8-2)4-3-5-7/h6-7H,5H2,1-2H3	InChI=1S/C6H10O2/c1-6(8-2)4-3-5-7/h6-7H,5H2,1-2H3/t6-/m0/s1
