12
gdb 50815	5.02532	0.8331	0.71463	3.9602	60.11	-0.2657	-0.1364	0.1293	1438.4025	0.073679	-509.777783	-509.768676	-509.767732	-509.814372	29.125	
N	-0.2037279346	 1.3070919794	 0.0130633585	-0.399208
C	-0.0236100416	 0.066757746	 0.0031814024	 0.12045
O	-1.1512954369	-0.7373633553	 0.0096525313	-0.180308
C	-0.9767896546	-2.0737683682	-0.0009952938	 0.381928
O	 0.0774428302	-2.6552758691	-0.0152644087	-0.323145
C	-2.3261300143	-2.8141333699	 0.0085167632	 0.186245
O	-3.3802680441	-2.2449921702	 0.0210319874	-0.21716
C	-2.2223558726	-4.3604836768	 0.0007796084	 0.092764
O	-3.2174722842	-5.0302417762	 0.0068569322	-0.201549
H	 0.692481947	 1.7923194191	 0.0061338629	 0.250774
H	 0.9043659965	-0.5040532731	-0.0110386209	 0.153624
H	-1.202520471	-4.7832667659	-0.010165523	 0.135586
17.215	55.7775	95.6267	123.2423	128.0455	260.9867	319.0374	359.2323	408.3964	473.0708	577.8422	712.7597	815.7553	853.5513	863.9749	953.9663	1013.6542	1061.3477	1067.4338	1242.7086	1282.9296	1388.8719	1397.8823	1749.4609	1808.5094	1819.2775	1843.1614	2989.7645	3145.951	3511.8041
N=COC(=O)C(=O)C=O	[NH][CH]OC(=O)C(=O)C=O	
InChI=1S/C4H3NO4/c5-2-9-4(8)3(7)1-6/h1-2,5H	InChI=1S/C4H3NO4/c5-2-9-4(8)3(7)1-6/h1-2,5H
