14
gdb 80208	1.28097	0.85386	0.52902	6.3828	76.78	-0.2645	-0.0605	0.204	1979.9614	0.095722	-432.846334	-432.834822	-432.833878	-432.889269	35.593	
N	 0.0851885711	 1.6290813734	-1.3755772254	-0.695726
H	 0.543530849	 0.8091642556	-1.764382026	 0.251378
H	 0.7115001316	 2.4109519826	-1.5487541585	 0.252261
H	-0.7368273498	 1.7931683167	-1.9506758891	 0.250299
C	-0.511682604	 1.2915676148	 1.8280121205	-0.208355
C	-0.8714236945	 0.3427612443	 2.9198490314	-0.090393
N	 0.0798145195	-0.6454770697	 3.326482029	-0.371405
C	 0.0586925271	-1.7290271881	 3.8523872318	 0.542206
O	 0.1614300881	-2.7855719754	 4.3497347226	-0.303033
C	-0.5132728542	 1.7927196033	 3.0313381339	 0.172413
C	-0.2967590944	 2.853951756	 3.9102562038	 0.200718
N	-0.1334625014	 3.714388709	 4.6696914276	-0.352198
H	-0.3219089044	 1.4111489437	 0.7629827051	 0.226755
H	-1.9041357137	 0.0275259839	 3.0634140334	 0.125079
3.225	24.4363	39.8611	47.7864	117.9005	137.613	151.8271	203.9348	231.6735	256.0617	376.0655	451.4085	545.4135	591.6496	628.052	654.0945	689.3035	876.7431	943.4487	1005.9021	1041.3705	1090.4121	1120.5316	1191.9717	1373.9647	1480.4979	1677.0755	1677.9904	1799.3956	2339.8978	2376.9849	3102.7199	3126.872	3469.0914	3585.7403	3586.2921
[NH3+]C1C2[N-]C(=O)C12C#N	N.C1=C([C@@H]1N=C=O)C#N	
InChI=1S/C5H5N3O/c6-1-5-2(7)3(5)8-4(5)9/h2-3H,7H2,(H,8,9)	InChI=1S/C5H2N2O.H3N/c6-2-4-1-5(4)7-3-8;/h1,5H;1H3/t5-;/m1./s1
