21
gdb 62865	2.79058	1.80393	1.4274	1.49	81.7	-0.2401	0.0752	0.3153	998.2125	0.183996	-387.042711	-387.034957	-387.034013	-387.074164	32.741	
C	-0.0644635195	 1.5401263452	-0.0260561813	-0.465491
C	-0.0308837226	 0.0061618088	-0.0174465512	 0.428539
O	-1.3806612084	-0.4160493974	-0.1309969657	-0.479674
C	 1.0932058239	-0.6401770876	-0.9045598982	-0.109796
C	 2.0576110688	-0.2570760553	 0.2808282503	-0.227849
C	 0.7899870639	-0.6442330925	 1.1333366479	-0.079834
C	 0.7984835351	-2.1637605172	 0.8580229725	-0.038374
C	-0.1842164219	-2.8504845442	-0.0614769125	-0.308987
C	 1.024071823	-2.1594813393	-0.6508778674	-0.03779
H	 0.9008442284	 2.0287766044	 0.0981719114	 0.124297
H	-0.479521117	 1.8892449199	-0.9812183443	 0.104875
H	-0.7302306938	 1.8851146444	 0.771067005	 0.126548
H	-1.7966298617	 0.1102207517	-0.8213978683	 0.273567
H	 1.2688474515	-0.3013542933	-1.9274179819	 0.051073
H	 2.9232690415	-0.9089208759	 0.4090289796	 0.094746
H	 2.3703438439	 0.7849568114	 0.3308399209	 0.090529
H	 0.6587732333	-0.3166090803	 2.1657842365	 0.058014
H	 1.4075573692	-2.7680134042	 1.52191845	 0.081181
H	-0.0994728082	-3.934669387	-0.0523124731	 0.093403
H	-1.183089729	-2.4765812442	-0.2051737807	 0.140802
H	 1.8011751696	-2.7616271574	-1.1098193895	 0.080221
166.2841	199.2528	230.1493	310.3354	314.4157	396.56	446.8343	459.9005	528.8932	612.2555	663.5699	677.4106	756.1752	797.3557	800.9016	826.5886	880.9098	903.941	909.1331	971.4493	992.8774	1015.9127	1025.8101	1047.6005	1070.3803	1079.04	1094.5678	1102.5774	1111.7605	1119.9204	1154.1986	1187.0021	1205.9641	1219.8565	1230.2862	1256.6796	1275.6051	1322.027	1365.7988	1389.4046	1412.8944	1480.8063	1491.2944	1499.2514	1529.2594	3021.0745	3082.8301	3090.3972	3094.536	3103.6932	3127.3595	3137.6524	3155.5041	3158.3759	3166.8387	3283.2005	3810.4393
CC1(O)C2CC1C1CC21	C[C@@]1(O)[C@H]2C[C@@H]1[C@H]1C[C@@H]21	
InChI=1S/C8H12O/c1-8(9)6-3-7(8)5-2-4(5)6/h4-7,9H,2-3H2,1H3	InChI=1S/C8H12O/c1-8(9)6-3-7(8)5-2-4(5)6/h4-7,9H,2-3H2,1H3/t4-,5+,6+,7-,8-
