20
gdb 105204	1.98468	1.61451	1.08246	2.9832	76.45	-0.2355	-0.026	0.2095	1193.1707	0.168355	-440.270681	-440.260658	-440.259714	-440.305601	36.591	
C	-0.2648928495	 1.6515531358	 0.5108983133	-0.316039
N	-0.2747641351	 0.1924568704	 0.4782564207	-0.107398
C	 0.7545289868	-0.5031205607	-0.2554004566	-0.293772
C	 0.7457726785	-0.5498459514	 1.2490526781	 0.181298
C	 1.855277532	 0.1630664444	 2.0094164727	-0.142378
O	 1.4084982648	 0.7072939498	 3.2351780078	-0.428747
C	 0.1865244716	-1.7453361537	 1.9862666766	 0.367222
C	-0.8698955881	-2.5889343739	 1.3099994122	-0.494808
O	 0.5847235834	-1.9993225503	 3.1085926802	-0.330957
H	 0.7161250321	 2.1011347162	 0.3020348203	 0.108927
H	-0.9701848638	 2.0134982552	-0.2433560794	 0.126411
H	-0.594214604	 1.9881523334	 1.4965342042	 0.149058
H	 0.4405332346	-1.3585870097	-0.8476215321	 0.117673
H	 1.5595393514	 0.084066761	-0.6992042305	 0.115273
H	 2.6795566171	-0.5495780024	 2.1602654287	 0.102204
H	 2.2504487008	 0.9936836101	 1.419378153	 0.101941
H	 1.1575858391	-0.0566038934	 3.7711679734	 0.297565
H	-0.4046862752	-3.219641015	 0.5431884458	 0.142204
H	-1.3447783548	-3.2334168731	 2.0501838223	 0.141773
H	-1.6041949516	-1.9511499724	 0.8125721694	 0.16255
61.3432	112.2162	146.1916	158.5546	174.3342	208.6087	266.1412	313.7055	365.1293	389.6426	439.2668	514.6479	537.0116	560.1199	610.9675	693.647	766.0721	846.0637	913.7047	964.8767	993.0779	1048.4389	1062.854	1081.6432	1102.886	1123.2839	1146.461	1174.0275	1201.8594	1229.2769	1322.2969	1365.4159	1382.4529	1388.5671	1437.2663	1448.9976	1466.1597	1475.3543	1482.9288	1488.9005	1505.5277	1514.4479	1769.8314	2997.6369	3001.3663	3043.1243	3078.6841	3081.4689	3097.3198	3115.4582	3129.1734	3161.535	3171.6965	3767.8042
CN1CC1(CO)C(C)=O	CN1C[C@]1(CO)C(=O)C	
InChI=1S/C6H11NO2/c1-5(9)6(4-8)3-7(6)2/h8H,3-4H2,1-2H3	InChI=1S/C6H11NO2/c1-5(9)6(4-8)3-7(6)2/h8H,3-4H2,1-2H3/t6-,7?/m0/s1
