15
gdb 27700	2.9114	1.33544	0.92148	1.0637	82.1	-0.1936	-0.0128	0.1808	1218.0249	0.111688	-416.823862	-416.815045	-416.814101	-416.857344	32.324	
C	 0.0722668746	 1.4244276046	 0.0016781619	-0.497909
C	-0.0419728948	-0.0566842408	-0.0053201781	 0.381632
N	-1.1288732896	-0.7698775115	 0.0771164619	-0.334824
C	-0.6943714061	-2.0787544932	 0.0256693435	 0.172695
N	-1.5915012561	-3.1209555029	 0.028654417	-0.603832
C	 0.6750123301	-2.1051824056	-0.0830961336	 0.140779
O	 1.088755832	-0.7731010693	-0.1067142249	-0.212613
C	 1.6081507012	-3.1385546352	-0.1608096154	 0.200659
C	 2.3830234338	-4.063017013	-0.2170395198	-0.411733
H	 0.6958709451	 1.7644510738	 0.8347965032	 0.149952
H	 0.5349690767	 1.7840246545	-0.9231277165	 0.151373
H	-0.9227783692	 1.8589545824	 0.0967253434	 0.156706
H	-2.4702544595	-2.8955315602	 0.4714589284	 0.260363
H	-1.2134258254	-4.0109609467	 0.31799651	 0.259513
H	 3.0689105372	-4.8704973569	-0.281519081	 0.187237
84.1342	126.4576	131.6446	216.5432	270.1624	316.6985	347.4497	394.5863	410.1976	497.2584	540.482	581.6534	600.5781	653.6735	675.4845	705.0418	755.0237	816.6371	995.3217	1026.9593	1064.3658	1086.4319	1146.1955	1283.3259	1331.8121	1409.7849	1439.5281	1474.7141	1478.4793	1596.6265	1625.8824	1674.0553	2211.8857	3045.4118	3100.4196	3159.6418	3503.8733	3569.6345	3677.3248
CC1=NC(N)=C(O1)C#C	Cc1nc(N)c(o1)C#C	
InChI=1S/C6H6N2O/c1-3-5-6(7)8-4(2)9-5/h1H,7H2,2H3	InChI=1S/C6H6N2O/c1-3-5-6(7)8-4(2)9-5/h1H,7H2,2H3
