19
gdb 31805	4.6067	0.98921	0.87158	0.0868	86.9	-0.2385	-0.0432	0.1953	1392.126	0.160085	-382.138621	-382.12973	-382.128786	-382.173232	32.148	
C	 0.203793912	 1.5250761003	 0.201111289	-0.370358
C	-0.0962303716	 0.0416212597	-0.0682403139	-0.27176
C	 0.6456805739	-0.4848650894	-1.2703623623	 0.312629
C	 1.6731402613	-1.4275439953	-1.1644860198	-0.072897
N	 2.3466502298	-1.8889903692	-2.2156504379	-0.293869
C	 2.0014599744	-1.4100855992	-3.4172322885	 0.313849
C	 2.7503020184	-1.9203785108	-4.61735692	-0.471928
C	 0.9731869599	-0.4684425622	-3.5243289991	-0.066253
N	 0.3005472231	-0.0074523081	-2.4726057866	-0.292101
H	 1.2629712825	 1.6777246936	 0.4325997147	 0.116652
H	-0.0402646467	 2.125253228	-0.6794796336	 0.13843
H	-0.3850451244	 1.893779825	 1.0461690281	 0.113936
H	 0.1588691185	-0.5605788212	 0.8104680535	 0.102339
H	-1.1710899523	-0.0814012941	-0.2434690102	 0.119708
H	 1.9574090056	-1.8227987723	-0.1912893975	 0.106663
H	 2.6453425639	-3.0067589266	-4.7014277314	 0.142763
H	 2.3870282411	-1.4629450423	-5.540995544	 0.123133
H	 3.8198905519	-1.7086640972	-4.5202276583	 0.142664
H	 0.6849649787	-0.0778286187	-4.4981202922	 0.106401
42.2815	70.7365	97.4557	207.2994	224.109	306.0396	379.8803	397.1523	426.4896	495.7161	573.6925	658.9614	727.8638	785.9908	807.4392	867.4955	921.4144	972.9891	981.6267	1004.6435	1053.1297	1062.3776	1077.3239	1086.2558	1230.3356	1249.1613	1276.9766	1281.3303	1340.1153	1346.343	1383.02	1403.3704	1413.0818	1476.5319	1480.1181	1488.8793	1496.0153	1507.5761	1520.6488	1573.2382	1620.38	3037.5189	3039.7225	3041.819	3077.1341	3102.3624	3109.4161	3124.4794	3125.3123	3145.7021	3150.1496
CCC1=CN=C(C)C=N1	CCc1cnc(C)cn1	
InChI=1S/C7H10N2/c1-3-7-5-8-6(2)4-9-7/h4-5H,3H2,1-2H3	InChI=1S/C7H10N2/c1-3-7-5-8-6(2)4-9-7/h4-5H,3H2,1-2H3
