18
gdb 15775	4.51642	1.09451	0.95557	3.043	72.18	-0.2575	0.0319	0.2894	1209.7127	0.153787	-343.977517	-343.968872	-343.967928	-344.011141	30.996	
C	 0.1657594829	 1.7265512497	-0.0668185401	-0.402618
C	 0.026171481	 0.2052404291	 0.0680537235	-0.009225
C	 0.6017602233	-0.5342178061	-1.1683908859	-0.340549
C	-0.098692763	-0.2052268562	-2.4073814219	 0.261444
N	-0.6709559221	 0.0660331483	-3.3742386875	-0.311148
C	 0.7117429125	-0.3061276926	 1.3197653908	 0.027679
C	-0.0145062802	-0.3747178463	 2.609514503	-0.251116
N	 0.3590613583	-1.6130789414	 1.8978607087	-0.326574
H	 1.2208892715	 2.0194001193	-0.1141079961	 0.121051
H	-0.3252492224	 2.0895853797	-0.9739481242	 0.144509
H	-0.2833689118	 2.231955904	 0.7924570628	 0.126142
H	-1.0407246889	-0.0469895107	 0.1380657229	 0.088546
H	 1.6628993319	-0.2839816075	-1.2891939617	 0.152044
H	 0.5509546611	-1.6179603237	-1.0163302702	 0.156434
H	 1.7829026093	-0.1057053361	 1.352617321	 0.094266
H	 0.5108104021	-0.2068019882	 3.5449766166	 0.125292
H	-1.0604662616	-0.0777160237	 2.6184028444	 0.114961
H	-0.461552574	-1.9888655077	 1.4258894639	 0.228861
64.1765	96.8687	129.4311	199.1417	229.89	294.4443	331.4948	398.2887	426.3674	469.118	559.7251	793.6815	848.3847	863.8	889.971	932.3025	948.6418	964.4126	991.0691	1065.5281	1103.6614	1118.7525	1134.3677	1165.0088	1215.9659	1249.5571	1254.1723	1281.4718	1310.06	1345.2057	1357.411	1413.5017	1433.5373	1464.4759	1498.5607	1500.2395	1512.1381	2360.0144	3016.1026	3035.9884	3041.0784	3081.7673	3102.9757	3107.7841	3108.8707	3122.1983	3194.7995	3478.4844
CC(CC#N)C1CN1	C[C@@H](CC#N)[C@H]1CN1	
InChI=1S/C6H10N2/c1-5(2-3-7)6-4-8-6/h5-6,8H,2,4H2,1H3	InChI=1S/C6H10N2/c1-5(2-3-7)6-4-8-6/h5-6,8H,2,4H2,1H3/t5-,6+/m0/s1
