20
gdb 120461	3.22252	0.85574	0.76499	2.6638	77.91	-0.2418	0.0251	0.267	1569.9714	0.169765	-440.305523	-440.295392	-440.294447	-440.341947	35.245	
C	-0.0825176085	 1.5236224063	 0.0109074056	-0.377904
C	-0.1365335633	-0.0053004088	 0.0574005961	-0.176769
C	 0.8091263103	-0.5842823363	 1.1183953114	-0.163127
N	 0.791004383	-2.0275442506	 1.1857806995	-0.083148
C	-0.2514956799	-2.9903884858	 1.5726303175	-0.191103
C	 0.7675409415	-4.1175703987	 1.2497629346	-0.007752
O	 0.3520570835	-4.9902322607	 0.2297270303	-0.43259
C	 1.7115094625	-2.9680956385	 0.8085843064	 0.370557
O	 2.8028254307	-2.8963326865	 0.2998103957	-0.386389
H	 0.9258869073	 1.8772213897	-0.2299308904	 0.122773
H	-0.7640684095	 1.9196545736	-0.7472619949	 0.119802
H	-0.3658573786	 1.9617051383	 0.974460779	 0.116975
H	-1.1620252933	-0.333839098	 0.2673531513	 0.102022
H	 0.1322769298	-0.4247995691	-0.9188902832	 0.115302
H	 1.8441939111	-0.302678563	 0.8973442693	 0.138123
H	 0.5609640072	-0.1698006776	 2.1058029861	 0.106872
H	-0.570720207	-2.9103296547	 2.6170588427	 0.109348
H	-1.12156558	-3.005202145	 0.9096587218	 0.124142
H	 1.1227430877	-4.655686141	 2.139266221	 0.092724
H	 1.1440687054	-5.2765322937	-0.2397222898	 0.300142
47.179	60.5124	77.5226	134.4763	171.1845	231.3706	243.3149	273.5795	300.4622	366.307	422.2583	539.2576	682.2984	743.6059	775.3009	812.7697	868.5396	887.5946	900.4215	988.479	1035.2378	1043.0129	1100.8554	1122.0042	1146.2565	1171.5333	1186.8969	1225.7193	1268.0298	1298.5552	1322.3353	1332.0355	1343.2778	1399.8579	1407.2479	1414.0432	1430.7773	1474.7967	1491.3988	1500.1055	1509.1216	1520.1806	1869.5802	3005.6452	3012.9753	3029.352	3033.1584	3041.4414	3063.0205	3084.9473	3095.9966	3101.788	3109.9106	3800.6793
CCCN1CC(O)C1=O	CCCN1C[C@@H](O)C1=O	
InChI=1S/C6H11NO2/c1-2-3-7-4-5(8)6(7)9/h5,8H,2-4H2,1H3	InChI=1S/C6H11NO2/c1-2-3-7-4-5(8)6(7)9/h5,8H,2-4H2,1H3/t5-/m1/s1
