23
gdb 120898	5.39258	0.65892	0.63917	1.3679	87.32	-0.2604	0.0799	0.3403	1819.7552	0.205155	-388.261547	-388.251798	-388.250854	-388.296846	36.581	
O	-0.0994235564	 1.4587969089	 0.0418690882	-0.421088
C	 0.0026095589	 0.042517095	 0.0767571941	-0.071108
C	-1.3941846708	-0.5363139463	-0.1108303777	-0.196462
C	-1.4200702748	-2.0578360576	-0.0821460408	 0.047964
C	-1.1618671552	-2.7904681758	 1.2736506891	-0.312384
C	-2.3341841862	-3.7212190949	 0.9390880131	 0.389639
C	-2.2505513552	-5.2159343349	 0.822936654	-0.315814
C	-3.1511634842	-4.5752238013	 1.8578600215	-0.331411
C	-2.8047539626	-2.7696643816	-0.1684756917	-0.326172
H	 0.7787785077	 1.8266356984	 0.1756296117	 0.283951
H	 0.6674726027	-0.3285925179	-0.7211070438	 0.081509
H	 0.4238226944	-0.3019595866	 1.0353756187	 0.087234
H	-2.0458983032	-0.1365357243	 0.6766782345	 0.099756
H	-1.796015366	-0.1710405977	-1.0645174881	 0.102784
H	-0.7499010405	-2.4568254571	-0.8522602928	 0.068469
H	-0.1807819394	-3.2519290978	 1.418874417	 0.093612
H	-1.3732944411	-2.1422757074	 2.1325284717	 0.095571
H	-2.7167244833	-5.6916446894	-0.0346085067	 0.108288
H	-1.3466441053	-5.7085582596	 1.1683995942	 0.107629
H	-2.8548586342	-4.6364670669	 2.9006238481	 0.107956
H	-4.2242340493	-4.6192821459	 1.698325632	 0.108622
H	-3.6198062272	-2.114112979	 0.1594062718	 0.096438
H	-3.079342079	-3.2127066203	-1.1301228483	 0.095017
46.149	85.4398	101.7322	151.2172	265.8585	271.8832	281.2988	292.1445	373.9263	401.4876	450.4697	551.3458	744.2343	774.2306	793.8764	820.7687	856.7203	902.7239	906.67	924.2157	957.3682	990.0311	998.9525	1049.807	1050.6793	1074.3173	1077.3596	1087.4039	1100.6526	1161.7397	1187.0274	1202.8903	1229.6281	1240.3886	1243.7575	1247.5496	1268.9686	1286.404	1315.7366	1331.5321	1372.7313	1397.3808	1462.2686	1463.7883	1474.4997	1489.1863	1499.2227	1504.8703	1527.0331	2956.5902	2982.247	3020.9149	3027.7535	3031.4249	3036.3899	3064.8269	3084.8661	3089.4064	3116.193	3120.6258	3193.3596	3208.5845	3829.7792
OCCC1CC2(CC2)C1	OCCC1CC2(CC2)C1	
InChI=1S/C8H14O/c9-4-1-7-5-8(6-7)2-3-8/h7,9H,1-6H2	InChI=1S/C8H14O/c9-4-1-7-5-8(6-7)2-3-8/h7,9H,1-6H2
