17
gdb 72947	2.75238	1.78466	1.51528	1.5893	66.52	-0.2408	0.0467	0.2875	920.2213	0.136158	-458.886714	-458.879441	-458.878497	-458.918205	28.696	
O	 0.1490308028	 1.3656743207	-0.1745522222	-0.475222
C	 0.008581616	-0.0087477899	-0.0037909236	 0.32115
C	 0.2751206293	-0.974672789	-1.1759238705	-0.139622
O	-1.0254861741	-1.5997407182	-0.9862275464	-0.290177
C	-1.392456482	-0.6670888163	 0.0490056146	 0.05649
C	-1.1332933395	-1.1690331251	 1.5050500752	-0.10333
C	-0.4144645405	-2.5221782503	 1.6277777707	-0.089857
O	 0.8897263336	-1.892937606	 1.4664953092	-0.291195
C	 0.3021052663	-0.5828714257	 1.4282153924	 0.025577
H	 1.0708717864	 1.6013118127	-0.0179297546	 0.285304
H	 0.3306425309	-0.4580590263	-2.1412788727	 0.104709
H	 1.0948634295	-1.6890586379	-1.0641695644	 0.119111
H	-2.3299180777	-0.1441880358	-0.1539876264	 0.087039
H	-1.8676110895	-0.8916486871	 2.2596024431	 0.08315
H	-0.4996557491	-2.9901690855	 2.6148668043	 0.10353
H	-0.6194460864	-3.251316179	 0.8399309447	 0.127247
H	 0.745560594	 0.1183561187	 2.1431342667	 0.076096
124.3142	209.5053	251.966	280.3982	300.0875	351.8324	474.975	519.3592	625.04	665.3477	798.0128	821.2353	838.9897	899.2255	908.3884	953.6259	969.6915	991.6778	1006.4143	1034.8686	1059.2254	1079.2692	1133.8802	1162.6672	1171.407	1180.1671	1198.3852	1210.8189	1242.251	1281.2583	1289.4432	1305.3603	1327.5784	1360.4639	1407.1793	1496.8208	1507.7623	3031.299	3034.8622	3052.3953	3084.8354	3103.8372	3104.6406	3125.9522	3789.9539
OC12COC1C1COC21	O[C@]12CO[C@H]1[C@H]1CO[C@@H]21	
InChI=1S/C6H8O3/c7-6-2-9-5(6)3-1-8-4(3)6/h3-5,7H,1-2H2	InChI=1S/C6H8O3/c7-6-2-9-5(6)3-1-8-4(3)6/h3-5,7H,1-2H2/t3-,4+,5-,6-/m0/s1
