16
gdb 25902	2.75568	1.55059	0.99432	4.8309	75.82	-0.1849	-0.0002	0.1848	1122.7075	0.126723	-434.118195	-434.110244	-434.1093	-434.150484	31.378	
N	-0.0051259898	 1.4043781298	 0.0882212302	-0.557963
C	 0.0445908782	 0.0193578014	 0.0800345086	 0.28003
N	 1.1296648144	-0.6813949367	 0.1342813504	-0.585433
H	 1.9734032981	-0.1117259727	 0.1267496115	 0.20263
H	 0.5325831178	-2.3696188629	 0.0002383927	 0.313483
C	-1.2237182139	-0.6918868756	 0.0543192855	 0.161737
C	-2.5255816487	-0.2121990944	 0.0948921992	-0.195306
N	-3.3603986272	-1.2793267387	 0.0264658321	-0.245782
C	-2.6419497979	-2.4628186227	-0.0508138414	-0.183108
C	-1.3086604246	-2.1256718507	-0.0306582779	 0.245542
O	-0.2589443118	-2.9595046267	-0.0823837383	-0.441096
H	 0.8612533666	 1.8738065293	-0.1311772535	 0.244828
H	-0.8043512468	 1.8228513199	-0.3630794425	 0.25148
H	-2.9110435216	 0.7894598665	 0.1993172679	 0.120556
H	-4.3625056307	-1.2250129988	 0.0596555621	 0.264461
H	-3.1295088219	-3.4201425372	-0.1108655364	 0.123939
84.3372	179.3424	222.3792	316.8831	357.057	389.6005	442.8777	465.1622	519.2244	541.4238	615.2885	626.8995	654.8846	667.1345	728.4019	733.6743	765.8369	793.0954	799.5173	903.5681	1070.3288	1075.2155	1124.2933	1144.4435	1194.3604	1260.1182	1332.7397	1343.475	1460.8221	1489.7121	1520.9203	1562.8289	1622.4058	1653.2276	1706.2433	3255.4611	3282.462	3288.0004	3492.5934	3569.4199	3675.6477	3693.8099
NC(=[NH2+])C1=CNC=C1[O-]	NC(=N)c1c[nH]cc1O	
InChI=1S/C5H7N3O/c6-5(7)3-1-8-2-4(3)9/h1-2,8-9H,(H3,6,7)	InChI=1S/C5H7N3O/c6-5(7)3-1-8-2-4(3)9/h1-2,8-9H,(H3,6,7)
