19
gdb 88257	3.06667	1.03173	0.92215	0.8695	78.44	-0.2353	-0.0784	0.1569	1360.23	0.156378	-423.056136	-423.046235	-423.045291	-423.091865	35.223	
C	-0.3456398191	 1.5255182265	-0.0005463841	-0.419962
C	-0.0508787826	 0.0439609411	 0.0327937121	 0.01551
C	 1.3032126278	-0.4969687699	-0.2582900879	-0.28875
C	 0.7699241074	-0.6138549937	 1.1637952549	-0.130569
C	 1.3838085829	 0.2153345131	 2.2168363314	 0.269029
O	 1.9859652944	 1.2564119951	 2.031983596	-0.321982
C	 1.2339993239	-0.3103237368	 3.6696195857	 0.307338
C	 1.8328522178	 0.5620416055	 4.7450695606	-0.4732
O	 0.6709404525	-1.3583710312	 3.8858762971	-0.275186
H	 0.5006963148	 2.1090393063	 0.3661632208	 0.153262
H	-0.5589168933	 1.8388383335	-1.0284310548	 0.120168
H	-1.2217944353	 1.7690897316	 0.609818932	 0.117726
H	-0.8825835859	-0.5845425411	-0.2752625774	 0.100639
H	 1.4056260768	-1.4178751984	-0.8212031387	 0.121102
H	 2.1067890287	 0.2212239326	-0.3869464135	 0.13628
H	 0.4169645022	-1.57716267	 1.5061304362	 0.118532
H	 1.3741816711	 1.5556544059	 4.719238587	 0.154705
H	 1.6833236282	 0.0983473644	 5.7201699621	 0.138556
H	 2.8987039777	 0.7169775555	 4.5515620405	 0.156803
45.8766	55.6067	108.6361	167.0973	178.1253	230.4807	265.6002	330.6194	366.9788	383.7679	451.1667	521.3706	590.5351	711.3924	754.4368	776.6358	838.1276	874.6348	918.5016	954.4495	996.2714	1036.4406	1061.9838	1079.8009	1096.6639	1124.9698	1151.9751	1206.9364	1232.5212	1243.0373	1381.3141	1391.6728	1417.2166	1427.6425	1451.9771	1459.6659	1476.6797	1501.7429	1503.9651	1765.8957	1806.0228	3036.3934	3050.9986	3092.6571	3112.5762	3130.3865	3132.49	3148.2778	3162.3981	3210.8549	3226.4178
CC1CC1C(=O)C(C)=O	C[C@H]1C[C@H]1C(=O)C(=O)C	
InChI=1S/C7H10O2/c1-4-3-6(4)7(9)5(2)8/h4,6H,3H2,1-2H3	InChI=1S/C7H10O2/c1-4-3-6(4)7(9)5(2)8/h4,6H,3H2,1-2H3/t4-,6+/m0/s1
