20
gdb 79460	2.46671	1.90123	1.50589	1.286	78.05	-0.2262	0.0671	0.2933	973.2	0.172447	-403.099837	-403.092134	-403.09119	-403.131434	31.399	
C	 0.0098526577	 1.4922942765	-0.0060648235	-0.502592
C	 0.0184439221	-0.0124131301	-0.0208539452	 0.30953
C	-1.3081925291	-0.7926517408	-0.184948899	-0.262555
C	-0.7753033635	-2.0735572045	 0.4863318148	-0.055424
C	-0.4101470657	-1.509410118	 1.8706592245	-0.169201
N	 0.6865086661	-0.7391227451	 1.1879946378	-0.190978
C	 0.7611444149	-1.8877579085	 0.17145028	-0.062068
C	 0.966501091	-0.8361068875	-0.9204010616	 0.111524
O	 0.5509047003	-1.0359419031	-2.2470059835	-0.441575
H	 1.0158914571	 1.8873092595	 0.1618665828	 0.122632
H	-0.3621235412	 1.8814318966	-0.9603194198	 0.124407
H	-0.6410032111	 1.8728245223	 0.788720495	 0.116648
H	-2.1470154808	-0.349384927	 0.3596439663	 0.087654
H	-1.5813554739	-0.9120158192	-1.233960772	 0.120774
H	-1.3128249823	-3.0109083894	 0.3372948882	 0.059745
H	-1.1556142262	-0.9160884097	 2.4118070337	 0.094135
H	 0.0500841428	-2.2322608391	 2.5508792486	 0.103301
H	 1.4477431127	-2.7100869715	 0.3795191431	 0.066663
H	 1.9886681712	-0.4410402127	-0.8575064862	 0.079848
H	 1.2401646379	-1.5160226088	-2.7152515444	 0.287534
180.6792	199.7444	213.1538	238.8764	289.0156	312.1638	481.3471	511.5793	554.933	613.4	713.2373	726.47	770.2288	818.7528	846.7447	880.7199	918.408	927.4307	954.0897	979.0767	995.38	1016.9621	1041.4931	1094.6374	1117.8921	1121.5681	1147.8365	1156.1166	1184.0437	1232.4145	1240.8714	1251.5618	1268.0193	1281.7042	1293.3255	1316.4651	1342.2904	1411.998	1436.1138	1485.0782	1492.7404	1497.5825	1516.7276	3026.6134	3031.582	3035.0713	3062.0488	3094.2738	3096.8588	3097.0266	3108.1425	3110.7417	3130.898	3829.4771
CC12CC3CN1C3C2O	C[C@]12C[C@@H]3CN1[C@@H]3[C@H]2O	
InChI=1S/C7H11NO/c1-7-2-4-3-8(7)5(4)6(7)9/h4-6,9H,2-3H2,1H3	InChI=1S/C7H11NO/c1-7-2-4-3-8(7)5(4)6(7)9/h4-6,9H,2-3H2,1H3/t4-,5+,6-,7-/m1/s1
