15
gdb 27328	3.30509	1.3481	0.95854	4.8319	73.29	-0.1887	-0.0004	0.1883	1139.8558	0.114621	-454.008991	-454.001114	-454.000169	-454.040901	31.02	
N	-0.0030458386	 1.3942535038	 0.1544365197	-0.583204
C	-0.0618597096	 0.0150272349	 0.0600906417	 0.159031
C	-1.1962505681	-0.7281620044	 0.0383261787	-0.098276
N	-1.1324356437	-2.1145370667	-0.0041238506	-0.367895
C	 0.0497393075	-2.7665163914	-0.0170971816	 0.506855
O	-0.1007228758	-4.1121936529	-0.0508912153	-0.425338
C	 1.2348151493	-2.0867358424	-0.0020550364	-0.429832
C	 1.2678345756	-0.6477281222	 0.0245977923	 0.37448
O	 2.2933375409	 0.0400123925	 0.0079786755	-0.432787
H	 0.9394187155	 1.707878478	-0.0564520938	 0.260645
H	-0.7274391155	 1.9170085163	-0.3132628698	 0.240573
H	-2.1945381523	-0.311502406	 0.056915264	 0.117063
H	-1.9759115444	-2.6636923686	-0.0151549458	 0.269775
H	 0.7719763802	-4.5190443487	-0.0561790424	 0.314976
H	 2.1763601991	-2.6228741222	-0.0285276963	 0.093932
133.8027	195.6518	315.6899	325.7855	340.4261	366.591	377.8417	424.0872	453.4644	479.7677	522.6092	605.8966	672.9008	676.283	745.0445	763.8725	795.2997	813.8261	830.3601	986.6902	1106.2188	1182.7242	1223.1126	1241.4614	1261.0824	1314.4587	1401.7516	1439.3964	1595.3107	1608.4482	1638.6783	1696.098	1707.9387	3196.7037	3214.0584	3510.0482	3652.0935	3661.4057	3836.0767
NC1=CNC(O)=CC1=O	Nc1c[nH]c(O)cc1=O	
InChI=1S/C5H6N2O2/c6-3-2-7-5(9)1-4(3)8/h1-2H,6H2,(H2,7,8,9)	InChI=1S/C5H6N2O2/c6-3-2-7-5(9)1-4(3)8/h1-2H,6H2,(H2,7,8,9)
