18
gdb 62891	3.27232	1.50305	1.1881	2.185	72.59	-0.2388	0.0685	0.3073	1054.168	0.146383	-438.980331	-438.97221	-438.971265	-439.012346	32.265	
C	-0.0557636426	 1.5826135186	-0.0124530675	-0.485699
C	-0.0346553898	 0.065590487	-0.0076761846	 0.485132
O	-1.3048259778	-0.4794978495	-0.2738700396	-0.48285
C	 1.2012632432	-0.6647200373	-0.6547038581	-0.233036
N	 2.0026731636	-0.1408581394	 0.5345344842	-0.343578
C	 0.7071802549	-0.6748875028	 1.1427998086	-0.203644
C	 0.8215051803	-1.8857701067	 0.1983411678	 0.56196
C	 0.2391739878	-3.2019520152	 0.0322957479	-0.294222
O	 1.6294835968	-3.0162961782	 0.4150941292	-0.313075
H	 0.9259806083	 1.987629924	 0.2291509464	 0.157777
H	-0.3501586217	 1.9531686066	-1.0030679421	 0.104733
H	-0.7894024208	 1.9475363743	 0.7134643992	 0.123059
H	-1.7217951339	 0.0565397708	-0.9554678118	 0.28209
H	 1.5799159235	-0.6145027623	-1.6764993127	 0.081262
H	 2.747740635	-0.8117843178	 0.7368179866	 0.232689
H	 0.5075274078	-0.6391702543	 2.2141628997	 0.086041
H	-0.4004569793	-3.6177874254	 0.8084687033	 0.122503
H	 0.0881442848	-3.6113599523	-0.9649414264	 0.118858
157.1552	187.8481	234.1599	251.528	276.3296	348.3473	361.0779	388.4636	453.8527	495.3564	607.4341	656.9859	725.1053	767.6306	796.5755	856.5489	877.512	889.2188	960.9832	1007.3151	1045.4815	1082.6979	1100.6598	1106.4976	1123.2621	1124.2809	1154.7473	1160.4907	1183.9381	1223.1297	1238.6606	1277.5115	1294.4893	1395.1763	1408.7242	1459.641	1491.3139	1504.3393	1557.533	3024.5964	3089.5797	3091.3312	3111.0012	3119.088	3162.6162	3178.5897	3423.135	3822.9159
CC1(O)C2NC1C21CO1	C[C@@]1(O)[C@H]2N[C@@H]1[C@]12CO1	
InChI=1S/C6H9NO2/c1-5(8)3-6(2-9-6)4(5)7-3/h3-4,7-8H,2H2,1H3	InChI=1S/C6H9NO2/c1-5(8)3-6(2-9-6)4(5)7-3/h3-4,7-8H,2H2,1H3/t3-,4+,5-,6-
