19
gdb 64148	3.3448	1.06763	1.01025	3.9982	72.23	-0.2423	-0.0329	0.2094	1261.5532	0.156457	-460.177019	-460.167612	-460.166668	-460.21183	34.087	
C	 0.2056273441	 1.4078586247	 0.0889737124	-0.423967
C	-0.1075494256	-0.0904999397	 0.0246894513	 0.367555
C	-1.5926549024	-0.3782855579	 0.1973995754	-0.434316
C	 0.5133375076	-0.7553441446	-1.2131087753	-0.128582
O	 1.8537771437	-1.0267838881	-0.8133128569	-0.269623
C	 1.859059831	-1.1761706728	 0.5958142805	 0.113815
O	 0.6004647591	-0.780102418	 1.0811881616	-0.305446
C	 2.0568778472	-2.6540195338	 0.9454861025	 0.158753
O	 2.9729358887	-3.0747601284	 1.5969507677	-0.232343
H	 1.2682521736	 1.5903002088	-0.0952007014	 0.131831
H	-0.3709765976	 1.9579928766	-0.6615284542	 0.117234
H	-0.0478746452	 1.8017219414	 1.0767630935	 0.129446
H	-2.1644879541	 0.0535293025	-0.6298896044	 0.122236
H	-1.7746926165	-1.455779407	 0.2260000483	 0.124792
H	-1.9619130216	 0.0579882086	 1.1295836842	 0.132946
H	-0.0178335834	-1.6805630572	-1.4754050922	 0.100217
H	 0.5482349862	-0.1027930693	-2.0891163059	 0.11957
H	 2.6827744328	-0.5823507955	 1.0157819929	 0.097626
H	 1.2654291422	-3.3123375403	 0.52181534	 0.078258
45.6647	69.0816	145.3242	208.0988	249.6994	283.585	302.3245	336.3142	356.4041	394.1709	442.7881	470.872	615.8043	769.5056	802.5128	877.6172	929.6346	944.9006	961.0739	989.7269	1015.1053	1036.4353	1054.9232	1088.3028	1143.8823	1189.5102	1212.1409	1269.1347	1278.5623	1325.8411	1334.6088	1380.2664	1402.222	1415.1716	1419.5812	1477.1968	1485.7363	1498.5667	1506.2698	1518.4104	1849.0004	2886.1613	3010.1047	3019.4419	3040.1178	3045.8003	3098.7642	3112.3414	3118.1491	3124.1181	3125.7856
CC1(C)COC(O1)C=O	CC1(C)CO[C@@H](O1)C=O	
InChI=1S/C6H10O3/c1-6(2)4-8-5(3-7)9-6/h3,5H,4H2,1-2H3	InChI=1S/C6H10O3/c1-6(2)4-8-5(3-7)9-6/h3,5H,4H2,1-2H3/t5-/m0/s1
