25
gdb 58106	2.34884	1.27304	1.04216	1.637	88.09	-0.2619	0.078	0.3399	1318.2496	0.226297	-389.477929	-389.467052	-389.466108	-389.513154	41.33	
C	 0.0786706365	 1.583983358	 0.0495634401	-0.407611
C	 0.0746182836	 0.0457508223	 0.039059489	 0.032814
C	 0.5568726187	-0.4609527206	-1.3300589084	-0.416519
C	 0.832865514	-0.5824304645	 1.2591664074	 0.243618
C	 0.811524371	-2.1232879848	 1.1652946016	-0.426563
C	 2.287913943	-0.0905992234	 1.3526239926	-0.444646
C	 0.0495230892	-0.2284813767	 2.5251151574	 0.087878
C	 0.6253910606	-0.1364639191	 3.8736857214	-0.198965
O	 0.2497265985	 1.0404962073	 3.1525282934	-0.24194
H	 1.0831361507	 1.9788607751	-0.1375881244	 0.112157
H	-0.5726527688	 1.9652719794	-0.7439185981	 0.104142
H	-0.2666011435	 1.9937465552	 1.0006320717	 0.14188
H	-0.9714312909	-0.2790343703	 0.1453575457	 0.065897
H	 1.606033919	-0.2047619493	-1.5141045084	 0.114905
H	 0.4497777097	-1.5429002146	-1.4415205249	 0.112283
H	-0.0311500286	 0.008414245	-2.1256288689	 0.111537
H	 1.436251759	-2.4835598571	 0.3439634315	 0.119661
H	 1.1934266474	-2.5684600145	 2.0899042094	 0.110873
H	-0.2041408977	-2.5033319284	 1.0055415547	 0.109674
H	 2.334832235	 0.9531564724	 1.6705543036	 0.136963
H	 2.8588055281	-0.6887422417	 2.0698338165	 0.107831
H	 2.7942887344	-0.1821281445	 0.3879689713	 0.113335
H	-1.0042980933	-0.5149740033	 2.4703983435	 0.084495
H	 0.0071262163	-0.3692631012	 4.7398449744	 0.112098
H	 1.6950666082	-0.2641733607	 4.0239515978	 0.114203
62.3358	97.1728	183.0329	203.2864	216.5412	237.0753	254.1249	278.5894	293.8045	328.2769	352.627	360.4485	380.3998	467.4216	528.9711	549.8188	688.2353	797.701	866.3576	893.9066	928.3299	934.7274	942.731	954.4962	971.0316	1011.3033	1035.2629	1081.1817	1104.6441	1119.2148	1155.7505	1174.4419	1183.5672	1210.2195	1227.7212	1259.8253	1308.8841	1350.9275	1372.4421	1395.452	1401.0772	1406.9818	1426.52	1439.8996	1485.8948	1487.3748	1489.6729	1496.3791	1505.349	1511.9505	1515.9151	1519.8934	1529.6189	2986.2649	3029.031	3034.768	3038.918	3046.9286	3069.6717	3089.4607	3092.1138	3092.8841	3098.1963	3105.4461	3110.122	3118.2558	3131.5413	3134.6035	3176.0592
CC(C)C(C)(C)C1CO1	CC(C)C(C)(C)[C@H]1CO1	
InChI=1S/C8H16O/c1-6(2)8(3,4)7-5-9-7/h6-7H,5H2,1-4H3	InChI=1S/C8H16O/c1-6(2)8(3,4)7-5-9-7/h6-7H,5H2,1-4H3/t7-/m1/s1
