16
gdb 123839	3.74781	1.62331	1.16723	4.9939	77.61	-0.2422	-0.0316	0.2106	1001.7724	0.128468	-396.949649	-396.943124	-396.942179	-396.980562	25.826	
C	-0.0487790715	 1.4874189119	 0.0732977873	-0.267811
C	 1.3698281965	 2.0983444593	 0.0050024798	-0.337153
C	 2.2115121004	 1.3851742452	-1.0064673495	 0.342183
C	 3.2922716253	 1.6571164608	-1.8085710631	-0.1895
N	 3.6639501435	 0.5125278265	-2.4577741372	-0.191032
N	 2.8760179482	-0.4582542967	-2.1027948634	-0.156478
N	 1.9878908594	 0.0596054876	-1.2194858458	-0.010274
C	 0.9446223245	-0.6724080009	-0.6359867877	 0.045633
C	-0.0258300297	-0.0223878863	 0.0063239511	-0.121851
H	-0.5473439663	 1.8224904689	 0.9876624387	 0.117821
H	-0.6566616684	 1.8677500308	-0.760755485	 0.129453
H	 1.3208702908	 3.1670482588	-0.2186742111	 0.127697
H	 1.8481091951	 2.0051671685	 0.9898556363	 0.131521
H	 3.8200187734	 2.5853972271	-1.9566456043	 0.124435
H	 1.0154537794	-1.7426692486	-0.7723852719	 0.142166
H	-0.8397610605	-0.5848570628	 0.4481711459	 0.11319
136.1338	184.6416	276.389	388.2628	431.7799	508.4226	600.3075	660.174	702.5614	710.8113	754.961	800.3136	845.4682	885.5424	928.8563	961.5373	994.2612	1021.1711	1040.3491	1123.2756	1148.0158	1181.3498	1206.3787	1231.7741	1244.5608	1306.804	1329.9594	1350.6606	1362.3766	1415.2407	1470.3723	1481.0209	1494.85	1590.4642	1713.606	3002.5196	3016.5048	3079.1621	3095.1895	3201.9901	3243.1913	3269.7355
C1CC2=CN=NN2C=C1	C1Cc2cnnn2C=C1	
InChI=1S/C6H7N3/c1-2-4-9-6(3-1)5-7-8-9/h2,4-5H,1,3H2	InChI=1S/C6H7N3/c1-2-4-9-6(3-1)5-7-8-9/h2,4-5H,1,3H2
