21
gdb 116301	2.54463	1.17507	0.88071	1.9487	74.58	-0.2516	0.0782	0.3298	1365.4357	0.182571	-461.362244	-461.35274	-461.351796	-461.396995	34.623	
C	-0.1768596709	 1.6888208275	-0.1154387554	-0.387986
C	 0.0253838506	 0.1783466266	 0.0397901597	-0.206103
C	-1.2868836042	-0.5906296349	-0.0003092854	 0.089031
O	-1.8980150017	-0.4469077577	-1.2855160164	-0.249028
C	-2.8766973788	-1.4453507366	-1.3267063474	 0.020922
O	-2.3707141478	-2.5664066153	-0.6132813454	-0.293734
C	-1.2358026344	-2.1241782337	 0.1542419418	 0.078398
C	 0.0012724634	-2.8215582734	-0.4123366307	-0.065429
O	-0.1881521504	-4.2215457924	-0.4315995238	-0.428392
H	 0.7808135528	 2.2163917482	-0.0881556338	 0.115018
H	-0.6670866707	 1.9167226735	-1.0654292145	 0.138706
H	-0.8028207459	 2.0883403214	 0.6900963059	 0.115034
H	 0.6835992328	-0.1923776119	-0.7526480401	 0.11546
H	 0.5194806392	-0.0383215607	 0.9948651689	 0.105232
H	-1.9693124372	-0.1857965907	 0.7671397406	 0.07198
H	-3.8118786909	-1.1069171565	-0.8468005727	 0.089327
H	-3.0668802345	-1.7161232145	-2.3704138765	 0.116688
H	-1.3861941802	-2.4359306778	 1.1940751525	 0.088666
H	 0.2095743358	-2.4285780658	-1.4199177542	 0.092525
H	 0.875619542	-2.6254307869	 0.2172037358	 0.104742
H	-1.050036589	-4.3591197782	-0.8442722288	 0.288943
75.1011	97.4611	142.4487	151.9359	187.9098	218.1404	256.7599	320.7499	390.9996	478.6412	482.4	512.1847	724.6252	744.7372	792.2493	822.078	890.9125	963.1539	979.6053	1014.9325	1042.533	1053.1858	1089.1626	1110.5847	1128.1272	1140.6976	1161.9315	1185.957	1220.241	1233.2839	1294.9389	1307.7068	1323.6498	1348.4751	1366.205	1401.5287	1410.254	1416.5479	1431.5841	1447.0847	1476.4276	1497.3101	1504.1614	1508.3753	1546.7246	2945.6128	2952.4834	2982.0849	3036.5115	3038.7271	3047.2977	3070.8946	3076.6994	3081.2818	3107.4238	3125.3563	3781.5214
CCC1OCOC1CO	CC[C@H]1OCO[C@H]1CO	
InChI=1S/C6H12O3/c1-2-5-6(3-7)9-4-8-5/h5-7H,2-4H2,1H3	InChI=1S/C6H12O3/c1-2-5-6(3-7)9-4-8-5/h5-7H,2-4H2,1H3/t5-,6+/m1/s1
