12
gdb 25149	3.72832	1.27343	0.94922	5.7875	74.32	-0.2663	-0.0973	0.169	1120.1502	0.07695	-435.500617	-435.493303	-435.492359	-435.532874	26.874	
O	-0.0698937378	-0.0374695424	 0.0034237477	-0.318191
C	 0.0258805026	 1.1504113309	 0.0095245375	 0.440765
O	-1.2172991928	 1.8801671369	 0.0298225237	-0.203142
C	-1.2221694841	 3.2064089649	 0.0363130546	 0.115336
C	-0.0874403966	 3.9369349475	 0.0242509126	-0.2389
C	 1.1381837753	 3.191168621	 0.0036437434	 0.170314
N	 1.1893983479	 1.8825335786	-0.0035883673	-0.378549
C	 2.3736823595	 3.9106800017	-0.0104166494	 0.231877
C	 3.387354197	 4.5582519806	-0.0216676705	-0.325949
H	-2.2252145168	 3.62130968	 0.0520678452	 0.156898
H	-0.1006046736	 5.01625322	 0.0296045363	 0.132919
H	 4.2965339794	 5.1089043803	-0.0318039637	 0.216621
86.1643	133.2881	146.0328	335.3678	419.0931	455.6178	463.4326	571.2991	592.7809	658.6693	680.4537	684.9024	739.4517	781.5187	796.0839	819.0043	953.2694	978.5952	1095.5626	1115.8566	1255.2238	1294.3522	1460.9048	1534.9852	1667.7974	1881.0623	2233.3524	3192.5144	3253.9794	3496.3265
O=C1OC=CC(=N1)C#C	O=c1occc(n1)C#C	
InChI=1S/C6H3NO2/c1-2-5-3-4-9-6(8)7-5/h1,3-4H	InChI=1S/C6H3NO2/c1-2-5-3-4-9-6(8)7-5/h1,3-4H
