19
gdb 7667	3.12984	2.18729	1.53767	2.0692	72.98	-0.2029	0.0752	0.2782	882.2818	0.163862	-364.970689	-364.962498	-364.961554	-365.002761	31.843	
C	 0.3682347226	 1.4880334846	 0.1285528158	-0.328799
N	 0.2417592212	 0.0303943473	 0.0454790219	-0.09582
C	-0.9697494449	-0.7337857236	 0.534655138	-0.116009
C	-0.0719811185	-1.9951176033	 0.3972684936	-0.206105
C	 0.7645904246	-0.8971195816	 1.1180291927	-0.093231
C	-0.4792674342	-0.6340452523	 2.0357190793	 0.466249
C	-0.6679665188	 0.630176923	 2.8648964237	-0.49491
O	-0.7584355784	-1.7432520221	 2.8793857595	-0.473312
H	 0.9941244991	 1.830479418	 0.9610368702	 0.115982
H	 0.8370103419	 1.847843861	-0.7953454428	 0.114743
H	-0.6060355616	 1.9843224542	 0.2086747912	 0.116773
H	-1.9642415962	-0.5573338905	 0.1167868294	 0.068914
H	-0.3485696923	-2.8731832404	 0.9723665342	 0.117739
H	 0.2525485065	-2.2019285212	-0.6211569949	 0.097424
H	 1.8205199285	-0.9209454202	 1.3966913329	 0.07497
H	-1.6957628226	 0.6534659793	 3.252663895	 0.105485
H	 0.0059391453	 0.6043456983	 3.7274877127	 0.12805
H	-0.510599264	 1.5610552858	 2.3295760921	 0.126705
H	-1.5387950582	-1.5329890264	 3.4022615256	 0.275152
75.5937	194.8333	217.6007	248.0586	292.6847	337.5848	343.1311	404.3832	453.347	537.1186	628.847	675.469	732.6504	761.4287	800.257	881.0801	893.8508	946.0769	1019.596	1026.5918	1066.6004	1081.383	1110.4737	1120.0175	1143.2248	1167.6821	1175.2053	1178.8432	1205.6977	1234.7165	1240.4121	1272.8751	1376.5045	1414.7402	1436.5948	1476.5666	1488.7547	1495.2619	1502.5132	1529.4804	3004.5205	3018.731	3055.1374	3077.9019	3080.3035	3085.6563	3090.306	3114.4832	3198.996	3203.4512	3809.7259
CN1C2CC1C2(C)O	CN1[C@H]2C[C@@H]1[C@]2(C)O	
InChI=1S/C6H11NO/c1-6(8)4-3-5(6)7(4)2/h4-5,8H,3H2,1-2H3	InChI=1S/C6H11NO/c1-6(8)4-3-5(6)7(4)2/h4-5,8H,3H2,1-2H3/t4-,5+,6+
