14
gdb 123638	4.02315	1.59841	1.24585	5.1689	67.94	-0.2465	-0.0397	0.2067	936.1713	0.1027	-432.812215	-432.80566	-432.804716	-432.843159	25.236	
C	-0.0623131729	 1.5198632109	 0.0090955434	-0.351908
C	 1.4384262088	 1.886429194	-0.033667434	-0.023612
N	 2.2016981485	 1.4555806919	 1.1468083582	-0.315306
C	 2.2919922165	 0.6478759827	-0.0985560464	-0.224292
C	 1.3045223216	-0.4545049458	-0.0679817911	 0.452905
C	 0.0292386529	 0.0218076569	 0.0196477918	 0.219504
N	-0.7881645369	-1.0646740098	 0.1061117772	-0.174644
N	-0.1669726452	-2.1362401442	 0.0571814081	-0.044647
O	 1.348975203	-1.7528085219	-0.0621912358	-0.271149
H	-0.5386828858	 1.9349740654	 0.9026781717	 0.141018
H	-0.5881197747	 1.9121806019	-0.8683602639	 0.125362
H	 1.7412957408	 2.7922291268	-0.5472433493	 0.10555
H	 3.0431925909	 2.0234261485	 1.2287011475	 0.242066
H	 3.2237513624	 0.5841741027	-0.6460147774	 0.119154
156.8482	166.8086	242.9277	355.6014	434.3408	450.1877	594.0216	663.139	706.2909	751.8302	790.3701	822.7541	840.2251	883.7636	932.2795	962.001	997.2968	1059.1167	1125.7213	1136.334	1179.1853	1184.5	1225.0833	1282.5681	1333.5281	1350.4581	1405.6339	1478.7225	1489.3611	1500.0269	1581.8707	3045.6556	3088.5513	3174.8125	3199.4649	3488.8491
C1C2NC2C2=C1N=NO2	C1[C@H]2N[C@H]2c2c1nno2	
InChI=1S/C5H5N3O/c1-2-4(6-2)5-3(1)7-8-9-5/h2,4,6H,1H2	InChI=1S/C5H5N3O/c1-2-4(6-2)5-3(1)7-8-9-5/h2,4,6H,1H2/t2-,4-/m1/s1
