19
gdb 60632	2.98243	1.12643	0.88726	4.0718	72.86	-0.2324	0.0138	0.2463	1311.086	0.157891	-456.340195	-456.330413	-456.329468	-456.375202	35.845	
C	-0.9905508464	 0.8310450718	 0.3929914694	-0.312864
N	-0.1728906742	-0.3677332106	 0.2538817961	-0.077592
C	 1.0762141673	-0.2734071479	-0.4833746607	-0.276382
C	 1.0721424665	-0.4930878978	 0.9995122076	-0.003161
C	 1.5542452366	 0.5870465772	 1.954170106	 0.018339
O	 0.7764893254	 0.5874761622	 3.1211985406	-0.440529
C	 3.0285129054	 0.3759053625	 2.3556693848	 0.370683
N	 3.92525762	 0.2784255936	 1.3463120611	-0.514986
O	 3.3331990878	 0.3354584865	 3.536293714	-0.376724
H	-0.4275220209	 1.7760746159	 0.3508498473	 0.10059
H	-1.7260091165	 0.8429198989	-0.4171477767	 0.120962
H	-1.5191128691	 0.7907185157	 1.348543129	 0.147849
H	 1.2983789597	-1.0872689027	-1.1692247065	 0.118627
H	 1.3783669787	 0.7136750681	-0.8396716939	 0.101339
H	 1.2417461207	-1.5004383822	 1.3786654577	 0.10056
H	 1.4995415324	 1.5689099557	 1.4562347352	 0.08867
H	 1.4227246724	 0.5304653484	 3.847271029	 0.294854
H	 3.6241662212	 0.19421883	 0.3909496856	 0.270704
H	 4.8898867331	 0.1000299148	 1.5737939841	 0.269061
55.0815	71.3097	131.9404	198.9607	222.6497	268.0517	279.3251	338.5939	369.5328	407.782	451.8604	496.5734	547.2252	574.4123	647.6405	703.3721	755.7001	867.8185	892.6955	928.1972	1033.6054	1074.2119	1097.2627	1114.0744	1125.7202	1140.7486	1159.6441	1180.7253	1203.9834	1255.1565	1317.9246	1340.3237	1353.5952	1420.7566	1450.7855	1457.0475	1488.6451	1502.8115	1512.1725	1614.8061	1787.8886	2967.1783	2987.8952	3067.2473	3076.231	3109.8722	3124.7501	3161.8605	3601.0122	3634.3191	3735.3295
CN1CC1C(O)C(N)=O	CN1C[C@H]1[C@@H](O)C(=O)N	
InChI=1S/C5H10N2O2/c1-7-2-3(7)4(8)5(6)9/h3-4,8H,2H2,1H3,(H2,6,9)	InChI=1S/C5H10N2O2/c1-7-2-3(7)4(8)5(6)9/h3-4,8H,2H2,1H3,(H2,6,9)/t3-,4+,7?/m0/s1
