17
gdb 51625	6.95496	0.70463	0.6928	4.2113	71.4	-0.2733	0.0043	0.2775	1579.9066	0.134116	-458.948158	-458.939697	-458.938753	-458.982522	30.548	
O	-0.9219664172	 0.4610501486	-0.3861318588	-0.271626
C	-0.4668112455	 1.5464733769	-0.1910584458	 0.163767
O	 0.8406449479	 1.7552884257	 0.0605514008	-0.185545
C	 1.2908711688	 3.0857040841	 0.2808222345	 0.137178
C	 2.1282027175	 3.2931939326	 1.5691360873	-0.347683
C	 3.1183952562	 4.0839274424	 0.7077679532	 0.460289
C	 3.7037646573	 5.4023594137	 0.9504895624	-0.266688
O	 4.4986814307	 4.2048500886	 0.963065193	-0.263666
C	 2.5055232252	 3.521095282	-0.5788217036	-0.347682
H	-1.0569728265	 2.4842648724	-0.1950833754	 0.078344
H	 0.4490429308	 3.7820607957	 0.2068198844	 0.094154
H	 1.6529770735	 3.7918443634	 2.4161652091	 0.115092
H	 2.5608270167	 2.3436909849	 1.8968216563	 0.139332
H	 3.8910809096	 6.0758956234	 0.1150835901	 0.120154
H	 3.5742455726	 5.884521353	 1.9186767027	 0.120154
H	 3.0569692219	 2.6433563426	-0.9275014412	 0.139333
H	 2.3261655707	 4.1984417399	-1.4160678991	 0.115093
40.9855	57.6999	150.5599	246.1979	284.6977	316.5978	333.1038	402.4158	443.5187	549.3636	624.159	793.9532	813.9967	867.5117	878.1695	906.785	977.0146	993.6541	1042.7354	1047.6077	1058.9861	1126.0255	1137.075	1167.9521	1179.1267	1181.8801	1213.0818	1236.3486	1259.1839	1275.1204	1384.4235	1437.9676	1445.9532	1460.3328	1489.5943	1540.1048	1869.5852	2942.2894	3052.4772	3065.7439	3070.4133	3080.5752	3127.5061	3129.3905	3168.4526
O=COC1CC2(CO2)C1	O=CO[C@H]1C[C@]2(CO2)C1	
InChI=1S/C6H8O3/c7-4-8-5-1-6(2-5)3-9-6/h4-5H,1-3H2	InChI=1S/C6H8O3/c7-4-8-5-1-6(2-5)3-9-6/h4-5H,1-3H2/t5-,6+
