15
gdb 47285	3.14044	1.31863	0.9796	0.5887	70.85	-0.2537	-0.1015	0.1522	1134.8861	0.112511	-457.788313	-457.780513	-457.779568	-457.821825	28.385	
O	 0.02357102	 0.9257357641	 1.5842954822	-0.301982
C	-0.0258503677	 1.4160203975	 0.4754999714	 0.337584
C	-1.3765454414	 1.8649553707	-0.0839157831	-0.200744
O	-1.4353992141	 2.0154732531	-1.479040608	-0.221181
C	-0.9177295906	 3.2237856405	-1.9734962149	-0.20074
C	 0.6037627284	 3.280732086	-2.1173254732	 0.337573
O	 1.0997790487	 4.113150645	-2.8475972105	-0.301982
C	 1.4862827556	 2.3361749596	-1.3812817199	-0.133866
C	 1.2267390438	 1.5674878432	-0.3124512321	-0.133867
H	-2.102868979	 1.0970151536	 0.1958617864	 0.150575
H	-1.66530212	 2.793888197	 0.4359195881	 0.12529
H	-1.3332714682	 3.3759660852	-2.9733565554	 0.150577
H	-1.230630744	 4.0814973861	-1.3546678282	 0.125293
H	 2.5047306985	 2.3705636366	-1.7604890354	 0.133735
H	 2.0445215399	 1.007569122	 0.1346948026	 0.133734
44.8992	57.1944	265.6229	272.0666	348.1099	360.9643	438.7859	468.9594	510.6789	578.1243	619.0397	722.4452	729.2117	832.5292	837.3609	995.5566	999.0982	1039.3157	1048.7445	1142.6028	1173.7818	1237.9761	1287.9913	1310.7428	1321.2305	1358.1944	1381.2249	1393.6525	1446.0945	1463.4087	1671.2484	1769.7123	1770.4477	2975.1974	2975.2406	3098.7592	3101.0922	3160.5115	3178.9063
O=C1COCC(=O)C=C1	O=C1COCC(=O)C=C1	
InChI=1S/C6H6O3/c7-5-1-2-6(8)4-9-3-5/h1-2H,3-4H2	InChI=1S/C6H6O3/c7-5-1-2-6(8)4-9-3-5/h1-2H,3-4H2
