21
gdb 89753	2.41578	1.52793	1.1332	1.3596	82.81	-0.2494	0.0783	0.3277	1156.6424	0.181934	-387.048057	-387.039326	-387.038382	-387.081296	34.611	
O	 0.612594323	 0.638790501	-0.8215662102	-0.435117
C	 0.0986248918	-0.3254533818	 0.0614656001	 0.085513
C	 0.0481441444	-0.0110051169	 1.590074083	-0.367911
C	-1.37310994	-0.5946119315	 1.6197732773	 0.315465
C	-1.8357683862	-1.7206391577	 2.500153918	-0.318115
C	-2.4707794481	-0.3514612373	 2.6093067739	-0.333574
C	-1.4230719325	-0.5686537263	 0.1021323163	 0.259692
C	-2.4084370069	 0.1765366966	-0.7567618951	-0.328331
C	-2.2847691117	-1.3274788417	-0.85477992	-0.338187
H	 0.1302957749	 1.4589556123	-0.66813537	 0.277439
H	 0.6565399932	-1.242891966	-0.1484878793	 0.09349
H	 0.8041273833	-0.4856313631	 2.2208295133	 0.103082
H	 0.0652838563	 1.0700943767	 1.7703710549	 0.093109
H	-2.4181518175	-2.5174901283	 2.047897274	 0.111431
H	-1.1796663938	-2.0467178869	 3.3012225507	 0.110612
H	-2.247741642	 0.251477482	 3.4840660747	 0.11166
H	-3.4829790548	-0.2291293915	 2.2347366472	 0.109128
H	-3.2934741873	 0.5916091802	-0.2848916856	 0.111594
H	-2.0130964917	 0.7667331677	-1.5781631185	 0.112706
H	-1.8187643746	-1.7455914713	-1.7417468578	 0.117228
H	-3.09118318	-1.9312745262	-0.448395247	 0.109084
55.9051	189.7714	193.9645	214.5466	248.6785	305.6106	338.2213	412.2037	466.2699	500.9834	553.4228	614.3446	755.2798	776.3982	795.3052	842.4008	879.0716	891.2826	904.7631	945.8379	959.9502	993.7753	1000.2532	1036.7528	1042.7154	1058.7871	1073.942	1076.0322	1113.3826	1139.6606	1186.2414	1187.8939	1192.9121	1208.186	1252.6902	1258.638	1310.6855	1348.0512	1407.9376	1434.4915	1455.4601	1464.2797	1479.9342	1495.0445	1510.2408	3035.4801	3066.537	3100.2643	3116.3691	3117.8318	3119.622	3121.9947	3194.3371	3195.1213	3209.7671	3210.8905	3799.5499
OC1CC2(CC2)C11CC1	O[C@H]1CC2(CC2)C21CC2	
InChI=1S/C8H12O/c9-6-5-7(1-2-7)8(6)3-4-8/h6,9H,1-5H2	InChI=1S/C8H12O/c9-6-5-7(1-2-7)8(6)3-4-8/h6,9H,1-5H2/t6-/m0/s1
