17
gdb 54457	3.44983	1.37544	1.12661	4.1633	74.23	-0.2124	-0.0243	0.1881	1085.488	0.134894	-417.916042	-417.908043	-417.907099	-417.948701	30.651	
C	 0.0717248291	 1.4050539804	-0.2670502746	-0.493544
C	-0.0297912706	-0.0295382213	 0.2091202253	 0.294578
O	 0.9149077355	-0.6213874885	 0.7008897506	-0.341249
C	-1.3293671842	-0.7050442175	 0.043027541	 0.248787
N	-1.5965471949	-1.9723403768	 0.7682326465	-0.336165
C	-1.4991260875	-2.0262334646	-0.676196949	-0.085577
C	-2.814000995	-1.4944169676	-1.3251973493	-0.060761
N	-3.7529393779	-1.1109818804	-0.2442780142	-0.30238
C	-2.6497452039	-0.2013445596	-0.6252958805	-0.158479
H	 1.092526418	 1.7635729384	-0.1327129547	 0.145547
H	-0.2134762092	 1.4844970861	-1.3222452894	 0.137229
H	-0.6183116538	 2.040713334	 0.3002035064	 0.145246
H	-0.6804717409	-2.2418605375	 1.137094726	 0.252584
H	-0.7243707119	-2.5813159146	-1.1902074702	 0.118191
H	-3.1467801048	-1.7091200708	-2.3316124995	 0.103273
H	-4.5899411355	-0.7559074723	-0.7087342514	 0.233707
H	-2.8280788425	 0.8074575726	-0.9727982931	 0.099014
87.6815	135.0386	160.9038	178.4539	345.4227	390.5363	437.1532	462.7511	586.9546	613.689	658.4121	742.0109	773.7783	807.9037	837.6292	868.7506	896.2026	909.2557	942.2648	975.3077	1008.4484	1020.7613	1050.6652	1095.4065	1105.5503	1150.7915	1187.6612	1242.9933	1245.497	1305.4335	1333.8686	1373.0177	1379.4631	1407.7311	1463.8469	1475.211	1758.4269	3033.4056	3092.956	3155.282	3196.4277	3201.7652	3212.9322	3441.138	3462.9996
CC(=O)C12NC1C1NC21	CC(=O)[C@]12N[C@H]1[C@H]1N[C@@H]21	
InChI=1S/C6H8N2O/c1-2(9)6-4-3(7-4)5(6)8-6/h3-5,7-8H,1H3	InChI=1S/C6H8N2O/c1-2(9)6-4-3(7-4)5(6)8-6/h3-5,7-8H,1H3/t3-,4+,5-,6+/m0/s1
