19
gdb 32856	6.42877	0.79546	0.71737	0.8401	80.87	-0.1882	0.0438	0.232	1614.3404	0.157847	-423.057601	-423.048084	-423.04714	-423.093551	33.863	
C	-0.0452090821	 1.457612839	-0.0028685071	-0.388973
C	 0.0083100257	-0.0579856936	-0.0155216248	-0.05088
O	 0.6736673089	-0.4721627958	 1.186429047	-0.278973
C	 0.8343316316	-1.7830216446	 1.3873619916	 0.479973
C	 1.4165726269	-2.4470883999	 2.421656468	-0.440383
C	 1.3005784003	-3.8477167667	 2.099163067	 0.281434
C	 1.7882989248	-4.999879565	 2.9201151205	-0.497438
C	 0.6612235021	-3.9089768586	 0.9046645498	-0.136318
O	 0.3661089414	-2.6388523359	 0.4507599869	-0.195145
H	 0.9626415474	 1.880635392	 0.0272815616	 0.132112
H	-0.5468934591	 1.8192902213	-0.905180904	 0.121356
H	-0.5968992282	 1.8185317598	 0.869483566	 0.132107
H	-0.9968922804	-0.4945567147	-0.0458443955	 0.115823
H	 0.559416791	-0.432587566	-0.8860660671	 0.115903
H	 1.8665993833	-2.001863583	 3.2934841983	 0.104148
H	 1.3185683415	-5.0131467626	 3.9103469072	 0.128657
H	 1.5682708802	-5.9539337195	 2.4329577896	 0.121971
H	 2.8713294985	-4.9473083836	 3.0802040766	 0.128637
H	 0.3487692161	-4.7142912927	 0.2622834484	 0.125987
18.1863	62.4498	141.0946	141.9929	191.4068	250.4037	293.5491	343.966	354.6592	479.2769	617.6239	634.3136	643.6149	692.6816	752.724	756.7856	816.0402	902.4364	977.7313	989.3548	1016.1177	1063.7116	1064.0224	1120.4456	1137.5048	1181.4512	1193.8522	1243.6524	1293.6909	1326.6061	1393.5955	1412.7339	1419.6453	1428.093	1481.4489	1484.1693	1497.5784	1499.2153	1522.1697	1617.5332	1669.5661	3027.5318	3027.9678	3048.0175	3066.064	3077.8757	3109.1163	3123.301	3127.2666	3267.2698	3285.3579
CCOC1=CC(C)=CO1	CCOc1cc(C)co1	
InChI=1S/C7H10O2/c1-3-8-7-4-6(2)5-9-7/h4-5H,3H2,1-2H3	InChI=1S/C7H10O2/c1-3-8-7-4-6(2)5-9-7/h4-5H,3H2,1-2H3
