15
gdb 27308	3.26868	1.41921	0.99594	5.4994	71.11	-0.237	-0.0235	0.2135	1128.1681	0.11332	-454.015623	-454.00745	-454.006506	-454.048287	30.406	
C	-0.0183518478	 1.4869534528	 0.0114691369	-0.473721
C	-0.0133826499	-0.0101137203	-0.0128000296	 0.103527
C	-0.0561875037	-0.7264507242	-1.1391865771	-0.032995
O	-0.0531325899	-2.0968728882	-1.1508022848	-0.217654
C	-0.0031091159	-2.7081618137	 0.0622291547	 0.491584
N	-0.0548164968	-4.0562101199	-0.0780621366	-0.559661
N	 0.0529256692	-2.1364211536	 1.2106674481	-0.387214
C	 0.0472186907	-0.740086023	 1.280089314	 0.3277
O	 0.0944591795	-0.1491804195	 2.3405580388	-0.353298
H	 0.877232248	 1.8615696215	 0.5169007238	 0.148501
H	-0.061712006	 1.9094468679	-0.9962300394	 0.111948
H	-0.8725568497	 1.8544424327	 0.5887011277	 0.148876
H	-0.0983086895	-0.332828991	-2.1470935058	 0.1376
H	 0.1541331797	-4.4554587788	-0.9772314148	 0.271947
H	 0.160554402	-4.5925549627	 0.7453227139	 0.28286
90.9265	154.6869	177.9898	271.9912	317.3015	334.4504	359.533	400.6941	475.1438	493.3588	556.578	581.2685	741.8434	746.0821	794.1065	802.6141	890.0643	911.8884	1016.8714	1066.4426	1081.0753	1177.161	1206.4605	1315.1322	1387.4795	1404.9409	1417.3813	1466.673	1484.8724	1595.7708	1668.9995	1734.9374	1782.725	3040.1636	3102.1438	3119.0215	3215.397	3614.4055	3743.2623
CC1=COC(N)=NC1=O	Cc1coc(N)nc1=O	
InChI=1S/C5H6N2O2/c1-3-2-9-5(6)7-4(3)8/h2H,1H3,(H2,6,7,8)	InChI=1S/C5H6N2O2/c1-3-2-9-5(6)7-4(3)8/h2H,1H3,(H2,6,7,8)
