19
gdb 80894	2.60309	1.74221	1.47042	2.2097	73.76	-0.2441	0.0657	0.3098	970.6939	0.160479	-422.977351	-422.969807	-422.968863	-423.00862	31.672	
O	-0.1400659345	 1.4667695184	-0.0128485006	-0.465601
C	 0.0455632709	 0.0610051224	-0.0145048851	 0.066312
C	 0.1500696963	-0.6143242074	 1.3842141089	-0.104343
C	-1.3706215353	-0.2779887696	 1.5461120612	-0.288195
C	-1.3534248603	-0.6091745509	-0.0054061545	 0.424459
O	-2.3406382615	-0.2137712186	-0.8939147351	-0.499873
C	-1.0597657604	-2.1143626759	 0.0373349392	-0.074586
C	 0.3030487268	-2.6392855917	-0.342796351	-0.319141
C	 0.0660657756	-2.1213057994	 1.0585555752	-0.035263
H	 0.7143733665	 1.8869552243	 0.1210009607	 0.287514
H	 0.7663993859	-0.2149249702	-0.7881985256	 0.060731
H	 0.895805532	-0.2889367691	 2.1096538955	 0.059362
H	-1.9617836176	-0.9362824651	 2.1868853624	 0.087042
H	-1.5685779385	 0.7716904789	 1.7610703875	 0.103807
H	-2.3089196023	 0.7499194465	-0.9321130685	 0.289099
H	-1.910161352	-2.7844407452	 0.0870462242	 0.093406
H	 0.3688894776	-3.7206716669	-0.4184442468	 0.109017
H	 0.940154012	-2.1306416895	-1.0555670642	 0.116328
H	 0.0829522287	-2.820014631	 1.8875912567	 0.089926
193.6671	236.2127	252.553	291.2925	374.9777	387.544	422.5051	442.9012	541.1833	569.5755	617.5132	651.245	797.2299	813.7396	829.8599	857.3196	910.9898	928.8616	953.5398	956.3274	1006.4082	1019.1283	1045.3415	1078.26	1080.4687	1104.3843	1123.049	1141.1832	1152.5144	1183.6643	1195.422	1219.1045	1247.8142	1268.3221	1297.0364	1327.8184	1371.3149	1409.7127	1435.3859	1491.3485	1504.2687	3062.3888	3072.7249	3112.6062	3134.823	3150.0642	3166.9669	3179.2104	3212.1073	3789.2982	3830.8687
OC1C2CC1(O)C1CC21	O[C@H]1[C@H]2C[C@]1(O)[C@H]1C[C@@H]21	
InChI=1S/C7H10O2/c8-6-4-2-7(6,9)5-1-3(4)5/h3-6,8-9H,1-2H2	InChI=1S/C7H10O2/c8-6-4-2-7(6,9)5-1-3(4)5/h3-6,8-9H,1-2H2/t3-,4-,5-,6-,7-/m0/s1
