18
gdb 117300	4.72902	0.71442	0.64271	5.9997	72.42	-0.2507	0.0202	0.2709	1739.031	0.14703	-472.479836	-472.469494	-472.46855	-472.516719	36.049	
C	-0.1444631633	 1.5452732726	-0.0672321344	-0.383188
C	 0.0254271901	 0.0498921254	 0.188874009	-0.124231
N	-1.2607394067	-0.6301398059	 0.2699961026	-0.378386
C	-1.4011684391	-1.9208643825	-0.1916796813	 0.519248
O	-0.5342144673	-2.5403866505	-0.7596537166	-0.359149
N	-2.7089012794	-2.4071622976	 0.0129254282	-0.446526
C	-3.0738318696	-3.761078083	 0.0278184549	 0.460269
N	-4.4552018687	-3.9151493418	-0.0491404595	-0.568515
O	-2.3064703266	-4.6796199018	 0.1644527109	-0.336474
H	 0.8328605709	 2.0337769939	-0.1232553591	 0.124767
H	-0.6754918798	 1.7232133931	-1.0068471105	 0.126654
H	-0.7087639448	 2.0295228769	 0.7382976536	 0.110147
H	 0.5733057769	-0.4322555888	-0.622767311	 0.152626
H	 0.6092097519	-0.1140063623	 1.1058101086	 0.108913
H	-1.8891636232	-0.3231090985	 0.9966122269	 0.234387
H	-3.4344031875	-1.7345789287	 0.2047260402	 0.244593
H	-4.9601593562	-3.2847611114	-0.6548751727	 0.249813
H	-4.7215843774	-4.8828554193	-0.1576550198	 0.265051
34.276	60.5167	70.9332	100.1479	170.4982	228.6441	289.8655	334.5691	380.0229	395.7138	423.1678	483.4488	493.3537	575.9786	610.1283	728.1139	770.2382	787.7808	829.3228	903.1348	964.1603	1029.431	1098.2441	1114.4196	1150.6441	1168.2197	1205.223	1294.8747	1324.7774	1390.6121	1416.1569	1492.2005	1496.8631	1504.7499	1516.9028	1530.5675	1626.6055	1804.516	1869.6088	3006.3366	3033.4356	3094.8023	3119.101	3127.2525	3566.9427	3612.8679	3629.003	3680.2826
CCNC(=O)NC(N)=O	CCNC(=O)NC(=O)N	
InChI=1S/C4H9N3O2/c1-2-6-4(9)7-3(5)8/h2H2,1H3,(H4,5,6,7,8,9)	InChI=1S/C4H9N3O2/c1-2-6-4(9)7-3(5)8/h2H2,1H3,(H4,5,6,7,8,9)
