21
gdb 88420	2.69928	1.21581	0.9837	2.034	78.96	-0.2417	0.0716	0.3133	1271.0369	0.180574	-424.184824	-424.175051	-424.174107	-424.219082	37.388	
C	 0.1981904494	 1.610926563	 1.1539259387	-0.447039
C	-0.0658137703	 0.4275937347	 0.2371502265	 0.301741
C	 0.7598613729	 0.3650306142	-1.0406094116	-0.381746
C	 1.0258111549	-0.6011390463	 0.0890391388	 0.072275
O	 2.1674980069	-0.460862324	 0.8883510554	-0.425751
C	-1.5019672602	-0.0246715527	 0.2853703195	-0.081094
C	-2.5475032109	 0.5010569979	-0.6872709238	-0.335943
C	-2.1910600678	-0.9634583062	-0.6643875602	 0.078106
O	-1.4655101001	-1.5395713092	-1.7158250878	-0.41613
H	 1.2596140847	 1.8626125522	 1.172587167	 0.124894
H	-0.3679338802	 2.4888076338	 0.8233354716	 0.109219
H	-0.1051924789	 1.3852175406	 2.1829145179	 0.110963
H	 0.3155239879	-0.0247351464	-1.9459872519	 0.122503
H	 1.4778445724	 1.1685939923	-1.1733996188	 0.098853
H	 0.7036092812	-1.6291741845	-0.0692488627	 0.0961
H	 2.9307355471	-0.7005735882	 0.3529310937	 0.28523
H	-1.8519678656	-0.133559592	 1.3104098563	 0.086931
H	-3.517206961	 0.823379395	-0.323293667	 0.107816
H	-2.1603287294	 1.0690106937	-1.5273297506	 0.117272
H	-2.915292468	-1.6421077828	-0.2128314805	 0.086977
H	-2.050189965	-1.6012930551	-2.4783183705	 0.288823
59.2999	141.7055	188.3193	207.9834	251.6164	264.9451	275.6522	296.3181	317.9476	366.2475	421.7812	480.172	553.3918	624.2007	665.9004	774.8409	819.4096	843.1832	872.8626	918.5483	957.9818	991.8284	1006.8394	1032.0644	1048.7195	1062.9414	1090.7843	1116.8768	1132.8908	1140.3938	1180.4092	1182.6868	1233.417	1260.6089	1295.25	1304.7235	1330.6517	1398.9315	1409.7041	1424.9425	1427.8272	1481.5318	1492.9236	1493.694	1506.3135	3028.8743	3084.2286	3088.9226	3116.4377	3118.0066	3127.229	3134.6124	3139.0484	3216.5818	3247.1677	3806.002	3806.5568
CC1(CC1O)C1CC1O	C[C@]1(C[C@H]1O)[C@H]1C[C@H]1O	
InChI=1S/C7H12O2/c1-7(3-6(7)9)4-2-5(4)8/h4-6,8-9H,2-3H2,1H3	InChI=1S/C7H12O2/c1-7(3-6(7)9)4-2-5(4)8/h4-6,8-9H,2-3H2,1H3/t4-,5+,6+,7-/m0/s1
