19
gdb 69542	2.97566	1.55266	1.3911	2.1637	74.33	-0.2429	0.0773	0.3202	997.286	0.159951	-422.979767	-422.972211	-422.971266	-423.010997	31.998	
O	-0.1189597272	 1.3142759683	 0.1103339911	-0.47134
C	 0.0140729387	-0.0699664735	 0.0089666125	 0.41842
C	-0.3892645266	-0.787229856	-1.2565228787	-0.382761
C	-1.2002949517	-0.9565724909	 0.0174706206	-0.112118
C	-0.7770127869	-1.9761164505	 1.0897966024	 0.409043
O	-1.7369363466	-2.9519582347	 1.3366233478	-0.485673
C	 0.7087540942	-2.2937223149	 0.755723422	-0.307418
C	 0.8792853599	-0.7833595548	 1.0746052426	-0.104601
C	-0.1985931455	-0.9990686556	 2.1878438441	-0.283349
H	 0.64118569	 1.7175130002	-0.3229382882	 0.281664
H	-0.8606668427	-0.1399514552	-1.9896724919	 0.113649
H	 0.186021312	-1.5958471952	-1.6915057783	 0.111187
H	-2.2043705106	-0.5535475389	 0.0695823599	 0.101626
H	-1.4134152713	-3.5221467977	 2.0415539316	 0.277884
H	 1.1667083443	-2.9134863426	 1.5318812979	 0.088127
H	 0.978527449	-2.6830746764	-0.2260509432	 0.097383
H	 1.8573683326	-0.3555456586	 1.2926817862	 0.06089
H	-0.8052752794	-0.1370234856	 2.4737289056	 0.107827
H	 0.1849286678	-1.5195199773	 3.0714333561	 0.079563
183.4954	274.6355	285.9007	302.712	335.9669	401.1486	417.1863	465.8459	526.565	548.4896	585.5107	625.4199	720.3573	783.8104	849.9656	891.4415	909.676	921.6202	946.739	963.2992	979.5972	993.1649	1019.2929	1039.0232	1070.2363	1079.4827	1108.4488	1127.4553	1154.6272	1193.1224	1219.4846	1220.5931	1227.9946	1279.2772	1297.0925	1326.0807	1395.203	1400.0651	1477.8483	1496.6396	1533.3548	3047.9442	3065.8075	3118.4088	3120.9777	3125.5238	3136.6676	3191.3573	3216.4972	3794.3306	3814.9671
OC12CC1C1(O)CC2C1	O[C@]12C[C@H]1[C@@]1(O)C[C@@H]2C1	
InChI=1S/C7H10O2/c8-6-1-4(2-6)7(9)3-5(6)7/h4-5,8-9H,1-3H2	InChI=1S/C7H10O2/c8-6-1-4(2-6)7(9)3-5(6)7/h4-5,8-9H,1-3H2/t4-,5-,6-,7-/m0/s1
