17
gdb 106444	2.71538	1.35115	1.07624	1.7929	75.03	-0.2505	0.0333	0.2838	1141.6741	0.133922	-421.714935	-421.706449	-421.705505	-421.748123	32.337	
O	 0.0189820865	 1.3732921722	-0.0807694059	-0.412629
C	 0.0164216363	-0.0368201837	 0.0302323073	-0.191963
C	-1.3842905416	-0.5596706345	 0.1504109803	 0.385702
C	-2.5184930439	-0.1989811072	 1.1423586538	-0.266099
C	-3.1105900901	-1.0074139492	-0.0307931931	 0.046322
O	-2.3038244112	-0.1992485967	-0.9680491009	-0.349291
C	-1.9329717372	-2.0276104835	 0.0850011439	-0.261903
C	-1.5966221798	-2.8443565	-1.0584789541	 0.318802
C	-1.3048783488	-3.5569224498	-1.9816954766	-0.425015
H	-0.6007129308	 1.5941474012	-0.7864034718	 0.297598
H	 0.5003716857	-0.5220969292	-0.8313010988	 0.112522
H	 0.5889810508	-0.2928474862	 0.9280144391	 0.118375
H	-2.500733091	-0.653569577	 2.1357648974	 0.099574
H	-2.7898937875	 0.8553886326	 1.1547678677	 0.119355
H	-4.1475705156	-1.2029161873	-0.3007706879	 0.108508
H	-1.8854901496	-2.5863560839	 1.0243920362	 0.103941
H	-1.0534497321	-4.1745454778	-2.8081198065	 0.1962
81.9962	114.6149	163.7033	190.3202	298.2568	361.1181	400.6327	410.2496	496.1865	543.5818	629.8728	641.5593	643.8847	700.9584	748.1338	789.1442	875.1402	900.01	933.7996	968.7521	1028.1501	1060.8143	1085.0203	1093.988	1101.283	1122.1706	1184.1126	1207.4929	1221.7356	1243.5588	1324.9109	1363.8706	1386.0595	1437.3549	1492.6039	1495.9691	2238.3604	2993.7314	3063.5552	3075.0729	3078.4448	3131.2996	3166.2258	3503.8203	3793.3298
OCC12CC(O1)C2C#C	OC[C@@]12C[C@@H](O1)[C@H]2C#C	
InChI=1S/C7H8O2/c1-2-5-6-3-7(5,4-8)9-6/h1,5-6,8H,3-4H2	InChI=1S/C7H8O2/c1-2-5-6-3-7(5,4-8)9-6/h1,5-6,8H,3-4H2/t5-,6-,7-/m1/s1
