23
gdb 107122	3.15552	1.11673	1.08685	0.3743	89.98	-0.1996	0.0874	0.287	1304.2461	0.204753	-351.098252	-351.089009	-351.088065	-351.131848	36.471	
C	 0.0748016455	 1.5159077693	 0.2110155749	-0.371466
C	-0.0227178726	 0.0181900281	-0.1126647657	-0.290562
C	-1.4328129294	-0.5012268039	-0.0599704909	 0.394906
C	-2.0973204489	-0.9873510179	 1.2004348279	-0.360671
C	-1.9481894259	-1.928485406	 0.0297741775	-0.189579
C	-2.9242151354	-1.6609549178	-1.1566834657	 0.367841
C	-3.0927593887	-2.6612184291	-2.2623155169	-0.490636
C	-3.8849411454	-0.5344276507	-0.8897338019	-0.359368
C	-2.4445968072	-0.2186992401	-1.213975518	-0.16259
H	 1.1079845274	 1.8705765916	 0.1413873279	 0.10763
H	-0.5296837837	 2.1096157768	-0.4830096775	 0.118302
H	-0.2879304187	 1.7214753998	 1.2233438578	 0.117357
H	 0.3974336678	-0.1668793116	-1.1110585954	 0.093784
H	 0.5968764707	-0.5524804194	 0.590521093	 0.09311
H	-1.4019952045	-1.1900587144	 2.011174012	 0.105438
H	-3.0591359651	-0.6275362069	 1.5489906743	 0.107179
H	-1.3735232898	-2.844699036	 0.1036674933	 0.080652
H	-3.680867808	-3.5272509565	-1.9323517909	 0.116969
H	-3.608187935	-2.2173702026	-3.1203143462	 0.114426
H	-2.1233232613	-3.0365497941	-2.6119628207	 0.114894
H	-4.5683609241	-0.3384202668	-1.7119575569	 0.105294
H	-4.3272138022	-0.3408517273	 0.0813432831	 0.107209
H	-2.1708290657	 0.3611838353	-2.0880423151	 0.079879
79.1237	111.9838	188.0267	219.7262	228.6341	285.3552	333.8621	354.5847	399.8208	456.6787	485.9054	595.7555	630.612	777.3099	780.1316	804.9799	833.4588	854.942	910.284	930.8378	948.4893	965.8642	977.5702	995.9228	1018.2778	1024.4779	1043.22	1056.3836	1090.0889	1095.72	1111.6315	1145.324	1187.504	1211.1576	1250.7018	1295.7634	1323.5803	1341.1574	1376.6718	1402.9348	1408.8359	1420.6884	1478.1065	1483.6425	1489.0932	1496.8255	1501.8005	1507.1234	1518.6821	3007.4014	3013.342	3032.8396	3045.6549	3067.6784	3093.8114	3101.6267	3104.9557	3114.7817	3127.0389	3171.522	3173.3474	3191.787	3200.9982
CCC12CC1C1(C)CC21	CC[C@]12C[C@H]1[C@@]1(C)C[C@@H]21	
InChI=1S/C9H14/c1-3-9-5-7(9)8(2)4-6(8)9/h6-7H,3-5H2,1-2H3	InChI=1S/C9H14/c1-3-9-5-7(9)8(2)4-6(8)9/h6-7H,3-5H2,1-2H3/t6-,7+,8+,9-/m1/s1
