16
gdb 125337	5.18952	1.24784	1.0186	5.6356	78.89	-0.2363	-0.0281	0.2082	1129.2957	0.12663	-396.942349	-396.935249	-396.934305	-396.973804	27.274	
C	-0.019754876	 1.4731199946	 0.0215420007	-0.487135
C	 0.0005024607	-0.0186853184	-0.0157486942	 0.257871
C	-0.0362151585	-0.8114647506	-1.0971966	-0.105994
N	 0.0024888908	-2.1566567835	-0.6791113184	 0.065992
N	-0.0077862732	-3.3430652916	-1.3035981426	-0.177626
N	 0.0479448624	-4.2458669251	-0.3535969703	-0.193193
C	 0.0937877067	-3.6336205615	 0.8696431357	-0.2115
C	 0.0647756221	-2.2737972092	 0.6725832262	 0.350694
C	 0.069814018	-0.8858069335	 1.2445231461	-0.473567
H	 0.8781649497	 1.8719770429	 0.5094563613	 0.136153
H	-0.0725149214	 1.8950106899	-0.9852988304	 0.13618
H	-0.8801384486	 1.8460625963	 0.5907807826	 0.136117
H	-0.0868629325	-0.5737674249	-2.1481975862	 0.15042
H	 0.1430582069	-4.2085066598	 1.7794616961	 0.122978
H	 0.9728119948	-0.6718056057	 1.8298111736	 0.146304
H	-0.7832359819	-0.6978317299	 1.9084040599	 0.146305
128.031	171.5225	263.2937	265.4189	300.767	456.1379	469.3733	526.9194	688.8438	704.5828	740.3911	828.9249	837.293	839.3727	883.0632	930.2605	1004.0714	1015.5725	1060.4625	1115.7777	1132.5297	1160.9311	1172.5754	1231.7137	1262.0558	1299.5102	1314.7904	1374.9861	1421.3432	1435.9312	1458.9701	1477.4226	1489.1357	1580.8488	1693.8087	3021.9938	3033.4104	3060.3768	3069.3494	3117.7484	3268.5462	3276.1684
CC1=CN2N=NC=C2C1	CC1=Cn2nncc2C1	
InChI=1S/C6H7N3/c1-5-2-6-3-7-8-9(6)4-5/h3-4H,2H2,1H3	InChI=1S/C6H7N3/c1-5-2-6-3-7-8-9(6)4-5/h3-4H,2H2,1H3
