20
gdb 23122	2.46334	1.22145	0.85926	0.5225	84.16	-0.2344	0.0111	0.2455	1370.4868	0.170252	-403.128525	-403.119309	-403.118365	-403.162792	34.543	
C	-0.1261963298	 1.5708636235	 0.0514628837	-0.391437
C	-0.0543375006	 0.0429117881	-0.0058416114	-0.167856
C	 0.7156112366	-0.4950303863	-1.2323016716	-0.121862
C	 2.202956287	-0.2115354354	-1.2264636475	-0.064821
C	 2.9455417881	-1.3165587818	-1.2853107592	-0.088196
C	 2.1111349816	-2.5703035716	-1.3603233018	-0.346927
C	 0.7004803166	-2.0176589198	-1.3253365378	 0.381399
N	-0.3922391208	-2.6658915247	-1.3578581848	-0.223533
O	-0.1587661583	-4.0525580394	-1.434411376	-0.393946
H	 0.8672538306	 2.0231590284	 0.1377860247	 0.115645
H	-0.5999020944	 1.9790276168	-0.8485758521	 0.114872
H	-0.7129230404	 1.9015990538	 0.9140256032	 0.11489
H	 0.4163741532	-0.3453465239	 0.9056299852	 0.095724
H	-1.0647774373	-0.3777250497	-0.0388344577	 0.11649
H	 0.2456381193	-0.0641494065	-2.1293138371	 0.095671
H	 2.5948799783	 0.7977230261	-1.1783973842	 0.097891
H	 4.0294094422	-1.3409247333	-1.2896858061	 0.096292
H	 2.2838206287	-3.1548407604	-2.2741595385	 0.132269
H	 2.2871553378	-3.2679821383	-0.5306775928	 0.132643
H	-1.0536010585	-4.4078290455	-1.4532830082	 0.304791
69.642	92.0702	139.2323	201.9438	236.0171	268.6685	315.5772	345.6271	405.4919	476.7503	535.5479	548.7518	691.9541	728.8272	751.8167	815.5192	830.5518	904.6073	952.0147	968.9683	971.3094	984.5383	995.3131	1056.3432	1107.8045	1111.4876	1137.9662	1158.2008	1208.1402	1261.4233	1278.1406	1291.1904	1332.2562	1364.3928	1374.3449	1403.7812	1410.8216	1459.6035	1488.232	1498.9765	1506.4927	1683.3233	1758.2773	2988.8268	3019.6653	3030.7722	3034.5011	3038.4509	3074.549	3100.1141	3104.302	3186.9094	3211.4765	3820.2945
CCC1C=CCC1=NO	CC[C@H]1C=CCC1=NO	
InChI=1S/C7H11NO/c1-2-6-4-3-5-7(6)8-9/h3-4,6,9H,2,5H2,1H3	InChI=1S/C7H11NO/c1-2-6-4-3-5-7(6)8-9/h3-4,6,9H,2,5H2,1H3/t6-/m0/s1
