12
gdb 131116	3.4174	1.17107	1.08649	2.4536	59.87	-0.3166	-0.062	0.2547	1088.2052	0.077837	-468.795687	-468.78803	-468.787086	-468.829092	26.383	
O	-0.0459495542	 1.4242605297	 0.0532193282	-0.389498
C	 0.0367530262	 0.0200020718	 0.0037918807	-0.11807
C	 0.7086895908	-0.4544936296	-1.2264045063	 0.261135
N	 1.2425334811	-0.8005245375	-2.1901402141	-0.299738
C	 0.7094782287	-0.5567023872	 1.2241189625	 0.442413
N	 0.2542297925	-1.4480202838	 2.046606399	-0.304605
C	 1.2855857489	-1.5319266869	 2.9540120171	 0.044285
N	 2.3012049675	-0.7487056937	 2.7177276528	-0.092832
O	 1.9193516835	-0.0872411183	 1.5426437049	-0.204806
H	 0.8488479005	 1.7868135196	 0.057818002	 0.312939
H	-0.9894990205	-0.3573165124	 0.0039221013	 0.184664
H	 1.2727405949	-2.1900943716	 3.8102097319	 0.164112
39.9283	102.3997	176.3053	209.2089	294.8898	375.0085	415.7165	471.3386	599.5146	657.7655	754.4289	793.39	915.4634	932.31	936.1271	977.5666	1024.8633	1077.2966	1175.1161	1247.9907	1271.7426	1299.2897	1340.2645	1416.7984	1508.9937	1628.7902	2363.2056	3098.5902	3268.5168	3793.6807
OC(C#N)C1=NC=NO1	O[C@@H](C#N)c1ncno1	
InChI=1S/C4H3N3O2/c5-1-3(8)4-6-2-7-9-4/h2-3,8H	InChI=1S/C4H3N3O2/c5-1-3(8)4-6-2-7-9-4/h2-3,8H/t3-/m0/s1
