18
gdb 82000	2.44056	1.435	1.30566	2.727	75.54	-0.2753	0.0256	0.3009	1075.655	0.146227	-401.929728	-401.920978	-401.920033	-401.962751	32.941	
C	-0.125072948	 1.554212738	-0.1246423556	-0.416807
C	 0.0136229643	 0.044091584	-0.0196351266	-0.065363
C	 1.054744277	-0.643867374	-0.9133130627	 0.033195
O	 2.3513844619	-0.1807885847	-0.5021915276	-0.24826
C	 1.7507649734	-1.2443073466	 0.2289744553	-0.001139
C	 0.776594992	-0.5885335512	 1.2482710456	 0.105564
C	 1.4174904835	 0.3559466353	 2.2681044428	-0.455284
C	-0.058826987	-1.5875558442	 1.9043914367	 0.235359
N	-0.7145731735	-2.3880609111	 2.4212041541	-0.34208
H	 0.8515225437	 2.0433451975	-0.1058029245	 0.138134
H	-0.6181727888	 1.8204441642	-1.0656564239	 0.125459
H	-0.7328844149	 1.9568095254	 0.6914642973	 0.127344
H	-0.9585855861	-0.4448584891	-0.1229843888	 0.107429
H	 0.9550700818	-0.9870911961	-1.936098016	 0.11486
H	 2.3011845065	-2.1710793629	 0.3386850866	 0.124078
H	 2.1171797756	 1.0212609651	 1.7598977782	 0.14624
H	 0.6595921185	 0.9570268432	 2.7777382568	 0.135234
H	 1.9632452601	-0.2126370428	 3.0266111222	 0.136038
113.9093	157.4746	186.3724	211.4331	221.474	250.0943	276.1117	367.4944	473.0075	506.0635	555.5824	591.8281	638.7752	745.6726	833.4908	858.4496	866.7785	895.4751	936.6904	995.172	1029.5805	1052.5914	1074.7323	1114.499	1142.0001	1161.469	1203.2474	1241.1116	1248.1257	1285.2674	1362.5643	1385.0928	1402.1918	1417.6313	1483.7933	1491.7256	1497.2485	1507.5184	2347.8858	3040.5012	3050.6698	3079.8658	3102.7772	3118.9586	3129.4931	3145.2144	3187.0944	3201.9037
CC1C2OC2C1(C)C#N	C[C@H]1[C@H]2O[C@H]2[C@]1(C)C#N	
InChI=1S/C7H9NO/c1-4-5-6(9-5)7(4,2)3-8/h4-6H,1-2H3	InChI=1S/C7H9NO/c1-4-5-6(9-5)7(4,2)3-8/h4-6H,1-2H3/t4-,5+,6+,7+/m0/s1
