15
gdb 27978	2.70063	1.40489	0.9268	5.9461	73.8	-0.1896	-0.0107	0.1789	1179.9872	0.114218	-450.170788	-450.162619	-450.161674	-450.203386	30.802	
N	 0.1438775493	 1.4006876895	 0.1368554769	-0.601694
C	-0.017936766	 0.0237497478	 0.0178027254	 0.307749
C	-1.0997382637	-0.7717859352	 0.0060115758	-0.184486
N	-0.6361137852	-2.1105387412	-0.0115395682	-0.106271
C	-1.4454806682	-3.2281778958	-0.0393923846	 0.16068
O	-2.6539538885	-3.166138761	-0.0396470015	-0.326107
C	 0.7723959546	-2.1332483707	-0.0051553892	 0.465915
N	 1.4730437304	-3.1957518162	 0.0343142958	-0.588904
N	 1.1316170241	-0.7821185636	-0.0546104458	-0.406275
H	 0.6993223334	 1.80005911	-0.6131189593	 0.254676
H	-0.7431252326	 1.8839580447	 0.1941133275	 0.260491
H	-2.1529051982	-0.5634604957	-0.0253203431	 0.155409
H	-0.85495952	-4.1553736096	-0.0631442416	 0.132553
H	 2.4684467856	-2.9906720761	 0.0167956565	 0.21486
H	 2.0150773352	-0.4737861769	 0.3186870755	 0.261404
115.5023	177.0787	193.5624	235.5939	268.7202	329.8263	389.9207	401.5762	434.457	593.7946	618.3034	658.9411	688.0485	706.8797	725.9113	739.1838	787.3484	902.289	1012.1064	1037.9624	1070.4525	1127.0974	1173.3358	1227.8929	1305.1871	1317.1669	1416.9066	1431.7305	1457.7632	1637.7277	1736.1029	1756.464	1794.0464	3047.3476	3315.8406	3508.5935	3528.6894	3619.0315	3647.4209
NC1=CN(C=O)C(=N)N1	NC1=CN(C=O)[C@@H]([NH])N1	
InChI=1S/C4H6N4O/c5-3-1-8(2-9)4(6)7-3/h1-2H,5H2,(H2,6,7)	InChI=1S/C4H7N4O/c5-3-1-8(2-9)4(6)7-3/h1-2,4,6-7H,5H2/t4-/m0/s1
