17
gdb 129950	2.92558	1.34698	0.99105	3.7105	75.4	-0.2145	0.0009	0.2154	1184.4948	0.13726	-417.98268	-417.974554	-417.97361	-418.016094	30.554	
N	 0.1074202197	 1.4103316568	 0.1219624605	-0.611196
C	 0.0243313122	 0.0176292995	-0.016020523	 0.036946
C	-1.051631525	-0.809581	-0.0902437119	 0.004205
O	-0.6473301246	-2.098220749	-0.1312156266	-0.176492
N	 0.7348869128	-2.1352680683	-0.0889534849	-0.221802
C	 1.137222969	-0.8866393362	-0.0159122555	 0.38088
C	 2.5644692862	-0.5136520717	 0.0348167869	-0.129364
C	 3.6365361246	-1.5738351373	 0.0777700971	-0.260655
C	 3.4617640761	-0.7607623957	-1.1717020337	-0.257475
H	 0.8106677822	 1.8154317149	-0.4841797199	 0.251536
H	-0.7759535711	 1.8750221251	-0.0433831451	 0.247098
H	-2.1172231661	-0.645164805	-0.1124588503	 0.135896
H	 2.7529706116	 0.4006311629	 0.5893885326	 0.097956
H	 4.5016623416	-1.3815231385	 0.7019216689	 0.114084
H	 3.3011296928	-2.6035264182	 0.0634403648	 0.1478
H	 3.005771538	-1.243953423	-2.0283128127	 0.127675
H	 4.2032584901	-0.0068366262	-1.4125956274	 0.112908
39.4211	150.4475	168.5663	210.7192	276.9719	310.2483	432.5702	500.102	594.661	602.4089	714.5057	727.4503	762.0055	790.1486	806.4105	831.9431	906.0675	924.8712	934.5581	962.7375	1063.0925	1089.2639	1096.679	1124.2738	1134.7941	1143.989	1196.999	1204.985	1233.7044	1305.8795	1393.2355	1463.0338	1468.0545	1501.1367	1539.2636	1644.7889	1682.936	3135.4115	3146.2627	3153.5969	3223.0213	3241.759	3266.5622	3530.4829	3620.2387
NC1=CON=C1C1CC1	Nc1conc1C1CC1	
InChI=1S/C6H8N2O/c7-5-3-9-8-6(5)4-1-2-4/h3-4H,1-2,7H2	InChI=1S/C6H8N2O/c7-5-3-9-8-6(5)4-1-2-4/h3-4H,1-2,7H2
