17
gdb 60730	2.28338	1.17778	1.02491	3.3837	70.54	-0.2511	-0.0554	0.1957	1244.5293	0.132482	-458.959183	-458.949622	-458.948678	-458.995038	32.826	
C	-0.2667078457	 1.1739801452	-1.4137023554	-0.406376
C	 0.1942168418	 0.0762469898	-0.4290770241	-0.18226
C	-0.9693264906	-0.2200441317	 0.5214684597	 0.166177
O	-0.9941851713	 0.1035549777	 1.6769013528	-0.23763
C	 0.5235906456	-1.2053472525	-1.1869474212	 0.361881
O	-0.2728012326	-1.7172070846	-1.9433860182	-0.327747
C	 1.8604232912	-1.8535884989	-0.9589929696	-0.020724
C	 3.1070495727	-1.0592902895	-1.0070731403	-0.176316
O	 2.5809771823	-1.5165983432	 0.2272362709	-0.207434
H	 0.5435144688	 1.4435527663	-2.0973456534	 0.128363
H	-1.1088005076	 0.8168820462	-2.0116475226	 0.150162
H	-0.5693298038	 2.0717084954	-0.8684780592	 0.137126
H	 1.0363640389	 0.4067323824	 0.1804527333	 0.117799
H	-1.8204478932	-0.741889436	 0.0322937277	 0.103693
H	 1.8968605804	-2.8992366022	-1.2587855765	 0.124931
H	 4.0178957914	-1.5481783865	-1.347243452	 0.138638
H	 3.0592246118	 0.0160808919	-1.1709435118	 0.129718
31.7578	72.2998	95.2454	168.5632	196.7206	212.1228	265.1809	291.8476	340.5366	439.485	518.9645	562.533	743.4325	788.9552	874.6337	887.6638	903.3768	947.5704	957.2828	1060.4964	1082.2422	1096.6818	1139.6862	1150.1849	1164.8951	1192.7771	1260.0816	1290.2913	1348.4955	1385.5776	1395.9483	1411.2015	1494.7609	1499.1181	1522.5262	1782.7056	1842.6674	2903.0952	3046.211	3091.6571	3112.5896	3119.6582	3136.7157	3140.9635	3183.6783
CC(C=O)C(=O)C1CO1	C[C@@H](C=O)C(=O)[C@H]1CO1	
InChI=1S/C6H8O3/c1-4(2-7)6(8)5-3-9-5/h2,4-5H,3H2,1H3	InChI=1S/C6H8O3/c1-4(2-7)6(8)5-3-9-5/h2,4-5H,3H2,1H3/t4-,5+/m0/s1
