18
gdb 79511	3.06347	1.67587	1.29081	2.1619	75.94	-0.2213	-0.0177	0.2035	1003.5037	0.14886	-401.908441	-401.901223	-401.900279	-401.93996	28.774	
C	-0.0959982737	 1.5525752969	 0.0269950734	-0.406738
C	 0.0368551027	 0.0344557033	-0.0085024836	-0.076358
N	 0.8481667328	-0.4622312862	-1.1450964051	-0.13308
C	 1.2541122176	-1.8956671886	-0.7966715848	-0.028128
C	 2.5669988485	-1.6744205889	-1.5660480337	-0.231164
C	 2.3219881265	-0.4212283766	-0.7092284058	-0.030204
C	 1.8981382504	-1.3115911279	 0.5121122235	-0.149634
C	 0.795489391	-0.5496909946	 1.1976855256	 0.409598
O	 0.5676082176	-0.4097376427	 2.3712498558	-0.336624
H	 0.8850088716	 2.0378707653	 0.0573184289	 0.1187
H	-0.6269911479	 1.9137561303	-0.8573298817	 0.128889
H	-0.6465102213	 1.8538030192	 0.922296	 0.13851
H	-0.9590637058	-0.4232653715	-0.0671354099	 0.101419
H	 0.5399567172	-2.718522726	-0.8663902588	 0.092727
H	 3.4143932152	-2.3028295079	-1.2898013964	 0.104623
H	 2.4685026843	-1.5396861435	-2.6444808473	 0.113652
H	 2.8866217415	 0.5117392462	-0.6806017604	 0.094505
H	 2.6185530719	-1.8637053867	 1.1138417104	 0.089306
120.8241	204.5728	211.0153	232.1728	361.9555	455.9096	510.1596	597.6959	661.7519	686.4418	760.1576	806.8346	827.171	841.9219	886.9256	908.9183	928.8961	956.6645	1044.598	1049.1755	1055.168	1096.1702	1098.5474	1125.2672	1127.6471	1160.041	1174.613	1180.7842	1222.0558	1243.6079	1244.591	1285.3707	1295.6646	1346.4579	1403.7016	1491.3706	1496.033	1497.899	1858.0832	3030.3006	3043.3874	3077.1076	3098.0043	3106.4559	3113.7952	3128.8776	3135.0176	3152.4126
CC1N2C3CC2C3C1=O	C[C@H]1N2[C@H]3C[C@@H]2[C@H]3C1=O	
InChI=1S/C7H9NO/c1-3-7(9)6-4-2-5(6)8(3)4/h3-6H,2H2,1H3	InChI=1S/C7H9NO/c1-3-7(9)6-4-2-5(6)8(3)4/h3-6H,2H2,1H3/t3-,4-,5+,6-/m1/s1
