19
gdb 77996	2.94038	1.26967	1.04854	4.9332	81.87	-0.2498	0.0022	0.252	1199.3812	0.159067	-382.043721	-382.034836	-382.033892	-382.076901	33.578	
C	-0.0903570422	 1.4803799891	-0.1542561276	-0.432614
C	 0.0462508092	-0.0227535768	-0.0554545535	-0.012094
N	 1.2050593868	-0.8680643137	-0.3979108487	-0.194204
C	 2.5095635616	-0.242043343	 0.0589124206	 0.096997
C	 3.0858991311	 0.8973798746	-0.7632792915	-0.419471
C	 2.0016327263	-0.0586441951	 1.5144030393	-0.35263
C	 0.7117397761	-0.7519457094	 1.0568582068	 0.182349
C	 0.0932479978	-1.8348771543	 1.7606165093	 0.20922
N	-0.4077004439	-2.688763388	 2.3601744195	-0.341835
H	 0.6635017558	 2.0296779714	 0.4103792528	 0.13007
H	-0.0415174155	 1.803535202	-1.198920552	 0.138455
H	-1.0716771214	 1.7686942537	 0.2362288897	 0.135315
H	-0.8447368848	-0.5376029482	-0.4111855887	 0.121498
H	 3.2251959638	-1.0689801499	 0.0403047566	 0.104862
H	 2.4830938792	 1.8059157588	-0.7337688544	 0.122693
H	 4.0873455325	 1.1463197496	-0.3961718132	 0.125705
H	 3.1821598828	 0.5871892447	-1.8089889256	 0.135834
H	 2.5658327448	-0.6333408001	 2.2488396532	 0.133534
H	 1.87423509	 0.9607168147	 1.8880361877	 0.116315
118.1733	148.2424	165.8642	202.7345	230.7285	262.3973	302.9918	356.4235	430.9087	485.3083	553.9764	584.8237	628.894	674.302	757.5955	832.8388	835.9004	880.7074	939.9193	978.4862	1027.1218	1096.5704	1112.3367	1117.2748	1135.2783	1153.9982	1202.5283	1233.8515	1266.2516	1311.2401	1331.197	1393.3711	1408.5863	1412.2387	1444.5715	1484.9284	1490.9949	1496.1505	1505.7686	1506.2633	2344.9805	3043.0395	3045.914	3059.7018	3068.6297	3103.5415	3104.5311	3123.207	3136.4649	3140.2982	3150.1196
CC1N2C(C)CC12C#N	C[C@H]1N2[C@@H](C)C[C@@]12C#N	
InChI=1S/C7H10N2/c1-5-3-7(4-8)6(2)9(5)7/h5-6H,3H2,1-2H3	InChI=1S/C7H10N2/c1-5-3-7(4-8)6(2)9(5)7/h5-6H,3H2,1-2H3/t5-,6+,7+,9?/m0/s1
