16
gdb 62209	2.26168	0.99479	0.973	3.7222	70.61	-0.265	0.0005	0.2656	1325.1755	0.121013	-437.832499	-437.82248	-437.821536	-437.869294	34.498	
O	 0.9637585842	 1.7971966803	-0.0133069693	-0.416416
C	 0.4394599696	 0.6252969097	-0.6311384594	-0.051894
C	 1.525178866	 0.0376455822	-1.5629163327	-0.097114
O	 1.1012553042	-1.1121483887	-2.2813989743	-0.221141
C	 0.6135178822	-0.8852307973	-3.5770101568	-0.196923
C	-0.7313904381	-0.2743891124	-3.6214688168	 0.263185
N	-1.7797100079	 0.2104082753	-3.6563887291	-0.30476
C	-0.0208880474	-0.3594995019	 0.3454813924	 0.302009
C	-0.3467802819	-1.1566522926	 1.1838608552	-0.45926
H	 1.4573330216	 1.5203524839	 0.7664425635	 0.29096
H	-0.4092939841	 0.9617044908	-1.2356252635	 0.145368
H	 1.8602276673	 0.8337536818	-2.2405343256	 0.112545
H	 2.3776763691	-0.2770763832	-0.9519456716	 0.11603
H	 1.2943858446	-0.2501732442	-4.1638825224	 0.145199
H	 0.561289938	-1.8617196831	-4.0685268844	 0.165485
H	-0.6600925474	-1.8612596905	 1.9144934247	 0.206726
16.4745	71.6718	85.0365	157.1665	206.5708	220.1348	267.5921	288.0001	355.4937	381.6132	453.3953	545.9356	587.3426	599.0637	637.8759	679.8939	820.5947	892.1808	955.2274	1009.1056	1042.0241	1077.1888	1091.5365	1146.5773	1259.0569	1269.4154	1318.7619	1349.2228	1391.0544	1403.5034	1417.9839	1465.6628	1488.031	2235.6372	2355.6978	2999.6167	3020.6524	3064.4743	3087.4546	3090.057	3502.0619	3812.4202
OC(COCC#N)C#C	O[C@@H](COCC#N)C#C	
InChI=1S/C6H7NO2/c1-2-6(8)5-9-4-3-7/h1,6,8H,4-5H2	InChI=1S/C6H7NO2/c1-2-6(8)5-9-4-3-7/h1,6,8H,4-5H2/t6-/m1/s1
