21
gdb 118511	2.58169	1.01239	0.78934	1.8625	76.61	-0.2442	0.0862	0.3305	1502.9588	0.179314	-461.30811	-461.297472	-461.296528	-461.345112	36.346	
C	-0.0306303376	 1.4096093167	-0.2415469649	-0.230675
O	 0.0511223193	 0.0150763461	-0.0608064223	-0.237351
C	 0.5694212299	-0.6531008968	-1.1912987691	-0.054744
C	 0.5452314859	-2.162978689	-0.9452445393	 0.06065
O	-0.7694926896	-2.6782313631	-0.9693725903	-0.252521
C	-1.4499264983	-2.6601692317	 0.2719432982	-0.238524
C	 1.3751310682	-2.8638804747	-2.0073260878	 0.065496
C	 0.9419678705	-4.1004401662	-2.6626567947	-0.170907
O	 0.8697569329	-2.8424069285	-3.3424611712	-0.238281
H	 0.9589826909	 1.8524192204	-0.4365824937	 0.105209
H	-0.6951463431	 1.6742590448	-1.078493556	 0.110027
H	-0.4329763241	 1.8367170952	 0.6801533945	 0.127164
H	-0.0290485844	-0.4382679968	-2.0895043204	 0.114164
H	 1.6041795399	-0.3224782335	-1.3889488623	 0.08132
H	 1.0160596214	-2.3603430257	 0.0323892826	 0.075017
H	-2.4142627003	-3.1476708694	 0.1069664869	 0.121345
H	-0.8971688991	-3.2236998695	 1.0397698095	 0.100525
H	-1.6107500343	-1.6400295775	 0.6343519285	 0.131599
H	 2.4457061673	-2.662888732	-1.932847831	 0.092541
H	 1.6896849192	-4.7940750927	-3.0451311707	 0.108083
H	-0.0175594647	-4.5270754062	-2.3864434764	 0.129865
53.2608	58.5694	88.2167	107.437	145.743	182.9321	223.4715	233.4538	279.3378	338.1745	373.3922	410.4637	543.4502	646.1722	805.3734	878.1481	897.5891	964.7147	982.2694	1008.6569	1085.5954	1097.7997	1120.5277	1146.7284	1160.4149	1172.6398	1176.8695	1182.6435	1186.1937	1223.0501	1225.4174	1266.1225	1297.4025	1306.0831	1392.655	1419.2579	1434.2368	1475.4026	1480.8615	1483.1349	1484.8489	1498.2949	1516.1591	1520.3395	1522.0099	2951.8046	2970.9622	2973.9764	2985.6149	3015.5728	3019.7088	3075.4019	3088.3207	3097.6342	3115.1654	3119.6235	3200.3605
COCC(OC)C1CO1	COC[C@@H](OC)[C@H]1CO1	
InChI=1S/C6H12O3/c1-7-3-5(8-2)6-4-9-6/h5-6H,3-4H2,1-2H3	InChI=1S/C6H12O3/c1-7-3-5(8-2)6-4-9-6/h5-6H,3-4H2,1-2H3/t5-,6-/m1/s1
