12
gdb 5200	8.01427	1.23333	1.08028	6.491	58.1	-0.2314	0.0035	0.2349	994.3483	0.085218	-414.712185	-414.705512	-414.704568	-414.743792	23.487	
O	-0.030591882	-0.0076574634	 0.0984241396	-0.265851
C	-0.0092506917	 1.1735973659	-0.0579013691	 0.155637
O	 1.0730787498	 1.9157367551	 0.3222034723	-0.226947
C	 1.0123804785	 3.2736463367	 0.1773613508	 0.371688
C	 2.0931003924	 4.0881849443	-0.0309705826	-0.202473
N	 1.5501194995	 5.3576550466	-0.0617558935	-0.230839
C	 0.2102739501	 5.2396418138	 0.1193993156	 0.026739
N	-0.1491197228	 3.9812861422	 0.2738157802	-0.321466
H	-0.8067562762	 1.7866866492	-0.5007352481	 0.123728
H	 3.1432861834	 3.8919873809	-0.1517021367	 0.148315
H	 2.0629991453	 6.2145604153	-0.1841066466	 0.276804
H	-0.4528328863	 6.0905265535	 0.1384357581	 0.144665
64.3017	125.0937	181.5748	360.1707	451.5879	509.0979	529.8539	660.6201	688.9886	740.3327	811.8473	832.7913	948.7117	1002.5616	1042.2201	1087.7141	1123.5904	1148.8576	1251.7716	1317.5386	1359.7659	1413.4335	1470.3627	1522.2532	1609.3403	1869.5284	3052.9212	3262.3365	3297.5396	3669.7162
O=COC1=CNC=N1	O=COc1c[nH]cn1	
InChI=1S/C4H4N2O2/c7-3-8-4-1-5-2-6-4/h1-3H,(H,5,6)	InChI=1S/C4H4N2O2/c7-3-8-4-1-5-2-6-4/h1-3H,(H,5,6)
