21
gdb 87487	2.91831	1.35106	1.10729	1.8486	83.56	-0.2296	0.0819	0.3115	1195.9341	0.181132	-387.001699	-386.992946	-386.992001	-387.034696	34.204	
C	-0.1401887986	 1.57790297	 0.027469654	-0.403777
C	-0.0433776838	 0.0681672527	 0.0009042477	-0.107044
C	 1.2755240826	-0.6145073446	-0.3536979551	-0.391506
C	 0.7273727645	-0.6691193113	 1.0355771152	 0.460089
C	 1.2050703718	-0.2588037528	 2.4378437411	-0.07083
O	-0.1179132786	-0.6920458577	 2.955792801	-0.311758
C	 0.3152186231	-1.7672412308	 2.0260138941	-0.074455
C	 1.7208007102	-1.7075815501	 2.6980931058	 0.050536
C	 2.9768617653	-2.276032396	 2.0609722831	-0.442925
H	 0.7914807503	 2.0254793016	 0.38978899	 0.109543
H	-0.3354561038	 1.9823908998	-0.9717457359	 0.114992
H	-0.9462760865	 1.9081879224	 0.6909624858	 0.128295
H	-0.9352900018	-0.4347346698	-0.3672099951	 0.086568
H	 1.2467260029	-1.5113039267	-0.9652173871	 0.112428
H	 2.1343743286	 0.0231500993	-0.544989447	 0.111903
H	 1.596659853	 0.6951588787	 2.7942893649	 0.089162
H	-0.3584024973	-2.6145713099	 1.8870444967	 0.088229
H	 1.6489883656	-1.9538423599	 3.7612239843	 0.08005
H	 3.057103334	-2.0329134997	 1.0002138748	 0.131298
H	 3.8688092397	-1.889725715	 2.5663896342	 0.119505
H	 2.9945428187	-3.3668362301	 2.1615021073	 0.119696
126.0389	134.8213	173.8762	205.0668	221.5688	299.3714	313.5055	393.9103	426.5946	509.4058	612.9443	655.1005	735.3613	784.1668	804.6257	825.6221	868.2269	876.9407	895.5223	956.0298	1002.7807	1028.417	1048.5573	1062.7687	1083.7688	1109.4959	1122.4225	1124.3257	1142.677	1157.9288	1170.181	1189.5634	1235.6434	1240.6071	1256.4396	1346.1859	1382.4537	1410.32	1412.444	1442.6518	1493.4003	1496.1824	1496.7708	1499.5486	1520.2925	3028.2465	3037.025	3074.5347	3091.5837	3091.6882	3096.9249	3103.899	3110.5886	3114.7979	3129.0446	3137.6132	3197.3902
CC1CC11C2OC1C2C	C[C@H]1C[C@]21[C@H]1O[C@@H]2[C@H]1C	
InChI=1S/C8H12O/c1-4-3-8(4)6-5(2)7(8)9-6/h4-7H,3H2,1-2H3	InChI=1S/C8H12O/c1-4-3-8(4)6-5(2)7(8)9-6/h4-7H,3H2,1-2H3/t4-,5-,6-,7+,8-/m0/s1
