21
gdb 23027	2.65059	0.96349	0.90235	0.9671	83.47	-0.2249	-0.0019	0.223	1447.6238	0.179956	-420.339967	-420.329522	-420.328577	-420.376379	37.466	
C	 0.1865431777	 1.691429245	 0.2667970944	-0.372435
C	 0.5212258389	 0.2458992875	-0.0933395898	-0.124882
N	 0.7693620499	-0.5230639737	 1.1266464968	-0.086306
C	-0.3868915117	-1.1537621474	 1.7508173327	-0.257802
C	 0.6433566292	-1.9992891272	 1.0886152076	-0.071718
C	 0.3703805207	-2.7519888817	-0.1699322906	 0.342815
C	 1.5220242733	-3.4299687455	-0.8647727823	-0.478463
N	-0.8327860487	-2.7741805416	-0.6089955613	-0.165322
O	-0.9267719226	-3.4724290973	-1.8224190103	-0.396359
H	 0.9898036486	 2.1386070549	 0.8591303156	 0.124534
H	 0.0442824885	 2.2900628125	-0.6382697522	 0.110147
H	-0.7357978069	 1.7436685817	 0.8546034744	 0.117851
H	-0.2849261975	-0.1842069974	-0.7062457831	 0.103114
H	 1.4382234798	 0.2154808729	-0.6948989321	 0.097415
H	-0.4289544491	-1.1098507212	 2.8361603424	 0.110802
H	-1.3469698912	-1.0786610687	 1.2454016706	 0.127528
H	 1.3933183935	-2.4828555155	 1.7126264412	 0.092294
H	 1.2552081955	-4.4545986071	-1.1379734134	 0.149135
H	 1.7626835096	-2.9102526613	-1.7992228519	 0.148014
H	 2.4132348126	-3.4380168265	-0.2347128542	 0.123061
H	-1.8730016199	-3.4438475524	-1.9992503546	 0.306578
42.0919	66.9888	90.6593	106.568	193.5537	240.4417	242.1473	302.13	338.0869	385.371	411.0704	468.1209	513.2299	572.0749	669.6476	736.1706	786.6475	816.6654	882.8713	944.4562	964.9583	1012.1541	1038.1683	1043.7692	1073.0647	1099.4691	1115.2012	1136.2465	1142.7385	1204.9797	1227.1268	1312.7226	1323.991	1385.2123	1388.7358	1400.5452	1410.6827	1421.0877	1474.7118	1484.8768	1489.3306	1493.5719	1503.2578	1518.6208	1712.2019	2992.3755	3038.3882	3041.7213	3045.4474	3100.9751	3101.406	3107.4324	3112.9676	3118.1275	3138.4895	3188.1027	3819.7152
CCN1CC1C(C)=NO	CCN1C[C@H]1C(=NO)C	
InChI=1S/C6H12N2O/c1-3-8-4-6(8)5(2)7-9/h6,9H,3-4H2,1-2H3	InChI=1S/C6H12N2O/c1-3-8-4-6(8)5(2)7-9/h6,9H,3-4H2,1-2H3/t6-,8?/m0/s1
