20
gdb 65599	3.53155	1.16557	1.14155	2.0912	78.57	-0.236	-0.0229	0.2131	1158.3015	0.17105	-403.141002	-403.1325	-403.131556	-403.174102	32.623	
C	 0.4241429702	 1.3445892143	 0.02574443	-0.451509
C	-0.0267774732	-0.1207080925	 0.0087367945	 0.194986
C	 0.5270470403	-0.9425000233	-1.1990483933	-0.289436
C	 1.5912379293	-1.8656459879	-0.625609483	-0.010293
C	 2.6733906246	-1.2740673713	 0.2011805621	-0.24972
N	 1.508852333	-1.9026556552	 0.8436745967	-0.087316
C	 0.4587092092	-0.9561353918	 1.2484434548	-0.221681
C	-1.5478143787	-0.1817522147	-0.0302201836	 0.128593
O	-2.2883655164	 0.7654949287	-0.0256938332	-0.253462
H	 1.5123802121	 1.4373142597	 0.0129417114	 0.115721
H	 0.0250801988	 1.8792510066	-0.8406360942	 0.130973
H	 0.048130994	 1.8518310795	 0.918440368	 0.130542
H	-0.2646647682	-1.5528495508	-1.6509954589	 0.108319
H	 0.9057748766	-0.2820005547	-1.9845912372	 0.119296
H	 1.7567339588	-2.8159284263	-1.126023574	 0.094591
H	 3.605542536	-1.8145590147	 0.3388973831	 0.119175
H	 2.7737908759	-0.1935439158	 0.2329764024	 0.11579
H	 0.8131924998	-0.3043740811	 2.0528399448	 0.118215
H	-0.3671538038	-1.5530984516	 1.654363133	 0.110161
H	-1.9484404283	-1.223566097	-0.0615160937	 0.077054
82.349	105.8396	179.4708	246.1396	285.8677	340.6261	352.3024	392.4105	400.7093	476.5257	659.9505	721.7007	750.4569	785.7957	839.4578	876.2006	901.6334	917.4539	952.4033	958.6011	1012.2834	1036.479	1060.3627	1098.1493	1108.2223	1145.9572	1162.7254	1166.0769	1196.6076	1237.1324	1276.4916	1311.195	1326.3654	1351.0452	1393.1537	1412.8603	1430.8712	1483.4508	1486.0552	1490.6622	1496.6091	1515.3913	1832.2706	2844.9944	3024.598	3028.5672	3050.3774	3082.5844	3085.4086	3115.4225	3119.8975	3128.5945	3143.8552	3201.7039
CC1(CC2CN2C1)C=O	C[C@]1(C[C@H]2CN2C1)C=O	
InChI=1S/C7H11NO/c1-7(5-9)2-6-3-8(6)4-7/h5-6H,2-4H2,1H3	InChI=1S/C7H11NO/c1-7(5-9)2-6-3-8(6)4-7/h5-6H,2-4H2,1H3/t6-,7+,8?/m0/s1
