18
gdb 88259	3.11277	1.04954	0.93553	1.0773	74.92	-0.2363	-0.0604	0.1759	1314.5232	0.146699	-439.132413	-439.123003	-439.122059	-439.167104	34.442	
C	-0.2913745647	 1.4808182161	 0.0544357326	-0.419668
C	-0.0008019134	-0.0018400921	 0.0721818349	 0.014904
C	 1.3403949764	-0.5465472089	-0.2646626798	-0.290217
C	 0.8530406849	-0.6682672509	 1.1739974409	-0.126166
C	 1.5025241487	 0.1492990076	 2.2088845499	 0.290982
O	 2.1010341991	 1.1929326925	 2.0157083235	-0.349622
C	 1.3919856884	-0.4045914559	 3.6538837405	 0.329351
N	 1.9930889279	 0.4075622735	 4.549306122	-0.520179
O	 0.8234258662	-1.4502763664	 3.9075553081	-0.350918
H	 0.568648936	 2.0602674653	 0.3947096548	 0.151647
H	-0.5380696115	 1.798576911	-0.9645977813	 0.119715
H	-1.1454316067	 1.7245333474	 0.6951181386	 0.119394
H	-0.8448408716	-0.6264380904	-0.2088528144	 0.101908
H	 1.421678449	-1.4663814947	-0.8326696326	 0.122008
H	 2.1422295985	 0.1689901462	-0.4164333314	 0.135571
H	 0.5073003123	-1.6296968767	 1.5280946307	 0.125357
H	 2.4424072103	 1.2443587247	 4.2137795986	 0.278479
H	 2.00495248	 0.1624721616	 5.5242444346	 0.267454
56.3134	65.0626	172.1492	178.8626	229.2288	269.0603	319.7328	364.4844	376.3009	404.287	501.1437	523.4803	618.6384	671.3575	730.7568	764.5005	839.5786	854.1684	892.2062	958.9377	983.6264	1067.7632	1081.8563	1091.6954	1109.5368	1127.7212	1152.8872	1207.8617	1232.466	1349.4018	1393.0548	1421.4418	1431.2902	1476.1146	1501.7519	1503.5003	1583.1576	1763.1843	1802.0297	3036.755	3093.2994	3130.9769	3133.0531	3149.0263	3214.921	3227.5279	3596.8371	3740.2222
CC1CC1C(=O)C(N)=O	C[C@H]1C[C@H]1C(=O)C(=O)N	
InChI=1S/C6H9NO2/c1-3-2-4(3)5(8)6(7)9/h3-4H,2H2,1H3,(H2,7,9)	InChI=1S/C6H9NO2/c1-3-2-4(3)5(8)6(7)9/h3-4H,2H2,1H3,(H2,7,9)/t3-,4+/m0/s1
