17
gdb 74909	2.8956	1.67127	1.20136	1.8228	70.79	-0.222	0.039	0.261	1024.6766	0.137646	-455.130263	-455.122585	-455.121641	-455.162354	29.993	
N	-0.0764605805	 1.3992717182	-0.1425069203	-0.544817
C	-0.0648103088	 0.0250225916	-0.0921803366	 0.441382
N	-1.1361079917	-0.6585289077	-0.0602589932	-0.321884
C	-1.0362232782	-2.0844713276	-0.058270625	 0.005579
C	-1.4966437352	-2.8565082232	-1.2768776639	-0.323095
C	-0.0356092559	-2.7902632274	-0.9445595046	 0.073753
O	 0.7213787634	-1.9647689411	-1.7951503005	-0.227263
C	 1.7053728505	-1.2474844097	-1.1354079406	 0.008826
O	 1.222156314	-0.455918892	-0.0427104051	-0.272602
H	 0.7526640094	 1.8496543644	 0.2107800813	 0.257059
H	-0.9515951751	 1.8206823429	 0.1294206766	 0.261424
H	-1.2545574538	-2.5399105825	 0.9058255452	 0.092871
H	-2.0166429594	-3.7981272657	-1.1411285763	 0.110516
H	-1.8142168969	-2.2646771976	-2.1276650978	 0.130801
H	 0.4913528576	-3.6765262965	-0.5924023379	 0.086655
H	 2.4688815218	-1.8925020379	-0.6786092088	 0.104622
H	 2.1585731489	-0.5965777782	-1.8916079124	 0.116173
100.634	138.0841	219.766	315.395	348.28	408.9763	435.9162	475.6162	490.392	569.5555	673.2272	723.6362	777.7182	797.656	812.2044	821.0307	882.749	987.2935	1034.9954	1044.3833	1073.4575	1093.6183	1118.576	1131.286	1151.215	1175.5954	1203.2854	1245.7202	1299.1299	1332.1667	1365.7143	1393.4896	1456.1577	1474.5095	1524.92	1612.6663	1750.8874	3006.4502	3067.7252	3102.8333	3118.7169	3139.7068	3234.2452	3585.1168	3704.9971
NC1=NC2CC2OCO1	NC1=N[C@H]2C[C@H]2OCO1	
InChI=1S/C5H8N2O2/c6-5-7-3-1-4(3)8-2-9-5/h3-4H,1-2H2,(H2,6,7)	InChI=1S/C5H8N2O2/c6-5-7-3-1-4(3)8-2-9-5/h3-4H,1-2H2,(H2,6,7)/t3-,4+/m0/s1
