24
gdb 99781	1.86217	1.39352	0.87303	1.1761	85.77	-0.2332	0.0696	0.3027	1417.586	0.215527	-405.516307	-405.50564	-405.504696	-405.551928	39.849	
C	 0.5735757731	 0.7616320424	 0.8242828048	-0.38959
C	-0.2936626046	 0.196556202	-0.3079505299	-0.20709
C	 0.5123717972	-0.349262017	-1.5081004537	 0.048654
C	 0.8240317355	-1.8593417979	-1.3572364707	 0.114503
C	 1.7935569203	-2.3985053795	-2.4018158927	-0.390098
O	 1.4139053885	-2.1528901097	-0.0901878196	-0.432016
N	-0.2657450565	-0.159667252	-2.7372528352	-0.06948
C	-0.3386760175	 1.1970639751	-3.2680443379	-0.227662
C	 0.4604454	 0.153795381	-3.9634254427	-0.222552
H	 1.2982685611	 0.0267697532	 1.1827770106	 0.127691
H	 1.1412585476	 1.6324293427	 0.4781388098	 0.114528
H	-0.0432668033	 1.0835596148	 1.6694370735	 0.109311
H	-0.9600765354	-0.5899324513	 0.0733951621	 0.088001
H	-0.9604897501	 0.984653887	-0.6721899394	 0.106381
H	 1.47298663	 0.1982091016	-1.5605640309	 0.053837
H	-0.1371697422	-2.3869379276	-1.4576014871	 0.074367
H	 2.7466860779	-1.8609556885	-2.3548163272	 0.115753
H	 1.9926203078	-3.4545714741	-2.2011924067	 0.120001
H	 1.3850421723	-2.307016031	-3.4097715832	 0.126293
H	 0.7329466615	-2.070780081	 0.5834516416	 0.28509
H	-1.3066074166	 1.5060158749	-3.6528750495	 0.11503
H	 0.2169592002	 1.9809533465	-2.7547983771	 0.10979
H	 1.5436924037	 0.2469531402	-3.9077686929	 0.113657
H	 0.0917774094	-0.3180193018	-4.870209706	 0.115601
55.8959	101.2748	118.5392	183.9154	198.1812	214.3392	252.273	283.9132	326.8879	349.0652	366.1728	411.8318	463.3431	481.6611	511.3528	763.8226	787.4907	865.0228	872.4779	897.9946	918.7236	957.1778	1020.6012	1030.6374	1032.8241	1046.7728	1091.2211	1112.8552	1120.1153	1121.41	1136.7221	1176.6614	1184.043	1193.0266	1261.252	1284.4113	1316.2809	1325.4512	1327.295	1376.0361	1390.6994	1398.6729	1410.9886	1430.5508	1489.2997	1490.4747	1496.1771	1498.7202	1500.3562	1518.0624	1519.8551	2914.2328	2985.0756	3011.9432	3037.2864	3044.6559	3068.211	3090.6504	3097.0879	3098.0108	3113.296	3127.5177	3140.4332	3172.1096	3187.0702	3835.1459
CCC(C(C)O)N1CC1	CC[C@@H]([C@@H](C)O)N1CC1	
InChI=1S/C7H15NO/c1-3-7(6(2)9)8-4-5-8/h6-7,9H,3-5H2,1-2H3	InChI=1S/C7H15NO/c1-3-7(6(2)9)8-4-5-8/h6-7,9H,3-5H2,1-2H3/t6-,7+/m1/s1
