15
gdb 45836	2.40464	1.79299	1.11978	3.9357	70.38	-0.2445	-0.0121	0.2324	1037.4523	0.11435	-453.996325	-453.98874	-453.987796	-454.02893	28.422	
N	-0.2612089319	 1.355165366	 0.3376377859	-0.483591
C	-0.0596548371	 0.1810270722	-0.0684522572	 0.406865
C	-1.0728082144	-0.9218297679	 0.0647386473	-0.352397
C	-1.5155168774	-1.3916555443	-1.2965784554	-0.108569
C	-0.6595780094	-1.9577056074	-2.1448448779	 0.02492
N	 0.7011504857	-2.136270108	-1.8720800027	-0.362437
C	 1.5780711898	-1.3731997001	-1.1342258931	 0.442529
O	 2.7253969039	-1.6891616944	-0.9696725117	-0.352253
O	 1.138620085	-0.1494710474	-0.6853693367	-0.24696
H	 0.5404807889	 1.9544121039	 0.1337648655	 0.233996
H	-0.6188663282	-1.756645215	 0.6181994564	 0.138094
H	-1.9040920209	-0.5353648943	 0.65209796	 0.147548
H	-2.5417217939	-1.2332598826	-1.6028424634	 0.116851
H	-0.968583381	-2.3390142137	-3.1123144533	 0.123471
H	 1.1701017211	-2.924859107	-2.2930782438	 0.271933
77.1331	97.5454	171.583	308.0257	377.9972	414.2566	488.0314	545.2564	562.7964	598.2436	665.7042	704.9199	756.6761	827.4319	842.1834	907.8912	945.4242	957.5955	964.5578	1011.6298	1093.803	1117.7163	1202.4462	1211.0854	1281.9098	1322.4768	1365.2563	1420.8588	1468.5375	1487.1299	1728.0153	1765.622	1844.5468	3010.4819	3148.3361	3185.3566	3218.4238	3478.4431	3618.577
N=C1CC=CNC(=O)O1	[NH][C]1CC=CNC(=O)O1	
InChI=1S/C5H6N2O2/c6-4-2-1-3-7-5(8)9-4/h1,3,6H,2H2,(H,7,8)	InChI=1S/C5H6N2O2/c6-4-2-1-3-7-5(8)9-4/h1,3,6H,2H2,(H,7,8)
