19
gdb 62164	3.43543	0.74616	0.68376	2.9808	76.61	-0.2536	0.0096	0.2632	1660.8636	0.157744	-456.369232	-456.358827	-456.357883	-456.407205	35.157	
C	 0.1589735062	 1.7783514201	 0.0155369508	-0.392589
C	 0.000526148	 0.2525479256	 0.0076305502	 0.020174
C	 0.7186671161	-0.4120757204	 1.1797393591	-0.088963
O	 0.0589375941	 0.0126391341	 2.3779134294	-0.199065
C	 0.5625363504	-0.4390015972	 3.5439409724	 0.133831
N	-0.0109408692	-0.1487246575	 4.6289149534	-0.435976
N	-1.4013737909	-0.144259941	 0.0149108928	-0.277605
C	-2.0278522126	-0.6743937495	-1.0680200023	 0.155985
O	-1.5079907011	-0.884173764	-2.1445668959	-0.32822
H	 1.2160715921	 2.0567211573	-0.04633575	 0.1172
H	-0.3606806977	 2.2130939113	-0.8414762987	 0.134893
H	-0.2537238115	 2.2084891393	 0.9321711714	 0.137021
H	 0.4165750536	-0.1546407717	-0.9180629399	 0.127485
H	 0.6601678678	-1.5036487716	 1.0903992732	 0.119972
H	 1.7740856921	-0.1114361943	 1.2013086695	 0.112898
H	 1.4723548334	-1.0429642565	 3.4235641352	 0.090078
H	 0.4959707768	-0.5558334145	 5.4119396951	 0.233154
H	-1.91930699	-0.0103750408	 0.8699652981	 0.261389
H	-3.0909256976	-0.9024940487	-0.8560933737	 0.078338
21.6366	37.7323	69.2574	122.5378	155.6045	211.2013	218.6919	237.1236	308.0966	360.2055	463.1428	567.227	571.2961	649.3463	764.5061	823.6734	874.0974	932.299	957.2882	976.0138	1033.5791	1044.7992	1085.1529	1133.638	1150.7188	1159.6131	1215.8738	1273.7241	1292.5819	1346.185	1371.5175	1391.6625	1412.3919	1426.2806	1430.575	1489.4959	1497.3219	1506.0721	1526.8629	1749.8262	1800.3749	2941.4063	3010.9461	3029.5066	3044.1222	3065.6878	3089.5511	3116.323	3133.0141	3521.3883	3630.3099
CC(COC=N)NC=O	C[C@@H](CO[CH][NH])NC=O	
InChI=1S/C5H10N2O2/c1-5(7-4-8)2-9-3-6/h3-6H,2H2,1H3,(H,7,8)	InChI=1S/C5H10N2O2/c1-5(7-4-8)2-9-3-6/h3-6H,2H2,1H3,(H,7,8)/t5-/m0/s1
