15
gdb 97351	7.68971	0.64586	0.59802	3.0655	70.69	-0.2686	-0.0382	0.2303	1777.2762	0.110392	-491.137135	-491.127668	-491.126724	-491.172648	31.516	
C	-0.1271237637	 1.344842546	-0.1998232103	-0.320646
N	 0.0650044632	-0.091020186	-0.1238456118	-0.194633
C	 0.5604943193	-0.547828852	 0.9309776027	 0.119793
O	 0.7506569886	-1.9095958097	 1.0217326349	-0.254583
C	 1.2958864944	-2.3911644354	 2.1878326929	 0.563412
O	 1.6215894964	-1.7372867924	 3.133258558	-0.338252
N	 1.3877115462	-3.7682804509	 2.0408300492	-0.400162
C	 1.8831472915	-4.675986702	 2.9752031453	 0.166512
O	 2.3116886722	-4.4124608841	 4.0621656162	-0.245023
H	 0.4269697736	 1.7355109607	-1.0598635379	 0.138318
H	-1.1866031723	 1.5555818376	-0.3798302549	 0.138318
H	 0.1920729333	 1.8891616994	 0.7015834076	 0.110633
H	 0.8761941583	-0.0044084523	 1.8237838091	 0.142217
H	 1.0573885871	-4.1356929329	 1.1600731645	 0.276024
H	 1.8251785718	-5.7037948058	 2.5664344644	 0.098071
48.8151	85.7408	106.727	111.6832	211.7911	220.8674	235.2361	310.2974	329.1032	385.042	561.1682	612.8309	634.067	775.4646	874.4677	959.8147	986.8073	1030.3457	1064.3254	1102.2799	1141.5524	1162.8411	1186.0878	1209.3049	1369.5881	1444.4975	1447.4428	1480.7415	1501.6967	1513.8506	1783.0115	1828.2435	1900.3146	2946.3714	2989.6057	3074.776	3092.3824	3119.0182	3618.505
CN=COC(=O)NC=O	CN=COC(=O)NC=O	
InChI=1S/C4H6N2O3/c1-5-3-9-4(8)6-2-7/h2-3H,1H3,(H,6,7,8)	InChI=1S/C4H6N2O3/c1-5-3-9-4(8)6-2-7/h2-3H,1H3,(H,6,7,8)
