17
gdb 69644	2.93639	1.31589	1.19207	2.3152	74.51	-0.2212	-0.0196	0.2015	1087.749	0.134458	-421.763527	-421.755632	-421.754688	-421.795733	31.149	
O	-0.0230980038	 1.3823777504	 0.0190319728	-0.451465
C	 0.042638615	 0.0057124928	 0.0202074374	 0.412435
C	-0.9211183687	-0.7996522013	 0.8232030496	-0.343695
C	 0.5663313504	-0.984049422	 1.0534248078	-0.207442
C	 1.2836689597	-1.7801099881	-0.0619597881	 0.257515
C	 0.3939312693	-2.2252835373	-1.2074416158	-0.354915
C	 0.7322564976	-0.7814449308	-1.1288440208	-0.177519
C	 2.6889658544	-2.1599037859	 0.0301505681	 0.063679
O	 3.3730035991	-2.0315571243	 1.0218317156	-0.281833
H	 0.8751533235	 1.7332772168	 0.0304912539	 0.29046
H	-1.390495649	-0.2101568607	 1.604755367	 0.131047
H	-1.5679016561	-1.5657809145	 0.4085236868	 0.11388
H	 1.0382424893	-0.8144507738	 2.0109846053	 0.119308
H	 0.9148679019	-2.7740755887	-1.9879833245	 0.128111
H	-0.6023874149	-2.599560114	-1.0061351746	 0.131901
H	 1.3303135322	-0.2846509001	-1.8834592055	 0.109419
H	 3.1115332802	-2.5721214284	-0.9163021149	 0.059114
93.2346	186.7906	213.6141	289.7747	340.6387	364.0914	413.32	449.1553	466.9548	544.2303	621.6074	664.2336	731.6665	814.4044	838.1849	887.2897	911.8373	940.7331	967.1404	975.775	1013.2003	1016.7359	1042.8076	1079.7449	1100.15	1102.6054	1180.6849	1190.7351	1239.683	1282.7913	1330.7824	1361.8932	1418.91	1433.628	1485.0205	1513.1379	1784.9472	2852.5891	3122.3146	3133.5332	3190.5296	3206.4518	3216.0432	3222.6424	3784.1593
OC12CC1C1(CC21)C=O	O[C@]12C[C@H]1[C@]1(C[C@@H]21)C=O	
InChI=1S/C7H8O2/c8-3-6-1-4(6)7(9)2-5(6)7/h3-5,9H,1-2H2	InChI=1S/C7H8O2/c8-3-6-1-4(6)7(9)2-5(6)7/h3-5,9H,1-2H2/t4-,5+,6-,7+/m1/s1
