20
gdb 76720	3.35649	0.85998	0.77898	5.1239	77.53	-0.2405	0.0426	0.283	1512.273	0.170266	-440.292866	-440.282892	-440.281948	-440.328715	35.775	
C	 0.1142394127	 1.5379121857	-0.4572009787	-0.419425
C	-0.0230015084	 0.1233281243	 0.0652105273	-0.060637
C	 1.1746529435	-0.7982181914	 0.151906287	 0.064083
O	 2.4638759376	-0.2878839506	-0.0758191819	-0.422503
C	 0.5180720582	-0.321371029	 1.4178854875	-0.056146
C	 1.2712112007	 0.6181694108	 2.3425434781	-0.187368
N	 2.4492934402	-0.0177615036	 2.9158034276	-0.266065
C	 2.591586809	-0.2754076461	 4.2394082721	 0.153822
O	 1.7924800593	 0.0152681317	 5.1068375959	-0.33165
H	 1.1299362208	 1.920188466	-0.3329384696	 0.128018
H	-0.1210896463	 1.5726349169	-1.5268140375	 0.115116
H	-0.5713564277	 2.2234482124	 0.0516121581	 0.126478
H	-0.9498361371	-0.3642365265	-0.2264858457	 0.089281
H	 1.0513801278	-1.8418993451	-0.1344504488	 0.088585
H	 2.5939301394	-0.1906488551	-1.0248562185	 0.294435
H	-0.0712755096	-1.0667112532	 1.9440100303	 0.099502
H	 1.5748699358	 1.5269555626	 1.8172648916	 0.113052
H	 0.6401942552	 0.9129846823	 3.1833456471	 0.145754
H	 3.1573759936	-0.3318143841	 2.2701801468	 0.258078
H	 3.5490445455	-0.7923366883	 4.4530970514	 0.067589
41.2556	59.8191	129.0151	168.0219	201.3459	234.6702	242.3355	298.2241	329.0953	357.7991	480.0362	563.997	605.9618	626.7073	738.5348	769.3889	803.7494	892.0089	939.9143	962.6884	1017.1563	1035.0245	1038.0916	1073.3408	1120.8503	1148.6046	1156.0549	1175.6319	1220.0276	1250.7372	1275.1649	1295.7026	1353.1006	1381.4751	1405.6228	1419.1411	1429.3908	1456.4291	1489.4116	1502.4843	1510.399	1533.5204	1801.5315	2926.9965	3035.443	3071.1893	3090.8249	3103.7581	3119.1364	3125.6183	3137.8744	3154.0709	3631.4644	3808.2219
CC1C(O)C1CNC=O	C[C@H]1[C@@H](O)[C@H]1CNC=O	
InChI=1S/C6H11NO2/c1-4-5(6(4)9)2-7-3-8/h3-6,9H,2H2,1H3,(H,7,8)	InChI=1S/C6H11NO2/c1-4-5(6(4)9)2-7-3-8/h3-6,9H,2H2,1H3,(H,7,8)/t4-,5+,6-/m1/s1
