19
gdb 86010	2.49734	1.29076	1.0974	3.2517	77.86	-0.247	-0.0339	0.2132	1197.0266	0.157444	-423.047553	-423.038352	-423.037407	-423.081779	34.273	
C	 0.2587787425	 1.5732766108	 0.0780616575	-0.397185
C	 0.0661956988	 0.0512698518	 0.0249768474	-0.030671
C	 0.8011052696	-0.626836451	-1.1620446607	-0.293192
C	 1.487596212	-1.8990531858	-0.6070815817	 0.268745
O	 0.8787398849	-3.1332713909	-0.9945318318	-0.477416
C	 2.9412050459	-2.0471119785	-1.0626164594	 0.143877
O	 3.6461138911	-1.1416595898	-1.421097418	-0.249386
C	 1.4212689265	-1.6965720161	 0.8963036266	-0.167734
C	 0.6356082977	-0.6716171931	 1.2232483021	-0.058546
H	 1.3219107368	 1.8273049583	 0.1428363718	 0.128444
H	-0.1485389967	 2.047725154	-0.82031981	 0.120091
H	-0.2481773888	 2.0086843824	 0.9457249178	 0.112086
H	-1.0152404842	-0.1443608305	-0.0245257661	 0.081258
H	 0.1405550918	-0.8881813299	-1.9916889136	 0.108175
H	 1.5799980417	 0.0386267363	-1.5458872236	 0.131635
H	 0.0707401093	-3.2321177231	-0.4800518995	 0.279724
H	 3.3030594907	-3.0971309632	-1.0127015647	 0.091894
H	 1.9220361706	-2.3680967968	 1.5849772298	 0.105125
H	 0.4034143599	-0.3705512348	 2.240563886	 0.103076
48.7985	94.9943	177.893	233.0022	262.9513	266.8599	294.1492	308.7455	395.2362	428.999	512.5913	551.6059	670.6435	714.7803	798.599	818.8996	847.0361	880.6383	939.6914	963.8393	980.863	1002.7491	1045.8632	1074.9699	1116.5105	1126.1126	1149.7216	1193.1254	1237.719	1285.313	1311.8338	1338.2475	1349.339	1382.528	1401.3666	1410.9611	1481.2537	1497.3444	1500.4333	1673.093	1838.0587	2903.6724	2990.367	3031.189	3064.0545	3100.5392	3106.9959	3117.6649	3172.9752	3203.3379	3811.8998
CC1CC(O)(C=O)C=C1	C[C@H]1C[C@@](O)(C=O)C=C1	
InChI=1S/C7H10O2/c1-6-2-3-7(9,4-6)5-8/h2-3,5-6,9H,4H2,1H3	InChI=1S/C7H10O2/c1-6-2-3-7(9,4-6)5-8/h2-3,5-6,9H,4H2,1H3/t6-,7-/m1/s1
