20
gdb 61988	3.74671	0.76346	0.66735	1.8282	83.36	-0.2621	0.0306	0.2927	1701.5257	0.167719	-403.132252	-403.121532	-403.120588	-403.168961	37.929	
C	-0.1333941594	 1.5889940582	 0.0048648196	-0.386165
C	-0.0619938477	 0.0496476835	-0.0236819147	-0.169353
C	-1.457722026	-0.5908389727	-0.037845896	-0.046481
O	-2.1042227968	-0.2149466412	 1.1832454263	-0.243053
C	-3.3660947914	-0.6593655059	 1.3660553858	 0.395324
C	-3.8958734472	-0.1772460562	 2.6925482332	-0.461419
N	-3.9420047574	-1.3758425143	 0.4907495506	-0.51676
C	 0.7026154431	-0.4305400687	-1.1728046098	 0.311465
C	 1.3134369916	-0.8179320068	-2.1328120979	-0.465431
H	 0.868723024	 2.021083297	 0.0597889498	 0.124621
H	-0.6172756179	 1.966535838	-0.9011581598	 0.12505
H	-0.709478597	 1.9185127971	 0.8722363135	 0.127669
H	 0.4388918502	-0.2902157468	 0.8930098085	 0.113499
H	-2.0461872167	-0.2425226068	-0.8927291281	 0.127073
H	-1.3949908126	-1.6807647101	-0.1010161152	 0.127993
H	-3.8892652581	 0.9165422477	 2.7263420934	 0.145987
H	-4.913265353	-0.5337172282	 2.8601207515	 0.127461
H	-3.2537227176	-0.5294724081	 3.505530554	 0.146499
H	-4.882960067	-1.6195084683	 0.7908891755	 0.220083
H	 1.8614954769	-1.1638957073	-2.9738662601	 0.195938
48.347	59.6134	100.2571	111.8526	176.8253	189.668	217.8716	256.0148	295.8174	366.9427	447.9635	525.4757	532.4653	573.4524	623.9663	630.8929	645.304	820.4941	854.8668	922.777	925.6257	945.5415	985.8764	1068.1133	1071.3434	1092.2738	1116.9917	1126.4473	1167.4271	1258.094	1305.3943	1341.8643	1357.4778	1393.3244	1404.5077	1431.1673	1471.8064	1482.3317	1493.9699	1499.2584	1509.8303	1728.6242	2237.4013	3016.2522	3047.3947	3048.1133	3055.0467	3103.4354	3111.2834	3120.5275	3135.5632	3143.9186	3505.3567	3517.8028
CC(COC(C)=N)C#C	C[C@@H](CO[C](C)[NH])C#C	
InChI=1S/C7H11NO/c1-4-6(2)5-9-7(3)8/h1,6,8H,5H2,2-3H3	InChI=1S/C7H11NO/c1-4-6(2)5-9-7(3)8/h1,6,8H,5H2,2-3H3/t6-/m1/s1
