19
gdb 112601	3.31423	0.97143	0.91085	2.0543	72.29	-0.2477	-0.0344	0.2134	1343.5166	0.156424	-460.154515	-460.144847	-460.143903	-460.189854	34.708	
C	 0.4225574791	 1.3249118758	 0.345473853	-0.456558
C	 0.0228141506	-0.1123854155	 0.0558436404	 0.343429
C	 0.4649243705	-0.7581376711	-1.2712117881	-0.371952
C	 1.1892251822	-1.7852322888	-0.3805748576	 0.128443
C	 2.7026423232	-1.8653274074	-0.4565148723	-0.066862
O	 3.2271711519	-2.5298486009	 0.6740059158	-0.418793
O	 0.7960264368	-1.0741716183	 0.8345888567	-0.359229
C	-1.4428066116	-0.3394750747	 0.4080793339	 0.124599
O	-2.324173206	-0.5280422373	-0.388128175	-0.245423
H	 1.4955193602	 1.4566209092	 0.1817082797	 0.13159
H	-0.1226788461	 2.0125125054	-0.3096793734	 0.137702
H	 0.2003548229	 1.5874728574	 1.3853186657	 0.132276
H	-0.3561998738	-1.1314015022	-1.8823936112	 0.137501
H	 1.1279545437	-0.1369003444	-1.8771445973	 0.110138
H	 0.7590130619	-2.793562348	-0.3818440403	 0.094001
H	 3.0050846367	-2.4392132252	-1.3399816983	 0.112555
H	 3.1162149227	-0.8479644826	-0.5574591779	 0.081496
H	 2.8633752838	-2.0752924308	 1.4436246992	 0.293964
H	-1.6276007888	-0.3368755407	 1.5062097471	 0.091124
43.6468	76.2021	110.218	155.5332	217.0987	267.5028	301.1207	326.7278	348.4614	428.8263	451.4274	505.42	564.6032	682.1064	794.5058	878.8127	896.4725	904.3479	936.6718	988.9048	1002.8673	1025.2678	1055.3278	1091.1255	1139.5863	1158.4001	1212.4812	1229.1354	1256.3393	1281.4793	1310.7597	1347.9724	1396.2117	1400.3045	1406.318	1435.5793	1479.5007	1488.5775	1494.0725	1497.8301	1835.0566	2883.8301	2965.8455	3034.3374	3041.5698	3069.8825	3080.3662	3107.4398	3119.3592	3148.5597	3788.0314
CC1(CC(CO)O1)C=O	C[C@]1(C[C@@H](CO)O1)C=O	
InChI=1S/C6H10O3/c1-6(4-8)2-5(3-7)9-6/h4-5,7H,2-3H2,1H3	InChI=1S/C6H10O3/c1-6(4-8)2-5(3-7)9-6/h4-5,7H,2-3H2,1H3/t5-,6-/m0/s1
