17
gdb 56244	5.13911	0.62739	0.57897	5.1835	66.25	-0.2508	0.0272	0.278	1831.2924	0.134382	-492.361761	-492.351195	-492.350251	-492.400482	35.432	
N	-0.1202373044	 1.2703513919	 0.2434339349	-0.524198
C	-0.0015549154	-0.0035950601	-0.228962085	 0.416029
O	 1.0292359067	-0.4257702173	-0.7163642375	-0.357164
C	-1.2697154451	-0.8477790582	-0.1233088782	-0.331844
C	-0.9368701285	-2.3296221374	-0.0360353454	-0.050252
O	-2.1823285967	-3.0402161974	-0.1215828141	-0.266254
C	-2.1174897136	-4.3594688938	 0.1884768063	 0.49035
N	-3.3638649213	-4.9179498726	 0.0933327364	-0.563149
O	-1.1161784282	-4.9407500917	 0.5318708756	-0.391575
H	 0.6738014702	 1.8843793546	 0.1653189238	 0.262681
H	-0.9662335271	 1.6183210141	 0.6578252932	 0.25922
H	-1.8806118131	-0.5406714853	 0.7323742639	 0.110166
H	-1.8715377264	-0.6660578657	-1.0226944265	 0.138491
H	-0.2769630296	-2.6228381349	-0.8553614309	 0.143107
H	-0.4348012908	-2.5820252126	 0.900914975	 0.134646
H	-4.0712216449	-4.4266708677	-0.4265819075	 0.261637
H	-3.3920065619	-5.9231375059	 0.0848748059	 0.268108
14.1038	42.4429	60.8457	99.238	103.9605	167.3485	245.598	284.0999	373.5244	439.3826	478.7578	519.7242	523.9976	611.2744	659.5854	688.8644	783.4409	802.8519	856.2192	942.4989	1055.3886	1075.1785	1103.9422	1112.5453	1126.0147	1222.4433	1264.1999	1295.7356	1344.9006	1385.0598	1432.0204	1470.8686	1519.0098	1612.5354	1617.514	1796.351	1837.7014	3035.3981	3075.5106	3077.6054	3128.7377	3605.0169	3611.775	3739.9509	3743.557
NC(=O)CCOC(N)=O	NC(=O)CCOC(=O)N	
InChI=1S/C4H8N2O3/c5-3(7)1-2-9-4(6)8/h1-2H2,(H2,5,7)(H2,6,8)	InChI=1S/C4H8N2O3/c5-3(7)1-2-9-4(6)8/h1-2H2,(H2,5,7)(H2,6,8)
