16
gdb 10873	3.22856	1.97334	1.57117	2.9374	65.65	-0.2498	-0.0066	0.2433	864.1484	0.12825	-383.69415	-383.686334	-383.68539	-383.725959	28.992	
C	-0.0866791758	 1.5476368241	 0.0078858681	-0.435808
C	-0.037607518	 0.0288424288	-0.0171090035	-0.015222
C	 1.2335007283	-0.6438067483	-0.6049270449	-0.090075
O	 1.9859111099	-0.2319895874	 0.6091095067	-0.334906
C	 0.6733538891	-0.6904609486	 1.1777256355	 0.256695
C	 0.4499620951	-0.5913055687	 2.6492644818	-0.523809
C	 0.8947177276	-1.902508571	 0.2298308474	 0.447037
O	 0.9305256737	-3.0889848893	 0.2147420414	-0.317143
H	 0.8781411722	 1.9610540574	 0.3076379668	 0.141945
H	-0.343125274	 1.9412018439	-0.9807100138	 0.123352
H	-0.8504542608	 1.8976276101	 0.7102360829	 0.121681
H	-0.9887278401	-0.418916173	-0.3270729806	 0.086719
H	 1.7202046737	-0.5077244107	-1.5681444151	 0.110886
H	 0.4462712393	 0.4519184441	 2.9794462329	 0.138715
H	-0.5141618929	-1.0401122717	 2.9076667685	 0.140307
H	 1.2344015828	-1.1275748996	 3.1904962958	 0.149626
142.914	162.0651	185.9546	220.8617	234.0254	310.0117	334.5705	525.1147	553.0417	653.6324	709.5792	744.0333	765.4411	818.3234	820.8595	899.5387	987.2218	1020.8766	1060.4244	1088.1236	1109.9764	1127.2441	1180.9874	1206.4989	1224.0756	1338.374	1391.7278	1403.266	1421.4087	1473.8584	1485.4659	1496.9014	1504.2273	1930.3764	3040.3631	3042.5119	3050.9318	3100.3292	3114.859	3121.922	3138.3674	3154.9647
CC1C2OC1(C)C2=O	C[C@H]1[C@H]2O[C@]1(C)C2=O	
InChI=1S/C6H8O2/c1-3-4-5(7)6(3,2)8-4/h3-4H,1-2H3	InChI=1S/C6H8O2/c1-3-4-5(7)6(3,2)8-4/h3-4H,1-2H3/t3-,4+,6-/m0/s1
