23
gdb 117152	3.62356	0.655	0.64311	1.0506	82.77	-0.2395	-0.0095	0.23	1889.001	0.202315	-425.449915	-425.438264	-425.43732	-425.488607	40.401	
C	 0.0809062183	 1.5802116859	-0.0241835111	-0.397592
C	 0.0995782722	 0.0497712058	 0.010908413	-0.161302
C	 0.6795338925	-0.5488116784	 1.3062226535	-0.062681
C	-0.1473757089	-0.1907015217	 2.5585043571	-0.39346
C	 0.7376612108	-2.0753452829	 1.2048829571	 0.374707
O	-0.1803186016	-2.7134429226	 0.7356903071	-0.327409
C	 1.9866693275	-2.7491560856	 1.7431081845	-0.292678
C	 1.9063116959	-4.2675103508	 1.749742979	-0.075996
O	 3.1412215694	-4.7525438411	 2.257711303	-0.425201
H	 1.0824046836	 1.9964982563	 0.1349446928	 0.111958
H	-0.2744688514	 1.9382954591	-0.9953938232	 0.116315
H	-0.5794166364	 2.0021010795	 0.7395052344	 0.119405
H	-0.9097721336	-0.3500638903	-0.131021018	 0.119132
H	 0.6900764614	-0.3199363202	-0.8366179204	 0.095444
H	 1.701258612	-0.1732601399	 1.4513413929	 0.073397
H	 0.270272107	-0.652651254	 3.4592486388	 0.11666
H	-0.1650780777	 0.8896500586	 2.7217616915	 0.122854
H	-1.1775265753	-0.5424849779	 2.4451643101	 0.134906
H	 2.8428684193	-2.4229970894	 1.1359766542	 0.132651
H	 2.1946469356	-2.3738326072	 2.7538928433	 0.128897
H	 1.0567096038	-4.589116275	 2.3696349064	 0.099025
H	 1.7129572854	-4.6288780175	 0.7302374624	 0.103941
H	 3.10721436	-5.7134202208	 2.2541308514	 0.287028
18.021	68.7529	77.6987	92.7584	132.7954	210.9525	216.8907	230.2947	265.6887	271.4792	298.9805	336.367	389.587	462.5515	574.217	690.2597	770.5575	805.9249	823.5399	868.508	965.7965	975.0708	1001.9097	1032.0846	1052.7862	1059.6227	1099.8521	1110.8383	1138.2793	1195.987	1209.0492	1251.556	1287.2148	1300.8471	1317.7306	1350.8054	1355.2096	1388.3448	1403.9845	1414.1154	1444.497	1468.9	1483.7783	1494.883	1500.362	1506.3624	1511.4414	1522.3338	1795.681	2994.9052	3015.1384	3023.7107	3025.5938	3030.4189	3031.893	3038.5219	3058.6222	3075.9724	3100.0029	3103.582	3108.4823	3122.7514	3831.4412
CCC(C)C(=O)CCO	CC[C@@H](C)C(=O)CCO	
InChI=1S/C7H14O2/c1-3-6(2)7(9)4-5-8/h6,8H,3-5H2,1-2H3	InChI=1S/C7H14O2/c1-3-6(2)7(9)4-5-8/h6,8H,3-5H2,1-2H3/t6-/m1/s1
