19
gdb 7370	3.20207	1.24758	1.04235	5.1717	68.28	-0.2454	0.0228	0.2681	1198.2434	0.164747	-402.237971	-402.228696	-402.227752	-402.27253	32.881	
C	 0.2224194776	 1.6210167757	-0.0548130414	-0.394146
C	 0.5175938441	 0.1269408247	 0.0177333968	-0.119944
N	-0.0260043361	-0.5781341426	-1.1497101007	-0.323835
H	-1.019053347	-0.3878581813	-1.2335885115	 0.225901
H	 1.3430876	-0.5919848797	-2.4679542265	 0.300821
C	 0.2174336837	-2.0245583556	-1.1581533263	-0.085479
C	-0.8886486214	-2.7668170825	-1.9172002548	-0.420056
C	 1.5687172517	-2.3174518546	-1.8447018248	 0.429886
O	 2.0128608158	-1.301117083	-2.5984558095	-0.368513
O	 2.1443968353	-3.3669729646	-1.7424651864	-0.344804
H	 0.6479434089	 2.0609466755	-0.9614812184	 0.12954
H	-0.8570913401	 1.8111359067	-0.0610152169	 0.117076
H	 0.6445725131	 2.1379800609	 0.8113576603	 0.12749
H	 1.6014657492	-0.038389502	 0.0310609781	 0.125065
H	 0.1252852466	-0.2915467054	 0.9598065427	 0.098252
H	 0.2875462725	-2.4371272516	-0.1416671619	 0.097708
H	-1.8481161398	-2.6660323416	-1.3994609524	 0.117874
H	-0.996579822	-2.3681594125	-2.9313779116	 0.130829
H	-0.6410205821	-3.8276324965	-1.9875407647	 0.156335
61.2076	73.1651	113.6054	177.7479	231.0657	246.2555	260.308	337.2043	368.9315	426.8277	551.8373	643.8766	742.7908	759.1344	815.4615	823.4213	884.6362	912.366	955.7225	1043.0834	1073.1769	1091.838	1147.9694	1153.0544	1188.3808	1242.6315	1293.3805	1324.8635	1340.832	1384.3213	1399.799	1416.0983	1430.4331	1473.5748	1494.0006	1496.4862	1498.2801	1502.8313	1522.1296	1872.5414	2964.5749	3006.13	3035.0696	3037.5426	3053.0976	3103.5725	3105.2814	3121.8049	3139.642	3450.69	3522.8216
CC[NH2+]C(C)C([O-])=O	CCN[C@@H](C)C(=O)O	
InChI=1S/C5H11NO2/c1-3-6-4(2)5(7)8/h4,6H,3H2,1-2H3,(H,7,8)	InChI=1S/C5H11NO2/c1-3-6-4(2)5(7)8/h4,6H,3H2,1-2H3,(H,7,8)/t4-/m0/s1
