18
gdb 93448	2.89545	1.39805	0.98235	1.7508	76.13	-0.241	-0.0132	0.2277	1184.1376	0.149852	-435.315174	-435.306855	-435.305911	-435.34825	31.639	
C	-0.2022262425	 1.513284102	-0.0035433117	-0.405255
C	 0.0307530481	 0.0054342126	-0.0049126133	-0.078044
N	 0.7856913353	-0.4143947006	-1.1820686743	-0.317437
C	 0.9803496006	-1.8573720836	-1.2212111342	-0.230674
C	 1.8118674249	-2.2964710784	-0.0372922192	 0.416983
N	 2.5934479081	-3.2943731598	-0.1308292379	-0.513945
N	 1.5975546002	-1.5382230238	 1.115158362	-0.38258
C	 0.7802940749	-0.4271417214	 1.257123857	 0.450691
O	 0.6671388039	 0.1267076963	 2.3282605037	-0.356924
H	 0.7486991678	 2.0435277848	-0.1015267127	 0.135236
H	-0.8479192556	 1.7983972449	-0.8400392193	 0.10926
H	-0.677931376	 1.8168176922	 0.9297657647	 0.147913
H	-0.9528561974	-0.5061063277	 0.0603960851	 0.087845
H	 0.3104157184	-0.1030903174	-2.0216575266	 0.229901
H	 0.0303386301	-2.4269034008	-1.1923483553	 0.105626
H	 1.5129522593	-2.1475401463	-2.1274465775	 0.141403
H	 3.056934599	-3.5015675308	 0.7567102043	 0.208851
H	 2.0977208109	-1.7940757221	 1.9579274951	 0.251149
67.8755	126.1626	206.8998	230.0995	283.3981	365.2651	381.7154	419.7863	485.1079	540.5197	583.5819	640.0492	678.4677	716.1454	751.2577	830.9659	879.9664	906.7284	965.7733	1027.8094	1042.9132	1092.6777	1128.9565	1150.5986	1178.4939	1249.6523	1283.596	1300.126	1342.4336	1380.8903	1403.877	1412.3195	1423.0254	1477.0321	1484.6023	1494.8799	1503.9526	1744.9173	1807.7879	2877.4062	2909.6371	3048.7859	3119.0166	3126.5799	3152.0164	3444.355	3536.0078	3573.1957
CC1NCC(=N)NC1=O	C[C@H]1NC[C]([NH])NC1=O	
InChI=1S/C5H9N3O/c1-3-5(9)8-4(6)2-7-3/h3,7H,2H2,1H3,(H2,6,8,9)	InChI=1S/C5H9N3O/c1-3-5(9)8-4(6)2-7-3/h3,7H,2H2,1H3,(H2,6,8,9)/t3-/m1/s1
