18
gdb 67108	2.55686	2.1185	1.77146	1.2115	74.33	-0.2245	0.0583	0.2828	874.5563	0.148064	-401.818392	-401.811425	-401.810481	-401.849262	28.75	
C	-0.108147385	 1.515043053	-0.1092398372	-0.541879
C	-0.0701402894	 0.0212719838	-0.0678203322	 0.329542
C	 0.8501407232	-0.9661191632	-0.8224970834	-0.048713
O	 1.8944366309	-0.9685847874	 0.2603000463	-0.403738
C	 0.6131591846	-0.9223235839	 0.9548412607	 0.429267
C	-0.1210965822	-0.8666301405	 2.2665101738	-0.375323
C	-1.5477089349	-0.8548259504	 1.5441142387	-0.161532
N	-1.2870935773	-0.881638707	 0.0459701332	-0.205612
C	-0.1289280351	-1.8464068127	-0.0307797991	-0.070398
H	 0.9134439473	 1.9079143891	-0.0859461998	 0.14106
H	-0.5975370767	 1.8700779047	-1.0215387671	 0.136052
H	-0.65277542	 1.9257821379	 0.7477075272	 0.124736
H	 1.2218550584	-1.0036211769	-1.8453497014	 0.098879
H	 0.0194933924	-1.7402909784	 2.9065095336	 0.116927
H	 0.0627133829	 0.0398726094	 2.8483613436	 0.114979
H	-2.1403624404	-1.7319214155	 1.8139280458	 0.114745
H	-2.1236960417	 0.0386837386	 1.7949312667	 0.114344
H	-0.2364684469	-2.9301812908	-0.0015097595	 0.086664
193.2118	199.6089	228.8609	285.7193	413.547	442.8583	537.566	654.8692	683.0301	713.3684	772.805	781.2973	810.9692	833.2552	847.112	855.8903	883.9755	932.7251	938.2416	967.9979	1038.4256	1061.9991	1104.0639	1110.177	1127.4815	1151.4781	1186.8098	1208.9776	1232.9332	1246.9948	1257.922	1297.3815	1323.9899	1387.4374	1420.9682	1479.0358	1488.9046	1491.3403	1512.4831	3033.5385	3065.582	3074.5558	3100.6767	3110.6971	3111.6916	3122.6144	3129.4402	3137.88
CC12C3OC11CCN2C31	C[C@@]12[C@H]3O[C@]41CCN2[C@@H]34	
InChI=1S/C7H9NO/c1-6-5-4-7(6,9-5)2-3-8(4)6/h4-5H,2-3H2,1H3	InChI=1S/C7H9NO/c1-6-5-4-7(6,9-5)2-3-8(4)6/h4-5H,2-3H2,1H3/t4-,5-,6+,7+/m0/s1
