16
gdb 54389	2.60971	1.40223	1.25857	2.8203	71.	-0.2499	-0.0368	0.2131	1063.846	0.12239	-437.841485	-437.833037	-437.832093	-437.875511	30.423	
C	-0.0780472407	 1.4507537144	-0.1938987954	-0.492081
C	 0.0417633926	-0.0293104684	 0.0871622757	 0.234934
O	 1.0907457731	-0.5926059798	 0.3063074337	-0.291784
C	-1.2358368029	-0.8123085689	 0.0279355852	 0.117268
C	-1.523156491	-2.2680621209	 0.4937152805	-0.281616
C	-2.9063641656	-1.711363153	 0.0268212934	-0.160033
N	-2.5631567278	-0.3546392655	 0.6511273639	-0.359577
C	-2.1525023683	-1.1664959871	-1.1962357314	 0.488424
O	-2.1967425745	-1.0764434335	-2.3747604081	-0.300235
H	 0.8869191758	 1.9364915314	-0.0465979884	 0.143116
H	-0.4097651536	 1.5938498556	-1.2296844094	 0.160972
H	-0.8435534341	 1.9047534967	 0.4429906307	 0.153178
H	-1.0669060286	-3.1002498051	-0.0480897638	 0.130644
H	-1.4502110802	-2.395269875	 1.5772582901	 0.120045
H	-3.8953838011	-2.1555888325	 0.115647893	 0.113168
H	-2.480712663	-0.5069931984	 1.6630913204	 0.223578
39.5246	115.3174	127.7056	167.9207	193.2204	341.9754	404.1765	502.0486	533.9957	579.1231	629.0871	715.3749	765.4612	789.822	799.9117	899.9257	926.4334	954.7066	1013.6247	1027.723	1045.3403	1071.4379	1115.0338	1137.4179	1169.1283	1199.3632	1250.5246	1291.7974	1347.3175	1388.4286	1459.423	1465.8846	1497.7518	1798.7491	1950.1017	3037.885	3056.5052	3102.1981	3130.4667	3151.1017	3158.2799	3371.5874
CC(=O)C12CC(N1)C2=O	CC(=O)[C@@]12C[C@@H](N1)C2=O	
InChI=1S/C6H7NO2/c1-3(8)6-2-4(7-6)5(6)9/h4,7H,2H2,1H3	InChI=1S/C6H7NO2/c1-3(8)6-2-4(7-6)5(6)9/h4,7H,2H2,1H3/t4-,6-/m1/s1
