17
gdb 78929	4.37314	1.35294	1.32838	1.842	70.3	-0.2298	0.0716	0.3013	980.9671	0.136625	-421.742656	-421.735699	-421.734755	-421.773566	29.015	
O	 0.0491590255	 1.4813966528	-0.0050565841	-0.444185
C	 0.0159542109	 0.0804970255	 0.003602067	 0.159245
C	 0.287857619	-0.7084035237	 1.3080372741	-0.097931
C	-0.859724003	-0.3629083878	 2.2821643162	-0.14852
C	-2.0669974539	-0.3298404461	 1.2862426987	-0.197546
C	-1.3361586736	-0.6761616155	-0.028505877	-0.103228
C	-0.6653489936	-1.8530609462	 0.7830227925	-0.159313
C	-1.6456390084	-1.6008817692	 1.9874771232	 0.393175
O	-2.2805922649	-2.4272070644	 2.8746203313	-0.457387
H	-0.5297839853	 1.7822149692	 0.7049097088	 0.282663
H	 0.674209183	-0.257199952	-0.8030634486	 0.088882
H	 1.289116796	-0.8709782478	 1.7031267815	 0.06872
H	-0.8518228888	 0.2336598994	 3.1846560399	 0.095102
H	-2.9280073355	 0.3023962402	 1.460689881	 0.091776
H	-1.9163478671	-0.8063550768	-0.9409084119	 0.064628
H	-0.3318748761	-2.7956519629	 0.3584719819	 0.074839
H	-3.0288959041	-2.8401265747	 2.4281058254	 0.289079
163.1824	214.6493	311.5755	340.4259	368.9582	398.9459	535.3184	638.4118	643.3477	717.1749	725.1858	763.5982	807.9931	816.9993	864.8262	872.3058	921.06	954.3038	979.1054	982.0414	994.4372	1023.1408	1046.4035	1096.5894	1114.5379	1153.4417	1166.2815	1169.7472	1179.1435	1211.9684	1239.5012	1269.5461	1280.9197	1295.7982	1319.5351	1433.7587	1485.1816	3072.9556	3125.1346	3131.546	3160.1916	3196.9189	3207.8537	3784.2246	3793.4108
OC1C2C3C4C1C2C34O	O[C@H]1[C@H]2[C@H]3[C@H]4[C@@H]1[C@@H]2[C@@]34O	
InChI=1S/C7H8O2/c8-6-1-3-2(6)5-4(1)7(3,5)9/h1-6,8-9H	InChI=1S/C7H8O2/c8-6-1-3-2(6)5-4(1)7(3,5)9/h1-6,8-9H/t1-,2+,3-,4+,5-,6+,7-
