15
gdb 9589	3.00738	1.74302	1.30155	3.2974	69.34	-0.2562	-0.005	0.2512	952.5489	0.116036	-362.623563	-362.615204	-362.61426	-362.656262	30.097	
C	-0.2406880754	 1.6060566384	-0.1457559395	-0.458216
C	 0.109235061	 0.1318269788	-0.0650325649	 0.11538
C	 0.9517010881	-0.5088705933	-1.1512475539	-0.263669
N	 1.5307034332	-0.1831358735	 0.1271647343	-0.102462
C	 2.0260584939	-1.1421107088	 1.0038561876	 0.148696
O	 2.7027780767	-2.0824684783	 0.6738071986	-0.281546
C	-0.8629670515	-0.702601697	 0.6017778736	 0.302592
C	-1.6858442817	-1.3638068255	 1.1770807361	-0.44699
H	 0.555403558	 2.1525028806	-0.656725285	 0.133382
H	-1.1780751569	 1.7442100375	-0.6920310698	 0.136305
H	-0.3645742043	 2.02647323	 0.8562746573	 0.137907
H	 0.7929538253	-1.5612413141	-1.3676983166	 0.146544
H	 1.2659797523	 0.1050390698	-1.9910967607	 0.130163
H	 1.7855166743	-0.8984670816	 2.0546269251	 0.094304
H	-2.408163113	-1.961967483	 1.6760608576	 0.207611
86.3618	146.9112	174.1725	197.1373	218.7884	298.0086	343.9164	375.2683	535.4647	551.6136	619.3446	629.7142	670.6539	694.3872	846.8124	912.453	945.6414	999.3674	1035.5628	1096.1041	1125.7346	1132.058	1193.482	1275.2193	1383.2589	1413.6617	1416.4615	1480.1087	1494.3216	1504.0412	1805.315	2236.7844	2973.8238	3047.102	3113.1971	3119.76	3133.0999	3209.04	3499.9098
CC1(CN1C=O)C#C	C[C@]1(CN1C=O)C#C	
InChI=1S/C6H7NO/c1-3-6(2)4-7(6)5-8/h1,5H,4H2,2H3	InChI=1S/C6H7NO/c1-3-6(2)4-7(6)5-8/h1,5H,4H2,2H3/t6-,7?/m1/s1
