19
gdb 77387	2.2267	1.94551	1.242	2.4709	75.52	-0.2262	0.0696	0.2958	1054.2544	0.156887	-422.941343	-422.93261	-422.931666	-422.974019	33.682	
C	 0.0223719581	 1.4672552496	-0.0282965096	-0.533746
C	 0.0430820913	-0.0314172386	-0.0771878655	 0.295946
C	 0.5680430624	-0.9781359684	-1.1648504177	-0.001768
O	 1.9636881966	-0.8753179639	-1.3597502964	-0.441908
C	 0.0639841463	-1.9797544708	-0.1014511212	 0.268565
C	 0.0702433839	-3.47979483	-0.0843007229	-0.536296
C	 0.4916383514	-1.0152510846	 1.0577967375	 0.003998
O	-0.8120045492	-1.0381312501	 1.7154469523	-0.334389
C	-1.110828906	-1.0233613496	 0.286834731	-0.012396
H	 1.0351333641	 1.8729581814	-0.1172827437	 0.133789
H	-0.579188398	 1.8843969243	-0.8433122981	 0.118512
H	-0.4044050174	 1.806620072	 0.9210366901	 0.134063
H	 0.0237863857	-0.9689569139	-2.120934788	 0.059309
H	 2.2372883276	-1.5629684307	-1.9743760739	 0.285268
H	 1.0897460917	-3.8709989193	-0.1757379027	 0.119861
H	-0.3498847992	-3.8470457206	 0.8577413815	 0.13935
H	-0.5238287827	-3.8935372696	-0.9069071719	 0.118471
H	 1.3892782872	-1.0119472842	 1.673840965	 0.096129
H	-2.154108654	-1.0286157231	-0.0299577358	 0.087241
170.1884	189.693	194.8181	221.4292	225.1502	244.5241	266.436	296.581	396.8164	559.5895	587.6592	603.4408	722.4598	749.3878	790.5655	832.7693	848.7527	880.7511	902.5924	934.4093	1009.0639	1064.5968	1077.9065	1096.163	1110.2249	1139.383	1154.9658	1167.2746	1170.5538	1233.7373	1259.2024	1288.3053	1343.0709	1374.7617	1403.5591	1409.0835	1463.1879	1488.069	1489.7836	1491.0777	1493.6952	2992.3808	3025.9435	3031.7489	3088.9327	3097.6249	3101.6281	3107.8813	3114.5781	3135.6453	3823.2918
CC12C(O)C3(C)C1OC23	C[C@@]12[C@@H](O)[C@@]3(C)[C@@H]1O[C@@H]23	
InChI=1S/C7H10O2/c1-6-3(8)7(2)4(6)9-5(6)7/h3-5,8H,1-2H3	InChI=1S/C7H10O2/c1-6-3(8)7(2)4(6)9-5(6)7/h3-5,8H,1-2H3/t3-,4-,5+,6-,7+
