17
gdb 124645	4.4149	0.97691	0.88215	4.2534	72.93	-0.2403	-0.0215	0.2187	1330.2389	0.133484	-455.127644	-455.118638	-455.117694	-455.161946	32.284	
C	-0.1382562137	 1.4960661416	 0.0938752437	-0.400146
C	-0.0212589263	-0.0169201175	-0.0450118001	 0.126723
C	 0.8250383891	-0.4556832883	-1.2289685928	-0.394252
O	 0.6452992033	-0.572859112	 1.1330071133	-0.278603
C	-0.0536760381	-0.7381869958	 2.2386755481	 0.504428
C	 0.3866464389	-1.2265548177	 3.4503604856	-0.247794
N	-0.6962623614	-1.2233079548	 4.2734143127	-0.070056
N	-1.7328033769	-0.8011955069	 3.7369888975	-0.035924
O	-1.3319876703	-0.4441104417	 2.2977457551	-0.258193
H	 0.8527461046	 1.9490647574	 0.1939540621	 0.129726
H	-0.6194889286	 1.9115542025	-0.7966901735	 0.127623
H	-0.7426245086	 1.7651685134	 0.9626836553	 0.146912
H	-1.0166981895	-0.4675095573	-0.1000034924	 0.118049
H	 1.8357645069	-0.0434997161	-1.1536592636	 0.132855
H	 0.8965691293	-1.5451749754	-1.2737702028	 0.132713
H	 0.3746273929	-0.098221461	-2.1590891821	 0.12807
H	 1.3619973783	-1.5610256903	 3.7526944939	 0.137868
64.2597	70.6848	135.5671	217.4619	248.6708	277.2568	301.6462	321.0601	411.749	448.0104	521.9994	665.4599	738.2261	741.8594	752.2301	843.4932	930.4028	938.5188	948.6776	953.16	1060.4439	1132.6328	1146.9842	1161.1545	1202.7467	1322.9699	1366.6419	1373.7855	1405.1414	1406.2821	1422.7791	1481.608	1486.2156	1493.3973	1496.9923	1511.2367	1610.317	3045.7395	3049.6634	3069.9714	3117.0102	3126.4578	3129.6374	3137.359	3305.3282
CC(C)OC1=CN=NO1	CC(C)Oc1cnno1	
InChI=1S/C5H8N2O2/c1-4(2)8-5-3-6-7-9-5/h3-4H,1-2H3	InChI=1S/C5H8N2O2/c1-4(2)8-5-3-6-7-9-5/h3-4H,1-2H3
