17
gdb 6260	4.07044	1.12877	1.0005	3.2412	72.78	-0.2486	-0.0393	0.2093	1200.0363	0.141284	-360.067912	-360.058662	-360.057718	-360.102112	32.677	
C	-0.0824930958	 1.5344209816	 0.0191668815	-0.407373
C	 0.0205879048	 0.0089525093	 0.0347742972	 0.067691
C	 0.7648531922	-0.5169997059	 1.2695633452	-0.385771
N	-1.3252674062	-0.5568754286	-0.0675297205	-0.31646
C	-1.5586995027	-1.812825224	-0.5382831135	 0.301341
N	-0.6351015587	-2.5731576146	-1.0002833321	-0.528175
C	-2.9615386933	-2.2055572887	-0.4917040922	 0.222753
N	-4.0632132613	-2.5559767081	-0.4641637357	-0.321956
H	 0.9144790723	 1.9814774636	 0.0551339237	 0.129642
H	-0.5872433219	 1.8882694294	-0.8841669287	 0.128124
H	-0.6385125034	 1.901084146	 0.8910409267	 0.116006
H	 0.5537230268	-0.3306229193	-0.8587265786	 0.124008
H	 0.8192653092	-1.6075055309	 1.2441430942	 0.145289
H	 1.7855418675	-0.1224467148	 1.2950439629	 0.118665
H	 0.2580050073	-0.210323529	 2.1913367582	 0.109454
H	-2.0776332702	-0.0872139641	 0.4096542503	 0.257962
H	-1.0199714567	-3.4481117218	-1.3453243388	 0.238801
59.7818	77.2425	131.6683	226.4739	229.676	260.2916	301.8494	337.9612	362.5076	407.856	459.5046	517.1152	607.8877	725.7733	811.1406	847.9338	900.4113	932.6976	954.8517	975.1005	1145.0598	1162.3779	1181.392	1194.7652	1300.5721	1355.3074	1393.6515	1398.7135	1420.7854	1484.7436	1488.9223	1497.6394	1510.1102	1550.1251	1679.6185	2347.0505	3029.3807	3035.9951	3067.4167	3098.6078	3108.2574	3123.9327	3132.4672	3537.5246	3644.2706
CC(C)NC(=N)C#N	CC(C)NC(=N)C#N	
InChI=1S/C5H9N3/c1-4(2)8-5(7)3-6/h4H,1-2H3,(H2,7,8)	InChI=1S/C5H9N3/c1-4(2)8-5(7)3-6/h4H,1-2H3,(H2,7,8)
