21
gdb 70336	2.17114	2.03057	1.34109	2.7118	81.87	-0.216	0.0715	0.2875	1047.1684	0.183667	-383.23191	-383.223627	-383.222683	-383.263969	33.658	
C	-0.0129272847	 1.5569327366	 0.0903643362	-0.504542
C	 0.1067504158	 0.0562742712	-0.0111102033	 0.290067
N	-0.5860340601	-0.7936924472	 0.9830899409	-0.344944
C	 0.8902107598	-0.7653518305	 0.9563181714	-0.090052
C	 1.5428244682	-1.9433915655	 0.2346861341	-0.220529
C	 1.1063254232	-1.8111882453	-1.2235410088	-0.090053
N	-0.3444094421	-1.9629787512	-1.4540758966	-0.344944
C	 0.2436220204	-0.6060872992	-1.3916837017	 0.290069
C	 0.2571893724	 0.2497329443	-2.6342550555	-0.504543
H	 0.789492509	 2.0706006957	-0.4492185013	 0.122003
H	-0.9667133565	 1.9131238535	-0.3162428324	 0.125436
H	 0.0415998932	 1.8734913873	 1.1372057165	 0.112131
H	-0.9086266224	-0.1987646592	 1.7447350995	 0.217923
H	 1.4129875939	-0.3082998413	 1.7927454352	 0.076704
H	 2.6333991668	-1.8575300689	 0.3016136622	 0.093953
H	 1.2499408579	-2.9050505231	 0.6670266576	 0.117126
H	 1.7896273609	-2.1309575542	-2.0062598301	 0.076704
H	-0.4944568067	-2.2030460297	-2.4328312223	 0.217923
H	-0.7191799279	 0.7151231979	-2.8132089281	 0.125436
H	 0.9999883329	 1.0518204892	-2.5727171879	 0.122002
H	 0.502565266	-0.3571118503	-3.5120873556	 0.112131
139.9217	209.6669	218.0314	244.8974	301.2412	315.8654	360.8151	410.0516	458.2751	507.6823	595.2771	602.5372	697.9791	786.3771	805.6546	846.2811	850.8681	897.5819	935.7661	936.1899	958.6517	1020.6316	1032.3777	1057.8413	1081.2354	1083.8033	1120.737	1125.7049	1134.2911	1189.1054	1209.7833	1257.5988	1296.832	1309.3093	1333.1476	1374.0288	1410.3308	1422.7015	1431.6435	1433.5536	1469.2256	1479.4322	1494.0741	1494.5753	1508.7413	3023.0884	3027.376	3042.8828	3084.6556	3089.5039	3090.2762	3094.515	3100.4726	3135.3537	3138.4046	3471.2153	3472.4754
CC12NC1CC1NC21C	C[C@]12N[C@H]1C[C@H]1N[C@@]21C	
InChI=1S/C7H12N2/c1-6-4(8-6)3-5-7(6,2)9-5/h4-5,8-9H,3H2,1-2H3	InChI=1S/C7H12N2/c1-6-4(8-6)3-5-7(6,2)9-5/h4-5,8-9H,3H2,1-2H3/t4-,5+,6-,7+
