19
gdb 35512	3.07774	1.46319	1.37109	1.7492	79.78	-0.2419	0.0374	0.2792	1027.0036	0.161195	-385.868585	-385.861141	-385.860196	-385.900333	30.342	
C	-0.164065751	-1.2343969944	-0.198747524	-0.452053
C	-0.077075278	-0.0423267571	-0.0708037834	 0.335012
C	 0.0169347329	 1.4090163907	 0.0439419136	-0.060139
O	-0.5683366749	 1.8769071029	 1.2827921941	-0.289568
C	 0.4330717602	 2.6926822621	 1.9191599511	 0.115573
C	 1.5156898113	 1.7624799	 2.4972148503	-0.213144
C	 2.2487151946	 1.2798885418	 1.2022643272	-0.222088
C	 1.4558657422	 1.9895024791	 0.0806297048	-0.047938
C	 1.1433743146	 3.3535104105	 0.7305088236	-0.236453
H	-0.2474709698	-2.2879363107	-0.3038511513	 0.196628
H	-0.5430559397	 1.8565330961	-0.7905144863	 0.101459
H	-0.0730458439	 3.3392271022	 2.6366505291	 0.074929
H	 2.186025682	 2.2999562735	 3.1752944965	 0.094109
H	 1.0545175605	 0.9431196994	 3.0523632497	 0.113761
H	 3.2933567999	 1.6034276547	 1.1875485193	 0.095667
H	 2.2345829901	 0.1944112973	 1.0883527972	 0.118607
H	 1.9377973763	 1.9969649329	-0.8971649189	 0.073822
H	 0.4805378393	 3.9900328431	 0.1388642181	 0.103393
H	 2.0413784834	 3.9112135658	 1.0090506393	 0.098422
94.8521	153.0557	235.8889	335.3957	396.9224	448.63	506.8711	525.5007	589.8204	623.0947	660.139	776.0208	790.3303	817.0406	833.7945	869.81	895.6549	939.0245	950.7733	953.8975	964.5886	1010.9341	1042.083	1056.962	1065.7469	1143.7828	1165.0938	1189.9785	1224.5248	1256.5588	1276.3756	1299.2862	1314.1988	1335.0047	1339.3068	1349.1538	1366.2876	1476.7939	1488.5541	1507.6592	2234.841	2987.3974	3051.8116	3061.7365	3065.9248	3106.468	3115.0186	3117.4955	3119.9671	3123.6653	3502.7431
C#CC1OC2CCC1C2	C#C[C@H]1O[C@H]2CC[C@@H]1C2	
InChI=1S/C8H10O/c1-2-8-6-3-4-7(5-6)9-8/h1,6-8H,3-5H2	InChI=1S/C8H10O/c1-2-8-6-3-4-7(5-6)9-8/h1,6-8H,3-5H2/t6-,7+,8-/m1/s1
