18
gdb 78141	1.92305	1.84237	1.01436	4.2794	81.14	-0.2257	-0.0498	0.1759	1188.7762	0.14686	-401.951872	-401.943422	-401.942478	-401.984718	31.95	
C	-0.1413285064	 1.3600636732	-0.0228489548	-0.315687
N	 0.052744921	-0.0858646271	 0.0613567256	-0.105939
C	 1.4583872546	-0.5159569149	-0.130183214	-0.169299
C	 0.8513580977	-0.5469586677	 1.2202062946	-0.13934
C	 0.590561223	-1.9924509792	 1.546483088	 0.350969
C	-0.0580730754	-2.4053115518	 2.8243972103	-0.498225
C	 0.9713396443	-2.7721696957	 0.5187442628	-0.312159
C	 1.57076615	-1.9684053877	-0.5767209856	 0.426374
O	 2.0726639353	-2.3661529791	-1.6019820712	-0.337675
H	 0.7020259432	 1.9490748159	 0.3731570587	 0.10302
H	-0.2906381931	 1.6346006719	-1.0714112596	 0.136623
H	-1.04462374	 1.629005979	 0.5335827284	 0.128211
H	 2.1940765153	 0.2155646516	-0.4456740072	 0.105577
H	 1.1046673504	 0.1706221871	 1.9944582352	 0.095811
H	-1.0514543606	-1.9477548765	 2.9133847545	 0.146461
H	-0.1682335971	-3.4898116188	 2.8938798836	 0.136281
H	 0.5229645773	-2.0593976	 3.6882785198	 0.136361
H	 0.8528805205	-3.8461995303	 0.4485906208	 0.112635
140.8368	151.3199	170.7459	224.3733	234.816	270.4481	288.672	411.0131	486.9561	553.1155	570.1964	627.8887	712.3642	828.3643	838.9257	852.3606	884.8526	904.0081	962.1375	1012.5248	1044.4618	1060.1925	1126.0791	1135.2216	1152.9031	1169.4165	1186.3829	1230.3971	1294.2039	1338.0061	1378.1544	1410.4944	1449.0118	1476.5979	1479.7752	1492.471	1494.1158	1668.2188	1817.3768	2969.9412	3023.1764	3072.0645	3073.2839	3109.7029	3124.1155	3162.2306	3184.0646	3216.287
CN1C2C1C(C)=CC2=O	CN1[C@H]2[C@@H]1C(=CC2=O)C	
InChI=1S/C7H9NO/c1-4-3-5(9)7-6(4)8(7)2/h3,6-7H,1-2H3	InChI=1S/C7H9NO/c1-4-3-5(9)7-6(4)8(7)2/h3,6-7H,1-2H3/t6-,7+,8?/m0/s1
