19
gdb 114946	3.80449	0.89073	0.79606	2.8904	80.38	-0.2472	-0.0524	0.1948	1439.0749	0.159005	-423.051164	-423.042186	-423.041242	-423.085411	32.803	
O	-0.1219055358	 1.4820164697	-0.0661977272	-0.421284
C	 0.0058829644	 0.0774098422	 0.0964023045	-0.081517
C	-1.3861390693	-0.5456718233	 0.0113003766	 0.005944
C	-2.0338091332	-0.2816580532	-1.3797749897	-0.266982
C	-1.8677195155	-1.5871636542	-2.1040094222	-0.147453
C	-1.4694845155	-2.5744935859	-1.2880296025	 0.257158
C	-1.2989168558	-2.09314885	 0.1352591383	-0.344917
C	-1.2507946876	-3.9580833528	-1.7093389033	 0.063125
O	-0.9096130452	-4.8526991637	-0.9656630219	-0.272828
H	 0.7587675721	 1.8675626835	-0.0733745188	 0.288718
H	 0.6501102677	-0.3587681717	-0.6853542722	 0.08847
H	 0.4552648338	-0.1709503334	 1.0704643173	 0.091997
H	-1.9909967484	-0.1101411582	 0.8108812982	 0.084266
H	-3.0997138314	-0.0281439385	-1.2962060872	 0.11746
H	-1.5638739206	 0.5638617388	-1.8927291719	 0.129747
H	-2.0722781167	-1.7115499136	-3.1632562733	 0.10687
H	-0.3525992885	-2.4321332395	 0.5714699415	 0.117965
H	-2.0891174355	-2.5022957604	 0.7756580243	 0.118964
H	-1.4208528492	-4.1449051556	-2.7938668503	 0.064297
58.1202	110.6633	136.5066	190.3278	242.1403	259.5778	294.5001	356.1955	428.0046	454.2379	507.1794	723.8069	738.6613	794.8562	843.5893	882.3572	904.0491	931.7211	981.4945	1017.0583	1036.3712	1067.8008	1077.2606	1099.5283	1168.6805	1187.7574	1193.1768	1248.1799	1274.1741	1280.4813	1294.3782	1324.9716	1360.0748	1378.2112	1420.7504	1455.282	1476.5105	1488.4242	1520.3469	1682.3354	1781.7698	2874.0431	2962.2283	2996.3326	3015.8901	3037.2516	3067.0803	3073.9432	3080.0805	3182.7394	3834.0118
OCC1CC=C(C1)C=O	OC[C@H]1CC=C(C1)C=O	
InChI=1S/C7H10O2/c8-4-6-1-2-7(3-6)5-9/h1,4,7,9H,2-3,5H2	InChI=1S/C7H10O2/c8-4-6-1-2-7(3-6)5-9/h1,4,7,9H,2-3,5H2/t7-/m0/s1
