20
gdb 80848	2.05295	1.69023	1.54551	0.8796	79.9	-0.2267	0.0068	0.2334	1042.4463	0.170689	-403.11087	-403.102243	-403.101299	-403.143465	34.09	
C	-0.0461997667	 1.4441986893	 0.0075868547	-0.523034
C	-0.0480955362	-0.0442142219	-0.0220913778	 0.336048
C	-0.0498094841	-0.9164503212	-1.038955817	-0.206906
C	-0.0010299075	-2.2674997334	-0.3262910173	-0.105645
N	 1.0505347894	-1.9584039414	 0.7262880804	-0.337439
C	-0.0107288032	-0.9773408595	 1.2114823137	 0.174039
C	 0.0998212935	-0.3994291419	 2.5983318764	-0.521372
C	-1.089611836	-2.0513566747	 0.7834579722	 0.124606
O	-2.4064554056	-1.7151854076	 0.4863547869	-0.4335
H	 0.8568867504	 1.8290832746	 0.497808821	 0.137571
H	-0.0844833698	 1.8607127498	-1.0028202752	 0.127906
H	-0.8991449998	 1.8411935689	 0.5723917617	 0.129281
H	-0.047486143	-0.7388312388	-2.105114667	 0.103242
H	 0.1010947806	-3.1814295834	-0.9101435079	 0.066032
H	 1.0618970478	-2.7417968837	 1.3891999099	 0.203039
H	 1.0085328646	 0.201751369	 2.7073824567	 0.128935
H	-0.7615253004	 0.2386379102	 2.8218558012	 0.127792
H	 0.1278038999	-1.1928357267	 3.3523083331	 0.117523
H	-1.1307397048	-2.8817344863	 1.4964491588	 0.081492
H	-2.3638455893	-1.0207596714	-0.1859312042	 0.270391
138.4358	170.5912	177.9021	215.0859	230.7863	298.2258	369.9607	379.0593	496.885	550.0801	573.1097	603.2614	641.4979	666.2793	794.8723	800.3497	824.232	840.3681	886.4513	910.2368	953.3354	1001.2266	1057.8225	1070.022	1092.7082	1110.2113	1135.7136	1179.3317	1203.3311	1213.8342	1254.1289	1259.7962	1274.1684	1323.2033	1370.1015	1408.5618	1416.9527	1443.5107	1475.3573	1478.7162	1491.1341	1495.2145	1680.6666	3017.9357	3032.6489	3064.2208	3066.0691	3100.3468	3103.3793	3108.868	3128.9619	3230.2182	3376.2001	3738.2399
CC1=CC2NC1(C)C2O	CC1=C[C@H]2N[C@]1(C)[C@H]2O	
InChI=1S/C7H11NO/c1-4-3-5-6(9)7(4,2)8-5/h3,5-6,8-9H,1-2H3	InChI=1S/C7H11NO/c1-4-3-5-6(9)7(4,2)8-5/h3,5-6,8-9H,1-2H3/t5-,6+,7+/m1/s1
