18
gdb 14378	3.84016	2.29011	1.9408	1.8262	71.27	-0.2452	0.0802	0.3254	760.6954	0.156913	-347.73793	-347.732071	-347.731127	-347.767458	25.057	
C	 0.0709941306	 1.5261855835	 0.1590577117	-0.222634
O	 1.4859455373	 1.3993342273	-0.2069361261	-0.315558
C	 1.1636926452	 0.1218875821	-0.8404654712	 0.162067
C	 1.8150562627	-1.2722371788	-0.6810583848	-0.281369
C	 0.6262254822	-1.9195237355	 0.1037394423	-0.018216
C	 0.4779592875	-0.8679419681	 1.2299477306	-0.233589
C	-0.0508536309	-0.0046434579	 0.057531715	 0.287091
C	-0.7134707396	-1.2958642396	-0.4869250697	-0.332338
H	-0.0583807195	 1.9862973777	 1.1427407712	 0.109332
H	-0.4804682584	 2.0943378488	-0.6018858705	 0.101234
H	 0.9147813931	 0.3221812298	-1.8923147138	 0.068868
H	 2.0289040304	-1.7361436374	-1.6475489398	 0.097035
H	 2.7297745408	-1.282903487	-0.0826789786	 0.11669
H	 0.6847730839	-2.9877539504	 0.3149896553	 0.066919
H	-0.3139457852	-1.1067193798	 1.9447393337	 0.092535
H	 1.3804548958	-0.5366781937	 1.7487087514	 0.102521
H	-0.8952863899	-1.3548123547	-1.5635489575	 0.096531
H	-1.5831420359	-1.6543251663	 0.0682521209	 0.102881
236.4476	307.9725	383.2348	408.1928	503.1639	571.5882	636.6641	736.3071	798.0068	817.2411	858.0732	866.6069	901.7626	917.6344	948.2863	957.0577	985.859	1016.6389	1060.6681	1064.7296	1075.3691	1107.4374	1126.1219	1152.957	1183.0817	1192.897	1216.0295	1230.7825	1258.697	1274.0143	1298.1578	1308.3619	1336.4447	1395.1452	1483.3837	1489.6608	1509.2967	1522.1203	2991.5831	3014.8131	3055.2647	3059.8558	3063.4744	3090.7465	3110.2851	3112.6012	3119.5445	3122.6477
C1OC2CC3CC12C3	C1O[C@H]2C[C@H]3C[C@@]12C3	
InChI=1S/C7H10O/c1-5-2-7(3-5)4-8-6(1)7/h5-6H,1-4H2	InChI=1S/C7H10O/c1-5-2-7(3-5)4-8-6(1)7/h5-6H,1-4H2/t5-,6-,7+/m0/s1
