27
gdb 57537	3.31475	0.70386	0.68893	0.0972	96.51	-0.2686	0.0766	0.3452	1859.6883	0.25022	-353.558682	-353.547499	-353.546555	-353.595342	42.4	
C	 0.0324882311	 1.574239443	 0.2015300947	-0.39957
C	 0.0159513891	 0.0426170943	 0.0406612364	 0.26337
C	 0.544609299	-0.6161866107	 1.3285796779	-0.39943
C	-1.437007188	-0.414882348	-0.1892943881	-0.401494
C	 0.8523963746	-0.3931971457	-1.1891728876	-0.172591
C	 2.3496383308	-0.0493029012	-1.1773566149	-0.23033
C	 3.062255211	-0.5353895978	-2.4235102878	 0.044051
C	 3.0722434735	 0.3038785139	-3.6771535695	-0.2545
C	 4.341901375	 0.1151609253	-2.8815207997	-0.27985
H	 1.036743206	 1.9523781016	 0.4161463954	 0.110746
H	-0.3272414541	 2.0713256861	-0.7065217545	 0.10569
H	-0.6168401491	 1.8831467207	 1.0282822075	 0.106271
H	-0.100360402	-0.3725025075	 2.1800060209	 0.10585
H	 0.5696538412	-1.7076733977	 1.2329043485	 0.105584
H	 1.5553138333	-0.2783907535	 1.5772422515	 0.111306
H	-1.856475957	 0.038240308	-1.0944874928	 0.106288
H	-1.496885177	-1.5030903581	-0.302410004	 0.105983
H	-2.0771959383	-0.131157579	 0.6535295473	 0.10473
H	 0.7473661442	-1.481053347	-1.3064467211	 0.083833
H	 0.4033020365	 0.0487611662	-2.0889140954	 0.089766
H	 2.488554347	 1.0358538657	-1.0940684312	 0.090784
H	 2.8315265989	-0.4887616871	-0.2949305664	 0.096285
H	 2.9993768421	-1.6101025051	-2.5808157392	 0.077494
H	 2.9873781323	-0.1910455912	-4.6384179173	 0.107788
H	 2.5916617232	 1.2765522044	-3.6373786739	 0.106972
H	 4.7110643911	 0.9609203676	-2.3100003665	 0.107291
H	 5.1234319356	-0.5108714371	-3.29818471	 0.107683
36.963	68.2068	118.8574	135.0517	224.0333	240.7501	264.3152	272.2409	294.4042	333.6614	366.0527	380.4754	418.1003	462.236	488.5908	742.4902	761.3654	779.0008	820.7105	839.0163	899.2696	923.8977	933.317	940.7657	957.1129	960.2075	993.9799	1029.5687	1048.0532	1064.7295	1075.8914	1082.7419	1126.1976	1141.621	1199.2072	1214.5694	1229.2401	1234.0949	1270.0711	1282.0515	1305.3321	1343.2446	1381.8113	1398.3624	1399.7208	1415.9926	1431.9554	1469.1919	1475.6923	1480.8143	1486.6655	1487.3746	1495.4756	1507.6808	1509.475	1509.8202	1519.2342	3001.1235	3019.5184	3022.0194	3023.4963	3031.4173	3034.0591	3062.7604	3087.2579	3087.7944	3091.8093	3094.674	3098.4295	3102.7802	3125.9115	3126.5435	3132.045	3203.0202	3218.4144
CC(C)(C)CCC1CC1	CC(C)(C)CCC1CC1	
InChI=1S/C9H18/c1-9(2,3)7-6-8-4-5-8/h8H,4-7H2,1-3H3	InChI=1S/C9H18/c1-9(2,3)7-6-8-4-5-8/h8H,4-7H2,1-3H3
