25
gdb 118870	2.87288	1.0026	0.89706	0.2295	92.55	-0.2481	0.0871	0.3352	1479.2153	0.228562	-352.3374	-352.327605	-352.326661	-352.371835	38.197	
C	 0.0322207968	 1.6279827326	 0.0144876474	-0.377583
C	 0.0660546859	 0.0971671476	-0.0283207369	-0.172076
C	 0.5934822321	-0.5194356613	 1.2749910085	-0.229675
C	 0.7512375674	-2.0456658578	 1.2642101078	 0.343959
C	-0.5913978786	-2.757823426	 1.0772922151	-0.448895
C	 1.8504684971	-2.6560266832	 0.3113562577	-0.28717
C	 2.5209861316	-3.3137031408	 1.5229434281	-0.032875
C	 2.9573927745	-2.2617008282	 2.5012360812	-0.297578
C	 1.5082779291	-2.6605323603	 2.463968844	-0.081048
H	 1.0330138251	 2.0420025151	 0.1813607579	 0.112179
H	-0.3494763128	 2.0468428355	-0.922095946	 0.108555
H	-0.610824351	 1.9867755648	 0.8260383329	 0.112678
H	-0.9419352322	-0.2781291973	-0.2405949141	 0.096888
H	 0.6951149789	-0.2298035253	-0.8667480497	 0.096615
H	 1.5622168562	-0.0596654628	 1.5071020876	 0.087512
H	-0.0752855355	-0.2415111362	 2.1027201747	 0.086376
H	-1.0388983326	-2.5322650947	 0.1041915498	 0.113264
H	-0.4653834438	-3.8436680012	 1.1426979874	 0.111327
H	-1.3050672388	-2.4575124839	 1.8541201835	 0.107235
H	 1.4310674396	-3.3652185077	-0.4063583517	 0.097072
H	 2.4745879407	-1.9398981202	-0.235045971	 0.088132
H	 2.9222728552	-4.3195559121	 1.5486739681	 0.080368
H	 3.5068648433	-2.6250459247	 3.3642671642	 0.107497
H	 3.2875152209	-1.2867583953	 2.1502620999	 0.102953
H	 1.0181934708	-3.0837045766	 3.3345783834	 0.074289
81.3125	94.0107	136.5658	201.6637	243.8468	258.9276	288.1981	321.8462	350.5357	398.9469	435.9952	484.6506	650.6821	745.4275	754.0007	790.3794	829.7261	858.3128	899.2411	907.6109	926.5343	950.7554	976.0497	985.9261	991.7279	1026.6255	1049.1378	1057.2298	1065.1726	1083.8261	1105.4126	1145.7741	1175.623	1193.2385	1219.1849	1250.0761	1274.155	1282.1679	1299.6549	1325.3739	1337.6689	1366.4489	1393.3633	1408.0877	1412.6237	1477.7194	1481.66	1492.8582	1496.4385	1496.6335	1499.8965	1503.7237	1510.9318	3001.598	3022.1435	3023.0101	3027.7751	3034.7498	3039.7285	3062.4572	3086.7726	3095.1274	3098.0252	3099.0589	3101.1985	3107.1629	3159.502	3179.2792	3196.1147
CCCC1(C)CC2CC12	CCC[C@@]1(C)C[C@H]2C[C@@H]12	
InChI=1S/C9H16/c1-3-4-9(2)6-7-5-8(7)9/h7-8H,3-6H2,1-2H3	InChI=1S/C9H16/c1-3-4-9(2)6-7-5-8(7)9/h7-8H,3-6H2,1-2H3/t7-,8-,9+/m1/s1
