18
gdb 68428	2.65249	1.63566	1.26497	4.2845	75.44	-0.2373	0.0234	0.2607	1023.6015	0.150469	-398.110682	-398.102946	-398.102002	-398.142657	30.847	
N	-0.1148942154	 1.4465141761	 0.0080790146	-0.607471
C	-0.0624972044	 0.0171320517	 0.0059602075	 0.320302
C	 0.3510824622	-0.796067667	 1.2713699204	-0.272955
C	-0.383666954	-1.9299655043	 0.5027348971	 0.002992
C	-1.3631511295	-0.8417419663	 0.0048270173	-0.245146
N	 0.43486357	-2.1618594046	-0.7152119737	-0.295765
C	 0.7768646756	-0.7584184615	-1.0779466926	-0.198827
C	 0.3835872201	-0.4071168322	-2.4460548768	 0.302179
N	 0.0620832003	-0.0684062725	-3.5037279943	-0.335676
H	 0.8146209777	 1.8464255761	 0.1060420944	 0.230255
H	-0.4933938254	 1.7905899273	-0.871122464	 0.245529
H	 1.4174225184	-0.9257571235	 1.4846758606	 0.085263
H	-0.1801700398	-0.4448816101	 2.157267943	 0.116041
H	-0.7140755459	-2.8545772297	 0.9717090898	 0.082526
H	-2.0585634976	-0.5035312251	 0.7731200802	 0.114905
H	-1.8718926047	-1.0180027616	-0.9450254835	 0.121641
H	 1.2808130937	-2.6747013989	-0.4870607483	 0.225003
H	 1.8448289784	-0.5351797539	-0.9678302818	 0.109203
120.121	132.6171	230.3551	308.0994	330.6585	401.2845	449.0883	479.2974	520.1959	583.2118	615.0787	699.8084	790.1419	827.4694	855.0565	860.6589	901.8095	914.9093	936.1403	987.3582	995.6702	998.7852	1048.498	1077.911	1117.4126	1145.7554	1184.5005	1200.2688	1226.8379	1235.1492	1296.2787	1325.077	1340.0693	1360.7372	1417.9608	1477.9483	1517.0408	1652.6491	2351.2364	3032.3109	3047.7993	3080.3944	3129.6853	3140.7699	3152.4315	3478.9532	3515.6377	3557.3113
NC12CC(C1)NC2C#N	N[C@@]12C[C@@H](C1)N[C@H]2C#N	
InChI=1S/C6H9N3/c7-3-5-6(8)1-4(2-6)9-5/h4-5,9H,1-2,8H2	InChI=1S/C6H9N3/c7-3-5-6(8)1-4(2-6)9-5/h4-5,9H,1-2,8H2/t4-,5-,6-/m0/s1
