19
gdb 87893	2.6132	1.50288	1.12724	3.5066	82.76	-0.2352	-0.0403	0.1949	1134.7606	0.159734	-385.925329	-385.917077	-385.916133	-385.958076	31.817	
C	-0.0891362748	 1.5060396648	-0.0666488993	-0.415801
C	 0.0253113754	 0.0030956284	 0.0346645703	-0.021461
C	 1.3254568849	-0.6959706235	-0.1961297456	-0.326498
C	 0.7427726743	-0.6563080937	 1.2057350241	 0.21087
C	 1.3641184977	 0.0836254952	 2.3818661542	-0.37223
C	 1.0787060562	-0.8300295921	 3.5502601846	-0.062904
C	 0.4113676085	-1.9364933913	 3.2016454172	-0.173696
C	 0.1496983984	-1.9329228186	 1.7423536083	 0.338082
O	-0.4268345199	-2.7779168321	 1.0894524774	-0.36199
H	 0.8398110838	 2.0043763576	 0.2287382727	 0.115554
H	-0.3074613211	 1.8045859424	-1.0976614148	 0.124967
H	-0.8945749605	 1.8933264998	 0.5672807795	 0.121145
H	-0.8537879236	-0.5529140033	-0.2822318569	 0.108258
H	 1.3109754087	-1.6617424795	-0.6903749713	 0.132295
H	 2.2075370576	-0.0890338001	-0.3780764354	 0.109149
H	 2.4441136427	 0.2433168329	 2.2672332975	 0.12136
H	 0.924553113	 1.0752721542	 2.5502700837	 0.122055
H	 1.3970119648	-0.5801943483	 4.5568304312	 0.114298
H	 0.0901096039	-2.7407043027	 3.8506304727	 0.116549
87.1711	150.1168	192.4436	211.6866	274.9286	310.1114	387.6874	424.414	497.7507	566.0132	679.4725	683.3514	774.8214	784.9648	835.6993	874.9346	913.7499	924.6389	963.0134	984.3992	1009.3237	1033.1617	1052.6125	1079.5274	1104.2636	1132.1411	1159.0897	1181.7226	1198.1445	1247.002	1292.5861	1335.9055	1364.2826	1405.1143	1426.3926	1470.5806	1477.2806	1492.764	1503.5315	1646.8634	1796.4188	3020.0345	3029.3511	3045.7063	3091.0242	3098.4501	3121.4797	3144.6333	3189.738	3215.5204	3229.1839
CC1CC11CC=CC1=O	C[C@H]1C[C@]21CC=CC2=O	
InChI=1S/C8H10O/c1-6-5-8(6)4-2-3-7(8)9/h2-3,6H,4-5H2,1H3	InChI=1S/C8H10O/c1-6-5-8(6)4-2-3-7(8)9/h2-3,6H,4-5H2,1H3/t6-,8-/m0/s1
