22
gdb 115940	3.57663	1.05341	0.89672	2.5231	81.69	-0.2158	0.0734	0.2891	1344.0956	0.196242	-404.325164	-404.31647	-404.315526	-404.35846	33.839	
O	-0.0191057825	 1.4417206568	 0.0481064497	-0.424681
C	 0.0341442533	 0.0224850623	 0.0205537416	-0.099367
C	-1.3931791565	-0.5113257177	-0.0340538845	 0.056625
C	-2.1355737539	-0.0794374127	-1.3035299968	-0.21703
C	-3.6079666462	-0.5054510501	-1.2184846556	-0.158137
N	-3.8613726893	-1.8975546575	-0.8374229016	-0.085135
C	-3.2107620078	-2.9636954305	-1.5854057056	-0.243316
C	-2.7860972758	-2.658865918	-0.1869321149	-0.01056
C	-1.408869499	-2.0452974417	 0.0812828252	-0.251857
H	 0.8811286751	 1.7784713629	 0.0343669476	 0.287009
H	 0.5945581417	-0.3377094631	-0.8587973568	 0.080905
H	 0.5418465552	-0.3719938366	 0.9161282649	 0.082009
H	-1.9272143372	-0.0869901936	 0.8282403073	 0.082217
H	-2.0782598841	 1.0061076209	-1.4221142583	 0.115698
H	-1.6463601819	-0.5204381185	-2.1835694616	 0.086648
H	-4.1038363145	 0.1186748776	-0.4635085847	 0.10462
H	-4.123503486	-0.3218923799	-2.1678540392	 0.099338
H	-3.8342938211	-3.826619329	-1.8082894731	 0.107258
H	-2.507876201	-2.703284368	-2.3759544039	 0.101189
H	-3.1525721267	-3.3106147528	 0.6035906733	 0.08722
H	-0.6759477618	-2.4613159751	-0.6231628616	 0.099018
H	-1.0750364902	-2.3450280757	 1.0802599687	 0.100331
82.8392	129.0568	179.508	227.3291	255.4854	319.024	337.7924	404.8574	429.3717	487.0862	520.476	641.0682	728.1527	784.3107	825.6054	879.4193	915.0222	934.5786	960.8295	970.8254	1035.6076	1044.119	1075.1607	1090.0857	1114.5733	1119.6948	1136.5573	1153.9932	1167.571	1200.6061	1229.5169	1248.8531	1280.2018	1299.9363	1312.8453	1331.706	1347.7712	1369.6895	1379.4091	1403.0451	1407.7133	1457.2324	1487.38	1490.4167	1492.4911	1516.6539	1520.1541	2953.0027	2980.4184	3003.6468	3009.1141	3017.2679	3022.6163	3063.6595	3065.2586	3086.0686	3093.5902	3117.757	3166.6529	3835.5523
OCC1CCN2CC2C1	OC[C@H]1CCN2C[C@H]2C1	
InChI=1S/C7H13NO/c9-5-6-1-2-8-4-7(8)3-6/h6-7,9H,1-5H2	InChI=1S/C7H13NO/c9-5-6-1-2-8-4-7(8)3-6/h6-7,9H,1-5H2/t6-,7+,8?/m0/s1
