20
gdb 6798	3.615	1.21131	0.97536	2.8149	68.97	-0.2393	0.0634	0.3027	1234.8453	0.175131	-423.26265	-423.252951	-423.252007	-423.298348	34.524	
C	 0.2026532169	 1.1043156437	 0.3176047922	-0.411189
C	-0.2003915629	-0.2775089364	-0.1906959433	 0.122624
O	 0.5175840601	-1.3101427182	 0.4944302515	-0.418999
C	-1.7116361693	-0.5054102161	-0.1081770266	-0.072663
O	-2.0496429203	-1.6959841007	-0.7821227891	-0.257262
C	-2.8948753625	-2.6279988488	-0.1206458475	-0.081628
C	-2.1132221613	-3.9069450131	 0.1602845644	-0.051894
O	-1.0270970583	-3.6818252022	 1.0298820493	-0.444547
H	 1.2882421331	 1.2209404724	 0.2722935094	 0.133559
H	-0.2570358123	 1.8960555505	-0.2817599417	 0.126161
H	-0.1140520809	 1.2478101428	 1.3585933557	 0.112628
H	 0.0974216713	-0.3912105524	-1.2386011679	 0.106813
H	 0.3962895883	-1.176877665	 1.4424945244	 0.286222
H	-2.0145170064	-0.545193894	 0.9494146245	 0.087932
H	-2.2331569654	 0.3496251102	-0.5674040626	 0.0921
H	-3.269179937	-2.2090916373	 0.823026352	 0.095589
H	-3.758553132	-2.8409492339	-0.7664110557	 0.093224
H	-2.774569891	-4.6373400933	 0.6423049992	 0.095904
H	-1.7856163674	-4.3392826954	-0.7990652129	 0.089583
H	-0.4448848624	-3.0327368329	 0.6029152747	 0.295843
18.4214	90.0763	109.639	166.3812	219.3364	239.3367	287.8144	332.0411	349.8634	425.2082	474.7651	486.1934	531.9837	688.0646	836.8137	853.3189	887.9774	923.783	933.6157	1005.2328	1075.2308	1090.254	1107.9764	1130.2052	1169.7356	1178.9389	1244.0498	1262.3748	1289.2373	1319.8409	1340.5155	1389.8852	1401.7789	1406.3062	1419.9739	1426.3791	1458.5904	1480.6578	1491.553	1494.9979	1496.3734	1507.3589	2968.2844	2976.1507	2998.2232	3009.765	3026.5973	3046.0528	3058.6859	3064.4251	3099.3436	3125.4549	3672.2023	3786.2506
CC(O)COCCO	C[C@@H](O)COCCO	
InChI=1S/C5H12O3/c1-5(7)4-8-3-2-6/h5-7H,2-4H2,1H3	InChI=1S/C5H12O3/c1-5(7)4-8-3-2-6/h5-7H,2-4H2,1H3/t5-/m1/s1
