17
gdb 34917	2.78439	1.71686	1.3509	4.2445	74.28	-0.2446	0.024	0.2686	968.9063	0.138335	-380.840789	-380.833704	-380.83276	-380.872278	28.228	
N	 0.0351854125	-1.1747984523	 0.048450301	-0.333807
C	 0.0156643447	-0.0194690653	 0.0281807511	 0.29921
C	-0.0100358641	 1.447649165	 0.0286063792	-0.154503
C	-0.7540327939	 2.0469382389	 1.2370783557	-0.042278
C	-0.2895128161	 1.7105876846	 2.6276706787	-0.306736
C	 0.2368713938	 2.9484525134	 1.9444454847	-0.04024
C	 1.5263594596	 2.8908054276	 1.1567541242	-0.02357
C	 2.2887524626	 1.6232990199	 1.0365234632	-0.256266
N	 1.3624715852	 2.0245188544	-0.0372666231	-0.103288
H	-0.5245550037	 1.7660309931	-0.8849514096	 0.136878
H	-1.7871665981	 2.3343257797	 1.0802956241	 0.105492
H	-1.0086832164	 1.859581518	 3.4260668305	 0.124236
H	 0.3579626804	 0.8562476192	 2.78391747	 0.135129
H	-0.0639967717	 3.9185809703	 2.3211668933	 0.098988
H	 2.0284776175	 3.8387047804	 0.985605128	 0.100734
H	 3.3340211006	 1.6436613597	 0.7407525327	 0.125949
H	 2.029275017	 0.7834389531	 1.6721788464	 0.134074
107.4259	143.9331	277.7056	299.5963	409.732	480.1086	518.1435	557.6559	678.1245	683.7528	737.0755	798.2178	822.3679	835.7675	847.7107	932.4249	986.7368	997.669	1023.6972	1037.5682	1053.638	1073.7787	1097.1713	1106.1527	1114.8208	1124.3851	1158.8739	1205.3864	1260.1445	1295.2609	1330.2148	1342.7238	1374.0527	1394.9341	1487.3749	1521.063	2357.4387	3047.1736	3120.342	3141.5364	3148.4144	3175.3836	3186.6048	3204.7632	3225.0291
N#CC1C2CC2C2CN12	N#C[C@H]1[C@H]2C[C@H]2[C@H]2CN12	
InChI=1S/C7H8N2/c8-2-6-4-1-5(4)7-3-9(6)7/h4-7H,1,3H2	InChI=1S/C7H8N2/c8-2-6-4-1-5(4)7-3-9(6)7/h4-7H,1,3H2/t4-,5+,6-,7+,9?/m0/s1
