21
gdb 38126	2.65451	1.99721	1.77432	0.209	85.04	-0.2283	0.02	0.2482	914.1138	0.187801	-349.96244	-349.956073	-349.955128	-349.992585	28.422	
C	-0.0276775578	 1.5444450487	 0.0423547283	-0.235163
C	 1.5342036193	 1.4668878824	 0.0067716922	-0.074067
C	 1.9728040594	 1.2375488501	 1.4359340783	-0.065318
C	 1.4019077626	 0.2246664784	 2.088997979	-0.072067
C	 0.4903230102	-0.7003166834	 1.3061270252	-0.067706
C	 1.3643033023	-1.8438843291	 0.7270957292	-0.193417
C	 2.211342851	-1.1340518738	-0.3660876066	-0.237054
C	 1.3597137392	 0.0897563477	-0.7502416762	 0.015821
C	-0.000118508	 0.0013817853	 0.0046136917	-0.022673
H	-0.4832021614	 2.0523265296	 0.8959222984	 0.090415
H	-0.4393712022	 1.9422581884	-0.8901881392	 0.091158
H	 2.0888851656	 2.2616449299	-0.4947666528	 0.054787
H	 2.6761344946	 1.9174524234	 1.9066456956	 0.082435
H	 1.6228887367	-0.0060172206	 3.127035545	 0.083428
H	-0.3295839901	-1.0763859946	 1.9259262441	 0.060574
H	 1.9729131947	-2.3431146694	 1.4872918669	 0.090915
H	 0.7171770917	-2.6039929369	 0.2720450682	 0.090348
H	 3.1875277203	-0.8350953196	 0.0264388707	 0.101223
H	 2.394707693	-1.7888214719	-1.2227366233	 0.09004
H	 1.2665976823	 0.2518733596	-1.8263252809	 0.061936
H	-0.8419797533	-0.5312500442	-0.4460950839	 0.054384
229.8799	294.6568	347.5421	390.6238	456.4498	559.2178	627.8538	663.4072	680.7559	733.8118	764.5395	818.3709	847.0941	865.4566	896.3191	907.3708	924.9074	957.98	964.769	977.8015	984.5373	1036.4948	1046.0824	1063.086	1082.9933	1101.7444	1125.6947	1157.8182	1173.6461	1192.4591	1216.8771	1245.4972	1253.571	1270.1689	1292.6281	1309.3005	1318.5285	1332.0307	1348.3599	1362.9456	1398.9411	1482.4178	1489.9475	1497.0261	1692.0519	3026.3108	3047.1247	3053.6408	3056.2284	3067.8455	3076.7607	3082.3412	3092.2693	3099.3415	3107.0645	3158.9259	3183.5234
C1C2C=CC3CCC2C13	C1[C@H]2C=C[C@@H]3CC[C@H]2[C@H]13	
InChI=1S/C9H12/c1-2-7-5-9-6(1)3-4-8(7)9/h1-2,6-9H,3-5H2	InChI=1S/C9H12/c1-2-7-5-9-6(1)3-4-8(7)9/h1-2,6-9H,3-5H2/t6-,7-,8-,9-/m1/s1
