15
gdb 18214	4.49186	1.68066	1.33048	3.1189	69.14	-0.2351	-0.0643	0.1708	896.498	0.119771	-362.652075	-362.645458	-362.644514	-362.682976	25.029	
O	-0.0447740995	-0.0284365318	 0.0132578509	-0.265851
C	 0.014215417	 1.1803854733	 0.0542726075	 0.062943
C	 1.2649183663	 1.9421572956	 0.0322461353	 0.264011
C	 1.3664200649	 3.2804458618	 0.0498793476	-0.18207
C	 2.8109709392	 3.7011243416	-0.0573315047	-0.203217
N	 3.6027384603	 2.4509844603	-0.0851592112	-0.10697
C	 3.5038303293	 1.6475378485	 1.1371834431	-0.232744
C	 2.6255479328	 1.3310432904	-0.0230537558	-0.132561
H	-0.9063876713	 1.8029221206	 0.1035226254	 0.072203
H	 0.5378304965	 3.9752951604	 0.136190154	 0.118562
H	 2.9900152431	 4.2672040126	-0.9818996331	 0.128899
H	 3.1300809891	 4.3466061815	 0.7711911383	 0.126363
H	 4.377862423	 1.0355599526	 1.3406485228	 0.124214
H	 3.0305358157	 2.0827706081	 2.0155011528	 0.111218
H	 2.8001672735	 0.4564723747	-0.6402694627	 0.114999
110.6298	178.9932	241.1248	312.0839	397.2366	484.4058	579.4693	697.8859	717.3696	765.1869	822.2986	843.352	876.9129	939.2467	996.0086	1026.2432	1037.7072	1051.3525	1089.3324	1112.2578	1154.688	1202.8134	1212.1212	1255.8412	1284.3057	1341.7381	1390.6639	1422.3646	1476.8945	1499.4068	1668.5448	1785.5827	2886.6478	3010.2315	3044.5744	3097.6224	3172.7264	3190.7202	3196.5984
O=CC1=CCN2CC12	O=CC1=CCN2C[C@@H]12	
InChI=1S/C6H7NO/c8-4-5-1-2-7-3-6(5)7/h1,4,6H,2-3H2	InChI=1S/C6H7NO/c8-4-5-1-2-7-3-6(5)7/h1,4,6H,2-3H2/t6-,7?/m0/s1
