16
gdb 51914	5.22695	0.55928	0.5316	3.9561	76.42	-0.2447	-0.0229	0.2218	1983.0157	0.119713	-437.839741	-437.829748	-437.828804	-437.877016	33.503	
O	 1.2766247673	 0.5015017634	 0.9752415585	-0.236763
C	 0.615781083	 1.1925802722	 0.2460414449	 0.1563
C	 1.2014163468	 2.0609299832	-0.8614295867	-0.23767
N	 0.3175007917	 3.1631151339	-1.1640462701	-0.223572
C	 0.8006327124	 4.3240398111	-1.1281889035	 0.142042
O	 0.0152964996	 5.3915204144	-1.3792988591	-0.193182
C	 0.6621129736	 6.6681282807	-1.3224056745	-0.235073
C	 1.578084715	 6.9003401555	-2.4343608736	 0.310245
C	 2.3372048392	 7.0820598378	-3.347260765	-0.44409
H	-0.4928959377	 1.2403518131	 0.3140180659	 0.095839
H	 2.2275004513	 2.3454316171	-0.5806974556	 0.113464
H	 1.2756089925	 1.4101166388	-1.747085418	 0.139614
H	 1.8491272424	 4.5662679993	-0.9014859323	 0.094917
H	-0.1535113211	 7.3956080776	-1.3387460384	 0.160754
H	 1.1882775484	 6.7833010735	-0.365097799	 0.142952
H	 3.0043619955	 7.2477923584	-4.1573834536	 0.214221
29.3761	44.7983	62.5991	116.4985	172.9986	204.1472	265.2231	320.3906	361.4939	415.7907	442.8512	555.3172	632.423	663.8888	695.6912	747.7921	937.0781	981.1484	1003.9879	1029.9308	1045.05	1088.6255	1121.103	1198.7905	1236.345	1298.8453	1327.1785	1390.7558	1403.4709	1424.3092	1458.9566	1484.7052	1774.9819	1838.9951	2241.4082	2903.5361	2975.7712	3011.702	3017.3488	3021.8284	3098.316	3502.3492
O=CCN=COCC#C	O=CCN=COCC#C	
InChI=1S/C6H7NO2/c1-2-5-9-6-7-3-4-8/h1,4,6H,3,5H2	InChI=1S/C6H7NO2/c1-2-5-9-6-7-3-4-8/h1,4,6H,3,5H2
