17
gdb 45881	2.22731	1.96673	1.26145	3.9098	72.53	-0.2456	-0.0261	0.2195	1004.9143	0.136448	-421.822339	-421.814759	-421.813815	-421.854579	29.155	
O	-0.1853880499	-0.0190051475	 0.406616322	-0.287314
C	-0.0530690412	 1.1402776368	 0.1057873918	 0.333393
C	-1.2248893304	 2.0669751238	-0.1921192684	-0.351154
C	-1.4298307338	 3.1691866157	 0.8296323451	-0.040066
C	-0.6639895749	 3.5162909483	 1.8659806238	-0.066693
C	 0.6466480501	 2.88004196	 2.2934848565	-0.306959
C	 1.6307717065	 2.7355381758	 1.1447418881	 0.067075
O	 2.2807980034	 1.4661801492	 0.983834601	-0.242857
C	 1.2914791866	 1.8357082301	 0.037364868	-0.041428
H	-1.0714416612	 2.528528429	-1.1799726273	 0.126042
H	-2.1306591842	 1.4551629064	-0.2659948699	 0.13536
H	-2.3506595421	 3.727964251	 0.6757105853	 0.100758
H	-1.0167460397	 4.3341427153	 2.4888768935	 0.096646
H	 1.0974053106	 3.4656200838	 3.0995005271	 0.109963
H	 0.4696925214	 1.8775813726	 2.702033545	 0.151638
H	 2.2657239872	 3.5954580173	 0.9352202344	 0.102328
H	 1.6484237017	 2.0613876424	-0.9697110158	 0.11327
83.0227	123.02	218.2967	298.2419	360.4057	397.1482	431.9655	472.2902	576.2656	643.7537	686.3262	739.4643	828.2888	843.3853	886.7898	909.4563	933.0353	985.5067	998.4791	1012.7181	1051.8229	1086.5772	1114.456	1126.775	1210.8756	1229.1565	1247.7446	1274.5757	1332.8595	1343.711	1371.1806	1410.6499	1454.6461	1464.8308	1486.1691	1716.5998	1829.2666	2996.7712	3039.9678	3070.7565	3086.2859	3088.9119	3123.3868	3141.1909	3166.8283
O=C1CC=CCC2OC12	O=C1CC=CC[C@H]2O[C@@H]12	
InChI=1S/C7H8O2/c8-5-3-1-2-4-6-7(5)9-6/h1-2,6-7H,3-4H2	InChI=1S/C7H8O2/c8-5-3-1-2-4-6-7(5)9-6/h1-2,6-7H,3-4H2/t6-,7+/m1/s1
