16
gdb 103034	2.42987	1.77961	1.2043	4.4331	69.58	-0.2652	0.0135	0.2787	1025.9893	0.122758	-437.806164	-437.797986	-437.797041	-437.83905	30.161	
C	 0.0385747929	 1.4147621146	 0.0930379827	-0.272051
O	-0.1535847375	 0.0167538043	-0.1054510022	-0.292054
C	 0.5906779798	-0.5383684286	-1.1359291404	 0.312031
C	 0.2568653028	 0.0400923849	-2.4468025412	 0.256453
N	-0.0573374776	 0.5682911071	-3.4253499276	-0.345086
C	 2.1133626909	-0.9022920239	-0.942615651	-0.010958
C	 1.7039766101	-1.955630593	 0.1122923415	-0.2449
C	 0.7638641693	-2.0845772654	-1.1085176058	-0.002024
O	 1.930095203	-1.9144433721	-1.9990306834	-0.294498
H	 1.081961114	 1.6416548373	 0.3497485564	 0.118637
H	-0.2450059374	 1.9868493193	-0.7982351918	 0.148139
H	-0.6062554569	 1.6976059764	 0.9260676142	 0.143211
H	 2.9896935255	-0.2587912562	-1.0062885657	 0.114781
H	 2.4113559839	-2.7770425915	 0.22074968	 0.122119
H	 1.2777224568	-1.6102024026	 1.0532563144	 0.126328
H	 0.0292197604	-2.8457115505	-1.3661593102	 0.119873
87.5051	156.4812	162.1559	175.8884	221.0133	332.5299	417.0647	477.7996	499.8781	541.4465	631.7153	662.025	783.2754	828.9734	889.0282	919.142	959.5799	1008.2986	1024.6295	1051.1946	1100.2723	1136.6198	1164.4256	1173.4873	1182.5618	1203.3236	1210.0357	1236.7525	1275.031	1284.7897	1472.7768	1483.6228	1489.3318	1505.0367	2354.556	3008.8549	3076.3811	3096.6068	3135.5437	3142.5269	3143.6168	3178.6074
COC1(C#N)C2CC1O2	CO[C@@]1(C#N)[C@H]2C[C@@H]1O2	
InChI=1S/C6H7NO2/c1-8-6(3-7)4-2-5(6)9-4/h4-5H,2H2,1H3	InChI=1S/C6H7NO2/c1-8-6(3-7)4-2-5(6)9-4/h4-5H,2H2,1H3/t4-,5+,6+
