19
gdb 118593	1.68448	1.40799	0.77815	2.721	78.53	-0.2449	-0.0097	0.2352	1471.515	0.156892	-456.374028	-456.363436	-456.362491	-456.411402	35.803	
C	-0.0584045832	 1.495403742	 0.0361116328	-0.389189
C	-0.0321252593	-0.0197303325	 0.096367165	-0.031159
O	 0.6061988723	-0.4790768153	-1.1077825156	-0.232118
C	 0.7311681252	-1.7982887246	-1.2476772411	 0.519504
N	 1.3675948757	-2.1402210448	-2.4522100856	-0.388235
C	 1.8769760461	-1.3468971758	-3.4690988302	 0.161728
O	 1.8812300544	-0.147740343	-3.5359541314	-0.271226
N	 0.3159625922	-2.6297699814	-0.3831313864	-0.34517
C	 0.4903177247	-4.0505265507	-0.6069609813	-0.344524
H	 0.9551471567	 1.9005766074	-0.0256364315	 0.134298
H	-0.6184343952	 1.8410806325	-0.836909591	 0.134026
H	-0.5375981785	 1.8917670686	 0.9363393842	 0.117787
H	 0.5288417028	-0.3906734004	 0.9600898332	 0.118971
H	-1.0371612604	-0.4499149037	 0.1526287701	 0.118929
H	 1.4714175619	-3.1324909781	-2.59636619	 0.25912
H	 2.305275278	-1.9987711557	-4.2587971986	 0.078807
H	 0.0806753925	-4.5996559619	 0.244319333	 0.133958
H	-0.0375924924	-4.4106755409	-1.5048751384	 0.112375
H	 1.5486786565	-4.3438374519	-0.6989307373	 0.112118
22.6039	66.0452	119.3446	122.7448	135.8962	200.5165	235.1528	242.2322	272.7705	282.8409	369.165	462.5253	587.6991	617.8969	732.4575	809.1085	810.5407	830.6792	959.5714	1027.2279	1067.0828	1088.6777	1116.0857	1132.4207	1147.4986	1183.9438	1207.8808	1286.0904	1336.8328	1402.7248	1423.3374	1439.8154	1460.6672	1477.4496	1484.0632	1496.0469	1512.5559	1520.8696	1524.9144	1748.8238	1848.3731	2915.5491	2959.7702	3005.0588	3048.2132	3049.731	3087.7407	3100.1544	3122.2921	3130.0148	3635.9013
CCOC(NC=O)=NC	CCOC(=NC)NC=O	
InChI=1S/C5H10N2O2/c1-3-9-5(6-2)7-4-8/h4H,3H2,1-2H3,(H,6,7,8)	InChI=1S/C5H10N2O2/c1-3-9-5(6-2)7-4-8/h4H,3H2,1-2H3,(H,6,7,8)
