17
gdb 43926	3.63222	1.55644	1.35607	3.3035	73.66	-0.2365	0.016	0.2525	962.2787	0.138892	-417.930624	-417.924162	-417.923218	-417.961252	27.243	
N	-0.0191665403	 1.2410286573	-0.4778534282	-0.543785
C	-0.0049227903	 0.0634970815	-0.0611613044	 0.346636
O	 1.0921899402	-0.7721423253	 0.2745477828	-0.333006
C	 0.1707160371	-1.6478124652	 0.9833055233	 0.411763
C	-0.2784693987	-3.1116481808	 1.1801449802	-0.327326
C	-1.3643964485	-2.2952327402	 2.0443732981	-0.009936
C	-0.193931483	-1.3748676849	 2.455777269	-0.25537
N	-2.1043453768	-1.3437316489	 1.1460339598	-0.337988
C	-0.9971598437	-1.0757300955	 0.2153887064	-0.059631
H	 0.9253475535	 1.621209267	-0.562774512	 0.234784
H	-0.6050649245	-3.6687217818	 0.2995887871	 0.104541
H	 0.344150302	-3.7262473132	 1.8319225382	 0.114148
H	-1.9923828606	-2.807349369	 2.7704459324	 0.091901
H	 0.5074895244	-1.8332791349	 3.1543134929	 0.1062
H	-0.4545886394	-0.356137107	 2.7450798671	 0.121972
H	-2.8744892095	-1.7949880939	 0.6640365003	 0.225969
H	-1.1292916318	-1.5837657352	-0.7478375132	 0.109128
133.8089	267.0776	371.8288	437.9158	468.0347	490.1474	559.6767	606.1565	664.1207	738.5411	760.4539	822.3416	849.9	868.6312	877.4311	892.0428	935.2778	947.8831	982.8866	1002.5552	1028.0312	1068.5155	1085.5135	1107.0596	1143.1465	1151.0436	1190.7636	1213.9179	1229.2111	1255.1325	1276.2056	1296.0823	1370.947	1425.6361	1478.9092	1515.6577	1829.4699	3022.7471	3072.494	3082.9627	3143.0685	3147.528	3153.2353	3473.4529	3529.0584
N=C1OC23CC(C2)NC13	[NH][C]1O[C@@]23C[C@@H](C2)N[C@@H]13	
InChI=1S/C6H8N2O/c7-5-4-6(9-5)1-3(2-6)8-4/h3-4,7-8H,1-2H2	InChI=1S/C6H8N2O/c7-5-4-6(9-5)1-3(2-6)8-4/h3-4,7-8H,1-2H2/t3-,4-,6-/m0/s1
