20
gdb 93788	2.41876	1.45465	1.05496	3.9058	75.6	-0.2439	0.012	0.2559	1197.7961	0.172223	-440.329704	-440.320777	-440.319833	-440.363569	33.789	
C	-0.0987987513	 1.5000925279	 0.1317298945	-0.396774
C	-0.0915559933	 0.0013079562	-0.1261127987	 0.14857
C	 0.8119111938	-0.4277512606	-1.2738266972	-0.212433
C	 0.8597757013	-1.9514022849	-1.3334016415	-0.223209
C	 1.466590518	-2.4934506829	-0.0362126443	-0.098627
N	 2.9300051397	-2.3416695441	-0.0616311496	-0.520678
C	 1.0016579225	-1.7557881193	 1.2291287595	 0.424783
O	 1.299882973	-2.1715418202	 2.3194680305	-0.342919
O	 0.2881515151	-0.6196819382	 1.1316866515	-0.241851
H	 0.912724878	 1.8570837047	 0.3467045495	 0.131374
H	-0.4776090014	 2.0309851869	-0.7470008042	 0.117846
H	-0.7377214989	 1.7388885412	 0.9855622523	 0.133378
H	-1.1167932613	-0.3373763837	-0.3324255116	 0.089205
H	 0.4227779315	 6.8661*^-6	-2.203394767	 0.102417
H	 1.8230749682	-0.0353027289	-1.1192869755	 0.128042
H	-0.1533071368	-2.3524477581	-1.4626233596	 0.099469
H	 1.4509512538	-2.3016851577	-2.1862554683	 0.098317
H	 1.1480169383	-3.536564981	 0.1170697278	 0.089056
H	 3.2938895582	-2.5946368382	 0.8530308406	 0.245901
H	 3.3232596815	-3.0003145249	-0.7278085087	 0.228134
56.3291	86.743	218.9026	237.9235	273.337	292.1697	317.3237	363.2478	436.2695	470.7559	480.5367	556.0613	638.6281	697.5104	782.8209	847.104	893.0676	910.7662	944.842	969.4399	995.8343	1033.7831	1080.2548	1095.1837	1145.5271	1157.3153	1181.316	1237.151	1253.5319	1269.5953	1334.4584	1359.3642	1377.0468	1391.33	1399.6167	1410.4617	1413.5764	1479.1466	1486.4801	1490.0955	1498.4697	1646.6983	1823.9906	2968.744	3004.4011	3030.4607	3042.8842	3047.6727	3072.8069	3094.9141	3119.2751	3127.7342	3486.6891	3567.7075
CC1CCC(N)C(=O)O1	C[C@H]1CC[C@@H](N)C(=O)O1	
InChI=1S/C6H11NO2/c1-4-2-3-5(7)6(8)9-4/h4-5H,2-3,7H2,1H3	InChI=1S/C6H11NO2/c1-4-2-3-5(7)6(8)9-4/h4-5H,2-3,7H2,1H3/t4-,5+/m0/s1
