16
gdb 97133	2.56734	1.13493	0.8292	3.7591	69.5	-0.2694	-0.0094	0.2599	1345.9178	0.122338	-475.025849	-475.0166	-475.015656	-475.061522	30.81	
C	 0.1176551822	 1.2040342799	 0.0308436072	-0.343313
N	-0.0574787124	-0.2256875043	 0.2498974158	-0.325699
C	-1.1541578375	-0.7638206008	 0.0003744699	 0.456593
O	-2.3542503144	-0.2547512656	-0.4707143033	-0.262776
C	-2.9369346434	-1.5926864611	-0.5557128389	-0.105766
C	-1.6638443159	-2.1958940193	 0.0602222685	-0.050962
O	-1.025306524	-3.1406788	-0.7836778648	-0.195079
C	 0.2201546442	-3.5398085447	-0.4146690202	 0.172903
O	 0.840009554	-4.3287517068	-1.0582730632	-0.26473
H	 0.9905761352	 1.357657669	-0.6114023212	 0.138411
H	-0.7509469647	 1.6942692574	-0.4226453973	 0.132731
H	 0.3351292482	 1.6865207029	 0.9896958536	 0.136637
H	-3.85256422	-1.6639568989	 0.0336879923	 0.132251
H	-3.1072602462	-1.8894394432	-1.5922865557	 0.145476
H	-1.7816623747	-2.5915748707	 1.0733719101	 0.124077
H	 0.5718102295	-3.0589728938	 0.5140850272	 0.109247
45.0664	89.1591	94.222	112.2336	181.2716	188.8052	228.5649	341.7747	391.3021	535.8572	592.1359	730.1384	736.5744	876.2576	946.6134	967.7291	1036.4137	1048.011	1075.7947	1109.3122	1130.3728	1140.3212	1163.29	1167.8883	1192.0236	1250.614	1331.0945	1379.5396	1438.4017	1441.8137	1491.8654	1497.3775	1508.9909	1855.5105	1872.426	3002.0609	3024.1387	3069.07	3079.0085	3093.045	3099.1054	3144.9267
CN=C1OCC1OC=O	CN=C1OC[C@H]1OC=O	
InChI=1S/C5H7NO3/c1-6-5-4(2-8-5)9-3-7/h3-4H,2H2,1H3	InChI=1S/C5H7NO3/c1-6-5-4(2-8-5)9-3-7/h3-4H,2H2,1H3/t4-/m1/s1
