25
gdb 112630	2.94901	0.96779	0.76079	0.136	96.8	-0.2145	0.0391	0.2535	1617.5915	0.228042	-352.395626	-352.385066	-352.384121	-352.431094	39.346	
C	 0.0562812349	 1.5277624786	-0.0442315214	-0.382426
C	 0.0025963799	-0.0011907614	 0.0332941935	-0.186307
C	-1.4146695784	-0.5758865409	-0.0422459433	 0.052477
C	-2.1599937044	-0.3219238703	-1.3774583917	-0.305374
C	-3.0168671975	-1.5570181745	-1.5672289912	 0.227355
C	-4.0755727501	-1.5781665837	-2.6258334931	-0.497853
C	-2.6497718508	-2.5390893393	-0.7322403682	 0.229138
C	-3.1976612576	-3.9284713682	-0.6264024843	-0.497388
C	-1.4902626867	-2.1115194566	 0.1435023397	-0.321448
H	 1.0851012424	 1.8938946387	 0.0306467683	 0.108693
H	-0.3585002246	 1.8966469661	-0.9882223184	 0.117808
H	-0.5189305843	 1.9842930787	 0.7694203282	 0.111571
H	 0.6054086836	-0.4327690282	-0.7778754909	 0.090217
H	 0.4725318331	-0.3321191621	 0.9689043737	 0.090718
H	-2.0115852893	-0.1181390235	 0.7579732785	 0.068072
H	-2.7517028988	 0.6019627701	-1.3628017532	 0.0933
H	-1.4549328019	-0.2138273372	-2.2179545001	 0.093332
H	-3.6431913096	-1.3879131421	-3.6173747415	 0.121247
H	-4.6085967629	-2.530966586	-2.6727804401	 0.119461
H	-4.8173584642	-0.7863264888	-2.4575996592	 0.120771
H	-4.0155773119	-4.115331701	-1.3264380471	 0.119339
H	-2.4154922091	-4.6749656209	-0.8192348434	 0.121365
H	-3.5702899453	-4.1291405808	 0.3867028943	 0.120807
H	-0.5601682282	-2.601901959	-0.1865676244	 0.093295
H	-1.6235873483	-2.3986788977	 1.1945226353	 0.091831
65.2633	101.4478	149.8155	153.4046	175.4239	205.6805	240.8742	283.1778	290.6205	323.0167	407.2746	440.1668	512.6089	567.1413	590.7095	734.102	779.8172	852.6289	911.1119	924.6338	938.1419	956.6673	989.0664	1008.7659	1033.3594	1055.722	1079.1789	1104.0431	1135.1116	1153.5522	1183.2965	1194.958	1229.1217	1236.712	1291.8006	1310.0364	1335.1902	1339.5053	1366.736	1389.0887	1408.0547	1412.0055	1419.5472	1478.0421	1481.8783	1482.6527	1484.1038	1490.1193	1492.769	1496.6097	1500.3505	1507.2407	1744.8026	2975.3689	2978.4681	3002.151	3010.5243	3010.8391	3013.8166	3029.4957	3031.8703	3036.1511	3046.3694	3052.4999	3053.0163	3095.2805	3101.4736	3108.7248	3115.7799
CCC1CC(C)=C(C)C1	CC[C@H]1CC(=C(C)C1)C	
InChI=1S/C9H16/c1-4-9-5-7(2)8(3)6-9/h9H,4-6H2,1-3H3	InChI=1S/C9H16/c1-4-9-5-7(2)8(3)6-9/h9H,4-6H2,1-3H3
