21
gdb 90264	3.36499	1.42313	1.18829	1.3723	82.09	-0.2388	0.0729	0.3117	1103.8782	0.183544	-387.044489	-387.036455	-387.03551	-387.077227	32.211	
O	-0.0644055453	 1.4153077519	-0.1392904335	-0.426371
C	-0.0123471159	 0.0114183289	 0.0012403713	 0.124516
C	 0.3109002198	-0.550211461	 1.4276918735	-0.384935
C	-1.122012555	-1.0864133384	 1.5193496481	 0.404681
C	-1.714571753	-2.336909955	 2.1700728798	-0.332185
C	-3.0545186672	-1.5579657531	 2.368021369	-0.224114
C	-2.3488905886	-0.2219224187	 1.9712722864	-0.057046
C	-2.5868600012	 0.2671800539	 0.5203715222	-0.244995
C	-1.4255610029	-0.644793445	 0.0415124179	-0.095787
H	 0.826082781	 1.7595106482	-0.0188411298	 0.283601
H	 0.6257268492	-0.4303217823	-0.7764674794	 0.064825
H	 1.0762118105	-1.333493744	 1.4071525075	 0.094774
H	 0.5949216379	 0.1968176903	 2.1767507829	 0.091004
H	-1.7399773758	-3.2527090781	 1.570590458	 0.091008
H	-1.2351037085	-2.5692715781	 3.1273829762	 0.097623
H	-3.8470402546	-1.8513479416	 1.6735110758	 0.097523
H	-3.4625570216	-1.5876107457	 3.3807336888	 0.098529
H	-2.2778925104	 0.5239733028	 2.7663095381	 0.055621
H	-3.5697885376	 0.0208461442	 0.1073655794	 0.087093
H	-2.3925194147	 1.3284947397	 0.357886044	 0.119902
H	-1.6266223963	-1.3540099989	-0.7638976961	 0.054734
45.8127	158.585	242.6651	268.3649	288.9777	374.849	396.9634	457.7948	553.5556	631.7871	687.6794	762.6619	777.8845	787.6796	832.0434	869.0844	884.0532	931.2927	935.1534	968.544	1015.1624	1021.255	1031.857	1050.5974	1110.9188	1134.4528	1160.171	1172.916	1195.4018	1206.3863	1216.4832	1228.7522	1237.8035	1252.0909	1277.4597	1280.8267	1290.2421	1308.079	1321.224	1335.8109	1410.4575	1465.2286	1471.8344	1478.884	1491.4817	2992.7149	3032.4381	3034.9976	3051.9179	3055.8957	3073.5856	3079.1779	3084.2334	3085.3083	3111.6341	3123.0321	3820.1799
OC1CC23CCC2CC13	O[C@H]1C[C@@]23CC[C@@H]2C[C@@H]13	
InChI=1S/C8H12O/c9-7-4-8-2-1-5(8)3-6(7)8/h5-7,9H,1-4H2	InChI=1S/C8H12O/c9-7-4-8-2-1-5(8)3-6(7)8/h5-7,9H,1-4H2/t5-,6+,7+,8+/m1/s1
