23
gdb 100302	1.98622	1.33893	1.08122	2.2585	77.12	-0.2498	0.0652	0.315	1275.9372	0.202021	-462.546653	-462.535248	-462.534303	-462.582362	42.062	
C	 0.4044308884	 1.4267783467	 0.5643935378	-0.259442
O	 0.0985610561	 0.0956905708	 0.1834157973	-0.299253
C	 0.5267690459	-0.362863278	-1.1180430769	 0.308172
C	 0.108000645	-1.8350427123	-1.1425543149	-0.431222
C	-0.2450020732	 0.422285384	-2.2003915056	-0.076229
O	-1.6373007621	 0.4099381359	-1.9515461079	-0.434102
C	 2.054976897	-0.1739925315	-1.3133031041	 0.093512
C	 2.9075793169	-0.8837968121	-0.2631030965	-0.419225
O	 2.4384879433	-0.5391608228	-2.6373766831	-0.436556
H	 1.4767921744	 1.5793332607	 0.7420803061	 0.116661
H	 0.0643427642	 2.1700402439	-0.1679584907	 0.120606
H	-0.1249750148	 1.6016303238	 1.5046935232	 0.130706
H	-0.9814464074	-1.902400314	-1.1628991807	 0.137063
H	 0.4867198653	-2.3353642867	-2.0391348829	 0.103626
H	 0.4735435126	-2.3596457996	-0.2573172766	 0.12245
H	 0.1396169429	 1.4532871439	-2.2608129736	 0.08096
H	-0.0732398274	-0.035847175	-3.1764458293	 0.118775
H	-1.7354817577	 0.4875678808	-0.9940488737	 0.286245
H	 2.2643896212	 0.900866581	-1.2693796109	 0.085197
H	 3.9602098468	-0.6216552428	-0.3989671772	 0.123903
H	 2.6010867058	-0.6104578443	 0.7498816492	 0.133326
H	 2.8159625629	-1.9723854999	-0.3506803464	 0.11313
H	 2.4671078337	-1.5006413525	-2.6810940426	 0.281698
89.2404	101.9476	133.0296	173.0571	208.1757	216.1139	242.663	271.2966	281.4354	292.1023	307.1339	342.3612	365.1853	452.5001	456.4566	475.7431	512.395	625.2641	725.8047	863.486	897.6266	920.5509	950.3917	1030.3031	1065.3259	1089.1093	1098.1767	1114.8607	1134.1047	1179.458	1196.6951	1206.4305	1230.8837	1270.7836	1301.4065	1356.5058	1371.3455	1405.4334	1408.0751	1428.7269	1430.9704	1477.3119	1481.9396	1490.2242	1494.0266	1497.5474	1507.5066	1511.5969	1520.509	2971.1242	3004.2109	3038.3459	3046.6809	3051.3984	3060.8712	3106.599	3108.6558	3109.9774	3122.8653	3128.5805	3140.9664	3769.2448	3814.3284
COC(C)(CO)C(C)O	CO[C@@](C)(CO)[C@@H](C)O	
InChI=1S/C6H14O3/c1-5(8)6(2,4-7)9-3/h5,7-8H,4H2,1-3H3	InChI=1S/C6H14O3/c1-5(8)6(2,4-7)9-3/h5,7-8H,4H2,1-3H3/t5-,6+/m1/s1
