15
gdb 127519	3.18495	1.44881	1.00202	2.8053	72.3	-0.2188	-0.0587	0.1601	1108.6773	0.113541	-453.991695	-453.983793	-453.982849	-454.024444	29.332	
C	-0.0230595187	 1.4089635757	-0.0459153026	-0.312328
N	 0.0038067294	-0.0478416823	-0.0213155148	-0.065625
N	-0.0296341835	-0.6656585734	-1.2252750568	-0.325146
C	-0.0069181138	-1.9623512573	-1.2353450921	 0.439718
O	-0.0394329564	-2.6039663734	-2.4257275249	-0.418016
C	 0.0509437547	-2.7629354169	-0.0536768173	-0.165682
C	 0.0836912558	-2.1294655402	 1.1395135041	-0.181903
C	 0.0609183784	-0.6748840652	 1.224549592	 0.420668
O	 0.0872380977	-0.0168663313	 2.2559202252	-0.408692
H	 0.87135237	 1.8087808116	 0.4391202195	 0.151783
H	-0.0671686928	 1.7209468531	-1.0875749892	 0.141298
H	-0.8928299255	 1.7773361176	 0.5044318841	 0.151791
H	-0.0768667945	-1.924938693	-3.1129754651	 0.304845
H	 0.0666840985	-3.8427463567	-0.1482638142	 0.131476
H	 0.1279441806	-2.6603040183	 2.0826877422	 0.135812
66.8386	127.0065	188.4514	310.7262	329.2667	363.4837	402.0021	481.1865	485.1599	537.8648	603.9781	604.1843	720.4952	761.3479	822.7002	870.0955	950.0225	1011.6562	1043.6305	1134.4507	1148.6405	1177.4373	1217.9926	1297.087	1339.1946	1379.1848	1439.7742	1470.8563	1489.35	1503.125	1592.2626	1664.9314	1757.6282	3055.8409	3116.3933	3178.1003	3198.0394	3219.8888	3778.6213
CN1N=C(O)C=CC1=O	Cn1nc(O)ccc1=O	
InChI=1S/C5H6N2O2/c1-7-5(9)3-2-4(8)6-7/h2-3H,1H3,(H,6,8)	InChI=1S/C5H6N2O2/c1-7-5(9)3-2-4(8)6-7/h2-3H,1H3,(H,6,8)
