16
gdb 54057	2.53179	1.14384	0.82577	1.4065	72.15	-0.2589	-0.0491	0.2098	1329.331	0.121324	-437.896573	-437.886978	-437.886034	-437.931853	34.213	
N	-0.2014515282	 1.3410441962	 0.00420094	-0.528144
C	-0.011894996	-0.0025736514	-0.029677625	 0.397645
O	 1.0718094918	-0.5399190493	-0.1426903023	-0.351685
C	-1.3170010565	-0.8379421293	 0.0103767665	-0.20593
C	-0.9968135777	-2.3445690886	 0.0625070505	-0.379753
C	-2.1851833294	-3.1698563269	-0.1143513126	 0.271161
C	-3.1843624657	-3.821801714	-0.2629793815	-0.419574
C	-2.2770492163	-0.4167490872	 1.116135176	 0.155558
O	-2.577342685	 0.7274285058	 1.3634382642	-0.262807
H	 0.6243980494	 1.9136933568	 0.0846848666	 0.261034
H	-1.0837331677	 1.6972614906	 0.3472442518	 0.276652
H	-1.8485321285	-0.61872422	-0.9266699297	 0.153861
H	-0.2518650096	-2.5639460367	-0.7064641961	 0.165657
H	-0.5092885282	-2.5802735839	 1.016192816	 0.14588
H	-4.0540564653	-4.4164879678	-0.3962840248	 0.200301
H	-2.7152320772	-1.2534227944	 1.6964092002	 0.120144
56.3563	65.4487	101.7821	133.9383	244.3273	275.0475	315.5284	342.2967	403.5244	441.5142	503.4406	588.1573	607.4754	631.0323	638.2053	655.0616	729.6633	777.9004	873.8385	960.7218	1013.4935	1067.2071	1086.2282	1147.9315	1197.7472	1209.4527	1302.3173	1339.0128	1348.4405	1428.8138	1466.576	1620.8242	1800.5134	1805.1586	2237.7278	2939.0799	3022.3349	3046.6099	3101.0165	3505.4065	3538.1427	3685.9552
NC(=O)C(CC#C)C=O	NC(=O)[C@@H](CC#C)C=O	
InChI=1S/C6H7NO2/c1-2-3-5(4-8)6(7)9/h1,4-5H,3H2,(H2,7,9)	InChI=1S/C6H7NO2/c1-2-3-5(4-8)6(7)9/h1,4-5H,3H2,(H2,7,9)/t5-/m0/s1
