22
gdb 111407	2.16507	1.43381	1.00448	1.7077	82.22	-0.2291	0.0757	0.3048	1284.6637	0.193521	-404.292397	-404.282817	-404.281872	-404.32704	35.324	
C	-0.0033502597	 1.6037395015	-0.1003883797	-0.380546
C	 0.0325646007	 0.0714002232	-0.1261564442	-0.196076
C	-1.3471398288	-0.5434770344	 0.0575903061	 0.018108
C	-1.5079305671	-2.0708027188	 0.3815598142	 0.0981
O	-0.3679517231	-2.8590800162	 0.6203198141	-0.243958
C	 0.1529751775	-3.4803037587	-0.5357281183	-0.243157
C	-2.2321775008	-1.6417315705	 1.6434416194	-0.063697
C	-1.3916579398	-0.7395484323	 2.4515089226	-0.243215
N	-2.1171383577	-0.1610369433	 1.3061207065	-0.141481
H	 0.9991677457	 2.0225716567	-0.2299698738	 0.109363
H	-0.6383843147	 1.9980404913	-0.9011206595	 0.114863
H	-0.4064195972	 1.9700497427	 0.8481078999	 0.135546
H	 0.4330482871	-0.2728199351	-1.0884976389	 0.096528
H	 0.7245763615	-0.3039088663	 0.6344366035	 0.107338
H	-1.9823850648	-0.2676967427	-0.7906633535	 0.07758
H	-2.1689297302	-2.5705200032	-0.3394835648	 0.06926
H	 1.0010770861	-4.0921855364	-0.2192347535	 0.128928
H	-0.5950994195	-4.1307241248	-1.0149487179	 0.107237
H	 0.5034808402	-2.7516464969	-1.2806285596	 0.109537
H	-3.1562550235	-2.0730796771	 2.0129821748	 0.093398
H	-1.7969053111	-0.4113832135	 3.4036277881	 0.119633
H	-0.3115982809	-0.8408463553	 2.4296131344	 0.126712
87.6859	96.2092	130.6498	139.6023	184.1481	209.1095	280.8735	300.8385	362.3198	475.6188	540.4883	560.7606	725.5222	771.5995	776.1919	812.9289	823.3407	936.9957	959.1715	983.4598	1011.8642	1029.9906	1063.4369	1088.2055	1105.9952	1120.7556	1126.3881	1160.6553	1175.4471	1184.2593	1212.701	1231.5385	1260.3578	1277.4468	1298.8013	1336.8764	1371.9535	1394.9007	1400.2179	1412.3799	1480.4452	1484.2783	1489.2045	1496.6248	1502.1683	1507.3844	1514.0189	2979.0014	3007.9235	3026.1131	3033.0587	3036.8604	3047.773	3075.3807	3104.3114	3115.5809	3116.309	3127.1304	3168.5688	3212.2109
CCC1C(OC)C2CN12	CC[C@H]1[C@@H](OC)[C@H]2CN12	
InChI=1S/C7H13NO/c1-3-5-7(9-2)6-4-8(5)6/h5-7H,3-4H2,1-2H3	InChI=1S/C7H13NO/c1-3-5-7(9-2)6-4-8(5)6/h5-7H,3-4H2,1-2H3/t5-,6+,7+,8?/m0/s1
