18
gdb 69265	2.78594	1.54993	1.14904	3.9313	73.87	-0.2643	0.0003	0.2647	1090.3306	0.148266	-439.088043	-439.07999	-439.079046	-439.120582	30.93	
C	 0.0536802852	 1.5178192777	-0.0665565007	-0.474807
C	-0.0373682311	 0.0155072363	 0.0487767062	 0.392266
C	-1.2179609754	-0.678144753	-0.6258903516	-0.280617
C	-1.8508587307	-1.7134222133	 0.2983106487	-0.094776
O	-0.887954292	-2.5988333208	 0.8888197268	-0.251549
C	 0.0924271421	-2.0181874732	 1.639798147	 0.400011
N	 0.6121517933	-2.58454352	 2.6450573849	-0.514856
C	 0.5970190946	-0.6888446278	 1.1841697971	-0.098924
O	 1.1978327825	-0.685504324	-0.1224754086	-0.277563
H	 0.9622104282	 1.8864153316	 0.4155898593	 0.135233
H	 0.0780109555	 1.8171070778	-1.1202662506	 0.131677
H	-0.8129141793	 1.998367245	 0.3997720073	 0.124071
H	-1.9835919159	 0.0510991906	-0.9111002825	 0.108473
H	-0.8561265922	-1.155365336	-1.5420593222	 0.131473
H	-2.4102439637	-1.2144026335	 1.1017417058	 0.10944
H	-2.5429672246	-2.3630087123	-0.2416219277	 0.123964
H	 0.1574313006	-3.4856988131	 2.8111856022	 0.223418
H	 1.1457526529	-0.1403761321	 1.9450574988	 0.113066
85.6771	158.3858	215.017	226.1457	304.1359	354.9256	400.4613	431.9268	471.9441	513.5428	647.0345	693.1125	746.7238	816.8794	854.4964	893.1554	902.8986	936.0466	988.344	1026.464	1035.5297	1065.6394	1099.6321	1131.7825	1152.1865	1213.3894	1264.7069	1284.8832	1301.9981	1349.0399	1373.957	1412.1933	1427.6652	1449.9034	1470.1621	1486.1229	1496.2117	1508.9609	1750.2987	3011.7334	3034.3267	3048.8607	3094.5783	3098.8843	3110.1345	3126.6126	3156.8982	3457.6942
CC12CCOC(=N)C1O2	C[C@]12CCO[C]([NH])[C@H]1O2	
InChI=1S/C6H9NO2/c1-6-2-3-8-5(7)4(6)9-6/h4,7H,2-3H2,1H3	InChI=1S/C6H9NO2/c1-6-2-3-8-5(7)4(6)9-6/h4,7H,2-3H2,1H3/t4-,6+/m1/s1
