13
gdb 45977	3.06217	1.54241	1.20217	1.9274	59.	-0.2784	-0.0664	0.212	972.739	0.08908	-493.719257	-493.712157	-493.711212	-493.75125	26.023	
O	-0.0501653886	 0.3069265775	-0.8855933112	-0.289972
C	 0.0159059919	 1.2456956297	-0.1326787035	 0.376737
C	-1.1976240037	 1.7913276406	 0.6181517495	-0.170174
O	-1.2952667763	 3.2251449439	 0.6398747742	-0.242982
C	-0.2150920086	 4.0337275889	 0.5735347842	 0.458625
O	-0.3486415077	 5.2229129748	 0.5016744814	-0.314721
C	 1.1459378119	 3.386401954	 0.5782569678	-0.113993
O	 1.3711333357	 2.3779229402	 1.5528807461	-0.225231
C	 1.2889164163	 1.9618275368	 0.186001722	-0.07449
H	-2.1039272441	 1.4291119217	 0.1318813858	 0.157797
H	-1.1680479392	 1.418318215	 1.6488408994	 0.157717
H	 1.964530218	 4.0809819659	 0.4127457591	 0.146018
H	 2.2054907544	 1.603550871	-0.2744273548	 0.13467
82.7921	153.8496	200.4373	291.485	406.95	428.6481	481.9968	511.1183	578.8901	724.0324	733.4751	780.1287	873.9136	889.9869	911.633	1002.0901	1029.8393	1092.3785	1112.3386	1214.1347	1232.5603	1252.1855	1293.7933	1332.7936	1386.8629	1416.0041	1481.6293	1833.0087	1850.7544	3045.4581	3137.2367	3164.7788	3174.3793
O=C1COC(=O)C2OC12	O=C1COC(=O)[C@H]2O[C@@H]12	
InChI=1S/C5H4O4/c6-2-1-8-5(7)4-3(2)9-4/h3-4H,1H2	InChI=1S/C5H4O4/c6-2-1-8-5(7)4-3(2)9-4/h3-4H,1H2/t3-,4-/m0/s1
