21
gdb 78469	3.23853	1.39788	1.37611	1.5502	80.14	-0.2448	0.0866	0.3313	1070.2808	0.185941	-387.084774	-387.077578	-387.076634	-387.115935	30.357	
C	 0.0751700646	 1.6163052019	 0.0619696235	-0.427943
C	 0.0108912511	 0.1034994984	 0.015707846	-0.020059
C	 1.2777521459	-0.6679567553	-0.2704633952	-0.050917
C	 0.6708624807	-0.684772588	 1.1225249031	-0.050919
C	 0.3765388139	-2.1868616264	 1.3143846884	 0.057209
C	-0.8269828762	-2.6657085107	 0.4693392391	-0.226768
C	-0.2030449697	-2.6484087442	-0.9628050003	-0.22677
C	 1.2310845112	-2.1631811181	-0.6470696074	 0.057209
O	 1.4760402472	-2.8102043179	 0.6188583685	-0.26302
H	 1.0270518902	 1.9593417939	 0.4808516931	 0.116668
H	-0.0216899079	 2.0465395211	-0.9407505399	 0.118603
H	-0.7288702158	 2.0269538089	 0.6823059595	 0.118602
H	-0.9187338813	-0.2771299297	-0.3939028199	 0.083454
H	 2.1873257102	-0.1163808175	-0.4834382943	 0.082519
H	 1.1294329642	-0.14569006	 1.9447301806	 0.08252
H	 0.3733717248	-2.5105815675	 2.3549458631	 0.071212
H	-1.1042850267	-3.6794191626	 0.765864883	 0.102592
H	-1.7096350855	-2.0303631799	 0.5728702267	 0.101002
H	-0.1657970965	-3.6533967572	-1.3882984197	 0.102591
H	-0.7339240141	-2.0033030994	-1.6666968389	 0.101003
H	 1.9937348097	-2.4656807799	-1.3643078691	 0.071212
196.4213	205.8273	240.531	296.4621	370.1934	370.47	497.0605	576.7714	633.5715	753.282	754.3672	818.6885	823.0725	848.1229	867.7676	900.9256	905.9042	947.8936	965.6299	966.2372	1008.2632	1008.5999	1030.2626	1037.9661	1081.5603	1107.0547	1112.0375	1136.8144	1148.5154	1216.0804	1231.1173	1232.0374	1250.8316	1290.5887	1302.8769	1313.7322	1330.3794	1333.5819	1344.6639	1415.9934	1435.1782	1489.2783	1494.2819	1500.2085	1509.5047	3028.3628	3066.1069	3074.6011	3093.0095	3096.8418	3104.9347	3121.3473	3121.5971	3126.4236	3158.1201	3158.3223	3168.5003
CC1C2C1C1CCC2O1	C[C@H]1[C@H]2[C@@H]1[C@H]1CC[C@@H]2O1	
InChI=1S/C8H12O/c1-4-7-5-2-3-6(9-5)8(4)7/h4-8H,2-3H2,1H3	InChI=1S/C8H12O/c1-4-7-5-2-3-6(9-5)8(4)7/h4-8H,2-3H2,1H3/t4-,5-,6+,7+,8-
