19
gdb 58381	2.3357	1.10095	0.80079	2.9797	77.99	-0.2486	-0.0206	0.228	1424.8624	0.15441	-422.998328	-422.987541	-422.986597	-423.035128	37.934	
C	-0.2362712985	 1.5324277181	 0.0363523461	-0.407638
C	 0.0458511341	 0.0299763842	 0.0223261872	 0.127768
O	-1.1455291964	-0.7181651176	 0.2411955238	-0.429739
C	 0.7531402661	-0.4485419551	-1.268810085	-0.108367
C	 2.2301393796	 0.0160196065	-1.3268227542	-0.390233
C	 2.9039451101	-0.3707896021	-2.5600345921	 0.291355
C	 3.4383583963	-0.7028441066	-3.5835546231	-0.4163
C	 0.6823539485	-1.9681014554	-1.3238469376	 0.182406
O	 0.0660685292	-2.5944546941	-2.1433455692	-0.253222
H	 0.6813769153	 2.1267699125	-0.0033405904	 0.122202
H	-0.8598237883	 1.8171338293	-0.8193442575	 0.11694
H	-0.7723618387	 1.7934270854	 0.9524498292	 0.133712
H	 0.6812312661	-0.2244530514	 0.8805942087	 0.094008
H	-1.7181316262	-0.6093474364	-0.5271941788	 0.286575
H	 0.2146768069	-0.0700692467	-2.1454943131	 0.097351
H	 2.2746235322	 1.1047058205	-1.2117837803	 0.141161
H	 2.7699494493	-0.402645144	-0.4661070077	 0.136784
H	 3.9141719164	-0.997542366	-4.4859873737	 0.20151
H	 1.2625408379	-2.4780292508	-0.5191765224	 0.073729
47.5955	55.4437	74.33	118.0703	196.2308	223.7713	279.1718	285.0844	304.721	337.7986	365.8125	414.9543	485.4594	519.8067	568.3426	631.9649	646.1377	842.0236	858.668	929.4189	959.4494	975.3406	1047.9687	1071.0377	1084.9627	1121.1039	1161.9739	1208.8311	1234.0567	1310.8389	1321.9053	1351.1912	1372.5793	1406.8154	1417.8594	1428.3385	1471.3039	1490.0327	1494.5058	1841.4337	2242.479	2857.1483	3016.5401	3027.3686	3033.1422	3052.035	3065.625	3103.5862	3122.775	3506.3173	3794.6951
CC(O)C(CC#C)C=O	C[C@@H](O)[C@@H](CC#C)C=O	
InChI=1S/C7H10O2/c1-3-4-7(5-8)6(2)9/h1,5-7,9H,4H2,2H3	InChI=1S/C7H10O2/c1-3-4-7(5-8)6(2)9/h1,5-7,9H,4H2,2H3/t6-,7+/m1/s1
