15
gdb 24404	3.74071	1.68071	1.16809	6.3957	73.52	-0.1835	0.0106	0.1941	974.9171	0.117678	-413.035212	-413.02842	-413.027476	-413.066582	26.058	
C	-0.0086972234	 1.5084005836	 0.2052403377	-0.287737
N	 1.3131719015	 1.9640750353	-0.231548137	-0.295923
C	 2.3353964433	 1.1546514666	-0.6615921148	 0.079765
N	 2.3281280127	-0.1262200254	-0.7617311254	-0.342256
C	 1.1156953583	-0.6891337142	-0.3735643711	 0.274233
C	 0.0308765889	 0.0250837923	 0.0721622737	 0.269491
N	-0.9407194909	-0.9089282805	 0.343480361	-0.349761
C	-0.3955319558	-2.1325955137	 0.0499304175	-0.005071
N	 0.8389407404	-2.0368827995	-0.3836719815	-0.311891
H	-0.2056101907	 1.8350599494	 1.2424084798	 0.108593
H	-0.7992235373	 1.9677212806	-0.4154621748	 0.108665
H	 1.4869239291	 2.9545149282	-0.2139671587	 0.249501
H	 3.2323424233	 1.706983504	-0.9380758713	 0.111879
H	-1.8695062095	-0.7384889536	 0.6914618828	 0.262333
H	-0.9541812699	-3.0479125631	 0.1756741122	 0.128179
82.4042	208.8948	230.2972	404.3246	429.2325	463.1453	508.7315	575.3256	629.8234	661.6369	754.8131	768.7035	796.8165	919.2643	939.6129	941.4885	961.2101	1065.3602	1098.6512	1147.8843	1210.1944	1211.7757	1253.5858	1320.4573	1344.3449	1392.1343	1418.8437	1466.5041	1523.2589	1535.3057	1547.1992	1622.2876	1675.1104	2916.4697	2920.2437	3144.1568	3252.7621	3654.2697	3658.0989
C1NC=NC2=C1NC=N2	C1NC=Nc2c1[nH]cn2	
InChI=1S/C5H6N4/c1-4-5(8-2-6-1)9-3-7-4/h2-3H,1H2,(H,6,8)(H,7,9)	InChI=1S/C5H6N4/c1-4-5(8-2-6-1)9-3-7-4/h2-3H,1H2,(H,6,8)(H,7,9)
