16
gdb 82585	2.41818	2.2974	1.87555	3.4264	66.94	-0.2472	-0.0309	0.2163	813.7247	0.126225	-437.813797	-437.807411	-437.806467	-437.844213	26.471	
O	 0.4157997066	 1.2698047946	 0.3616775425	-0.422357
C	 0.0751056871	-0.0362876813	 0.0377494537	 0.120406
C	-1.4588015537	-0.5127792758	 0.0887711948	-0.120223
C	-2.5079962099	 0.6203785714	-0.070294002	-0.18196
N	-2.0459481463	 1.3323801682	-1.3094999169	-0.262632
C	-1.392756658	 0.4395084328	-1.9246361471	 0.298527
O	-0.1260437009	 0.5466451896	-2.4695756465	-0.273224
C	 0.217758916	-0.5140317334	-1.4753788539	 0.036874
C	-1.2450374411	-0.9678766576	-1.3650768762	-0.133643
H	-0.0462568146	 1.8527152154	-0.2586275553	 0.306338
H	 0.6757753458	-0.6971702039	 0.6689288357	 0.105468
H	-1.6759730132	-1.2456958605	 0.8673268068	 0.074737
H	-3.5341030401	 0.2363984171	-0.1418232053	 0.114577
H	-2.4736662195	 1.3437502177	 0.7489038242	 0.131986
H	 1.0858700553	-1.0791797416	-1.808482321	 0.103416
H	-1.6811218033	-1.8296492227	-1.8639313035	 0.10171
188.4946	216.5698	296.9463	431.2585	494.667	536.197	569.5551	646.1899	673.2741	725.2948	750.2342	779.9563	849.3599	881.9316	902.3151	920.4025	955.2842	979.2544	998.9605	1010.3586	1096.7516	1118.6941	1146.6689	1155.3079	1198.0203	1206.3976	1242.9592	1262.0261	1278.1323	1300.1378	1319.7787	1327.4161	1446.3842	1485.1987	1691.2281	3024.4087	3077.0448	3096.0902	3104.9574	3140.8755	3153.819	3727.7606
OC1C2CN=C3OC1C23	O[C@H]1[C@H]2C[N][C]3O[C@@H]1[C@@H]23	
InChI=1S/C6H7NO2/c8-4-2-1-7-6-3(2)5(4)9-6/h2-5,8H,1H2	InChI=1S/C6H7NO2/c8-4-2-1-7-6-3(2)5(4)9-6/h2-5,8H,1H2/t2-,3+,4-,5+/m0/s1
