18
gdb 17305	2.69186	2.40874	1.69739	1.3954	71.5	-0.2006	0.075	0.2756	847.5004	0.15312	-347.725321	-347.717771	-347.716827	-347.756444	30.028	
C	-0.0103996958	 1.4928124532	 0.0054765127	-0.489164
C	-0.0143883722	-0.0091310747	-0.0321576344	 0.30683
C	-0.9133888806	-0.8479398993	 0.8116430062	 0.032618
O	-1.8572522152	-1.7660840749	 0.3260078146	-0.418992
C	 0.5720544169	-1.0388269566	 0.976848483	-0.17872
C	 1.3243449668	-1.7309631479	-0.1868043148	-0.055756
C	 0.460137148	-2.2222971548	-1.3206165602	-0.304386
C	 0.7367871113	-0.7482156337	-1.179375006	-0.105299
H	 1.0003704557	 1.8908955384	-0.1431299924	 0.117631
H	-0.6465870814	 1.9063831232	-0.7875680228	 0.123248
H	-0.3822934061	 1.8704043442	 0.9630974062	 0.115466
H	-1.3060590284	-0.254488734	 1.6432648114	 0.084698
H	-1.9115638998	-2.487507106	 0.9627196454	 0.28416
H	 1.0525207507	-0.8438962393	 1.9294799182	 0.080174
H	 2.3600874186	-2.0278570104	-0.0844568412	 0.086082
H	 1.0305476779	-2.6870584805	-2.1211807545	 0.102322
H	-0.526218178	-2.6309442426	-1.1627237138	 0.135461
H	 1.2580412715	-0.1829554842	-1.9418542575	 0.083628
183.4263	205.734	215.3232	269.9914	297.9467	300.3849	406.8343	508.826	576.9223	637.2462	696.2493	752.7956	767.6084	834.9694	895.8636	907.9493	938.967	962.752	984.4464	1008.9472	1036.1842	1063.3417	1082.7833	1097.1026	1103.6754	1167.7298	1190.6325	1224.602	1269.899	1288.1099	1301.6699	1343.9499	1364.8535	1415.1954	1477.1491	1483.0904	1487.3232	1503.2566	3015.5373	3048.8253	3071.8176	3098.2024	3129.4695	3165.1541	3181.9685	3194.3501	3255.1706	3797.678
CC12C(O)C1C1CC21	C[C@]12[C@@H](O)[C@H]1[C@H]1C[C@@H]21	
InChI=1S/C7H10O/c1-7-4-2-3(4)5(7)6(7)8/h3-6,8H,2H2,1H3	InChI=1S/C7H10O/c1-7-4-2-3(4)5(7)6(7)8/h3-6,8H,2H2,1H3/t3-,4+,5+,6-,7+/m0/s1
