18
gdb 55970	2.96674	1.08888	0.91194	3.0112	73.49	-0.246	-0.0166	0.2294	1301.2043	0.146247	-439.104728	-439.095542	-439.094598	-439.14014	32.542	
C	 0.7828579922	 0.9848880199	 0.2366753139	-0.489811
C	-0.3102230309	-0.0437521024	 0.0726851197	 0.398841
O	-1.123763572	-0.2883763006	 0.9327918853	-0.308026
C	-0.3370426251	-0.8320931038	-1.2462801528	-0.316005
C	 0.0377179341	-2.2939987675	-0.990288661	-0.115821
C	 0.0973494106	-3.2811247712	-2.1781360349	-0.115397
O	 1.5108821857	-3.5379835389	-1.9003182368	-0.250416
C	 1.5175822795	-2.6142299226	-0.8784231912	 0.435133
N	 2.4570415375	-2.1881211758	-0.1645290805	-0.540507
H	 1.7478431967	 0.4639546572	 0.2050323478	 0.178218
H	 0.7708311526	 1.7005864274	-0.5931289365	 0.130531
H	 0.6710095499	 1.5077980887	 1.1870828123	 0.139093
H	-1.3633722335	-0.7892353125	-1.627251953	 0.130331
H	 0.3294790522	-0.391570818	-1.9940572018	 0.107851
H	-0.5403083393	-2.6723153148	-0.1436099309	 0.134173
H	-0.4936699711	-4.1950406974	-2.0885923595	 0.127662
H	-0.0264976296	-2.8397668944	-3.1708021692	 0.122474
H	 3.3453023205	-2.6317484234	-0.403342291	 0.231676
31.5579	71.0206	106.8079	163.5578	188.6731	234.6621	309.5841	379.9522	456.4064	515.7403	578.099	664.8854	747.7866	781.1726	827.1094	861.5789	883.7101	934.9208	966.606	996.2592	1016.6879	1059.1393	1088.2253	1128.8177	1153.969	1171.0804	1214.9822	1233.9396	1275.6715	1295.6675	1353.9878	1378.9834	1383.727	1463.3379	1475.7898	1477.0775	1515.5442	1814.862	1818.3213	3029.5672	3043.5363	3061.8385	3086.9577	3094.5425	3101.3506	3124.4938	3153.385	3479.33
CC(=O)CC1COC1=N	CC(=O)C[C@H]1CO[C]1[NH]	
InChI=1S/C6H9NO2/c1-4(8)2-5-3-9-6(5)7/h5,7H,2-3H2,1H3	InChI=1S/C6H9NO2/c1-4(8)2-5-3-9-6(5)7/h5,7H,2-3H2,1H3/t5-/m0/s1
