21
gdb 112429	2.42404	1.26869	0.92482	4.2003	79.11	-0.2425	0.0613	0.3038	1324.5308	0.184223	-420.471787	-420.462577	-420.461633	-420.505607	35.106	
C	 0.0511711622	 1.6982053744	 0.0143752643	-0.396972
C	 0.2130159166	 0.182183747	-0.1400238118	-0.187735
C	 0.6053934359	-0.5102561878	 1.1638888467	 0.051848
N	-0.4327208208	-0.460317088	 2.1909272675	-0.352945
C	-0.3132825644	-1.5401475826	 3.0618012691	 0.426931
O	-0.8806153205	-1.684767163	 4.1210221649	-0.411621
N	 0.5884362189	-2.4178597438	 2.471422065	-0.343566
C	 0.860234038	-2.0461957039	 1.084191464	 0.010477
C	-0.0206482629	-2.8092638279	 0.0886807613	-0.397584
H	 0.9672875982	 2.1606745183	 0.3981975034	 0.118476
H	-0.180929164	 2.1664812148	-0.9464678353	 0.121087
H	-0.7649166277	 1.9462986796	 0.7013559458	 0.120388
H	-0.7194849989	-0.2491817283	-0.5179747424	 0.109893
H	 0.9902361225	-0.0257204552	-0.8865438026	 0.099867
H	 1.5339251036	-0.0439414381	 1.5345811032	 0.078616
H	-0.6888480585	 0.4175364351	 2.6150863963	 0.249325
H	 0.5085934959	-3.388149916	 2.7354620764	 0.246414
H	 1.9135381477	-2.225748236	 0.8429803067	 0.086088
H	-1.0815889405	-2.6142759176	 0.2696799083	 0.136948
H	 0.2146397694	-2.5369803276	-0.9444694362	 0.120683
H	 0.1496059193	-3.8860986436	 0.1922811255	 0.113382
99.9955	123.3189	143.2889	178.977	246.6777	280.7316	295.7779	376.0937	431.3479	470.7149	508.5685	545.9307	567.0632	694.3483	719.1491	771.9718	791.8849	820.0954	932.5849	973.256	982.6871	1011.352	1042.0469	1060.0791	1100.3162	1134.2105	1161.0348	1174.9986	1261.4932	1287.554	1299.0091	1328.6106	1368.5211	1388.7438	1405.2007	1408.6493	1416.9551	1424.1958	1428.0079	1476.9693	1497.3893	1501.0925	1502.9272	1509.4068	1850.2264	2950.4865	3027.6028	3033.4198	3038.0586	3042.4189	3075.6413	3102.7218	3104.9028	3108.8569	3122.3517	3627.6519	3637.0451
CCC1NC(=O)NC1C	CC[C@H]1NC(=O)N[C@H]1C	
InChI=1S/C6H12N2O/c1-3-5-4(2)7-6(9)8-5/h4-5H,3H2,1-2H3,(H2,7,8,9)	InChI=1S/C6H12N2O/c1-3-5-4(2)7-6(9)8-5/h4-5H,3H2,1-2H3,(H2,7,8,9)/t4-,5+/m0/s1
