19
gdb 26150	2.5913	1.27263	1.04768	2.5122	78.54	-0.1981	0.0211	0.2193	1232.164	0.159347	-419.247213	-419.237848	-419.236904	-419.281714	34.3	
C	 0.0080966855	 1.5503071429	 0.0173310809	-0.376877
C	 0.01293141	 0.0108588462	 0.0616168397	-0.097201
C	 0.7444049196	-0.5022226975	 1.3150105998	-0.375984
C	-1.3822024572	-0.536975296	-0.0121786297	 0.222718
C	-1.9887128285	-1.2749104852	-0.9829369822	 0.237603
N	-1.635745769	-1.7229855486	-2.2484324079	-0.60045
O	-3.2729624197	-1.5314136226	-0.5995710754	-0.168827
C	-3.3849996663	-0.9227093957	 0.6164827411	 0.049216
N	-2.318139315	-0.3205735337	 1.0066204588	-0.303207
H	 1.0278083804	 1.946226747	 0.0703117393	 0.104221
H	-0.456722422	 1.918209235	-0.9023986155	 0.111651
H	-0.5599509223	 1.9493176529	 0.8631487482	 0.13515
H	 0.5592074337	-0.3500897909	-0.8220119143	 0.055647
H	 0.2052892038	-0.1979158362	 2.2168143116	 0.137691
H	 0.8090910811	-1.5947079814	 1.3166776925	 0.10653
H	 1.7604561453	-0.0972678713	 1.3668717833	 0.104079
H	-0.6408602663	-1.6469351753	-2.4128041702	 0.257223
H	-1.948153192	-2.6695234059	-2.4319158709	 0.257209
H	-4.3363123412	-1.0174530436	 1.1143874108	 0.14361
42.5243	128.4976	161.3485	174.3904	226.2291	254.2408	276.3457	288.845	390.987	437.8956	522.8514	617.528	647.3425	717.9035	740.6371	771.0466	786.2355	887.7629	927.3409	953.0334	962.4533	1017.774	1058.4457	1116.7113	1124.4516	1167.5827	1203.7493	1273.4172	1297.6007	1328.7426	1377.4612	1393.5868	1413.7538	1430.067	1484.3522	1492.9318	1499.527	1513.08	1574.6112	1626.4747	1692.7768	2994.0338	3031.772	3036.2564	3101.2889	3104.9884	3113.0645	3118.3518	3280.4193	3529.9809	3632.5974
CC(C)C1=C(N)OC=N1	CC(C)c1c(N)ocn1	
InChI=1S/C6H10N2O/c1-4(2)5-6(7)9-3-8-5/h3-4H,7H2,1-2H3	InChI=1S/C6H10N2O/c1-4(2)5-6(7)9-3-8-5/h3-4H,7H2,1-2H3
