16
gdb 8019	3.34937	2.12067	1.58117	3.8313	66.08	-0.2345	0.0194	0.2539	839.1073	0.130992	-379.890505	-379.883323	-379.882378	-379.921699	27.502	
C	-0.1659993562	 1.5724949795	 0.0285150363	-0.480517
C	 0.0547639762	 0.0888447006	 0.0947632209	 0.432738
C	-1.1197969601	-0.9121658456	 0.1754267978	-0.221607
N	-0.3502712643	-1.7619087763	 1.1314809755	-0.316465
C	 0.7416960002	-0.7498065211	 1.2092443422	-0.206568
C	 1.7898647257	-1.0251622195	 0.1497136505	 0.474157
N	 2.8952412035	-1.6120029131	 0.1157943525	-0.553371
O	 1.0885726326	-0.3622971781	-0.8492318047	-0.303853
H	 0.7777618918	 2.110970934	 0.1525360087	 0.135706
H	-0.5923018102	 1.8518068444	-0.9413155111	 0.138038
H	-0.8595081028	 1.8947260924	 0.810926527	 0.125377
H	-2.024175336	-0.4604283041	 0.6005529031	 0.102865
H	-1.3753577639	-1.4150345806	-0.7621518798	 0.120103
H	-0.8215148083	-1.8917264344	 2.0179371058	 0.229253
H	 1.0535932974	-0.4035902488	 2.1939923776	 0.096852
H	 3.2981422944	-1.5946013795	-0.8232169922	 0.227291
113.4843	203.6112	209.2042	286.8262	314.7543	391.3709	434.0951	617.1452	638.0936	656.7497	781.3633	826.4254	837.8709	870.9719	915.4954	956.378	973.3852	994.9305	1007.4781	1024.9792	1117.8769	1140.2193	1167.8364	1204.9009	1247.2117	1282.3757	1296.0024	1362.721	1386.4797	1415.8407	1481.6112	1489.1138	1495.3838	1829.0603	3026.0236	3038.0014	3085.9374	3106.1561	3120.2074	3124.5603	3469.0244	3557.7141
CC12CNC1C(=N)O2	C[C@]12CN[C@H]1[C]([NH])O2	
InChI=1S/C5H8N2O/c1-5-2-7-3(5)4(6)8-5/h3,6-7H,2H2,1H3	InChI=1S/C5H8N2O/c1-5-2-7-3(5)4(6)8-5/h3,6-7H,2H2,1H3/t3-,5-/m0/s1
