18
gdb 77180	3.24294	1.12855	0.94735	3.3011	74.25	-0.2483	0.0147	0.2631	1253.5312	0.148334	-435.220102	-435.211359	-435.210415	-435.253983	32.336	
O	 0.515027575	 0.9210548766	 0.4651838584	-0.435063
C	 0.1840394374	-0.3464645697	-0.0307989141	 0.043451
C	-1.3464269131	-0.6631438358	-0.1525587176	-0.012303
N	-1.081696118	-1.0122138067	-1.5739038016	-0.357221
C	 0.2024789453	-0.4685311709	-1.5515171785	 0.347089
N	 1.0673880009	-0.0698790729	-2.3811420092	-0.554122
C	-1.9232321448	-1.7703366145	 0.6911375786	-0.000461
C	-2.9059922781	-2.7290142994	 0.1319901438	-0.24467
N	-1.5356024089	-3.1665773162	 0.454784124	-0.316099
H	 1.1448267908	 1.3032481048	-0.1588740511	 0.301708
H	 0.7310614884	-1.1444591215	 0.488177463	 0.107279
H	-1.9200399007	 0.2633229219	-0.0357643027	 0.098135
H	-1.7385099143	-0.8893999705	-2.3339314844	 0.24306
H	 0.7608563446	-0.1637951333	-3.3506235835	 0.216156
H	-1.9997487796	-1.5073599437	 1.7448223389	 0.104828
H	-3.6863920146	-3.1427371255	 0.7638747764	 0.12252
H	-3.1771686723	-2.6278736029	-0.9162412506	 0.10102
H	-1.0021413179	-3.2089091997	-0.4129950698	 0.234691
75.5147	83.6576	163.6458	181.397	229.7539	268.7218	340.1972	390.1668	467.6794	539.5543	618.5574	700.3505	747.6463	806.6028	848.6516	849.9929	897.9885	941.1358	944.4926	986.6541	1032.258	1052.9869	1063.0412	1122.9043	1141.0248	1154.7057	1176.3664	1199.88	1211.7356	1273.316	1294.5349	1317.755	1331.0024	1368.503	1379.8186	1393.5969	1418.2743	1508.6035	1803.9072	3023.1023	3048.4032	3107.2772	3125.9077	3192.6859	3465.0061	3472.1944	3569.3919	3780.4937
OC1C(NC1=N)C1CN1	O[C@H]1[C@@H](N[C]1[NH])[C@H]1CN1	
InChI=1S/C5H9N3O/c6-5-4(9)3(8-5)2-1-7-2/h2-4,7,9H,1H2,(H2,6,8)	InChI=1S/C5H9N3O/c6-5-4(9)3(8-5)2-1-7-2/h2-4,7,9H,1H2,(H2,6,8)/t2-,3+,4+/m1/s1
