17
gdb 30122	3.70665	1.17275	1.05021	3.3414	74.34	-0.2245	0.0236	0.2482	1157.5228	0.137826	-418.02354	-418.015558	-418.014614	-418.05691	29.945	
O	-0.1379998002	 1.0496075018	 1.3509323422	-0.422244
C	 0.0238037713	 0.0369837194	 0.4114518069	 0.1397
C	-0.6277143032	-1.286283606	 0.6930223788	-0.326871
C	-1.1724313026	-0.3994823237	-0.4165791299	-0.200508
C	-2.441621959	 0.3365686195	-0.2583346127	 0.281765
C	-2.8351116997	 1.5896937286	-0.6735962623	-0.176302
N	-4.1295905733	 1.8581462131	-0.2918746893	-0.249308
C	-4.5255032417	 0.7849312875	 0.3516502619	 0.013112
N	-3.5467912856	-0.1621095281	 0.4032887882	-0.297464
H	-0.7889583852	 1.6753646574	 1.006543121	 0.288392
H	 0.9943606644	 0.0376351648	-0.0810657831	 0.094488
H	-0.1214270728	-2.2020705358	 0.4097485715	 0.117629
H	-1.1859299818	-1.3362185509	 1.621630724	 0.117309
H	-0.9441398413	-0.7201657138	-1.4295483254	 0.109496
H	-2.2589788031	 2.302129559	-1.2463598789	 0.11135
H	-5.4962246039	 0.6359099894	 0.8007328266	 0.131865
H	-3.6046593323	-1.070047132	 0.8338222705	 0.267591
39.9404	109.5508	167.8852	222.0305	299.8072	381.6106	449.5816	547.1234	551.476	641.0186	685.2569	730.842	808.3846	815.3746	838.3844	853.9972	915.0761	940.7523	998.0472	1030.0316	1059.3555	1077.0149	1115.9209	1125.8203	1148.8889	1166.5488	1222.0299	1261.5185	1267.2432	1354.6972	1369.7729	1381.9987	1400.9389	1426.6146	1473.2553	1498.1707	1606.053	3119.7449	3135.2318	3138.4667	3227.4208	3237.7709	3250.6405	3662.9696	3744.2323
OC1CC1C1=CN=CN1	O[C@H]1C[C@H]1c1cnc[nH]1	
InChI=1S/C6H8N2O/c9-6-1-4(6)5-2-7-3-8-5/h2-4,6,9H,1H2,(H,7,8)	InChI=1S/C6H8N2O/c9-6-1-4(6)5-2-7-3-8-5/h2-4,6,9H,1H2,(H,7,8)/t4-,6-/m0/s1
