23
gdb 92763	3.59613	0.95369	0.82523	0.3077	93.81	-0.2126	0.0334	0.2459	1499.6292	0.206787	-351.166467	-351.157431	-351.156487	-351.200488	35.069	
C	-0.1288146108	 1.5190067269	 0.0205926018	-0.404322
C	 0.066356819	 0.0063901166	-0.0588406492	 0.048444
C	 1.0354724502	-0.4684212642	-1.1737431688	-0.258374
C	 1.6386922743	-1.7203581198	-0.5892407623	-0.200793
C	 1.4187633624	-1.8338775022	 0.7256978896	 0.374758
C	 0.6255150334	-0.6427231866	 1.2336385409	-0.331376
C	 1.917017711	-2.9185845926	 1.5929161786	-0.095029
C	 2.2818205343	-2.6737989719	 3.0464576416	-0.271591
C	 1.0738125598	-3.5005236886	 2.7152024091	-0.271692
H	 0.8210712103	 2.027604786	 0.2229268427	 0.111594
H	-0.5259676599	 1.9186231833	-0.9188607077	 0.111134
H	-0.8284545636	 1.7914630493	 0.8184175478	 0.109676
H	-0.9066173061	-0.4603419867	-0.2583822096	 0.07487
H	 0.5210942195	-0.6352136487	-2.1277896353	 0.095678
H	 1.812174978	 0.2866165328	-1.3743646104	 0.095893
H	 2.2228589622	-2.4221271639	-1.176058926	 0.077602
H	 1.2889375036	 0.0535394659	 1.769362292	 0.099817
H	-0.1704541137	-0.9100253537	 1.9385501984	 0.097127
H	 2.5440388561	-3.6381247086	 1.0742426955	 0.079496
H	 3.1636134239	-3.1711924168	 3.4347314243	 0.112526
H	 2.1208626566	-1.678858385	 3.4460078117	 0.116204
H	 0.0952005051	-3.0693879796	 2.8938479537	 0.115098
H	 1.1201065743	-4.5730829521	 2.8678431316	 0.11326
69.5218	84.9728	155.0596	182.2094	243.4758	310.6689	335.1722	407.3427	422.7725	513.9792	552.996	631.8117	785.0816	817.8099	825.8213	836.1606	848.1479	897.468	920.792	924.9164	940.3624	949.5713	1003.5176	1040.7407	1058.1708	1067.5773	1076.4396	1106.3553	1134.7094	1148.7203	1156.9446	1198.5663	1201.274	1237.1498	1240.2274	1274.4401	1302.5595	1338.1342	1361.9625	1372.8846	1398.2974	1411.3958	1468.5864	1485.5846	1493.4936	1498.3934	1500.7023	1501.2496	1706.1938	2980.1136	2989.2111	3016.1309	3024.1197	3043.7716	3051.0591	3090.9422	3092.6021	3134.9279	3138.4286	3145.8297	3179.2693	3213.2958	3228.8941
CC1CC=C(C1)C1CC1	C[C@H]1CC=C(C1)C1CC1	
InChI=1S/C9H14/c1-7-2-3-9(6-7)8-4-5-8/h3,7-8H,2,4-6H2,1H3	InChI=1S/C9H14/c1-7-2-3-9(6-7)8-4-5-8/h3,7-8H,2,4-6H2,1H3/t7-/m0/s1
