21
gdb 122310	4.77801	0.73315	0.70052	1.1123	80.33	-0.232	0.0791	0.3111	1686.5362	0.181174	-424.17063	-424.161185	-424.160241	-424.205846	34.206	
C	 0.028889545	 1.3622068647	-0.0109147411	-0.229076
O	-0.0547975747	-0.0405049672	 0.0499043128	-0.231516
C	 0.7099784317	-0.5895916292	 1.1008155552	-0.049522
C	 0.5141545253	-2.1042573186	 1.0902912696	-0.321243
C	 1.2769121032	-2.774631294	 2.1877521398	 0.488972
C	 2.7185214672	-3.1905483617	 2.1731748595	-0.329657
C	 1.6431398149	-4.2074359924	 2.5115085705	-0.202628
C	 1.0987928798	-3.8974783278	 3.8990035868	-0.08418
O	 0.8671998812	-2.5079242395	 3.5418625374	-0.327964
H	 1.0626402555	 1.7045475462	-0.1801083684	 0.101511
H	-0.5924911081	 1.6924143151	-0.8471415381	 0.124964
H	-0.338976615	 1.8349308815	 0.9137759117	 0.104416
H	 1.7778722709	-0.3418350029	 0.9743709313	 0.086517
H	 0.3926437583	-0.1758173642	 2.0716701917	 0.106242
H	-0.5549224222	-2.3220738424	 1.1907551053	 0.115037
H	 0.8421879722	-2.5018589467	 0.1237263747	 0.110362
H	 3.1616954631	-3.3154502457	 1.1898529054	 0.114121
H	 3.3948269492	-2.8265870007	 2.9424049973	 0.112099
H	 1.49074231	-5.1201974	 1.951372866	 0.100419
H	 0.1505694784	-4.3985842264	 4.1246752591	 0.108335
H	 1.7827364041	-4.0001665481	 4.7503482937	 0.102792
54.2493	85.5117	102.0016	119.6223	232.1239	244.5397	287.3598	324.6625	397.3234	437.5949	483.1215	719.1685	747.0027	799.8227	841.0564	898.4373	950.9971	960.8688	977.3859	994.286	995.0291	1018.6023	1055.4835	1069.0953	1077.165	1133.1215	1162.1499	1166.5589	1177.4554	1197.5967	1227.3379	1249.6423	1267.4855	1301.1563	1324.1075	1345.2268	1404.9304	1427.3678	1476.3904	1481.8223	1486.028	1489.8317	1505.4395	1519.5116	1533.5479	2954.3413	2969.8342	2992.9439	3010.4354	3020.3726	3042.3542	3068.5164	3089.2844	3111.2839	3111.4407	3198.6884	3207.2936
COCCC12CC1CO2	COCC[C@]12C[C@H]1CO2	
InChI=1S/C7H12O2/c1-8-3-2-7-4-6(7)5-9-7/h6H,2-5H2,1H3	InChI=1S/C7H12O2/c1-8-3-2-7-4-6(7)5-9-7/h6H,2-5H2,1H3/t6-,7-/m0/s1
