17
gdb 83295	2.41973	1.88744	1.47649	3.1865	66.8	-0.2347	-0.0237	0.211	944.5014	0.137161	-458.982352	-458.974958	-458.974014	-459.014221	28.507	
C	-0.22376896	 1.5734984128	 0.0921004541	-0.422399
C	 0.0322132679	 0.074676343	-0.0331860153	-0.106119
C	 0.8310844018	-0.4831415616	-1.2357627786	 0.005156
C	 2.2321451397	 0.1423720176	-1.3088142324	-0.086287
O	 2.8682830646	-0.4250487718	-0.1485761378	-0.273367
C	 1.9176977804	-1.3688527134	 0.36096579	 0.051002
O	 1.1847214894	-1.8044556484	-0.7573374027	-0.244678
C	 0.8840223151	-0.5109699231	 1.1144545235	 0.436294
O	 0.7804083847	-0.3043471078	 2.291899437	-0.325942
H	 0.7044423582	 2.1517002528	 0.0766908821	 0.131008
H	-0.8698143892	 1.9388185039	-0.7119080241	 0.119682
H	-0.7165087308	 1.7751118477	 1.0471143378	 0.147732
H	-0.9249159937	-0.4616246176	-0.0183426082	 0.11969
H	 0.2924460308	-0.5613690069	-2.1784442367	 0.099919
H	 2.7651980155	-0.1700153713	-2.2130160866	 0.117556
H	 2.2392501755	 1.2331654061	-1.2410809499	 0.117313
H	 2.41354677	-2.1805821921	 0.8884427979	 0.113441
101.0103	185.2276	206.8106	242.1409	294.9272	439.7575	478.6518	537.394	586.1593	679.2267	746.6447	775.3447	832.3572	850.755	896.1382	933.5347	965.6814	996.157	1036.2678	1043.3721	1089.7366	1111.5294	1122.7496	1168.7706	1192.5263	1240.013	1246.5184	1279.6966	1309.0044	1335.6983	1345.4894	1369.0381	1411.1121	1493.9425	1497.7023	1525.4996	1871.4048	3036.8721	3043.2938	3047.7031	3101.6196	3114.3767	3121.5218	3141.1546	3162.1299
CC1C2COC(O2)C1=O	C[C@H]1[C@H]2CO[C@H](O2)C1=O	
InChI=1S/C6H8O3/c1-3-4-2-8-6(9-4)5(3)7/h3-4,6H,2H2,1H3	InChI=1S/C6H8O3/c1-3-4-2-8-6(9-4)5(3)7/h3-4,6H,2H2,1H3/t3-,4+,6+/m0/s1
