21
gdb 100911	2.27342	1.03847	0.75194	2.7405	75.83	-0.2437	-0.0163	0.2274	1506.2881	0.178935	-461.357633	-461.346475	-461.345531	-461.394585	39.017	
C	-0.2232535746	 1.4898773987	-0.0478975667	-0.415164
C	 0.0535421901	-0.020623197	 0.0000764859	 0.009445
C	 0.8518334511	-0.4498554258	-1.2365152426	-0.08926
O	 0.0480185755	-0.1939476679	-2.3804669559	-0.424791
C	 0.7858746475	-0.4709752461	 1.2940821887	-0.064651
C	 0.1779398503	 0.1111529704	 2.568947046	-0.114033
O	 0.8801388343	-0.4749588814	 3.6560973022	-0.418418
C	 0.7336378348	-1.9886973221	 1.3939378271	 0.177404
O	 1.6050872186	-2.7389187132	 1.0398163991	-0.259074
H	 0.6985118133	 2.0633207827	 0.1070950973	 0.113123
H	-0.6233852991	 1.7501922297	-1.0299892142	 0.141791
H	-0.9486865966	 1.803004032	 0.7077522535	 0.112789
H	-0.9123386879	-0.5441921081	-0.0513421189	 0.086052
H	 1.7928765602	 0.1243884114	-1.2737481149	 0.086179
H	 1.1199172297	-1.5121437277	-1.1699700294	 0.113389
H	 0.5410294288	-0.4657572456	-3.1595863679	 0.289248
H	 1.8418274156	-0.1812616014	 1.2379220202	 0.099103
H	 0.2712089314	 1.2044623459	 2.5768136573	 0.102468
H	-0.8976081258	-0.1310953015	 2.6102363556	 0.091027
H	 0.4864777694	-0.1677131277	 4.4779764245	 0.291424
H	-0.2312795667	-2.3795705454	 1.7960119432	 0.07195
41.8303	81.569	101.0951	133.6745	160.3059	230.9856	242.7638	247.8489	281.9062	294.4031	335.5225	346.73	352.5838	454.9835	546.5853	571.8005	843.2028	881.7621	933.258	942.7812	982.9883	1029.5143	1054.3992	1072.709	1103.8291	1128.8734	1162.3558	1167.028	1207.8968	1245.6683	1265.7313	1271.1501	1290.8588	1335.9654	1345.4211	1377.951	1401.9845	1428.3241	1450.864	1463.8773	1494.9635	1508.7739	1523.4415	1525.1962	1834.4816	2848.6913	2961.8662	2963.3576	3003.504	3030.7316	3036.019	3039.1993	3054.7965	3104.2159	3132.6756	3831.5982	3836.8698
CC(CO)C(CO)C=O	C[C@@H](CO)[C@@H](CO)C=O	
InChI=1S/C6H12O3/c1-5(2-7)6(3-8)4-9/h3,5-7,9H,2,4H2,1H3	InChI=1S/C6H12O3/c1-5(2-7)6(3-8)4-9/h3,5-7,9H,2,4H2,1H3/t5-,6+/m0/s1
