23
gdb 99963	2.29608	1.22769	1.18145	2.1422	77.06	-0.2531	0.057	0.3102	1238.3718	0.202094	-462.568651	-462.557643	-462.556699	-462.603299	42.741	
C	-0.1224414239	 1.5509348458	 0.1412878042	-0.420016
C	 0.016907551	 0.0300767151	 0.0379196901	 0.342163
C	 0.7055653418	-0.5289832674	 1.295089304	-0.43158
O	-1.3155884459	-0.4807360408	-0.0296389295	-0.477414
C	 0.7615018854	-0.4354817072	-1.2571274765	 0.358292
C	 2.2656417438	-0.1345283399	-1.267087529	-0.443714
O	 0.5617642628	-1.8569183528	-1.2916227191	-0.495004
C	 0.0920607637	 0.1528619892	-2.5144582827	-0.141042
O	 0.5401348313	-0.6354338287	-3.6220846662	-0.439133
H	 0.8517857963	 2.045727507	 0.1733969464	 0.113755
H	-0.6983258028	 1.9573051923	-0.6937949394	 0.118874
H	-0.6595004633	 1.7978694892	 1.0614533766	 0.124221
H	 0.0570095696	-0.3510217553	 2.1569681817	 0.11614
H	 0.8685663891	-1.6056113523	 1.1990509625	 0.128612
H	 1.6701223066	-0.0491980911	 1.4848435807	 0.108488
H	-1.209581351	-1.4010076519	-0.3091159399	 0.279411
H	 2.7769400172	-0.7026231205	-0.488079701	 0.126025
H	 2.6879544292	-0.4224728305	-2.2339941166	 0.127694
H	 2.4667944136	 0.9307139243	-1.1164360222	 0.110965
H	 0.607119528	-2.0958927356	-2.2280513897	 0.28793
H	-0.9953485116	 0.0909842277	-2.4002867654	 0.111601
H	 0.3803149972	 1.202841186	-2.6518365204	 0.097079
H	-0.0681110279	-0.507320273	-4.3544390187	 0.296653
96.7991	132.9567	204.6254	220.8992	234.6079	240.0273	272.9205	283.1876	319.5568	337.0509	359.2712	375.0327	385.001	419.9515	486.4914	518.2318	525.3085	535.7948	592.2278	723.3878	838.3928	899.516	929.9207	939.0549	953.8926	971.6608	1014.5645	1049.7757	1121.9885	1137.5132	1149.3153	1199.0432	1215.8023	1225.295	1265.1704	1291.2497	1383.7219	1386.7541	1397.7514	1407.0286	1423.8489	1432.375	1477.3886	1488.4869	1493.2003	1500.9375	1505.8774	1514.5845	1523.2196	3016.0865	3043.348	3046.1008	3051.6261	3076.3566	3112.6438	3115.1332	3119.7685	3126.6385	3128.5288	3139.7923	3737.8964	3744.1668	3850.4326
CC(C)(O)C(C)(O)CO	CC(C)(O)[C@@](C)(O)CO	
InChI=1S/C6H14O3/c1-5(2,8)6(3,9)4-7/h7-9H,4H2,1-3H3	InChI=1S/C6H14O3/c1-5(2,8)6(3,9)4-7/h7-9H,4H2,1-3H3/t6-/m0/s1
