19
gdb 67709	2.25194	1.97852	1.70017	2.7998	73.16	-0.2496	0.081	0.3306	937.1164	0.161663	-423.030803	-423.023463	-423.022519	-423.062435	29.065	
C	-0.0255467305	 1.4736382554	-0.0047621672	-0.514319
C	-0.0077813525	-0.0305340775	-0.0095756809	 0.318818
C	-0.2618569225	-0.9381674985	-1.1816065812	-0.137619
C	 0.8822872525	-1.9396701277	-1.2427070172	-0.102923
O	 1.7476578617	-1.621155073	-0.1492775418	-0.257296
C	 1.0332766725	-0.8414797619	 0.7878987687	 0.125989
O	 0.3127137011	-1.6440101939	 1.7007319992	-0.257295
C	-0.9577609195	-1.9689575779	 1.1295863009	-0.102923
C	-1.1952336921	-0.9530207029	 0.0217555793	-0.137614
H	 0.9135602167	 1.8847445419	-0.3917069467	 0.126831
H	-0.838122785	 1.8550055688	-0.6308944709	 0.119987
H	-0.1724363216	 1.8674604822	 1.0071588468	 0.12683
H	-0.6555817992	-0.5466284189	-2.1132718113	 0.090197
H	 0.5427336796	-2.9821183674	-1.1649796421	 0.102102
H	 1.4522491805	-1.8389070738	-2.1728190536	 0.107167
H	 1.7629782836	-0.2673479323	 1.3609762824	 0.092602
H	-0.9545190207	-3.0059494828	 0.765341167	 0.102102
H	-1.7179407553	-1.8893597444	 1.9143852489	 0.107167
H	-2.2001766295	-0.5712145453	-0.1218942003	 0.090198
116.8364	194.9769	211.1029	242.9796	273.9564	475.1704	488.0444	589.3118	625.6699	733.0284	739.2642	756.2937	870.165	877.9908	925.358	935.5345	953.9351	979.8698	984.6761	1005.8351	1059.8213	1071.2984	1089.6827	1103.8829	1107.7886	1136.986	1219.0056	1224.7784	1234.5877	1250.03	1313.8809	1328.8689	1356.2854	1374.6381	1386.9407	1417.9307	1463.3006	1488.8521	1500.7696	1516.652	1534.0664	3003.1646	3006.0405	3027.0652	3058.6504	3060.5313	3088.5271	3101.5631	3113.725	3166.254	3176.0782
CC12C3COC1OCC23	C[C@@]12[C@H]3CO[C@@H]1OC[C@@H]23	
InChI=1S/C7H10O2/c1-7-4-2-8-6(7)9-3-5(4)7/h4-6H,2-3H2,1H3	InChI=1S/C7H10O2/c1-7-4-2-8-6(7)9-3-5(4)7/h4-6H,2-3H2,1H3/t4-,5+,6+,7-
