19
gdb 73886	2.1562	1.6624	1.02156	3.7652	85.14	-0.2373	-0.0503	0.187	1184.8305	0.159228	-385.913643	-385.905261	-385.904317	-385.946558	31.929	
C	 0.071335313	 1.492951331	 0.1034153078	-0.497077
C	 0.0191898286	 0.0032528657	-0.0129113194	 0.205977
C	 0.0157474053	-0.7678205272	-1.1252161758	 0.153891
C	-0.0088736238	-0.2984202634	-2.5097581493	 0.056739
O	-0.0338586527	-1.035962698	-3.4736769058	-0.275986
C	 0.0376951834	-2.2243556611	-0.7932877128	-0.123548
C	 1.2698506602	-2.6953534105	-0.0496918267	-0.278912
C	 0.0428582884	-2.2904746824	 0.7239684012	-0.051122
C	-0.0324206176	-0.8556381596	 1.2378452688	-0.310224
H	 0.9714449789	 1.8041355142	 0.6485380446	 0.137893
H	 0.0694568974	 2.0018966664	-0.8615762176	 0.137599
H	-0.7829987036	 1.8603096422	 0.6862500591	 0.136101
H	-0.0184066567	 0.8042323256	-2.6460603235	 0.060632
H	-0.5014802012	-2.9188737237	-1.4246877449	 0.104348
H	 1.499409067	-3.7548914839	-0.0873247274	 0.114558
H	 2.1398671397	-2.0455093189	-0.0403308293	 0.108174
H	-0.5065782391	-3.0607576331	 1.2513006164	 0.089569
H	 0.7794473883	-0.603654662	 1.9337078967	 0.115928
H	-0.9673456455	-0.6645950612	 1.7841615179	 0.11546
108.7554	148.1249	174.572	194.0377	233.7991	307.5335	351.4988	411.075	511.3881	565.3002	601.7924	692.2406	745.1601	810.0143	833.0032	880.4366	914.9741	959.4713	978.2114	1003.1827	1038.8398	1055.0053	1065.0556	1090.5213	1102.1891	1127.0585	1186.6959	1192.199	1216.8577	1239.9515	1324.5344	1369.5462	1391.8052	1410.8603	1433.5322	1464.6018	1477.5842	1480.3176	1485.071	1675.897	1770.246	2894.7278	3005.1207	3022.9074	3034.0957	3066.0497	3122.224	3134.2523	3181.2693	3196.6414	3213.0017
CC1=C(C=O)C2CC2C1	CC1=C(C=O)[C@H]2C[C@H]2C1	
InChI=1S/C8H10O/c1-5-2-6-3-7(6)8(5)4-9/h4,6-7H,2-3H2,1H3	InChI=1S/C8H10O/c1-5-2-6-3-7(6)8(5)4-9/h4,6-7H,2-3H2,1H3/t6-,7+/m1/s1
