17
gdb 67265	2.68664	2.21377	1.72044	1.4053	69.23	-0.2261	0.0709	0.297	847.283	0.137588	-421.755218	-421.748937	-421.747993	-421.785545	26.357	
C	-0.0884735443	 1.517059372	 0.0031051219	-0.535476
C	-0.0638951568	 0.0163111677	 0.0473879949	 0.30723
C	 0.8603088974	-0.833934622	-0.9051601439	 0.020069
O	 1.8451178805	-1.0341736606	 0.1400216496	-0.302306
C	 0.733210746	-0.880776945	 1.044482038	 0.0253
C	-0.3183078	-1.9762210569	 0.6749240096	-0.11754
C	-0.0522755143	-2.084068993	-0.8673322723	 0.071772
O	-1.3809446331	-1.5977004459	-1.1916948154	-0.301289
C	-1.3097605018	-0.9357199017	 0.0877855575	 0.022258
H	 0.928756224	 1.9229322264	 0.0188297094	 0.133465
H	-0.5807414876	 1.8725890371	-0.9091286582	 0.129419
H	-0.6299138727	 1.9339228387	 0.8593297373	 0.120099
H	 1.2687442973	-0.4837983647	-1.851957849	 0.085279
H	 0.9993873274	-0.6613274699	 2.0771882851	 0.084524
H	-0.5772140454	-2.8484955986	 1.2681119943	 0.083877
H	 0.2391338071	-2.990431902	-1.3944910094	 0.089288
H	-2.2648345137	-0.6104821317	 0.4976424207	 0.084031
215.9584	227.1642	254.998	438.6114	475.1029	564.9901	610.3768	713.6973	747.8013	833.3503	836.7338	845.6172	853.8041	873.669	895.027	920.6148	946.1585	953.8964	974.3467	1006.0883	1028.6799	1105.3523	1118.7381	1141.7062	1155.7449	1167.8915	1200.7601	1206.0714	1222.8173	1260.7659	1277.2295	1298.056	1326.6613	1376.6015	1412.7224	1490.9861	1492.3262	3025.9197	3091.3968	3096.8052	3131.5265	3132.6799	3135.4077	3144.2192	3164.8947
CC12C3OC1C1C3OC21	C[C@@]12[C@H]3O[C@@H]1[C@@H]1[C@H]3O[C@H]21	
InChI=1S/C7H8O2/c1-7-4-2-3(8-4)6(7)9-5(2)7/h2-6H,1H3	InChI=1S/C7H8O2/c1-7-4-2-3(8-4)6(7)9-5(2)7/h2-6H,1H3/t2-,3-,4+,5-,6+,7+/m1/s1
