16
gdb 31178	2.75777	1.2899	0.8859	4.8684	78.4	-0.2003	-0.0223	0.1781	1255.6011	0.124124	-437.923919	-437.915266	-437.914322	-437.957695	30.852	
C	-0.1219132425	 1.4772872202	 0.0847726088	-0.33248
N	-0.0549371669	 0.045792259	-0.1671015362	-0.388678
C	-1.1501810515	-0.7510119241	-0.0683435268	 0.394824
C	-1.3131329777	-2.1288045309	 0.000715356	 0.064485
C	-0.2792522939	-3.130207189	 0.0473930772	 0.053314
O	-0.4610318927	-4.3313247019	 0.1084747265	-0.303268
C	-2.7439806223	-2.3358525697	 0.0243753036	-0.260208
C	-3.3192892932	-1.1219754038	-0.0243435726	-0.030513
O	-2.3426207554	-0.1309199418	-0.0790982467	-0.191063
H	 0.8472091425	 1.9161416408	-0.1587122269	 0.136451
H	-0.8780701174	 1.9312432955	-0.5589434666	 0.156879
H	-0.3690336735	 1.7168136405	 1.1278470131	 0.132973
H	 0.8199046231	-0.4100030539	 0.0349904429	 0.262475
H	 0.7629863683	-2.7243225554	 0.0248950446	 0.025001
H	-3.2344705536	-3.2944057113	 0.0741718772	 0.138535
H	-4.3309389534	-0.7561493144	-0.0274331441	 0.141272
74.5479	131.2618	152.1684	164.6164	215.8817	240.6977	334.7664	377.101	458.7309	569.2772	609.1349	682.7605	702.8189	738.7757	804.2033	857.2299	903.5074	1018.981	1036.9766	1047.8283	1091.5082	1151.2899	1153.553	1195.4508	1292.0111	1325.6504	1424.1448	1448.4779	1460.8817	1486.6155	1510.8172	1519.8751	1599.2044	1654.1065	1768.2587	2801.4888	3013.8517	3102.6994	3143.7782	3271.934	3303.0324	3644.4371
CNC1=C(C=O)C=CO1	CNc1c(C=O)cco1	
InChI=1S/C6H7NO2/c1-7-6-5(4-8)2-3-9-6/h2-4,7H,1H3	InChI=1S/C6H7NO2/c1-7-6-5(4-8)2-3-9-6/h2-4,7H,1H3
