16
gdb 52278	4.26951	0.86724	0.75157	3.2005	68.62	-0.2604	-0.0494	0.211	1438.8579	0.122183	-475.002127	-474.99321	-474.992266	-475.037403	30.567	
N	-0.4260432449	 1.1021470241	-0.3025366496	-0.435821
C	-0.4744826682	-0.1533803663	-0.3981783841	 0.131288
O	-0.6054272893	-0.9005739794	 0.7249730357	-0.183284
C	-0.7332306344	-2.3041285716	 0.549482184	-0.106188
C	-2.1619249908	-2.7115684549	 0.2227081543	-0.001376
O	-2.5603186854	-2.4204213089	-1.1405921414	-0.29121
C	-2.8555440651	-3.7976189694	-1.4609228231	-0.188125
C	-2.4115292345	-4.2057237462	-0.0518945212	 0.333065
O	-2.279517857	-5.2205555641	 0.5575520241	-0.262886
H	-0.3093916145	 1.5153205725	-1.2254378449	 0.23145
H	-0.4189327942	-0.7500407474	-1.3161448846	 0.099766
H	-0.0512561116	-2.6651350618	-0.2311582911	 0.115841
H	-0.4438902857	-2.7595458687	 1.5008054503	 0.143864
H	-2.8528230597	-2.2646101025	 0.9498026472	 0.130498
H	-3.9167496599	-3.9667782753	-1.6820213406	 0.142738
H	-2.2444333447	-4.19008318	-2.283030075	 0.140381
51.2932	64.8583	98.6339	122.3204	148.0028	298.3019	319.5055	402.7372	496.1477	535.0454	649.4764	691.5998	814.8486	820.8951	862.7413	964.7003	976.0844	1006.3174	1035.6972	1068.4854	1083.7785	1105.9329	1138.1304	1147.5079	1231.0338	1243.2504	1288.1737	1310.5357	1359.2116	1398.6484	1424.0911	1479.6939	1484.5555	1747.9776	1925.9101	3020.7881	3025.11	3037.1022	3057.3971	3071.8054	3104.224	3519.5381
N=COCC1OCC1=O	[NH][CH]OC[C@H]1OCC1=O	
InChI=1S/C5H7NO3/c6-3-8-2-5-4(7)1-9-5/h3,5-6H,1-2H2	InChI=1S/C5H7NO3/c6-3-8-2-5-4(7)1-9-5/h3,5-6H,1-2H2/t5-/m1/s1
