17
gdb 47781	2.09993	1.71172	1.19001	4.3788	73.91	-0.2565	-0.0007	0.2558	1080.1337	0.136295	-421.832767	-421.824488	-421.823544	-421.865952	30.981	
O	 0.0380365117	 0.0258691768	 0.3883205266	-0.316776
C	-0.0026964072	 1.1637869204	 0.0146955267	 0.408647
O	-1.1898700585	 1.7255018367	-0.2986043963	-0.226991
C	-1.3139818556	 2.9339306916	-1.0753647952	-0.056513
C	-0.1623159432	 3.9112117475	-0.9025011641	-0.223488
C	 1.158424328	 3.1723283318	-1.10243067	-0.230263
C	 1.2641067412	 2.0483219204	-0.0490202973	-0.273899
C	 1.512899405	 2.5871858323	 1.2871018764	 0.343881
C	 1.7103622969	 3.0538149449	 2.3768335405	-0.478391
H	-1.403281719	 2.6335529899	-2.1276936501	 0.116618
H	-2.2677838875	 3.3699942539	-0.7689689349	 0.12738
H	-0.2820777925	 4.7216386679	-1.6287178819	 0.110699
H	-0.1879624955	 4.3564725237	 0.0977426766	 0.130193
H	 1.1926055772	 2.7260207948	-2.1039944822	 0.107599
H	 2.0170555388	 3.8423104165	-1.0114726469	 0.119425
H	 2.0753568332	 1.3589889875	-0.3035063929	 0.136772
H	 1.8910577871	 3.4462492435	 3.3470738451	 0.205107
68.4887	124.5435	143.3768	195.1681	320.6864	362.4072	419.0947	447.5012	493.3739	580.8761	634.9843	644.2481	660.7401	709.9921	803.1042	858.1639	888.4253	937.1554	954.2651	1002.0289	1072.5347	1098.8421	1125.3379	1158.6553	1214.6401	1255.9121	1290.8448	1304.9379	1318.9009	1367.9198	1390.3834	1432.6147	1484.08	1493.063	1517.8378	1846.1895	2234.7963	3023.3929	3034.2544	3050.0745	3064.5139	3093.2223	3097.7807	3104.3111	3503.0908
O=C1OCCCC1C#C	O=C1OCCC[C@H]1C#C	
InChI=1S/C7H8O2/c1-2-6-4-3-5-9-7(6)8/h1,6H,3-5H2	InChI=1S/C7H8O2/c1-2-6-4-3-5-9-7(6)8/h1,6H,3-5H2/t6-/m1/s1
