16
gdb 51351	5.79375	0.90665	0.89124	1.7413	69.06	-0.243	-0.0301	0.2128	1279.1753	0.121994	-437.756601	-437.749089	-437.748144	-437.789633	28.007	
O	-0.2825322209	-0.0653652293	 0.367228008	-0.23614
C	-0.1141574784	 1.0615428399	-0.0177936731	 0.158595
C	 1.2275405667	 1.7758999252	-0.0216257105	-0.240867
N	 1.2860221949	 2.7378393776	-1.1174805785	-0.141811
C	 1.7828305446	 2.2057534539	-2.4256856566	-0.07566
C	 2.3635734304	 3.5925331711	-2.8220778619	 0.083739
O	 3.6732665498	 3.0825797763	-3.1925696516	-0.320982
C	 3.3104993627	 2.2681361293	-2.0453142172	 0.076842
C	 2.5883526363	 3.44516294	-1.2892015654	-0.065011
H	-0.9500830547	 1.6897954314	-0.3989532194	 0.089396
H	 1.2848618047	 2.3356494139	 0.9240757991	 0.133057
H	 2.0315663626	 1.0229417605	-0.005850675	 0.112641
H	 1.2446300765	 1.4798231927	-3.0356211188	 0.104634
H	 1.9185731649	 4.4047496228	-3.3929864458	 0.11272
H	 4.0143657071	 1.5059712141	-1.7134216779	 0.109918
H	 2.9874511427	 4.1644632806	-0.5732332455	 0.09893
54.0679	86.3786	149.1453	256.9237	352.0315	435.2158	549.0226	606.1979	717.7809	751.5754	766.6445	794.6996	806.2017	834.8216	888.9781	917.3104	945.794	982.8625	1053.1395	1065.679	1100.294	1107.2028	1118.8509	1156.78	1161.9369	1167.3885	1182.5008	1187.7504	1252.4257	1293.6689	1332.2364	1347.5685	1405.842	1460.6302	1839.839	2890.5474	2979.5166	3028.0054	3115.3539	3119.3479	3133.6777	3153.2417
O=CCN1C2C3OC2C13	O=CCN1[C@H]2[C@@H]3O[C@H]2[C@H]13	
InChI=1S/C6H7NO2/c8-2-1-7-3-5-4(7)6(3)9-5/h2-6H,1H2	InChI=1S/C6H7NO2/c8-2-1-7-3-5-4(7)6(3)9-5/h2-6H,1H2/t3-,4+,5-,6+
