16
gdb 7214	3.65667	1.17763	0.92838	4.1494	69.9	-0.2328	0.025	0.2578	1231.4008	0.129265	-379.924935	-379.915276	-379.914332	-379.960395	33.183	
C	 0.2505997982	 1.4509609137	 0.1576505868	-0.500441
C	 0.1460862976	-0.0003816262	 0.0969021038	 0.057861
C	 0.041194235	-1.2004804965	 0.0652738272	 0.079508
C	-0.0808601411	-2.654705174	 0.0031525003	-0.238364
N	-1.4799420398	-3.0873966416	 0.0406226216	-0.50511
C	 0.6922229382	-3.283363724	-1.199683233	 0.399408
N	 1.8235936883	-2.6383553355	-1.576088204	-0.522259
O	 0.3106959244	-4.32896409	-1.688904714	-0.366458
H	 1.1200365866	 1.7624216586	 0.7467427498	 0.151859
H	 0.348627555	 1.8900534397	-0.8411557908	 0.14944
H	-0.6386071664	 1.8865021279	 0.6259827616	 0.158564
H	 0.4177817429	-3.0784471866	 0.8898262361	 0.135834
H	-2.0001644548	-2.5451327468	-0.6448480867	 0.228769
H	-1.4863742514	-4.0447308394	-0.3112337078	 0.244525
H	 2.0009901045	-1.7009984916	-1.2557367165	 0.264955
H	 2.3421174328	-2.9993223776	-2.3604412445	 0.261909
41.6454	50.8483	94.6354	143.4434	249.541	268.8309	309.5803	317.6138	339.9152	417.8732	451.9002	490.7933	556.7421	620.0092	691.9699	810.6108	848.8847	980.1325	1051.074	1055.0364	1087.3355	1104.2616	1188.0424	1211.3026	1292.7799	1343.6415	1404.1856	1414.8653	1477.3244	1478.4389	1608.3867	1663.4806	1800.2712	2365.5347	2978.5063	3029.6499	3090.6458	3093.5427	3461.8645	3542.4118	3589.8128	3723.2244
CC#CC(N)C(N)=O	CC#C[C@@H](N)C(=O)N	
InChI=1S/C5H8N2O/c1-2-3-4(6)5(7)8/h4H,6H2,1H3,(H2,7,8)	InChI=1S/C5H8N2O/c1-2-3-4(6)5(7)8/h4H,6H2,1H3,(H2,7,8)/t4-/m1/s1
