18
gdb 80372	2.33165	1.75436	1.21539	4.2911	75.91	-0.2583	0.0053	0.2637	1065.5311	0.14606	-401.922481	-401.913758	-401.912814	-401.955462	32.943	
C	-0.0324817458	 1.5495167454	-0.1219566067	-0.42602
C	 0.0698880262	 0.0493310045	 0.0419454153	-0.034394
C	 1.3303694342	-0.7357032551	-0.1138683132	 0.069406
O	 2.4689275377	-0.0101516701	 0.3803566251	-0.312398
C	 1.9488811282	-0.0908883265	 1.7384390192	 0.247935
C	 2.7950631338	-1.0433474337	 2.5788458489	-0.426402
C	 1.8776488968	 1.2271169485	 2.3931625365	 0.269764
N	 1.8278430893	 2.2400006604	 2.9474483847	-0.34113
C	 0.6375492881	-0.7077925529	 1.2341430898	-0.185806
H	 0.9189819196	 2.0415710952	 0.0844432543	 0.15182
H	-0.3163225123	 1.7903702754	-1.1516032795	 0.11863
H	-0.7884084018	 1.9737103942	 0.5454189397	 0.130167
H	-0.7831711671	-0.502837401	-0.3516832141	 0.099439
H	 1.5236060628	-1.5287386572	-0.8264342815	 0.112047
H	 3.8120986452	-0.6556722314	 2.6748168616	 0.147888
H	 2.3660953462	-1.1549317251	 3.5793145042	 0.137068
H	 2.8291558766	-2.0207642022	 2.0920650196	 0.132707
H	 0.0935410323	-1.4722993385	 1.7725786264	 0.10928
118.6073	136.0775	185.7222	215.698	237.8208	243.3109	293.6215	359.8861	474.9167	542.1482	554.0764	611.7957	654.3847	728.1287	814.5535	849.8608	881.8815	913.9177	949.8042	996.0906	1019.997	1037.6058	1059.9696	1082.9014	1116.5425	1141.4926	1166.6591	1200.9334	1234.1036	1279.3621	1329.8285	1403.0004	1415.3452	1437.7731	1481.2783	1483.992	1491.613	1502.2	2352.5112	3044.8669	3047.451	3105.0676	3118.5565	3125.9524	3138.4722	3144.509	3184.6534	3203.8397
CC1C2OC(C)(C#N)C12	C[C@H]1[C@H]2O[C@@](C)(C#N)[C@@H]12	
InChI=1S/C7H9NO/c1-4-5-6(4)9-7(5,2)3-8/h4-6H,1-2H3	InChI=1S/C7H9NO/c1-4-5-6(4)9-7(5,2)3-8/h4-6H,1-2H3/t4-,5+,6-,7+/m1/s1
