18
gdb 6956	2.58616	2.2095	1.63531	1.7516	67.25	-0.239	-0.0234	0.2157	876.568	0.152718	-384.968777	-384.960554	-384.959609	-385.001054	30.587	
C	 0.075243035	 1.5008138774	 0.0533618418	-0.425785
C	-0.0580341601	-0.0345519545	-0.0343883993	 0.162717
C	-1.5226850262	-0.4698680036	-0.0323016149	-0.439057
C	 0.7839471404	-0.5880308323	-1.1972792681	-0.122354
O	 2.127423594	-0.6479164005	-0.7106578901	-0.252481
C	 2.067779439	-1.0870828352	 0.6316541608	-0.184888
C	 0.7070179165	-0.6293415277	 1.1622093991	 0.357008
O	 0.3096853033	-0.7250127561	 2.2932692201	-0.318353
H	 1.1240601644	 1.8085885801	 0.0073888701	 0.132303
H	-0.4550235126	 1.9714828654	-0.7812542564	 0.119473
H	-0.3540794399	 1.8718646146	 0.9884268427	 0.133551
H	-2.0742232933	 0.0036056968	-0.8512132527	 0.115495
H	-1.6186490278	-1.5550376325	-0.1407799808	 0.11733
H	-1.995277596	-0.1860267925	 0.9121960044	 0.139826
H	 0.4343254036	-1.592525043	-1.4872129202	 0.091086
H	 0.7857509845	 0.0494456257	-2.0847917654	 0.114431
H	 2.1274786769	-2.1860172373	 0.7133098325	 0.120095
H	 2.8976559782	-0.6580435247	 1.2003907264	 0.139605
89.3338	189.1756	203.6224	211.9861	247.177	284.2126	335.3983	363.6696	492.1617	567.5702	596.1033	651.8167	712.4297	851.0164	937.6081	951.687	963.5229	975.7911	999.4574	1045.0724	1092.569	1110.6523	1181.1883	1221.0442	1241.4196	1258.2066	1277.2551	1326.4129	1381.2762	1395.6309	1420.2044	1473.8034	1482.4657	1488.4992	1501.1049	1508.2368	1515.1971	1854.6118	2965.1804	2973.1823	3032.7044	3036.0569	3089.6194	3097.1921	3101.9031	3105.949	3115.994	3119.1343
CC1(C)COCC1=O	CC1(C)COCC1=O	
InChI=1S/C6H10O2/c1-6(2)4-8-3-5(6)7/h3-4H2,1-2H3	InChI=1S/C6H10O2/c1-6(2)4-8-3-5(6)7/h3-4H2,1-2H3
