20
gdb 65144	3.4979	1.08419	0.96167	3.7517	79.61	-0.247	0.0326	0.2796	1281.5419	0.170553	-403.164592	-403.155709	-403.154765	-403.198267	34.079	
C	 0.1330180488	 1.5123405589	 0.5683771899	-0.461807
C	 0.0375948883	 0.1003228703	 0.0215539477	 0.354592
C	 1.0310210485	-0.3334028737	-1.0265661707	-0.300488
C	 1.1316230219	-0.875757229	 0.3805493618	-0.308412
C	-1.3914482684	-0.4017359115	-0.0672311734	-0.020283
C	-2.2691881421	 0.1169329249	-1.251645166	-0.399666
C	-2.4586826278	-1.3733320098	-1.6158848208	 0.428382
O	-3.1032006332	-2.0000078778	-2.4114166931	-0.355314
N	-1.5929432735	-1.7545997284	-0.6113938995	-0.333638
H	 1.1744763658	 1.8412516331	 0.6284405401	 0.1183
H	-0.404427923	 2.2250691829	-0.0680936002	 0.121265
H	-0.2951610313	 1.5781655795	 1.5758858508	 0.116742
H	 0.6942952106	-1.0177254447	-1.7972288845	 0.12338
H	 1.7712069963	 0.3880896141	-1.3550430795	 0.11045
H	 1.9373225623	-0.5249293409	 1.0166616588	 0.112331
H	 0.87078508	-1.9179946942	 0.5317737321	 0.101484
H	-1.885426619	-0.2669024546	 0.9042077656	 0.08045
H	-3.1941149358	 0.6263202231	-0.9769849751	 0.131239
H	-1.7297078284	 0.6996912241	-2.0004886187	 0.132801
H	-1.45996117	-2.6624260562	-0.1889901051	 0.248192
74.2155	81.774	188.9365	229.0588	252.9337	310.4604	339.7661	413.8722	421.5491	481.8064	526.1746	570.5646	676.9319	767.3387	789.2912	840.9073	876.3671	915.9884	947.9469	952.6212	975.2055	1023.324	1039.8176	1044.8618	1067.4007	1084.3021	1105.6934	1136.1079	1175.75	1190.2028	1195.5456	1269.9996	1284.6238	1351.7408	1378.3918	1394.3565	1421.0627	1454.5921	1460.174	1493.6316	1497.5139	1510.2596	1896.9614	3012.0682	3023.5775	3080.8654	3087.152	3105.8257	3129.256	3135.1852	3147.0254	3208.3618	3224.2335	3600.4763
CC1(CC1)C1CC(=O)N1	CC1(CC1)[C@H]1CC(=O)N1	
InChI=1S/C7H11NO/c1-7(2-3-7)5-4-6(9)8-5/h5H,2-4H2,1H3,(H,8,9)	InChI=1S/C7H11NO/c1-7(2-3-7)5-4-6(9)8-5/h5H,2-4H2,1H3,(H,8,9)/t5-/m1/s1
