20
gdb 78546	2.38806	1.54853	1.25235	1.2839	79.81	-0.2049	0.0729	0.2779	1111.8115	0.168348	-403.047112	-403.037996	-403.037051	-403.080182	35.547	
C	-0.0367488477	 1.5239545731	-0.0121242483	-0.327423
N	 0.2284305692	 0.0897713102	 0.0472988081	-0.10552
C	 1.3762155018	-0.6846695074	-0.3313299369	-0.202916
C	 2.7751348621	-0.2339139157	 0.2351577382	 0.37388
O	 3.9286811093	-0.8779501758	-0.1763338289	-0.45197
C	 2.7720089669	 1.0456977279	 1.0143540556	-0.377752
C	 2.2129517663	-0.2264834341	 1.6333797321	-0.167601
C	 0.8251593595	-0.7207376579	 1.0701846274	 0.311742
C	 0.0242704783	-1.7601404815	 1.798141796	-0.479544
H	 0.6110149794	 2.0253223949	-0.738569534	 0.123313
H	-1.074602073	 1.6790888859	-0.3306997038	 0.115601
H	 0.0853119672	 2.0082748001	 0.9624448215	 0.126012
H	 1.302802407	-1.4171764351	-1.1311068351	 0.091893
H	 4.257902352	-0.4284246224	-0.9634771796	 0.284436
H	 3.7561551017	 1.2868278414	 1.4089403663	 0.115297
H	 2.176565339	 1.9123546543	 0.7675309138	 0.108443
H	 2.6517529448	-0.6532825632	 2.5259381663	 0.095465
H	-0.4497573086	-1.336601571	 2.692630354	 0.117143
H	-0.762065626	-2.1521239764	 1.1481883252	 0.128076
H	 0.6608122909	-2.5901655272	 2.123680222	 0.121425
104.3368	183.4784	204.6637	221.2129	246.0537	282.0193	284.2535	332.6502	376.1832	414.0082	512.1658	563.459	588.8054	652.5734	713.8469	796.6046	838.8728	858.113	916.2191	934.9931	954.8927	982.0839	1001.3412	1030.3059	1073.9167	1117.209	1124.0809	1144.9851	1160.0301	1187.656	1205.0262	1224.2276	1274.1041	1298.3123	1397.9922	1404.8449	1430.5278	1464.1939	1483.613	1488.974	1502.78	1506.1659	1519.0239	3011.9219	3022.6422	3064.5386	3081.6104	3096.906	3121.0556	3134.1308	3142.0395	3199.728	3244.8559	3775.9982
CN1C2C3(O)CC3C12C	CN1[C@H]2[C@@]3(O)C[C@H]3[C@@]12C	
InChI=1S/C7H11NO/c1-6-4-3-7(4,9)5(6)8(6)2/h4-5,9H,3H2,1-2H3	InChI=1S/C7H11NO/c1-6-4-3-7(4,9)5(6)8(6)2/h4-5,9H,3H2,1-2H3/t4-,5+,6+,7+,8?/m0/s1
