16
gdb 128656	3.62675	1.19167	0.90722	2.763	68.26	-0.2129	0.0369	0.2498	1247.4426	0.124717	-471.228514	-471.219568	-471.218624	-471.262665	31.168	
C	-0.0330710771	 1.3492192485	-0.0523860744	-0.228934
O	-0.0088327182	-0.0746079299	-0.0902294761	-0.249902
C	 0.6031346636	-0.6238499982	-1.1419517612	 0.461107
N	 0.6726076057	-1.9362563018	-1.2543923693	-0.370248
N	 1.3627493532	-2.072109781	-2.4436635833	-0.020599
C	 1.6771624043	-3.3748815784	-2.9793297338	-0.327103
C	 1.638984519	-0.8559061364	-2.9267828145	 0.456907
O	 2.3056759621	-0.6960159783	-4.0770808541	-0.424308
N	 1.1818450573	 0.1033507845	-2.1438532898	-0.468725
H	 0.980316752	 1.7621184056	-0.0282089823	 0.131473
H	-0.5576741139	 1.7596885887	-0.9209013399	 0.131518
H	-0.5649766312	 1.6105224745	 0.8633178843	 0.131325
H	 0.7583264037	-3.9375611878	-3.1658666732	 0.150609
H	 2.2204601603	-3.2422313547	-3.9155175514	 0.156217
H	 2.2967764209	-3.9335162632	-2.272470526	 0.150634
H	 2.3860849083	 0.2549305279	-4.2213368851	 0.32003
71.3724	98.0622	144.5434	171.882	209.9067	254.6899	278.127	385.2717	394.2582	409.9411	585.8266	658.6889	683.5096	702.1829	769.9786	851.2906	1020.5532	1043.9221	1130.6648	1157.0107	1168.5706	1181.1005	1211.4912	1286.885	1322.2007	1413.4317	1452.702	1468.0915	1477.6054	1482.2353	1500.8192	1511.1131	1565.7283	1596.7832	1665.918	3035.1871	3050.4978	3102.6522	3114.0951	3145.7822	3157.8258	3811.9432
COC1=NN(C)C(O)=N1	COc1nn(C)c(O)n1	
InChI=1S/C4H7N3O2/c1-7-4(8)5-3(6-7)9-2/h1-2H3,(H,5,6,8)	InChI=1S/C4H7N3O2/c1-7-4(8)5-3(6-7)9-2/h1-2H3,(H,5,6,8)
