19
gdb 82461	3.20722	1.61938	1.39268	2.3973	73.82	-0.2409	0.0691	0.3099	986.8822	0.16072	-422.988986	-422.981761	-422.980817	-423.0201	30.131	
C	-0.0222270047	 1.5339026486	 0.0679034334	-0.512611
C	-0.0543997351	 0.0284264702	 0.0541158842	 0.322183
C	-1.3080859682	-0.8386789097	 0.2964869952	-0.304495
C	-0.2939996086	-1.9887499554	 0.5178317766	-0.141113
C	 0.7591280447	-0.8935167515	 0.9996098208	 0.061828
O	 1.9022904062	-0.9141582655	 0.1188917387	-0.315292
C	 0.8974715083	-0.753541176	-0.937250153	-0.028889
C	 0.2709009488	-2.1683732702	-0.9148622576	 0.193689
O	 1.2167973106	-3.1875201672	-1.089204883	-0.457514
H	 1.0097709631	 1.8999687383	 0.0691318569	 0.132502
H	-0.5261930008	 1.9491837975	-0.8123435841	 0.121116
H	-0.5255393254	 1.9306931606	 0.9561078697	 0.118406
H	-1.8157093213	-0.5277347012	 1.2145561925	 0.101284
H	-2.0455809555	-0.9596050702	-0.5030792847	 0.097262
H	-0.5266799006	-2.8878162401	 1.0839796693	 0.075517
H	 0.9811973812	-0.7344740734	 2.0538300112	 0.086909
H	 1.3001193062	-0.3406616271	-1.8616862834	 0.08121
H	-0.518476286	-2.3185521296	-1.6556568543	 0.083852
H	 1.9973254172	-2.8912265481	-0.5988358384	 0.284157
188.3532	223.0117	243.6863	297.7895	354.2659	420.0904	489.7166	533.3295	555.7859	677.0534	711.8951	762.6511	815.123	841.1191	862.3058	884.0931	911.9076	925.2107	942.5709	965.1676	996.9743	1023.8112	1068.3451	1096.2262	1117.7444	1160.1011	1160.9738	1197.5131	1202.1273	1221.7799	1235.7964	1255.9835	1271.7753	1291.7133	1338.3153	1360.7763	1411.6255	1449.6929	1491.8159	1492.6121	1503.6611	3026.9473	3045.8798	3084.8631	3090.2599	3098.794	3101.6199	3129.9693	3132.8168	3148.062	3734.2192
CC12CC3C1OC2C3O	C[C@]12C[C@@H]3[C@H]1O[C@H]2[C@H]3O	
InChI=1S/C7H10O2/c1-7-2-3-4(8)6(7)9-5(3)7/h3-6,8H,2H2,1H3	InChI=1S/C7H10O2/c1-7-2-3-4(8)6(7)9-5(3)7/h3-6,8H,2H2,1H3/t3-,4-,5+,6-,7-/m0/s1
