22
gdb 121377	4.3209	0.81432	0.72092	1.9841	84.31	-0.2444	0.0256	0.27	1630.1895	0.195524	-404.374516	-404.365273	-404.364329	-404.409124	34.252	
C	 0.0261436079	 1.5813782777	 0.0302025459	-0.381713
C	 0.0084107496	 0.0506857258	 0.0221789507	-0.165674
C	-1.4084956545	-0.5302414971	 0.0222292265	-0.167511
C	-1.4442097786	-2.0628802273	-0.0479933472	 0.045458
C	-2.8617358136	-2.6232676232	 0.1292671467	-0.243891
C	-2.8557196198	-4.1115913117	-0.1911504096	-0.078921
O	-2.3115779454	-4.3602756561	-1.4974426576	-0.226259
C	-1.3211602641	-3.5237867095	-1.8904575749	 0.129977
N	-0.8476611024	-2.5037466235	-1.3141704616	-0.275063
H	 1.0501874006	 1.9680640022	 0.0357049268	 0.109539
H	-0.4766797977	 1.9872329077	-0.8548395047	 0.112925
H	-0.4853970161	 1.9836295807	 0.9123797403	 0.107513
H	 0.5401961124	-0.3285900895	-0.8562153207	 0.122273
H	 0.5522143525	-0.3267789819	 0.8989711905	 0.085317
H	-1.9427728704	-0.2075073007	 0.926481837	 0.082981
H	-1.9706001803	-0.1320533039	-0.8332976741	 0.094106
H	-0.8089386771	-2.4502263198	 0.7637172171	 0.080941
H	-3.2295679495	-2.4645788536	 1.1484895023	 0.103728
H	-3.5484171928	-2.1064629798	-0.5522832076	 0.111516
H	-2.2535443894	-4.6648704906	 0.5413514895	 0.112148
H	-3.8605396185	-4.5407428269	-0.2019476179	 0.118144
H	-0.9346419227	-3.847649479	-2.8558025574	 0.122464
69.1786	89.8046	107.1882	158.7383	246.6576	258.3349	302.1586	347.2364	389.0114	513.1853	538.6219	589.3743	745.5491	790.8334	820.6245	864.5686	891.7165	905.1301	947.1425	967.6119	1001.064	1029.4537	1049.0858	1074.2703	1107.1642	1139.9965	1167.7828	1182.2504	1231.054	1259.3565	1268.195	1297.0017	1323.2429	1341.4601	1359.1576	1376.8037	1393.6962	1404.3423	1412.5388	1418.132	1473.7991	1482.2777	1494.5318	1500.4757	1510.7937	1511.068	1730.7044	2979.7033	3007.2695	3016.4729	3022.8768	3026.289	3035.7049	3047.3208	3075.2206	3083.7615	3097.9834	3099.5179	3099.7598	3150.8801
CCCC1CCOC=N1	CCC[C@H]1CCOC=N1	
InChI=1S/C7H13NO/c1-2-3-7-4-5-9-6-8-7/h6-7H,2-5H2,1H3	InChI=1S/C7H13NO/c1-2-3-7-4-5-9-6-8-7/h6-7H,2-5H2,1H3/t7-/m0/s1
