18
gdb 70512	2.38023	1.90577	1.21587	3.7015	78.55	-0.2336	-0.0459	0.1877	1039.8887	0.148809	-401.966769	-401.958874	-401.95793	-401.998909	30.838	
C	 0.1750844401	 1.5052896367	-0.0529130924	-0.47379
C	 0.1052379491	-0.0022545234	-0.0193748601	 0.177989
N	-0.7917764885	-0.6675816048	 0.9669721591	-0.357481
C	 0.6587936192	-0.7741330252	 1.1378817517	-0.083363
C	 1.2403018706	-2.1592182243	 0.9554743263	-0.280037
C	 0.9031420968	-2.7854634585	-0.3656850666	-0.049358
C	 0.3763721864	-2.1237354611	-1.4016127237	-0.138403
C	 0.0858125552	-0.6777872693	-1.3695468564	 0.375662
O	-0.1333754718	-0.0421706035	-2.3841853963	-0.341137
H	 1.0735728855	 1.8453828879	-0.5763102857	 0.134368
H	-0.6852476605	 1.9155504295	-0.5885073931	 0.143911
H	 0.1912415445	 1.9148147987	 0.9624074405	 0.104262
H	-1.165949708	 0.0441665759	 1.5910177823	 0.233952
H	 1.1156556925	-0.1813635301	 1.9282873484	 0.088236
H	 2.3343646183	-2.122328437	 1.0612433764	 0.123156
H	 0.888394216	-2.8101937157	 1.7676128387	 0.126164
H	 1.1355687219	-3.843201484	-0.4690014377	 0.107532
H	 0.1905243226	-2.6112890119	-2.3532114814	 0.108335
95.821	185.469	229.7565	257.1635	304.549	353.013	393.0621	458.0775	500.4175	544.279	650.9933	661.4427	758.3287	813.1431	848.1779	868.4455	888.042	948.4918	972.0402	1009.5179	1030.6963	1048.2368	1103.585	1121.6803	1146.2995	1172.1047	1222.3814	1236.6062	1303.7599	1376.7902	1379.4794	1414.0158	1421.8482	1449.1638	1456.9048	1477.6535	1497.7419	1693.0692	1764.9252	3006.4713	3034.0485	3039.0879	3109.7181	3118.5682	3122.0797	3151.6198	3190.8698	3490.0214
CC12NC1CC=CC2=O	C[C@]12N[C@H]1CC=CC2=O	
InChI=1S/C7H9NO/c1-7-5(8-7)3-2-4-6(7)9/h2,4-5,8H,3H2,1H3	InChI=1S/C7H9NO/c1-7-5(8-7)3-2-4-6(7)9/h2,4-5,8H,3H2,1H3/t5-,7-/m0/s1
