16
gdb 11770	4.57245	1.72117	1.5662	4.5987	68.97	-0.2431	0.0226	0.2657	841.1648	0.133952	-342.773134	-342.766789	-342.765845	-342.80343	25.379	
N	 0.0056123357	-1.1381835689	-0.0730792372	-0.341155
C	-0.004853392	 0.0168481875	-0.0331312481	 0.180283
C	 0.0240308356	 1.4637336955	 0.0258938136	 0.22772
C	-0.280130562	 2.2611585094	 1.3278885167	-0.236586
C	 0.4258936223	 3.3915275955	 0.518323538	-0.060511
C	 1.3596752129	 2.2755280992	-0.0386073669	-0.259292
C	-0.5637958456	 3.570445344	-0.6449883961	-0.167913
N	-0.8814860965	 2.1337680486	-0.9401296466	-0.332448
H	-1.3339685375	 2.3780762459	 1.5856107377	 0.119689
H	 0.3044273697	 1.9124980704	 2.1790913737	 0.119879
H	 0.8160705964	 4.288257814	 0.9958912318	 0.082409
H	 2.1037105972	 1.938849767	 0.6846739395	 0.11958
H	 1.8087333777	 2.409943705	-1.0263248001	 0.101674
H	-1.4687600147	 4.1119696757	-0.3518332062	 0.113765
H	-0.1168347488	 4.0819485557	-1.5035834051	 0.104858
H	-0.6016223906	 1.8958893855	-1.8869907448	 0.228046
162.0908	168.5719	330.435	447.2031	488.0932	522.2261	550.3251	570.2519	659.4141	822.2264	850.3598	860.4557	896.6508	899.2376	953.0689	969.1163	998.7487	1008.0582	1028.9438	1092.0345	1119.8833	1141.4754	1162.8434	1204.9178	1221.788	1258.1304	1270.9685	1292.3228	1345.5504	1409.1455	1478.4925	1507.3016	1528.819	2360.4395	3040.9633	3064.7606	3081.7822	3085.2168	3136.2305	3139.4838	3156.8532	3513.2048
N#CC12CC(C1)CN2	N#C[C@@]12C[C@@H](C1)CN2	
InChI=1S/C6H8N2/c7-4-6-1-5(2-6)3-8-6/h5,8H,1-3H2	InChI=1S/C6H8N2/c7-4-6-1-5(2-6)3-8-6/h5,8H,1-3H2/t5-,6+
