25
gdb 101441	2.78765	0.98526	0.82449	1.4067	88.96	-0.2541	0.0684	0.3226	1538.5593	0.227858	-389.489214	-389.478566	-389.477622	-389.524792	39.912	
C	-0.0167553629	 1.5748024845	 0.1462553159	-0.382962
C	-0.047287672	 0.0527161032	-0.0111553433	-0.186856
C	 0.7555212201	-0.4450630216	-1.2205661748	 0.117856
O	 2.1216138369	-0.023580598	-1.1526643254	-0.43599
C	 0.6631554851	-1.9557160849	-1.395161622	 0.022097
C	-0.6946699955	-2.6010205322	-1.7914494968	-0.240298
C	 0.0811971198	-3.5901805887	-2.7016891399	-0.226458
C	 1.3200867189	-2.6458791686	-2.6391753949	 0.003568
C	 1.4965889274	-1.76476833	-3.8736898807	-0.400218
H	 1.0145936625	 1.9323173868	 0.2030555053	 0.127451
H	-0.4914768469	 2.0681303007	-0.7092244597	 0.112505
H	-0.5450652082	 1.8926509161	 1.0502101396	 0.106455
H	 0.3548160284	-0.4257148009	 0.8943649288	 0.08118
H	-1.0825186784	-0.298343622	-0.1056798467	 0.100525
H	 0.3704313839	 0.0484338568	-2.1220344455	 0.081064
H	 2.5280976819	-0.4816838651	-0.4081481954	 0.274185
H	 1.0405425451	-2.4316987236	-0.4786734363	 0.053392
H	-1.3079038554	-3.0210913582	-0.9907095064	 0.094858
H	-1.3165645775	-1.9108597314	-2.3710087124	 0.099516
H	 0.2625863845	-4.5477154222	-2.2054935129	 0.096118
H	-0.3347349131	-3.789054265	-3.6933449523	 0.092654
H	 2.2682679091	-3.1466484117	-2.4218547507	 0.06146
H	 0.5564674867	-1.2873495128	-4.1730745468	 0.107806
H	 2.2306733569	-0.9757360228	-3.688357631	 0.134813
H	 1.8393937929	-2.3654486284	-4.7232195159	 0.105278
78.5822	88.2025	122.3357	124.5229	210.5625	246.4938	250.4239	276.2229	285.9477	339.0545	369.328	398.2179	484.5324	546.6305	681.8828	770.2367	787.5747	814.6291	884.4698	888.3006	915.6585	955.438	976.6056	981.884	1022.8133	1051.4458	1059.121	1095.6681	1105.0002	1126.7006	1168.4481	1173.7389	1219.6231	1235.868	1260.3391	1265.1289	1278.8489	1284.823	1293.6771	1329.9845	1366.0617	1377.0988	1397.3648	1404.6405	1409.3762	1419.2935	1480.2749	1481.894	1495.1447	1498.903	1500.0215	1508.1805	1509.1774	2993.9427	3000.1162	3027.4341	3034.0462	3036.663	3046.7394	3047.1898	3054.5451	3057.5596	3089.7385	3093.6843	3100.3941	3109.8088	3115.1673	3122.4933	3792.3576
CCC(O)C1CCC1C	CC[C@@H](O)[C@H]1CC[C@H]1C	
InChI=1S/C8H16O/c1-3-8(9)7-5-4-6(7)2/h6-9H,3-5H2,1-2H3	InChI=1S/C8H16O/c1-3-8(9)7-5-4-6(7)2/h6-9H,3-5H2,1-2H3/t6-,7+,8-/m1/s1
