19
gdb 86726	2.57727	1.33516	1.1133	3.2908	79.1	-0.2284	-0.0263	0.2021	1181.7816	0.156792	-423.047468	-423.038128	-423.037184	-423.081861	33.782	
C	 0.4004761866	 1.4174210143	-0.3114844571	-0.394047
C	 0.0054799908	-0.0158900804	 0.0487646699	 0.034664
O	 0.3269200653	-0.9040794445	-1.0314669453	-0.260194
C	 1.3178967784	-1.8235444105	-0.6356672582	-0.01919
C	 2.6610094844	-1.5687638795	-1.3270816702	 0.152722
O	 2.951482444	-0.5644807484	-1.9173460748	-0.235031
C	 1.4660536981	-1.6307880641	 0.8563443007	-0.242092
C	 0.7325097291	-0.590674065	 1.2463171169	 0.327812
C	 0.5839938325	-0.0231970058	 2.6205448291	-0.497835
H	 1.4741708766	 1.4731512784	-0.5077846418	 0.139275
H	-0.1297189303	 1.7293686302	-1.2151457292	 0.129498
H	 0.1395413085	 2.1107965604	 0.4949591928	 0.107197
H	-1.0846594698	-0.0585437012	 0.2029644114	 0.082002
H	 1.0054932448	-2.8492184744	-0.8986849203	 0.095653
H	 3.3829583532	-2.4128858246	-1.2128790306	 0.069023
H	 2.1043149276	-2.2454709444	 1.4782092882	 0.107666
H	 1.1529067726	-0.5979089421	 3.3553750917	 0.130199
H	 0.9315177839	 1.0160326802	 2.6594835058	 0.139815
H	-0.4678672062	-0.0140130987	 2.9320584312	 0.132862
66.2315	89.1257	156.3513	188.1819	208.7069	236.6007	250.5562	335.7341	341.4123	422.1781	561.0422	611.2515	690.4548	769.1767	796.7486	829.5772	848.1951	907.6723	957.3195	1014.4025	1026.1654	1039.881	1070.308	1093.7571	1115.5681	1134.0237	1213.2387	1254.373	1293.5019	1343.1318	1356.7404	1365.6265	1402.0206	1414.115	1414.6822	1477.7505	1483.872	1488.3673	1497.2353	1721.4833	1844.7918	2842.2147	2953.9509	2973.5785	3025.1214	3040.8887	3074.2057	3114.5378	3119.0724	3133.1761	3215.2302
CC1OC(C=O)C=C1C	C[C@H]1O[C@@H](C=O)C=C1C	
InChI=1S/C7H10O2/c1-5-3-7(4-8)9-6(5)2/h3-4,6-7H,1-2H3	InChI=1S/C7H10O2/c1-5-3-7(4-8)9-6(5)2/h3-4,6-7H,1-2H3/t6-,7-/m1/s1
