18
gdb 36231	4.03023	1.01755	0.84051	2.4953	79.	-0.2436	0.0278	0.2714	1358.478	0.147686	-401.933149	-401.924505	-401.923561	-401.96709	32.044	
C	-0.3110437545	-1.2156714934	-0.1138555672	-0.456115
C	-0.0989202038	-0.0369545723	-0.0331957902	 0.354112
C	 0.093397294	 1.4007999629	 0.0656372809	-0.478605
C	 1.537950487	 1.8638988923	 0.0685636335	 0.427789
N	 2.5204553694	 1.0704487587	 0.0765904236	-0.300502
C	 3.8725218849	 1.6160896274	 0.026577557	-0.152626
C	 3.921721561	 3.0668132921	-0.462936987	-0.232829
C	 2.8299768398	 3.848912603	 0.2535952109	-0.07067
O	 1.5505522679	 3.2287151756	 0.0646768266	-0.262765
H	-0.4752736306	-2.2619584794	-0.1851024197	 0.193482
H	-0.4152531339	 1.9136619291	-0.761231094	 0.152134
H	-0.3823571669	 1.7873834134	 0.9769284651	 0.151328
H	 4.3156281968	 1.5344888522	 1.0286780206	 0.111467
H	 4.4721640037	 0.9679902974	-0.6218355525	 0.113828
H	 4.8988956988	 3.5225992678	-0.2733828883	 0.104965
H	 3.7418376394	 3.1051369023	-1.5432490064	 0.115913
H	 3.0348457494	 3.9024761356	 1.3313880763	 0.111258
H	 2.7228820175	 4.8678400353	-0.1258861892	 0.117836
43.3125	119.7876	128.2177	205.3489	302.8269	310.7659	335.3616	410.5024	503.1085	527.2411	605.6904	624.4671	647.9432	707.1923	831.0835	877.0151	888.0258	933.1152	952.1919	964.453	1000.2839	1075.8549	1123.866	1151.8528	1176.4798	1222.0656	1233.4169	1254.5924	1303.6923	1346.8491	1368.6375	1381.9365	1414.6928	1451.7234	1478.878	1489.5196	1513.9677	1763.0444	2252.9376	3013.3538	3019.1012	3022.4018	3041.0026	3048.0155	3060.5487	3090.3251	3101.2029	3508.6626
C#CCC1=NCCCO1	C#CCC1=NCCCO1	
InChI=1S/C7H9NO/c1-2-4-7-8-5-3-6-9-7/h1H,3-6H2	InChI=1S/C7H9NO/c1-2-4-7-8-5-3-6-9-7/h1H,3-6H2
