18
gdb 55340	2.79133	1.23613	0.95252	5.9986	74.7	-0.2389	-0.0303	0.2087	1250.5276	0.145957	-439.113282	-439.103831	-439.102886	-439.14892	32.513	
C	 0.0545539992	 1.458278675	-0.023320483	-0.4816
C	 0.0778167654	-0.0568273181	 0.0424038759	 0.369263
O	 1.0923283733	-0.6915966843	 0.1992305515	-0.285127
C	-1.2834414768	-0.7378670191	-0.1082453268	-0.095635
C	-1.7622809687	-0.8877802101	-1.5961372229	-0.265012
C	-1.6597593332	-2.4288315483	-1.40528201	-0.158569
N	-1.2850455712	-2.1911907111	-0.0118809866	-0.02471
C	-0.6968693009	-3.0521811547	 0.8578377908	 0.140307
O	-0.5794769759	-4.2409231937	 0.6488734745	-0.330244
H	 1.0710001137	 1.840625056	-0.1203720323	 0.152576
H	-0.5645123764	 1.8144617568	-0.8533449952	 0.140458
H	-0.3896813815	 1.85324836	 0.8982850678	 0.150679
H	-2.0109608669	-0.2374310111	 0.5445391724	 0.100473
H	-2.7675392995	-0.5099060046	-1.7811655329	 0.125102
H	-1.0774769176	-0.4712672074	-2.3361304791	 0.12567
H	-2.5942795395	-2.9846205035	-1.5246829673	 0.125916
H	-0.8748139671	-2.9248372342	-1.9840490668	 0.135248
H	-0.3648930364	-2.5523493878	 1.78724642	 0.075204
49.0295	65.7343	99.925	102.6066	171.5008	223.4516	285.7328	320.6654	372.3815	509.3917	582.565	638.8011	733.6776	798.9326	824.0859	908.2381	938.7148	973.7539	987.6939	1002.5236	1028.1769	1095.848	1156.2654	1177.7466	1202.949	1210.8821	1245.1788	1267.011	1314.9683	1357.3483	1381.6663	1389.6384	1441.8201	1462.5779	1474.4394	1489.371	1523.3681	1789.5616	1821.8274	2957.6436	3013.9809	3037.3288	3051.3713	3090.0077	3095.1983	3097.977	3148.2953	3156.041
CC(=O)C1CCN1C=O	CC(=O)[C@H]1CCN1C=O	
InChI=1S/C6H9NO2/c1-5(9)6-2-3-7(6)4-8/h4,6H,2-3H2,1H3	InChI=1S/C6H9NO2/c1-5(9)6-2-3-7(6)4-8/h4,6H,2-3H2,1H3/t6-/m1/s1
