16
gdb 46984	2.78691	1.87641	1.49602	3.9183	65.22	-0.2623	0.0112	0.2735	903.2578	0.127171	-475.028759	-475.021947	-475.021003	-475.060126	26.378	
N	-0.1037543551	 1.2884801354	-0.1870917615	-0.519213
C	-0.0036312655	 0.052172925	 0.0427822102	 0.425964
O	 1.1945125381	-0.5810764173	 0.2285733624	-0.269453
C	 1.2049481711	-1.8570283838	 0.8953629354	-0.085896
C	-0.1033367805	-2.6078062971	 0.6953459747	 0.026647
C	-0.45843803	-2.8217038942	-0.7922489256	-0.094477
O	-1.2229817121	-1.6602960318	-1.1222118787	-0.256362
C	-1.2292827704	-0.8490961806	 0.0407384486	 0.082103
O	-1.1593802667	-1.7430495409	 1.1311175928	-0.246009
H	 0.8170724321	 1.7332114143	-0.1747068774	 0.223598
H	 2.0556596148	-2.4107946664	 0.4870694556	 0.122724
H	 1.371608858	-1.6888521457	 1.9661071467	 0.124692
H	-0.1251212446	-3.5213593459	 1.2924578629	 0.103758
H	 0.4290949095	-2.890784771	-1.4304794399	 0.116975
H	-1.0782983795	-3.7118913229	-0.9389374886	 0.118983
H	-2.1436815994	-0.2594411672	 0.0828470423	 0.125967
111.895	155.6696	241.6633	345.5666	403.5597	442.8918	517.5936	652.8214	707.4153	772.4188	820.5653	839.4143	868.7077	900.5978	931.7432	948.2917	988.5716	1017.8817	1058.4839	1065.9036	1097.2269	1122.8789	1164.6639	1211.4972	1243.1104	1284.4062	1312.9748	1331.7731	1337.4221	1358.4519	1379.8864	1426.0599	1500.4225	1522.8722	1770.8162	3034.7135	3039.6943	3082.538	3093.3068	3107.3604	3148.1121	3459.8663
N=C1OCC2COC1O2	[NH][C]1OC[C@@H]2CO[C@H]1O2	
InChI=1S/C5H7NO3/c6-4-5-8-2-3(9-5)1-7-4/h3,5-6H,1-2H2	InChI=1S/C5H7NO3/c6-4-5-8-2-3(9-5)1-7-4/h3,5-6H,1-2H2/t3-,5+/m1/s1
