14
gdb 25412	5.14858	1.04396	0.86797	2.2724	78.89	-0.2364	-0.0701	0.1663	1230.9536	0.101866	-436.732236	-436.724915	-436.723971	-436.764343	27.284	
N	-0.0045846631	 1.3364500136	 0.0098690338	-0.518284
C	-0.0334266456	 0.0716718958	 0.0034465795	 0.384306
O	 1.1811512623	-0.6557521799	-0.0076454577	-0.230345
C	 1.1918834987	-1.9898804884	-0.0146420232	 0.037017
C	 0.0735611409	-2.7520498608	-0.0118753906	 0.058947
C	 0.1809285515	-4.2136656279	-0.0201338034	 0.093843
O	-0.7688552124	-4.9644954936	-0.0179983333	-0.277857
C	-1.2026795574	-2.0728829077	-0.0006518706	-0.135951
C	-1.2450570671	-0.7280678189	 0.0065979786	-0.147565
H	 0.952760022	 1.6877960448	 0.0059305771	 0.230601
H	 2.2009055079	-2.3904029151	-0.0228050587	 0.150698
H	 1.2241696117	-4.6007910357	-0.028132838	 0.072271
H	-2.100611407	-2.6800045748	 0.0015976958	 0.145128
H	-2.1709677224	-0.1677247214	 0.0150923006	 0.137191
84.8353	162.8422	188.7731	292.41	397.5952	401.3601	428.0375	496.5481	624.3742	638.8292	730.3413	762.6811	795.7237	840.5523	873.3662	916.0389	959.0461	1022.0654	1035.4293	1047.5953	1162.6162	1210.9682	1254.5317	1301.8851	1362.0814	1429.0316	1451.2563	1614.4065	1681.4494	1749.2785	1788.7727	2882.7771	3190.6979	3207.4319	3228.781	3499.6377
N=C1OC=C(C=O)C=C1	[NH]C1=CCC(=CO1)C=O	
InChI=1S/C6H5NO2/c7-6-2-1-5(3-8)4-9-6/h1-4,7H	InChI=1S/C6H6NO2/c7-6-2-1-5(3-8)4-9-6/h2-4,7H,1H2
