22
gdb 110864	2.17201	1.36349	1.18492	2.0774	83.35	-0.2249	0.0689	0.2938	1228.8311	0.19245	-404.306395	-404.296554	-404.29561	-404.340841	37.116	
C	-0.0947938454	 1.5171467499	-0.2741756868	-0.374027
C	 0.0587576101	 0.1043820521	 0.2838282193	-0.1213
N	-1.209381993	-0.6150510323	 0.1580703259	-0.116702
C	-1.6321223976	-1.2994677501	-1.0408959269	-0.099159
C	-0.476493401	-2.0335674845	-1.7427898323	-0.303367
C	-0.265728912	-2.8530745135	-0.424351637	 0.064188
O	 0.9776309667	-2.8260396642	 0.2452971742	-0.430848
C	-1.3825755487	-2.0466903471	 0.2616438317	 0.313703
C	-2.311838965	-2.6046626854	 1.3007782618	-0.49256
H	 0.8265096676	 2.090918038	-0.1330693201	 0.108164
H	-0.3150194281	 1.4929779069	-1.347118389	 0.113388
H	-0.9144939819	 2.0432716574	 0.2236935854	 0.121428
H	 0.9023383965	-0.4065776828	-0.1942172058	 0.102264
H	 0.2914974636	 0.1449499707	 1.3539168807	 0.102144
H	-2.5767777145	-1.0235807891	-1.4984560188	 0.088278
H	-0.7998716234	-2.6572091565	-2.5795806357	 0.098769
H	 0.3632636272	-1.4124345322	-2.0670934695	 0.102042
H	-0.601953816	-3.889070932	-0.5739606107	 0.073187
H	 1.5927844395	-3.3898089329	-0.2345714348	 0.284093
H	-1.7936393768	-2.726767156	 2.2592505586	 0.127173
H	-3.1549607381	-1.9275269111	 1.4586037166	 0.128475
H	-2.69777049	-3.5861819353	 1.0041933535	 0.110669
59.2057	142.1507	172.1586	189.7585	204.8027	246.603	265.175	275.4904	296.4321	408.2865	426.1973	518.9203	588.8021	654.2308	719.1348	773.5041	803.9091	841.3061	899.4605	918.4596	945.3796	977.7595	1017.7131	1044.5174	1084.4856	1100.1637	1111.6983	1152.7814	1162.3824	1180.059	1208.0301	1221.3896	1233.2118	1272.5586	1305.2001	1315.3934	1380.2939	1397.2348	1406.2444	1414.7451	1454.0856	1477.2877	1483.8973	1489.0206	1494.9139	1499.7703	1519.4918	2995.1175	3028.3979	3033.4063	3034.6116	3056.3411	3064.8924	3086.3458	3102.5388	3109.3321	3116.1284	3120.6949	3161.7615	3812.4324
CCN1C2CC(O)C12C	CCN1[C@H]2C[C@@H](O)[C@@]12C	
InChI=1S/C7H13NO/c1-3-8-5-4-6(9)7(5,8)2/h5-6,9H,3-4H2,1-2H3	InChI=1S/C7H13NO/c1-3-8-5-4-6(9)7(5,8)2/h5-6,9H,3-4H2,1-2H3/t5-,6+,7-,8?/m0/s1
