14
gdb 17933	3.36348	2.52853	2.02115	3.2135	62.1	-0.2083	-0.0562	0.1521	707.6134	0.106709	-378.56878	-378.562351	-378.561407	-378.598834	25.593	
N	-0.2726268456	 1.550681598	 0.0574961534	-0.621851
C	-0.1163127729	 0.1512945156	-0.0166277757	 0.227684
C	-1.1124835772	-0.9314108541	-0.2271588477	-0.126464
C	-0.7569468399	-1.5689574981	-1.594927204	-0.174667
N	 0.750943986	-1.6280647193	-1.5560767375	-0.225093
C	 0.9911752396	-0.8459553815	-0.5899320517	 0.184221
O	 1.3753258951	-1.3221406133	 0.6750850037	-0.264356
C	-0.028359893	-0.8973463821	 0.9897625497	 0.034006
H	 0.56190081	 2.0023567384	 0.4181449183	 0.24525
H	-0.4770033667	 1.9513391796	-0.8522409986	 0.243184
H	-2.1444659583	-0.8181550196	 0.1000244919	 0.100245
H	-1.0715971363	-2.6126695285	-1.6847609593	 0.13705
H	-1.1965174578	-1.0068618973	-2.4335609861	 0.107913
H	-0.301327233	-0.9649808878	 2.0361325637	 0.132878
202.2274	242.0596	282.51	319.0485	444.6013	505.2987	548.4684	597.7455	672.9155	711.2889	753.1252	815.2201	875.948	911.4934	925.6989	939.5309	959.9707	1005.6307	1024.133	1057.8832	1082.1089	1171.1857	1194.003	1256.5598	1283.7897	1320.5298	1481.8211	1498.8708	1615.8012	1655.9713	2982.1932	3082.5923	3141.6159	3198.8437	3499.7893	3579.3536
NC12C3CN=C1OC23	N[C@@]12[C@H]3C[N][C]1O[C@@H]23	
InChI=1S/C5H6N2O/c6-5-2-1-7-4(5)8-3(2)5/h2-3H,1,6H2	InChI=1S/C5H6N2O/c6-5-2-1-7-4(5)8-3(2)5/h2-3H,1,6H2/t2-,3+,5+/m0/s1
