19
gdb 63560	2.61597	1.45684	1.11957	2.609	77.54	-0.2476	0.0211	0.2686	1142.1328	0.158407	-419.213463	-419.204178	-419.203234	-419.247222	34.435	
C	-0.0494790332	 1.5355872745	-0.0318736874	-0.43598
C	-0.0465120423	 0.0222267506	 0.0309077776	 0.246761
C	-1.2594640954	-0.6620484424	-0.5678398281	-0.475316
N	 1.2848896601	-0.5867081835	-0.1757340288	-0.4147
C	 0.6711315692	-0.6549942941	 1.1438086715	 0.158654
C	 1.2834295493	-0.1469380173	 2.4648940956	-0.238016
N	 0.781448055	-1.396491283	 3.0594739965	-0.351227
C	 0.2771957433	-1.925071033	 1.8936501905	 0.392775
O	-0.2336565492	-2.9789813456	 1.610600684	-0.38151
H	 0.883359079	 1.9458635575	 0.3618306292	 0.126391
H	-0.1543672572	 1.8727248994	-1.0691297998	 0.123469
H	-0.8865352922	 1.9484436558	 0.5415701796	 0.117058
H	-1.30890166	-0.4694320014	-1.6459305221	 0.11836
H	-1.2299345485	-1.7409526778	-0.3980743484	 0.153833
H	-2.1822769143	-0.2755948211	-0.1219329146	 0.122543
H	 1.197255175	-1.4960761365	-0.6289192495	 0.240807
H	 2.3739544461	-0.0617923551	 2.4473698482	 0.12494
H	 0.8386258842	 0.7596766762	 2.8865704542	 0.115966
H	 0.8841356212	-1.7914935832	 3.9809666216	 0.255192
91.4937	137.4951	157.4825	184.8199	203.1145	242.6505	292.3096	340.1448	379.2435	441.1498	477.5391	525.8133	638.9752	685.854	764.341	792.8039	846.6148	948.2371	963.0008	974.1346	993.12	1015.0894	1064.0677	1094.6649	1142.3153	1147.9976	1171.2119	1182.0016	1230.7587	1283.4109	1320.8139	1374.8553	1411.224	1422.625	1457.5121	1481.7693	1486.8887	1501.9308	1519.8926	1522.5365	1877.3628	3028.5329	3033.9084	3044.9598	3089.3932	3095.3511	3097.1206	3124.0499	3127.7311	3467.9569	3634.5563
CC1(C)NC11CNC1=O	CC1(C)N[C@]21CNC2=O	
InChI=1S/C6H10N2O/c1-5(2)6(8-5)3-7-4(6)9/h8H,3H2,1-2H3,(H,7,9)	InChI=1S/C6H10N2O/c1-5(2)6(8-5)3-7-4(6)9/h8H,3H2,1-2H3,(H,7,9)/t6-/m1/s1
