17
gdb 101519	4.4224	0.55961	0.5166	4.2125	77.31	-0.2625	-0.0572	0.2053	2030.8135	0.132282	-458.927927	-458.917346	-458.916402	-458.965552	35.578	
O	 0.2888053139	 0.5232528718	 0.9656529669	-0.406837
C	-0.1087122929	 0.2697389358	-0.3712921698	-0.101577
C	-1.4829391773	-0.4093053751	-0.4685310023	 0.105024
O	-1.8684392378	-0.5706500084	-1.8201874482	-0.418563
C	-1.494731253	-1.7356992522	 0.3192145097	-0.38614
C	-2.8014143431	-2.3656774086	 0.3860395981	 0.088653
C	-3.8872901821	-2.8919822925	 0.4442976593	 0.057378
C	-5.1981344536	-3.4824487284	 0.4988647915	 0.016994
O	-5.4172591785	-4.6564930212	 0.6944851772	-0.231027
H	-0.2365815729	 1.2569653366	 1.3007077798	 0.292047
H	-0.1261418715	 1.181913181	-0.9828244898	 0.108916
H	 0.656734186	-0.3945811762	-0.7933863561	 0.104817
H	-2.2395772895	 0.2575024656	-0.0363950334	 0.097603
H	-1.2681640526	-1.2005004409	-2.2355709301	 0.285123
H	-0.7712662774	-2.4295988544	-0.1341202485	 0.129938
H	-1.1228311834	-1.5341746007	 1.3312471356	 0.160505
H	-6.0255944942	-2.7602425723	 0.3423523998	 0.097146
27.4193	53.6926	71.504	135.5832	165.9371	188.2112	215.6115	288.2418	315.5351	360.6904	404.0977	419.8508	474.537	524.3704	619.1131	818.0996	853.236	901.1683	1018.457	1022.7749	1066.8133	1096.1028	1111.1349	1160.8162	1171.47	1188.7388	1301.4842	1319.4852	1371.7411	1382.3787	1409.9579	1419.5667	1423.8997	1458.2853	1499.6077	1766.792	2331.2135	2915.3001	3004.2395	3010.666	3036.4976	3060.736	3066.7149	3794.4299	3818.9989
OCC(O)CC#CC=O	OC[C@@H](O)CC#CC=O	
InChI=1S/C6H8O3/c7-4-2-1-3-6(9)5-8/h4,6,8-9H,3,5H2	InChI=1S/C6H8O3/c7-4-2-1-3-6(9)5-8/h4,6,8-9H,3,5H2/t6-/m0/s1
