20
gdb 61606	3.48831	0.81053	0.72927	3.8288	80.22	-0.2759	0.0374	0.3133	1584.6935	0.169063	-403.153767	-403.143699	-403.142755	-403.189651	35.84	
C	-0.0254096903	 1.6090761463	 0.4226821189	-0.389655
C	-0.025228685	 0.1198808502	 0.0221042325	-0.143976
C	 0.7252227068	-0.7839700393	 1.034334712	-0.225824
C	 2.2112082785	-0.5141084899	 1.0490033715	 0.050022
O	 2.6854122034	 0.6221499575	 1.782962128	-0.257405
C	 3.0855997884	-0.6820769781	 2.2230726825	 0.072842
C	 2.6329199915	-1.1308035949	 3.58860254	-0.421657
C	-1.3989936427	-0.3648779361	-0.1523910231	 0.263927
N	-2.4818137613	-0.7497362061	-0.2770278356	-0.323466
H	 0.9995205423	 1.9681848936	 0.5266143621	 0.155237
H	-0.5415618409	 2.2107806284	-0.3292844654	 0.132795
H	-0.5341641265	 1.7480109701	 1.380716643	 0.135708
H	 0.4683223543	 0.0196888623	-0.9541105694	 0.126752
H	 0.2951997753	-0.6383560209	 2.0283794277	 0.123311
H	 0.5655554774	-1.8332719962	 0.7598009097	 0.124952
H	 2.6860494765	-0.6235443934	 0.0697556529	 0.08994
H	 4.1334258986	-0.9025489251	 2.0074037776	 0.092632
H	 1.5832767851	-0.8953641456	 3.7731730182	 0.130949
H	 2.7746771444	-2.2112880631	 3.6990489427	 0.127781
H	 3.2301989443	-0.6355939498	 4.3609955342	 0.135135
38.6022	81.7133	109.1641	164.335	195.1808	219.7504	240.2938	286.5167	323.7701	389.6675	457.9187	496.6281	562.4211	584.9842	762.9668	811.469	839.7035	890.3998	929.6819	947.5827	998.6021	1045.3397	1062.8246	1109.1436	1121.4896	1144.4435	1175.6969	1186.4245	1249.0695	1294.7407	1310.9727	1335.3098	1365.3952	1403.5622	1418.9375	1420.7256	1466.9494	1470.781	1490.2385	1493.7116	1500.8284	1512.7785	2355.9095	3021.3155	3041.7771	3046.2569	3055.4685	3063.9439	3085.6928	3103.1957	3109.125	3126.8334	3139.0988	3150.949
CC(CC1OC1C)C#N	C[C@@H](C[C@H]1O[C@H]1C)C#N	
InChI=1S/C7H11NO/c1-5(4-8)3-7-6(2)9-7/h5-7H,3H2,1-2H3	InChI=1S/C7H11NO/c1-5(4-8)3-7-6(2)9-7/h5-7H,3H2,1-2H3/t5-,6-,7+/m0/s1
