12
gdb 130873	2.2586	1.6171	0.94238	5.3669	69.41	-0.2704	-0.0719	0.1985	1113.8407	0.079538	-431.710761	-431.703489	-431.702545	-431.743041	25.787	
O	-0.0617663549	-0.0294174129	-0.0001524694	-0.268076
C	-0.0233372006	 1.1801297008	 0.008097425	 0.054706
C	 1.2240995885	 1.9488929748	-0.000252124	 0.030304
C	 2.5125035545	 1.4403749096	-0.0184345803	-0.070404
N	 3.3385874347	 2.5035542218	-0.0200948345	-0.178677
N	 2.7071136932	 3.689596046	-0.0042611548	-0.273517
C	 1.4143986418	 3.361092551	 0.0081418509	 0.199565
C	 0.4021469407	 4.3618856356	 0.0269649985	 0.252925
N	-0.4549209176	 5.138557855	 0.0423374244	-0.332507
H	-0.9481494864	 1.7923283609	 0.0232833974	 0.101723
H	 2.8642522677	 0.4215807368	-0.0298754505	 0.185604
H	 4.3465995485	 2.5000899905	-0.0315962126	 0.298354
117.5478	139.5661	175.3856	223.2004	273.5445	444.1785	514.5143	566.4444	607.2427	623.1875	686.664	749.6665	807.5128	852.526	956.6415	1044.6543	1085.9663	1131.0802	1225.9384	1332.8176	1385.7782	1426.9799	1458.0071	1502.3479	1568.5494	1790.6757	2359.9659	2928.8941	3279.9806	3653.8621
O=CC1=CNN=C1C#N	O=Cc1c[nH]nc1C#N	
InChI=1S/C5H3N3O/c6-1-5-4(3-9)2-7-8-5/h2-3H,(H,7,8)	InChI=1S/C5H3N3O/c6-1-5-4(3-9)2-7-8-5/h2-3H,(H,7,8)
