21
gdb 53956	2.47012	1.33211	1.16909	3.2564	78.83	-0.2291	0.0407	0.2698	1178.9155	0.180903	-420.415657	-420.405567	-420.404623	-420.450503	37.983	
C	 0.3151469467	 1.5669537906	-0.3860423277	-0.431731
C	 0.0316039173	 0.0715846183	-0.173723596	 0.150394
C	 0.5198391019	-0.3646171421	 1.2213247667	-0.393898
N	-1.3801918661	-0.3545356618	-0.2905841307	-0.098224
C	-2.4250507465	 0.3301547995	 0.4550131278	-0.225723
C	-2.3672382579	 0.4240178945	-1.0307173982	-0.229819
C	 0.8743515432	-0.7278844792	-1.2052166428	 0.4088
N	 0.2689562536	-1.8350779306	-1.6985452972	-0.531756
O	 2.0060725104	-0.3866317497	-1.499319868	-0.388392
H	 1.3883813186	 1.734275338	-0.290578949	 0.150109
H	 0.0282131045	 1.9000006239	-1.3869347814	 0.12205
H	-0.2027545249	 2.1835639172	 0.3550554036	 0.105517
H	 0.0269911157	 0.2247539042	 2.001026691	 0.110666
H	 0.2931943813	-1.420369923	 1.393286701	 0.121112
H	 1.5990997673	-0.2174687408	 1.3015563411	 0.138878
H	-3.1518924724	-0.3110148255	 0.9464730755	 0.117617
H	-2.1649308146	 1.2270457016	 1.0125024725	 0.116802
H	-2.0790671069	 1.3823437646	-1.452366388	 0.12118
H	-3.0491632877	-0.1538661815	-1.6486683532	 0.115307
H	-0.6607638386	-2.0644067749	-1.3873487367	 0.265922
H	 0.784732595	-2.4356585535	-2.3190296101	 0.25519
46.3169	84.277	194.6382	207.5434	245.7064	251.7322	283.5302	315.3474	322.2077	349.6999	398.7395	451.8214	486.2025	559.8832	667.6193	675.2121	778.7842	785.0088	821.4871	908.0242	934.0186	938.1965	986.2302	1019.2463	1042.0089	1098.4201	1115.5342	1126.5311	1161.6662	1172.4844	1191.8119	1214.2147	1223.6419	1322.6721	1358.6405	1387.4464	1409.7826	1477.8639	1482.7456	1493.802	1498.6014	1513.9719	1523.8507	1572.0174	1790.2225	3041.2466	3047.2094	3102.7965	3111.3684	3113.3398	3116.922	3134.4211	3148.534	3181.9494	3200.6201	3585.927	3733.5303
CC(C)(N1CC1)C(N)=O	CC(C)(N1CC1)C(=O)N	
InChI=1S/C6H12N2O/c1-6(2,5(7)9)8-3-4-8/h3-4H2,1-2H3,(H2,7,9)	InChI=1S/C6H12N2O/c1-6(2,5(7)9)8-3-4-8/h3-4H2,1-2H3,(H2,7,9)
