17
gdb 128090	3.64738	1.03407	0.89045	3.5346	70.64	-0.2388	-0.0658	0.173	1316.0466	0.134802	-451.259581	-451.250642	-451.249698	-451.294381	31.466	
C	-0.0831194507	 1.4875853003	 0.067455966	-0.321885
N	-0.1082858382	 0.0361466715	 0.1995804155	-0.285097
C	-1.4026547587	-0.5919043568	-0.073783771	-0.058215
C	-1.8299543155	-0.6265779609	-1.5499502936	-0.403861
C	-1.36081849	-1.9675883047	 0.5289864083	 0.42976
N	-1.1505749016	-3.0776890907	-0.1159599529	-0.154749
O	-1.1529057425	-4.0406956342	 0.8349271485	-0.142922
N	-1.3827081669	-3.4402917937	 2.0757979912	 0.038947
N	-1.5034349823	-2.2066949077	 1.8889072926	-0.194377
H	 0.9251321237	 1.8461907385	 0.2919387046	 0.129211
H	-0.3667469387	 1.8730980399	-0.9258421281	 0.10287
H	-0.7625235192	 1.9288391566	 0.8048892261	 0.131158
H	 0.6033633832	-0.3883084926	-0.3869230146	 0.22355
H	-2.1455789385	-0.0292398992	 0.5047242744	 0.114387
H	-2.8250986975	-1.0661542977	-1.6653717105	 0.130437
H	-1.8573527423	 0.3871252353	-1.9572459376	 0.124158
H	-1.1293094141	-1.2220267539	-2.1424860187	 0.136626
34.2261	91.9988	125.5256	192.0363	223.1672	238.7396	311.3479	354.0072	416.6883	488.3832	672.1796	674.9977	692.806	760.4635	797.8783	886.7494	960.0335	1009.8837	1053.6128	1061.3988	1075.1774	1111.6795	1153.6231	1162.4952	1210.5842	1249.5567	1346.5401	1381.9449	1408.7921	1458.3329	1478.5405	1486.6939	1492.7617	1497.2328	1505.8764	1519.7476	1592.7713	2966.6945	3043.1664	3046.5645	3063.7081	3110.6892	3118.1089	3126.353	3517.6797
CNC(C)C1=NON=N1	CN[C@@H](C)c1nonn1	
InChI=1S/C4H8N4O/c1-3(5-2)4-6-8-9-7-4/h3,5H,1-2H3	InChI=1S/C4H8N4O/c1-3(5-2)4-6-8-9-7-4/h3,5H,1-2H3/t3-/m0/s1
