19
gdb 78661	2.59271	1.55377	1.19188	1.009	74.41	-0.2402	0.0714	0.3115	1083.8258	0.158422	-422.966342	-422.95797	-422.957026	-422.998619	33.373	
C	 0.0073415638	 1.6389590174	-0.0486994936	-0.434936
C	 0.0841834352	 0.1170177388	-0.0160423168	-0.038975
C	 1.1115868178	-0.6688910493	-0.8925819112	-0.126174
C	 1.2368035677	-1.7307549043	 0.2790376058	-0.167307
C	 2.2423005872	-0.7483882285	 0.8816964056	-0.190814
C	 2.5183419726	-0.1379549665	-0.4896596175	 0.153874
O	 3.5859492665	-0.7430358983	-1.1887933287	-0.446604
C	 0.7284777747	-0.6291652336	 1.155143115	 0.38117
O	 0.2109467493	-0.7953767481	 2.4237611649	-0.46647
H	 0.9672836013	 2.1096195391	 0.1832899909	 0.118636
H	-0.3117009665	 1.9966583815	-1.033752529	 0.119997
H	-0.7237259984	 2.0007052966	 0.6829051107	 0.116214
H	-0.9118408561	-0.3114593208	-0.1815465395	 0.078115
H	 0.9019538165	-0.8899649579	-1.9375386017	 0.073658
H	 1.1282468989	-2.8028382102	 0.3462804962	 0.099847
H	 2.9335214408	-0.9267055656	 1.6968786206	 0.088092
H	 2.7007659851	 0.9375394925	-0.5700409106	 0.076533
H	 3.5066691078	-1.6967836419	-1.0640344019	 0.277457
H	 0.4743805758	-0.0414527309	 2.962756371	 0.287684
170.7381	195.3995	208.9447	224.8489	259.0174	299.0975	360.4748	382.3784	432.9333	500.4517	577.2142	629.0065	704.5795	791.2867	828.228	846.82	874.2642	904.1685	919.4585	939.7205	944.4174	1018.969	1035.0973	1085.3743	1099.0128	1115.6381	1128.5114	1139.6961	1162.4928	1214.1714	1243.6036	1258.4229	1287.9318	1298.0219	1308.6927	1383.5051	1408.3211	1440.4143	1447.6789	1495.4198	1503.9193	3031.4293	3035.8279	3069.4294	3092.7478	3110.4391	3135.7076	3189.222	3230.985	3778.7474	3796.463
CC1C2C3C(C2O)C13O	C[C@H]1[C@@H]2[C@H]3[C@@H]([C@H]2O)[C@@]13O	
InChI=1S/C7H10O2/c1-2-3-4-5(6(3)8)7(2,4)9/h2-6,8-9H,1H3	InChI=1S/C7H10O2/c1-2-3-4-5(6(3)8)7(2,4)9/h2-6,8-9H,1H3/t2-,3+,4-,5-,6-,7+/m0/s1
