19
gdb 51362	4.13125	0.92012	0.85828	3.0347	79.91	-0.2151	-0.021	0.194	1372.2917	0.158388	-385.811659	-385.803471	-385.802527	-385.84552	31.225	
O	 0.6675583907	-0.4825012116	-0.4512758596	-0.238447
C	 0.3802791609	 0.6795967547	-0.5673696646	 0.144029
C	 1.1631911032	 1.8323023295	 0.0312467847	-0.321675
C	 1.2955301183	 2.9880852817	-0.9659912402	-0.023717
C	 1.221086948	 4.4841253662	-0.7734292585	-0.097716
C	 2.0448388756	 5.1018015748	 0.3897271667	-0.05159
C	 2.8219766045	 4.1274594094	 1.2323540778	-0.302407
C	 3.3066360779	 4.4523991205	-0.1550993342	-0.050981
C	 2.4899645015	 3.8352816221	-1.3250001248	-0.089444
H	-0.525355172	 0.9915206594	-1.1419083944	 0.073558
H	 0.6006480099	 2.1531285469	 0.9189705277	 0.136832
H	 2.1247972334	 1.4390591623	 0.367893829	 0.139145
H	 0.7653562873	 2.7533307717	-1.891885884	 0.091496
H	 0.4917760116	 5.0760940724	-1.3131389538	 0.089099
H	 1.9023572124	 6.1304015984	 0.6944800068	 0.091046
H	 3.4076317791	 4.6106141347	 2.0102210028	 0.113057
H	 2.4488989511	 3.1580405625	 1.5265773764	 0.115268
H	 4.2718228397	 4.911061714	-0.3255917997	 0.091922
H	 2.8655425068	 3.8691751106	-2.3404456181	 0.090525
42.4344	70.1902	167.4793	202.5289	297.2466	378.0195	456.2164	494.7497	650.4222	684.9362	701.0494	706.2705	762.2688	802.629	863.8376	898.2194	899.2778	913.2098	964.0361	1008.2696	1015.966	1031.7872	1055.6257	1063.9018	1070.7741	1079.9514	1090.6941	1122.152	1178.7592	1222.6515	1238.249	1266.2965	1267.969	1297.8943	1332.1456	1373.7435	1427.8019	1455.5229	1458.971	1498.87	1837.9373	2841.2421	3018.3271	3074.6262	3107.4982	3137.8452	3172.849	3182.9048	3189.9097	3200.5408	3247.4348
O=CCC1C2C3CC3C12	O=CC[C@H]1[C@H]2[C@H]3C[C@H]3[C@@H]12	
InChI=1S/C8H10O/c9-2-1-4-7-5-3-6(5)8(4)7/h2,4-8H,1,3H2	InChI=1S/C8H10O/c9-2-1-4-7-5-3-6(5)8(4)7/h2,4-8H,1,3H2/t4-,5-,6+,7-,8+
