17
gdb 20819	3.34567	1.83821	1.30729	4.9009	70.33	-0.2447	0.0065	0.2511	957.6007	0.143118	-360.05345	-360.045366	-360.044422	-360.086513	28.511	
C	 0.0559418108	 1.5095743203	-0.1585670368	-0.373701
C	-0.0664879796	-0.0129724869	 0.0364467249	-0.302666
C	 0.6526918916	-0.5255648445	 1.2434088725	 0.315465
C	 0.2223270052	-0.8289281668	 2.5171292666	-0.152164
N	 1.2798961919	-1.2418558029	 3.2643919538	-0.191611
N	 2.3509685846	-1.2143968039	 2.526959268	-0.154337
N	 1.9879662248	-0.7798250695	 1.2969771811	 0.002435
C	 2.9911582917	-0.6688359446	 0.2591520946	-0.337766
H	 1.097734577	 1.8166815071	-0.2933240224	 0.12249
H	-0.5048115253	 1.8298296451	-1.0417311719	 0.12117
H	-0.3373551253	 2.0440460808	 0.7107286539	 0.133291
H	-1.1232206411	-0.28072528	 0.1349989775	 0.125826
H	 0.2953896677	-0.5282602462	-0.8619269363	 0.112303
H	-0.7758055752	-0.7778056089	 2.9229233972	 0.117858
H	 2.7075928309	-1.2560258039	-0.6190676939	 0.144486
H	 3.1376913351	 0.37306907	-0.0400005239	 0.145553
H	 3.9210825852	-1.0601826252	 0.6711603452	 0.171366
53.4984	114.0371	154.5322	196.3949	222.4896	280.1891	392.8351	420.5789	634.1907	706.8498	716.3149	727.1339	789.5827	845.333	965.7039	986.5525	1026.7553	1065.2459	1082.6766	1146.2044	1151.0079	1210.282	1268.4661	1286.0798	1309.764	1338.0957	1365.0449	1409.969	1441.9506	1478.2967	1486.5185	1491.8994	1498.3471	1503.5848	1505.2073	1588.7728	3031.3443	3040.6595	3046.5801	3077.1496	3108.5106	3112.1028	3119.9069	3163.0562	3261.8893
CCC1=CN=NN1C	CCc1cnnn1C	
InChI=1S/C5H9N3/c1-3-5-4-6-7-8(5)2/h4H,3H2,1-2H3	InChI=1S/C5H9N3/c1-3-5-4-6-7-8(5)2/h4H,3H2,1-2H3
