17
gdb 54224	2.26569	1.51873	1.32337	2.8739	70.66	-0.2391	-0.0226	0.2165	1058.8117	0.133875	-455.150692	-455.141291	-455.140347	-455.185014	34.119	
C	-0.1060357714	 1.5469733814	 0.1536490724	-0.491633
C	 0.0812414737	 0.0680157415	-0.0911221921	 0.357575
O	 1.1589723936	-0.4501656758	-0.2648156715	-0.30128
C	-1.20771822	-0.7733700706	-0.0610299055	 0.226983
O	-2.2939955567	-0.086910985	-0.6273431167	-0.478801
C	-1.0038929844	-2.2638230116	-0.4768556856	-0.210245
N	-1.0975366867	-2.5962167472	 0.9612252594	-0.329337
C	-1.5034434146	-1.3401636668	 1.339778091	 0.315685
N	-2.0293120344	-0.7445786725	 2.3255564656	-0.560362
H	 0.8664891305	 2.0361990804	 0.2121021065	 0.136404
H	-0.7058958095	 1.9835623639	-0.6499015651	 0.154913
H	-0.6653524407	 1.6951619314	 1.0845915171	 0.159049
H	-2.8984806113	 0.1231876486	 0.0966652321	 0.298386
H	-1.838831664	-2.6321185468	-1.0791383676	 0.117792
H	-0.0389715917	-2.5005015432	-0.9251285289	 0.138458
H	-1.3166017291	-3.4818144209	 1.3926980271	 0.247733
H	-2.2361455833	-1.3671506667	 3.1071169318	 0.218679
58.2722	105.1482	139.98	165.8866	232.6641	259.0973	298.9988	344.2041	410.3997	419.1719	474.9294	533.6382	607.9378	641.9376	709.3662	782.3969	822.6828	884.0094	935.5662	976.2621	998.1977	1054.2234	1063.4263	1108.1905	1156.8678	1223.5356	1239.1343	1259.2118	1324.2214	1364.8182	1377.71	1382.0858	1461.8207	1470.2002	1500.7789	1792.5536	1813.8465	3043.5397	3063.3653	3112.0901	3143.7337	3158.9732	3475.4951	3609.7196	3763.8936
CC(=O)C1(O)CNC1=N	CC(=O)[C@@]1(O)CN[C]1[NH]	
InChI=1S/C5H8N2O2/c1-3(8)5(9)2-7-4(5)6/h9H,2H2,1H3,(H2,6,7)	InChI=1S/C5H8N2O2/c1-3(8)5(9)2-7-4(5)6/h9H,2H2,1H3,(H2,6,7)/t5-/m0/s1
