19
gdb 115254	5.0864	0.84601	0.76739	1.0969	89.35	-0.2298	-0.0253	0.2045	1509.0688	0.157621	-385.871456	-385.86213	-385.861186	-385.906037	34.184	
C	 0.0090538599	 1.5301837192	-0.1701835597	-0.381221
C	-0.0059464701	 0.0063264895	-0.0307000459	-0.17447
C	-1.4204316607	-0.5533572319	 0.1728208031	 0.100759
O	-2.254515468	-0.2173519106	-0.9439403122	-0.279372
C	-2.8524311993	-1.3791477019	-1.4982742329	-0.171573
C	-2.2901858442	-2.5375750408	-0.6973177606	 0.172421
C	-1.4886073472	-2.0510575976	 0.2557273478	-0.235337
C	-2.6220377416	-3.8822241979	-0.9732931086	 0.218658
C	-2.938128005	-5.0112210027	-1.2513931512	-0.421186
H	 1.0250913616	 1.9006380547	-0.3353800157	 0.110361
H	-0.6127190846	 1.8429687676	-1.0129956905	 0.136951
H	-0.3811635846	 2.0134969677	 0.7326490932	 0.112051
H	 0.4248912215	-0.4627882495	-0.9231091881	 0.100376
H	 0.6111248756	-0.3028075844	 0.8229521061	 0.093037
H	-1.8469746843	-0.0912540065	 1.0815254586	 0.081831
H	-3.9487510713	-1.3264104258	-1.4136131972	 0.11272
H	-2.6083000134	-1.460275975	-2.5671771795	 0.115049
H	-0.9498738081	-2.6313504106	 0.9930177726	 0.112976
H	-3.2071113265	-6.0119353135	-1.4831957793	 0.195969
56.8568	96.0906	110.9465	158.7005	213.3171	236.2611	313.7188	396.6	469.237	517.5007	535.8682	568.6031	603.9399	640.0978	730.1377	796.5944	850.6002	890.6221	912.7121	939.2389	1002.0579	1041.4278	1047.4169	1079.6552	1116.9625	1139.1341	1196.6029	1203.1765	1271.1809	1286.6784	1311.2613	1346.6182	1381.4516	1387.555	1407.8492	1476.2651	1495.418	1508.9507	1524.956	1684.8285	2225.6518	2935.064	2985.0836	3013.4715	3024.0076	3036.2302	3065.3707	3102.3118	3123.828	3226.4348	3503.0116
CCC1OCC(=C1)C#C	CC[C@H]1OCC(=C1)C#C	
InChI=1S/C8H10O/c1-3-7-5-8(4-2)9-6-7/h1,5,8H,4,6H2,2H3	InChI=1S/C8H10O/c1-3-7-5-8(4-2)9-6-7/h1,5,8H,4,6H2,2H3/t8-/m1/s1
