16
gdb 35721	2.46185	1.58902	1.1513	3.8524	68.5	-0.2686	0.0142	0.2828	1060.4868	0.124281	-437.846817	-437.838759	-437.837815	-437.880119	28.94	
N	-0.2044330431	-1.1794511486	-0.2892451963	-0.329189
C	-0.1122818319	-0.041952121	-0.1063411958	 0.29951
C	-0.0207527579	 1.3899823232	 0.1085406403	-0.21784
C	 0.3168777796	 1.9241055005	 1.524805827	-0.081134
O	 1.3323730911	 2.7935530594	 0.9850299096	-0.27717
C	 1.2836922109	 2.1525562315	-0.3014216188	 0.088663
C	 2.5000475769	 1.303853942	-0.5740912433	 0.044277
C	 3.7646758302	 1.5693766005	 0.1220057205	-0.170337
O	 2.9269030169	 0.47116103	 0.4991170799	-0.225838
H	-0.9086282108	 1.8708287475	-0.3071985152	 0.138195
H	-0.4787483015	 2.4809025894	 2.0275130198	 0.12167
H	 0.7394520628	 1.1682485163	 2.1926739808	 0.140875
H	 1.1458059335	 2.8767506923	-1.1134867979	 0.099219
H	 2.5212554313	 0.8344961177	-1.5588523773	 0.110554
H	 4.7033940856	 1.2955442074	-0.3555873202	 0.121628
H	 3.8048854665	 2.3824679822	 0.8417541769	 0.136919
75.5905	106.6645	125.5253	207.8993	248.1286	270.8395	414.9735	526.1822	581.0398	595.2822	733.9605	787.8904	869.378	893.7475	930.0371	968.8018	988.3136	1012.579	1060.0083	1084.5452	1099.1502	1127.9616	1162.4158	1166.3664	1172.7956	1214.3055	1262.9922	1281.8613	1338.3052	1351.8675	1379.8131	1425.0656	1509.5467	1518.9296	2360.3529	3036.1894	3051.5175	3091.4661	3099.3158	3108.1256	3113.2799	3199.9121
N#CC1COC1C1CO1	N#C[C@H]1CO[C@H]1[C@H]1CO1	
InChI=1S/C6H7NO2/c7-1-4-2-9-6(4)5-3-8-5/h4-6H,2-3H2	InChI=1S/C6H7NO2/c7-1-4-2-9-6(4)5-3-8-5/h4-6H,2-3H2/t4-,5+,6+/m0/s1
