19
gdb 124611	4.0659	0.99495	0.97206	2.6055	78.32	-0.2702	-0.0127	0.2576	1338.5397	0.158927	-415.398974	-415.38948	-415.388536	-415.435152	33.183	
C	 0.0493613023	 1.5087856097	 0.0555681185	-0.387919
C	-0.0399060284	-0.0175721071	-0.0275446075	 0.053885
C	-1.4817719324	-0.5307493354	-0.0304966093	-0.388509
N	 0.6730307959	-0.5010670928	-1.2195862408	 0.132408
N	 0.2860906458	-0.2254853319	-2.45420801	-0.135477
N	 1.1555182757	-0.8001068653	-3.2499764796	-0.257053
C	 2.0591451475	-1.4156871159	-2.4475851421	 0.381818
C	 3.2268227585	-2.1947227012	-2.9470683209	-0.478037
N	 1.7763751233	-1.2407715179	-1.158127138	-0.293535
H	 1.0914322359	 1.839194733	 0.0647059407	 0.132881
H	-0.4542800844	 1.9699002412	-0.7980068632	 0.147623
H	-0.4317109631	 1.8567242669	 0.9740337732	 0.124924
H	 0.5125741087	-0.4660574265	 0.8011006082	 0.122254
H	-2.0304781534	-0.1316332897	-0.8871532176	 0.149393
H	-1.5085431645	-1.6225448754	-0.0789635622	 0.132126
H	-1.9863411009	-0.212777555	 0.886183521	 0.124494
H	 3.8838657859	-1.5628176132	-3.5519896917	 0.147457
H	 3.7969455516	-2.595706889	-2.1077343108	 0.143692
H	 2.896923806	-3.0236630245	-3.5801401878	 0.147576
21.2295	36.5657	119.1491	186.7653	218.6702	257.667	270.7222	297.0784	368.441	431.8121	500.6406	636.7241	724.3792	732.672	738.359	894.5094	940.0231	956.9643	1001.316	1053.448	1071.5258	1084.8807	1098.9357	1151.4427	1194.241	1226.7266	1267.0036	1351.7348	1373.4544	1382.6697	1400.0036	1411.0812	1419.9321	1434.0497	1479.3707	1482.4315	1486.2775	1489.213	1496.444	1511.7808	1543.2324	3046.989	3050.6591	3052.2642	3093.582	3110.4139	3122.0197	3125.5205	3130.2761	3137.9377	3147.5397
CC(C)N1N=NC(C)=N1	CC(C)n1nnc(C)n1	
InChI=1S/C5H10N4/c1-4(2)9-7-5(3)6-8-9/h4H,1-3H3	InChI=1S/C5H10N4/c1-4(2)9-7-5(3)6-8-9/h4H,1-3H3
