17
gdb 55941	4.27055	1.01657	0.90925	2.0302	69.03	-0.2347	0.0581	0.2928	1276.0129	0.136655	-455.137359	-455.12904	-455.128096	-455.171369	30.962	
N	-0.1051470088	 1.2668284549	-0.1444580759	-0.564716
C	 0.0179410858	-0.0738224978	 0.0928606169	 0.494003
O	 0.9938963315	-0.6159289179	 0.5583762636	-0.404566
O	-1.1082911544	-0.7156711897	-0.3072049373	-0.267376
C	-1.0890035151	-2.1286206934	-0.1366957447	 0.185501
C	-1.4315336723	-2.724019087	 1.2721028255	-0.253015
C	-2.575264187	-3.4881574246	 0.5964766692	-0.048968
N	-3.4843690972	-2.4458101344	 0.0716283621	-0.324425
C	-2.2948101901	-2.8442228794	-0.7224549255	-0.108542
H	 0.5710469415	 1.858588188	 0.3066275256	 0.267027
H	-1.0241502635	 1.6414166081	-0.3098976124	 0.266314
H	-0.1432606261	-2.5266075448	-0.5076913532	 0.107652
H	-0.6244009968	-3.3421038263	 1.6663871643	 0.115653
H	-1.7553473995	-1.9989836956	 2.0210707176	 0.113807
H	-2.9269491305	-4.490135855	 0.805152104	 0.097964
H	-4.2804184164	-2.9227401655	-0.3520109991	 0.229423
H	-2.403382451	-3.2240218695	-1.7306919907	 0.094264
36.5073	88.6611	121.3555	228.7972	347.9413	362.7009	381.5784	465.8573	511.4843	586.6285	630.8304	707.148	785.4686	801.3201	832.8148	865.6676	905.1958	947.2205	976.0695	1003.3899	1021.9625	1052.5087	1093.229	1113.7879	1130.4988	1134.3688	1158.7867	1208.555	1250.6803	1299.2181	1337.1161	1344.0831	1383.2215	1415.573	1469.959	1611.5614	1828.5828	3081.0083	3102.0665	3145.3098	3188.4409	3204.2318	3469.9521	3611.8664	3741.5021
NC(=O)OC1CC2NC12	NC(=O)O[C@H]1C[C@H]2N[C@@H]12	
InChI=1S/C5H8N2O2/c6-5(8)9-3-1-2-4(3)7-2/h2-4,7H,1H2,(H2,6,8)	InChI=1S/C5H8N2O2/c6-5(8)9-3-1-2-4(3)7-2/h2-4,7H,1H2,(H2,6,8)/t2-,3+,4-/m1/s1
