21
gdb 114091	2.86047	1.25292	1.0539	2.6816	78.15	-0.2423	0.0658	0.3081	1229.1762	0.18215	-424.197607	-424.188655	-424.187711	-424.231313	34.379	
C	-0.1214783995	 1.485912194	-0.0343446562	-0.475211
C	 0.1662085122	 0.0118502923	 0.0700229479	 0.471401
C	-0.9933173104	-1.0161283805	-0.035722655	-0.270063
C	-0.4583283421	-1.7381385571	 1.2404683055	-0.235282
C	 0.7342288368	-0.7471878361	 1.3128318053	-0.170951
C	 1.948092225	-1.0302743836	 0.4054928293	 0.121738
C	 2.3866043318	-2.4367502543	 0.0408585641	-0.081276
O	 3.2815877462	-2.3938224838	-1.056735394	-0.42302
O	 1.3101997332	-0.3865500897	-0.734995275	-0.365652
H	 0.7647804548	 2.076379533	 0.2162323537	 0.124028
H	-0.4200550315	 1.7392158151	-1.0582040507	 0.128854
H	-0.9366342103	 1.7729026175	 0.6376968106	 0.116504
H	-1.9925874375	-0.587379905	 0.0786623546	 0.09988
H	-0.9604119701	-1.5938757466	-0.9617727847	 0.107678
H	-1.1277075488	-1.6255045646	 2.0964537056	 0.105296
H	-0.2188947483	-2.7989424935	 1.1432108908	 0.106146
H	 0.9446448909	-0.2760222816	 2.2726833335	 0.073419
H	 2.8353585419	-0.4533585535	 0.7011820724	 0.082234
H	 2.9237278043	-2.8982091843	 0.8773648598	 0.1059
H	 1.5124889324	-3.06390161	-0.1881248836	 0.085155
H	 2.8379404889	-1.8728302877	-1.7374054438	 0.293223
68.6813	106.8097	174.0506	214.9001	228.2322	291.91	349.8942	396.7111	446.0443	481.0381	483.6633	638.8803	655.3378	737.3309	819.5889	852.8871	881.7645	904.8073	926.5268	945.4473	972.3832	1024.1715	1046.4646	1063.5691	1101.5673	1123.527	1144.5495	1175.2217	1193.1265	1216.5561	1222.149	1240.1922	1263.5991	1307.1222	1316.8334	1332.8548	1349.1799	1404.2108	1409.9595	1437.6411	1465.9351	1481.0423	1488.9132	1493.5989	1500.4432	2995.015	3009.0442	3030.8071	3059.675	3068.6696	3070.2679	3098.8232	3105.4934	3112.0178	3113.2932	3126.843	3785.5585
CC12CCC1C(CO)O2	C[C@]12CC[C@H]1[C@@H](CO)O2	
InChI=1S/C7H12O2/c1-7-3-2-5(7)6(4-8)9-7/h5-6,8H,2-4H2,1H3	InChI=1S/C7H12O2/c1-7-3-2-5(7)6(4-8)9-7/h5-6,8H,2-4H2,1H3/t5-,6+,7-/m0/s1
