19
gdb 89638	4.82436	1.01704	0.97089	2.1032	76.06	-0.2486	0.0619	0.3105	1279.7546	0.157981	-422.966245	-422.957805	-422.956861	-422.999554	31.842	
C	-0.0917612318	 1.5426893766	 0.2475792729	-0.404026
C	 0.0103375437	 0.0246283837	 0.2534121462	 0.006512
C	 0.6555360772	-0.6915787197	-0.9949551452	-0.335629
C	 1.7162685773	-1.2835953966	-0.0510836165	 0.441637
O	 2.3784977457	-0.1779822255	 0.5724225176	-0.28854
C	 1.1201740739	-0.6074974839	 1.1150380793	-0.051459
C	 2.4472968996	-2.5703781512	-0.1648934184	-0.075197
C	 3.9152643281	-2.6340995143	-0.095226865	-0.172457
O	 3.105504576	-3.0317662108	 1.0127673243	-0.228605
H	 0.8912497709	 1.9879218248	 0.0704265688	 0.133794
H	-0.771807107	 1.8887306482	-0.5379428761	 0.114262
H	-0.4697869991	 1.9176972932	 1.2050231875	 0.115048
H	-0.9565161659	-0.4328464425	 0.4864822182	 0.079189
H	-0.0041266897	-1.4408615343	-1.4397461708	 0.10657
H	 1.0532496677	-0.0415699377	-1.7785112744	 0.108399
H	 1.1124186944	-0.893499293	 2.1606340511	 0.110416
H	 1.9169775318	-3.3427788685	-0.7237225459	 0.093314
H	 4.4451760096	-3.4396621675	-0.6014958962	 0.114023
H	 4.4679791475	-1.7087733509	 0.0480479025	 0.132749
69.5165	117.2046	148.709	229.2993	241.4463	287.514	367.655	408.2174	511.2947	594.519	672.9805	707.906	804.2305	857.5731	860.2236	886.879	910.4896	917.9853	951.5865	1005.8394	1022.7525	1056.339	1097.8056	1102.3839	1117.2144	1145.4556	1164.9201	1168.0708	1191.3799	1226.3931	1250.8704	1275.0209	1282.7938	1358.194	1397.9562	1412.143	1464.8066	1486.7847	1493.2291	1503.2896	1520.5672	3032.6061	3055.7902	3062.9346	3090.5802	3095.3831	3102.7769	3116.3306	3120.6027	3189.17	3190.0395
CC1CC2(OC12)C1CO1	C[C@H]1C[C@]2(O[C@@H]12)[C@H]1CO1	
InChI=1S/C7H10O2/c1-4-2-7(5-3-8-5)6(4)9-7/h4-6H,2-3H2,1H3	InChI=1S/C7H10O2/c1-4-2-7(5-3-8-5)6(4)9-7/h4-6H,2-3H2,1H3/t4-,5+,6-,7-/m0/s1
