19
gdb 99944	2.88123	1.11182	0.97618	1.4665	78.22	-0.2598	-0.0569	0.2029	1270.5565	0.154608	-423.003765	-422.992982	-422.992037	-423.039437	38.689	
C	-0.0162072906	 1.5402545462	 0.0005411558	-0.426201
C	-0.0186884606	-0.003963819	 0.0152446687	 0.124087
C	 0.7544464454	-0.5215638408	 1.2477755292	-0.426214
C	-1.4608746975	-0.5340446982	 0.0300757631	-0.093945
O	-2.0900901137	-0.0546487957	 1.2114904916	-0.433581
C	 0.6610176452	-0.5183582352	-1.255253176	 0.224706
O	 0.1033393881	-1.2209057447	-2.0725795313	-0.313594
C	 2.04956175	-0.1207504996	-1.4555174178	 0.275528
C	 3.1963336076	 0.1969079797	-1.6386539101	-0.402301
H	 1.0033823505	 1.9338746013	 0.0057949977	 0.123774
H	-0.5288703518	 1.9280772518	-0.8860710156	 0.118796
H	-0.5419604488	 1.907546718	 0.8843607421	 0.142862
H	 0.2431752784	-0.1930188971	 2.1550337602	 0.142866
H	 0.7957698798	-1.6158706198	 1.2577414962	 0.118793
H	 1.7786773037	-0.1403633178	 1.2605509646	 0.123773
H	-1.9862020052	-0.1905805012	-0.8717255226	 0.098638
H	-1.4473261497	-1.6322823165	 0.0003109319	 0.098628
H	-2.9924528572	-0.3849362762	 1.2223565897	 0.290431
H	 4.208953946	 0.4708188948	-1.8113106471	 0.212955
43.7824	122.5527	131.4777	171.7481	219.3465	224.654	236.7177	237.6744	289.5953	312.4723	341.8523	375.4543	412.7125	489.6825	632.7191	645.6659	701.429	709.2408	766.0148	829.0364	938.1012	969.7438	983.9165	1037.3265	1037.9716	1104.1123	1180.2262	1198.9148	1276.6717	1285.2405	1288.9729	1390.1094	1410.3791	1458.0226	1481.7517	1489.4459	1495.8173	1510.7675	1519.8762	1753.2903	2207.9565	2998.8737	3034.3604	3041.4456	3044.018	3111.8004	3114.4952	3135.1389	3138.053	3493.7905	3840.7423
CC(C)(CO)C(=O)C#C	CC(C)(CO)C(=O)C#C	
InChI=1S/C7H10O2/c1-4-6(9)7(2,3)5-8/h1,8H,5H2,2-3H3	InChI=1S/C7H10O2/c1-4-6(9)7(2,3)5-8/h1,8H,5H2,2-3H3
