20
gdb 106061	2.83274	1.40155	1.24295	2.7568	78.54	-0.2382	0.0707	0.3088	1110.0999	0.171367	-403.084937	-403.076599	-403.075655	-403.117613	32.584	
C	 0.1156079128	 1.5896031621	-0.0107153254	-0.509027
C	-0.0489929854	 0.0934609014	-0.0045734407	 0.228798
C	 0.4437250224	-0.7905342842	-1.1888184001	-0.280312
C	-0.6146895171	-1.7961014219	-0.7496304278	-0.077013
N	-0.6853190331	-1.8128158802	 0.7626827701	-0.207618
C	 0.3182159306	-0.7904514927	 1.202324933	-0.183656
C	-1.3942100124	-0.7639793198	-0.0329211494	 0.283212
C	-2.8632429064	-0.5367404863	 0.1543744941	-0.205827
O	-3.5160124434	-1.7726608286	 0.3637344117	-0.415909
H	 1.1778581924	 1.8603377589	 0.0193757252	 0.124485
H	-0.3137792581	 2.0377221298	-0.9131856228	 0.121693
H	-0.3681168754	 2.0509450191	 0.8570770948	 0.121301
H	 0.1821089998	-0.3534473821	-2.1564878094	 0.106179
H	 1.4981364069	-1.0887662196	-1.1889523699	 0.094439
H	-0.9594530748	-2.6929319547	-1.246548054	 0.106169
H	 1.3512655142	-1.1492871057	 1.2888877302	 0.095425
H	-0.0085794256	-0.37508501	 2.1600616959	 0.105137
H	-3.0263088741	 0.1578992042	 0.9968944919	 0.08736
H	-3.3105291348	-0.0767012756	-0.7345987921	 0.111246
H	-2.9306062584	-2.2784582843	 0.9453423949	 0.293918
101.1601	139.4446	206.6314	217.9534	252.1491	311.2684	385.2624	475.8425	496.6044	509.4926	603.7072	669.2954	720.7421	797.7664	826.2579	845.0139	911.2407	929.8004	957.3038	993.0724	1029.0189	1035.0781	1062.5571	1074.1896	1111.6996	1124.2603	1149.813	1165.2561	1211.2037	1223.2809	1238.832	1256.0115	1275.8817	1342.5473	1366.5355	1415.8213	1418.3924	1456.4464	1487.5601	1491.6758	1494.4246	1511.7164	1518.874	2949.8414	3022.9263	3025.4573	3038.8176	3051.4284	3087.375	3091.0496	3095.1161	3100.5089	3210.583	3737.1564
CC12CC3N(C1)C23CO	C[C@@]12C[C@H]3N(C1)[C@@]23CO	
InChI=1S/C7H11NO/c1-6-2-5-7(6,4-9)8(5)3-6/h5,9H,2-4H2,1H3	InChI=1S/C7H11NO/c1-6-2-5-7(6,4-9)8(5)3-6/h5,9H,2-4H2,1H3/t5-,6-,7-,8?/m1/s1
