21
gdb 52694	3.51467	0.67375	0.60943	2.6133	88.86	-0.2365	-0.0126	0.2239	1905.3742	0.178011	-387.099598	-387.087979	-387.087035	-387.139197	39.33	
C	 0.1299841881	 1.4540044692	 0.0714008053	-0.498603
C	 0.0216735972	 0.0025399539	 0.0173149842	 0.100306
C	-0.0681502672	-1.1983564701	-0.0136912203	 0.033282
C	-0.1856275262	-2.6552889098	-0.0770295469	-0.158744
C	-1.6574078653	-3.0918135193	-0.2261868107	-0.39311
C	 0.6938165067	-3.2178916351	-1.2125204135	-0.298562
C	 0.9310157148	-4.7215154779	-1.1296474167	 0.381599
C	 1.5865143382	-5.3590358973	-2.3419830972	-0.474409
O	 0.6302835425	-5.3696035928	-0.1525746463	-0.294342
H	 0.7382510227	 1.8409815208	-0.753910534	 0.143973
H	-0.8547774583	 1.9301071348	 0.0058246022	 0.146279
H	 0.5946825253	 1.7853047781	 1.0068458507	 0.146495
H	 0.1934300229	-3.0850850444	 0.858370868	 0.121038
H	-2.0799112609	-2.7119761671	-1.1622465966	 0.113552
H	-1.7299114595	-4.1817392808	-0.2176247581	 0.133101
H	-2.2587692064	-2.698101368	 0.597079717	 0.12364
H	 0.2712651126	-2.966991505	-2.1939603779	 0.119212
H	 1.6822955381	-2.7391101641	-1.1938377672	 0.132935
H	 2.4790118875	-4.801155978	-2.644787968	 0.136191
H	 1.8480121912	-6.3947723808	-2.1222173737	 0.143318
H	 0.8933371258	-5.3330606064	-3.1911257302	 0.142849
12.4692	46.9721	65.9313	83.1586	116.1028	153.0168	195.0925	248.1077	280.0755	303.2248	337.9751	376.1152	472.6686	509.5884	539.7051	576.4529	738.3501	808.8551	843.6262	899.2825	954.6727	983.989	1039.4849	1053.8189	1054.546	1111.0933	1120.0312	1173.1409	1180.0176	1246.2887	1294.0044	1342.4121	1373.7703	1384.0058	1402.2097	1415.3378	1445.3363	1463.9204	1476.5046	1479.3322	1479.6961	1496.3425	1503.0711	1807.0648	2369.1669	3022.5566	3024.2072	3032.4482	3036.6665	3043.1302	3059.0031	3083.3765	3084.2257	3097.2808	3114.3738	3132.9679	3151.6003
CC#CC(C)CC(C)=O	CC#C[C@@H](C)CC(=O)C	
InChI=1S/C8H12O/c1-4-5-7(2)6-8(3)9/h7H,6H2,1-3H3	InChI=1S/C8H12O/c1-4-5-7(2)6-8(3)9/h7H,6H2,1-3H3/t7-/m1/s1
