17
gdb 16208	3.06517	2.24055	1.48988	2.4505	68.75	-0.2449	-0.0258	0.2192	863.8198	0.144037	-363.876682	-363.869635	-363.868691	-363.907945	27.122	
O	 0.1060111106	 0.0370632067	-0.2125882497	-0.343368
C	 0.0295223401	 1.2304907638	-0.035372994	 0.352608
C	-1.2365923123	 2.065289733	 0.1393432194	-0.32308
C	-0.7308978123	 3.4465256091	 0.6012418036	-0.222376
C	 0.6717743608	 3.5846359834	-0.0402119103	-0.308155
C	 1.2080204194	 2.1666940546	 0.0032603069	 0.269968
C	 2.397843751	 1.7082438876	 0.7884384354	-0.272305
N	 2.4434353425	 1.7595683041	-0.6696889517	-0.361329
H	-1.721574893	 2.1290773077	-0.8440945119	 0.135799
H	-1.9462162765	 1.579464524	 0.8128917195	 0.130622
H	-1.4018465124	 4.2610388948	 0.320531954	 0.10794
H	-0.6399306561	 3.4601501321	 1.6929586277	 0.110877
H	 0.5870365664	 3.9132268884	-1.0831935264	 0.114183
H	 1.3085970141	 4.3043941649	 0.4788495508	 0.109549
H	 2.9976607237	 2.457394211	 1.2987550622	 0.123776
H	 2.3358072463	 0.7380949539	 1.2739117942	 0.130984
H	 2.2950350078	 0.816239901	-1.0325232497	 0.244307
93.0026	172.3672	252.054	269.5115	355.0635	451.0057	535.4179	564.5867	641.6	673.1244	816.142	826.1861	883.8164	908.6973	921.7726	960.7354	998.0988	1009.1602	1052.8444	1065.6846	1104.5796	1145.1818	1171.0603	1188.8239	1237.035	1285.8349	1297.2132	1316.9601	1329.9364	1336.8018	1402.6218	1448.0035	1490.352	1497.372	1504.6116	1822.4528	3031.708	3038.1868	3049.8252	3101.4155	3105.7253	3106.2753	3112.5946	3200.3102	3449.1646
O=C1CCCC11CN1	O=C1CCC[C@]21CN2	
InChI=1S/C6H9NO/c8-5-2-1-3-6(5)4-7-6/h7H,1-4H2	InChI=1S/C6H9NO/c8-5-2-1-3-6(5)4-7-6/h7H,1-4H2/t6-/m1/s1
