16
gdb 30600	4.53073	1.02666	0.85368	5.5655	74.83	-0.2366	-0.0226	0.214	1307.8288	0.126474	-434.134261	-434.125797	-434.124852	-434.168237	29.932	
C	 0.0270376065	 1.4258235174	-0.1347588488	-0.323589
N	-0.0294937851	-0.0269882162	-0.0907068616	-0.349708
C	-1.2418235507	-0.658260994	 0.1034967224	 0.314846
O	-2.269802396	-0.050121658	 0.3439602212	-0.37125
C	-1.1999431853	-2.1292613899	 0.028466536	 0.225512
C	-2.213612659	-3.0317321593	-0.1965807276	-0.126215
N	-1.736159358	-4.3158221394	-0.2080345211	-0.251958
C	-0.4447097966	-4.2067863173	 0.0203211346	 0.022146
N	-0.0594161431	-2.9086679162	 0.1526840657	-0.33759
H	 1.0475014809	 1.7572143622	 0.0726335188	 0.121471
H	-0.290771986	 1.8303032038	-1.1041993434	 0.130569
H	-0.645152429	 1.8183612046	 0.6285629693	 0.166134
H	 0.6561131577	-0.5201429988	-0.6418488264	 0.238516
H	-3.2545630703	-2.804731059	-0.3648013532	 0.136125
H	 0.2546802769	-5.0258237108	 0.101858027	 0.137969
H	 0.8442989669	-2.5840851591	 0.4549938072	 0.267023
70.771	80.0885	119.8865	147.0556	240.3299	294.3498	383.7667	474.3063	517.9137	564.5147	649.3498	680.1696	770.1336	812.7591	828.1026	898.474	928.5145	978.0544	1051.2663	1113.9718	1146.1531	1151.0527	1168.2863	1192.6836	1264.0175	1311.2753	1364.9117	1430.9186	1444.5974	1472.4085	1485.2354	1501.2511	1537.3514	1601.6076	1765.9807	3024.2684	3099.3377	3156.2121	3250.5598	3266.9827	3617.1488	3659.4544
CNC(=O)C1=CN=CN1	CNC(=O)c1cnc[nH]1	
InChI=1S/C5H7N3O/c1-6-5(9)4-2-7-3-8-4/h2-3H,1H3,(H,6,9)(H,7,8)	InChI=1S/C5H7N3O/c1-6-5(9)4-2-7-3-8-4/h2-3H,1H3,(H,6,9)(H,7,8)
