21
gdb 117273	6.94769	0.5246	0.49587	2.1462	89.2	-0.2371	-0.0089	0.2282	2277.832	0.178147	-387.095861	-387.084212	-387.083268	-387.13611	38.779	
C	-0.1593029496	 1.6787131892	 0.051925831	-0.386899
C	-0.0090407717	 0.1689393369	-0.1485192469	-0.163639
C	-1.314635804	-0.5906060316	 0.0869797137	-0.280808
C	-1.1852543776	-2.1010682131	-0.0679289694	 0.375608
O	-0.1239608931	-2.6501678414	-0.2234626412	-0.27732
C	-2.5191924609	-2.871466931	-0.0151397588	-0.485226
C	-2.3897949828	-4.3179363725	 0.0059635679	 0.058853
C	-2.2756110677	-5.5151619233	 0.0254147162	 0.118776
C	-2.1275533127	-6.9627682016	 0.0477642365	-0.498281
H	 0.7889467705	 2.195690771	-0.123675823	 0.116596
H	-0.9004875416	 2.1026462293	-0.6351790057	 0.112319
H	-0.4827718699	 1.9160890011	 1.0718241398	 0.113019
H	 0.3487650976	-0.0429018553	-1.1621784553	 0.110264
H	 0.7574652862	-0.2295960846	 0.5237498581	 0.117321
H	-1.6984187713	-0.3959954591	 1.0999067352	 0.121702
H	-2.1073406108	-0.2358922977	-0.5870916065	 0.11414
H	-3.0845898357	-2.5111947634	 0.8557742205	 0.141208
H	-3.1071595237	-2.5446397837	-0.8859432728	 0.147577
H	-2.6508741324	-7.4310198259	-0.7932740008	 0.1458
H	-1.0725539277	-7.2508374729	-0.0164443287	 0.153548
H	-2.5330453311	-7.3919837202	 0.9707099402	 0.145441
21.4656	22.0066	45.2753	65.682	92.2056	159.0864	201.6149	245.8942	269.0102	309.1065	367.3524	370.9445	422.0661	462.7252	677.8643	715.8543	781.059	808.8094	861.7775	908.6226	928.89	1037.1002	1052.2046	1053.0873	1053.9333	1099.4006	1138.0358	1176.5254	1214.7538	1260.9368	1308.7819	1324.7378	1341.4504	1392.8522	1414.3312	1414.8071	1437.7065	1454.2891	1478.2793	1478.6605	1487.2478	1500.5852	1508.02	1824.1004	2382.945	2998.8337	3006.9272	3026.3999	3026.5449	3027.5285	3035.735	3048.8534	3075.639	3086.1474	3088.9899	3100.2202	3103.4172
CCCC(=O)CC#CC	CCCC(=O)CC#CC	
InChI=1S/C8H12O/c1-3-5-7-8(9)6-4-2/h4,6-7H2,1-2H3	InChI=1S/C8H12O/c1-3-5-7-8(9)6-4-2/h4,6-7H2,1-2H3
