27
gdb 120549	5.15429	0.57491	0.55851	0.1251	97.65	-0.2756	0.0884	0.364	2174.9491	0.251463	-353.56539	-353.554423	-353.553479	-353.602201	40.536	
C	-0.018155295	 1.6176088445	 0.0267647966	-0.379229
C	 0.1229782831	 0.0937031644	-0.0174834516	-0.160133
C	 0.6083679516	-0.5076789536	 1.3072445035	-0.190554
C	 0.7593313373	-2.0225051959	 1.2699228047	 0.050287
C	 1.8962437169	-2.6548610342	 0.4151714954	-0.256804
C	 2.1184976247	-3.7015447531	 1.5420725113	 0.06616
C	 3.539893037	-4.1261349897	 1.8873322997	-0.194129
C	 3.6150121028	-5.0593983788	 3.1003546649	-0.377146
C	 1.3502647992	-2.753203479	 2.5078951216	-0.260232
H	 0.9396254457	 2.097350078	 0.2578203186	 0.112261
H	-0.3668779271	 2.0164101901	-0.9311682999	 0.109039
H	-0.7342759681	 1.9264663754	 0.7965981282	 0.112131
H	-0.8424330259	-0.3563792782	-0.28511576	 0.091932
H	 0.8192300737	-0.1864079357	-0.8187255982	 0.098418
H	 1.5738566272	-0.0569329764	 1.5792350589	 0.084283
H	-0.0915066325	-0.2318355025	 2.109245135	 0.088259
H	-0.200337273	-2.479345664	 0.997320768	 0.063738
H	 1.6517121219	-3.0220163378	-0.5850591509	 0.090485
H	 2.7530212677	-1.9745203544	 0.3350214925	 0.089716
H	 1.5094963498	-4.5924751607	 1.3429234853	 0.063364
H	 3.9914136127	-4.6190877896	 1.0156054147	 0.091413
H	 4.1448464162	-3.2286216919	 2.0761220856	 0.087357
H	 3.1961681133	-4.5827137949	 3.9933598932	 0.117778
H	 3.0509800018	-5.9823743095	 2.9244179133	 0.111791
H	 4.6485763401	-5.3393010542	 3.3270533156	 0.109357
H	 2.0438149449	-2.1032214928	 3.0554005989	 0.089994
H	 0.6523763338	-3.1948736252	 3.224119695	 0.090463
46.6821	71.6256	91.3641	117.2473	162.0879	192.6702	239.3154	249.2756	302.1753	367.734	397.7461	415.2613	442.1359	617.3055	744.8289	764.826	793.9263	814.7012	861.6073	898.7059	920.7813	937.6775	971.8165	980.4743	997.4092	1021.0948	1039.5546	1056.0555	1085.7499	1119.2252	1145.3681	1147.5621	1200.8002	1228.4311	1229.7516	1258.3187	1264.9105	1276.9887	1285.3177	1308.3361	1312.3132	1331.7691	1346.426	1371.6359	1390.8246	1404.9773	1411.0502	1413.3784	1475.2233	1480.9881	1485.3869	1493.2529	1499.6712	1500.1933	1502.141	1507.6796	1510.4649	2995.7122	3006.8779	3014.3217	3017.3877	3018.5416	3027.7879	3028.1452	3029.305	3029.3952	3035.9913	3042.7392	3052.9682	3090.718	3094.2449	3094.5831	3096.4995	3099.2996	3100.6883
CCCC1CC(CC)C1	CCC[C@H]1C[C@@H](CC)C1	
InChI=1S/C9H18/c1-3-5-9-6-8(4-2)7-9/h8-9H,3-7H2,1-2H3	InChI=1S/C9H18/c1-3-5-9-6-8(4-2)7-9/h8-9H,3-7H2,1-2H3/t8-,9+
