14
gdb 129489	4.16076	1.17134	0.91402	2.4783	66.64	-0.2379	-0.016	0.2219	1172.4053	0.102378	-470.071691	-470.063684	-470.06274	-470.104648	29.421	
N	-0.1717763301	 1.3225407647	 0.046895916	-0.571679
C	 0.0334292321	-0.0121991068	-0.0062587372	 0.520568
O	 1.1017788858	-0.5789124486	-0.0686473597	-0.384132
N	-1.1795626052	-0.7515804058	 0.0170758885	-0.053486
C	-1.2809573832	-2.1096337547	-0.0266977994	 0.035406
C	-2.6146976864	-2.4190402378	 0.0169943128	-0.351045
C	-3.2587290446	-1.1551806248	 0.0878934386	 0.465972
O	-4.5885133558	-0.9711686436	 0.1488118387	-0.419753
N	-2.4074489673	-0.1464964721	 0.0886275441	-0.396934
H	 0.6309893355	 1.9249339706	 0.0404859315	 0.273329
H	-1.1078510676	 1.6875208061	 0.1016611415	 0.281391
H	-0.3908249828	-2.71331425	-0.0843961119	 0.169561
H	-3.0754668245	-3.3918716639	 0.0015639732	 0.124324
H	-4.750527326	-0.0201238231	 0.1890713933	 0.306476
68.2886	131.9464	166.2823	200.048	341.0535	399.5792	428.3403	428.8103	542.8277	585.3143	611.178	672.7049	719.3818	730.5136	763.1559	786.5326	887.3697	981.4859	1026.4206	1057.513	1100.818	1173.6495	1239.7243	1292.0173	1363.6991	1437.9994	1463.9449	1552.0942	1587.6346	1617.2646	1835.5166	3279.4535	3296.8362	3612.6986	3761.4646	3795.1332
NC(=O)N1C=CC(O)=N1	NC(=O)n1ccc(O)n1	
InChI=1S/C4H5N3O2/c5-4(9)7-2-1-3(8)6-7/h1-2H,(H2,5,9)(H,6,8)	InChI=1S/C4H5N3O2/c5-4(9)7-2-1-3(8)6-7/h1-2H,(H2,5,9)(H,6,8)
