17
gdb 12805	3.67355	2.08618	1.63857	1.9754	68.75	-0.2305	0.0208	0.2513	830.485	0.143563	-363.866211	-363.859141	-363.858196	-363.89718	27.376	
C	-0.0322117661	 1.5598020753	 0.1069823909	-0.449415
C	 0.1063441305	 0.0591482312	 0.0044755921	 0.346256
C	-0.8247687336	-0.8370367814	 0.8042770689	-0.323181
C	 0.6361223049	-0.7481166152	 1.1661151535	-0.090593
C	 1.5914900946	-1.8669914092	 0.8272227205	-0.097267
O	 1.4264671218	-2.3745774772	-0.5080898765	-0.230475
C	 1.0207975151	-1.4992657598	-1.4609718361	 0.107334
N	 0.4363657263	-0.386173471	-1.3244286455	-0.303365
H	 0.9143786751	 2.054835037	-0.1341104473	 0.119672
H	-0.7865486957	 1.9197898668	-0.5996043305	 0.128053
H	-0.3283943002	 1.8606069837	 1.1165751161	 0.106162
H	-1.5419554745	-0.3640497857	 1.4669881203	 0.113887
H	-1.183333737	-1.7384683211	 0.3182692812	 0.125151
H	 0.8949556436	-0.2159951357	 2.0777109596	 0.090783
H	 2.6250241449	-1.5087962394	 0.9259275069	 0.114374
H	 1.4693403404	-2.7346219555	 1.4833080084	 0.119266
H	 1.2419466499	-1.8955019428	-2.4500810525	 0.123359
125.9139	194.8705	222.7271	315.6903	340.5654	372.0351	489.571	555.7959	638.1912	688.2702	772.1522	841.5771	883.8764	896.883	931.0447	939.6604	963.9511	1003.4418	1049.7498	1091.5056	1105.624	1122.8714	1126.0465	1166.0983	1270.381	1284.8268	1291.7513	1395.6135	1407.5884	1418.9299	1424.7949	1479.6593	1487.5565	1500.4692	1515.0523	1720.9272	3015.2327	3033.5214	3071.1411	3100.9851	3110.5915	3128.2771	3143.3314	3160.415	3217.5717
CC12CC1COC=N2	C[C@]12C[C@H]1COC=N2	
InChI=1S/C6H9NO/c1-6-2-5(6)3-8-4-7-6/h4-5H,2-3H2,1H3	InChI=1S/C6H9NO/c1-6-2-5(6)3-8-4-7-6/h4-5H,2-3H2,1H3/t5-,6-/m0/s1
