19
gdb 83423	2.84465	1.3379	1.14958	0.4921	75.71	-0.2347	0.0587	0.2935	1145.0077	0.158442	-422.95774	-422.949311	-422.948367	-422.991057	31.696	
C	 0.0758644798	 1.6584724996	 0.1737841718	-0.424381
C	 0.0244476736	 0.1479192646	 0.2234281989	-0.075228
C	 1.1474644212	-0.774402469	-0.2353904029	-0.215675
C	 2.4952044704	-0.2315857038	 0.2222873063	-0.102002
O	 2.0172849999	-0.0758085928	 1.5885000309	-0.331463
C	 0.7635723877	-0.6767166266	 1.2315972422	 0.454602
C	 0.184005802	-1.6449233384	 2.1950331553	-0.039818
C	-0.9804473522	-1.3061354677	 3.0286945443	-0.174867
O	-1.1178693635	-2.135638332	 1.8736597949	-0.229478
H	 1.0053445284	 2.0348609187	 0.6079238716	 0.135019
H	-0.0015337919	 2.0255358876	-0.8550464016	 0.116952
H	-0.7520709851	 2.091385673	 0.7450436561	 0.117036
H	-0.9425462992	-0.2938131773	-0.0067321406	 0.108804
H	 0.9953420673	-1.5771880903	-0.9443625613	 0.103897
H	 3.3003526661	-0.9734673944	 0.1845554035	 0.111844
H	 2.8462065243	 0.7148099472	-0.2049260149	 0.105555
H	 0.8792878241	-2.3995166023	 2.5643978814	 0.099353
H	-1.121781221	-1.8097432317	 3.9834452377	 0.120131
H	-1.4215302018	-0.3147054244	 2.9451063665	 0.119718
66.3874	134.4723	168.1334	195.4544	256.6504	264.69	340.487	436.1899	495.5731	571.1015	677.0085	750.8332	802.6455	859.4943	877.104	916.5482	934.9723	971.8216	981.2325	988.125	1024.6173	1061.5102	1087.657	1101.079	1131.2195	1148.5188	1149.4703	1158.8433	1170.5372	1176.8491	1255.3033	1278.3166	1332.2862	1337.059	1409.0415	1417.6227	1485.3123	1493.3851	1511.803	1518.786	1524.4156	3028.0689	3037.2174	3075.2572	3089.1884	3094.6865	3106.2308	3121.8367	3149.2061	3181.8111	3202.0751
CC1C2COC12C1CO1	C[C@H]1[C@H]2CO[C@@]12[C@H]1CO1	
InChI=1S/C7H10O2/c1-4-5-2-9-7(4,5)6-3-8-6/h4-6H,2-3H2,1H3	InChI=1S/C7H10O2/c1-4-5-2-9-7(4,5)6-3-8-6/h4-6H,2-3H2,1H3/t4-,5+,6+,7-/m0/s1
