17
gdb 49190	3.45319	1.35014	1.23458	3.2865	74.94	-0.2543	-0.0647	0.1896	1045.8139	0.137982	-421.840894	-421.833823	-421.832879	-421.872635	27.581	
O	-0.0186544701	-0.0102256317	 0.1358066354	-0.273087
C	 0.0161532589	 1.1933308448	-0.0082216344	 0.053439
C	 1.2485278121	 1.9685003074	-0.0866762786	 0.268927
C	 1.396289632	 3.3028885947	-0.0531044765	-0.180548
C	 2.8977169933	 3.536357083	-0.0015125021	 0.023358
C	 3.3552415863	 3.1511845671	 1.4477639158	-0.220194
C	 3.2014992847	 1.6036691484	 1.396631739	-0.220698
C	 2.6697728974	 1.4105502442	-0.0584605081	-0.042052
O	 3.3925670988	 2.4303613136	-0.7631977751	-0.248793
H	-0.9176511869	 1.7924152973	-0.0899266829	 0.073103
H	 0.6269175481	 4.0593746925	 0.037670777	 0.12321
H	 3.2768630055	 4.4802584123	-0.3896095023	 0.090537
H	 4.3965791786	 3.4465645179	 1.5923157818	 0.115409
H	 2.7512171696	 3.628454428	 2.222376584	 0.10616
H	 4.1673298803	 1.1066510528	 1.5059924757	 0.113899
H	 2.5186406151	 1.2017606379	 2.1472189857	 0.116075
H	 2.8247644862	 0.4322207997	-0.5064367542	 0.101256
92.2649	164.0094	220.7586	258.9706	421.8519	483.8048	515.9857	606.44	702.4639	736.1216	819.0506	834.7855	843.405	865.7945	897.2274	902.1327	923.8888	958.1036	994.3766	1033.3133	1043.4627	1055.6736	1130.95	1182.72	1213.3906	1227.6802	1244.1111	1251.373	1291.9302	1321.6036	1342.2658	1350.0486	1415.8826	1482.2578	1501.4081	1656.2563	1776.1114	2886.1652	3070.7528	3081.2703	3115.5531	3133.1781	3138.2181	3161.1245	3218.8404
O=CC1=CC2CCC1O2	O=CC1=C[C@H]2CC[C@@H]1O2	
InChI=1S/C7H8O2/c8-4-5-3-6-1-2-7(5)9-6/h3-4,6-7H,1-2H2	InChI=1S/C7H8O2/c8-4-5-3-6-1-2-7(5)9-6/h3-4,6-7H,1-2H2/t6-,7+/m1/s1
