19
gdb 78550	2.73025	1.48069	1.16978	2.6301	75.85	-0.2479	0.0793	0.3271	1110.3524	0.157581	-422.974447	-422.96571	-422.964765	-423.00749	33.537	
C	 0.0110546063	 1.5792804418	-0.011041908	-0.497794
C	-0.0266958839	 0.0800115813	 0.034088541	 0.297975
C	-1.3175362594	-0.761745443	 0.0055101376	-0.374495
C	-0.6727217216	-1.7034472471	 1.0337831036	 0.464978
C	-1.2885984841	-2.5069087663	 2.0849754134	-0.275712
O	-0.6871476708	-3.1309498143	 0.9400935415	-0.290246
C	 0.6034402241	-0.9058351574	 1.071261886	-0.275723
C	 1.1296780687	-0.8011914465	-0.3329694225	 0.078683
O	 1.0173815147	-1.8365325273	-1.2674343327	-0.436571
H	 1.022458626	 1.9573082909	 0.1702048155	 0.120628
H	-0.3091641678	 1.9479462273	-0.992931018	 0.12823
H	-0.6518979283	 2.0215675367	 0.741413154	 0.118016
H	-2.1850407971	-0.2298464474	 0.4053391341	 0.104856
H	-1.5668133566	-1.2135607214	-0.9573940232	 0.121012
H	-0.7662418229	-2.6604005807	 3.0291414673	 0.115573
H	-2.3739357408	-2.5859397285	 2.1393051	 0.116891
H	 1.2175285934	-0.7213483003	 1.9457423984	 0.087242
H	 2.0789006251	-0.2705134132	-0.4075075452	 0.091347
H	 0.9346757549	-2.6674874347	-0.7875710431	 0.30511
82.7551	182.9095	204.2577	207.1244	252.863	267.9388	314.175	374.1994	401.1959	497.0758	519.1948	632.6554	660.7307	771.9558	812.779	852.9209	885.9785	935.4543	947.9692	961.8563	983.2166	997.7764	1069.7799	1099.7241	1120.2541	1140.8259	1159.9693	1174.8082	1188.3742	1222.3735	1252.9377	1288.9187	1316.5061	1363.9359	1415.8855	1438.3088	1453.8355	1480.0594	1487.2674	1498.5305	1538.3307	3021.6992	3060.8704	3076.0006	3080.8047	3096.0624	3108.7763	3118.2269	3161.1586	3172.9466	3816.0349
CC12CC3(CO3)C1C2O	C[C@]12C[C@]3(CO3)[C@H]1[C@H]2O	
InChI=1S/C7H10O2/c1-6-2-7(3-9-7)4(6)5(6)8/h4-5,8H,2-3H2,1H3	InChI=1S/C7H10O2/c1-6-2-7(3-9-7)4(6)5(6)8/h4-5,8H,2-3H2,1H3/t4-,5+,6-,7-/m0/s1
