17
gdb 85031	2.47219	1.61038	1.0129	1.8408	71.64	-0.2615	-0.0138	0.2476	1134.5116	0.136645	-455.201733	-455.193069	-455.192125	-455.235245	31.738	
C	-0.0215053905	 1.4633205432	-0.0241472145	-0.372272
N	-0.0182893633	 0.0146515446	-0.0252600934	-0.1214
C	-1.1784913794	-0.7764706158	 0.0449427855	 0.367214
N	-2.3731875641	-0.3970609353	 0.2300738818	-0.533268
C	-0.7555495186	-2.2177929602	-0.1774563347	-0.305993
C	 0.762513899	-2.2065112369	 0.0199649878	 0.030036
O	 1.4477628194	-3.0117318948	-0.9058936509	-0.433528
C	 1.1360001618	-0.7319446461	-0.144396359	 0.379876
O	 2.2518543153	-0.3083458107	-0.3488912471	-0.38541
H	 1.0088559397	 1.7922403686	-0.1642273247	 0.173362
H	-0.6416283433	 1.8487868783	-0.8396654452	 0.146299
H	-0.4025191232	 1.8526613964	 0.9259684186	 0.143648
H	-2.4448496132	 0.6148780221	 0.3427710034	 0.218218
H	-1.2996087923	-2.8922066531	 0.4831662869	 0.141383
H	-0.9739734214	-2.5017789262	-1.2120804361	 0.15228
H	 1.017072088	-2.4874327179	 1.0561912538	 0.102364
H	 2.3299827559	-2.6266092863	-0.9977385721	 0.297191
79.0417	116.5089	151.3208	193.0283	257.4532	292.3035	357.4799	397.7262	428.0737	532.0767	559.9474	600.1407	612.6962	700.2508	796.6414	877.9575	910.9693	978.6463	1025.1386	1036.9769	1096.323	1148.3532	1155.683	1177.7938	1241.697	1258.3904	1280.5927	1306.1318	1367.2838	1417.5513	1421.5463	1457.8037	1470.7368	1492.3798	1513.2074	1747.3761	1832.8133	2959.4388	3036.0922	3069.6235	3096.7865	3141.4091	3154.0502	3473.0534	3759.8007
CN1C(=N)CC(O)C1=O	CN1[C]([NH])C[C@@H](O)C1=O	
InChI=1S/C5H8N2O2/c1-7-4(6)2-3(8)5(7)9/h3,6,8H,2H2,1H3	InChI=1S/C5H8N2O2/c1-7-4(6)2-3(8)5(7)9/h3,6,8H,2H2,1H3/t3-/m1/s1
