16
gdb 45719	3.40262	1.17274	0.89839	2.8066	77.84	-0.2254	-0.0116	0.2138	1230.1115	0.124866	-400.762685	-400.7546	-400.753656	-400.795483	30.888	
O	 0.0094801017	-0.0767253419	 0.0330777279	-0.35354
C	-0.0209823106	 1.1350732985	 0.0453845205	 0.385033
C	-1.3064960738	 1.9535487804	 0.0578513325	-0.321547
C	-1.1817500713	 3.29854348	 0.8159121021	-0.238794
C	 0.0903799761	 4.0087697872	 0.3903595292	-0.113746
C	 1.1527458876	 3.2917069082	 0.0247864476	 0.005381
N	 1.1299402411	 1.8943774565	-0.0220064735	-0.329739
C	-2.3752830163	 4.1184929738	 0.6257948563	 0.305295
C	-3.359108617	 4.7872859309	 0.4560444317	-0.438279
H	-1.5600527507	 2.1622579718	-0.9892486499	 0.1427
H	-2.1008440188	 1.3303232433	 0.4696871818	 0.142017
H	-1.1013996605	 3.0725630652	 1.8924093945	 0.124697
H	 0.1316938852	 5.0888995229	 0.4144194336	 0.112682
H	 2.0995686396	 3.7411676075	-0.2501776674	 0.123361
H	 1.9881447328	 1.3757445771	-0.1315476553	 0.257149
H	-4.2291730651	 5.3791158785	 0.3133492483	 0.197331
90.5452	125.1364	142.5755	239.3614	385.549	425.817	428.1586	489.7264	551.152	555.2537	576.5276	628.5868	645.5328	662.319	726.0398	764.8847	849.9603	938.9236	940.1796	986.1591	1051.6107	1064.2476	1107.6481	1162.0685	1224.432	1273.8783	1290.3523	1314.4305	1355.4598	1415.8327	1457.2059	1465.7375	1720.6639	1809.503	2240.1802	2960.3602	3043.2578	3133.541	3200.9868	3232.5744	3503.8391	3629.6602
O=C1CC(C=CN1)C#C	O=C1C[C@@H](C=CN1)C#C	
InChI=1S/C7H7NO/c1-2-6-3-4-8-7(9)5-6/h1,3-4,6H,5H2,(H,8,9)	InChI=1S/C7H7NO/c1-2-6-3-4-8-7(9)5-6/h1,3-4,6H,5H2,(H,8,9)/t6-/m1/s1
