20
gdb 102861	1.85862	1.07914	0.73189	3.0498	78.88	-0.2519	-0.0296	0.2223	1558.435	0.167555	-440.295332	-440.28463	-440.283686	-440.333238	36.338	
C	-0.1428804643	 1.5617592982	 0.2263292788	-0.406004
C	-0.0098464829	 0.0419750422	 0.1050560966	-0.169675
C	 0.6806435386	-0.4163983933	-1.1823194228	 0.090327
C	 0.8387571575	-1.9441409334	-1.2389031847	-0.282664
C	 1.6012915255	-2.4167396304	-2.4592602981	 0.139766
O	 2.6121304349	-3.0706856209	-2.411022991	-0.236393
O	-0.1032268851	-0.0215542742	-2.3188038153	-0.198016
C	 0.3475776299	 0.9784142507	-3.1037569266	 0.126917
N	-0.3591674694	 1.3925470334	-4.0628766234	-0.443943
H	 0.8371821987	 2.0516940025	 0.2031743642	 0.113779
H	-0.7487308917	 1.9740670164	-0.5852382089	 0.144451
H	-0.6240917892	 1.8316865259	 1.1705898192	 0.123806
H	 0.5632679631	-0.3528495601	 0.9524167315	 0.106446
H	-1.0000542271	-0.427193247	 0.1467244756	 0.116151
H	 1.671510215	 0.0567075654	-1.2517038734	 0.092544
H	 1.356172611	-2.3054341511	-0.3464749751	 0.124211
H	-0.1667815709	-2.3847165181	-1.2678938253	 0.134429
H	 1.1585671978	-2.113168332	-3.4320285307	 0.100844
H	 1.3436323238	 1.3440392856	-2.8176659441	 0.091445
H	 0.1308745449	 2.1322613202	-4.5612850764	 0.231581
30.5201	53.3144	69.7426	99.9006	130.3939	167.749	229.4758	254.5084	288.434	354.4499	432.2086	471.4649	542.7443	593.259	782.1058	817.17	840.3199	881.3493	935.0189	978.4543	1032.1547	1041.7211	1043.2501	1102.4968	1112.1366	1140.6272	1157.9749	1230.3125	1277.154	1288.9438	1313.8396	1344.3893	1378.1068	1392.6107	1412.9138	1425.4407	1432.0577	1451.327	1476.8635	1499.4532	1510.3813	1741.3773	1829.5941	2908.1315	2995.1086	3020.8578	3030.1381	3035.238	3037.7372	3072.4195	3105.2596	3112.965	3121.5297	3521.2002
CCC(CC=O)OC=N	CC[C@@H](CC=O)O[CH][NH]	
InChI=1S/C6H11NO2/c1-2-6(3-4-8)9-5-7/h4-7H,2-3H2,1H3	InChI=1S/C6H11NO2/c1-2-6(3-4-8)9-5-7/h4-7H,2-3H2,1H3/t6-/m0/s1
