20
gdb 14738	10.51924	0.52422	0.50717	1.4761	81.17	-0.2407	0.0615	0.3022	2149.8134	0.174403	-348.982536	-348.971821	-348.970876	-349.020695	35.507	
C	 0.0317069309	 1.5025099451	 0.0097208693	-0.496969
C	 0.0253420389	 0.0461463612	 0.0018435817	 0.108258
C	 0.032082792	-1.1580888715	-0.0046252285	 0.024335
C	 0.003919297	-2.6169441802	-0.0122232287	-0.356204
C	-1.424873581	-3.1973653213	-0.0015169937	-0.174492
C	-1.4329355504	-4.7276066315	-0.0096081361	-0.160986
C	-2.8384233696	-5.3133572554	 0.0007687578	-0.08043
O	-2.7228429603	-6.7287928985	-0.0079009079	-0.421545
H	 1.0542125519	 1.896555873	 0.0017946259	 0.145728
H	-0.4847434068	 1.9098682894	-0.8667395703	 0.14439
H	-0.4673358354	 1.9002060194	 0.9005855345	 0.144394
H	 0.5384275228	-2.9923561576	-0.8954071981	 0.124265
H	 0.5553999748	-3.0018100506	 0.856343462	 0.124262
H	-1.9523574944	-2.8209811278	 0.8832508937	 0.105667
H	-1.9693417703	-2.8116094925	-0.8718466893	 0.105667
H	-0.9073437219	-5.1050619625	-0.8956933395	 0.105065
H	-0.8904522941	-5.1144396278	 0.862135161	 0.105065
H	-3.3806792925	-4.963244417	 0.8947190455	 0.084252
H	-3.3977149095	-4.9537706587	-0.8788097976	 0.084252
H	-3.608634132	-7.1026726051	-0.0012582119	 0.285024
17.0655	49.0725	65.3772	87.976	132.4543	169.8935	221.4299	261.489	278.846	345.6749	388.1516	425.8805	535.2611	739.418	769.3756	795.1843	923.3997	992.4768	1038.2933	1053.6719	1054.2294	1056.4361	1085.9096	1125.7119	1167.9753	1204.4997	1222.7504	1277.7916	1287.2524	1315.3336	1321.6889	1347.939	1390.6428	1415.5643	1461.1365	1474.2671	1479.4247	1480.1578	1488.6353	1503.6284	1528.6149	2373.5769	2956.7086	2981.4985	3007.8773	3023.9284	3024.5105	3033.1996	3034.2617	3057.3642	3082.3144	3083.6516	3084.0772	3831.0947
CC#CCCCCO	CC#CCCCCO	
InChI=1S/C7H12O/c1-2-3-4-5-6-7-8/h8H,4-7H2,1H3	InChI=1S/C7H12O/c1-2-3-4-5-6-7-8/h8H,4-7H2,1H3
