17
gdb 123880	5.13808	1.08439	0.92366	1.7415	75.59	-0.2012	0.0083	0.2095	1232.5898	0.139481	-414.168377	-414.160806	-414.159862	-414.201127	27.847	
C	-0.1235290657	 1.5560527639	 0.0399988	-0.235679
C	 1.4042599556	 1.5201084637	-0.2314567052	-0.160377
N	 1.4331516357	 0.1562166355	 0.3230819951	-0.151685
C	-0.0336352368	 0.0287504606	 0.300944099	-0.172684
C	 2.2964503954	-0.8206675236	-0.1079112306	 0.368616
N	 3.4699310929	-0.5348026372	-0.6818806605	-0.312581
N	 3.9919496249	-1.7468241119	-0.9038741456	-0.074766
N	 3.2646592851	-2.7844725827	-0.5367668179	-0.191409
C	 2.1685967314	-2.2273121508	-0.020623446	-0.143456
H	-0.392730528	 2.1301119096	 0.9277766133	 0.117405
H	-0.7547829838	 1.8647327011	-0.7930048408	 0.11366
H	 1.6699103332	 1.5521789619	-1.2961862547	 0.11079
H	 2.0290811166	 2.2388335531	 0.3067424136	 0.114519
H	-0.4712790133	-0.3463119009	 1.2320510158	 0.110618
H	-0.4025934795	-0.5825891527	-0.5350880105	 0.102815
H	 4.8959638531	-1.8567438019	-1.3308819384	 0.288726
H	 1.3688436731	-2.8289027675	 0.3786251835	 0.115489
78.2842	99.3124	160.5375	186.5015	364.3387	428.9908	453.4028	494.4963	700.6518	737.0205	751.0648	834.4977	848.9657	884.8007	941.3625	948.3082	988.9067	1004.2206	1089.0749	1122.6507	1140.6487	1151.9474	1177.5826	1202.7685	1216.0457	1227.2488	1264.0327	1272.8713	1297.7788	1348.864	1383.0414	1416.2261	1490.7863	1511.2961	1514.17	1535.8441	1605.0716	2997.9545	3019.5641	3060.5145	3076.3653	3091.837	3146.6811	3274.7563	3683.6572
C1CN(C1)C1=NNN=C1	C1CN(C1)c1n[nH]nc1	
InChI=1S/C5H8N4/c1-2-9(3-1)5-4-6-8-7-5/h4H,1-3H2,(H,6,7,8)	InChI=1S/C5H8N4/c1-2-9(3-1)5-4-6-8-7-5/h4H,1-3H2,(H,6,7,8)
