17
gdb 49241	3.53322	1.29316	1.03873	2.8907	75.9	-0.2266	-0.059	0.1676	1135.9812	0.138043	-418.019761	-418.012185	-418.011241	-418.052017	29.084	
O	-0.8867907769	 1.1945297683	 0.0802927911	-0.275813
C	 0.2526061722	 0.8963289774	 0.3493433763	 0.138179
C	 1.4196401406	 1.7880375631	 0.0633663101	 0.258653
N	 2.5837943861	 1.3039688402	 0.3011432674	-0.297398
C	 3.7454942139	 2.136695591	 0.025803806	-0.186564
C	 3.5130615889	 3.3945545269	-0.8049057178	-0.044593
C	 2.9076819034	 3.3219569377	-2.1884535194	-0.305002
C	 2.0982242677	 3.846495555	-1.0160497279	 0.009318
N	 1.0886794842	 3.0184865883	-0.4307303116	-0.339375
H	 0.5407186737	-0.0657743253	 0.8124418626	 0.108768
H	 4.1647885166	 2.440433789	 0.9958899877	 0.121572
H	 4.5116843107	 1.5013475132	-0.4383398452	 0.114064
H	 4.2494069736	 4.1761569648	-0.6448520081	 0.094884
H	 3.2465357553	 4.0266058254	-2.9401102644	 0.117375
H	 2.6360304896	 2.3436797089	-2.5723472588	 0.125365
H	 1.8695167375	 4.9058864654	-0.9726498332	 0.103977
H	 0.1371018129	 3.0860417706	-0.7674370048	 0.256589
91.8307	127.489	217.0104	284.9374	308.0143	394.6085	457.8713	545.5459	599.7545	633.6761	641.1516	725.9059	786.0045	832.1798	848.6272	930.702	958.0514	1019.044	1025.7766	1036.6969	1057.3079	1069.7515	1124.9621	1144.0956	1192.9082	1238.2426	1268.1893	1276.57	1339.3547	1365.9424	1377.3296	1420.985	1474.6623	1489.5379	1527.8704	1709.9956	1805.0054	2973.7341	3003.9868	3026.6778	3129.4377	3150.6755	3164.5895	3219.5898	3577.7092
O=CC1=NCC2CC2N1	O=CC1=NC[C@H]2C[C@H]2N1	
InChI=1S/C6H8N2O/c9-3-6-7-2-4-1-5(4)8-6/h3-5H,1-2H2,(H,7,8)	InChI=1S/C6H8N2O/c9-3-6-7-2-4-1-5(4)8-6/h3-5H,1-2H2,(H,7,8)/t4-,5-/m1/s1
