21
gdb 104362	2.17311	1.4845	1.29972	4.0451	77.47	-0.2588	0.0162	0.275	1139.0196	0.18254	-424.286423	-424.277093	-424.276149	-424.320281	34.922	
C	 0.1152404104	 1.4706314285	 0.1039211899	-0.396967
C	-0.0848752499	-0.0477990345	 0.0738960317	-0.213943
C	-1.5537012724	-0.53717193	-0.0892347378	 0.130641
C	-2.1971073235	 0.0158360985	-1.363816849	-0.442504
C	-1.6218457108	-2.0730352255	 0.0281156259	-0.274642
C	-1.7867846604	-2.3014320478	 1.536905766	-0.092319
O	-2.4427120311	-1.1246968225	 2.0382009439	-0.224926
C	-2.3527384162	-0.1003043926	 1.1485834319	 0.446918
O	-2.8377045634	 0.9739406168	 1.3679490237	-0.354566
H	 1.1657264697	 1.7065017465	 0.2996307497	 0.111777
H	-0.1526889062	 1.9314577702	-0.8510355784	 0.120219
H	-0.4930110843	 1.9388530863	 0.8815520768	 0.148873
H	 0.4898055584	-0.4793121118	-0.7557809932	 0.099778
H	 0.3331817193	-0.483230858	 0.9904715233	 0.101734
H	-1.5848325495	-0.2209130621	-2.2404374115	 0.112292
H	-3.1915815052	-0.4140705427	-1.5184756989	 0.118128
H	-2.3131240784	 1.0996557438	-1.2997205262	 0.145799
H	-2.4981391392	-2.4532982564	-0.506191965	 0.111474
H	-0.7389787661	-2.5770047518	-0.373000273	 0.109634
H	-2.4120181537	-3.1620160384	 1.7844056966	 0.124467
H	-0.8264301774	-2.4112191067	 2.0530965034	 0.118134
89.5848	113.2903	179.4135	197.5492	208.214	245.5268	280.9718	302.2996	362.4319	410.7493	522.9895	602.7024	672.6489	716.4106	750.5856	784.9423	826.047	900.8199	928.4141	976.1352	1015.2325	1032.3842	1035.8723	1063.3952	1084.362	1127.3826	1189.3317	1210.4591	1217.7364	1245.1772	1260.5314	1316.533	1357.0366	1367.0321	1400.1946	1411.7326	1417.6725	1479.3965	1488.7927	1494.1591	1497.2938	1504.8162	1512.4948	1528.2088	1863.2696	3015.836	3037.7987	3042.2947	3046.4082	3050.8204	3053.8075	3099.017	3102.8208	3109.5055	3112.2467	3129.6647	3133.3702
CCC1(C)CCOC1=O	CC[C@@]1(C)CCOC1=O	
InChI=1S/C7H12O2/c1-3-7(2)4-5-9-6(7)8/h3-5H2,1-2H3	InChI=1S/C7H12O2/c1-3-7(2)4-5-9-6(7)8/h3-5H2,1-2H3/t7-/m0/s1
