16
gdb 25924	2.81185	1.63376	1.04111	2.3968	73.51	-0.1999	-0.0317	0.1682	1092.4279	0.125329	-434.140432	-434.13222	-434.131276	-434.173134	31.074	
C	-0.011032395	 1.504378387	 0.0150872847	-0.501406
C	-0.0104708311	-0.0065014189	 0.0682779434	 0.429586
O	-0.0574832172	-0.623514214	 1.1155565979	-0.350957
N	 0.0440890729	-0.6605586499	-1.1606731206	-0.135547
C	 0.0212763626	-0.0949277762	-2.45645541	-0.132053
C	 0.0112951058	-1.1455666974	-3.3081558286	-0.089802
N	 0.0303396593	-2.3601298762	-2.6351483922	-0.354542
C	 0.0539745228	-2.0514459156	-1.3657477925	 0.461367
N	 0.1424389994	-2.9271640189	-0.3310136461	-0.586511
H	 0.8818490967	 1.8781646975	-0.4950349094	 0.155664
H	-0.8852094557	 1.8745213361	-0.5294325465	 0.15538
H	-0.0336431239	 1.8798315043	 1.0372698683	 0.155224
H	 0.0087547696	 0.9682472056	-2.6099383823	 0.129863
H	-0.0079392697	-1.1157258581	-4.387206598	 0.115262
H	-0.0866733869	-3.8801632321	-0.5608082	 0.265823
H	-0.0903027194	-2.5702879934	 0.5838017718	 0.282649
89.4634	138.3853	174.1401	246.8876	300.1168	354.6729	432.1641	434.9524	507.949	524.5852	592.4633	612.5771	654.5789	656.1929	752.7941	760.1511	875.5955	909.5068	963.3959	1056.9379	1063.3779	1077.2916	1147.4774	1206.7449	1233.2927	1325.8172	1367.9518	1397.9835	1438.5092	1470.8823	1479.5448	1561.953	1584.6142	1667.7375	1781.8973	3050.2142	3115.6759	3167.735	3250.079	3310.1598	3567.8669	3708.7288
CC(=O)N1C=CN=C1N	CC(=O)n1ccnc1N	
InChI=1S/C5H7N3O/c1-4(9)8-3-2-7-5(8)6/h2-3H,1H3,(H2,6,7)	InChI=1S/C5H7N3O/c1-4(9)8-3-2-7-5(8)6/h2-3H,1H3,(H2,6,7)
