14
gdb 43126	2.40875	2.01961	1.93083	2.9183	65.25	-0.2331	-0.0343	0.1988	817.4413	0.103449	-436.695362	-436.689046	-436.688102	-436.725914	24.971	
O	-0.0032365885	 0.0417659768	-0.0796804367	-0.320456
C	-0.0074026815	 1.2363786417	-0.00237974	 0.414508
C	-1.2100432248	 2.1989273354	 0.0483970319	-0.034658
O	-1.2301562931	 2.7769951098	 1.3967383392	-0.246526
C	-0.002765203	 3.0529201242	 1.9044250402	 0.142304
N	 1.1420823231	 2.8418060595	 1.3971744561	-0.269186
C	 1.1465134146	 2.240325077	 0.0374662438	-0.134344
C	 0.601529386	 3.2546435287	-0.9555674742	-0.066481
C	-0.740555884	 3.2306821131	-0.9469335557	-0.086726
H	-2.1879370082	 1.746687601	-0.0996218819	 0.112222
H	-0.0984539914	 3.5249393708	 2.8803381963	 0.138846
H	 2.1297662394	 1.8274059954	-0.1812066348	 0.100789
H	 1.2295143221	 3.9132307195	-1.5428173254	 0.126678
H	-1.4035340508	 3.865569137	-1.5202596287	 0.12303
148.9457	237.3267	297.7966	376.0332	450.353	557.4892	580.3313	593.0859	724.1597	775.3973	782.8046	802.6308	890.3344	913.8927	950.1164	968.4927	976.4385	985.1453	1016.7057	1113.9657	1133.8856	1160.3566	1240.6873	1260.4646	1300.3595	1331.3326	1355.7085	1392.407	1631.159	1691.9979	1885.7339	3132.7703	3153.6761	3164.3054	3204.9183	3227.7101
O=C1C2OC=NC1C=C2	O=C1[C@H]2OC=N[C@@H]1C=C2	
InChI=1S/C6H5NO2/c8-6-4-1-2-5(6)9-3-7-4/h1-5H	InChI=1S/C6H5NO2/c8-6-4-1-2-5(6)9-3-7-4/h1-5H/t4-,5+/m1/s1
