24
gdb 5855	2.73266	1.48296	1.26773	1.0237	81.63	-0.2478	0.0761	0.324	1149.1637	0.219728	-351.410329	-351.399491	-351.398546	-351.445386	39.917	
C	 0.0284609401	 1.37246223	-0.0628137329	-0.235714
O	-0.0052491284	-0.030778769	 0.0255930952	-0.25218
C	-1.3087377775	-0.6099876228	-0.0041497802	 0.148748
C	-1.8429656642	-0.6554601917	-1.4400089068	-0.419781
C	-1.2111429666	-1.9849217117	 0.7142596231	 0.261024
C	-0.7706813387	-1.73531018	 2.170174783	-0.408914
C	-2.5891296964	-2.6713468886	 0.7257971966	-0.421292
C	-0.1792820115	-2.8952020262	 0.0230721711	-0.408039
H	 1.0707793802	 1.6781656738	 0.0616460959	 0.124471
H	-0.3268282204	 1.7486490322	-1.0336602797	 0.104608
H	-0.5748589492	 1.8448590848	 0.728655464	 0.102077
H	-1.9866439926	 0.0213547516	 0.5971633636	 0.054833
H	-1.2144123097	-1.2851943489	-2.0754158919	 0.124795
H	-2.8669528939	-1.0361708926	-1.4729976431	 0.118047
H	-1.8581622938	 0.3482102632	-1.8747164695	 0.113811
H	-1.5068469976	-1.1237259407	 2.7052228078	 0.099184
H	-0.6714952758	-2.6829770514	 2.7099537208	 0.102443
H	 0.189080716	-1.2158298012	 2.2028454804	 0.125628
H	-2.9097275681	-2.9725927505	-0.2756431677	 0.112038
H	-2.5537041642	-3.5749214593	 1.3435650705	 0.110358
H	-3.3606481186	-2.0153690996	 1.1459291115	 0.10591
H	 0.7956783801	-2.405278526	-0.0312659711	 0.12941
H	-0.0643230922	-3.8298624828	 0.5824676858	 0.103283
H	-0.485236177	-3.1596202026	-0.9941443964	 0.105253
69.723	73.8216	184.4506	192.7055	200.3283	228.6186	258.7681	270.7694	287.6555	335.7146	341.4324	355.8953	388.5596	453.2358	479.0469	545.6354	733.8278	839.5227	893.0227	934.1757	938.9674	956.377	1000.8017	1012.2187	1070.5032	1088.8833	1120.2793	1146.951	1184.0925	1212.5424	1238.5161	1253.3199	1283.0971	1366.0865	1377.1791	1389.8828	1396.5416	1401.0867	1428.3059	1474.8711	1478.0641	1484.8286	1487.1653	1491.2086	1493.0475	1501.6515	1505.5216	1510.8624	1513.1945	1524.2719	2942.3862	2974.3321	3020.9772	3024.0809	3028.6839	3036.5739	3048.8823	3086.4863	3091.0909	3095.1779	3103.6052	3105.7201	3113.5726	3124.3651	3126.8068	3129.6482
COC(C)C(C)(C)C	CO[C@@H](C)C(C)(C)C	
InChI=1S/C7H16O/c1-6(8-5)7(2,3)4/h6H,1-5H3	InChI=1S/C7H16O/c1-6(8-5)7(2,3)4/h6H,1-5H3/t6-/m0/s1
