18
gdb 30747	2.93084	1.27078	0.94324	1.9672	75.8	-0.1791	0.0546	0.2337	1242.9369	0.145917	-439.104714	-439.094727	-439.093783	-439.139734	35.363	
C	 0.2122649131	 0.9419640734	-0.4638746903	-0.247873
O	-0.4368395565	 0.2210402801	 0.5849230185	-0.269632
C	 0.3911942005	-0.5298680449	 1.3563541558	 0.296832
C	 0.765114839	-1.8514042066	 1.2334948173	 0.040985
C	 0.3713749786	-2.8071282201	 0.1510198842	-0.53972
C	 1.598858924	-2.1191364054	 2.3650336771	 0.250899
O	 2.2081914747	-3.3058033789	 2.664555852	-0.451114
C	 1.7053494877	-0.9811984685	 3.1245765812	-0.186265
N	 0.9668398646	-0.0010146418	 2.4794243361	-0.31001
H	 0.7218283499	 0.2603000029	-1.1551239593	 0.12305
H	-0.5683845731	 1.4882150071	-0.9977341659	 0.12988
H	 0.9455338813	 1.6532193505	-0.0633163456	 0.115316
H	 1.219473367	-3.1108964286	-0.4773311997	 0.119577
H	-0.0767680651	-3.7247335651	 0.5554050802	 0.11981
H	-0.3756507767	-2.3500453963	-0.5036354537	 0.135855
H	 1.9653317928	-3.9473851545	 1.9908142958	 0.294076
H	 2.2337470836	-0.7898290192	 4.0420157907	 0.118123
H	 0.7526219246	 0.9093404261	 2.8456706755	 0.260211
57.8613	126.1447	135.9441	152.6705	178.4339	217.2055	226.8084	287.9404	313.8625	353.922	463.3798	537.3217	567.1034	615.9162	682.9839	706.2351	732.4569	758.3088	933.9881	1026.2515	1064.2927	1084.1982	1130.4274	1173.7279	1180.3015	1214.8934	1224.8738	1296.7036	1342.1921	1411.8156	1445.2524	1461.3241	1485.2598	1490.0397	1501.5656	1503.4506	1512.1499	1591.1558	1675.6072	3004.0701	3010.5208	3043.8623	3075.1088	3108.3847	3127.9349	3284.6696	3691.8055	3839.7011
COC1=C(C)C(O)=CN1	COc1c(C)c(O)c[nH]1	
InChI=1S/C6H9NO2/c1-4-5(8)3-7-6(4)9-2/h3,7-8H,1-2H3	InChI=1S/C6H9NO2/c1-4-5(8)3-7-6(4)9-2/h3,7-8H,1-2H3
