17
gdb 81537	4.08868	1.18098	1.0301	1.8867	70.35	-0.2615	-0.0403	0.2212	1136.4654	0.135128	-458.910373	-458.902365	-458.90142	-458.942642	31.41	
O	-0.0701866935	 1.419033681	-0.323123101	-0.443064
C	 0.0142622804	 0.052977644	-0.0174931249	 0.15206
C	-0.1169822045	-0.4032607657	 1.4840796041	-0.172298
C	-1.5921069363	 0.0846312276	 1.399728356	-0.259637
C	-1.35139531	-0.6832638503	 0.0647001895	-0.145903
C	-0.575897034	-1.7860776197	 0.8861341538	 0.382967
O	 0.3842239327	-2.5295357483	 0.2053475973	-0.501658
C	-1.377475824	-2.712678832	 1.7614399895	 0.086139
O	-1.1306369219	-3.8993352276	 1.791255267	-0.287138
H	 0.8235190791	 1.7687714332	-0.3797760504	 0.289312
H	 0.7918992401	-0.4464871171	-0.5957565038	 0.107289
H	 0.5959856138	-0.2618509709	 2.2977838895	 0.080002
H	-2.3174224835	-0.3101179783	 2.1095636899	 0.094392
H	-1.7066925937	 1.1595858079	 1.2865885722	 0.131273
H	-2.0559116578	-0.8601541392	-0.7487082031	 0.085722
H	 0.2509658536	-3.4462524273	 0.4981557436	 0.293631
H	-2.1911227407	-2.2928202574	 2.3736162309	 0.106911
93.1102	216.8358	229.8121	243.102	310.28	363.2039	405.2125	435.2841	439.8816	529.8309	538.0502	655.7975	743.56	829.6955	835.8615	875.7735	883.9416	898.9676	1010.5369	1011.9633	1046.1383	1056.3937	1078.4876	1096.6695	1155.6632	1162.1035	1192.8061	1202.5601	1213.0889	1246.6836	1266.3054	1308.7781	1390.9476	1437.4522	1466.4718	1534.2256	1783.2661	3005.5352	3101.0027	3108.1297	3112.1355	3121.4563	3176.8034	3663.9034	3836.7149
OC1C2CC1C2(O)C=O	O[C@H]1[C@H]2C[C@@H]1[C@]2(O)C=O	
InChI=1S/C6H8O3/c7-2-6(9)3-1-4(6)5(3)8/h2-5,8-9H,1H2	InChI=1S/C6H8O3/c7-2-6(9)3-1-4(6)5(3)8/h2-5,8-9H,1H2/t3-,4+,5+,6+
