23
gdb 40822	3.68256	0.98285	0.83254	1.2996	85.77	-0.2435	0.0897	0.3332	1440.9213	0.208063	-388.290365	-388.281837	-388.280892	-388.323677	33.65	
C	-0.1985878024	 1.4088873254	-0.1933620747	-0.277544
C	 1.2411330434	 1.0495418735	 0.0870462336	-0.277544
C	 0.1909935715	-0.0309023223	 0.0277663895	 0.028183
C	-0.2363260745	-0.7634787045	 1.2829773016	 0.016754
C	-1.6675416373	-1.3192018407	 1.1746806736	-0.203648
C	-2.0314816311	-2.1288557869	 2.4215195283	-0.081189
O	-1.1070391828	-3.1757982445	 2.6620493901	-0.242237
C	 0.2091456159	-2.6881184894	 2.8579130542	-0.081189
C	 0.720308729	-1.9152161109	 1.639744511	-0.203649
H	-0.7557306599	 1.9086684774	 0.5928606618	 0.107974
H	-0.464903697	 1.7277254462	-1.1950091459	 0.109876
H	 1.9582167785	 1.122930915	-0.7230670271	 0.109876
H	 1.6451605302	 1.3094184484	 1.0604740344	 0.107974
H	 0.2079584432	-0.6573117155	-0.8620850128	 0.077974
H	-0.2185569069	-0.0424591387	 2.1157863	 0.059558
H	-2.3878112007	-0.5047555712	 1.0346404056	 0.093124
H	-1.7397982576	-1.9719760554	 0.294981167	 0.098565
H	-2.0781436707	-1.45940072	 3.2994402078	 0.079464
H	-3.0105800018	-2.6052382797	 2.313586598	 0.103265
H	 0.2402317584	-2.0380653136	 3.7509735262	 0.079463
H	 0.8319142435	-3.5643276328	 3.0619719613	 0.103265
H	 0.7946609567	-2.6045905024	 0.788603231	 0.098565
H	 1.7284590127	-1.5321903176	 1.8363304757	 0.093124
81.0695	113.5969	160.8547	239.4585	259.087	350.9436	399.0352	424.3095	468.9964	480.63	580.0351	771.4121	819.2965	824.5843	826.8196	857.827	896.0342	899.9517	952.534	978.4106	998.0732	1018.9092	1033.7429	1056.0144	1074.9803	1105.6565	1108.2011	1138.5534	1165.635	1194.2368	1197.9669	1206.9064	1225.8468	1262.2966	1274.1582	1294.4052	1324.3862	1335.2778	1371.0403	1381.5769	1387.5581	1419.7822	1428.9265	1468.3175	1470.8418	1482.7084	1492.5052	1502.9891	1505.8039	2941.274	2947.8636	2977.9837	3020.9913	3025.2266	3068.6222	3071.1072	3078.23	3081.0364	3123.3478	3126.1811	3131.5718	3204.1639	3219.2238
C1CC1C1CCOCC1	C1CC1C1CCOCC1	
InChI=1S/C8H14O/c1-2-7(1)8-3-5-9-6-4-8/h7-8H,1-6H2	InChI=1S/C8H14O/c1-2-7(1)8-3-5-9-6-4-8/h7-8H,1-6H2
