18
gdb 102330	1.84822	1.4133	1.17201	5.0824	76.28	-0.2649	-0.0052	0.2598	1196.8038	0.146539	-398.146998	-398.136681	-398.135737	-398.182161	36.25	
C	 0.0787312883	 1.5690252607	 0.0126840177	-0.412995
C	-0.0203254707	 0.0438107588	-0.0026864981	-0.207415
C	-1.4765958601	-0.5127456002	 0.0248745856	-0.080069
C	-1.4603558958	-2.0760754897	 0.0015921415	-0.186486
N	-2.8073752816	-2.6118875739	-0.0116093004	-0.503571
C	-2.1637596118	-0.0510247952	 1.2434742814	 0.333867
N	-2.6343137895	 0.3172110146	 2.2315349966	-0.335702
C	-2.2125521723	-0.0435210509	-1.1632007395	 0.317024
N	-2.7521313854	 0.2793054328	-2.1322827427	-0.340233
H	 1.1281993895	 1.8745666378	-0.0087857516	 0.128188
H	-0.4179426136	 2.0079580012	-0.857607185	 0.147096
H	-0.3771986488	 1.9873375061	 0.9143899028	 0.150696
H	 0.4598010024	-0.3602674465	-0.8999290224	 0.124882
H	 0.4978297381	-0.3812873411	 0.8634206645	 0.125742
H	-0.828325064	-2.3716028605	-0.8505066057	 0.11085
H	-0.9572984831	-2.4026569872	 0.9162378387	 0.1325
H	-3.2088853535	-2.5778525708	-0.942401568	 0.250637
H	-2.8175709781	-3.576709636	 0.2950298446	 0.244988
98.6772	108.0504	122.9464	150.8427	169.8024	191.2203	208.113	246.5965	277.7106	374.662	398.9776	485.6541	516.5539	584.5753	642.181	667.3672	790.2163	810.0832	897.8375	959.4535	987.8436	1030.0785	1079.8474	1111.5476	1133.3453	1167.6717	1246.3549	1314.171	1349.6519	1364.7261	1412.7896	1422.3423	1478.521	1496.2163	1498.9535	1506.7018	1662.7235	2358.778	2366.7387	2978.4295	3045.7293	3048.4392	3087.355	3093.3831	3121.7162	3126.2216	3522.8249	3608.7126
CCC(CN)(C#N)C#N	CCC(CN)(C#N)C#N	
InChI=1S/C6H9N3/c1-2-6(3-7,4-8)5-9/h2-3,7H2,1H3	InChI=1S/C6H9N3/c1-2-6(3-7,4-8)5-9/h2-3,7H2,1H3
