20
gdb 6771	7.02246	0.70961	0.65759	1.9997	73.14	-0.2646	0.0203	0.2849	1737.1595	0.174494	-386.191656	-386.18146	-386.180516	-386.228541	34.198	
C	-0.0761551825	 1.552396738	 0.1032749558	-0.380725
C	-0.0414476678	 0.0266035683	-0.0170903374	-0.166654
C	-1.4351436722	-0.6070666104	 0.0573298628	-0.185855
C	-1.3863116757	-2.1211374141	-0.063385633	-0.059923
O	-2.7374009466	-2.6142313693	 0.0180791237	-0.241865
C	-2.8816924426	-3.9525924953	-0.0720689919	 0.425479
C	-4.3384682979	-4.339566736	 0.0269624027	-0.477714
O	-1.9602064685	-4.7166088545	-0.2122433977	-0.350556
H	 0.9299725495	 1.9788320261	 0.0471659199	 0.114455
H	-0.6732184485	 1.9990277928	-0.6993572527	 0.116248
H	-0.5181308788	 1.8640803826	 1.0560042583	 0.116247
H	 0.4371337717	-0.2556683418	-0.9639697913	 0.100431
H	 0.5910332477	-0.3895809003	 0.77792964	 0.10043
H	-1.9178257451	-0.3396991166	 1.0055280966	 0.104823
H	-2.0720924676	-0.2054647512	-0.7405169123	 0.104823
H	-0.9466259273	-2.4400768323	-1.0146322456	 0.118548
H	-0.7918534967	-2.5747490853	 0.7370969281	 0.118546
H	-4.9099717337	-3.8582074461	-0.7716964739	 0.148167
H	-4.4321730495	-5.4221256285	-0.0486330983	 0.146914
H	-4.754992418	-3.993770256	 0.9772862561	 0.148182
37.149	52.679	76.8681	100.1375	118.4086	189.5595	239.6739	250.1397	296.9994	423.4145	468.2942	607.9012	646.8073	743.3232	805.2054	884.5526	940.0074	948.0677	975.0337	1034.6072	1064.5962	1069.2878	1075.3047	1144.6966	1192.2498	1252.711	1269.2081	1295.9464	1307.1057	1326.4374	1384.3465	1393.0067	1413.001	1424.0274	1469.8276	1476.3571	1487.8982	1495.0405	1500.0632	1508.15	1520.7345	1823.4587	3015.2373	3026.6229	3031.8669	3041.2797	3043.0167	3056.5021	3063.2793	3090.6236	3099.1779	3104.5979	3121.0144	3168.4064
CCCCOC(C)=O	CCCCOC(=O)C	
InChI=1S/C6H12O2/c1-3-4-5-8-6(2)7/h3-5H2,1-2H3	InChI=1S/C6H12O2/c1-3-4-5-8-6(2)7/h3-5H2,1-2H3
