12
gdb 19008	5.73221	1.96054	1.73378	2.2826	53.07	-0.2576	-0.0157	0.2419	707.8262	0.084824	-418.435476	-418.430249	-418.429305	-418.464775	20.784	
O	-0.0678373327	-0.0040942826	-0.0366501153	-0.325038
C	 0.0079345726	 1.1837432261	-0.0042215334	 0.450721
O	-1.0892255377	 2.0269284068	 0.0075081508	-0.23835
C	-0.4988189793	 3.3213473872	 0.0485716718	 0.065042
C	 0.7770416592	 3.3688632156	-0.835771063	 0.049299
O	 1.4070079144	 4.3070858899	 0.0949944033	-0.31004
C	 0.7583914483	 3.3202877247	 0.9604319061	 0.049328
C	 1.1885524631	 2.1318890858	 0.0339021704	-0.223851
H	-1.2329109207	 4.1211420768	 0.0626191952	 0.125504
H	 0.9017134015	 3.5284537079	-1.9057268185	 0.119959
H	 0.8607549529	 3.4217549238	 2.0398040459	 0.119961
H	 2.1989049383	 1.736250438	 0.0337458066	 0.117465
180.3375	403.21	417.9334	523.4043	631.7308	690.9387	725.5205	768.4195	864.6163	864.9692	891.228	895.134	915.7135	972.3273	1007.5018	1059.4586	1113.7668	1135.7265	1149.6898	1154.881	1181.4612	1216.0421	1259.9951	1279.4648	1356.2841	1918.6595	3137.5672	3139.1408	3186.7974	3191.7205
O=C1OC2C3OC2C13	O=C1O[C@@H]2[C@H]3O[C@@H]2[C@@H]13	
InChI=1S/C5H4O3/c6-5-1-2-4(8-5)3(1)7-2/h1-4H	InChI=1S/C5H4O3/c6-5-1-2-4(8-5)3(1)7-2/h1-4H/t1-,2-,3+,4+
