18
gdb 89679	3.03697	1.32029	1.10283	1.3258	74.53	-0.2435	-0.0398	0.2037	1125.4436	0.146596	-439.060769	-439.052057	-439.051113	-439.093874	32.867	
C	-0.0277918339	 1.4302869392	 0.2639597288	-0.521303
C	 0.1420610601	-0.0365750848	 0.027935421	 0.260497
N	-0.7151311841	-1.0387105504	 0.6478296974	-0.412279
C	 0.7410326265	-1.1247063463	 0.9256364005	 0.206835
C	 1.3748744953	-1.833531875	-0.2656858829	-0.346453
C	 0.7306193563	-0.7490300122	-1.2117281756	 0.117775
O	-0.1926233102	-1.166731338	-2.1732848145	-0.433604
C	 1.239479577	-0.8613288647	 2.2761141614	 0.04993
O	 0.5691534017	-0.3418313625	 3.1458685246	-0.291327
H	 0.8408947776	 1.9896525295	-0.0967554795	 0.13071
H	-0.9103626998	 1.8033700883	-0.2681983006	 0.141488
H	-0.1556170131	 1.6374672869	 1.3308644601	 0.149575
H	-1.1407645875	-0.6245290312	 1.4794137407	 0.251897
H	 2.4670838603	-1.7987038167	-0.2668195309	 0.111293
H	 1.0354813128	-2.8583632231	-0.4337130956	 0.112376
H	 1.4848405175	-0.1478454093	-1.7246867093	 0.096173
H	-0.9166624407	-1.5782429749	-1.6816872012	 0.292152
H	 2.3008239943	-1.1376338147	 2.4516617055	 0.084266
101.3762	136.9319	206.5471	212.1919	219.0018	294.4451	302.3834	376.8252	453.9185	505.4247	518.1721	595.21	692.9045	709.9042	765.5576	809.5564	845.3049	944.0118	972.2721	1016.2662	1060.6478	1089.5936	1099.2589	1114.6699	1134.4856	1165.8049	1207.393	1235.8675	1293.5435	1338.3625	1356.0742	1393.0201	1422.5999	1436.7482	1448.1317	1478.6687	1487.3685	1494.7721	1767.5932	2907.3142	3031.7903	3063.8288	3090.6801	3096.9274	3114.4381	3124.6612	3459.7574	3755.9256
CC12NC1(CC2O)C=O	C[C@]12N[C@]1(C[C@H]2O)C=O	
InChI=1S/C6H9NO2/c1-5-4(9)2-6(5,3-8)7-5/h3-4,7,9H,2H2,1H3	InChI=1S/C6H9NO2/c1-5-4(9)2-6(5,3-8)7-5/h3-4,7,9H,2H2,1H3/t4-,5-,6-/m1/s1
