19
gdb 33092	4.40922	0.88772	0.7493	2.5533	80.61	-0.1858	0.0362	0.2219	1542.6298	0.158902	-419.25397	-419.244331	-419.243387	-419.290005	33.975	
C	-0.0220081019	 1.4858321063	-0.0271381565	-0.389235
C	-0.0195413208	-0.0318980972	-0.0116330334	-0.032348
O	 0.6859288452	-0.469744589	-1.1750243893	-0.288282
C	 0.796922886	-1.8033339254	-1.3398548857	 0.368584
C	 1.4322657166	-2.4234065271	-2.3863450368	-0.232778
N	 1.281562285	-3.776099926	-2.1162694241	-0.279
C	 0.5850339209	-3.903081612	-0.9569423495	 0.349933
C	 0.2294521146	-5.217016318	-0.3454414584	-0.495595
N	 0.2770329908	-2.7150747773	-0.4626883674	-0.382355
H	 0.9997082462	 1.8761690788	-0.0092540794	 0.12429
H	-0.5171744002	 1.8642209858	-0.9261526564	 0.124297
H	-0.554496156	 1.8686189509	 0.8487895072	 0.114293
H	 0.4706518324	-0.4239770607	 0.8876073366	 0.1087
H	-1.0391404111	-0.4356341246	-0.0235571539	 0.108566
H	 1.9499507229	-2.0521854887	-3.2523401709	 0.124481
H	 1.6302544946	-4.5289309772	-2.6847616307	 0.260465
H	 1.1186305083	-5.8063340664	-0.092093785	 0.130254
H	-0.3318599168	-5.0334164314	 0.5714308532	 0.155737
H	-0.3914148266	-5.8261244409	-1.0129244797	 0.129992
34.5584	61.6842	65.6562	139.1637	213.9854	244.225	307.0353	337.4012	365.4756	495.925	496.0784	636.6441	644.2508	674.9707	730.8263	769.4	811.0671	916.477	972.1147	1012.7544	1052.3548	1058.6327	1086.6678	1106.6235	1133.7765	1184.1628	1254.0589	1290.4657	1320.8738	1385.8111	1392.7658	1410.2637	1417.9451	1450.4335	1482.6029	1483.3124	1498.0682	1509.746	1524.153	1571.1358	1629.652	3025.7533	3026.9646	3043.1174	3059.7682	3074.6168	3117.3793	3119.9688	3147.9749	3293.1718	3667.7829
CCOC1=CNC(C)=N1	CCOc1c[nH]c(C)n1	
InChI=1S/C6H10N2O/c1-3-9-6-4-7-5(2)8-6/h4H,3H2,1-2H3,(H,7,8)	InChI=1S/C6H10N2O/c1-3-9-6-4-7-5(2)8-6/h4H,3H2,1-2H3,(H,7,8)
