20
gdb 109808	2.19666	1.33212	0.95995	2.1383	81.37	-0.2296	0.0341	0.2637	1282.0746	0.168465	-403.070455	-403.060437	-403.059493	-403.105252	37.029	
C	 0.1018391573	 1.4902976456	 0.6969195927	-0.418528
C	 0.1770713459	 0.0434632303	 0.2506259137	-0.012603
C	 0.4768037345	-0.3779853735	-1.1535877587	-0.034889
C	 0.760896794	 0.5897550723	-2.2842398398	-0.086311
O	 1.4550885714	-0.032929821	-3.3501740197	-0.423281
N	 1.4282544522	-0.6601997431	-0.0645572215	-0.107334
C	 2.7014096149	 0.0580256322	 0.0058492787	-0.321061
C	 3.6657414094	-0.4850212402	-0.9504352705	 0.318131
C	 4.4550120094	-0.9146103489	-1.7500673377	-0.434755
H	 0.4115747159	 1.5893378949	 1.7432768426	 0.125818
H	 0.709529979	 2.1714628495	 0.0991567855	 0.123912
H	-0.9348933834	 1.836497345	 0.630053071	 0.12892
H	-0.5086929926	-0.5939439726	 0.8088877132	 0.094014
H	-0.0048438917	-1.2836247481	-1.5214139212	 0.098511
H	-0.1929473564	 0.929594893	-2.7041840247	 0.112274
H	 1.2895431198	 1.4869165994	-1.9332302868	 0.083135
H	 2.3028920074	-0.3387665212	-3.0023357497	 0.285063
H	 2.6319803161	 1.1446194393	-0.1535863721	 0.120426
H	 3.0927939273	-0.0742629205	 1.0225016524	 0.141007
H	 5.1668378995	-1.3041947622	-2.4358658872	 0.207551
72.2083	117.4976	133.7406	159.2839	178.5969	225.4608	281.378	317.8672	339.8437	438.6966	451.3031	485.1986	534.6353	570.164	622.6722	664.21	731.9762	819.3904	841.4541	947.5211	987.738	1004.2545	1011.967	1048.6597	1078.0658	1095.7359	1148.022	1159.8126	1190.7284	1238.832	1254.7359	1338.0146	1342.7734	1372.3706	1400.2267	1418.0872	1438.4305	1446.492	1479.8689	1494.0277	1502.3083	1511.2401	2232.3508	2985.8384	3005.8749	3037.4984	3039.2101	3060.3565	3094.3075	3094.7303	3111.9642	3133.3561	3500.449	3756.0228
CC1C(CO)N1CC#C	C[C@H]1[C@@H](CO)N1CC#C	
InChI=1S/C7H11NO/c1-3-4-8-6(2)7(8)5-9/h1,6-7,9H,4-5H2,2H3	InChI=1S/C7H11NO/c1-3-4-8-6(2)7(8)5-9/h1,6-7,9H,4-5H2,2H3/t6-,7+,8?/m0/s1
