18
gdb 111965	3.32508	1.15632	0.90948	2.8782	74.43	-0.2284	-0.0281	0.2003	1281.7971	0.146814	-439.086744	-439.077698	-439.076753	-439.120925	33.122	
C	-0.1029543472	 1.5664267144	 0.0399536182	-0.316931
N	 0.0008281872	 0.119298701	 0.1607355231	-0.270343
C	-1.2251312924	-0.6081167539	-0.0880431454	-0.114711
C	-1.7545076624	-0.6988019033	-1.5146004051	-0.103454
C	-2.1636874914	-1.9270279155	-1.8439617972	-0.101762
C	-2.0538559278	-2.8890814842	-0.6874841982	 0.02555
O	-1.5541417849	-4.1614406982	-1.0146454452	-0.4435
C	-1.0937043389	-2.1116477821	 0.2286529001	 0.326116
O	-0.2758646734	-2.647790196	 0.927720236	-0.305558
H	 0.8716750512	 2.0149920472	 0.2519991584	 0.126804
H	-0.4368669452	 1.9327624684	-0.9461958146	 0.098287
H	-0.8102768197	 1.9416539668	 0.7885699217	 0.125502
H	 0.7477292806	-0.2421657464	-0.4218368536	 0.223697
H	-1.9944925682	-0.1876691606	 0.5800732498	 0.114201
H	-1.7782911935	 0.1639426774	-2.1707512909	 0.109179
H	-2.5633165987	-2.2326368462	-2.8038123887	 0.115413
H	-3.0294412983	-2.9834332167	-0.1743028862	 0.097492
H	-0.892572177	-4.364538202	-0.3371731022	 0.294018
63.4703	80.7694	157.3129	194.2295	251.0182	278.1247	327.4957	344.7698	362.3377	486.2514	562.8373	633.5244	682.2631	696.969	735.7994	778.2912	912.7664	963.482	979.369	993.1536	1011.943	1068.4518	1120.8706	1142.7151	1155.0818	1171.8842	1212.54	1222.2167	1239.2787	1326.6898	1343.12	1376.9127	1407.5735	1458.666	1489.6333	1494.9153	1520.6403	1661.7923	1852.7597	2922.5428	2953.4571	2978.3177	3054.8963	3106.0096	3189.6598	3213.0917	3535.9332	3728.2453
CNC1C=CC(O)C1=O	CN[C@H]1C=C[C@@H](O)C1=O	
InChI=1S/C6H9NO2/c1-7-4-2-3-5(8)6(4)9/h2-5,7-8H,1H3	InChI=1S/C6H9NO2/c1-7-4-2-3-5(8)6(4)9/h2-5,7-8H,1H3/t4-,5+/m0/s1
