24
gdb 15181	7.98083	0.61218	0.59848	0.1216	86.68	-0.2695	0.0922	0.3617	1969.2406	0.222891	-314.270798	-314.260836	-314.259892	-314.306514	35.974	
C	-0.1149611334	 1.5444833634	 0.0217593438	-0.378778
C	-0.1213399674	 0.0178463545	-0.0935901326	-0.163159
C	 0.7904860838	-0.5084537158	-1.2071973205	-0.158637
C	 0.7828132952	-2.0350303672	-1.3343417606	-0.168272
C	 1.7011648138	-2.5610538825	-2.4452215037	-0.20699
C	 1.6826530058	-4.0697745293	-2.5732782948	 0.037975
C	 0.6224786952	-4.753130598	-3.4014939517	-0.253894
C	 2.0580459154	-4.7390169509	-3.8700562959	-0.277319
H	 0.8915238986	 1.9216107639	 0.2356908653	 0.112253
H	-0.4498189994	 2.0130990366	-0.9105324	 0.11219
H	-0.7761473409	 1.8892624706	 0.8231125036	 0.109446
H	 0.185674508	-0.4238067516	 0.8638666903	 0.092795
H	-1.1470463768	-0.3319685562	-0.2714987112	 0.09302
H	 0.4865715	-0.0620973064	-2.1648208443	 0.089032
H	 1.818357336	-0.1620892304	-1.0278927702	 0.089456
H	 1.0834862317	-2.4812265072	-0.3759336145	 0.089258
H	-0.2422329173	-2.3830212571	-1.5200227819	 0.094841
H	 1.4047545251	-2.1154044334	-3.4050298805	 0.087516
H	 2.729178328	-2.219913789	-2.2582285924	 0.092182
H	 1.9817274761	-4.5963036303	-1.6693977478	 0.077331
H	 0.2044043205	-5.6890166837	-3.0473194011	 0.107667
H	-0.0869634143	-4.1244646993	-3.9306854453	 0.106863
H	 2.3086485179	-4.1031980696	-4.7132905585	 0.107479
H	 2.6214126084	-5.6650245311	-3.8325985459	 0.107746
52.9796	63.8865	97.6971	125.9711	143.7066	223.3092	245.3384	290.1715	364.7935	411.6261	481.9325	731.9294	754.3817	774.6467	806.7228	832.1149	853.6941	899.3726	919.0503	952.4316	990.6363	1015.8484	1049.4701	1053.8099	1068.1109	1076.1747	1079.4692	1132.5786	1143.7827	1198.4236	1207.3022	1227.8457	1243.1134	1262.5118	1300.159	1326.7932	1330.0141	1334.4033	1379.6398	1400.1016	1413.9531	1419.5348	1468.7719	1481.039	1483.5021	1491.0177	1499.7002	1503.5876	1507.9243	1514.3446	2998.5398	3001.0701	3008.9118	3016.701	3021.1367	3028.0185	3028.9521	3045.2915	3061.1429	3093.7524	3099.5253	3125.6211	3126.4955	3131.939	3203.0543	3218.4701
CCCCCC1CC1	CCCCCC1CC1	
InChI=1S/C8H16/c1-2-3-4-5-8-6-7-8/h8H,2-7H2,1H3	InChI=1S/C8H16/c1-2-3-4-5-8-6-7-8/h8H,2-7H2,1H3
