19
gdb 108105	3.48053	1.41165	1.35654	1.6843	73.18	-0.2353	0.0931	0.3284	1042.9248	0.160853	-423.024015	-423.016643	-423.015699	-423.055941	29.461	
C	 0.1432964815	 1.5260994337	-0.0812990647	-0.375284
C	-0.0837331466	 0.0248117313	 0.1361006013	-0.305441
C	 0.7131653926	-0.5311629977	 1.2751825918	 0.443829
O	 0.4774237805	 0.0602720786	 2.5495327867	-0.289237
C	 1.4429470664	-0.6644377785	 3.2996249062	 0.143855
C	 1.0603728982	-2.1376783614	 3.037933692	-0.239271
C	 1.1109736486	-1.9856845088	 1.5254654876	-0.229463
C	 2.1753737319	-0.9113452792	 1.3046398521	-0.004197
O	 2.6575679438	-0.506008153	 2.5730307424	-0.252907
H	 1.1913787392	 1.7352601772	-0.3178690413	 0.118576
H	-0.472228909	 1.8965753706	-0.906262953	 0.109489
H	-0.1131806747	 2.0888519508	 0.8197451136	 0.138448
H	-1.1480661017	-0.1705084932	 0.3182642067	 0.110228
H	 0.1813401804	-0.5344739555	-0.7690332088	 0.102992
H	 1.5333633513	-0.281215707	 4.3121567117	 0.098036
H	 1.8024765999	-2.8328124751	 3.436295336	 0.112758
H	 0.0665704887	-2.3764175241	 3.4222505142	 0.111801
H	 0.9156352923	-2.7826236405	 0.8219173293	 0.095444
H	 2.8890080966	-0.8512943682	 0.4960583562	 0.110343
86.0442	145.9939	198.8896	300.8881	356.5541	444.0288	574.6821	600.1467	612.3332	731.9435	742.2935	781.8622	832.1067	857.7082	879.4646	893.5053	927.6295	952.6047	973.1512	981.6036	1013.2768	1035.1686	1037.052	1064.5392	1087.074	1106.9282	1153.0585	1175.2844	1206.8202	1231.8127	1286.0555	1289.5171	1321.3144	1346.5668	1361.7241	1409.3648	1443.7969	1476.9648	1478.1827	1495.6303	1509.4036	3026.7714	3043.034	3062.1758	3075.2671	3110.3248	3126.3387	3133.2425	3177.3656	3217.5268	3231.3526
CCC12OC3CC1C2O3	CC[C@@]12O[C@H]3C[C@@H]1[C@@H]2O3	
InChI=1S/C7H10O2/c1-2-7-4-3-5(9-7)8-6(4)7/h4-6H,2-3H2,1H3	InChI=1S/C7H10O2/c1-2-7-4-3-5(9-7)8-6(4)7/h4-6H,2-3H2,1H3/t4-,5+,6+,7-/m1/s1
