18
gdb 16254	3.03236	2.07121	1.54219	1.2874	67.13	-0.2464	0.0812	0.3276	876.2324	0.154783	-384.923933	-384.916471	-384.915526	-384.95587	28.774	
O	 0.0343606443	 1.4939634754	 0.1022464704	-0.427699
C	 0.0060636988	 0.0796975208	-0.0195813486	 0.046753
C	 0.6344160468	-0.6172668606	 1.1948605383	-0.120595
O	-0.4300768677	-0.7082834006	 2.1362952723	-0.256747
C	-1.5562717001	-1.1582278537	 1.3895482739	-0.154121
C	-1.4162318183	-0.5057484712	 0.0090458624	 0.302848
C	-2.549244452	 0.2242191066	-0.6599782849	-0.307006
C	-2.0666145513	-1.0922793018	-1.2147890717	-0.323875
H	-0.4165229702	 1.7133023778	 0.9261600613	 0.282898
H	 0.5343930035	-0.1415111063	-0.9505390988	 0.086927
H	 1.0055265108	-1.6200988254	 0.9238501994	 0.088293
H	 1.4461731854	-0.0384205945	 1.6399052721	 0.115242
H	-1.543796834	-2.258149711	 1.3093505135	 0.091037
H	-2.4593499154	-0.8616016831	 1.9310420399	 0.109781
H	-3.5104503482	 0.2443402332	-0.1555688865	 0.110551
H	-2.301266795	 1.1335625513	-1.1960938426	 0.129303
H	-1.5103397892	-1.0848565382	-2.1467040922	 0.115689
H	-2.6976445279	-1.9663367989	-1.0815106981	 0.11072
50.6688	200.3233	241.1443	276.7949	340.6625	369.2288	415.1963	511.2509	525.4382	718.2295	784.1131	813.0022	869.341	899.0455	919.2699	950.3802	955.1461	980.9742	1022.0135	1055.0724	1074.7878	1085.1485	1103.8466	1118.9625	1191.6629	1204.509	1244.9649	1268.5225	1271.3357	1294.1851	1331.7792	1362.1829	1405.0353	1432.7406	1471.8034	1496.2479	1505.6095	1518.1647	2960.1565	2967.3786	3076.8555	3084.8556	3114.0672	3118.3736	3128.2019	3199.2399	3219.5351	3794.6391
OC1COCC11CC1	O[C@H]1COCC21CC2	
InChI=1S/C6H10O2/c7-5-3-8-4-6(5)1-2-6/h5,7H,1-4H2	InChI=1S/C6H10O2/c7-5-3-8-4-6(5)1-2-6/h5,7H,1-4H2/t5-/m0/s1
