16
gdb 67511	2.92215	1.44914	1.14009	4.6333	70.9	-0.2387	0.0057	0.2443	1070.2133	0.121939	-437.801893	-437.79397	-437.793026	-437.834417	29.797	
C	 0.2318787843	 1.4168180102	-0.0885001352	-0.513701
C	 0.0176034438	-0.0603115429	 0.0002526862	 0.275252
C	-1.3875980214	-0.7688651196	 0.1972499217	-0.039613
O	-1.2887148326	-2.1301791114	-0.2063630299	-0.211253
C	-0.7779688077	-1.7695799972	 1.0746254276	 0.005635
C	 0.6356893357	-1.1066603874	 0.8879382472	-0.154799
N	 0.9293147813	-1.0638439705	-0.5270844134	-0.063891
C	 2.175689103	-0.8583739741	-1.076233684	 0.132745
O	 3.2069108985	-1.332003357	-0.6602471341	-0.303692
H	 1.2809400423	 1.6738855872	 0.0856158543	 0.144533
H	-0.0570428679	 1.8032815374	-1.0724773997	 0.139751
H	-0.3752720578	 1.934000848	 0.6618441399	 0.136458
H	-2.3627348342	-0.2963330256	 0.195109061	 0.118923
H	-1.1489432722	-2.2924746256	 1.9468465098	 0.122528
H	 1.4234559053	-1.0121050074	 1.6234993715	 0.127162
H	 2.1122534296	-0.2551539142	-2.0019319528	 0.083961
89.0921	162.581	219.9275	230.4921	255.4479	271.8483	387.0636	479.7578	577.5269	592.5299	746.3588	769.1651	799.0141	830.0537	851.9038	864.0386	903.7695	947.8165	995.7423	1019.86	1029.1479	1044.9586	1099.3405	1157.7988	1199.6115	1215.483	1255.8087	1316.4425	1366.768	1412.3795	1416.5005	1453.1471	1481.1138	1497.3755	1787.7534	2952.3672	3031.1302	3092.8361	3112.3079	3186.2492	3205.0488	3217.4663
CC12C3OC3C1N2C=O	C[C@]12[C@H]3O[C@H]3[C@H]1N2C=O	
InChI=1S/C6H7NO2/c1-6-4(7(6)2-8)3-5(6)9-3/h2-5H,1H3	InChI=1S/C6H7NO2/c1-6-4(7(6)2-8)3-5(6)9-3/h2-5H,1H3/t3-,4+,5-,6+,7?/m0/s1
