17
gdb 35650	4.1641	0.92709	0.79729	0.6238	91.56	-0.2321	-0.0225	0.2095	1406.2998	0.134664	-347.505738	-347.497039	-347.496095	-347.539153	33.087	
C	-0.1277030146	-1.2462792571	-0.1002618324	-0.459653
C	-0.0649828648	-0.0469352106	-0.0479950543	 0.310059
C	 0.0123198136	 1.4079676114	 0.0248495352	-0.189375
C	-0.5938253054	 2.0126027146	 1.3296864347	-0.228285
C	 0.2559476808	 3.2670279328	 1.6255501033	-0.325411
C	 1.5623747814	 2.9790558623	 0.8980970509	 0.188162
C	 1.4251979768	 1.9634240935	 0.0343078062	-0.17279
C	 2.7289364267	 3.7515992012	 1.1116709598	 0.194555
C	 3.6970272574	 4.4351014659	 1.3307198391	-0.402509
H	-0.1826532313	-2.3054927317	-0.148411995	 0.195851
H	-0.5169299887	 1.8163537381	-0.851342565	 0.115079
H	-1.660158656	 2.2249107285	 1.2285649431	 0.109213
H	-0.4732013731	 1.2841360662	 2.135608949	 0.123155
H	-0.201051978	 4.1809480672	 1.2239657922	 0.117262
H	 0.4049931489	 3.4354764597	 2.6961236618	 0.118657
H	 2.1997735491	 1.588853086	-0.6224853648	 0.113331
H	 4.5586913072	 5.0288507521	 1.5101284062	 0.192701
78.8708	123.2315	137.7511	185.8143	243.1289	356.509	462.0399	491.4758	522.692	538.1439	570.1378	600.8436	613.477	634.2679	636.5014	639.0911	834.6103	852.6272	890.2493	908.4959	975.5182	1020.695	1030.1093	1074.9713	1150.6924	1174.8472	1231.894	1263.2113	1278.5393	1296.1959	1327.986	1353.9645	1485.7088	1500.7764	1671.2531	2222.4825	2236.6345	2968.903	3025.1753	3068.3281	3082.6093	3120.4298	3220.6587	3504.168	3505.0683
C#CC1CCC(=C1)C#C	C#C[C@H]1CCC(=C1)C#C	
InChI=1S/C9H8/c1-3-8-5-6-9(4-2)7-8/h1-2,7-8H,5-6H2	InChI=1S/C9H8/c1-3-8-5-6-9(4-2)7-8/h1-2,7-8H,5-6H2/t8-/m0/s1
