15
gdb 25524	3.97877	0.95183	0.81002	3.5024	70.37	-0.2018	-0.0434	0.1584	1344.7422	0.111763	-453.974181	-453.965656	-453.964712	-454.008853	30.133	
N	-0.10564381	 1.3035590532	 0.0383180558	-0.602026
C	-0.0157860086	 0.0424676618	-0.0010078551	 0.472473
N	-1.053996339	-0.8639108167	 0.0738805522	-0.38606
C	-0.563680576	-2.1688324803	-0.0315273515	 0.28906
C	-1.4506077554	-3.363848418	 0.0355444106	-0.391189
C	-2.0871517377	-3.5024776908	 1.4173909148	 0.158416
O	-3.2717201886	-3.5076854599	 1.6166183542	-0.225225
C	 0.7663456332	-2.0539359581	-0.141901261	-0.136924
O	 1.1334367038	-0.7209294429	-0.1267851245	-0.212177
H	 0.8109065833	 1.7354678779	-0.0375869848	 0.2278
H	-2.0160800319	-0.5791390725	 0.1232260525	 0.281968
H	-2.2535803965	-3.3232937879	-0.7081333165	 0.137862
H	-0.8454118755	-4.2584245031	-0.1527437049	 0.141484
H	-1.3507796385	-3.5846856531	 2.2474998364	 0.092408
H	 1.5560949675	-2.7774437799	-0.2407516384	 0.152131
35.5156	69.6424	114.6905	167.0402	269.2331	330.4774	388.6454	460.3346	479.3362	613.5474	655.3365	702.5681	714.4029	751.5676	754.2912	836.1166	914.94	1005.387	1019.8984	1051.3081	1066.3275	1100.288	1189.4279	1224.7094	1261.7301	1300.6179	1361.4278	1413.7332	1436.3971	1453.9273	1708.7547	1798.6316	1839.2646	2890.8427	3039.7905	3095.0041	3298.9907	3547.442	3696.6327
N=C1NC(CC=O)=CO1	[NH][C@@H]1NC(=CO1)CC=O	
InChI=1S/C5H6N2O2/c6-5-7-4(1-2-8)3-9-5/h2-3H,1H2,(H2,6,7)	InChI=1S/C5H7N2O2/c6-5-7-4(1-2-8)3-9-5/h2-3,5-7H,1H2/t5-/m1/s1
