16
gdb 18940	3.25424	3.20866	2.49205	0.	62.05	-0.2358	0.0993	0.3351	643.1073	0.134902	-383.726907	-383.721994	-383.72105	-383.755611	21.756	
C	-0.0286358622	 1.579863783	 0.0090570495	-0.195526
C	 1.5078457959	 1.6413915253	 0.0417928942	 0.041567
O	 1.717156793	 1.0363025285	 1.3295261692	-0.266841
C	 1.2552467997	-0.2753659123	 0.962951965	 0.041567
C	 2.3806290837	-0.6465989507	-0.0175149776	-0.195526
C	 1.9103775267	 0.4567522406	-0.9803866841	 0.041567
O	 0.6348493514	-0.1030217406	-1.3379932716	-0.266843
C	 0.0305300264	 0.0437700867	-0.0412785923	 0.041567
H	-0.4413768794	 2.0285074852	 0.9133950856	 0.106186
H	-0.51908207	 1.9658781067	-0.8853263027	 0.106186
H	 2.0278416332	 2.5934894505	-0.036891926	 0.083431
H	 1.0599044162	-0.8856815126	 1.8418341176	 0.083431
H	 3.3527059401	-0.5064567935	 0.456708825	 0.106186
H	 2.3117169839	-1.62141565	-0.5017159235	 0.106186
H	 2.4929400961	 0.7092302772	-1.8635359564	 0.083431
H	-0.8766884546	-0.5504942739	 0.0416749981	 0.083432
379.9403	485.791	579.5932	595.0665	599.3383	683.4927	732.4546	833.2461	862.2196	862.8092	910.8748	923.7973	926.8308	941.4927	954.4273	979.9873	982.0021	1011.1586	1034.6169	1049.1748	1098.5118	1136.529	1163.0911	1205.904	1246.6127	1250.534	1258.0129	1260.9569	1283.347	1285.2416	1325.4975	1343.3369	1473.5302	1474.7158	3085.7883	3086.5172	3147.4747	3148.3903	3148.6784	3151.3184	3153.2146	3159.5364
C1C2OC3CC2OC13	C1[C@H]2O[C@@H]3C[C@H]2O[C@H]13	
InChI=1S/C6H8O2/c1-3-5-2-6(7-3)4(1)8-5/h3-6H,1-2H2	InChI=1S/C6H8O2/c1-3-5-2-6(7-3)4(1)8-5/h3-6H,1-2H2/t3-,4-,5-,6-/m1/s1
