19
gdb 98980	4.04007	0.79226	0.67226	2.1178	76.06	-0.255	-0.0099	0.2451	1659.463	0.158208	-456.387306	-456.377003	-456.376059	-456.424264	36.024	
C	 0.0346290233	 1.3448833931	-0.561233119	-0.370595
C	-0.3961286825	 0.2967709456	 0.461249655	-0.308039
C	-1.5291516247	-0.589528981	-0.0501595254	 0.425548
O	-2.0444017279	-0.4452259998	-1.1413098273	-0.355793
N	-1.9101725309	-1.565258591	 0.8474833852	-0.353587
C	-2.9162062799	-2.5334031783	 0.7381462122	 0.32311
N	-3.0899157822	-3.294612783	 1.741720951	-0.504159
C	-3.7176717561	-2.6053256737	-0.55919723	-0.153566
O	-4.6288246887	-3.6869661732	-0.5302101541	-0.406404
H	 0.8395939598	 1.9645021399	-0.1568464548	 0.111939
H	 0.3885058524	 0.8714154459	-1.4801610402	 0.134084
H	-0.8025397648	 1.9929025833	-0.8306376488	 0.136637
H	 0.447258634	-0.3474301586	 0.7423579254	 0.12632
H	-0.7294348305	 0.7733673232	 1.3926974728	 0.128993
H	-1.4403518132	-1.6003031965	 1.7424321078	 0.257623
H	-3.8644009662	-3.9268534509	 1.5345078366	 0.228095
H	-4.3013251374	-1.688687586	-0.6793734823	 0.152433
H	-3.0409950486	-2.6462111768	-1.4183643967	 0.135744
H	-4.1456978859	-4.4902580024	-0.7483702072	 0.291617
21.9721	60.1271	96.0057	136.8334	169.9114	207.0893	265.0442	316.0416	323.3017	354.1607	415.6139	519.9114	578.8476	630.6636	686.1754	691.0397	815.3601	827.5029	913.0082	952.563	999.0513	1028.8756	1060.6507	1095.7425	1099.3779	1132.0021	1212.3683	1213.0983	1286.6329	1345.6165	1367.2785	1393.1655	1416.5147	1437.1809	1453.7994	1463.5566	1492.293	1497.2634	1505.3923	1719.2572	1789.6467	3023.084	3054.1112	3055.0003	3062.252	3108.3596	3126.619	3133.4178	3477.0555	3591.7567	3823.5511
CCC(=O)NC(=N)CO	CCC(=O)NC(=N)CO	
InChI=1S/C5H10N2O2/c1-2-5(9)7-4(6)3-8/h8H,2-3H2,1H3,(H2,6,7,9)	InChI=1S/C5H10N2O2/c1-2-5(9)7-4(6)3-8/h8H,2-3H2,1H3,(H2,6,7,9)
