20
gdb 69520	2.27242	1.71915	1.37009	2.3234	79.43	-0.2119	0.0705	0.2823	1062.5653	0.168485	-403.069224	-403.060098	-403.059154	-403.102209	35.671	
C	 0.1158129427	 1.481922468	 0.1037420089	-0.474973
C	-0.0917455992	 0.0024916359	-0.0306819225	 0.260234
C	-0.9806614513	-0.8112130541	 0.8247665754	-0.30646
N	 0.4870313769	-0.9766979708	 0.9595220537	-0.210676
C	 1.0707260631	-1.760119848	-0.2133166616	 0.305832
C	 2.4225969305	-2.3601269148	 0.009008252	-0.472099
C	 0.0865401848	-2.2269283122	-1.2698442493	-0.426339
C	 0.5247298668	-0.7860195909	-1.2179041752	 0.279894
O	 1.19410794	-0.1482632203	-2.2469438711	-0.449622
H	 1.1275607971	 1.7615679411	-0.204593126	 0.134938
H	-0.5912062332	 2.0374398668	-0.5238259333	 0.113616
H	-0.0310541611	 1.79278005	 1.1417821788	 0.125785
H	-1.406639835	-0.3189509253	 1.6958302416	 0.117407
H	-1.6003640222	-1.6105002584	 0.4357488016	 0.11495
H	 2.3570752829	-3.2339741489	 0.6676650915	 0.123077
H	 2.8686758968	-2.6773306	-0.9379940877	 0.121491
H	 3.0900530925	-1.6335286894	 0.4821058785	 0.130668
H	 0.5880537164	-2.7762989943	-2.06202671	 0.117138
H	-0.9243842771	-2.5717250146	-1.0784043427	 0.107851
H	 0.5820338186	-0.0300897999	-2.9822291227	 0.287287
135.4874	165.0651	172.923	180.0913	238.9316	298.5856	320.5468	359.0574	426.4749	475.2643	490.4691	514.0648	562.3995	633.3489	693.5106	756.2028	803.9961	830.263	886.86	934.1161	958.2165	977.001	1013.1437	1043.0072	1092.7515	1096.0034	1105.6176	1123.5028	1123.9917	1190.4526	1257.5416	1282.4987	1315.5728	1364.9264	1405.315	1416.6758	1428.6469	1474.4616	1477.638	1487.422	1495.9047	1504.6865	1532.9555	3030.5247	3031.1314	3094.4379	3095.3112	3112.7231	3115.9762	3119.9923	3126.1286	3195.0908	3206.8951	3782.4255
CC12CN1C1(C)CC21O	C[C@]12CN1[C@@]1(C)C[C@@]21O	
InChI=1S/C7H11NO/c1-5-3-7(5,9)6(2)4-8(5)6/h9H,3-4H2,1-2H3	InChI=1S/C7H11NO/c1-5-3-7(5,9)6(2)4-8(5)6/h9H,3-4H2,1-2H3/t5-,6+,7-,8?/m0/s1
