12
gdb 131018	5.30786	0.98567	0.8313	3.8811	66.38	-0.2732	-0.0948	0.1783	1246.7322	0.077897	-468.84081	-468.833483	-468.832539	-468.873335	25.217	
O	-0.0046525329	-0.0625113544	-0.000148837	-0.227293
C	 0.0204788893	 1.1289508399	 0.0088928843	 0.198979
N	 1.2047417782	 1.9036390747	 0.0018286351	-0.026175
C	 1.2992351859	 3.2759922656	 0.0116151063	 0.039773
N	 2.54694416	 3.648585617	 0.0007409297	-0.284266
C	 3.2197303111	 2.4451440734	-0.0163131683	 0.265849
C	 4.6950897619	 2.2979521426	-0.0338986279	 0.101631
O	 5.4627994157	 3.2244666448	-0.034930755	-0.235144
N	 2.4494756112	 1.3710904793	-0.0162700668	-0.236997
H	-0.8666265059	 1.7860943245	 0.0240962797	 0.121267
H	 0.4308621257	 3.9187515477	 0.0263714567	 0.172214
H	 5.0238782199	 1.2395865849	-0.0458235368	 0.11016
87.9861	150.2495	150.2826	232.9446	259.7844	336.3029	478.0795	536.6433	654.8197	727.8604	783.8428	829.9998	878.4349	1000.469	1022.8043	1036.3636	1037.5497	1209.9786	1274.9564	1363.0138	1379.9468	1397.2915	1443.7247	1487.0936	1556.5572	1822.7707	1863.9189	2942.3203	2992.0745	3254.7755
O=CN1C=NC(C=O)=N1	O=Cn1cnc(C=O)n1	
InChI=1S/C4H3N3O2/c8-1-4-5-2-7(3-9)6-4/h1-3H	InChI=1S/C4H3N3O2/c8-1-4-5-2-7(3-9)6-4/h1-3H
