18
gdb 36092	3.65192	1.15788	1.08566	3.9269	74.98	-0.2505	0.0279	0.2784	1146.9115	0.149278	-401.942408	-401.934809	-401.933865	-401.974894	29.543	
N	-0.0545148151	-1.1511050451	-0.1526179032	-0.31095
C	-0.0422567674	-0.0018930879	-0.0327059859	 0.266907
C	-0.0001119783	 1.454067584	 0.1151020099	-0.460019
C	 1.4122489326	 2.0116975186	 0.0247594811	 0.284058
C	 2.2930808104	 1.9421616079	-1.2663643205	-0.266993
C	 3.0717931685	 3.0308734016	-0.4870630912	 0.104991
C	 1.7018518959	 3.5485018629	 0.0172321814	-0.288361
O	 3.5971265353	 2.3213816705	 0.6448574178	-0.274737
C	 2.4484337397	 1.5572402593	 1.0680714477	-0.108515
H	-0.6333017606	 1.8992002238	-0.6608145826	 0.154023
H	-0.4508805408	 1.7182039949	 1.080083143	 0.15453
H	 2.815608662	 1.0090740096	-1.4861554849	 0.117838
H	 1.7758209923	 2.3232408888	-2.1489441719	 0.104344
H	 3.8434375392	 3.6631784054	-0.920784381	 0.088345
H	 1.1292351463	 4.0807855136	-0.7447165348	 0.104213
H	 1.6868662195	 4.0837766307	 0.9696996391	 0.106034
H	 2.1715471763	 1.8244837349	 2.0955793374	 0.101727
H	 2.664244474	 0.4840221165	 1.0229273786	 0.122564
66.2694	108.1854	273.0821	284.2634	372.4523	392.9169	454.131	479.1098	517.384	635.4455	707.0699	820.7177	852.5598	876.2489	911.6262	924.0696	943.6564	957.1964	972.1583	998.0966	1025.0069	1031.9726	1118.1222	1121.2167	1165.6143	1173.6126	1199.4019	1222.6882	1238.9174	1261.2835	1293.4961	1311.0775	1338.6368	1380.2205	1461.911	1473.3525	1505.2249	1531.73	2362.0272	3020.6974	3034.243	3065.532	3069.2672	3073.4051	3075.1074	3133.4496	3141.2107	3150.5912
N#CCC12CC(C1)OC2	N#CC[C@@]12C[C@@H](C1)OC2	
InChI=1S/C7H9NO/c8-2-1-7-3-6(4-7)9-5-7/h6H,1,3-5H2	InChI=1S/C7H9NO/c8-2-1-7-3-6(4-7)9-5-7/h6H,1,3-5H2/t6-,7+
