18
gdb 111037	2.83261	1.21902	0.98881	2.202	79.33	-0.2515	0.0303	0.2818	1220.7058	0.147616	-401.823273	-401.814912	-401.813967	-401.856505	32.221	
O	-0.0385810978	 1.4495755194	-0.277200285	-0.417676
C	 0.1015172896	 0.1021949894	 0.1421984782	-0.1165
C	-1.2588228124	-0.5696554526	 0.1316220382	 0.011724
N	-1.9540176837	-0.6718591804	-1.2491759069	-0.188521
C	-1.0898229756	-1.9227253415	-1.478977672	-0.2192
C	-1.518329482	-2.1042352585	 0.0028817528	 0.236107
C	-2.904903866	-1.6415202006	-0.531133444	-0.199395
C	-1.2020435642	-3.1620350449	 0.9251093243	-0.001956
C	-0.9348197729	-4.0437851846	 1.698567565	-0.336302
H	-0.5728297754	 1.4312369738	-1.0809201263	 0.296154
H	 0.8458513504	-0.4309852717	-0.4650135322	 0.092965
H	 0.4842271278	 0.1269641862	 1.1683055041	 0.117709
H	-1.9053040787	-0.0548328877	 0.8501442985	 0.089657
H	-1.5187299266	-2.6140620992	-2.2080465323	 0.111563
H	-0.0428908611	-1.7236990889	-1.7032940917	 0.113876
H	-3.5846394923	-1.1556806854	 0.1726911545	 0.112795
H	-3.4333974112	-2.3161971944	-1.208447428	 0.110568
H	-0.6997035679	-4.8226568585	 2.3813579627	 0.186433
72.7252	106.4005	163.3182	200.0032	351.3239	367.8208	422.0701	485.8488	517.9146	564.5032	603.1664	638.2565	647.6916	649.4324	757.7812	806.2754	858.0129	917.0437	965.8892	982.295	1031.9152	1050.243	1062.3206	1099.3021	1133.2454	1152.6243	1172.577	1182.6751	1196.0629	1223.495	1260.1194	1295.418	1352.0173	1415.9516	1448.9977	1502.7403	1521.8595	1554.9963	2230.8959	3005.2725	3052.325	3060.6906	3073.5026	3076.7465	3132.8551	3149.3245	3498.3832	3781.7398
OCC1N2CC1(C2)C#C	OC[C@H]1N2C[C@@]1(C2)C#C	
InChI=1S/C7H9NO/c1-2-7-4-8(5-7)6(7)3-9/h1,6,9H,3-5H2	InChI=1S/C7H9NO/c1-2-7-4-8(5-7)6(7)3-9/h1,6,9H,3-5H2/t6-/m1/s1
