16
gdb 35663	3.80231	1.01705	0.95023	3.485	74.57	-0.2783	0.0173	0.2956	1237.5119	0.124489	-400.728463	-400.720041	-400.719097	-400.762547	30.52	
C	 0.3990411365	-1.0993531524	 0.0765205144	-0.4735
C	 0.1096170984	 0.0670898997	 0.0571125401	 0.343316
C	-0.2308003115	 1.4953316285	 0.0573457254	-0.085171
C	-0.8191481938	 1.9586806672	 1.4031034094	-0.237111
C	 0.4679391188	 2.1702363449	 2.2395027539	-0.174244
C	 1.5440064851	 2.5030388706	 1.1516796128	-0.088088
O	 0.9155003758	 2.3243535241	-0.1119050503	-0.237492
C	 0.3385686916	 3.1989510998	 3.2629880747	 0.265592
N	 0.2404849493	 4.0193643076	 4.0714291449	-0.320186
H	 0.6517322568	-2.1314067726	 0.0761225489	 0.209192
H	-0.901501938	 1.7139188555	-0.7788522467	 0.125452
H	-1.3402646672	 2.9074179581	 1.2579405167	 0.136351
H	-1.501915585	 1.2390556733	 1.855102806	 0.135643
H	 0.7338272007	 1.2320103887	 2.7345582891	 0.141985
H	 1.8913189356	 3.5371581367	 1.2105058002	 0.137316
H	 2.404554367	 1.8324665104	 1.2578409606	 0.120944
34.5235	95.0388	151.96	197.1652	239.5917	290.7991	437.3088	514.5123	537.7454	560.5489	631.6023	648.1846	678.8864	756.8761	832.1418	859.1051	935.0534	945.8408	995.6473	1032.8122	1050.8283	1093.4279	1104.6738	1188.6457	1241.4045	1265.1629	1291.9167	1314.5022	1345.5259	1365.7224	1392.4915	1485.1725	1520.2043	2232.1653	2358.7209	3035.4305	3069.9949	3074.007	3086.4115	3105.8094	3147.2624	3499.7305
C#CC1CC(CO1)C#N	C#C[C@H]1C[C@@H](CO1)C#N	
InChI=1S/C7H7NO/c1-2-7-3-6(4-8)5-9-7/h1,6-7H,3,5H2	InChI=1S/C7H7NO/c1-2-7-3-6(4-8)5-9-7/h1,6-7H,3,5H2/t6-,7+/m1/s1
