14
gdb 15650	3.48677	1.81538	1.26337	4.0098	58.67	-0.255	-0.0266	0.2285	902.1657	0.108678	-415.899839	-415.892676	-415.891732	-415.931608	26.015	
O	 0.0922834283	 1.4042647992	-0.0542553118	-0.419721
C	 0.0855150638	 0.0023258243	 0.0662212687	-0.049532
C	-1.3522868191	-0.5415230564	 0.0433105365	-0.137752
N	-2.0041103006	-0.1842832508	-1.2266365062	-0.262838
C	-2.3799225894	-1.2867647208	-1.7508403181	 0.070256
N	-2.0990189513	-2.4318456287	-1.0185776572	-0.33696
C	-1.4240191242	-2.0694072766	 0.1488936188	 0.418819
O	-1.0059083755	-2.8134704068	 0.9992546184	-0.358346
H	-0.452301746	 1.6129387994	-0.8235837399	 0.29718
H	 0.663726607	-0.4827759678	-0.7365869794	 0.092762
H	 0.5537923083	-0.2543797958	 1.0205186875	 0.131738
H	-1.9021546508	-0.0861787689	 0.8754252573	 0.135207
H	-2.8870261966	-1.3701945332	-2.7067851563	 0.146292
H	-2.3059211338	-3.3821904371	-1.2811177082	 0.272894
98.9359	128.8828	168.5038	288.733	345.9152	457.5301	500.699	534.751	611.8181	657.5482	704.5509	844.2843	883.0672	935.6874	947.1962	1053.3232	1071.9694	1087.6201	1093.9254	1180.1832	1207.2829	1256.0846	1295.4287	1348.4423	1383.5198	1399.8869	1427.8952	1506.4558	1674.7936	1854.5356	2976.6577	3053.317	3096.7471	3193.941	3651.8595	3782.3743
OCC1N=CNC1=O	OC[C@H]1N=CNC1=O	
InChI=1S/C4H6N2O2/c7-1-3-4(8)6-2-5-3/h2-3,7H,1H2,(H,5,6,8)	InChI=1S/C4H6N2O2/c7-1-3-4(8)6-2-5-3/h2-3,7H,1H2,(H,5,6,8)/t3-/m1/s1
