19
gdb 120247	3.03847	1.01702	0.84783	2.0773	76.06	-0.2378	-0.0119	0.2259	1379.3474	0.15857	-423.009303	-423.000346	-422.999401	-423.043637	32.914	
O	-0.0318444343	 1.4579065173	 0.0596618287	-0.423266
C	-0.0041522348	 0.0480919975	-0.1082986218	-0.075971
C	-1.4082023517	-0.4767888641	 0.1782344144	-0.208053
C	-1.4961339697	-1.991827993	 0.0201747486	-0.123029
C	-2.8483832266	-2.7260762157	 0.1233281326	-0.074869
C	-3.7408326028	-2.3483884805	-1.0033311927	-0.282057
C	-2.6448526716	-3.37818491	-1.2679476977	-0.169423
C	-1.3314600101	-2.6641482286	-1.3757596371	 0.40845
O	-0.4199934175	-2.7022581831	-2.1555435775	-0.326382
H	 0.829169675	 1.805200178	-0.1901765532	 0.286369
H	 0.2959501376	-0.2351394558	-1.1272788037	 0.115442
H	 0.7144768528	-0.4216552612	 0.5841931524	 0.08238
H	-1.6918622362	-0.1904932953	 1.1983931076	 0.108544
H	-2.108688045	 0.0284197618	-0.4953674457	 0.107601
H	-0.7580271276	-2.4768733844	 0.6739843783	 0.102533
H	-3.2113175456	-3.2227034632	 1.0135631128	 0.103802
H	-4.7393823918	-2.7730959712	-0.9895680713	 0.127964
H	-3.6888098369	-1.3644763184	-1.458772205	 0.128806
H	-2.8814850631	-4.3718064102	-1.6266936496	 0.111158
81.0232	88.0567	103.127	171.6548	235.4598	256.9799	296.9398	388.5352	470.6603	509.656	610.4383	724.4469	742.9897	781.6495	834.3406	861.2908	913.354	942.8702	970.5041	1001.8003	1028.8356	1048.2737	1075.3722	1088.4059	1091.6858	1115.5148	1137.9699	1166.8847	1200.0603	1230.1862	1251.4444	1289.1775	1310.757	1317.2371	1341.4158	1371.8916	1464.2272	1492.2112	1500.6477	1531.121	1872.7198	2961.0129	3017.6471	3020.9333	3036.0394	3081.1756	3128.9599	3197.0301	3202.8196	3214.3754	3832.5882
OCCC1C2CC2C1=O	OCC[C@H]1[C@H]2C[C@H]2C1=O	
InChI=1S/C7H10O2/c8-2-1-4-5-3-6(5)7(4)9/h4-6,8H,1-3H2	InChI=1S/C7H10O2/c8-2-1-4-5-3-6(5)7(4)9/h4-6,8H,1-3H2/t4-,5+,6+/m0/s1
