14
gdb 16642	3.16741	2.38763	1.60818	3.4285	56.49	-0.2627	-0.0353	0.2275	776.3566	0.106906	-419.678038	-419.671339	-419.670394	-419.708905	25.416	
O	-0.0557631935	 1.4652096451	-0.0124712916	-0.435411
C	-0.038296849	 0.0678761527	-0.0006170435	 0.048022
C	-1.3889316052	-0.6137198187	-0.0260060603	 0.017526
O	-2.0172924932	-0.6035010817	-1.3131080539	-0.248488
C	-1.3167599489	-1.7884761553	-0.9163590512	 0.037694
C	 0.0504659925	-1.8829167909	-1.5677110385	-0.350107
C	 0.6472583273	-0.512945394	-1.2508952419	 0.35293
O	 1.4658611063	 0.1030891952	-1.8819791928	-0.313335
H	 0.6150567968	 1.7318103245	-0.6587971062	 0.296155
H	 0.5112620491	-0.3155258227	 0.882605779	 0.090061
H	-2.0581590538	-0.5601607195	 0.8273825229	 0.111574
H	-1.9278487952	-2.6729404461	-0.7625945723	 0.108553
H	 0.6598719792	-2.6764544321	-1.1161042016	 0.13575
H	 0.0160203076	-2.0536761265	-2.646407418	 0.149075
103.6016	197.7286	270.1225	355.6914	364.3114	465.1612	513.9165	589.1234	646.4135	712.1431	770.0186	842.2484	864.0674	907.6768	977.6055	1008.0448	1054.6543	1085.8499	1120.7541	1176.7562	1186.2072	1224.2862	1255.8799	1280.2349	1327.9647	1370.1098	1413.0692	1434.6567	1445.6028	1854.5988	2909.4965	3040.4416	3111.3183	3157.6381	3169.4121	3719.4242
OC1C2OC2CC1=O	O[C@H]1[C@H]2O[C@H]2CC1=O	
InChI=1S/C5H6O3/c6-2-1-3-5(8-3)4(2)7/h3-5,7H,1H2	InChI=1S/C5H6O3/c6-2-1-3-5(8-3)4(2)7/h3-5,7H,1H2/t3-,4+,5-/m0/s1
