17
gdb 65541	2.88595	1.56594	1.33036	1.6956	71.75	-0.2624	0.0261	0.2884	990.4071	0.137832	-417.988223	-417.980624	-417.979679	-418.020024	29.939	
N	-0.062060117	 1.4518320806	 0.0273157518	-0.542947
C	-0.024747848	-0.006857957	 0.0074226158	 0.159729
C	 0.443308919	-0.5974088183	 1.386222804	-0.266162
C	-0.8610935302	-1.3423016605	 1.7395154563	 0.081597
C	-1.2359298466	-2.0861401824	 0.437531464	-0.247922
C	-1.4720083359	-0.613677089	 0.0438719087	 0.05905
O	-1.8729840979	-0.3415755162	 1.4066973336	-0.282839
C	 0.7517155029	-0.5305658703	-1.130464114	 0.226639
N	 1.3532512089	-0.8983012795	-2.0482384656	-0.352576
H	 0.8750882484	 1.820658092	 0.1632121311	 0.241381
H	-0.3832741604	 1.807351523	-0.8694878179	 0.239379
H	 1.3157627536	-1.2487015613	 1.3074372687	 0.123021
H	 0.6454245338	 0.2129774373	 2.0884641709	 0.128881
H	-0.9635674222	-1.7717473244	 2.73511003	 0.091459
H	-0.4817368616	-2.6747890668	-0.0889493872	 0.122683
H	-2.1769802694	-2.626763699	 0.5337341526	 0.123345
H	-2.1728128174	-0.2781911283	-0.7201296328	 0.095281
137.6408	154.6539	229.8047	245.4124	317.487	425.8779	445.9609	498.9648	547.4923	580.8293	639.244	759.7253	820.8399	843.0045	870.7664	891.7661	914.9756	924.6482	950.8505	988.4617	1023.8249	1045.0733	1086.6188	1107.6257	1168.2377	1204.2986	1215.0193	1231.1764	1250.7049	1271.907	1314.9882	1317.3487	1335.5234	1472.693	1492.0478	1660.6286	2334.4049	3080.1593	3082.2759	3130.9041	3136.0835	3141.0228	3157.5673	3487.0054	3565.5044
NC1(CC2CC1O2)C#N	N[C@]1(C[C@@H]2C[C@H]1O2)C#N	
InChI=1S/C6H8N2O/c7-3-6(8)2-4-1-5(6)9-4/h4-5H,1-2,8H2	InChI=1S/C6H8N2O/c7-3-6(8)2-4-1-5(6)9-4/h4-5H,1-2,8H2/t4-,5+,6+/m0/s1
