14
gdb 131886	2.77485	1.68464	1.04896	4.9114	73.86	-0.2135	-0.0617	0.1517	1043.9158	0.102451	-469.969442	-469.961902	-469.960958	-470.001343	28.855	
N	 0.0217294969	 1.4317987559	 0.154435787	-0.610002
C	 0.0355857115	 0.0707709693	 0.0557019545	 0.273062
C	-1.093038722	-0.7587221807	 0.0350595787	 0.381365
N	-0.6816475809	-2.0755899062	-0.0100898719	-0.321342
C	 0.6714517252	-2.1003150379	-0.0250689469	-0.044062
C	 1.1545962255	-0.8041039393	 0.0141324666	-0.237208
N	-2.4424845151	-0.4288784807	 0.0167535328	 0.338613
O	-3.2654419327	-1.3540990942	-0.0257495764	-0.421982
O	-2.7457444955	 0.7776801095	 0.0389389751	-0.430046
H	 0.8305885821	 1.9309492921	-0.1766137579	 0.256674
H	-0.8789748732	 1.8575686568	-0.0161996738	 0.278437
H	-1.3331764245	-2.8415117607	-0.0356876867	 0.286692
H	 1.2099495884	-3.0342696483	-0.0586057722	 0.142581
H	 2.1936117042	-0.5146333258	 0.0210931611	 0.107218
125.3705	167.628	218.3768	304.7386	355.1668	386.9384	442.9834	461.4502	551.9085	571.6675	613.3463	696.1333	707.3003	743.7924	784.873	830.7639	841.9175	909.5538	1046.9476	1094.1709	1117.8778	1222.3877	1270.8095	1357.944	1399.082	1459.1174	1480.3767	1524.5363	1560.5453	1606.8578	1654.9426	3253.2147	3271.4736	3559.1609	3682.7167	3694.7489
NC1=C(NC=C1)N(=O)=O	Nc1c([nH]cc1)N(=O)=O	
InChI=1S/C4H5N3O2/c5-3-1-2-6-4(3)7(8)9/h1-2,6H,5H2	InChI=1S/C4H5N3O2/c5-3-1-2-6-4(3)7(8)9/h1-2,6H,5H2
