18
gdb 37698	3.53972	1.95745	1.49449	2.0057	79.62	-0.2243	0.0111	0.2353	891.3398	0.150749	-364.720289	-364.714242	-364.713298	-364.750225	26.383	
C	-0.0483584973	 1.554931546	 0.0171440678	-0.26779
N	 1.4605206955	 1.2726825677	 0.0009018166	-0.18613
C	 1.2176678773	 0.0527655386	 0.9181928315	-0.023735
C	 1.913859968	-0.9602817345	-0.0057064876	-0.091476
C	 1.2172975843	-2.3036469416	 0.0006038784	-0.068706
C	-0.1179853195	-2.390676332	 0.0147068182	-0.075054
C	-0.9965295725	-1.1500231572	 0.0250340492	-0.41136
C	-0.0532472504	 0.027171297	 0.0159663612	 0.315177
C	 1.1982317696	 0.0542388434	-0.9129902514	-0.023735
H	-0.3846199197	 2.0749604335	 0.9211072441	 0.099125
H	-0.4037219988	 2.0764091311	-0.8786399414	 0.099125
H	 1.2605384803	 0.1458519482	 2.0054889841	 0.077463
H	 3.0049868243	-0.9974277496	-0.0173172554	 0.071572
H	 1.8260174027	-3.2027230118	-0.0065840516	 0.091329
H	-0.6107642586	-3.3586567349	 0.0191551404	 0.091621
H	-1.6663051594	-1.1455877641	-0.8461274919	 0.112555
H	-1.6476522693	-1.1470004198	 0.910230092	 0.112555
H	 1.2180164036	 0.1490728397	-2.0008003243	 0.077463
228.9689	312.3944	405.2661	409.7032	496.2085	526.8678	606.4921	711.8818	745.6844	757.7431	850.3983	859.9938	868.8239	894.7884	903.0554	921.4988	926.2154	983.665	995.4481	997.4516	1042.1956	1048.1545	1094.7119	1107.1991	1140.4123	1153.9793	1170.1637	1201.96	1207.2673	1228.7765	1230.7662	1264.374	1319.4434	1342.4867	1368.4952	1396.4722	1471.9813	1518.6006	1684.2904	3007.389	3029.2192	3034.0032	3086.3837	3087.6913	3088.7503	3100.1255	3160.0858	3183.1934
C1N2C3C4C=CCC13C24	C1N2[C@@H]3[C@H]4C=CC[C@@]13[C@@H]24	
InChI=1S/C8H9N/c1-2-5-6-8(3-1)4-9(6)7(5)8/h1-2,5-7H,3-4H2	InChI=1S/C8H9N/c1-2-5-6-8(3-1)4-9(6)7(5)8/h1-2,5-7H,3-4H2/t5-,6-,7+,8-
