14
gdb 20348	5.14873	2.13595	1.52381	2.2808	69.74	-0.213	-0.0041	0.2089	776.7685	0.111333	-341.611464	-341.605791	-341.604847	-341.640937	22.899	
C	-0.0635076426	 1.5480557912	 0.0109847441	-0.424971
C	 1.4261169485	 1.8824967013	-0.0013826768	-0.078967
C	 2.1976890381	 0.7785826524	-0.014843814	-0.179673
C	 1.3190739469	-0.3852320798	-0.0128683045	 0.339425
N	 1.4472945209	-1.7056635796	-0.0213964539	-0.344233
N	 0.1568230139	-2.1247323998	-0.0114418474	-0.188262
C	-0.7625894861	-1.1102339115	 0.002974929	-0.214826
C	-0.0294544625	 0.0482251007	 0.002393794	 0.227556
H	-0.5583658116	 1.9693682666	 0.8959908584	 0.127438
H	-0.5751706989	 1.9790691547	-0.8596738845	 0.127439
H	 1.7861189331	 2.9037522723	 0.0008237062	 0.099469
H	 3.2789234877	 0.7499962717	-0.0253149176	 0.107021
H	-0.0293361741	-3.1128345302	-0.0151585265	 0.270994
H	-1.8204129735	-1.3214396401	 0.0119014135	 0.131589
227.1746	270.8769	429.4851	459.7508	462.5264	640.2555	665.1595	710.1188	712.1468	771.5187	783.7099	862.6415	921.5961	951.9085	957.5485	975.171	1051.7088	1079.8657	1148.3854	1148.9766	1184.9256	1246.0677	1314.7982	1341.4642	1414.1497	1454.9688	1467.6667	1518.1323	1598.9686	1646.0739	3023.4819	3048.1485	3208.6712	3234.3271	3257.3257	3679.8926
C1C=CC2=NNC=C12	C1C=Cc2n[nH]cc12	
InChI=1S/C6H6N2/c1-2-5-4-7-8-6(5)3-1/h1,3-4H,2H2,(H,7,8)	InChI=1S/C6H6N2/c1-2-5-4-7-8-6(5)3-1/h1,3-4H,2H2,(H,7,8)
