19
gdb 38729	2.64875	2.07451	1.59198	1.8235	73.5	-0.2376	0.0807	0.3183	909.7438	0.162186	-423.00731	-423.000637	-422.999693	-423.037897	28.357	
C	-0.0279705623	 1.4994023709	-0.1537744854	-0.398477
C	 1.3447472825	 0.8523063892	-0.0153292262	 0.050185
O	 2.078931707	 0.3086969084	-1.092451304	-0.270423
C	 1.4512871075	-0.9669030489	-1.2813615964	 0.177864
C	 1.8195352383	-2.0506100717	-0.2459251571	-0.223738
C	 1.3028891429	-1.7707899994	 1.1981852371	-0.204969
C	-0.0183856754	-0.9437966155	 1.2625292358	-0.290338
C	 0.1038594222	 0.0244277292	 0.1178129388	 0.369525
O	 0.0730782024	-0.6980299913	-1.1169094343	-0.281197
H	-0.3030874436	 2.1755550407	 0.6505424356	 0.116729
H	-0.4099991598	 1.7555529887	-1.1350472168	 0.132097
H	 1.9452288042	 1.1190711937	 0.8479698299	 0.100447
H	 1.651718178	-1.28685817	-2.3070732118	 0.089896
H	 1.3649717925	-2.9729363884	-0.6262933344	 0.110895
H	 2.9024704238	-2.2119462072	-0.2312841731	 0.105945
H	 1.1929771441	-2.7205035269	 1.7316886483	 0.097158
H	 2.070262594	-1.2054206634	 1.7371128221	 0.108201
H	-0.9051509544	-1.5727396161	 1.1325862344	 0.110277
H	-0.102832194	-0.4437907821	 2.2326741977	 0.099923
198.5423	236.4069	335.8142	346.8406	409.9565	472.3747	490.4738	639.0494	651.0528	747.8917	788.4483	806.1014	833.5722	859.9803	884.3391	900.4884	920.3356	947.2037	974.1432	1011.719	1036.5207	1058.1947	1071.7588	1088.7669	1116.2086	1126.5039	1139.4999	1215.3676	1229.1235	1254.7933	1290.8874	1336.0094	1346.16	1358.3136	1366.8995	1377.4176	1410.0766	1466.3893	1474.3794	1480.2685	1501.9204	3036.6719	3041.9116	3047.0894	3072.7098	3085.581	3094.1657	3096.651	3127.3128	3160.6986	3228.4239
C1C2OC3CCCC12O3	C1[C@@H]2O[C@H]3CCC[C@@]12O3	
InChI=1S/C7H10O2/c1-2-6-8-5-4-7(5,3-1)9-6/h5-6H,1-4H2	InChI=1S/C7H10O2/c1-2-6-8-5-4-7(5,3-1)9-6/h5-6H,1-4H2/t5-,6+,7+/m0/s1
