15
gdb 126119	4.61218	1.00599	0.83427	2.0995	69.8	-0.28	-0.0902	0.1898	1316.8251	0.110878	-453.943754	-453.93533	-453.934386	-453.977932	29.288	
C	-0.0680318825	 1.4984696405	-0.0928333402	-0.387024
C	 0.0268604437	-0.0186435784	 0.0419707111	-0.291603
C	 0.7707606472	-0.4596647132	 1.2842428336	 0.284953
O	 1.2469437696	 0.301346945	 2.0972445709	-0.295173
C	 0.9178130982	-1.9256676706	 1.5062012312	 0.333859
C	 1.5222954741	-2.6212495203	 2.510461426	-0.16734
N	 1.3646848205	-3.9529993372	 2.2227993111	-0.109182
N	 0.7268312082	-4.1037445928	 1.1476237515	 0.002075
O	 0.4107800752	-2.8058137987	 0.6387282651	-0.216169
H	 0.9258961939	 1.9505289388	-0.1380164244	 0.136509
H	-0.6124482731	 1.7663663682	-1.0017988036	 0.119357
H	-0.5867746698	 1.9360267483	 0.7637473495	 0.136539
H	-0.9661862678	-0.4878941632	 0.0643094207	 0.142512
H	 0.5261491144	-0.4735697791	-0.8243818481	 0.142507
H	 2.0391886081	-2.2690385472	 3.3854864955	 0.16818
59.9289	66.9931	135.4616	169.4494	211.2922	272.2437	361.2536	473.9748	529.3912	651.7739	688.8974	700.6485	715.9174	813.0674	875.4135	941.2567	985.0726	1011.7842	1064.9026	1090.5541	1108.3098	1131.4081	1245.4388	1274.7465	1356.156	1376.2633	1415.5073	1437.0561	1443.121	1491.6192	1497.31	1587.6282	1787.9081	3026.4699	3051.6734	3054.948	3128.7015	3129.2653	3306.8824
CCC(=O)C1=CN=NO1	CCC(=O)c1cnno1	
InChI=1S/C5H6N2O2/c1-2-4(8)5-3-6-7-9-5/h3H,2H2,1H3	InChI=1S/C5H6N2O2/c1-2-4(8)5-3-6-7-9-5/h3H,2H2,1H3
