19
gdb 47264	2.30352	1.62529	1.08859	3.2247	83.32	-0.2388	-0.0514	0.1873	1137.2355	0.161105	-385.91204	-385.903963	-385.903019	-385.945008	31.23	
O	 0.4260203623	 1.4574383849	 1.7149485892	-0.326767
C	 0.2274756747	 1.65983354	 0.5307825108	 0.366684
C	-1.2044402402	 1.8324845245	 0.0284120939	-0.318167
C	-1.6617452126	 3.3046543116	-0.0102707503	-0.251603
C	-1.027503888	 4.2505420375	-0.9957906737	-0.019988
C	-0.2235021058	 4.0194348585	-2.0328470018	-0.065183
C	 0.3239330352	 2.6898995665	-2.5229128133	-0.328904
C	 1.4433284266	 2.1370535837	-1.662760704	-0.045669
C	 1.3866947408	 1.7168339578	-0.3927661881	-0.121366
H	-1.3463902017	 1.3515620862	-0.9417553297	 0.10763
H	-1.832058918	 1.3070199933	 0.7530188743	 0.120311
H	-2.7480018265	 3.3157819139	-0.1811181368	 0.117576
H	-1.5317487549	 3.7243318884	 0.9963095024	 0.128246
H	-1.2950011574	 5.2906611621	-0.8129076992	 0.090395
H	 0.115211517	 4.8836845205	-2.5989618538	 0.093399
H	-0.4796962901	 1.9523363681	-2.612164874	 0.131308
H	 0.7085639513	 2.8279705128	-3.5365554189	 0.108564
H	 2.4217012306	 2.1140165588	-2.1386326578	 0.109037
H	 2.3045435367	 1.3969275411	 0.0936103406	 0.104497
47.0827	163.7972	213.0272	277.0716	280.666	306.4336	398.963	492.5424	528.477	612.0767	660.0368	679.9198	709.5724	784.1875	820.0859	840.752	898.9721	916.3672	990.4657	1004.6044	1017.6225	1029.7056	1041.5363	1083.5257	1133.1109	1209.395	1225.9383	1248.3627	1281.3313	1299.1028	1340.3259	1352.6941	1389.9504	1410.7651	1425.3036	1469.2925	1475.2553	1511.0079	1688.8596	1734.2321	1754.1839	3004.7803	3034.3192	3053.5971	3069.882	3088.4654	3117.282	3126.8073	3142.887	3158.9851	3173.2482
O=C1CCC=CCC=C1	O=C1CCC=CCC=C1	
InChI=1S/C8H10O/c9-8-6-4-2-1-3-5-7-8/h1-2,5,7H,3-4,6H2/b2-1-,7-5-	InChI=1S/C8H10O/c9-8-6-4-2-1-3-5-7-8/h1-2,5,7H,3-4,6H2/b2-1-,7-5-
