24
gdb 120745	2.28585	1.04793	0.92928	1.9967	87.37	-0.217	0.0743	0.2913	1470.1059	0.214957	-405.509944	-405.49905	-405.498106	-405.546167	39.426	
C	 0.6338048667	 1.7255134827	 0.8964748979	-0.229089
O	 0.4203938412	 0.3742441089	 0.5603177103	-0.217743
C	 1.1159940944	-0.5156759753	 1.4073623084	-0.100209
C	 0.873779572	-1.9657673554	 1.0337116567	-0.023503
C	-0.2401283169	-2.3597107615	 0.1267244017	-0.250268
N	 1.1493388172	-2.5607694007	-0.2719696397	-0.088885
C	 1.6943850606	-1.7582341862	-1.375189361	 0.073302
C	 3.222791719	-1.7808742965	-1.2835686446	-0.384769
C	 1.2089375897	-2.3620569946	-2.6950109238	-0.379974
H	 1.696563815	 2.0030643919	 0.8190921223	 0.107385
H	 0.0570327073	 2.3319183446	 0.1943880667	 0.129669
H	 0.2951592524	 1.9461055398	 1.9209296521	 0.107149
H	 2.1965054774	-0.2893061523	 1.3886420083	 0.094717
H	 0.7848809005	-0.3773619361	 2.4516659277	 0.093852
H	 1.1272332597	-2.6282479052	 1.8615958144	 0.088453
H	-0.8209621201	-3.2592998329	 0.3163138223	 0.104592
H	-0.7899273182	-1.5409640411	-0.331641721	 0.124826
H	 1.3492616939	-0.7160002865	-1.3181743353	 0.082459
H	 3.5912769534	-2.8100618883	-1.3427578512	 0.119517
H	 3.6681605002	-1.2038062627	-2.1003692521	 0.106291
H	 3.5729014293	-1.3534900255	-0.3389042303	 0.107186
H	 0.1168861553	-2.3367438143	-2.7621603947	 0.111315
H	 1.6129146209	-1.8049542972	-3.5462615018	 0.10578
H	 1.5297334092	-3.4056484156	-2.7781752932	 0.117949
60.0009	77.9657	104.685	150.8189	197.9084	212.9314	230.8763	239.9297	249.816	334.8045	344.1452	384.6356	473.1767	494.9604	633.2655	710.0482	799.6851	883.4591	932.9051	935.2374	942.1176	960.0614	1007.4249	1041.0414	1077.0536	1096.6915	1117.6861	1147.9116	1151.9263	1173.0196	1187.0064	1190.9093	1197.0906	1228.3122	1280.4617	1336.3689	1370.8097	1375.2073	1397.5186	1408.4364	1415.6576	1422.4314	1478.3451	1482.5943	1485.0622	1487.1966	1494.3062	1500.0668	1508.0743	1509.9863	1524.006	2944.4043	2966.6657	2974.6525	3005.8422	3019.5761	3031.8774	3036.6361	3096.8196	3101.7477	3103.7838	3105.3253	3107.149	3112.303	3118.2897	3184.0792
COCC1CN1C(C)C	COC[C@H]1CN1C(C)C	
InChI=1S/C7H15NO/c1-6(2)8-4-7(8)5-9-3/h6-7H,4-5H2,1-3H3	InChI=1S/C7H15NO/c1-6(2)8-4-7(8)5-9-3/h6-7H,4-5H2,1-3H3/t7-,8?/m1/s1
