16
gdb 112334	2.98589	1.3542	1.03912	3.926	64.41	-0.2756	0.0069	0.2825	1119.0374	0.125216	-475.030028	-475.022308	-475.021364	-475.062709	28.807	
O	 0.0314192332	 1.4607992779	-0.0173967363	-0.414375
C	 0.0909588901	 0.0569528171	 0.1004536736	-0.070382
C	-1.2953148074	-0.5725548284	 0.0277838769	 0.071658
O	-1.8701924226	-0.2741065571	-1.2591396125	-0.257527
C	-2.429300768	-1.3891025886	-1.8280229994	 0.451881
O	-3.0053128781	-1.364252855	-2.8684331649	-0.332096
N	-2.2251863588	-2.541964354	-0.9990889223	-0.171142
C	-0.7813075091	-2.9039145425	-0.961151977	-0.26026
C	-1.3808903177	-2.0883116413	 0.1189317427	-0.055838
H	-0.3965744565	 1.6570720738	-0.8587668993	 0.298796
H	 0.7379306341	-0.3933238145	-0.6676985092	 0.09566
H	 0.5324825058	-0.1617442112	 1.078828199	 0.120324
H	-1.9334528556	-0.1111421383	 0.7905344991	 0.112461
H	-0.596922393	-3.9601932973	-0.7987191356	 0.14411
H	-0.127459626	-2.4278354205	-1.6857398354	 0.145327
H	-1.5868728305	-2.5315333302	 1.0869079706	 0.121404
93.3942	119.6218	156.1112	233.8183	328.0859	409.9836	428.6998	476.114	528.78	681.6487	703.4599	768.0522	813.5651	845.6081	869.6712	948.6825	987.1214	1012.5074	1061.966	1094.4341	1099.0835	1113.0328	1118.4848	1128.4937	1170.1415	1229.8091	1272.8298	1320.0974	1371.2579	1390.896	1401.5574	1433.0123	1491.8969	1508.7879	1908.8921	2992.1362	3046.8866	3077.9141	3127.2573	3175.8169	3220.1185	3803.6504
OCC1OC(=O)N2CC12	OC[C@H]1OC(=O)N2C[C@@H]12	
InChI=1S/C5H7NO3/c7-2-4-3-1-6(3)5(8)9-4/h3-4,7H,1-2H2	InChI=1S/C5H7NO3/c7-2-4-3-1-6(3)5(8)9-4/h3-4,7H,1-2H2/t3-,4+,6?/m0/s1
