13
gdb 124295	2.79954	1.51904	0.99072	0.1632	61.83	-0.2717	-0.0809	0.1908	1096.081	0.087615	-489.858761	-489.850749	-489.849804	-489.892166	28.289	
C	-0.048910754	 1.5079101035	-0.035574307	-0.483614
C	 0.0040274049	 0.0004435788	 0.0568361071	 0.323268
O	 0.0175859903	-0.6065328583	 1.1033570197	-0.284481
C	 0.0405660423	-0.7500756684	-1.2303878013	 0.177383
N	 0.0286473715	-0.1623513367	-2.4005901229	-0.133582
O	 0.0704455618	-1.140916351	-3.3306098536	-0.150097
N	 0.1103880231	-2.3928457806	-2.7468926856	-0.182962
C	 0.0924636674	-2.1654504818	-1.4614892181	 0.335085
O	 0.1188975311	-3.1177064261	-0.5345599553	-0.385233
H	 0.8196846918	 1.8863251465	-0.5838545873	 0.157465
H	-0.9343767744	 1.8238696318	-0.596295319	 0.157467
H	-0.0709661166	 1.9254173296	 0.9710702129	 0.146544
H	 0.1522301008	-3.9754835673	-0.9806620495	 0.322757
50.7078	120.6031	161.9697	180.5561	312.6288	342.9071	419.762	464.4761	520.1983	587.0707	631.5509	633.3754	741.304	780.6831	915.5547	958.0948	964.7151	1049.1798	1051.42	1129.4254	1229.4172	1344.2692	1392.3898	1458.524	1466.9973	1468.0165	1561.1368	1625.2607	1799.2392	3048.8153	3112.1326	3162.7991	3773.2003
CC(=O)C1=NON=C1O	CC(=O)c1nonc1O	
InChI=1S/C4H4N2O3/c1-2(7)3-4(8)6-9-5-3/h1H3,(H,6,8)	InChI=1S/C4H4N2O3/c1-2(7)3-4(8)6-9-5-3/h1H3,(H,6,8)
