18
gdb 60731	2.53697	1.11474	0.95768	3.2142	75.33	-0.2481	-0.039	0.2091	1304.9699	0.144926	-439.091919	-439.082105	-439.08116	-439.129542	33.505	
C	 0.1473320097	 1.6491437175	 0.7167064938	-0.405434
C	-0.1620632946	 0.3589755679	-0.0620556747	-0.159253
C	 0.6142374561	-0.8000907755	 0.5633395664	 0.170469
O	 1.4848201823	-1.4136941982	 0.0080934541	-0.242346
C	-1.650445891	 0.0158730481	 0.0276068374	 0.350962
O	-2.3059707519	 0.2084573644	 1.0281486109	-0.342192
N	-2.1429009802	-0.6681475391	-1.0774441047	-0.071135
C	-2.3419525415	-0.1142779092	-2.4054678278	-0.231809
C	-3.4998805593	-0.5369903127	-1.5476979482	-0.220925
H	 1.2206110336	 1.8572955795	 0.7064507672	 0.128106
H	-0.3734507863	 2.5006932555	 0.2703150746	 0.127609
H	-0.1914512506	 1.5570113232	 1.7509093941	 0.150281
H	 0.1571867271	 0.4276370953	-1.1045465491	 0.10071
H	 0.3148844478	-1.0209133505	 1.612139755	 0.097062
H	-2.1811973558	 0.9528169791	-2.5394242336	 0.13376
H	-2.0184394086	-0.7370017725	-3.2345098667	 0.137137
H	-4.0179649523	-1.4659246395	-1.7662933764	 0.134662
H	-4.1061594445	 0.2375236667	-1.0860841123	 0.142336
6.018	70.3916	92.6036	170.4819	176.8114	186.3709	250.7138	284.5105	312.9425	449.1708	464.3046	615.879	746.1969	766.9746	814.3433	883.917	924.2275	963.6781	975.2761	1045.0449	1075.908	1088.5105	1119.2096	1132.6298	1139.1127	1147.503	1174.3856	1176.1278	1266.9751	1331.8146	1395.4615	1403.7354	1417.3343	1490.5753	1495.8432	1498.5071	1522.6006	1775.8986	1837.813	2890.8065	3049.492	3091.3697	3108.8286	3118.9755	3120.546	3138.6101	3195.3128	3211.4318
CC(C=O)C(=O)N1CC1	C[C@@H](C=O)C(=O)N1CC1	
InChI=1S/C6H9NO2/c1-5(4-8)6(9)7-2-3-7/h4-5H,2-3H2,1H3	InChI=1S/C6H9NO2/c1-5(4-8)6(9)7-2-3-7/h4-5H,2-3H2,1H3/t5-/m0/s1
