16
gdb 78994	3.05417	1.80154	1.4746	1.5231	66.01	-0.2201	0.05	0.2701	894.6362	0.124475	-437.784523	-437.777462	-437.776517	-437.815687	28.447	
O	 0.0574031553	 1.5008322181	 0.0086808535	-0.448672
C	 0.0240163507	 0.1034468222	 0.0074344162	 0.171791
C	-1.329337275	-0.6612837292	-0.0179246778	-0.215634
C	-1.958802054	-0.3061796479	-1.3755546067	-0.055029
C	-1.51348086	-1.5376198587	-2.0639752619	-0.103351
N	-0.7452217289	-0.2739820205	-2.2851576619	-0.166275
C	 0.3325658312	-0.6759120275	-1.2823087456	-0.141934
C	-0.6222431447	-1.8374713557	-0.8349381049	 0.394996
O	-0.3237614268	-3.1026886401	-0.3930424126	-0.474381
H	-0.3341112233	 1.7965769994	-0.8218206622	 0.295823
H	 0.6531636955	-0.2396520281	 0.8367643405	 0.08482
H	-1.9666684435	-0.8070421725	 0.8517025997	 0.077982
H	-2.7750742456	 0.3671801131	-1.6061293953	 0.1019
H	-1.9290485481	-2.1362516927	-2.8650677258	 0.105255
H	 1.321676407	-0.7655696793	-1.7282848885	 0.081441
H	 0.1493706502	-3.0474279207	 0.4446533433	 0.291268
155.5948	170.261	275.2529	311.9691	345.422	387.9624	562.7577	617.8347	632.5196	713.72	745.7388	775.8968	804.0287	829.3953	874.5872	937.6772	943.0105	979.1116	981.5389	1010.6337	1016.5758	1023.2186	1091.5834	1112.1567	1151.0645	1157.9933	1174.8674	1214.6726	1255.3519	1272.9325	1294.1649	1316.1971	1338.3083	1415.8129	1435.8277	3055.3973	3134.1745	3144.9101	3181.7874	3196.5968	3794.7241	3805.1474
OC1C2C3C4N3C1C24O	O[C@H]1[C@H]2[C@@H]3[C@H]4N3[C@@H]1[C@@]24O	
InChI=1S/C6H7NO2/c8-3-1-2-4-6(1,9)5(3)7(2)4/h1-5,8-9H	InChI=1S/C6H7NO2/c8-3-1-2-4-6(1,9)5(3)7(2)4/h1-5,8-9H/t1-,2-,3+,4-,5+,6-,7?/m1/s1
