17
gdb 52977	4.89974	0.90039	0.84556	2.0916	83.81	-0.22	0.0197	0.2397	1415.331	0.134004	-384.58722	-384.578783	-384.577839	-384.621696	31.316	
C	 0.0146462234	 1.4645210514	-0.0920260835	-0.513678
C	-0.0214982289	 0.012691064	-0.0203726954	 0.338631
C	-0.0584857585	-1.1912994412	 0.0256910849	-0.234571
C	-0.0643842727	-2.6053187249	 0.1351671882	 0.275419
O	-0.287278443	-3.4246985069	-1.038618563	-0.289189
C	-1.1298302892	-3.6192277139	 0.0973862118	-0.075364
C	-0.3945955192	-4.493017282	 1.1584853227	-0.089652
C	 0.9965050688	-4.8490560397	 0.7025869815	-0.288668
C	 0.718900587	-3.4572090094	 1.1982073512	-0.144351
H	 0.9704240819	 1.8562106649	 0.2729985313	 0.152588
H	-0.112534143	 1.8084667205	-1.12436048	 0.156535
H	-0.7828462838	 1.9150940389	 0.5093456994	 0.151248
H	-2.1992478425	-3.5177372525	-0.0445490865	 0.114441
H	-0.8960272716	-4.9719650096	 1.9880902078	 0.096196
H	 1.5533434629	-5.470240123	 1.3970900501	 0.113086
H	 1.1995627656	-5.0279702217	-0.3454363271	 0.139611
H	 1.196530693	-3.0122921447	 2.0600208768	 0.097716
23.1728	90.6461	98.5387	259.8334	298.1753	388.6031	408.9042	426.3905	510.5062	555.3848	603.2226	731.6472	759.4413	795.5556	827.6412	895.0091	900.1988	930.6482	961.0304	1003.0605	1030.929	1048.6257	1051.6325	1053.7039	1056.8432	1101.2261	1167.8747	1174.9417	1257.1777	1273.9363	1303.3538	1410.9321	1444.6905	1465.9144	1474.5466	1476.7033	2365.4123	3027.3343	3087.8455	3091.5186	3140.7133	3189.6826	3207.3124	3216.4209	3233.9215
CC#CC12OC1C1CC21	CC#C[C@]12O[C@H]1[C@H]1C[C@@H]21	
InChI=1S/C8H8O/c1-2-3-8-6-4-5(6)7(8)9-8/h5-7H,4H2,1H3	InChI=1S/C8H8O/c1-2-3-8-6-4-5(6)7(8)9-8/h5-7H,4H2,1H3/t5-,6+,7-,8+/m0/s1
