18
gdb 10552	2.91297	1.38038	1.05642	1.1132	74.26	-0.242	0.0527	0.2947	1142.9584	0.151696	-347.75242	-347.743397	-347.742453	-347.786101	33.131	
O	-0.1648106273	 1.4809635784	 0.0702486734	-0.421125
C	-0.0370257671	 0.0757205116	 0.2321530553	-0.072881
C	-1.3460577214	-0.5580773425	-0.2267015527	-0.257369
C	-1.3624787409	-2.0749425766	-0.0789246501	 0.160795
C	-1.7342063844	-2.6611208445	 1.2787648181	-0.28912
C	-2.7050717763	-2.7586391955	 0.139022936	-0.304286
C	-0.3852187889	-2.7886016025	-0.8602393308	 0.289079
C	 0.433896161	-3.3709388998	-1.5224454159	-0.478121
H	 0.6760083775	 1.8864703632	 0.3000082846	 0.285812
H	 0.7950135701	-0.3257327171	-0.3647172215	 0.101484
H	 0.1549332887	-0.1906423415	 1.284228836	 0.084286
H	-2.1663257411	-0.1304582204	 0.360670772	 0.103047
H	-1.5229331515	-0.282097297	-1.272185519	 0.114438
H	-1.2209080742	-3.5611046002	 1.5949583801	 0.126412
H	-1.9430999931	-1.954071294	 2.0745178856	 0.119361
H	-3.5823580267	-2.1209360287	 0.1502172907	 0.119948
H	-2.8520261506	-3.725512332	-0.3268812396	 0.127109
H	 1.154635316	-3.8889713108	-2.1048385224	 0.19113
82.886	93.9723	140.7777	189.9751	224.0282	255.4198	322.9901	377.9898	395.6816	539.9326	559.9106	583.7108	644.0034	711.8852	790.8118	801.0568	878.3202	939.6398	948.6218	965.8296	1034.1949	1059.8534	1078.6816	1084.6073	1101.8158	1194.3666	1212.8793	1248.0925	1281.2551	1301.809	1338.4667	1353.7047	1461.6129	1464.7082	1485.8143	1497.8487	1529.055	2230.2594	2969.2801	3011.5386	3039.7324	3085.2386	3136.5552	3141.3299	3222.591	3236.9287	3503.8329	3833.3799
OCCC1(CC1)C#C	OCCC1(CC1)C#C	
InChI=1S/C7H10O/c1-2-7(3-4-7)5-6-8/h1,8H,3-6H2	InChI=1S/C7H10O/c1-2-7(3-4-7)5-6-8/h1,8H,3-6H2
