24
gdb 59460	2.66275	1.06167	0.8465	1.541	87.04	-0.2248	0.0703	0.2952	1482.7825	0.214758	-405.525238	-405.514404	-405.51346	-405.560667	40.654	
C	-1.5726945153	-0.4794330177	 0.7010523448	-0.396883
C	-0.3393606276	 0.4166074786	 0.5576522335	 0.112811
O	-0.7077157707	 1.7974262922	 0.593233779	-0.422523
C	 0.6939217072	 0.0869942068	 1.6194474442	-0.01376
C	 1.6780736277	-1.0158887943	 1.415254698	-0.261468
N	 2.1257356046	 0.3643086812	 1.5203900475	-0.082527
C	 2.7123548781	 0.9963763357	 0.3329856516	 0.079012
C	 2.5819907941	 2.5159040648	 0.453808392	-0.398255
C	 4.1753239075	 0.5559681295	 0.2355940497	-0.383318
H	-2.0079215835	-0.3823157845	 1.7034291673	 0.10823
H	-2.332593482	-0.190112867	-0.0295804162	 0.125045
H	-1.317562901	-1.5324943108	 0.5487801087	 0.120902
H	 0.0887701804	 0.2748115349	-0.4392639284	 0.092971
H	-1.0462501392	 1.9868276674	 1.4758478094	 0.276915
H	 0.3071564752	 0.2361965665	 2.6312337048	 0.077037
H	 1.9512517568	-1.6844802812	 2.2279141378	 0.110789
H	 1.6902957901	-1.479342389	 0.4272940494	 0.102506
H	 2.2011780229	 0.6713486322	-0.5902248197	 0.056601
H	 3.0902706916	 2.8659497916	 1.3583292407	 0.113936
H	 3.0383351829	 3.0085673717	-0.4107415893	 0.103693
H	 1.530671558	 2.8075585068	 0.5058433553	 0.138699
H	 4.2568776997	-0.5316989484	 0.1416226556	 0.108974
H	 4.6555843459	 1.0090352063	-0.6371658972	 0.108958
H	 4.7238295265	 0.8602759964	 1.1325751415	 0.121655
69.3871	98.1688	141.3367	185.0042	228.0122	232.853	253.2107	273.7448	285.9492	319.4625	340.4639	365.6272	446.0211	467.0928	513.1767	610.9254	714.5294	797.9412	891.5305	902.6485	930.8151	940.9233	962.8899	990.0401	1017.9709	1059.5642	1077.3579	1098.383	1115.1957	1132.116	1149.7496	1187.1428	1189.3953	1202.1964	1264.0148	1320.3835	1336.3104	1360.8893	1371.1124	1396.9905	1400.7569	1410.809	1417.7186	1429.9868	1483.7345	1490.5101	1491.5263	1494.1146	1497.4772	1509.6912	1519.9422	2938.6948	3027.5304	3033.9022	3038.9464	3057.6418	3071.4729	3075.1029	3101.0076	3104.3686	3105.0924	3113.7807	3122.5638	3132.8598	3162.4793	3795.6583
CC(O)C1CN1C(C)C	C[C@@H](O)[C@H]1CN1C(C)C	
InChI=1S/C7H15NO/c1-5(2)8-4-7(8)6(3)9/h5-7,9H,4H2,1-3H3	InChI=1S/C7H15NO/c1-5(2)8-4-7(8)6(3)9/h5-7,9H,4H2,1-3H3/t6-,7-,8?/m1/s1
