16
gdb 41167	3.09535	1.90322	1.72792	2.7818	68.68	-0.2399	0.0034	0.2432	841.2594	0.125939	-437.769761	-437.763502	-437.762558	-437.800023	26.114	
C	 0.1029239118	 1.5554700873	-0.2185255194	-0.175165
O	 1.5534643204	 1.3868411735	 0.0532513703	-0.321281
C	 1.156778561	 0.2882748855	 0.9415013799	 0.133949
C	 1.2215345604	-1.2781109929	 1.1637056617	-0.081299
C	-0.4004146671	-1.0987727456	 1.1562766773	-0.344627
C	-0.0772458052	 0.0578552605	 0.1578394546	 0.341847
O	 0.2246016857	-0.6066083136	-1.1164111765	-0.253762
C	 1.1222883203	-1.6044572962	-1.0553183195	 0.123001
N	 1.6686830166	-2.026880943	 0.0084359768	-0.252082
H	-0.3449753881	 2.2680299796	 0.481511306	 0.115592
H	-0.0873072014	 1.8253818973	-1.2583790255	 0.132985
H	 0.9256940846	 0.7270972782	 1.9197400682	 0.094935
H	 1.6913629323	-1.6470435514	 2.0748952038	 0.093577
H	-0.9701631775	-1.9476051546	 0.7759881681	 0.129287
H	-0.7852087995	-0.7612489728	 2.1173911391	 0.127056
H	 1.3337101058	-2.0252052416	-2.0348306149	 0.135987
192.8208	281.6025	368.5651	391.1645	424.4148	527.0094	537.5559	658.3523	705.3742	748.1007	785.7957	790.1594	857.2528	888.8713	915.3324	953.7623	969.7523	978.4257	1006.4821	1032.0044	1114.5001	1124.185	1135.4497	1176.9214	1195.6523	1211.5566	1225.2765	1250.9009	1287.8412	1328.0371	1374.8534	1414.4446	1472.5513	1489.4536	1701.9755	3021.0938	3050.8992	3090.7438	3115.532	3136.7571	3167.5412	3181.7088
C1OC2C3CC12OC=N3	C1O[C@@H]2[C@H]3C[C@@]12O[CH][N]3	
InChI=1S/C6H7NO2/c1-4-5-6(1,2-8-5)9-3-7-4/h3-5H,1-2H2	InChI=1S/C6H7NO2/c1-4-5-6(1,2-8-5)9-3-7-4/h3-5H,1-2H2/t4-,5-,6-/m1/s1
