18
gdb 34458	3.46216	1.46516	1.23112	4.5652	79.85	-0.2712	0.0327	0.3038	1034.0346	0.150779	-364.815633	-364.808627	-364.807683	-364.846877	28.402	
N	 0.0843807917	-1.0628549829	-0.0407666386	-0.349606
C	 0.0372812648	 0.0936435399	-0.0319636615	 0.179984
C	-0.0394411307	 1.5252923144	-0.0044876344	 0.220485
C	-1.2297932424	 2.1936364867	 0.702231541	-0.302268
C	-1.4333233929	 3.5112799305	-0.091132729	-0.210233
C	-0.0896342448	 3.7248088581	-0.7973385032	-0.058546
C	 1.0912799247	 3.7535435116	 0.2324574641	-0.251855
C	 1.3093812487	 2.2666381437	-0.0405725091	-0.089469
C	 0.3865423453	 2.3098689478	-1.2336610379	-0.100963
H	-2.1110853719	 1.5491688946	 0.6663195672	 0.122786
H	-1.0067554469	 2.3762076202	 1.7576601895	 0.116885
H	-2.2322965309	 3.391498222	-0.8308695301	 0.107835
H	-1.7022366208	 4.3518886166	 0.5560127329	 0.104766
H	-0.0857291055	 4.5133160395	-1.5489212465	 0.080126
H	 1.9348401949	 4.3409069297	-0.1376652857	 0.113994
H	 0.8600880422	 4.0678929859	 1.2558056549	 0.099577
H	 2.2275447834	 1.7068399141	 0.0896480152	 0.107726
H	 0.4822338612	 1.8891510674	-2.2250987887	 0.108778
142.2103	161.6565	234.9069	359.9555	390.5417	486.2086	547.7159	559.9937	612.3067	694.2491	749.1364	828.8224	851.1303	870.1371	874.1856	899.6434	944.1694	978.6708	992.2095	1012.3908	1039.4791	1044.8289	1090.0538	1117.7277	1151.2667	1169.3112	1208.4346	1234.7614	1239.6647	1259.075	1280.9992	1297.8316	1324.3879	1341.3801	1383.5789	1486.5627	1493.2225	1510.9152	2348.0605	3043.1305	3044.4323	3059.9608	3087.5186	3104.2643	3109.1152	3122.1385	3187.5895	3214.4771
N#CC12CCC3CC1C23	N#C[C@@]12CC[C@H]3C[C@@H]1[C@@H]23	
InChI=1S/C8H9N/c9-4-8-2-1-5-3-6(8)7(5)8/h5-7H,1-3H2	InChI=1S/C8H9N/c9-4-8-2-1-5-3-6(8)7(5)8/h5-7H,1-3H2/t5-,6+,7-,8-/m0/s1
