16
gdb 125332	5.13515	1.27557	1.03482	3.8252	78.02	-0.2275	-0.0234	0.2041	1117.271	0.127166	-396.968574	-396.961487	-396.960543	-397.000023	27.107	
C	-0.0215789445	 1.4542092893	 0.0367014863	-0.486959
C	 0.0002256664	-0.03678841	-0.0220702769	 0.257961
C	-0.0390975947	-0.8134487587	-1.1171946353	-0.115433
N	 0.0021575383	-2.1632867992	-0.7178763585	 0.060941
N	-0.0070496168	-3.3642899214	-1.3285949961	-0.277099
C	 0.0563291209	-4.1777099639	-0.2746120671	 0.016343
N	 0.1050633474	-3.5734715279	 0.9542036417	-0.366688
C	 0.0682549852	-2.2970985705	 0.6243599634	 0.402855
C	 0.0742173307	-0.9233416534	 1.2250675325	-0.472312
H	 0.8764081238	 1.8488532344	 0.5280102964	 0.134926
H	-0.0761977174	 1.8890301732	-0.9647231922	 0.134104
H	-0.8816080944	 1.8198597859	 0.6112992054	 0.13493
H	-0.0931436407	-0.5544174916	-2.1631230186	 0.146773
H	 0.068163632	-5.2503246923	-0.3971920057	 0.124891
H	 0.9795552592	-0.7285076584	 1.8121213977	 0.152385
H	-0.7771659238	-0.7574526355	 1.8957815871	 0.152382
129.1113	170.8767	253.4025	267.8741	294.4456	454.1995	485.4171	533.105	675.7371	704.9216	749.8387	827.9456	833.2028	883.0988	888.7872	924.9997	990.1582	1016.0295	1060.5256	1132.0641	1152.8793	1167.9124	1196.4868	1240.6072	1276.5747	1307.2864	1400.4847	1403.8853	1426.0187	1439.491	1451.2517	1477.2489	1490.7142	1575.0411	1687.0922	3021.0138	3044.1404	3067.0897	3075.3331	3115.3906	3262.4302	3265.3085
CC1=CN2N=CN=C2C1	CC1=Cn2ncnc2C1	
InChI=1S/C6H7N3/c1-5-2-6-7-4-8-9(6)3-5/h3-4H,2H2,1H3	InChI=1S/C6H7N3/c1-5-2-6-7-4-8-9(6)3-5/h3-4H,2H2,1H3
