17
gdb 108447	2.28151	1.78021	1.24518	3.5565	67.94	-0.2491	0.0029	0.252	1040.1166	0.135179	-458.959019	-458.950721	-458.949777	-458.992171	30.326	
C	-0.077575969	 1.3817404582	-0.014960436	-0.275469
O	-0.0763711667	-0.0431019029	-0.0620784846	-0.289122
C	 0.6441669788	-0.5585048839	-1.119375676	 0.259699
C	 0.0718388991	-0.4709045993	-2.5767382901	-0.309532
C	 0.2933487351	-2.0083124794	-2.7453210896	-0.236007
C	 0.8868561253	-2.0756232349	-1.3263375305	 0.0351
O	 2.3342010573	-1.8373789151	-1.3400904177	-0.256286
C	 2.1828977386	-0.4927227037	-1.085457209	 0.401501
O	 3.0374037058	 0.3154194409	-0.9076597745	-0.333446
H	 0.9400042839	 1.7764179974	 0.0801023497	 0.149098
H	-0.5466931753	 1.8110251808	-0.9110547918	 0.115478
H	-0.6635867895	 1.6618538515	 0.861934526	 0.135198
H	-0.9853828825	-0.1987687049	-2.5526068666	 0.124414
H	 0.5969525414	 0.1890946966	-3.2689367616	 0.122457
H	-0.6384410463	-2.5675901741	-2.8503799025	 0.120129
H	 0.9873970963	-2.3197071272	-3.5271836843	 0.127641
H	 0.6192027077	-2.8568838001	-0.6183290509	 0.109146
93.53	121.9029	148.5803	181.7962	229.2869	307.2767	332.4804	431.5659	509.9042	626.4777	699.5767	728.1905	766.8911	834.2087	872.323	913.6237	956.3965	969.7796	1035.19	1069.6407	1077.9232	1118.0204	1163.6653	1183.4064	1189.0928	1213.451	1227.2563	1245.5314	1275.492	1314.779	1348.3243	1463.291	1477.9762	1486.39	1488.8642	1509.7122	1925.1736	3006.2065	3074.9456	3079.4395	3081.9661	3127.966	3137.1051	3143.2489	3149.0109
COC12CCC1OC2=O	CO[C@]12CC[C@H]1OC2=O	
InChI=1S/C6H8O3/c1-8-6-3-2-4(6)9-5(6)7/h4H,2-3H2,1H3	InChI=1S/C6H8O3/c1-8-6-3-2-4(6)9-5(6)7/h4H,2-3H2,1H3/t4-,6-/m1/s1
