18
gdb 79045	3.81517	1.60165	1.38169	1.7772	75.11	-0.2291	0.0776	0.3068	964.7366	0.148909	-401.823501	-401.81677	-401.815826	-401.854253	27.866	
C	-0.1796952747	 1.5952793836	-0.1476038693	-0.417244
C	-0.0088638643	 0.1045336001	 0.0505656551	-0.038373
N	 1.1660234524	-0.5598242978	-0.7080058439	-0.203611
C	 2.13006092	-0.1427057855	 0.4332044323	-0.047867
C	 2.5439245972	-1.5371478235	 0.8865486511	 0.074196
O	 2.4247733856	-1.5590657211	 2.3325878538	-0.298683
C	 1.2078376397	-0.816740827	 2.6405656051	-0.193707
C	 0.8228450137	-0.4709717968	 1.2157242366	 0.227163
C	 1.1389206536	-1.7089595705	 0.3260376932	-0.034343
H	 0.7416968223	 2.1464461835	 0.0605276595	 0.119913
H	-0.4745139215	 1.8030599808	-1.1810370356	 0.133337
H	-0.9634425977	 1.9833603606	 0.5115081905	 0.122104
H	-0.9470745783	-0.4270322997	-0.1492783593	 0.078488
H	 2.6885174143	 0.7915925944	 0.4127791059	 0.087122
H	 3.4402433127	-2.0846677089	 0.6009396346	 0.08874
H	 0.500573826	-1.4698324796	 3.1626960428	 0.109151
H	 1.4530305778	 0.0417273472	 3.2745391165	 0.109191
H	 0.5169614212	-2.5926178499	 0.1825873611	 0.084424
203.2017	208.4192	235.1113	328.9048	410.9521	479.6321	522.9626	676.6612	712.0282	773.6324	781.6798	808.8217	858.5539	886.0454	896.6219	899.9273	936.646	940.5495	1000.2343	1037.1557	1044.7802	1065.8269	1096.6125	1127.8538	1133.9255	1180.8458	1183.0522	1194.7321	1201.1849	1216.9502	1238.5717	1290.822	1312.6835	1355.3862	1398.4495	1416.7553	1491.866	1492.4419	1519.4462	3034.9597	3036.2081	3039.9789	3081.7476	3105.6728	3114.9691	3116.1881	3128.0203	3145.8516
CC1N2C3C4OCC13C24	C[C@H]1N2[C@@H]3[C@H]4OC[C@@]13[C@@H]24	
InChI=1S/C7H9NO/c1-3-7-2-9-4-5(7)8(3)6(4)7/h3-6H,2H2,1H3	InChI=1S/C7H9NO/c1-3-7-2-9-4-5(7)8(3)6(4)7/h3-6H,2H2,1H3/t3-,4-,5-,6+,7-/m1/s1
