19
gdb 37939	2.75641	1.97522	1.43587	1.1931	79.72	-0.2381	0.0155	0.2536	949.5508	0.162373	-385.855653	-385.848857	-385.847912	-385.886462	28.433	
C	 0.029251877	 1.5399933606	-0.1533474804	-0.247782
C	 1.5521956545	 1.5330490322	 0.0115133809	-0.100773
C	 1.9068103303	 0.959341087	 1.3441518104	 0.109992
O	 1.0838823884	 1.2097982143	 2.4431861251	-0.246873
C	 0.6249752616	 0.0524598761	 3.1273641029	-0.139523
C	-0.5438554224	-0.6306832684	 2.4598792403	-0.05668
C	-0.8225277643	-0.637123143	 1.155163138	-0.068512
C	 0.0098846231	-0.0258143753	 0.0639574289	-0.041022
C	 1.5352884693	 0.0063222552	 0.251898237	-0.133505
H	-0.5164893401	 2.1274512063	 0.5874550143	 0.112457
H	-0.2968095795	 1.8184954586	-1.1570700673	 0.098999
H	 2.2507523372	 2.1325505358	-0.5594443995	 0.085778
H	 2.9713286997	 0.9719469066	 1.5827814964	 0.085021
H	 1.4541881506	-0.6571047456	 3.2858547246	 0.101586
H	 0.3172169747	 0.3997381146	 4.120321992	 0.111994
H	-1.2196251133	-1.1432281588	 3.1424543655	 0.085768
H	-1.7335372677	-1.1396269484	 0.8352994979	 0.084476
H	-0.2405233624	-0.5048376731	-0.8860261176	 0.075795
H	 2.2171917132	-0.7630580847	-0.0929079492	 0.082806
163.3299	223.051	281.5649	330.5857	422.3416	463.9529	521.7692	638.6566	697.8073	741.0355	747.6704	789.4887	820.4218	859.6838	880.217	936.8939	965.7575	983.5051	998.7689	1006.2811	1026.698	1043.5386	1060.0242	1076.1672	1100.216	1120.0381	1160.2604	1212.8482	1229.0947	1248.959	1264.736	1292.8209	1294.2885	1342.522	1366.3187	1396.6558	1419.6659	1434.3651	1480.2882	1489.0371	1722.1131	2966.3587	3055.6691	3063.9899	3073.5332	3094.6052	3128.5504	3129.7394	3153.3401	3167.6741	3186.4797
C1C2C3OCC=CC1C23	C1[C@H]2[C@H]3OCC=C[C@@H]1[C@@H]23	
InChI=1S/C8H10O/c1-2-5-4-6-7(5)8(6)9-3-1/h1-2,5-8H,3-4H2	InChI=1S/C8H10O/c1-2-5-4-6-7(5)8(6)9-3-1/h1-2,5-8H,3-4H2/t5-,6+,7-,8+/m0/s1
