20
gdb 82052	2.81332	1.42762	1.22565	0.9602	77.66	-0.2344	0.0645	0.2989	1100.7758	0.171101	-403.076218	-403.067946	-403.067002	-403.109251	31.653	
C	-0.225414066	 1.5546563754	-0.1459597433	-0.413121
C	 0.059419246	 0.0655316549	-0.0704745616	-0.012767
N	 1.0436538453	-0.500314424	-1.0728586685	-0.140653
C	 2.3761541732	 0.0148067113	-0.7082139447	-0.25174
C	 1.8149572559	-1.0857274389	 0.0978614875	-0.104308
C	 0.8339518692	-0.5535435362	 1.1295370616	 0.276385
C	 1.279723355	 0.1965954374	 2.4008643046	-0.138257
O	 0.5730285234	-0.7272592845	 3.2526811758	-0.274483
C	 0.1195722345	-1.4926928703	 2.1192114202	-0.143113
H	 0.6630288311	 2.1665806464	 0.0352357634	 0.117636
H	-0.6151005285	 1.8095971249	-1.1367839775	 0.132246
H	-0.9790047149	 1.8372079617	 0.5968506596	 0.125068
H	-0.875229434	-0.4861414281	-0.2177012825	 0.087962
H	 3.1327901245	-0.2356706043	-1.4452776279	 0.124771
H	 2.4826373756	 1.0075723321	-0.2782830214	 0.112442
H	 2.2100070141	-2.0972202029	 0.0737411269	 0.097812
H	 2.361808537	 0.1915357493	 2.587996139	 0.100313
H	 0.9043060436	 1.2226005639	 2.5095117845	 0.100681
H	-0.9763071222	-1.5111690065	 2.0443061245	 0.100389
H	 0.491110037	-2.5260519818	 2.1434086398	 0.102739
66.8444	132.3387	196.4589	205.1926	256.0406	294.2886	383.9024	445.9973	528.5153	544.9949	725.7404	765.8967	779.1154	847.9185	865.8609	906.2314	952.0869	974.6942	988.4923	1023.5547	1041.0892	1054.9267	1098.6341	1106.2417	1111.4759	1135.5041	1151.6868	1159.8293	1172.2409	1206.738	1230.8067	1253.4578	1283.6301	1307.3837	1361.3584	1382.0477	1389.677	1405.4502	1485.642	1493.6957	1505.2055	1509.4563	1530.833	2992.6923	3005.8978	3035.9853	3038.0295	3044.3095	3046.0495	3103.5644	3108.6951	3115.9615	3152.5216	3199.6681
CC1N2CC2C11COC1	C[C@H]1N2C[C@H]2C21COC2	
InChI=1S/C7H11NO/c1-5-7(3-9-4-7)6-2-8(5)6/h5-6H,2-4H2,1H3	InChI=1S/C7H11NO/c1-5-7(3-9-4-7)6-2-8(5)6/h5-6H,2-4H2,1H3/t5-,6+,8?/m1/s1
