20
gdb 59498	3.83153	0.79126	0.71135	2.6299	82.07	-0.2469	0.0577	0.3046	1616.8431	0.168311	-403.085512	-403.075204	-403.07426	-403.12163	37.542	
C	-0.0832586367	 1.4860539528	-0.365573995	-0.415368
C	 0.0385663316	 0.0609500652	 0.1720382668	 0.151412
O	 0.7322230931	 0.0195045449	 1.4184665671	-0.436261
C	-1.3174436939	-0.6096803265	 0.2874572818	-0.05262
N	-1.8292499842	-1.2994765624	-0.9090327378	-0.33397
C	-1.5147099286	-2.0813561983	 0.2953484113	-0.011176
C	-0.3731438187	-3.0845491036	 0.2038141626	-0.35558
C	-0.8354150846	-4.4107063908	-0.1922619601	 0.290415
C	-1.242638705	-5.4964748674	-0.5082220431	-0.440186
H	 0.9027422281	 1.952485012	-0.4383535812	 0.124546
H	-0.5485068869	 1.484662793	-1.355950578	 0.131936
H	-0.7051822098	 2.1007103536	 0.2984607715	 0.101563
H	 0.6583437825	-0.5230192419	-0.514175463	 0.096523
H	 0.2538864733	 0.5789579445	 2.0404072177	 0.276237
H	-2.0348993722	-0.0364054137	 0.8792145575	 0.071618
H	-2.8317310428	-1.1701382869	-1.0095991776	 0.234274
H	-2.3561222156	-2.4426059097	 0.8840128602	 0.093037
H	 0.3686331972	-2.725617849	-0.5163188297	 0.139576
H	 0.1329859472	-3.1396714885	 1.1758098785	 0.141634
H	-1.5886632739	-6.4579901772	-0.7957651493	 0.19239
37.5443	59.8724	99.6037	158.0192	219.4974	251.9608	270.3245	336.7499	339.7412	373.4725	382.086	486.5472	518.081	592.3995	615.0722	641.3762	807.4025	827.2329	886.8155	921.8581	937.7962	970.7844	986.8137	1018.8979	1039.6721	1084.492	1108.2214	1153.5024	1191.3648	1227.6714	1263.2359	1270.8081	1292.2075	1316.1376	1339.3231	1399.1293	1410.5621	1418.8201	1457.3759	1481.2645	1494.0655	1495.8632	2239.4409	3021.8698	3035.0239	3068.0822	3078.7055	3083.803	3100.0431	3123.4085	3124.4437	3507.9333	3513.1854	3800.3645
CC(O)C1NC1CC#C	C[C@@H](O)[C@H]1N[C@H]1CC#C	
InChI=1S/C7H11NO/c1-3-4-6-7(8-6)5(2)9/h1,5-9H,4H2,2H3	InChI=1S/C7H11NO/c1-3-4-6-7(8-6)5(2)9/h1,5-9H,4H2,2H3/t5-,6+,7-/m1/s1
