24
gdb 102301	2.48472	0.85679	0.76312	3.7524	89.92	-0.3088	0.0358	0.3446	1682.6859	0.215447	-368.450528	-368.439192	-368.438248	-368.487652	40.62	
C	-0.0907966986	 1.5988750066	-0.0839986863	-0.399315
C	 0.0700135101	 0.0784461741	-0.0338503907	-0.180042
C	 0.7346915774	-0.4408648019	 1.2628875954	-0.14353
C	 0.7699398865	-1.9862962604	 1.3115955192	-0.185206
C	 1.3873312822	-2.6094097513	 2.5763025233	 0.021876
C	 0.6051411833	-2.2529101852	 3.8485851526	-0.388296
C	 1.487912344	-4.1321529334	 2.4114294941	-0.391419
C	 2.0858918914	 0.114503856	 1.4059601629	 0.29123
N	 3.153956075	 0.546709802	 1.5049097719	-0.345543
H	 0.8786764157	 2.10290692	-0.0271572637	 0.144473
H	-0.5753638764	 1.9057092034	-1.0153449028	 0.120351
H	-0.7062367253	 1.9605422384	 0.7470938187	 0.11761
H	-0.9107543425	-0.4048669191	-0.1106092707	 0.104951
H	 0.657563934	-0.2664222455	-0.8925439447	 0.115664
H	 0.1494054138	-0.0704257602	 2.1141627425	 0.123077
H	-0.2640892218	-2.3385067381	 1.20102703	 0.098796
H	 1.3171366148	-2.343082862	 0.4306717225	 0.107927
H	 2.4062345171	-2.2137639445	 2.6808216195	 0.101598
H	-0.4353932071	-2.5934954548	 3.7786901895	 0.11006
H	 1.0518320927	-2.7341885919	 4.7242626858	 0.118068
H	 0.5947424601	-1.1760448327	 4.0428640877	 0.117248
H	 0.4941064391	-4.5830303467	 2.3014613312	 0.111198
H	 2.0760709218	-4.4011798749	 1.5279152546	 0.114218
H	 1.9642202527	-4.590551718	 3.2837989573	 0.115004
38.1815	75.4177	102.384	129.8481	159.8421	212.4661	231.6918	249.7452	271.602	295.3508	305.0386	398.8685	425.4256	441.1268	555.897	612.8203	754.1138	808.6381	827.4857	900.0572	930.0037	952.4574	955.7533	969.0504	1029.9135	1049.0542	1084.0063	1125.6305	1152.2783	1167.3034	1194.7152	1245.4075	1275.2865	1295.5428	1335.4477	1364.1439	1366.0859	1378.4977	1389.9414	1402.9486	1417.6712	1424.4374	1475.8704	1486.0892	1489.9766	1496.2607	1498.8937	1505.6194	1507.0305	1511.1639	2349.6031	3015.9634	3021.1282	3023.2731	3029.2213	3031.071	3036.1514	3038.3367	3063.7333	3074.869	3089.0574	3095.5412	3102.0903	3104.7606	3106.4345	3116.6945
CCC(CC(C)C)C#N	CC[C@@H](CC(C)C)C#N	
InChI=1S/C8H15N/c1-4-8(6-9)5-7(2)3/h7-8H,4-5H2,1-3H3	InChI=1S/C8H15N/c1-4-8(6-9)5-7(2)3/h7-8H,4-5H2,1-3H3/t8-/m0/s1
