21
gdb 117155	2.37554	1.04248	0.82763	2.0751	76.33	-0.2494	-0.0401	0.2093	1477.5839	0.179232	-461.365249	-461.354321	-461.353377	-461.402338	38.054	
C	 0.4630763933	 1.0435989735	-0.0007704626	-0.384307
C	 0.0666087097	-0.3991746098	 0.3189090887	-0.18618
C	-1.3906140054	-0.6924161842	-0.09896984	 0.043736
O	-1.5689310284	-0.4917474836	-1.4764618292	-0.438385
C	-1.8143203723	-2.1078058027	 0.2765564076	 0.354051
O	-2.1217336651	-2.8949947685	-0.5967055637	-0.327021
C	-1.7956183139	-2.5281805871	 1.7482812943	-0.163827
O	-0.5238262839	-3.0484981083	 2.0892095421	-0.229895
C	-0.2936395894	-4.3674022613	 1.6199643607	-0.241931
H	 1.5125997391	 1.2241640909	 0.2500685279	 0.111922
H	 0.3203506052	 1.2521814468	-1.0638003024	 0.141429
H	-0.1448541177	 1.7560097669	 0.5684124696	 0.110996
H	 0.7163830376	-1.0965855144	-0.2226728507	 0.105996
H	 0.1972234312	-0.6095760402	 1.3852168586	 0.114487
H	-2.0514302389	-0.0055109764	 0.4617647657	 0.086309
H	-1.8293395704	-1.3577785689	-1.8292819129	 0.290846
H	-1.9645518259	-1.6680438364	 2.4032295272	 0.117329
H	-2.5909345433	-3.2702129492	 1.9078451394	 0.115551
H	-1.0376272172	-5.0666020644	 2.0290630997	 0.113232
H	-0.3232547956	-4.4316337721	 0.5256214755	 0.132655
H	 0.6998694514	-4.6521836707	 1.9727988345	 0.133006
41.5378	61.801	95.4978	116.6866	149.9873	188.7517	235.6222	257.7195	291.3226	342.6121	375.8394	418.8328	440.3614	482.429	610.5767	694.376	779.1436	869.1424	917.5115	929.3952	991.2172	1005.4353	1074.5284	1100.9779	1118.5339	1156.3944	1183.3852	1195.0766	1221.1941	1271.2051	1288.2528	1309.2145	1345.0891	1369.0531	1388.1996	1406.5531	1439.1676	1469.7768	1473.6633	1483.7605	1487.7394	1495.5639	1509.8913	1512.1422	1783.645	2937.3271	2995.7334	3007.6635	3036.1043	3040.8113	3063.2719	3083.8874	3090.5355	3103.1252	3126.7819	3128.9359	3680.7861
CCC(O)C(=O)COC	CC[C@@H](O)C(=O)COC	
InChI=1S/C6H12O3/c1-3-5(7)6(8)4-9-2/h5,7H,3-4H2,1-2H3	InChI=1S/C6H12O3/c1-3-5(7)6(8)4-9-2/h5,7H,3-4H2,1-2H3/t5-/m1/s1
