21
gdb 23011	2.48941	1.08893	0.94356	1.0835	82.97	-0.2241	-0.0029	0.2212	1377.2121	0.18055	-420.335761	-420.325523	-420.324579	-420.371601	37.266	
C	-0.0260132686	 1.5530875803	 0.0934718778	-0.375989
C	-0.0200337802	 0.0181371708	-0.0335775997	-0.277779
C	 0.7738416686	-0.4528957379	-1.2302864915	 0.350177
N	 2.0488471446	-0.577251224	-1.2481655802	-0.176955
O	 2.6275041248	-0.2555583542	-0.0089069969	-0.396787
C	 0.0212973876	-0.7866483693	-2.4737977635	-0.067695
C	 0.6790573669	-1.34623795	-3.6860940898	-0.253725
N	-0.2285129934	-2.1818688663	-2.911980199	-0.088971
C	 0.371739835	-3.2755724818	-2.1566854218	-0.320019
H	 0.992254712	 1.9287556497	 0.2172810479	 0.139534
H	-0.4598282301	 2.0257524816	-0.793677847	 0.118895
H	-0.6162560579	 1.8626943893	 0.9610487515	 0.116382
H	 0.4142596458	-0.4166331822	 0.8709003336	 0.128965
H	-1.0465291501	-0.3513173994	-0.1230886842	 0.106905
H	 3.5642753856	-0.3948893999	-0.1824945226	 0.306519
H	-0.8599807189	-0.1609725655	-2.6080462157	 0.091727
H	 0.3300487946	-1.0500177718	-4.6722619364	 0.110872
H	 1.7461434618	-1.5405247489	-3.6089441988	 0.126782
H	 1.3707592767	-3.0537955056	-1.7566761719	 0.120917
H	-0.2867960648	-3.5439332386	-1.3239445084	 0.118139
H	 0.4484881	-4.143077966	-2.8197389131	 0.122106
36.3796	68.2823	129.4008	185.5992	217.2258	230.5081	233.3021	308.1277	337.174	372.2418	409.8673	444.6497	498.8353	593.1006	713.143	742.3949	773.9751	806.8669	866.0626	947.7649	974.1986	1028.9097	1046.0647	1064.8905	1086.0918	1108.3073	1127.2792	1135.6954	1169.6665	1212.7476	1220.6989	1288.6485	1323.5514	1346.659	1388.5236	1403.9436	1431.3656	1446.5688	1485.1249	1489.0362	1497.6118	1502.2265	1507.901	1509.0941	1711.5075	3003.7469	3041.2124	3051.0286	3075.8797	3094.383	3099.7876	3100.8771	3109.6612	3112.4225	3131.5362	3188.8594	3821.7715
CCC(=NO)C1CN1C	CCC(=NO)[C@H]1CN1C	
InChI=1S/C6H12N2O/c1-3-5(7-9)6-4-8(6)2/h6,9H,3-4H2,1-2H3	InChI=1S/C6H12N2O/c1-3-5(7-9)6-4-8(6)2/h6,9H,3-4H2,1-2H3/t6-,8?/m1/s1
