25
gdb 57328	1.95352	1.40095	1.25485	0.508	93.84	-0.2576	0.0604	0.318	1249.1841	0.224529	-352.334728	-352.323167	-352.322222	-352.370159	44.748	
C	-0.0505277036	 1.5463085425	 0.066906393	-0.420021
C	-0.009907585	 0.0042487213	 0.0423145573	 0.261808
C	 0.7032471575	-0.4829292944	 1.3196830047	-0.429302
C	-1.4633462293	-0.5124156651	 0.070449868	-0.42003
C	 0.732912381	-0.5078776413	-1.2688500971	 0.064924
C	 2.1936357487	 0.0064233873	-1.3554948354	-0.423416
C	 0.7757042553	-2.0560457201	-1.3532683553	-0.42338
C	 0.0204648876	-0.0195287485	-2.4590571399	 0.354414
C	-0.5341372468	 0.3604889612	-3.4569665139	-0.496767
H	 0.9467374512	 1.983649848	 0.1680639437	 0.109441
H	-0.5083039637	 1.9466690745	-0.8416262492	 0.126441
H	-0.6421281865	 1.8886365945	 0.9223277869	 0.106056
H	 0.1652866251	-0.1131877766	 2.1991323054	 0.111153
H	 0.727964398	-1.5738068067	 1.3923669597	 0.112547
H	 1.729628111	-0.1122223927	 1.3905571319	 0.112569
H	-2.0026226844	-0.2325247081	-0.8384783021	 0.126413
H	-1.5125463826	-1.5998764724	 0.1755799386	 0.109448
H	-1.9946091696	-0.0804745406	 0.9249147986	 0.106062
H	 2.7906289097	-0.3691447356	-0.5201922394	 0.114354
H	 2.6525196233	-0.349376295	-2.2819214694	 0.121629
H	 2.2451318585	 1.0964688504	-1.3600048234	 0.124729
H	-0.223654633	-2.4943673061	-1.357051939	 0.124757
H	 1.2720961547	-2.3584115233	-2.2793410016	 0.121619
H	 1.3402354073	-2.4778702281	-0.5174711828	 0.11433
H	-1.0287200547	 0.6994679349	-4.3333969996	 0.190222
45.8178	156.5445	170.7544	181.0881	246.9474	247.8103	252.7806	271.6874	296.7676	315.359	360.8942	362.6444	379.8266	411.2633	439.7296	445.0146	556.7428	566.5705	618.6549	630.2873	641.1703	794.0533	867.994	934.8097	935.4065	941.9794	942.305	965.1207	1015.9573	1047.6161	1050.8168	1148.5287	1182.0752	1207.6156	1250.0807	1251.4895	1272.0255	1390.0592	1400.7543	1401.9333	1412.2805	1436.447	1472.9611	1481.9944	1486.8556	1490.3322	1501.3327	1501.3615	1504.3157	1512.5338	1520.4065	1524.7518	2222.3114	3036.2721	3036.5061	3043.2288	3048.8353	3054.901	3097.0098	3098.7504	3105.9595	3110.2041	3117.4564	3119.8907	3121.0757	3122.2598	3137.7644	3138.8586	3500.8265
CC(C)(C)C(C)(C)C#C	CC(C)(C)C(C)(C)C#C	
InChI=1S/C9H16/c1-7-9(5,6)8(2,3)4/h1H,2-6H3	InChI=1S/C9H16/c1-7-9(5,6)8(2,3)4/h1H,2-6H3
