17
gdb 127435	3.14315	1.42262	0.99141	3.201	80.5	-0.2262	-0.0547	0.1714	1172.3459	0.136441	-418.059461	-418.051011	-418.050066	-418.092609	31.038	
C	-0.0280094021	 1.4409241864	-0.0052117058	-0.312438
N	 0.0009266374	-0.0177522636	 0.0096565791	-0.055223
N	-0.0173529812	-0.6208344983	-1.1891230066	-0.266344
C	 0.0073084782	-1.9271412162	-1.2305193373	 0.328047
C	-0.0139225899	-2.5743492533	-2.5878015075	-0.475196
C	 0.0528827139	-2.709120762	-0.0328151538	-0.137339
C	 0.0711993119	-2.0942199645	 1.1732256182	-0.192385
C	 0.0448695802	-0.646552332	 1.2649807375	 0.415072
O	 0.0583912029	 0.0183473329	 2.2906900444	-0.403918
H	 0.8605208218	 1.8376064277	 0.4926408507	 0.151052
H	-0.0619074936	 1.7566812409	-1.045955563	 0.143875
H	-0.9035869099	 1.8029123579	 0.5397391914	 0.151114
H	-0.0511681547	-1.8089890143	-3.3641764665	 0.144565
H	 0.877862692	-3.1917545732	-2.7454349247	 0.133809
H	-0.8844246668	-3.230910889	-2.6992242117	 0.133731
H	 0.072258095	-3.7923415066	-0.1092732041	 0.112375
H	 0.105558995	-2.6352292627	 2.1112812598	 0.129202
95.9983	125.1347	138.4248	197.6921	287.6373	301.2912	340.5869	413.8394	476.4929	530.7686	578.5697	597.8947	705.1648	757.9225	804.3209	866.8536	924.4839	1012.3621	1016.0059	1051.0563	1063.1704	1148.9718	1149.2121	1180.8845	1263.1065	1298.5733	1345.6049	1413.202	1435.0409	1449.9459	1471.6035	1480.494	1483.1094	1502.2609	1560.9672	1655.092	1761.925	3032.4001	3057.875	3083.5742	3119.5402	3144.9302	3172.7408	3180.6457	3213.492
CN1N=C(C)C=CC1=O	Cn1nc(C)ccc1=O	
InChI=1S/C6H8N2O/c1-5-3-4-6(9)8(2)7-5/h3-4H,1-2H3	InChI=1S/C6H8N2O/c1-5-3-4-6(9)8(2)7-5/h3-4H,1-2H3
