15
gdb 44304	3.94209	1.76639	1.56295	4.5771	66.15	-0.2501	0.007	0.2571	841.6763	0.115689	-420.61694	-420.611311	-420.610367	-420.646841	23.745	
O	-0.0409484798	-0.0333503591	-0.1906969108	-0.344862
C	-0.0069485449	 1.1512475526	-0.0349787256	 0.452866
O	-1.1412553644	 1.9113349981	 0.1373304864	-0.244512
C	-0.7325989914	 3.2672981768	 0.3450060093	 0.103012
C	 0.0193420612	 3.5179087214	 1.6536154729	-0.096364
C	 1.1942887642	 4.1448238628	 0.9332498441	-0.118062
C	 1.3220239586	 2.7371933744	 1.4534864363	-0.067752
C	 1.1759966228	 2.1026701953	 0.0440830257	-0.201585
C	 0.6259705394	 3.4933051818	-0.3753963363	-0.088587
H	-1.5617254994	 3.9321544311	 0.1114026304	 0.098304
H	-0.3789158493	 3.7334757141	 2.6351962968	 0.102746
H	 1.7569212798	 5.0440601361	 1.1283059307	 0.107926
H	 1.8959080653	 2.3622165511	 2.2890679277	 0.108387
H	 2.0924245116	 1.7339025211	-0.4095371014	 0.099185
H	 0.6867150063	 3.8634067222	-1.3951438061	 0.0893
156.7681	351.4653	428.0652	504.7488	616.4608	685.7146	718.8713	776.3332	802.0763	820.7117	828.1928	853.9153	885.5273	905.6609	910.0729	965.5407	984.4332	1000.883	1022.2021	1038.9658	1045.7985	1062.1184	1138.0576	1150.7015	1175.8457	1181.1666	1218.879	1247.1213	1265.5448	1297.7145	1356.4541	1360.4367	1889.5647	3142.1541	3153.5362	3161.1151	3213.2051	3219.6918	3245.9988
O=C1OC2C3C4C3C1C24	O=C1O[C@H]2[C@@H]3[C@H]4[C@@H]3[C@@H]1[C@@H]24	
InChI=1S/C7H6O2/c8-7-5-2-1-3(2)6(9-7)4(1)5/h1-6H	InChI=1S/C7H6O2/c8-7-5-2-1-3(2)6(9-7)4(1)5/h1-6H/t1-,2+,3-,4+,5-,6+/m1/s1
