22
gdb 119276	2.63545	0.88071	0.78249	1.1742	78.47	-0.2315	0.068	0.2995	1555.9469	0.193059	-441.443997	-441.433373	-441.432429	-441.480694	38.167	
O	-0.7357235701	 0.4627355042	-1.6617682375	-0.414802
C	-0.3480244664	 0.2489559535	-0.3054557965	-0.067602
C	-1.4802080541	-0.509208579	 0.3871454692	-0.279834
C	-1.5778329012	-1.9826740554	 0.0009758142	 0.328788
C	-0.5964021801	-2.8782576168	 0.7459880697	-0.239881
C	-0.4519923037	-4.2970864568	 0.2101135306	-0.087302
O	 0.5224509206	-4.94747531	 1.0196349425	-0.425212
C	-2.9087576967	-2.4831567076	-0.4415735761	-0.289718
N	-1.8206169704	-2.3096415517	-1.4172510373	-0.348292
H	 0.0384754403	 0.7332117695	-2.1632505921	 0.290511
H	 0.5908629786	-0.3206994711	-0.2498061348	 0.098202
H	-0.1810129584	 1.2110034692	 0.2027503262	 0.089351
H	-1.3480919724	-0.427022699	 1.4727934567	 0.101872
H	-2.4130275628	 0.0114288941	 0.1414690396	 0.105921
H	 0.4020168162	-2.4217540559	 0.7274325834	 0.101452
H	-0.8870551857	-2.927608671	 1.8034832318	 0.104522
H	-1.4147569103	-4.8288690022	 0.2582795373	 0.082705
H	-0.1499841369	-4.2621854883	-0.8439111981	 0.109971
H	 0.664739007	-5.8273616188	 0.6594909788	 0.283481
H	-3.2056663662	-3.5131869795	-0.2646981698	 0.110491
H	-3.7366054799	-1.7775113043	-0.4450153902	 0.10436
H	-1.9298601973	-1.4475176831	-1.9442435573	 0.241015
41.5136	52.3147	105.6981	139.7928	185.4568	221.8288	254.6138	264.2301	319.3937	340.5775	391.2636	407.1451	479.8308	543.908	718.4601	784.5053	852.9438	866.2263	903.8423	949.5228	978.7841	994.9146	1016.0364	1050.2872	1069.3312	1081.0623	1099.1687	1123.7646	1150.1017	1186.5682	1226.6335	1232.8489	1262.5907	1273.2341	1281.2094	1302.1855	1320.8878	1360.0469	1395.6379	1406.3724	1447.922	1463.5893	1468.2055	1490.2583	1517.7006	1517.8455	1528.8331	2979.8764	2981.6135	3013.1678	3019.963	3034.2851	3037.4422	3060.8715	3074.8746	3100.7761	3182.3563	3518.6788	3832.2655	3837.7195
OCCC1(CCO)CN1	OCCC1(CCO)CN1	
InChI=1S/C6H13NO2/c8-3-1-6(2-4-9)5-7-6/h7-9H,1-5H2	InChI=1S/C6H13NO2/c8-3-1-6(2-4-9)5-7-6/h7-9H,1-5H2
