20
gdb 120058	4.36676	1.00052	0.95841	1.3277	78.68	-0.2372	0.0737	0.3109	1312.4536	0.171528	-403.061849	-403.053647	-403.052703	-403.095457	30.924	
C	-0.2279921449	 1.3724336541	-0.5611530258	-0.222234
O	-0.1622212535	-0.0243345457	-0.716243981	-0.235197
C	 1.101541824	-0.5587922601	-0.3832559586	-0.088892
C	 1.0210247724	-2.0630514619	-0.5634905882	 0.058478
C	 0.9194879072	-2.7325723732	-1.9498398022	-0.08857
C	 2.1789411798	-2.2281865297	-2.702691368	-0.25029
C	 2.9760885854	-2.9527224915	-1.6202534159	-0.036253
C	 1.8384754363	-3.8448849436	-1.30400617	-0.049096
N	 2.2706303393	-2.8467091884	-0.2851332697	-0.170008
H	-0.0373263448	 1.6776520671	 0.4800166016	 0.104864
H	 0.4988243563	 1.8909733723	-1.2068468806	 0.10254
H	-1.2361462898	 1.6869238259	-0.8423802915	 0.126232
H	 1.8905090859	-0.1127243205	-1.009252143	 0.088693
H	 1.363189686	-0.3372759226	 0.6657283423	 0.095169
H	 0.2446071506	-2.4532649941	 0.1024041844	 0.087927
H	-0.0301831529	-2.8603520595	-2.4637782837	 0.077516
H	 2.2935295458	-2.742679024	-3.660369902	 0.10719
H	 2.30822009	-1.151838685	-2.8496691797	 0.097863
H	 4.0381517329	-3.1522102406	-1.5695273942	 0.096946
H	 1.7466852241	-4.9067739188	-1.1191881041	 0.097122
53.5814	89.816	126.8579	224.359	282.0875	341.3273	370.7704	488.8303	595.2111	707.9265	750.0241	785.0696	812.4825	841.1493	907.9109	916.9635	956.9792	979.2508	988.7683	1003.9277	1043.0773	1051.6696	1079.203	1120.008	1131.089	1152.0299	1164.2659	1171.2634	1187.5577	1209.138	1223.4487	1236.4923	1251.9991	1270.5599	1289.9844	1339.4265	1376.3238	1435.382	1481.7243	1486.0458	1496.7607	1508.8047	1532.95	2958.6245	2971.7623	2992.8626	3012.635	3054.6044	3061.8985	3106.3645	3112.0925	3145.9171	3199.2586	3213.6507
COCC1C2CC3C2N13	COC[C@H]1[C@H]2C[C@@H]3[C@H]2N13	
InChI=1S/C7H11NO/c1-9-3-6-4-2-5-7(4)8(5)6/h4-7H,2-3H2,1H3	InChI=1S/C7H11NO/c1-9-3-6-4-2-5-7(4)8(5)6/h4-7H,2-3H2,1H3/t4-,5-,6+,7+,8?/m1/s1
