13
gdb 21486	5.16381	1.68833	1.27504	3.634	61.83	-0.2288	-0.0154	0.2135	880.8967	0.099029	-390.991615	-390.984918	-390.983974	-391.022712	24.961	
N	 0.2941715243	 0.5989880157	 1.0697743237	-0.550746
C	-0.0558110024	 0.0981313146	-0.166467732	 0.251676
N	 0.5372371493	 0.2733460376	-1.285368804	-0.503938
C	-1.3055805924	-0.7015035451	-0.11290989	 0.378481
N	-1.9376998534	-1.1642703799	-1.1822794941	-0.24969
N	-2.9814995204	-1.8170898818	-0.6321651317	-0.170623
C	-2.9476702133	-1.7292646664	 0.7128208253	 0.014169
N	-1.8971098791	-1.0271385477	 1.0799558565	-0.322665
H	 1.2448099823	 0.9059255034	 1.1946019224	 0.2456
H	-0.1533321386	 0.1778821299	 1.8700758983	 0.266763
H	 1.3755620837	 0.8455624309	-1.1637516874	 0.198796
H	-3.6489857186	-2.2796142978	-1.2282336386	 0.288768
H	-3.6858248614	-2.1785537934	 1.3596357514	 0.153411
73.6318	213.1882	229.3365	392.4031	419.7756	488.813	524.9558	574.7391	636.4319	664.1458	685.7281	815.9268	850.6723	866.2316	989.1103	1001.0228	1101.0853	1112.1509	1133.617	1178.6843	1280.8572	1335.1727	1373.0876	1469.382	1502.7837	1558.8489	1626.0744	1723.2049	3261.1821	3447.4768	3576.7331	3659.9172	3702.3902
NC(=N)C1=NNC=N1	NC(=N)c1n[nH]cn1	
InChI=1S/C3H5N5/c4-2(5)3-6-1-7-8-3/h1H,(H3,4,5)(H,6,7,8)	InChI=1S/C3H5N5/c4-2(5)3-6-1-7-8-3/h1H,(H3,4,5)(H,6,7,8)
