16
gdb 73994	2.82217	1.90864	1.3363	2.8933	78.58	-0.2267	-0.0801	0.1466	945.8896	0.123792	-400.654725	-400.64732	-400.646375	-400.686669	28.403	
C	-0.1735252223	 1.3563514716	-0.1327507369	-0.472669
C	-0.0587449304	-0.0376552222	 0.3944508558	 0.094473
C	-1.0541321533	-0.9631873916	 0.4840472935	-0.02427
C	-1.6887924971	-1.4792971868	-0.7988855291	-0.174817
N	-0.6968681851	-2.6571056771	-0.6820181273	-0.15022
C	-0.5418843679	-2.3658332007	 0.7534339685	-0.077652
C	 0.6901439702	-2.2582688244	-0.0565834377	-0.137427
C	 1.1926159901	-0.8331753788	 0.1227393506	 0.346978
O	 2.2928568543	-0.4169884364	-0.1465857299	-0.325512
H	 0.6311373546	 1.5765306981	-0.8400353062	 0.148063
H	-1.1453807382	 1.5356177743	-0.605797957	 0.12313
H	-0.0797454043	 2.0780874822	 0.6886581552	 0.14666
H	-2.6745824738	-1.944692403	-0.7257627623	 0.136804
H	-1.6164955535	-0.8502906277	-1.6900865536	 0.128379
H	-0.7670228266	-3.0641895676	 1.5509658042	 0.114579
H	 1.3914835532	-3.0713094498	-0.2021263479	 0.123503
88.5847	133.8874	202.4375	260.4348	383.6502	425.0612	490.4967	563.1353	605.5177	668.6675	731.4688	757.9979	778.8849	806.6679	875.2607	903.2864	975.0152	1019.8856	1030.4803	1039.8041	1058.7595	1081.8927	1100.1184	1121.8646	1181.7963	1220.9895	1245.2924	1266.804	1299.2717	1403.9817	1461.8078	1483.6923	1500.1786	1590.3284	1796.7474	3022.7406	3060.9218	3073.9151	3116.1815	3126.7001	3181.3322	3202.4742
CC1=C2CN3C2C3C1=O	C[C]1[C]2CN3[C@H]2[C@@H]3C1=O	
InChI=1S/C7H7NO/c1-3-4-2-8-5(4)6(8)7(3)9/h5-6H,2H2,1H3	InChI=1S/C7H7NO/c1-3-4-2-8-5(4)6(8)7(3)9/h5-6H,2H2,1H3/t5-,6-,8?/m1/s1
