18
gdb 11058	3.36589	2.35045	1.97472	2.209	66.46	-0.2429	0.0875	0.3304	775.3932	0.155726	-384.959049	-384.952385	-384.951441	-384.989418	26.966	
C	-0.0517278454	 1.4666802554	 0.0772231613	-0.465652
C	 0.0308062305	-0.0317779698	-0.0477639618	 0.502606
C	 0.7286996192	-0.7055950901	-1.2392125179	-0.276176
C	 0.4051770324	-2.0999708017	-0.6674681359	-0.097984
C	 1.0152016852	-1.9449919828	 0.7366079317	-0.071337
O	 0.7263439334	-0.5748882302	 1.0751593913	-0.297642
C	-1.1184361123	-1.9591159348	-0.50502694	-0.071335
O	-1.2837040143	-0.5881316641	-0.0947583694	-0.297644
H	 0.9513194569	 1.8966977159	 0.1182496896	 0.125667
H	-0.5923153723	 1.8859267691	-0.7740567382	 0.125745
H	-0.5839249502	 1.7285981682	 0.9948504981	 0.139114
H	 0.2443714354	-0.4921766969	-2.194294514	 0.105001
H	 1.7962094122	-0.4819073573	-1.2910789273	 0.104994
H	 0.7350788358	-2.976849739	-1.2244272883	 0.07709
H	 0.5582751766	-2.6135001896	 1.4760722453	 0.102192
H	 2.1013326236	-2.1050123774	 0.742967484	 0.096583
H	-1.6589326344	-2.130070027	-1.4452194705	 0.096589
H	-1.5289546224	-2.627232698	 0.261518002	 0.102188
184.6557	193.9751	285.6554	324.2564	390.0161	490.1574	526.114	595.6092	631.9487	798.1688	840.54	842.4789	863.3928	897.9629	939.2397	959.6049	960.4764	970.877	1013.9575	1035.1468	1110.2238	1115.0571	1150.5243	1180.8734	1194.6922	1199.8917	1225.6065	1289.0143	1315.8071	1343.9491	1362.6897	1387.9884	1422.7577	1480.4623	1489.9753	1490.1791	1518.0426	1535.2416	3010.3163	3012.5437	3050.6529	3057.0458	3059.5344	3074.0109	3122.2003	3133.1509	3137.0868	3142.1413
CC12CC(CO1)CO2	C[C@@]12C[C@@H](CO1)CO2	
InChI=1S/C6H10O2/c1-6-2-5(3-7-6)4-8-6/h5H,2-4H2,1H3	InChI=1S/C6H10O2/c1-6-2-5(3-7-6)4-8-6/h5H,2-4H2,1H3/t5-,6+
