18
gdb 16961	3.357	2.19254	1.96882	1.7026	65.51	-0.251	0.083	0.334	787.7213	0.156505	-384.953799	-384.947199	-384.946255	-384.984332	26.335	
C	-0.1898531452	 1.5598009604	 0.0134930881	-0.408291
C	 0.0211981385	 0.0485119998	-0.0050053063	 0.016383
C	 0.8760583636	-0.5005402567	-1.1964236138	-0.248697
C	 1.9725991145	-1.2788435828	-0.4358798712	 0.044404
C	 2.9119861975	-0.2732451932	 0.254711727	-0.082104
O	 2.0657422581	 0.2418821477	 1.2977330771	-0.274274
C	 0.8553295291	-0.5058229148	 1.1722043525	 0.178004
O	 1.261486304	-1.7788629388	 0.7123141392	-0.250617
H	 0.7686549479	 2.0852746087	 0.0391806992	 0.128582
H	-0.7434921464	 1.8892207886	-0.8713765849	 0.113035
H	-0.7615284493	 1.8681435381	 0.8957504298	 0.114294
H	-0.950012915	-0.4573503084	 0.0113895928	 0.079599
H	 0.2971078503	-1.1671879492	-1.8389586105	 0.106831
H	 1.2912971572	 0.2975950552	-1.8183925738	 0.100692
H	 2.4576280093	-2.0958723135	-0.9676213036	 0.087126
H	 3.7891233794	-0.758393885	 0.6983393171	 0.10624
H	 3.2393812845	 0.5371791958	-0.4053913985	 0.10081
H	 0.3671416321	-0.573347422	 2.1447161998	 0.087984
127.9603	227.982	258.9907	325.3338	387.9951	501.6772	576.9674	622.5291	768.7407	811.7164	827.6479	858.0187	891.6841	919.5566	947.6534	966.4124	985.7445	1010.9244	1046.6035	1050.9406	1109.2584	1117.8009	1135.2141	1193.6998	1206.8735	1256.5397	1261.4331	1305.3762	1319.1957	1327.1505	1340.6466	1367.2898	1382.4827	1410.9185	1491.3503	1495.4076	1501.6596	1521.6226	3028.0082	3034.7488	3046.5543	3061.4977	3074.7264	3096.9753	3111.5002	3119.4224	3126.4989	3138.9593
CC1CC2COC1O2	C[C@H]1C[C@H]2CO[C@@H]1O2	
InChI=1S/C6H10O2/c1-4-2-5-3-7-6(4)8-5/h4-6H,2-3H2,1H3	InChI=1S/C6H10O2/c1-4-2-5-3-7-6(4)8-5/h4-6H,2-3H2,1H3/t4-,5-,6+/m0/s1
