14
gdb 133651	2.57501	1.24399	1.03441	1.2649	51.67	-0.2848	-0.0676	0.2172	1126.8002	0.094469	-605.336844	-605.32763	-605.326685	-605.371928	32.103	
C	-0.0018126195	 1.5598206156	-0.0982706231	-0.413498
C	 0.0334450426	 0.0430764784	 0.152963721	 0.052633
O	 0.6534191061	-0.237571047	 1.3783077938	-0.43697
C	-1.3532700572	-0.5805867973	 0.1324930357	 0.20676
O	-1.7919293853	-1.1977250993	 1.0697118419	-0.298461
C	-2.222597416	-0.4070148015	-1.1395416345	 0.249931
F	-3.1252648827	-1.370653267	-1.2387911002	-0.042616
F	-2.8577601408	 0.7723957023	-1.084248443	-0.072574
F	-1.4610807237	-0.4143230714	-2.2428840604	-0.072407
H	 1.0174067304	 1.9411934405	-0.0065500024	 0.143576
H	-0.3759191531	 1.7966197443	-1.096719097	 0.13541
H	-0.6251227816	 2.0590211888	 0.6483655135	 0.135672
H	 0.5932304233	-0.4300287894	-0.672073036	 0.114915
H	 0.0287578775	-0.7735324871	 1.8895471806	 0.297629
38.7465	62.256	166.6977	193.2945	234.7069	276.2677	333.1928	342.3531	371.6236	423.9054	448.239	522.9607	572.8274	686.8059	745.4088	789.5139	921.513	1004.3705	1051.7031	1089.0041	1181.1561	1186.4928	1234.0737	1270.5954	1320.9923	1350.194	1399.6552	1424.5989	1488.2221	1496.7455	1827.6585	2965.2474	3054.0367	3134.4831	3141.1478	3716.3304
CC(O)C(=O)C(F)(F)F	C[C@@H](O)C(=O)C(F)(F)F	
InChI=1S/C4H5F3O2/c1-2(8)3(9)4(5,6)7/h2,8H,1H3	InChI=1S/C4H5F3O2/c1-2(8)3(9)4(5,6)7/h2,8H,1H3/t2-/m1/s1
