20
gdb 23198	2.20989	1.42037	0.96674	1.0748	83.89	-0.2278	0.0182	0.246	1270.8724	0.16977	-403.086439	-403.077225	-403.076281	-403.120456	34.826	
C	-0.3146700627	 1.5265867164	-0.0371338626	-0.378375
C	 0.1007401463	 0.0532070757	 0.0808224715	-0.294504
C	 0.8019250389	-0.4530062052	-1.1506922811	 0.289613
C	 0.0649319218	-0.9533979046	-2.3844376319	-0.319208
C	 1.0213165247	-1.8843878637	-1.7108590758	-0.126018
C	 2.4629338823	-1.5335222435	-2.1246189633	-0.329336
C	 2.2092606073	-0.147271604	-1.5407081979	 0.382163
N	 2.9240970376	 0.8583931521	-1.2504099475	-0.271455
O	 4.2450983747	 0.6880561794	-1.7203589279	-0.395064
H	 0.5613203203	 2.158569043	-0.2074707751	 0.143438
H	-1.0054779691	 1.6744082556	-0.8737846122	 0.113591
H	-0.811637314	 1.8668713413	 0.8766352409	 0.107312
H	 0.7638416388	-0.0698093807	 0.9460184324	 0.104529
H	-0.7818979957	-0.5706572447	 0.2697780256	 0.094133
H	-0.9887241299	-1.1527339645	-2.2121951602	 0.116307
H	 0.2863179736	-0.5529252651	-3.370596001	 0.114007
H	 0.7103897316	-2.8196818381	-1.2631846857	 0.097574
H	 3.237092073	-2.059440003	-1.5587159123	 0.129955
H	 2.6995324158	-1.5989524664	-3.1910896603	 0.117088
H	 4.6685906546	 1.5006403599	-1.4246309755	 0.304251
73.4991	106.0388	159.3641	181.771	233.0664	281.9945	319.3229	359.1299	421.3007	429.0289	511.2524	543.4154	665.004	738.1576	786.0707	820.9047	835.3045	871.8911	933.0434	971.7185	980.8408	996.622	1012.7708	1035.3286	1076.2237	1094.4797	1105.4465	1122.131	1164.4126	1225.6456	1247.7179	1276.0979	1329.5159	1345.636	1383.0519	1407.5625	1423.186	1468.2265	1478.431	1496.676	1499.4386	1510.9618	1780.1556	3020.8109	3036.9292	3052.7331	3056.6111	3103.252	3104.4985	3109.0254	3120.681	3191.5664	3200.8192	3821.5702
CCC12CC1CC2=NO	CC[C@]12C[C@H]1CC2=NO	
InChI=1S/C7H11NO/c1-2-7-4-5(7)3-6(7)8-9/h5,9H,2-4H2,1H3	InChI=1S/C7H11NO/c1-2-7-4-5(7)3-6(7)8-9/h5,9H,2-4H2,1H3/t5-,7+/m1/s1
