16
gdb 5082	3.28718	1.97365	1.25091	0.599	67.43	-0.1728	0.0683	0.2411	940.7527	0.131393	-379.953215	-379.944968	-379.944024	-379.985305	30.879	
C	-0.1144723842	 1.5069233872	 0.0391297183	-0.507748
C	-0.0392322745	 0.0120796974	 0.0068293551	 0.226979
C	-0.0730796886	-0.7918572648	-1.1046909312	-0.194643
N	 0.0234358303	-2.1160869349	-0.6917311503	-0.320783
C	 0.117059182	-2.1448114936	 0.6642224948	 0.401654
O	 0.2229313151	-3.313238574	 1.332473302	-0.440888
C	 0.0832127326	-0.8586351946	 1.1460089163	-0.032753
N	 0.1650833926	-0.6009222428	 2.5489227751	-0.627433
H	 0.7769458683	 1.9530049412	 0.4985143519	 0.11487
H	-0.2044308226	 1.9191691968	-0.9699828717	 0.120369
H	-0.97683535	 1.8621591842	 0.6177379039	 0.114867
H	-0.1568618752	-0.5464379463	-2.1506558028	 0.109601
H	 0.0256976028	-2.9274695056	-1.2832868703	 0.263137
H	 0.2726756163	-3.0535432601	 2.2649227632	 0.302322
H	-0.6541697435	-0.1082238388	 2.8930377305	 0.235225
H	 0.9684412586	-0.0245722113	 2.7829804352	 0.235225
118.2468	171.3286	223.3046	252.0775	262.789	276.6164	298.3528	419.6214	516.3529	521.3551	569.1496	630.1892	650.6636	698.306	735.1259	767.9733	854.9682	996.1771	1061.9484	1062.6582	1086.7309	1190.084	1209.0614	1256.2673	1283.1707	1395.4593	1399.9248	1418.8048	1482.3612	1494.0422	1575.2294	1589.418	1635.2845	1692.1839	3012.7231	3053.8933	3102.7437	3265.2824	3478.2357	3537.742	3694.581	3734.5494
CC1=CNC(O)=C1N	Cc1c[nH]c(O)c1N	
InChI=1S/C5H8N2O/c1-3-2-7-5(8)4(3)6/h2,7-8H,6H2,1H3	InChI=1S/C5H8N2O/c1-3-2-7-5(8)4(3)6/h2,7-8H,6H2,1H3
