19
gdb 75334	2.55315	1.65139	1.14651	3.4438	82.69	-0.2336	-0.0383	0.1953	1107.2294	0.16043	-385.927598	-385.919483	-385.918539	-385.96015	31.478	
C	-0.3278960578	 1.4994018806	 0.0411033749	-0.476216
C	-0.0209005019	 0.0296586555	-0.0347614098	 0.194648
C	-0.0474179241	-0.673532471	-1.1774040079	-0.144519
C	 0.1761640529	-2.1544058795	-1.2944866342	-0.286177
C	 0.8577750247	-2.7768745442	-0.0922292064	-0.041691
C	 2.1369591664	-2.2022254337	 0.4245404942	-0.29437
C	 0.8508232654	-2.0116096282	 1.2213757674	-0.125603
C	 0.2409987475	-0.6533717309	 1.2656550691	 0.345064
O	-0.0411739947	-0.1201053245	 2.3244232786	-0.344475
H	 0.5232406835	 2.0591712471	 0.4444542987	 0.133268
H	-0.5779373496	 1.9048652378	-0.9424842238	 0.111641
H	-1.1614645778	 1.6781758961	 0.7268337191	 0.146818
H	-0.2906333563	-0.1569334835	-2.1048395135	 0.094963
H	-0.7975673548	-2.6385509813	-1.4622223018	 0.123966
H	 0.7586068636	-2.3631128672	-2.2026611234	 0.116408
H	 0.7457509839	-3.8533638668	-0.0103212688	 0.094662
H	 2.8744910081	-2.8752948389	 0.8461041937	 0.123088
H	 2.5483060104	-1.330078158	-0.0718573099	 0.124856
H	 0.7623212606	-2.5555989592	 2.1544938138	 0.103668
88.3436	141.3924	194.0445	272.2998	296.0811	320.8872	387.1158	440.7363	490.7406	541.4725	668.8846	731.442	759.8604	769.2364	841.9457	867.9661	915.5487	928.3484	949.9253	1014.4567	1034.0274	1069.6982	1073.3116	1075.1955	1116.6843	1129.3969	1158.8247	1211.2713	1240.3698	1254.6337	1350.9894	1377.6162	1390.6499	1408.6607	1411.9316	1468.7798	1470.1711	1485.542	1488.1855	1706.586	1755.5104	2998.0524	3023.8374	3038.5554	3096.1289	3123.7449	3136.5372	3138.0762	3155.8193	3184.0325	3227.1434
CC1=CCC2CC2C1=O	CC1=CC[C@H]2C[C@H]2C1=O	
InChI=1S/C8H10O/c1-5-2-3-6-4-7(6)8(5)9/h2,6-7H,3-4H2,1H3	InChI=1S/C8H10O/c1-5-2-3-6-4-7(6)8(5)9/h2,6-7H,3-4H2,1H3/t6-,7+/m0/s1
