18
gdb 39611	3.94517	1.27603	1.26585	1.9064	76.	-0.2442	0.0171	0.2613	1056.4305	0.149862	-401.978248	-401.970944	-401.97	-402.010517	28.416	
C	 0.1881478498	 1.629758303	 0.3992747582	-0.308032
C	 1.3922839905	 1.9672493857	-0.4435715727	-0.061867
C	 2.0707462713	 0.8786349659	-0.8010037382	-0.061867
C	 1.4411900373	-0.3807844521	-0.2608571998	-0.308016
C	 0.0692608041	 0.0909462993	 0.2792792952	 0.384868
C	-0.4950646014	-0.666272607	 1.5144120563	-0.253736
N	-1.7451820708	-1.2986436767	 1.0679498821	-0.265279
C	-1.8683315357	-0.975618061	-0.1506984146	 0.107845
O	-0.938189954	-0.1995392293	-0.7483666739	-0.253258
H	 0.3366726805	 1.9312366004	 1.4455604031	 0.109894
H	-0.736779924	 2.1081711908	 0.0603720155	 0.121258
H	 1.6650868385	 2.987375511	-0.6882771616	 0.095992
H	 2.9848179556	 0.8698267117	-1.3835454617	 0.095991
H	 1.3023443949	-1.1636620461	-1.0138854066	 0.121254
H	 2.0499410239	-0.8177539677	 0.5429705682	 0.109891
H	 0.1975878039	-1.4325933446	 1.8801484152	 0.114446
H	-0.7002713066	 0.0083078419	 2.3532261085	 0.114442
H	-2.6864283176	-1.2725330051	-0.798449603	 0.136175
68.8549	83.8884	273.6155	367.6963	378.4765	428.2557	428.8133	536.1227	682.0241	756.1254	788.2655	790.2639	844.9597	906.6324	921.158	946.302	964.0102	976.8796	982.4057	990.3998	991.3782	1059.9225	1119.1852	1139.7893	1147.2563	1150.9716	1178.5751	1240.8198	1248.7883	1296.9658	1320.1257	1339.193	1352.5906	1368.5712	1465.2774	1472.5207	1499.3054	1689.1152	1709.8237	3010.877	3011.7424	3035.0877	3065.5847	3071.6467	3071.7404	3187.9768	3209.114	3212.7827
C1C=CCC11CN=CO1	C1C=CC[C@]21CN=CO2	
InChI=1S/C7H9NO/c1-2-4-7(3-1)5-8-6-9-7/h1-2,6H,3-5H2	InChI=1S/C7H9NO/c1-2-4-7(3-1)5-8-6-9-7/h1-2,6H,3-5H2
