16
gdb 126440	1.90711	1.82274	0.99803	0.6296	79.07	-0.2423	-0.022	0.2203	1167.6151	0.124928	-396.913133	-396.904607	-396.903662	-396.947122	31.01	
C	 0.1085466618	 1.5276884141	 0.1326903693	-0.378938
C	-0.063270203	 0.0122580448	-0.0722197515	-0.310081
C	 0.6872211014	-0.502549353	-1.2581276717	 0.209749
N	 0.0990023011	-0.782841863	-2.4203676809	-0.242396
N	 1.1059558825	-1.1817806949	-3.1916876459	-0.100397
N	 2.3088596399	-1.1953161969	-2.6491911218	-0.274947
C	 2.0771414486	-0.7605333486	-1.3994637167	 0.145523
C	 3.0968901959	-0.6126810934	-0.4312146892	 0.284782
C	 3.9317795067	-0.4730415328	 0.4243128777	-0.446008
H	 1.1615241638	 1.7849096365	 0.2801238282	 0.132591
H	-0.2585318428	 2.0824900316	-0.7358072288	 0.126923
H	-0.449378418	 1.8612834508	 1.012676466	 0.116796
H	 0.284167228	-0.5152341166	 0.8232421225	 0.119912
H	-1.1215889411	-0.2312730782	-0.2029790387	 0.123613
H	 0.9573020129	-1.4716462155	-4.1449559038	 0.295394
H	 4.6782732323	-0.3544943049	 1.1702173253	 0.197484
34.7893	126.6419	161.7004	179.5262	227.544	331.1673	388.6203	498.1288	530.385	545.282	587.6674	598.4151	673.0899	690.9793	718.7035	785.1629	804.2563	974.3179	997.679	1070.2147	1088.3366	1172.1758	1197.0489	1261.4658	1276.1346	1354.1283	1357.4752	1407.1482	1447.3452	1477.8084	1491.8947	1498.9042	1512.5482	1547.5305	2240.5197	3041.0239	3045.2817	3091.0977	3114.6241	3121.5422	3502.7742	3665.9913
CCC1=NNN=C1C#C	CCc1n[nH]nc1C#C	
InChI=1S/C6H7N3/c1-3-5-6(4-2)8-9-7-5/h1H,4H2,2H3,(H,7,8,9)	InChI=1S/C6H7N3/c1-3-5-6(4-2)8-9-7-5/h1H,4H2,2H3,(H,7,8,9)
