21
gdb 39836	2.67275	1.73544	1.35092	0.2977	85.13	-0.2421	0.0787	0.3207	1037.8138	0.184813	-349.919743	-349.912426	-349.911482	-349.951088	31.168	
C	-0.1011926466	 1.4257389327	-0.0628974733	-0.310362
C	 1.2909466777	 0.8499164719	 0.0349281552	-0.038085
C	 1.9467969651	 0.6584919192	 1.3924288303	-0.038085
C	 1.2112258867	 1.0426805659	 2.653589898	-0.310362
C	 1.1537766319	-0.3833540063	 2.1566042084	-0.118259
C	-0.0030264466	-0.8185674438	 1.2754862764	 0.380853
C	-0.4339780713	-2.2650304171	 1.2797238485	-0.33121
C	-1.3391952437	-1.2098871652	 1.8658506092	-0.304252
C	 0.0908866796	-0.0731265389	-0.0434037185	-0.11826
H	-0.5459740651	 1.918089313	 0.7940511136	 0.112285
H	-0.3816889616	 1.8704429532	-1.0124668628	 0.104496
H	 1.9543940466	 0.9786335488	-0.812541549	 0.080669
H	 3.0304933287	 0.6645488542	 1.4148038014	 0.080669
H	 1.8156494177	 1.2290990252	 3.5356569769	 0.104496
H	 0.3249606296	 1.6638908915	 2.5967380195	 0.112285
H	 1.6466170623	-1.1462767238	 2.7510624626	 0.078726
H	-0.7172691515	-2.7153719045	 0.3336706753	 0.108615
H	 0.0686737176	-2.9447716707	 1.9604371309	 0.108616
H	-1.4483730184	-1.1720628877	 2.9446820511	 0.109219
H	-2.2353502248	-0.9423681211	 1.3157895773	 0.109219
H	-0.1411002339	-0.6244920867	-0.9492190211	 0.078726
117.2606	193.6338	286.4359	330.5181	342.659	464.8325	494.6284	557.1458	666.8453	699.3198	769.804	785.2003	786.3457	823.6443	828.9068	903.3147	911.2121	928.3501	953.3065	973.7051	976.6065	1000.9656	1037.6165	1040.3712	1050.9573	1055.4541	1074.6407	1076.296	1089.3451	1103.8954	1107.4103	1118.3636	1187.3129	1193.4183	1219.0997	1274.0699	1274.9249	1326.5581	1356.0822	1377.1102	1410.9839	1467.0602	1476.7611	1501.5237	1505.116	3120.9636	3127.3325	3129.4892	3134.5222	3148.8625	3151.2678	3165.5265	3179.3513	3199.9153	3212.0611	3216.6884	3218.5713
C1C2C3CC3C3(CC3)C12	C1[C@H]2[C@H]3C[C@H]3C3(CC3)[C@@H]12	
InChI=1S/C9H12/c1-2-9(1)7-3-5(7)6-4-8(6)9/h5-8H,1-4H2	InChI=1S/C9H12/c1-2-9(1)7-3-5(7)6-4-8(6)9/h5-8H,1-4H2/t5-,6+,7-,8+
