21
gdb 58498	2.12931	1.33592	1.10982	3.2285	79.99	-0.256	-0.0409	0.2151	1241.4431	0.178591	-424.226016	-424.215635	-424.214691	-424.261244	37.696	
C	-0.1284116338	-0.2393865662	-2.7803357875	-0.405127
C	-0.0367413707	-0.5273908937	-1.2725315206	-0.033821
C	 0.6536327062	 0.6171046645	-0.5164466914	-0.403243
C	-1.4129317037	-0.8481075793	-0.697290751	 0.400782
C	-2.4688502119	 0.2397970641	-0.7179835933	-0.469748
O	-1.9008814426	-2.1477636135	-1.0272285963	-0.273203
C	-1.5720901987	-1.92093492	 0.3386893819	-0.108998
C	-0.4226628826	-2.6661530131	 0.9349671817	 0.140674
O	 0.4336708073	-3.250259762	 0.3201142709	-0.250696
H	 0.8755096113	-0.1506890436	-3.2067350116	 0.116968
H	-0.6458030491	-1.050380903	-3.3008459563	 0.133713
H	-0.6562862104	 0.6973539907	-2.9894758706	 0.111625
H	 0.561514619	-1.4341964837	-1.1524527505	 0.119947
H	 0.7242114773	 0.4088146365	 0.5566246126	 0.111171
H	 1.6705546567	 0.7597971451	-0.8942568712	 0.121706
H	 0.1219283233	 1.566671248	-0.6406949932	 0.115866
H	-2.6294113409	 0.5999996091	-1.7384297261	 0.136418
H	-3.4193985395	-0.1463959948	-0.3432828491	 0.130621
H	-2.1713095925	 1.0934497773	-0.1020961176	 0.129848
H	-2.426600131	-1.8303343857	 1.0128743674	 0.096428
H	-0.4144911739	-2.6314151567	 2.0486224018	 0.079069
55.6865	111.9908	146.0324	178.8436	207.8079	230.2446	249.1031	259.9359	287.4809	309.1456	347.4553	440.5792	486.3997	534.6425	673.0642	759.6118	806.5589	871.1879	922.3689	934.6159	936.7323	969.1785	976.0097	1022.2625	1078.63	1098.1335	1129.0807	1145.8737	1188.1676	1274.9984	1294.7067	1357.3609	1381.6884	1397.1437	1408.8897	1419.5471	1425.5163	1443.9624	1479.8949	1488.5822	1495.3095	1501.4027	1507.5738	1513.3506	1822.5288	2869.5352	3030.5795	3035.93	3048.3676	3077.9255	3088.9685	3096.4809	3102.3119	3110.0882	3115.5865	3117.0294	3130.2128
CC(C)C1(C)OC1C=O	CC(C)[C@@]1(C)O[C@H]1C=O	
InChI=1S/C7H12O2/c1-5(2)7(3)6(4-8)9-7/h4-6H,1-3H3	InChI=1S/C7H12O2/c1-5(2)7(3)6(4-8)9-7/h4-6H,1-3H3/t6-,7+/m0/s1
