19
gdb 109218	4.0202	1.16354	1.03325	1.1562	76.93	-0.2344	0.0346	0.269	1223.1838	0.159757	-419.201454	-419.192857	-419.191913	-419.234499	32.194	
C	-0.0035354361	 1.3420407077	 0.0459791068	-0.231486
O	-0.0001489517	-0.0848223151	-0.0552865485	-0.242345
C	 0.6098110613	-0.5760762052	-1.1280756002	 0.445211
N	 1.1837874654	 0.1032226501	-2.0439662712	-0.346975
C	 1.6907604066	-0.8649563773	-3.0212817607	-0.234094
C	 1.3786839644	-2.2540475985	-2.4365393468	 0.320598
C	 0.9393737332	-3.3607055542	-3.3592959047	-0.478036
C	 1.9560270023	-2.5433521806	-1.1021786387	-0.292389
N	 0.5715840176	-1.9998638888	-1.2130353056	-0.197341
H	 1.0188443822	 1.7274340518	 0.0911178148	 0.137765
H	-0.5055349975	 1.7865355298	-0.8177163527	 0.140717
H	-0.542655975	 1.5724913352	 0.9652217853	 0.131355
H	 1.1765521389	-0.7315294022	-3.982394407	 0.108351
H	 2.75956476	-0.7062990449	-3.2079208513	 0.110256
H	 1.7566896717	-3.6470186383	-4.0306792036	 0.123118
H	 0.6350818633	-4.2463363102	-2.7954376493	 0.130024
H	 0.0927693042	-3.0403208342	-3.9756168219	 0.126836
H	 2.0002606684	-3.5677305937	-0.7445329927	 0.121799
H	 2.7187752908	-1.8801891414	-0.702195412	 0.126636
98.9278	152.0143	183.7037	204.4418	226.6574	263.4835	328.5382	370.5288	399.8791	513.1635	596.0382	699.3471	728.3368	796.3799	822.6389	866.0784	928.395	960.2031	995.0879	1023.9024	1052.7422	1076.3227	1107.8004	1127.1437	1145.0279	1182.7479	1208.9275	1224.1574	1262.3735	1315.2677	1362.0391	1389.4324	1420.453	1476.2704	1478.4909	1485.3092	1493.6518	1495.4626	1500.0021	1512.586	1704.9612	3016.2093	3033.5691	3046.3795	3049.9399	3097.0654	3109.5609	3118.751	3119.2645	3154.8453	3200.9128
COC1=NCC2(C)CN12	COC1=NC[C@@]2(C)CN12	
InChI=1S/C6H10N2O/c1-6-3-7-5(9-2)8(6)4-6/h3-4H2,1-2H3	InChI=1S/C6H10N2O/c1-6-3-7-5(9-2)8(6)4-6/h3-4H2,1-2H3/t6-,8?/m0/s1
