17
gdb 67310	3.10828	1.48089	1.22548	4.6871	77.29	-0.2537	0.009	0.2627	1041.7367	0.136085	-380.790692	-380.783058	-380.782114	-380.822703	29.46	
C	-0.062055181	 1.5197233302	 0.0220605509	-0.529927
C	-0.026679593	 0.0164968393	 0.0127168462	 0.317684
C	 0.796283884	-0.9669939475	-0.8831110523	-0.04341
C	 1.9863260752	-1.0208500126	 0.0770610537	-0.268153
C	 0.73598451	-0.9723948934	 0.9583764808	-0.04815
N	-0.0144638894	-1.9484802426	 0.0077360666	-0.157754
C	-1.1986382203	-0.9788530231	-0.0502073444	-0.179455
C	-2.1207018217	-1.0428611683	 1.0756541862	 0.287808
N	-2.8440517194	-1.0614219969	 1.9776137858	-0.328718
H	 0.9492173347	 1.9359010298	 0.0788086607	 0.129939
H	-0.5359201409	 1.9079118581	-0.8857848848	 0.129915
H	-0.6285771508	 1.8885615142	 0.8833786673	 0.143719
H	 0.7604003415	-1.0615126507	-1.97005378	 0.091153
H	 2.5469645249	-1.9584161475	 0.0926574578	 0.120056
H	 2.6474144884	-0.1519939592	 0.1005033848	 0.109015
H	 0.6310498835	-1.0726375448	 2.0389086522	 0.108797
H	-1.7512923057	-1.042945915	-0.9936348715	 0.11748
127.6762	132.488	201.2751	255.2076	294.3219	387.5933	412.3615	521.8412	562.4579	635.0013	731.5023	798.7518	854.1681	861.0816	872.3652	898.851	925.6283	936.1763	1010.3918	1024.87	1025.8332	1077.3682	1112.6554	1145.2302	1160.2184	1183.9513	1192.3099	1218.7754	1229.969	1282.1429	1327.4228	1383.6773	1413.4483	1483.4581	1487.5478	1493.3928	2350.767	3032.7709	3059.7138	3066.6576	3101.4328	3102.3955	3105.5921	3120.7012	3132.8013
CC12C3CC1N3C2C#N	C[C@@]12[C@H]3C[C@@H]1N3[C@H]2C#N	
InChI=1S/C7H8N2/c1-7-4-2-5(7)9(4)6(7)3-8/h4-6H,2H2,1H3	InChI=1S/C7H8N2/c1-7-4-2-5(7)9(4)6(7)3-8/h4-6H,2H2,1H3/t4-,5+,6-,7-/m0/s1
