15
gdb 29305	5.6363	0.99193	0.89775	1.0502	69.57	-0.2157	-0.0069	0.2088	1248.161	0.11425	-453.947187	-453.939639	-453.938695	-453.97972	28.213	
O	 0.3857043984	 1.2897779449	-0.1400693938	-0.428049
C	 0.1196267498	-0.0264580648	-0.0838443188	 0.320934
C	-0.3065461503	-0.8429579275	-1.0785395625	-0.154567
O	-0.434196089	-2.1035303415	-0.5241977837	-0.192411
C	-0.0762611362	-1.9568017439	 0.7685511492	 0.419595
N	 0.2673648102	-0.742757246	 1.086972432	-0.400697
C	-0.1033186474	-3.1375705102	 1.6392687357	-0.100435
C	-1.1671366349	-4.1709660657	 1.4647348661	-0.232378
N	 0.2162056805	-4.4711815944	 1.0904935588	-0.315596
H	 0.6716844854	 1.5525408322	 0.7432043893	 0.308631
H	-0.540952628	-0.7336546228	-2.1203859215	 0.148278
H	 0.2952059585	-2.9400640859	 2.6281934538	 0.120733
H	-1.5346865618	-4.6998413411	 2.3393213564	 0.129797
H	-1.8988174204	-4.0044918486	 0.6797578765	 0.130243
H	 0.3199472652	-4.3957563848	 0.0806796124	 0.245921
60.3249	154.1257	171.9362	315.0565	338.9568	364.4655	426.6319	497.3847	647.3288	653.1217	704.7256	732.925	766.3006	818.2522	882.8488	965.3253	982.2062	995.8225	1027.0655	1099.3197	1122.2924	1138.3423	1167.7151	1185.2784	1265.8635	1273.8684	1299.5617	1356.6481	1376.3143	1412.323	1502.7698	1614.9944	1699.3372	3115.9662	3179.6941	3207.9573	3319.5161	3500.0188	3807.5818
OC1=COC(=N1)C1CN1	Oc1coc(n1)[C@H]1CN1	
InChI=1S/C5H6N2O2/c8-4-2-9-5(7-4)3-1-6-3/h2-3,6,8H,1H2	InChI=1S/C5H6N2O2/c8-4-2-9-5(7-4)3-1-6-3/h2-3,6,8H,1H2/t3-/m1/s1
