14
gdb 31443	3.05569	1.37654	0.9546	4.0539	68.79	-0.2711	-0.0805	0.1906	1140.6872	0.101488	-470.030437	-470.022749	-470.021805	-470.063199	27.933	
O	 0.1378587174	 1.3743317346	-0.0434524592	-0.419417
C	 0.0221693286	-0.0154598596	-0.0420958883	-0.11272
C	-1.4005824668	-0.4956309151	-0.0169289494	 0.328026
N	-2.3385206863	 0.3901944208	-0.0001663337	-0.324129
C	-3.6515731876	-0.0224960063	 0.0236537897	 0.442758
N	-4.6416329947	 0.7522520164	 0.0392806268	-0.511058
O	-3.8619578284	-1.4408585584	 0.0304587817	-0.208227
C	-2.7985837099	-2.2417993441	 0.0094606217	 0.150748
N	-1.571822603	-1.8772731223	-0.0141274213	-0.309402
H	-0.7668761047	 1.7224221708	-0.0292507997	 0.303371
H	 0.5010015374	-0.4619846481	-0.9295834788	 0.130152
H	 0.5325041632	-0.4626834033	 0.8272400188	 0.130244
H	-5.5166895378	 0.2309047075	 0.055442259	 0.23812
H	-3.0817396373	-3.2918751828	 0.0155498326	 0.161534
75.791	135.4106	173.3803	199.8414	341.3603	411.0905	417.6781	490.3173	577.9605	611.8575	627.3942	730.4794	770.2913	846.4722	859.6882	953.9292	989.0455	1029.9423	1086.3529	1121.4316	1159.6236	1240.9035	1268.3926	1282.4073	1346.6952	1408.7651	1465.9197	1486.322	1599.9866	1691.5061	1780.8194	2976.3375	2989.2407	3178.2382	3519.6063	3703.7676
OCC1=NC(=N)OC=N1	OC[C@H]1N=C([NH])OC=N1	
InChI=1S/C4H5N3O2/c5-4-7-3(1-8)6-2-9-4/h2,5,8H,1H2	InChI=1S/C4H6N3O2/c5-4-7-3(1-8)6-2-9-4/h2-3,5,8H,1H2/t3-/m1/s1
