23
gdb 119884	3.98511	0.80582	0.71905	1.194	89.44	-0.2329	0.0266	0.2595	1674.9036	0.206419	-388.306855	-388.297294	-388.29635	-388.342006	35.536	
C	-0.0321918245	 1.6136490471	-0.1014893552	-0.378532
C	 0.0145893088	 0.084121054	-0.0625624409	-0.157476
C	-1.3836163461	-0.5491060735	 0.0860677091	-0.281179
C	-1.3745494209	-2.0569635064	 0.1160504995	 0.286933
C	-1.5419967945	-2.7704331245	 1.2308576009	-0.162848
C	-1.5586301051	-4.2763448556	 1.2326865417	-0.249512
C	-1.7645249962	-4.7949890642	-0.1913589091	-0.07795
O	-0.8948336926	-4.1402651842	-1.0988679587	-0.244814
C	-1.1721004079	-2.7592453327	-1.2086041068	-0.154055
H	 0.9710175533	 2.0406171189	-0.1965495542	 0.112796
H	-0.6281047571	 1.9710573558	-0.9488006713	 0.113745
H	-0.4820254578	 2.0193723376	 0.8116344332	 0.114256
H	 0.4976336794	-0.2886875737	-0.9739290027	 0.099755
H	 0.6418031025	-0.2495988331	 0.772752416	 0.102623
H	-1.8470844287	-0.1719867678	 1.0054722145	 0.099055
H	-2.0163989415	-0.2004763328	-0.7438651202	 0.094924
H	-1.6800098847	-2.2608406172	 2.182525309	 0.07524
H	-0.6193723538	-4.6704773655	 1.6452877407	 0.112571
H	-2.3603608684	-4.651603693	 1.88185576	 0.099521
H	-1.5406544472	-5.8626708865	-0.2689464206	 0.103618
H	-2.8145909522	-4.6442884782	-0.49379145	 0.086158
H	-2.0641702463	-2.5924921595	-1.8434173407	 0.091306
H	-0.3219342284	-2.3265370553	-1.7485672242	 0.113864
53.9665	74.0191	93.253	185.4875	243.8846	264.8454	295.7856	324.1814	345.0987	462.4563	525.7062	533.0438	667.874	742.2618	814.4101	852.6074	870.785	897.4066	907.4004	941.212	975.0492	1027.9152	1042.6244	1051.3046	1082.8468	1109.263	1113.0784	1146.0678	1181.2897	1227.5684	1256.2971	1262.6347	1308.1438	1316.7098	1320.1706	1354.5275	1364.0773	1380.6907	1400.9037	1411.4732	1421.9123	1471.9473	1478.2908	1484.1934	1492.2417	1499.2456	1500.642	1509.4089	1739.423	2915.8684	2964.8092	2997.204	3009.1614	3027.3095	3029.4428	3044.1979	3046.3961	3053.1903	3067.5743	3085.9906	3097.3396	3102.354	3141.1224
CCCC1=CCCOC1	CCCC1=CCCOC1	
InChI=1S/C8H14O/c1-2-4-8-5-3-6-9-7-8/h5H,2-4,6-7H2,1H3	InChI=1S/C8H14O/c1-2-4-8-5-3-6-9-7-8/h5H,2-4,6-7H2,1H3
