22
gdb 69777	3.05495	1.36651	1.29901	1.4439	85.48	-0.2137	0.0889	0.3026	1130.2641	0.194653	-367.195888	-367.1874	-367.186456	-367.228204	34.42	
C	-0.1818055496	 1.5230928479	 0.0641182011	-0.485788
C	 0.0491245555	 0.0333420337	-0.0190526539	 0.362427
C	-0.7544012191	-0.9105740792	 0.8600298395	-0.346621
C	 0.7254015039	-0.7769902624	 1.0716980926	-0.03942
N	 1.5407668089	-1.840423174	 0.5146836821	-0.130019
C	 2.6883352377	-1.3001963483	-0.2406063733	-0.28823
C	 1.4547322705	-1.7144392666	-0.9621513997	 0.362201
C	 1.4194173104	-2.9872830653	-1.7701923884	-0.476915
C	 0.4961798937	-0.5781143016	-1.3486410231	-0.374598
H	 0.6973014494	 2.0827906896	-0.2772665475	 0.112555
H	-1.0317854423	 1.8335429895	-0.5558059304	 0.117036
H	-0.3964685741	 1.8343907288	 1.091628861	 0.114813
H	-1.4100169097	-0.4647750961	 1.6010453678	 0.10755
H	-1.1226129148	-1.8392908667	 0.433966061	 0.111039
H	 1.1078845389	-0.3249046446	 1.9817379059	 0.084884
H	 2.8965913545	-0.2356806113	-0.151121347	 0.105093
H	 3.5673801784	-1.9385221662	-0.2539272524	 0.109587
H	 2.0823775724	-3.7413625899	-1.3385429636	 0.126414
H	 0.4057115375	-3.4029896586	-1.8014137865	 0.116358
H	 1.7360498009	-2.8006002065	-2.802837564	 0.115689
H	-0.3501423975	-0.9705876265	-1.9264431838	 0.097038
H	 0.9920069847	 0.1695811345	-1.9790615473	 0.098907
129.7914	190.1229	206.1503	218.5643	290.0802	355.1757	371.8176	403.1895	413.818	462.6841	549.0674	622.681	727.8788	757.2189	766.8461	840.5397	875.0061	929.1567	933.4359	938.9039	965.0756	981.2622	1023.1838	1038.3543	1057.7316	1072.3498	1107.8889	1110.0021	1116.8726	1122.2264	1184.971	1211.8243	1241.6782	1277.1159	1299.1534	1321.5068	1376.2531	1395.9113	1417.6662	1422.3447	1479.2034	1486.0347	1489.74	1492.2236	1498.8046	1502.7907	1512.4873	3016.0073	3019.4812	3027.5888	3054.062	3074.1684	3086.5984	3093.908	3097.3946	3118.5547	3119.4281	3155.7178	3185.619	3207.425
CC12CC1N1CC1(C)C2	C[C@]12C[C@H]1N1C[C@]1(C)C2	
InChI=1S/C8H13N/c1-7-3-6(7)9-5-8(9,2)4-7/h6H,3-5H2,1-2H3	InChI=1S/C8H13N/c1-7-3-6(7)9-5-8(9,2)4-7/h6H,3-5H2,1-2H3/t6-,7-,8+,9?/m1/s1
