17
gdb 37091	2.17333	2.05062	1.31975	0.7319	72.2	-0.2528	0.0702	0.323	989.2664	0.134756	-421.735914	-421.728428	-421.727484	-421.767754	29.467	
C	-0.0161769311	 1.5340236162	 0.1043360832	-0.327443
C	 1.2636940471	 0.7501897934	-0.0757950073	-0.318676
C	-0.0543653722	 0.0404654016	 0.0155308567	 0.291457
C	-0.4650253301	-0.997948342	 1.0469743536	-0.102207
O	-1.8756765696	-1.2250378781	 0.8905545292	-0.244364
C	-0.9772901861	-1.8990260787	-0.0022646419	-0.096839
C	-0.6106028441	-0.8773412569	-1.0776314003	 0.378485
C	-1.1930333889	-0.6246116707	-2.3907058313	-0.262424
O	 0.1215831338	-1.2007017321	-2.2422289436	-0.276439
H	-0.2091905057	 1.9931340696	 1.0682284951	 0.120962
H	-0.3924673598	 2.1002925078	-0.7417049097	 0.118178
H	 1.7439097873	 0.7585396308	-1.0483870313	 0.131682
H	 1.9446593378	 0.6768576078	 0.7657861755	 0.117502
H	-0.0210261894	-1.2209004885	 2.0099362959	 0.111612
H	-1.0177236686	-2.9796557207	-0.0667275683	 0.117314
H	-1.954457961	-1.2935053318	-2.7884619251	 0.122382
H	-1.2091387294	 0.3888708123	-2.7886362504	 0.118818
114.7337	181.3393	200.2696	246.6838	324.3626	367.7279	508.4452	552.3564	601.6779	621.6956	775.9859	821.4364	850.8319	860.5432	877.7795	898.8377	928.6743	965.0106	974.3268	989.4994	1011.3912	1037.0442	1055.9438	1076.4198	1119.0948	1132.5684	1153.6173	1187.7229	1200.9419	1227.4878	1239.3675	1356.1073	1389.1927	1453.9854	1463.975	1504.1655	1542.0385	3085.9693	3128.0878	3131.828	3173.6866	3186.4768	3201.2583	3207.4548	3223.0475
C1CC11C2OC2C11CO1	C1CC21[C@H]1O[C@H]1[C@]12CO1	
InChI=1S/C7H8O2/c1-2-6(1)4-5(9-4)7(6)3-8-7/h4-5H,1-3H2	InChI=1S/C7H8O2/c1-2-6(1)4-5(9-4)7(6)3-8-7/h4-5H,1-3H2/t4-,5+,7-/m0/s1
