18
gdb 72770	2.76819	1.7822	1.49751	2.2604	77.35	-0.2331	-0.0036	0.2294	953.0119	0.148555	-401.880453	-401.873079	-401.872135	-401.911819	29.74	
C	-0.2181953622	 1.5833854571	-0.1610922392	-0.451236
C	 0.0433836051	 0.0925012699	-0.0120585825	 0.450959
O	-1.1070533528	-0.556817083	 0.6531447802	-0.336311
C	-0.3710832148	-0.676961669	 1.9076213458	-0.150901
C	 0.8914208062	-0.4161081022	 1.1228562356	 0.100468
C	 2.0096837911	-1.0318053879	 0.7415096756	-0.174936
C	 2.0520058925	-1.0272720212	-0.7604360336	-0.074158
N	 0.9812792302	-1.9421510336	-1.2489749549	-0.32566
C	 0.7275836571	-0.4933770975	-1.2397844721	-0.143945
H	 0.6635636509	 2.09715647	-0.5575267843	 0.120627
H	-1.0523384214	 1.7447360934	-0.8527693786	 0.126425
H	-0.4787134485	 2.0359944322	 0.7991417084	 0.121519
H	-0.6790654896	 0.0939967907	 2.6256356767	 0.103795
H	-0.473769444	-1.668047176	 2.3598418726	 0.12308
H	 2.6404426943	-1.6757293471	 1.3427354504	 0.105114
H	 2.9634729456	-0.9301523445	-1.340699799	 0.092613
H	 1.1905392244	-2.2123059415	-2.2089958322	 0.231042
H	 0.650287386	 0.0253830101	-2.1900971989	 0.081505
164.9395	204.793	213.1183	247.0778	338.9751	422.8365	441.0188	527.1047	601.5814	673.921	711.193	810.4195	835.3929	843.0364	853.5366	872.9704	893.3293	932.121	954.6217	975.4144	1009.4002	1072.6611	1079.4408	1094.8563	1127.765	1138.0784	1161.4821	1194.5107	1221.9996	1238.6536	1308.1415	1330.0154	1355.5276	1398.6412	1402.7152	1485.2784	1487.0252	1510.1023	1713.6882	3013.9829	3034.4366	3082.9445	3103.5387	3118.3171	3157.2116	3169.2852	3202.9391	3477.9466
CC12OCC1=CC1NC21	C[C@]12OC[C]1[CH][C@H]1N[C@@H]21	
InChI=1S/C7H9NO/c1-7-4(3-9-7)2-5-6(7)8-5/h2,5-6,8H,3H2,1H3	InChI=1S/C7H9NO/c1-7-4(3-9-7)2-5-6(7)8-5/h2,5-6,8H,3H2,1H3/t5-,6-,7+/m1/s1
