18
gdb 76272	2.3176	1.63937	1.08443	2.5987	73.1	-0.2752	-0.0128	0.2624	1128.1161	0.147654	-439.153645	-439.144986	-439.144042	-439.187098	32.283	
C	 0.1891604455	 1.6502037688	 0.2236495256	-0.402011
C	 0.0372092716	 0.1329803377	 0.0202316632	-0.097808
C	 0.8560044477	-0.4599933569	-1.1496466509	-0.149545
C	 1.1531215862	 0.4102259445	-2.3688281298	-0.412542
C	 2.1177004948	-0.9679121721	-0.4626275327	 0.43349
O	 3.1769383176	-1.2464615563	-0.9319033388	-0.317022
O	 1.8621305964	-1.1105150204	 0.8905614659	-0.219882
C	 0.6092846937	-0.6055320378	 1.2143842854	 0.400897
N	 0.0767723036	-0.7257777952	 2.3457052162	-0.517877
H	 1.2387703437	 1.9394924771	 0.3415114147	 0.128895
H	-0.2223876924	 2.2003484086	-0.6264734997	 0.126493
H	-0.3473617939	 1.9512258439	 1.1261809147	 0.147875
H	-1.0249884128	-0.1050809947	-0.0655382258	 0.113808
H	 0.3445447493	-1.3715739678	-1.490626391	 0.126871
H	 1.6680009103	 1.3334985767	-2.0920786566	 0.132881
H	 1.7993556443	-0.1360958105	-3.059739836	 0.146494
H	 0.2300989863	 0.6746092641	-2.8921065428	 0.123207
H	 0.678900788	-1.2454259996	 2.9863489285	 0.235776
59.0731	137.8889	213.0252	245.0345	247.0524	254.568	277.1731	367.9075	447.0244	546.0196	607.9302	629.267	687.7983	731.1005	764.7927	860.1736	871.5548	913.1433	988.2888	1009.0065	1045.5689	1058.737	1102.6504	1118.6466	1162.7935	1173.6856	1261.6354	1307.0011	1323.0635	1346.9266	1355.741	1404.4747	1416.142	1490.4243	1493.4831	1503.5775	1507.4673	1788.953	1910.6899	3011.8277	3042.5737	3052.9115	3088.847	3116.3983	3124.9849	3131.7111	3134.4829	3479.4223
CC1C(C)C(=O)OC1=N	C[C@H]1[C@@H](C)C(=O)O[C]1[NH]	
InChI=1S/C6H9NO2/c1-3-4(2)6(8)9-5(3)7/h3-4,7H,1-2H3	InChI=1S/C6H9NO2/c1-3-4(2)6(8)9-5(3)7/h3-4,7H,1-2H3/t3-,4+/m0/s1
