19
gdb 67687	2.2214	1.84877	1.43053	3.7338	79.28	-0.2288	0.0051	0.234	1012.8417	0.160625	-385.905518	-385.89784	-385.896896	-385.937466	30.414	
C	-0.1121534461	 1.5111148396	-0.0233559149	-0.513558
C	 0.0439536626	 0.0219869327	 0.0187417219	 0.33702
C	 0.7240097099	-0.877985269	-0.9456763161	-0.088198
C	 1.6899334677	-1.8447243861	-0.2592404169	-0.243689
C	 1.4229755508	-1.6276117927	 1.254949288	-0.220482
C	 0.0734277417	-0.8905224227	 1.2872221862	-0.219706
C	-1.0432729202	-1.7059931536	 0.5899424738	 0.438249
O	-1.9195721753	-2.4121330406	 1.0123252723	-0.346991
C	-0.7891997237	-1.0692214483	-0.7304328767	-0.245602
H	 0.7619803496	 2.0107989681	 0.4102754671	 0.127428
H	-0.2193495431	 1.8657389624	-1.05332588	 0.12589
H	-0.9941290693	 1.8379122544	 0.5378391531	 0.130777
H	 0.9626568267	-0.4972909934	-1.9341354011	 0.09268
H	 1.5032784955	-2.8791219635	-0.5644502157	 0.114022
H	 2.7256431537	-1.6114528937	-0.5241284064	 0.103707
H	 1.3913123899	-2.5642036025	 1.8182588871	 0.116043
H	 2.2020529255	-1.0002233108	 1.7016687694	 0.102883
H	-0.2102609986	-0.4607437617	 2.248439055	 0.087208
H	-1.4873281071	-0.9680497584	-1.5536109562	 0.102318
110.5452	193.8409	205.5967	214.9491	283.2303	403.2785	468.2984	531.9165	580.5622	653.1977	693.9918	728.6304	793.8418	830.1331	853.1149	869.6135	912.1645	940.0578	980.1434	1011.4397	1019.9429	1056.3663	1069.3516	1089.3643	1130.3591	1140.5433	1150.6898	1223.1982	1229.165	1240.2167	1264.2761	1305.3738	1322.8397	1336.6505	1416.2221	1455.0503	1485.73	1488.5026	1496.5621	1505.745	1864.4115	3026.6045	3041.6523	3051.3593	3083.7827	3087.0604	3101.9064	3101.9499	3117.647	3160.8922	3184.3548
CC12C3CCC1C(=O)C23	C[C@@]12[C@H]3CC[C@@H]1C(=O)[C@@H]23	
InChI=1S/C8H10O/c1-8-4-2-3-5(8)7(9)6(4)8/h4-6H,2-3H2,1H3	InChI=1S/C8H10O/c1-8-4-2-3-5(8)7(9)6(4)8/h4-6H,2-3H2,1H3/t4-,5+,6-,8+/m0/s1
