22
gdb 108933	3.89872	0.93664	0.85004	1.6992	91.7	-0.214	0.0204	0.2345	1466.6705	0.195145	-367.211335	-367.202211	-367.201266	-367.245737	34.665	
C	 0.1284774772	 1.4855569649	 0.4089208015	-0.372339
C	-0.0417504289	 0.0871338637	-0.2122270508	-0.285168
C	-1.4435193116	-0.4411734926	-0.1310787437	 0.326419
C	-2.2680424423	-0.6885180547	-1.1543033566	-0.26922
C	-3.569790615	-1.2460561155	-0.7111003399	 0.354395
C	-4.7937179078	-1.2017923039	-1.5495769544	-0.296293
N	-4.1084184381	-2.4866184568	-1.3220735967	-0.356881
C	-3.5673877713	-1.1280337637	 0.8170316864	-0.295757
C	-2.0968191898	-0.8070364003	 1.1909744649	-0.318049
H	 1.1652258113	 1.8245076341	 0.3208488346	 0.113754
H	-0.5124001478	 2.2160576668	-0.0946060892	 0.120141
H	-0.1327448077	 1.4879295597	 1.4715737595	 0.120259
H	 0.2756003355	 0.115233712	-1.2607386074	 0.100246
H	 0.6371811508	-0.6094562339	 0.3003783114	 0.102696
H	-2.0255073145	-0.542424228	-2.2030297492	 0.08223
H	-5.7686024617	-1.1169302229	-1.0746251987	 0.11305
H	-4.7312965282	-0.7361711445	-2.5308711176	 0.105162
H	-3.5563950526	-2.7338276484	-2.1412618604	 0.224021
H	-4.2228185754	-0.3082742275	 1.1285105827	 0.103743
H	-3.9405263259	-2.0442908355	 1.2790914209	 0.115228
H	-1.5819751193	-1.6691824415	 1.6375745065	 0.107698
H	-2.0283119967	-0.0003732514	 1.9294034262	 0.104664
52.5188	82.5432	121.3353	203.8322	236.6264	276.7417	332.2551	396.9311	465.3431	497.5694	542.1092	587.5405	749.0571	784.5611	831.1294	851.6521	874.4389	884.7498	914.6966	952.2204	958.0792	973.8783	993.7867	1037.9554	1064.4473	1076.3006	1096.3194	1132.332	1169.1725	1177.615	1226.6498	1254.8051	1269.4364	1290.0189	1296.0718	1339.4697	1344.054	1353.5378	1406.7169	1409.2303	1477.6391	1478.7065	1496.3848	1499.0195	1508.1651	1509.5969	1707.9983	3004.3773	3011.5274	3037.8945	3046.3276	3058.4654	3060.9081	3093.2584	3108.7884	3111.6302	3112.051	3170.5497	3176.4993	3481.1647
CCC1=CC2(CN2)CC1	CCC1=C[C@]2(CN2)CC1	
InChI=1S/C8H13N/c1-2-7-3-4-8(5-7)6-9-8/h5,9H,2-4,6H2,1H3	InChI=1S/C8H13N/c1-2-7-3-4-8(5-7)6-9-8/h5,9H,2-4,6H2,1H3/t8-/m0/s1
