19
gdb 90685	3.29848	1.19373	1.08614	1.9141	75.01	-0.2333	0.0147	0.248	1191.35	0.159287	-419.192672	-419.183703	-419.182758	-419.226849	33.545	
C	 0.3387454284	 1.5171260778	-0.4878600977	-0.420313
C	 0.1783819647	 0.0210686482	-0.2495882245	 0.014591
C	 1.4157538934	-0.8337131625	-0.6354145976	-0.184997
N	 1.7240769304	-1.1840013867	 0.8042850814	-0.167605
C	 0.4515064002	-0.4264791808	 1.1896779545	-0.038678
C	 0.5242563296	-1.8855098668	 1.3319665942	-0.120643
C	-0.2807599021	-2.8709006357	 0.5053554665	 0.359675
N	 0.403448382	-4.0222113979	 0.2414998101	-0.512192
O	-1.4262112992	-2.6821751791	 0.1461265102	-0.352057
H	 1.2839696858	 1.8868274871	-0.0742893073	 0.119673
H	 0.3277485595	 1.744474244	-1.5591084578	 0.117341
H	-0.4758766445	 2.0802593411	-0.0197930558	 0.119312
H	-0.7774401748	-0.3318763736	-0.6421969342	 0.108745
H	 1.2532638206	-1.7028927131	-1.2807895729	 0.104887
H	 2.240042569	-0.2426072008	-1.041146212	 0.10798
H	 0.42580857	 0.2272602886	 2.0574316226	 0.09303
H	 0.7179058333	-2.2515676122	 2.3393956399	 0.117188
H	 1.3866463962	-4.0992913276	 0.4396622065	 0.27141
H	-0.0325512526	-4.7179510603	-0.3418629863	 0.262654
35.594	113.0664	165.2212	221.6046	248.2911	269.5136	282.9456	403.2746	438.7611	499.4984	567.0499	640.9392	683.6865	730.2009	765.9366	803.0022	865.5076	897.142	924.4049	945.2031	994.3502	1053.1951	1063.0103	1094.3493	1100.2606	1130.5183	1154.6914	1201.7409	1221.5533	1271.7878	1289.6242	1297.486	1331.5794	1389.2533	1413.0478	1445.4458	1494.8543	1498.6903	1507.5441	1614.0751	1795.2629	3026.378	3048.7147	3081.7765	3096.8155	3100.3277	3109.7044	3118.3939	3148.4683	3594.109	3730.9388
CC1CN2C1C2C(N)=O	C[C@H]1CN2[C@@H]1[C@H]2C(=O)N	
InChI=1S/C6H10N2O/c1-3-2-8-4(3)5(8)6(7)9/h3-5H,2H2,1H3,(H2,7,9)	InChI=1S/C6H10N2O/c1-3-2-8-4(3)5(8)6(7)9/h3-5H,2H2,1H3,(H2,7,9)/t3-,4-,5-,8?/m0/s1
