19
gdb 64026	2.15657	1.88609	1.38604	3.0304	76.69	-0.2422	0.0064	0.2486	1018.304	0.157899	-423.013099	-423.00456	-423.003616	-423.045664	33.635	
C	 0.447330881	 1.4935041633	-0.2731548444	-0.435874
C	 0.0152382876	 0.0482956539	 0.0108399048	 0.284102
O	-1.3690665933	-0.0137867114	 0.2976392172	-0.463797
C	 0.4685419228	-0.8885793664	-1.1500689176	-0.328724
C	 1.7664989987	-1.4738587577	-0.6480450063	-0.073503
C	 1.9479592866	-1.2534241588	 0.6548037737	-0.142957
C	 0.7973265452	-0.5077998042	 1.225808856	 0.413822
C	 0.7314596435	 0.0794136024	 2.5684597078	-0.25481
O	 0.0716885438	-1.1529139626	 2.2825130617	-0.272045
H	 1.5267872762	 1.5566261924	-0.4403088364	 0.126867
H	-0.0510707338	 1.8695636615	-1.1752045145	 0.105128
H	 0.1850914118	 2.1467807212	 0.5631095275	 0.122444
H	-1.8312656965	 0.4886663818	-0.3812661626	 0.276983
H	-0.2828415995	-1.6725167526	-1.307080479	 0.123532
H	 0.5809542196	-0.351572738	-2.0993028861	 0.096124
H	 2.4455768379	-2.0252507832	-1.2889393858	 0.100256
H	 2.7739863218	-1.6051663881	 1.2607541766	 0.10231
H	 1.590952616	 0.0143091391	 3.2362138613	 0.10601
H	 0.0683825208	 0.9252411374	 2.747757846	 0.114132
85.8658	218.1215	251.0925	253.2682	270.3818	277.9178	331.1594	376.6252	426.4261	482.5482	538.6407	580.6473	639.2821	732.8542	776.2688	849.7084	881.1328	906.8164	945.0261	962.1584	973.1525	979.5715	996.7121	1081.5786	1110.8188	1124.6755	1138.0953	1169.3412	1180.8151	1232.4194	1240.3922	1289.7207	1342.5372	1384.7397	1400.4182	1434.7391	1477.5177	1491.3972	1497.7651	1524.6817	1675.2073	3023.9946	3027.6616	3062.2172	3071.4402	3095.1474	3122.0687	3156.6648	3188.0013	3216.1122	3814.0524
CC1(O)CC=CC11CO1	C[C@@]1(O)CC=C[C@]21CO2	
InChI=1S/C7H10O2/c1-6(8)3-2-4-7(6)5-9-7/h2,4,8H,3,5H2,1H3	InChI=1S/C7H10O2/c1-6(8)3-2-4-7(6)5-9-7/h2,4,8H,3,5H2,1H3/t6-,7-/m1/s1
