14
gdb 48427	2.24813	1.6783	1.24829	1.2686	63.53	-0.2605	-0.0664	0.1941	1001.7584	0.09891	-473.839945	-473.831755	-473.830811	-473.873754	28.219	
O	-0.1495737064	-0.1073158997	 0.0912520187	-0.229902
C	-0.0500999865	 1.0627781238	-0.143079961	 0.118089
C	 1.2688276027	 1.8385102244	-0.0472098234	 0.181075
C	 1.3133978036	 2.6359859035	 1.3177460438	-0.233782
N	 2.4140569074	 2.0131408289	 2.0498717433	-0.243228
C	 2.9024246777	 1.127311378	 1.2915207893	 0.121741
O	 2.3747782653	 0.9354689465	 0.0521834533	-0.237418
C	 1.4348424894	 2.7335341419	-1.2600654235	 0.08994
O	 0.6270464743	 3.5771794035	-1.5512562899	-0.249291
H	-0.9091540583	 1.7089565407	-0.4186770867	 0.120372
H	 1.4957836168	 3.7031668154	 1.1607255364	 0.146055
H	 0.3772632807	 2.5415845543	 1.8776812237	 0.142399
H	 3.7381955904	 0.4793056527	 1.5259737192	 0.157612
H	 2.3533811431	 2.537375026	-1.8516664632	 0.116338
53.7297	101.0592	107.4718	204.675	238.5327	300.885	343.0514	445.4542	508.3731	660.9275	693.9926	805.3988	840.9363	925.2551	947.6229	969.3134	986.3562	1004.1208	1094.4235	1128.814	1142.9084	1166.6326	1226.1032	1306.3255	1333.3286	1387.2851	1391.8696	1500.8578	1714.6462	1811.0923	1850.8549	2922.6187	2928.6462	3049.7312	3089.3751	3233.881
O=CC1(CN=CO1)C=O	O=CC1(CN=CO1)C=O	
InChI=1S/C5H5NO3/c7-2-5(3-8)1-6-4-9-5/h2-4H,1H2	InChI=1S/C5H5NO3/c7-2-5(3-8)1-6-4-9-5/h2-4H,1H2
