20
gdb 115751	3.70717	0.85677	0.74307	3.4355	79.86	-0.258	0.029	0.287	1538.2382	0.170454	-403.150503	-403.140898	-403.139953	-403.186003	34.015	
C	-0.0639844415	 1.6309568002	-0.1752025988	-0.391163
C	-0.0559070675	 0.2027777157	 0.3816982759	-0.192374
C	-1.3190455775	-0.5509945671	 0.0058406318	 0.138775
O	-1.4583968651	-0.7381509961	-1.4236295698	-0.289688
C	-1.846358042	-2.1156838656	-1.2487962664	-0.078652
C	-1.4677869505	-2.0801703208	 0.2467619732	-0.068259
C	-0.1895913292	-2.8485941208	 0.6141542924	-0.366778
C	-0.4081187249	-4.2943605023	 0.5990041196	 0.260823
N	-0.6039325778	-5.4330726976	 0.5788689363	-0.301006
H	 0.8626506715	 2.1556373548	 0.0737222906	 0.115591
H	-0.1676631942	 1.6144737045	-1.2635106998	 0.143176
H	-0.8991108948	 2.2096322973	 0.2340032482	 0.117418
H	 0.8213639317	-0.3320546204	 0.0009317618	 0.099586
H	 0.0266043996	 0.2236417156	 1.4766192598	 0.098828
H	-2.192677128	-0.0084452117	 0.4006852304	 0.075285
H	-2.9149747263	-2.2705845359	-1.4431371572	 0.109386
H	-1.2669836317	-2.793485652	-1.8863559331	 0.115063
H	-2.2678425393	-2.3554048658	 0.9362111434	 0.098786
H	 0.6166436267	-2.6152972436	-0.0897207837	 0.160457
H	 0.1635151508	-2.5603898185	 1.6107491653	 0.154747
63.1638	69.9621	98.3796	114.1296	178.6278	224.6255	273.6735	355.9867	399.2949	434.1825	483.6512	544.7474	745.4628	819.3067	835.7746	869.8125	908.3902	943.7152	956.4516	977.3634	1022.0856	1042.8257	1084.7194	1115.0565	1139.8747	1166.4225	1173.6415	1229.9613	1246.4311	1283.3984	1301.2411	1317.2728	1336.1029	1368.795	1387.7324	1407.2706	1415.9095	1463.7697	1476.9034	1498.9028	1508.7217	1528.2427	2361.7269	2972.9537	3018.9665	3022.1137	3040.0823	3045.5779	3064.7934	3067.3571	3082.1857	3100.4012	3108.7659	3123.8495
CCC1OCC1CC#N	CC[C@H]1OC[C@H]1CC#N	
InChI=1S/C7H11NO/c1-2-7-6(3-4-8)5-9-7/h6-7H,2-3,5H2,1H3	InChI=1S/C7H11NO/c1-2-7-6(3-4-8)5-9-7/h6-7H,2-3,5H2,1H3/t6-,7-/m1/s1
