19
gdb 103980	2.60394	1.371	1.26815	2.8974	70.85	-0.2351	0.064	0.299	1096.7183	0.156988	-460.112664	-460.103569	-460.102625	-460.145838	35.121	
C	-0.1284856148	 1.6004294812	 0.1777083274	-0.45363
C	-0.0434111889	 0.0871361701	 0.156207009	 0.31009
C	-1.389751972	-0.5748398098	-0.154636375	-0.082114
O	-1.7969428113	-0.263723556	-1.4729930454	-0.426005
O	 0.9101947204	-0.4101997933	-0.8620785195	-0.346688
C	 1.5637835115	-1.2226457389	 0.1165569637	 0.045485
C	 2.2189258151	-0.3599337873	 1.1638179597	-0.37393
C	 0.7394518689	-0.668806529	 1.2432785172	 0.266134
O	 0.143319262	-1.3215756902	 2.3045872626	-0.45347
H	 0.8587162262	 2.0591664484	 0.2662896655	 0.11804
H	-0.6023698844	 1.9569279268	-0.740689099	 0.142353
H	-0.7434037098	 1.9265463288	 1.0240185911	 0.11593
H	-1.3033459303	-1.6598591021	-0.0008317011	 0.096547
H	-2.1668808249	-0.2019546387	 0.5199133098	 0.106794
H	-1.0533963718	-0.5157204252	-2.0357555849	 0.29061
H	 1.8737263604	-2.222499699	-0.1608185172	 0.114366
H	 2.8076556281	-0.9139583656	 1.8897012306	 0.119736
H	 2.5972545994	 0.6245238821	 0.9055106313	 0.11743
H	 0.2367859664	-0.7731597923	 3.0913273145	 0.292321
114.8554	159.527	178.9114	207.0029	252.7337	289.9375	308.6647	343.9757	402.0342	472.861	488.82	497.197	540.8019	647.861	721.5736	810.3254	860.3577	896.5137	916.6402	930.7827	979.5617	989.8893	1015.988	1053.9749	1076.9157	1083.1199	1114.3859	1171.7288	1215.4817	1243.9534	1250.8372	1290.9276	1324.0685	1380.7529	1400.8383	1416.2104	1431.2433	1479.0972	1488.939	1498.7729	1499.8601	3005.1168	3040.8545	3083.2977	3111.5613	3117.3749	3131.3241	3193.4096	3210.5481	3774.1856	3794.3794
CC1(CO)OC2CC12O	C[C@@]1(CO)O[C@H]2C[C@@]12O	
InChI=1S/C6H10O3/c1-5(3-7)6(8)2-4(6)9-5/h4,7-8H,2-3H2,1H3	InChI=1S/C6H10O3/c1-5(3-7)6(8)2-4(6)9-5/h4,7-8H,2-3H2,1H3/t4-,5-,6-/m0/s1
