20
gdb 120002	2.46231	1.03907	0.79537	2.5019	76.51	-0.2611	0.026	0.2871	1456.5581	0.170106	-440.285911	-440.276162	-440.275218	-440.32111	35.205	
C	-0.2856285654	 1.5315108401	-0.0815264751	-0.402149
C	 0.1029576056	 0.0706115387	-0.0407006123	 0.116095
O	 1.3576393576	-0.1813812573	-0.769971467	-0.26864
C	 1.9640948411	-0.6868789777	 0.3570510927	 0.438727
N	 3.1363572501	-1.0976140669	 0.5401331458	-0.548755
C	 0.7434993	-0.5330152108	 1.2434798302	-0.160286
C	 0.8980715777	 0.3050102419	 2.511224456	-0.223061
C	 1.6306261646	-0.4650852986	 3.6172636538	-0.075841
O	 1.7550099331	 0.2960377063	 4.8085824778	-0.42021
H	 0.511170909	 2.1700552082	 0.3080476061	 0.130017
H	-0.4947093166	 1.8348263127	-1.1115948284	 0.133567
H	-1.189921927	 1.7000353278	 0.5123562921	 0.127931
H	-0.6869640123	-0.5548698165	-0.4679502364	 0.094732
H	 3.6924094244	-1.0322388528	-0.3144478761	 0.226615
H	 0.3061720922	-1.5055468294	 1.4931326391	 0.105944
H	 1.4541785297	 1.2245710942	 2.291121254	 0.094918
H	-0.0871721786	 0.6077398081	 2.884910914	 0.108737
H	 1.0516362205	-1.3547973822	 3.8910160643	 0.108069
H	 2.6048540485	-0.8104594143	 3.2462609403	 0.130863
H	 2.416464316	 0.9773093286	 4.6534551592	 0.282727
78.0895	90.4867	102.008	131.6035	216.5441	230.738	276.969	291.5671	363.7387	396.6142	455.7807	517.6581	665.4483	732.9485	778.5887	842.4127	865.8096	878.5635	883.1337	1004.1174	1023.4842	1046.4344	1068.5947	1070.7742	1080.4237	1127.0252	1158.0859	1176.7076	1231.9298	1241.2225	1294.5951	1316.4343	1343.9519	1372.3757	1386.9552	1407.1881	1413.3841	1421.5272	1480.7083	1489.8821	1496.8412	1515.8499	1815.7172	3018.22	3028.5545	3044.1397	3050.7883	3058.2876	3065.6906	3084.0805	3113.6069	3127.8515	3471.958	3821.6252
CC1OC(=N)C1CCO	C[C@H]1O[C]([NH])[C@H]1CCO	
InChI=1S/C6H11NO2/c1-4-5(2-3-8)6(7)9-4/h4-5,7-8H,2-3H2,1H3	InChI=1S/C6H11NO2/c1-4-5(2-3-8)6(7)9-4/h4-5,7-8H,2-3H2,1H3/t4-,5+/m1/s1
