17
gdb 7309	3.67955	1.26642	0.99569	2.3217	67.65	-0.2524	-0.0246	0.2278	1158.3981	0.138652	-401.018552	-401.009088	-401.008144	-401.054134	32.234	
C	-0.1473048129	 1.6151066162	 1.1848905494	-0.389872
C	-0.082930844	 0.3993777072	 0.26620709	 0.008372
O	 0.6255967201	-0.6796585667	 0.8799668875	-0.189254
C	 1.9545343403	-0.7594240967	 0.6644821696	 0.130186
N	 2.6383249009	-1.6362107832	 1.2585850885	-0.441112
C	-1.486139114	-0.0924441749	-0.1388704972	 0.367493
C	-1.7165622561	-1.5839547136	-0.2041552216	-0.473724
O	-2.3365830984	 0.7209632687	-0.4131197566	-0.299949
H	 0.8511911308	 2.0303192753	 1.3466225188	 0.119261
H	-0.7874817484	 2.3752238188	 0.7339557033	 0.151263
H	-0.5661490494	 1.3314620309	 2.1543267357	 0.13848
H	 0.4193351152	 0.6707124782	-0.6763941828	 0.109766
H	 2.3238313954	-0.0168058462	-0.057622596	 0.088432
H	 3.6123408467	-1.5739689448	 0.9701649365	 0.232403
H	-0.9781900395	-2.0591466819	-0.8586879938	 0.144805
H	-1.5734428968	-2.0294138184	 0.7850276827	 0.163905
H	-2.7259862699	-1.7770075289	-0.5679424239	 0.139546
33.078	47.7456	110.2211	165.2637	187.0742	220.6985	251.4609	351.6053	408.6127	423.8105	489.4085	605.5523	641.0698	773.8964	819.2219	901.1003	962.8388	969.157	1042.0186	1064.4881	1095.1351	1129.0304	1146.4349	1223.3035	1287.3429	1322.6132	1355.1097	1384.5619	1398.8863	1422.3679	1454.4689	1467.8769	1487.0229	1495.4635	1746.6135	1816.3137	2981.2195	3012.7725	3047.8295	3052.0844	3110.0838	3124.5761	3149.9653	3160.3572	3521.4349
CC(OC=N)C(C)=O	C[C@@H](O[CH][NH])C(=O)C	
InChI=1S/C5H9NO2/c1-4(7)5(2)8-3-6/h3,5-6H,1-2H3	InChI=1S/C5H9NO2/c1-4(7)5(2)8-3-6/h3,5-6H,1-2H3/t5-/m1/s1
