25
gdb 101437	2.74398	0.9909	0.83311	1.3997	89.29	-0.2541	0.0718	0.3259	1528.6666	0.227814	-389.487268	-389.476619	-389.475675	-389.522943	39.888	
C	-0.1332473459	 1.558439817	 0.0518035983	-0.390148
C	-0.0308438222	 0.0352687055	-0.0798434484	-0.172896
C	 0.8170364115	-0.4518400891	-1.2705786017	 0.032702
C	 2.2955961948	-0.0554219071	-1.144109756	-0.404955
C	 0.6781066787	-1.9656666724	-1.4309043196	 0.045357
C	-0.7030851353	-2.5868952669	-1.794146527	-0.238971
C	 0.03621045	-3.5974513096	-2.7115677059	-0.25318
C	 1.2769920363	-2.6632172361	-2.6878733091	 0.093597
O	 1.3061761439	-1.7450020571	-3.7698044505	-0.435092
H	 0.8401185884	 2.0199825498	 0.2438390783	 0.116708
H	-0.5375479739	 2.0064990398	-0.8630376041	 0.112505
H	-0.7957020969	 1.8366992043	 0.8778320563	 0.107707
H	 0.3802429442	-0.3862740125	 0.848675745	 0.085769
H	-1.0429468439	-0.3777092371	-0.1761315426	 0.094117
H	 0.4212457216	 0.0117576926	-2.1835081338	 0.080756
H	 2.419829382	 1.0287800847	-1.0686501188	 0.109058
H	 2.7488552544	-0.5040560763	-0.2509262626	 0.10104
H	 2.858409306	-0.3910752723	-2.0191222412	 0.126265
H	 1.0798664226	-2.4644419058	-0.5392160772	 0.063281
H	-1.3076926473	-2.9945211852	-0.980980801	 0.093716
H	-1.315314761	-1.8885052861	-2.3715158769	 0.106161
H	 0.2332366085	-4.5493868762	-2.2098064364	 0.09803
H	-0.3937055514	-3.7996652797	-3.6967831716	 0.089303
H	 2.25598363	-3.1461074304	-2.5651468703	 0.056621
H	 1.4712293948	-2.2440553635	-4.575932043	 0.282549
69.6794	84.0301	115.2503	137.6228	215.6342	222.1069	251.3901	284.8776	295.6098	346.6896	375.8743	418.6586	457.9658	550.1739	695.2305	754.317	784.6367	843.2522	860.564	895.5053	942.8687	947.1242	969.4774	980.3923	1005.637	1029.808	1050.6384	1083.7047	1115.5984	1152.7296	1180.4209	1184.9793	1207.3585	1226.0427	1256.4046	1262.0189	1274.8245	1295.5823	1308.8861	1327.6809	1352.5184	1375.8599	1396.1201	1408.0496	1411.721	1415.2815	1469.2295	1484.676	1490.381	1497.2861	1498.3599	1508.112	1516.7607	2996.1984	3005.4376	3017.991	3023.3383	3031.8348	3033.7789	3046.9264	3050.7358	3060.6123	3094.1347	3095.7677	3098.5996	3106.1342	3117.5122	3117.7165	3816.3741
CCC(C)C1CCC1O	CC[C@@H](C)[C@H]1CC[C@H]1O	
InChI=1S/C8H16O/c1-3-6(2)7-4-5-8(7)9/h6-9H,3-5H2,1-2H3	InChI=1S/C8H16O/c1-3-6(2)7-4-5-8(7)9/h6-9H,3-5H2,1-2H3/t6-,7-,8-/m1/s1
