23
gdb 116929	6.98291	0.48595	0.47814	0.0547	98.09	-0.2356	0.0581	0.2937	2424.1742	0.205234	-351.130057	-351.119637	-351.118693	-351.168224	37.172	
C	-0.4662908598	 1.6460220911	 0.086405773	-0.381116
C	-0.3416601561	 0.1216877284	 0.1218451598	-0.151326
C	 0.8997292438	-0.3489182645	 0.9071275183	-0.337212
C	 1.0392388556	-1.8002853693	 0.9543639579	 0.055089
C	 1.1256970645	-3.0031173601	 0.974637862	 0.084065
C	 1.2654180072	-4.444234386	 1.0228324149	-0.140858
C	 2.6234279574	-5.0996070986	 0.6043256287	-0.212781
C	 2.437478759	-6.1261269604	 1.7521795576	-0.2167
C	 1.4202381449	-5.1559749553	 2.4078542674	-0.212791
H	 0.4075811981	 2.1055613262	-0.3890970311	 0.114696
H	-1.3522973379	 1.9579491202	-0.474775033	 0.113329
H	-0.5490059672	 2.0618962975	 1.096920765	 0.114694
H	-1.2354776724	-0.3198564134	 0.5766402975	 0.10726
H	-0.2865394436	-0.2765473732	-0.8975080043	 0.107258
H	 1.7993809717	 0.0937167029	 0.4572876794	 0.121626
H	 0.8516003491	 0.0505827328	 1.9297395002	 0.121593
H	 0.4502044789	-4.9188520796	 0.46414636	 0.094328
H	 2.7026408518	-5.4722341414	-0.4193175006	 0.09935
H	 3.4550278798	-4.4177496421	 0.7988940627	 0.109889
H	 1.9551792086	-7.043424278	 1.4017459549	 0.101954
H	 3.3206944701	-6.3999977208	 2.3328408253	 0.098432
H	 1.8998050237	-4.4906158699	 3.1301139142	 0.109878
H	 0.5169220527	-5.5746343766	 2.8569833602	 0.099344
9.1864	63.9176	67.9241	127.4804	128.4771	217.7046	240.2912	300.0789	307.8275	465.9046	497.8632	506.9164	587.0965	729.6291	742.6854	787.2124	863.4175	871.8767	895.1221	918.2258	934.4561	939.354	999.9273	1020.9652	1043.8858	1107.7922	1120.7816	1121.417	1189.8113	1201.77	1235.2272	1246.3203	1253.9484	1258.9486	1274.5496	1278.7354	1305.7291	1321.0848	1360.5186	1382.3041	1412.2619	1473.3304	1478.5196	1487.1633	1491.7791	1498.935	1508.8979	1509.213	2357.5245	3003.508	3028.4033	3029.0543	3031.3816	3039.9636	3057.3417	3062.2813	3066.9164	3071.3678	3098.6016	3103.8857	3104.3084	3118.1676	3128.1661
CCCC#CC1CCC1	CCCC#CC1CCC1	
InChI=1S/C9H14/c1-2-3-4-6-9-7-5-8-9/h9H,2-3,5,7-8H2,1H3	InChI=1S/C9H14/c1-2-3-4-6-9-7-5-8-9/h9H,2-3,5,7-8H2,1H3
