16
gdb 49292	3.41228	1.19278	0.90546	3.6718	75.03	-0.2461	-0.0631	0.1829	1216.8649	0.124394	-437.894199	-437.886019	-437.885075	-437.927991	29.108	
O	-0.0949751947	-0.0416544147	-0.201521331	-0.268609
C	-0.0066298757	 1.1633156702	-0.244201579	 0.113484
C	 1.2203460347	 1.9237751366	 0.0923297633	 0.163365
C	 1.1460364495	 3.2551546429	-0.0023389285	-0.153595
C	 2.1984453432	 4.2670996987	 0.3159822369	-0.139763
O	 3.5577419218	 3.9295265035	 0.0676033704	-0.223824
C	 4.1314721981	 2.7924139163	 0.5549345141	 0.125227
N	 3.6991771075	 1.6360893468	 0.7846309511	-0.258872
C	 2.3913371608	 1.0864239568	 0.5400276997	-0.234361
H	-0.8714155933	 1.7963192138	-0.5472642772	 0.073615
H	 0.1909472402	 3.6880259219	-0.3005338464	 0.108512
H	 2.0303311209	 5.1699852232	-0.2783560478	 0.136571
H	 2.0944491996	 4.5620785434	 1.3727288129	 0.136603
H	 5.1910036023	 2.996048983	 0.7146210641	 0.123579
H	 2.0792595973	 0.549763109	 1.4472456312	 0.145508
H	 2.5195656978	 0.2763078484	-0.1908032539	 0.152561
47.802	94.2457	130.4325	212.5882	278.9656	336.9063	407.3658	425.1172	473.8382	571.7354	704.2039	747.4045	819.9456	868.0872	929.799	946.7906	995.244	1000.0824	1029.4005	1042.4557	1072.4866	1158.9125	1213.8506	1282.8288	1286.1264	1347.5892	1402.7735	1416.2835	1432.1556	1438.3807	1445.5002	1479.1925	1734.8867	1787.1702	1795.7291	2872.3128	2982.1422	3017.1169	3032.9619	3082.6533	3127.262	3131.7421
O=CC1=CCOC=NC1	O=CC1=CCOC=NC1	
InChI=1S/C6H7NO2/c8-4-6-1-2-9-5-7-3-6/h1,4-5H,2-3H2	InChI=1S/C6H7NO2/c8-4-6-1-2-9-5-7-3-6/h1,4-5H,2-3H2
