20
gdb 11790	3.99291	1.61933	1.50283	1.8083	73.93	-0.2343	0.0783	0.3125	946.0883	0.178518	-348.98922	-348.981833	-348.980889	-349.020724	29.361	
C	-0.149949406	 1.5347989955	-0.0008067437	-0.385056
C	 0.0887389021	 0.0190418775	-0.022082546	-0.296164
C	 0.7592088529	-0.5215493873	 1.2233648352	 0.307847
C	 0.1172081809	-0.4666639848	 2.6555741276	-0.26814
C	 1.2029134883	-1.535815132	 2.9187224957	 0.105721
C	 0.9366325616	-2.0568877451	 1.4887247233	-0.279851
O	 2.4320101654	-0.8036959582	 2.781309164	-0.280786
C	 2.1831691709	-0.0495492556	 1.5747621261	-0.106982
H	 0.7901683201	 2.0925867763	 0.0563816236	 0.120061
H	-0.6714858825	 1.8595490765	-0.9061219442	 0.114526
H	-0.7622860572	 1.826678299	 0.8589159673	 0.120997
H	-0.8707591315	-0.4961289278	-0.1564832028	 0.096761
H	 0.6983109155	-0.2442848278	-0.897451468	 0.097521
H	 0.1858798286	 0.4633068892	 3.2256342605	 0.096873
H	-0.9003532144	-0.8627123965	 2.6725349925	 0.09616
H	 1.2470815325	-2.1640429802	 3.8067276276	 0.076655
H	-0.0011544831	-2.6073607557	 1.3888298719	 0.096009
H	 1.7546048151	-2.5810134741	 0.9871450505	 0.095906
H	 2.9220895355	-0.3081755343	 0.8055474199	 0.094578
H	 2.2516271451	 1.0239856456	 1.785519379	 0.097363
84.6714	177.5367	219.3192	305.978	341.2803	408.9616	479.2332	517.9504	588.6817	671.6649	777.4411	825.5001	855.1593	887.1544	910.5124	939.2281	951.2829	974.1276	994.4466	1001.6422	1022.4153	1066.8389	1074.086	1124.7313	1131.4594	1173.6365	1201.1176	1215.8361	1236.3174	1241.4065	1266.797	1305.6902	1326.354	1365.9086	1385.605	1412.5154	1473.418	1482.5075	1502.1974	1505.9245	1506.9668	1532.9025	3011.7329	3015.7188	3036.3774	3044.8376	3055.6789	3059.099	3065.3446	3104.7523	3107.1313	3124.149	3130.3411	3138.7864
CCC12CC(C1)OC2	CC[C@@]12C[C@@H](C1)OC2	
InChI=1S/C7H12O/c1-2-7-3-6(4-7)8-5-7/h6H,2-5H2,1H3	InChI=1S/C7H12O/c1-2-7-3-6(4-7)8-5-7/h6H,2-5H2,1H3/t6-,7+
