16
gdb 100178	2.38247	1.34635	1.14687	3.0794	61.64	-0.2562	-0.0432	0.213	1109.4167	0.122181	-512.1943	-512.184759	-512.183815	-512.228808	34.412	
N	 0.0585696599	 1.1821179492	-0.8969883368	-0.532345
C	 0.1097171543	 0.183326065	 0.0126916428	 0.359031
O	 1.0707506928	-0.0947420438	 0.7091633749	-0.372982
C	-1.1525676758	-0.6671075141	 0.1085260074	 0.170443
O	-2.2825510996	 0.0337704017	-0.3988114034	-0.478873
C	-0.9753669518	-1.9873743205	-0.6693049662	-0.116458
O	-2.222973278	-2.6580035863	-0.7370466241	-0.434797
C	-1.4372630752	-0.9514907372	 1.5947162061	 0.15824
O	-1.830328409	-2.0189697773	 1.9988540925	-0.273947
H	 0.8395783814	 1.8125157643	-0.9754943282	 0.268422
H	-0.8238662524	 1.4065551619	-1.3271428292	 0.278731
H	-2.8871801831	-0.6650253768	-0.6995872442	 0.298778
H	-0.6786059151	-1.7634364225	-1.6981085058	 0.123662
H	-0.1942724103	-2.5941520155	-0.1994342713	 0.134429
H	-2.4008497304	-2.9606962253	 0.1654045913	 0.304134
H	-1.3299665476	-0.0811493727	 2.2708997443	 0.11353
64.8146	91.051	157.2574	178.331	212.4174	262.0877	324.7115	332.4597	369.7041	390.4	457.8099	535.6232	578.9586	615.8016	637.4528	688.8738	758.2187	809.8992	921.996	975.8362	1039.6808	1077.7388	1089.9132	1128.657	1158.3179	1249.9633	1336.4885	1364.4926	1410.3097	1435.819	1437.313	1494.993	1597.9499	1789.1869	1811.5312	2950.4866	3049.3751	3105.0628	3592.0249	3676.7817	3730.4661	3740.9745
NC(=O)C(O)(CO)C=O	NC(=O)[C@@](O)(CO)C=O	
InChI=1S/C4H7NO4/c5-3(8)4(9,1-6)2-7/h1,7,9H,2H2,(H2,5,8)	InChI=1S/C4H7NO4/c5-3(8)4(9,1-6)2-7/h1,7,9H,2H2,(H2,5,8)/t4-/m0/s1
