18
gdb 105706	2.46265	1.22508	1.02918	4.372	70.1	-0.2598	0.014	0.2738	1224.0313	0.145962	-476.183117	-476.173705	-476.172761	-476.218262	33.513	
O	 0.3065370658	 1.3610583581	 0.0049468084	-0.415796
C	 0.0806501686	-0.0227813978	-0.1450960696	-0.120381
C	-1.3900466752	-0.3996186182	-0.2279977739	 0.366603
C	-2.1525204911	 0.0695408573	-1.4497771881	-0.172086
O	-2.0339489325	 1.4808645402	-1.6542121053	-0.207892
C	-2.8165450218	 2.2728822785	-0.8744163074	 0.136565
N	-2.6466469184	 3.5197204968	-0.9089805399	-0.441598
C	-1.8887376618	-1.5904562194	 0.4759254085	-0.22745
O	-2.126649431	-0.2848608733	 1.0003910437	-0.262768
H	-0.104573905	 1.8176231598	-0.7387517326	 0.305441
H	 0.5957956493	-0.4328534557	-1.0311790239	 0.08758
H	 0.5145364263	-0.5008395314	 0.738171367	 0.113486
H	-1.7408762376	-0.3844034263	-2.3558538416	 0.12994
H	-3.2075702939	-0.2165659013	-1.3630871551	 0.117458
H	-3.5442176511	 1.7128718733	-0.2764485556	 0.116024
H	-3.311941686	 3.9817851891	-0.2928129498	 0.235906
H	-2.7665552234	-2.1166760588	 0.1016292681	 0.115162
H	-1.1915619013	-2.2045991108	 1.0436985071	 0.123803
52.8948	72.6289	105.7541	132.2096	226.7664	282.2734	304.8731	337.7859	376.6794	462.2536	491.0812	528.0929	654.552	763.9873	825.3979	875.2142	889.6076	942.2559	969.784	987.1257	1040.303	1055.8841	1087.6896	1121.7351	1131.4959	1171.4029	1203.753	1242.8518	1303.2204	1324.5651	1373.5432	1375.2376	1410.4663	1427.6052	1457.3236	1481.0594	1491.833	1530.2435	1749.5215	2956.8417	3034.5357	3066.5024	3081.4998	3084.5969	3099.9275	3167.9506	3523.4969	3793.7845
OCC1(COC=N)CO1	OC[C@@]1(CO[CH][NH])CO1	
InChI=1S/C5H9NO3/c6-4-8-2-5(1-7)3-9-5/h4,6-7H,1-3H2	InChI=1S/C5H9NO3/c6-4-8-2-5(1-7)3-9-5/h4,6-7H,1-3H2/t5-/m1/s1
