16
gdb 29961	3.63214	1.28363	0.95415	3.0303	76.	-0.1968	-0.027	0.1697	1174.9723	0.12469	-434.113745	-434.105116	-434.104171	-434.148214	30.605	
C	 0.0856279256	 1.4325941031	 0.0390495988	-0.327327
N	 0.0248775859	-0.0114017092	-0.0072119284	-0.093989
C	-0.0147184513	-0.8186115224	-1.1406982698	-0.098975
C	-0.0174710678	-2.106201941	-0.7669865351	-0.117719
N	 0.029582404	-2.1248876742	 0.643341798	-0.151253
C	 0.0388150021	-3.2754429565	 1.4025526249	 0.166173
O	 0.0077204337	-4.3879112058	 0.9338649458	-0.310323
C	 0.0690411715	-0.7893837401	 1.1370705607	 0.468665
N	 0.1336274351	-0.3023530493	 2.315276001	-0.604939
H	 1.1041174813	 1.7870010676	 0.2348516936	 0.141867
H	-0.2579326695	 1.8349243669	-0.9160097886	 0.130973
H	-0.5588163673	 1.7946619475	 0.8430236573	 0.164253
H	-0.0449458944	-0.3867966329	-2.1270913741	 0.149371
H	-0.0526702348	-3.0259389123	-1.3205945096	 0.168389
H	 0.0771505238	-3.0668235358	 2.484801128	 0.093613
H	 0.1459222223	-1.0103382955	 3.0416587574	 0.221222
29.0667	84.2222	154.3228	198.9464	211.1215	298.3339	310.7166	418.0581	536.3256	586.0158	671.1804	693.1245	714.9185	743.2958	756.8497	808.0481	860.7097	966.8348	1019.8128	1051.1909	1096.6585	1156.693	1188.0391	1217.237	1268.3786	1333.7488	1383.0314	1434.3576	1441.4315	1468.3536	1483.6406	1519.4744	1655.8287	1734.3203	1802.8131	2994.4717	3035.3375	3105.1974	3143.5471	3277.9597	3322.671	3556.2454
CN1C=CN(C=O)C1=N	CN1C=CN(C=O)[C@H]1[NH]	
InChI=1S/C5H7N3O/c1-7-2-3-8(4-9)5(7)6/h2-4,6H,1H3	InChI=1S/C5H8N3O/c1-7-2-3-8(4-9)5(7)6/h2-6H,1H3/t5-/m0/s1
