17
gdb 42527	3.35207	1.27546	1.07593	3.4681	75.7	-0.24	-0.0379	0.2021	1142.2607	0.134705	-421.794405	-421.786307	-421.785362	-421.827356	30.429	
O	-0.018041859	 0.1865283173	-0.7293126274	-0.320203
C	-0.0065956921	 1.3296394043	-0.368347432	 0.286353
C	-1.0627341421	 2.3634601092	-0.0787124427	 0.226208
C	-2.3925014649	 2.4632500716	-0.7902103794	-0.306019
C	-2.3557555497	 2.0860870478	 0.6566648022	-0.306379
C	 0.0087167984	 3.4421870784	 0.1793704101	-0.447753
C	 1.079961528	 2.3460141999	-0.0098958842	 0.3395
C	 2.343120151	 2.1034474222	 0.7024218991	-0.247994
O	 2.3198239426	 2.497178756	-0.6689241945	-0.255465
H	-2.7333387625	 3.4577612396	-1.0575190226	 0.126675
H	-2.6075924009	 1.6894673705	-1.519677449	 0.139793
H	-2.5510161934	 1.053457287	 0.9263197379	 0.136999
H	-2.6693098687	 2.8214486647	 1.3901848178	 0.12529
H	 0.0595610305	 4.216429857	-0.5904781317	 0.126783
H	-0.0104531046	 3.9106138207	 1.1661109859	 0.115899
H	 2.7046508006	 2.8556156356	 1.4022591354	 0.124251
H	 2.6609640668	 1.0791682883	 0.8893652349	 0.136062
57.8292	180.3739	202.9915	223.274	235.5792	274.1473	365.1156	446.7862	527.2451	718.5156	730.1709	752.9319	794.149	829.5966	845.5465	886.9463	914.1015	951.9696	971.7719	1017.3982	1057.6877	1063.0725	1090.2393	1126.4223	1139.7099	1148.9658	1159.5625	1197.8829	1207.4361	1242.2199	1364.9034	1418.5379	1458.147	1482.3316	1490.2793	1520.8064	1880.7742	3064.3672	3084.94	3117.062	3130.2416	3132.9124	3180.1839	3214.2874	3229.159
O=C1C2(CC2)CC11CO1	O=C1C2(CC2)C[C@]21CO2	
InChI=1S/C7H8O2/c8-5-6(1-2-6)3-7(5)4-9-7/h1-4H2	InChI=1S/C7H8O2/c8-5-6(1-2-6)3-7(5)4-9-7/h1-4H2/t7-/m1/s1
