20
gdb 88875	3.62176	1.09815	1.0136	0.7217	74.91	-0.2234	0.0837	0.3071	1244.0736	0.171624	-440.241934	-440.233264	-440.232319	-440.276008	31.819	
C	 0.5868700402	 1.4448841806	-0.4218584678	-0.328499
N	 0.1585845551	 0.1083782702	-0.018285556	-0.096595
C	 1.1850662324	-0.8446035323	 0.3937286576	-0.24944
C	 0.2290104361	-0.2779449682	 1.3864997907	-0.014715
C	 0.6887209451	 0.6443798696	 2.5033051555	 0.06788
C	 0.7638393409	-0.0909221893	 3.8669964558	-0.126833
O	 1.9391610979	 0.4261658078	 4.4684684916	-0.230033
C	 2.8059908089	 0.6563533778	 3.3918056872	 0.01877
O	 2.0144087285	 1.1608980752	 2.3324581071	-0.256587
H	 1.4571459979	 1.8277514668	 0.1261918175	 0.13346
H	 0.8272049136	 1.4203088569	-1.4894297398	 0.119635
H	-0.2468110291	 2.141949399	-0.2850038065	 0.117364
H	 1.069515699	-1.8615353728	 0.0270813306	 0.110268
H	 2.2101386053	-0.4857576962	 0.4575341012	 0.119011
H	-0.6186061026	-0.8909949493	 1.6989028127	 0.09012
H	 0.014161394	 1.5077820837	 2.568875656	 0.094874
H	-0.0824808399	 0.1174505875	 4.5240239388	 0.123194
H	 0.8444658945	-1.1784687405	 3.715359691	 0.101426
H	 3.5485621669	 1.4056490589	 3.6796474008	 0.122603
H	 3.3050803052	-0.2799256054	 3.0819033161	 0.084097
60.8263	69.6052	161.7429	198.524	249.6255	262.2806	296.7683	384.2207	468.0679	599.8388	674.2838	741.6856	750.5038	831.597	900.0922	945.2273	970.845	977.8868	1024.5238	1050.4308	1057.1898	1108.9418	1118.1935	1121.3592	1132.7654	1161.6165	1182.1144	1187.2983	1210.1759	1215.0219	1268.0703	1311.4177	1338.2756	1357.9329	1376.051	1408.1486	1435.6733	1449.9487	1492.7626	1508.5023	1509.4249	1512.6208	1542.1142	2935.6704	2986.9798	3014.5487	3021.5294	3083.2056	3083.6012	3091.6562	3097.2019	3098.3091	3113.0907	3184.2091
CN1CC1C1COCO1	CN1C[C@H]1[C@H]1COCO1	
InChI=1S/C6H11NO2/c1-7-2-5(7)6-3-8-4-9-6/h5-6H,2-4H2,1H3	InChI=1S/C6H11NO2/c1-7-2-5(7)6-3-8-4-9-6/h5-6H,2-4H2,1H3/t5-,6+,7?/m0/s1
