21
gdb 120285	2.98683	1.16928	1.09866	0.8016	83.75	-0.2167	0.025	0.2417	1249.8194	0.182798	-387.080247	-387.071564	-387.07062	-387.114107	33.012	
C	 0.0847341877	 1.4530092794	-0.1864006358	-0.386542
C	 0.4829472599	-0.0113207872	-0.1303450273	-0.030389
O	 0.1644687227	-0.609311312	-1.3777011106	-0.238946
C	 0.4736777741	-1.9574832084	-1.4432442167	 0.12766
C	 0.8076100002	-2.5367257364	-2.7781050345	-0.118301
C	 1.2053080147	-1.5578882388	-3.8868511091	-0.260854
C	 2.4913811701	-0.938648232	-3.3840844516	-0.069373
C	 2.8721967116	-1.4524888105	-2.2124106759	-0.063373
C	 1.8974815797	-2.4530790581	-1.6986177133	-0.148635
H	 0.6264473669	 1.9646649902	-0.9869539981	 0.127843
H	-0.9872219322	 1.553936059	-0.3790912834	 0.12524
H	 0.3155433815	 1.9476458988	 0.761852555	 0.113134
H	 1.559864632	-0.1182942218	 0.0689321859	 0.092381
H	-0.053039935	-0.5298974974	 0.6816356697	 0.08426
H	-0.1182850354	-2.5827344225	-0.7709099043	 0.079173
H	 0.3550080805	-3.4822211708	-3.0531940076	 0.085099
H	 1.3489091021	-2.0753066899	-4.8439904459	 0.101199
H	 0.4307729645	-0.7981407574	-4.049087644	 0.121337
H	 3.0043901216	-0.14867979	-3.9209450572	 0.088994
H	 3.7597669732	-1.1669679148	-1.6591744444	 0.089126
H	 2.2400287397	-3.3212385797	-1.1450858411	 0.080966
62.9001	88.1708	126.0945	208.259	254.5602	267.607	348.8712	427.5638	541.7718	615.6286	704.5998	749.9511	773.0369	784.9815	808.8403	820.8094	890.8293	927.5559	939.4915	955.2326	978.0204	1022.6217	1033.3427	1057.0287	1065.8462	1103.3746	1110.7475	1135.468	1152.8194	1185.8518	1191.826	1245.456	1293.4353	1298.7686	1308.3015	1354.8781	1373.9818	1391.1192	1407.9493	1448.867	1471.916	1482.9194	1499.6289	1524.0396	1669.6034	2968.5854	3006.792	3021.6604	3044.4677	3053.9824	3071.9003	3118.6398	3121.2443	3158.4687	3175.5362	3184.1292	3209.1646
CCOC1C2CC=CC12	CCO[C@H]1[C@H]2CC=C[C@@H]12	
InChI=1S/C8H12O/c1-2-9-8-6-4-3-5-7(6)8/h3-4,6-8H,2,5H2,1H3	InChI=1S/C8H12O/c1-2-9-8-6-4-3-5-7(6)8/h3-4,6-8H,2,5H2,1H3/t6-,7+,8-/m1/s1
