19
gdb 38052	3.51572	1.67578	1.44586	1.51	78.43	-0.2293	0.0063	0.2356	945.6415	0.162407	-385.842056	-385.835432	-385.834488	-385.872832	27.973	
C	-0.0486012978	 1.6117546197	 0.2133738338	-0.25054
C	 1.4764640142	 1.3538362162	-0.0039371152	-0.121227
C	 1.7504821096	 0.4398554272	 1.212085203	-0.078686
C	 0.7152179461	-0.4115380108	 1.2218941842	-0.199088
C	-0.0915688737	 0.0478316986	 0.0095567814	 0.316301
C	-1.2164952235	-0.5742434518	-0.7711681058	-0.199939
O	-1.0912445419	 0.0035994574	-2.0791448602	-0.278519
C	 0.2464101594	 0.497018404	-2.3207980046	-0.118122
C	 1.0512977045	 0.2491643321	-1.0405254778	-0.015299
H	-0.3537350549	 1.9872883504	 1.1917810977	 0.092858
H	-0.5373792207	 2.1736397139	-0.585805006	 0.110862
H	 2.1911577126	 2.1466560624	-0.225678316	 0.061047
H	 2.5896601216	 0.5122609606	 1.8898081169	 0.101608
H	 0.4831391106	-1.2195944467	 1.9007130795	 0.106044
H	-1.1161615603	-1.6705506522	-0.8157222014	 0.091061
H	-2.2196186376	-0.3334886457	-0.4035714346	 0.105726
H	 0.6766608276	-0.0500192062	-3.1680175311	 0.098872
H	 0.1731472499	 1.5526800098	-2.6072290593	 0.102938
H	 1.7554232042	-0.5793215189	-1.1447169045	 0.074105
109.9975	268.4888	311.9809	382.9459	462.4512	531.456	554.0598	668.3372	671.693	726.7088	769.3623	814.7047	850.4931	873.284	891.0146	897.7418	903.8464	931.9373	995.5815	1032.0356	1053.4827	1054.0334	1069.7617	1087.4873	1104.0429	1136.0546	1174.4289	1209.327	1214.8073	1221.6874	1236.0567	1247.5103	1272.5082	1324.8165	1348.0044	1371.8346	1391.1751	1499.6108	1517.2654	1530.7649	1603.9601	2975.542	3021.8996	3049.9643	3064.5071	3068.5324	3084.2885	3111.898	3132.0566	3218.2488	3244.8733
C1C2C=CC11COCC21	C1[C@H]2C=C[C@]31COC[C@@H]23	
InChI=1S/C8H10O/c1-2-8-3-6(1)7(8)4-9-5-8/h1-2,6-7H,3-5H2	InChI=1S/C8H10O/c1-2-8-3-6(1)7(8)4-9-5-8/h1-2,6-7H,3-5H2/t6-,7+,8+/m1/s1
