21
gdb 91708	2.42784	1.73089	1.50971	1.7863	81.52	-0.2402	0.0144	0.2546	1004.2064	0.186548	-387.117287	-387.109912	-387.108968	-387.14879	30.982	
O	 0.2008412543	 1.3581209549	-0.2525729049	-0.442737
C	 0.0407458086	-0.0290550475	-0.040483152	 0.15691
C	 0.6875397231	-0.5675264079	 1.2787467211	-0.246903
C	-0.3872493865	-1.4534493011	 1.9587737435	-0.006011
C	-1.2754072965	-1.8672189946	 0.7645813441	-0.229956
C	-1.4370849575	-0.5130157756	 0.0541216404	-0.075254
C	-2.2281743211	 0.4202478492	 0.9489331892	-0.094664
C	-2.1271478749	 0.353039064	 2.2790415935	-0.047631
C	-1.2374559654	-0.6526686231	 2.967524571	-0.256374
H	-0.2790591198	 1.8044202747	 0.4562943641	 0.271308
H	 0.5153937761	-0.4967952524	-0.9092120857	 0.0836
H	 1.5883046943	-1.146126401	 1.0535814484	 0.098346
H	 1.0012521618	 0.2699363159	 1.9100336961	 0.094634
H	 0.0595841059	-2.3121126698	 2.4677524055	 0.06071
H	-0.7544557744	-2.5863379505	 0.1217894606	 0.090761
H	-2.2302681216	-2.3082447476	 1.0651688732	 0.095142
H	-1.8996003077	-0.5833150396	-0.9333109544	 0.062714
H	-2.8750817948	 1.1583540366	 0.4826330226	 0.091213
H	-2.7096065611	 1.0204257349	 2.9103643646	 0.087547
H	-1.857090483	-1.3323322809	 3.5714151614	 0.103507
H	-0.5805142898	-0.1422649684	 3.6857078977	 0.103138
90.3132	218.0586	334.6495	359.6835	389.0285	426.3477	451.6338	463.5951	536.0841	609.7008	692.8338	743.0213	802.097	822.5631	851.3263	878.9055	908.6896	917.8056	962.5213	994.7985	1005.665	1006.5175	1037.2301	1051.9724	1094.8423	1114.9039	1144.2152	1157.1465	1188.3536	1204.9475	1222.1387	1261.9341	1297.4031	1313.8935	1318.0832	1340.9571	1346.6177	1357.111	1382.2726	1414.1107	1444.3193	1472.1478	1486.5009	1503.8909	1702.829	2996.1778	3022.6048	3035.2978	3045.2273	3052.3718	3064.737	3079.74	3089.4334	3092.7672	3144.5249	3170.4043	3768.2685
OC1CC2CC1C=CC2	O[C@H]1C[C@@H]2C[C@H]1C=CC2	
InChI=1S/C8H12O/c9-8-5-6-2-1-3-7(8)4-6/h1,3,6-9H,2,4-5H2	InChI=1S/C8H12O/c9-8-5-6-2-1-3-7(8)4-6/h1,3,6-9H,2,4-5H2/t6-,7+,8-/m0/s1
