18
gdb 66071	2.09923	1.45516	1.15547	4.8772	76.71	-0.2635	-0.0381	0.2254	1143.3292	0.146167	-401.964834	-401.955719	-401.954774	-401.998925	33.095	
C	-0.1937156554	 1.5388994551	 0.1850288659	-0.441759
C	-0.0558893188	 0.0122925945	 0.0752232926	 0.137262
C	 1.0914208561	-0.41679795	-0.9079163426	-0.246768
C	 2.0340158347	-0.6501003028	 0.3005647344	-0.260116
C	 0.7749848653	-0.6788279615	 1.2180313905	-0.107294
C	 0.8740561899	-0.0829455181	 2.5959086028	 0.142193
O	 0.1255350605	 0.7337908006	 3.0678104211	-0.239677
C	-1.3526300851	-0.6028025184	-0.1864752514	 0.239504
N	-2.3696956519	-1.1094154655	-0.4015737577	-0.344048
H	 0.7834273857	 1.9963705233	 0.3647818072	 0.119884
H	-0.5901142437	 1.9377455822	-0.7530927206	 0.130996
H	-0.8539621094	 1.8188089951	 1.0052442326	 0.164501
H	 0.8533682235	-1.3456231509	-1.4292073876	 0.130542
H	 1.3851445924	 0.3393191195	-1.6383609085	 0.119827
H	 2.6525736813	-1.5479672037	 0.2839670929	 0.120664
H	 2.6743862386	 0.212006824	 0.5045434767	 0.121396
H	 0.4435030476	-1.7169371084	 1.3454808007	 0.127736
H	 1.7365061489	-0.477920625	 3.183587851	 0.085158
66.698	112.2328	144.2181	180.97	211.519	268.0305	290.73	342.686	363.5136	525.0077	546.3059	577.8148	673.0484	692.3066	801.3322	889.1207	901.2307	933.519	943.5678	966.3133	1006.7723	1075.6056	1115.7136	1143.0192	1178.8183	1203.3942	1233.7594	1257.5269	1266.3032	1285.4666	1348.3102	1411.8826	1422.8457	1480.8239	1491.6433	1493.2618	1501.0425	1826.9909	2350.2223	2853.6629	3040.3681	3049.9179	3071.2442	3077.4465	3116.6423	3125.3554	3140.6769	3161.1354
CC1(CCC1C=O)C#N	C[C@]1(CC[C@H]1C=O)C#N	
InChI=1S/C7H9NO/c1-7(5-8)3-2-6(7)4-9/h4,6H,2-3H2,1H3	InChI=1S/C7H9NO/c1-7(5-8)3-2-6(7)4-9/h4,6H,2-3H2,1H3/t6-,7-/m0/s1
