20
gdb 116960	7.18039	0.4746	0.46287	1.2772	86.72	-0.2455	0.036	0.2815	2393.2469	0.169224	-403.072377	-403.062008	-403.061063	-403.110307	35.41	
C	-0.2959481023	 1.3674124572	-0.254066991	-0.218161
O	-0.2213405725	-0.0299443993	-0.4122851257	-0.227858
C	-1.0078159658	-0.713973494	 0.544992744	-0.201784
C	-0.9070688023	-2.1529678927	 0.3447654644	 0.016072
C	-0.8365227913	-3.3455497527	 0.2003161117	 0.141156
C	-0.7681781808	-4.7908447345	 0.0030187896	-0.394187
C	-2.0993509341	-5.4072874312	-0.4007725279	 0.049406
C	-2.4179784925	-6.7986651419	-0.0009172812	-0.248895
N	-3.1378424089	-5.6621273897	 0.6041606967	-0.306405
H	 0.3337575475	 1.8142343335	-1.0265534883	 0.130644
H	-1.3260578406	 1.7398365816	-0.3742878196	 0.104768
H	 0.0703113408	 1.6889023344	 0.7343686671	 0.103835
H	-0.6790703435	-0.4533762421	 1.5667852374	 0.112069
H	-2.0638856468	-0.4000982311	 0.4681984186	 0.115561
H	-0.0186351189	-5.0133475657	-0.7687409921	 0.140001
H	-0.4099520006	-5.2774112645	 0.921200869	 0.120355
H	-2.4942879582	-5.0308537437	-1.3417318832	 0.103993
H	-3.0198937174	-7.4323616851	-0.6458440272	 0.120836
H	-1.6852709617	-7.3336485042	 0.5991823155	 0.109086
H	-2.7716143302	-5.4740158943	 1.5349556524	 0.229509
18.5583	51.0157	71.1087	107.5288	110.876	231.4784	260.9064	303.0897	320.5478	380.8224	391.3555	485.5498	549.174	782.2536	819.0918	830.4717	922.2573	937.5139	975.2568	978.1228	1027.3824	1048.9203	1123.8703	1136.3823	1149.3517	1173.8568	1177.7697	1182.5814	1220.2989	1245.2408	1254.4289	1266.0408	1310.2788	1322.7398	1411.2767	1419.7139	1459.5564	1477.4049	1484.4358	1496.322	1513.2883	1516.9918	2375.1492	2941.6781	2958.3952	2967.5034	3005.5801	3009.4227	3038.4101	3104.6616	3120.1607	3135.5144	3189.6742	3489.5024
COCC#CCC1CN1	COCC#CC[C@H]1CN1	
InChI=1S/C7H11NO/c1-9-5-3-2-4-7-6-8-7/h7-8H,4-6H2,1H3	InChI=1S/C7H11NO/c1-9-5-3-2-4-7-6-8-7/h7-8H,4-6H2,1H3/t7-/m0/s1
