25
gdb 104401	2.34369	1.30303	1.11857	1.5142	87.47	-0.2382	0.0738	0.3121	1282.2834	0.228667	-389.509607	-389.499399	-389.498455	-389.544366	39.006	
C	-0.1446891931	 1.7062304912	-0.0230852688	-0.395647
C	-0.2006934447	 0.1750394729	-0.0985447933	-0.232257
C	 0.6550975332	-0.4609138785	-1.2094747418	 0.301043
C	 0.2311668058	 0.0544250306	-2.599577009	-0.439046
C	 2.1753822731	-0.2575043801	-1.0029665199	-0.272642
C	 2.8027236319	-1.4503466183	-1.7463921573	-0.080234
O	 1.7690481075	-2.4191662655	-1.9303041952	-0.277362
C	 0.5866523295	-2.0152316037	-1.234202258	 0.113937
C	 0.5063328575	-2.7217691229	 0.1209819751	-0.415995
H	 0.8801500696	 2.0645475366	 0.1204615779	 0.116932
H	-0.5391974053	 2.1775954598	-0.9278184082	 0.119679
H	-0.7405364567	 2.0684838457	 0.8204810769	 0.112664
H	 0.1133632306	-0.2306089057	 0.8693683402	 0.095988
H	-1.2454983092	-0.1357892096	-0.2359281145	 0.091836
H	 0.4643077314	 1.1153974574	-2.7274623051	 0.110519
H	 0.7426006611	-0.5002764157	-3.3912678254	 0.129327
H	-0.8470879658	-0.071796938	-2.7492957377	 0.109333
H	 2.5310192128	 0.7010426569	-1.3892018579	 0.100683
H	 2.4207841565	-0.2905415073	 0.0637869674	 0.098332
H	 3.1830798535	-1.1638552035	-2.7349324185	 0.099043
H	 3.6374117987	-1.8927526006	-1.1871360661	 0.094663
H	-0.2599005636	-2.3465335807	-1.8489936007	 0.072685
H	 1.2989232423	-2.3947349719	 0.8020944901	 0.112348
H	-0.4580439189	-2.5497718956	 0.6087187092	 0.112325
H	 0.6229704722	-3.7977787737	-0.0348067997	 0.121845
68.4558	97.393	144.2975	187.3856	229.2047	258.8694	279.08	302.305	324.6171	348.7559	382.7469	439.1368	483.4985	603.952	704.5101	744.0888	787.9645	823.2639	873.2691	902.0473	926.0644	963.4809	992.6958	1014.1884	1025.2212	1028.8898	1070.9045	1078.509	1109.8654	1127.6491	1187.2243	1202.8177	1224.8845	1242.3488	1249.9095	1303.2212	1330.2674	1342.7439	1375.4126	1385.6457	1394.1308	1404.4438	1411.1014	1416.1523	1481.2058	1487.9672	1493.51	1496.8801	1503.7092	1505.937	1510.0352	1514.0555	1537.5921	3009.1909	3012.6982	3022.1086	3032.4659	3034.9431	3036.9811	3038.6964	3050.0973	3061.908	3095.7786	3099.5596	3103.1817	3108.5289	3110.2287	3116.4931	3116.6542
CCC1(C)CCOC1C	CC[C@@]1(C)CCO[C@H]1C	
InChI=1S/C8H16O/c1-4-8(3)5-6-9-7(8)2/h7H,4-6H2,1-3H3	InChI=1S/C8H16O/c1-4-8(3)5-6-9-7(8)2/h7H,4-6H2,1-3H3/t7-,8-/m0/s1
