12
gdb 21354	5.60739	2.20218	1.5812	5.2913	62.74	-0.2005	-0.0192	0.1814	720.4594	0.087897	-373.696899	-373.691343	-373.690399	-373.726225	22.04	
N	-0.0011803874	 1.3407175615	 0.0096467027	-0.219763
C	 1.2687114168	 1.8942514209	 0.0003585238	-0.225426
C	 2.1196681083	 0.8092347115	-0.0136587649	 0.340234
N	 3.4014178439	 0.343766822	-0.0284035078	-0.389852
N	 3.404951538	-1.0313908593	-0.0358694752	-0.101226
N	 2.1963053695	-1.4712083314	-0.0265279517	-0.299119
C	 1.3468702682	-0.3845879666	-0.0125727834	 0.277622
C	 0.0069678684	-0.027852871	 0.002243889	-0.190031
H	-0.8429123087	 1.8920489114	 0.0206805648	 0.269498
H	 1.416275655	 2.9594103957	 0.0046245852	 0.128327
H	 4.2834322165	 0.8242849908	-0.0346768957	 0.271713
H	-0.9049160385	-0.5990715556	 0.0079943032	 0.138025
259.4103	299.3324	383.0851	483.8753	539.228	595.3776	619.9159	686.6885	708.1523	708.8534	755.9405	776.2456	945.4622	982.6557	1013.5488	1064.3209	1145.8969	1209.7897	1259.6286	1312.2241	1335.2236	1403.0729	1455.0366	1491.0039	1538.5858	1671.5481	3286.1677	3289.3824	3668.528	3694.0479
N1C=C2NN=NC2=C1	[nH]1cc2[nH]nnc2c1	
InChI=1S/C4H4N4/c1-3-4(2-5-1)7-8-6-3/h1-2,5H,(H,6,7)	InChI=1S/C4H4N4/c1-3-4(2-5-1)7-8-6-3/h1-2,5H,(H,6,7)
