22
gdb 111761	3.31659	1.04151	0.93968	2.0097	81.95	-0.2301	0.0793	0.3094	1363.0714	0.194313	-404.303807	-404.294359	-404.293415	-404.338173	35.682	
C	 0.4029539752	 1.4766172466	 0.0783605681	-0.37131
C	-0.2255218822	 0.0871239445	-0.0893160015	-0.22672
C	 0.3681904376	-0.6722123266	-1.2570635337	-0.022518
N	 1.7366277953	-1.2525492454	-1.2858462685	-0.205705
C	 1.9914526554	-1.8749730135	 0.0644941637	-0.154707
C	 0.7865184824	-2.835135964	-0.0655263617	-0.30487
C	 0.4831560049	-2.1387859438	-1.3954962228	 0.274589
C	 0.2226697148	-2.8845718851	-2.6740585525	-0.156789
O	 1.2494351394	-3.825814736	-2.9451571922	-0.417856
H	 1.4768727448	 1.4019246958	 0.275801293	 0.128439
H	 0.2773623021	 2.0776736407	-0.828539023	 0.118657
H	-0.0587134314	 2.0207620602	 0.9076660535	 0.113037
H	-0.1339803136	-0.4778731328	 0.8427139011	 0.103616
H	-1.3028372761	 0.1889634984	-0.2726476267	 0.103291
H	 0.1912412094	-0.164908189	-2.2058982605	 0.089201
H	 2.9599254152	-2.3785505283	 0.0493420313	 0.109391
H	 1.984668681	-1.1638116628	 0.895973074	 0.104911
H	 1.0927940854	-3.8706694742	-0.2188901174	 0.124331
H	 0.0069561603	-2.8009848964	 0.7007878442	 0.099533
H	-0.7083384256	-3.4590879444	-2.5997767426	 0.111051
H	 0.1071157391	-2.1685390218	-3.5024020941	 0.090108
H	 2.0734691566	-3.3234642922	-2.9350571118	 0.290324
71.3716	88.5354	152.8628	173.6676	212.6671	274.2126	308.8959	333.6404	341.3684	457.6234	538.1874	597.9911	636.8256	699.8425	786.3509	799.2769	810.4064	861.3978	927.572	949.6217	972.6723	984.2589	1025.5596	1058.2136	1078.2132	1122.7748	1129.283	1136.491	1188.0223	1195.6634	1223.1135	1247.6916	1278.6691	1291.4271	1321.2732	1329.1154	1348.7342	1390.9204	1414.6912	1424.3344	1472.261	1478.7667	1490.7208	1492.4809	1497.6945	1507.5939	1519.0332	2985.0815	3031.8625	3036.6887	3054.1191	3059.6906	3061.6208	3077.6805	3101.7688	3105.635	3110.2691	3112.2329	3131.8541	3783.1216
CCC1N2CCC12CO	CC[C@H]1N2CC[C@@]12CO	
InChI=1S/C7H13NO/c1-2-6-7(5-9)3-4-8(6)7/h6,9H,2-5H2,1H3	InChI=1S/C7H13NO/c1-2-6-7(5-9)3-4-8(6)7/h6,9H,2-5H2,1H3/t6-,7-,8?/m1/s1
