19
gdb 88138	2.55766	1.55196	1.15645	3.8253	77.79	-0.2347	0.0195	0.2542	1114.9902	0.160198	-419.193906	-419.185583	-419.184639	-419.226822	31.735	
C	-0.1768871018	 1.4529168565	-0.010050684	-0.318256
N	 0.0041726834	 0.0133142934	 0.0855465102	-0.101702
C	 1.330720133	-0.5086511923	-0.2088232049	-0.298726
C	 0.8226240485	-0.526790024	 1.1870669405	 0.239113
C	 1.3756624518	 0.2897101272	 2.3462151899	-0.331122
C	 0.5677720805	-0.2680930644	 3.5273553698	-0.086864
O	 0.2384305093	-1.6219062629	 3.1711406749	-0.246271
C	 0.3149116485	-1.7935124898	 1.8166023341	 0.386963
N	 0.0297363346	-2.8569290257	 1.2019893184	-0.545794
H	 0.7262909616	 2.0456629519	 0.2111574205	 0.099347
H	-0.4885577782	 1.6906177403	-1.0318623566	 0.133101
H	-0.975578333	 1.7705791965	 0.6682768592	 0.123754
H	 1.3591637906	-1.4414999938	-0.7643473654	 0.143308
H	 2.1220459584	 0.2069966955	-0.4348041801	 0.103647
H	 2.4417622532	 0.0815358665	 2.4825639141	 0.123566
H	 1.2557747241	 1.3682147735	 2.2321289459	 0.116535
H	 1.1232149487	-0.2967307669	 4.4671934989	 0.121505
H	-0.3617503974	 0.2926899705	 3.6854524299	 0.115796
H	-0.3095277357	-3.570576782	 1.8484590048	 0.222101
81.9347	157.5584	172.2255	213.7651	249.8306	298.2748	389.0038	435.6301	486.3766	554.3436	663.2916	674.9474	707.7913	796.7444	849.1596	881.9123	907.3575	927.7591	961.6737	1010.7041	1052.1078	1073.5802	1100.6035	1131.7805	1141.1112	1154.9243	1200.8983	1214.4484	1228.7825	1243.6125	1303.0563	1313.3442	1386.9726	1428.513	1446.2692	1482.9668	1488.4203	1500.3523	1503.6982	1525.0329	1780.793	2963.7391	3030.1997	3055.7769	3066.3562	3081.3012	3103.1142	3105.6067	3121.5159	3189.435	3480.2541
CN1CC11CCOC1=N	CN1C[C@]21CCO[C]2[NH]	
InChI=1S/C6H10N2O/c1-8-4-6(8)2-3-9-5(6)7/h7H,2-4H2,1H3	InChI=1S/C6H10N2O/c1-8-4-6(8)2-3-9-5(6)7/h7H,2-4H2,1H3/t6-,8?/m1/s1
