19
gdb 40299	2.69797	1.55041	1.18746	1.5579	71.74	-0.2485	0.0726	0.3211	1079.7341	0.160021	-460.125729	-460.117757	-460.116813	-460.15843	30.695	
C	-0.0444409353	 1.5295530608	-0.0884758314	-0.230948
O	 1.1686598622	 0.798232881	-0.2359768472	-0.260901
C	-0.0378952382	 0.0639460283	 0.0344823449	 0.351162
C	-0.1382896652	-0.5316313659	 1.4368889545	-0.142513
O	-0.1055864547	-1.9418256256	 1.4889515774	-0.249835
C	 0.9691592972	-2.5572433581	 0.791919568	-0.100339
C	 0.5755372322	-2.8895211656	-0.6456614754	-0.064438
O	 0.480136103	-1.7662381563	-1.4974340244	-0.235405
C	-0.4896145795	-0.8031103568	-1.131340822	-0.147137
H	-0.1196209845	 2.1417061977	 0.8107612469	 0.112287
H	-0.4303998934	 1.9961157234	-0.9943642302	 0.115357
H	 0.666654203	-0.0867610013	 2.0424147873	 0.106404
H	-1.0980491823	-0.2565123742	 1.8879415899	 0.11436
H	 1.8682938732	-1.9255498617	 0.8057620849	 0.118536
H	 1.1943434899	-3.4896825381	 1.3229986865	 0.106517
H	 1.3356814417	-3.5377333654	-1.0951716099	 0.107395
H	-0.3794920442	-3.4398620051	-0.6205785442	 0.094158
H	-1.4525437054	-1.2809441083	-0.8911019493	 0.097709
H	-0.6233210998	-0.1734477789	-2.0152677861	 0.107628
59.9498	155.0173	235.9466	291.8558	320.6843	356.2968	383.1763	388.7984	478.7579	527.9303	569.2605	767.5483	828.1914	854.4759	881.7573	917.0485	943.6066	998.8889	1010.8385	1013.8076	1075.5711	1118.6902	1131.955	1151.0081	1158.3878	1180.7132	1247.8519	1267.2795	1312.5411	1317.3256	1341.9281	1367.7536	1378.2143	1402.511	1413.0263	1440.3075	1471.3574	1481.5561	1482.8866	1492.6564	1529.2374	2974.8514	2986.9451	2988.8061	3011.3445	3066.9776	3069.7261	3073.1424	3075.3298	3090.4391	3156.996
C1OC11COCCOC1	C1OC21COCCOC2	
InChI=1S/C6H10O3/c1-2-8-4-6(3-7-1)5-9-6/h1-5H2	InChI=1S/C6H10O3/c1-2-8-4-6(3-7-1)5-9-6/h1-5H2
