20
gdb 112761	2.32229	1.22635	0.91324	2.7404	79.36	-0.2729	0.0307	0.3036	1324.7978	0.170297	-403.153855	-403.144119	-403.143174	-403.188828	35.251	
C	-0.0032583373	 1.5977495176	-0.1666075079	-0.417719
C	 0.0973427787	 0.091152575	-0.0061588239	 0.034346
C	 1.0586621176	-0.7156954535	-0.9189790124	-0.23507
C	 1.4177906251	-1.6169173951	 0.2883459773	 0.040951
C	 2.8511407825	-2.0748253024	 0.4654848171	-0.111744
O	 3.1257575136	-2.9842811201	-0.5898707926	-0.424349
C	 0.8365528103	-0.5184960079	 1.2482116355	-0.22169
C	 1.8396293051	 0.3599881217	 1.8319261909	 0.291876
N	 2.6379222702	 1.0626652188	 2.2880980393	-0.348477
H	 0.9802822067	 2.0722070483	-0.0971986549	 0.138379
H	-0.4315768591	 1.846348947	-1.1434899958	 0.120055
H	-0.6442888709	 2.0417474373	 0.602503342	 0.122496
H	-0.901213183	-0.3566445807	-0.0347939458	 0.087178
H	 0.6355311957	-1.198397798	-1.8011232734	 0.11058
H	 1.9166518243	-0.1091868275	-1.2282329823	 0.111087
H	 0.7603532899	-2.4905018543	 0.3237544357	 0.094362
H	 3.5267041557	-1.2070941059	 0.4360636233	 0.106242
H	 2.9729548119	-2.5515232918	 1.4521609033	 0.092769
H	 4.0568312585	-3.2208780495	-0.5480904894	 0.290967
H	 0.1897616844	-0.8818800388	 2.0508720142	 0.117762
65.222	94.8375	117.9607	149.3484	212.3727	241.2015	259.1498	310.1613	380.8816	396.4536	429.8549	494.3028	621.7159	697.6746	774.8643	807.8429	891.3648	902.203	944.0796	966.817	1003.3686	1068.0634	1077.7051	1121.986	1125.859	1143.9473	1163.443	1217.6403	1233.0051	1255.4847	1269.6557	1275.814	1288.7519	1343.4484	1356.37	1384.0884	1418.3999	1466.5589	1489.6101	1495.6409	1495.8249	1522.2546	2343.576	2966.8081	3009.8823	3033.3282	3049.4341	3056.496	3069.044	3081.4187	3099.3057	3111.6388	3123.3572	3832.0891
CC1CC(CO)C1C#N	C[C@H]1C[C@@H](CO)[C@H]1C#N	
InChI=1S/C7H11NO/c1-5-2-6(4-9)7(5)3-8/h5-7,9H,2,4H2,1H3	InChI=1S/C7H11NO/c1-5-2-6(4-9)7(5)3-8/h5-7,9H,2,4H2,1H3/t5-,6-,7-/m0/s1
