21
gdb 104031	3.14425	1.27723	1.19394	0.8814	77.78	-0.2395	0.0859	0.3253	1169.3562	0.180885	-424.218713	-424.20974	-424.208795	-424.252156	34.807	
C	 0.1099940099	 1.4464986434	-0.2693906746	-0.392278
C	-0.0591199337	-0.0582098634	-0.0432913151	-0.209872
C	-1.5080786312	-0.5154225935	 0.1008319058	 0.450474
C	-2.243276021	 0.0692956168	 1.3072437209	-0.415401
O	-2.2173899617	-0.1995743807	-1.1079334625	-0.298382
C	-3.1094418249	-1.2571830383	-1.3506296546	 0.055752
C	-2.5199805958	-2.4827917485	-2.0149504307	-0.329135
C	-2.6474069554	-2.3999605023	-0.5087144088	 0.051887
O	-1.5091092051	-1.9500400671	 0.180042957	-0.299877
H	 1.162496981	 1.6886989618	-0.4431196966	 0.113417
H	-0.4629992504	 1.7725152624	-1.1416117162	 0.136432
H	-0.2228150399	 2.0309974091	 0.5938730478	 0.116156
H	 0.3621715943	-0.6152153875	-0.8858307507	 0.106059
H	 0.4830850595	-0.3780244664	 0.8534476859	 0.104943
H	-2.3174851466	 1.156513371	 1.2284204992	 0.126116
H	-3.255679844	-0.3406915001	 1.3578350658	 0.118868
H	-1.7192859886	-0.1859338776	 2.2325177097	 0.121738
H	-4.1451301972	-0.9679820377	-1.4917418584	 0.10225
H	-3.2011894798	-3.1447841193	-2.5406616258	 0.112369
H	-1.5257623835	-2.392060399	-2.4368863621	 0.126501
H	-3.298615936	-3.0622919329	 0.0511473341	 0.101982
79.1652	104.849	198.9007	230.7589	240.3184	272.3866	329.9386	369.2008	436.6273	445.9735	524.8598	640.2323	727.0021	778.8117	786.3333	791.4919	811.0336	897.1368	913.6784	950.8794	999.4737	1005.7291	1014.0415	1019.6486	1054.7698	1065.7285	1096.9103	1112.3036	1149.2699	1157.647	1191.5072	1210.3281	1264.3466	1304.6065	1333.6179	1373.281	1376.9393	1403.4288	1410.294	1457.1276	1473.5539	1486.5132	1490.8443	1503.2385	1510.3911	3042.7892	3046.3932	3050.1648	3086.6892	3109.3305	3122.5654	3124.7049	3129.2155	3130.6813	3161.122	3170.6914	3229.7245
CCC1(C)OC2CC2O1	CC[C@@]1(C)O[C@H]2C[C@H]2O1	
InChI=1S/C7H12O2/c1-3-7(2)8-5-4-6(5)9-7/h5-6H,3-4H2,1-2H3	InChI=1S/C7H12O2/c1-3-7(2)8-5-4-6(5)9-7/h5-6H,3-4H2,1-2H3/t5-,6+,7-
