19
gdb 92560	2.61651	1.81741	1.74938	1.7535	73.32	-0.2374	0.0806	0.3181	918.0942	0.161558	-423.019355	-423.012305	-423.011361	-423.050591	28.772	
C	-0.5295250625	 1.5048207681	 0.080525039	-0.401906
C	-0.0222892993	 0.0658695111	 0.014303656	 0.121411
O	 0.7058569444	-0.1686492069	-1.2032618052	-0.285307
C	 2.05985697	-0.5122355839	-0.9288502238	 0.066043
C	 2.9226029948	 0.7540392015	-0.877332732	-0.088003
O	 2.6411142754	 1.3348207907	 0.4027532258	-0.260563
C	 2.2790732314	 0.286172141	 1.2713543547	 0.089295
C	 0.9073960427	-0.3513111204	 1.1456080044	-0.114877
C	 2.1212113361	-1.0047168194	 0.528130323	-0.145846
H	 0.3067847291	 2.2046330236	 0.1280976549	 0.142192
H	-1.1388190803	 1.730787608	-0.7992641037	 0.117971
H	-1.1537587049	 1.6417955806	 0.9704013138	 0.106793
H	-0.8854958674	-0.6156232152	 0.0055246328	 0.075839
H	 2.396981267	-1.2375261336	-1.6735388804	 0.083452
H	 3.9924190028	 0.5070679634	-0.955354069	 0.090902
H	 2.6532617417	 1.4745506349	-1.6527485289	 0.118008
H	 2.7423683696	 0.3543156822	 2.2498753998	 0.099943
H	 0.4609890477	-0.7529646089	 2.0490309161	 0.090385
H	 2.5419107518	-1.9615267765	 0.8070359528	 0.094267
119.9809	196.3482	245.73	304.682	391.6421	424.0324	546.1313	618.4681	718.8188	731.7906	757.8372	800.5383	811.6269	826.6501	888.5408	922.7694	954.0519	967.8398	993.5464	1016.8972	1026.9412	1067.8087	1088.9273	1099.1449	1108.7151	1117.2332	1150.5866	1164.2367	1227.2229	1266.1296	1275.1201	1317.4257	1343.5212	1352.179	1371.123	1388.9544	1403.3137	1411.3405	1488.2295	1498.2028	1505.0857	2990.8191	2991.7863	3040.7477	3086.0325	3106.9072	3111.4541	3143.4538	3163.7382	3172.302	3199.1906
CC1OC2COC3C1C23	C[C@H]1O[C@H]2CO[C@H]3[C@@H]1[C@@H]23	
InChI=1S/C7H10O2/c1-3-5-6-4(9-3)2-8-7(5)6/h3-7H,2H2,1H3	InChI=1S/C7H10O2/c1-3-5-6-4(9-3)2-8-7(5)6/h3-7H,2H2,1H3/t3-,4+,5+,6-,7+/m1/s1
