15
gdb 127655	3.51717	1.77478	1.18851	1.5146	73.67	-0.2047	0.001	0.2057	975.8391	0.116033	-413.015397	-413.008241	-413.007297	-413.048038	26.299	
C	 0.0909885541	 1.3993694134	-0.0078235412	-0.33718
N	 0.0621483461	-0.0438551723	 0.019416223	-0.123169
N	 0.1127478308	-0.7854506866	-1.128122626	-0.248388
C	 0.1180524369	-2.0389038238	-0.7516852968	 0.005326
N	 0.0785628599	-2.1443331925	 0.6179655665	-0.035477
C	 0.0539617716	-2.9760780062	 1.7335156815	-0.168529
C	 0.012502874	-2.1059279828	 2.7988582816	-0.07812
N	 0.0095256792	-0.7744615383	 2.4205919132	-0.41278
C	 0.0484419461	-0.856645159	 1.1108064613	 0.526854
H	 1.076330914	 1.7692574389	-0.3087131475	 0.146159
H	-0.6607700257	 1.772232707	-0.7071006877	 0.151392
H	-0.1355362774	 1.7551007459	 0.9985351247	 0.170682
H	 0.1462349138	-2.8729954862	-1.4319417977	 0.157644
H	 0.0680573645	-4.0488329645	 1.6627361083	 0.133138
H	-0.0153534979	-2.3755990729	 3.8446906967	 0.112449
29.7823	136.9905	239.3727	257.124	330.8056	541.1677	607.7907	621.2601	633.7609	663.1932	731.6006	754.6332	792.5554	866.8887	870.7411	944.659	1019.3222	1092.208	1152.6738	1156.4472	1173.1402	1230.465	1272.6407	1286.9077	1334.637	1421.3814	1447.4922	1465.9639	1482.8898	1502.9683	1514.7302	1548.8654	1662.4715	3045.0355	3114.607	3153.9779	3242.3491	3289.246	3299.9701
CN1N=CN2C=CN=C12	Cn1ncn2ccnc12	
InChI=1S/C5H6N4/c1-8-5-6-2-3-9(5)4-7-8/h2-4H,1H3	InChI=1S/C5H6N4/c1-8-5-6-2-3-9(5)4-7-8/h2-4H,1H3
