18
gdb 87937	3.4909	1.1641	1.04465	3.7763	74.22	-0.2434	0.0319	0.2753	1185.7854	0.147815	-439.088177	-439.079948	-439.079004	-439.121061	31.759	
O	-0.0679919478	 1.4823559262	 0.1134979557	-0.41826
C	-0.0044124291	 0.0923883015	 0.0027535286	 0.028173
C	-0.4517861435	-0.7869561965	 1.1613074657	-0.401763
C	-1.3083466507	-0.6443415501	-0.0589145971	 0.418469
C	-2.6530335688	 0.05454911	-0.1168722445	-0.306878
C	-3.1212790061	-0.3118090985	-1.5346088021	-0.301244
C	-2.4134365783	-1.6218663706	-1.8106165148	 0.400994
N	-2.7169784537	-2.4623560915	-2.7007556218	-0.540705
O	-1.3697108909	-1.7669113061	-0.9301515103	-0.270039
H	 0.6117050137	 1.7664450091	 0.7338405057	 0.293078
H	 0.7973011946	-0.2974120762	-0.6239488487	 0.102387
H	 0.066426069	-1.7277021545	 1.3107795955	 0.129544
H	-0.7966998591	-0.2923720718	 2.0639237475	 0.121928
H	-3.3309219419	-0.3609428731	 0.6361694549	 0.114362
H	-2.5545385861	 1.1265412913	 0.0541469025	 0.134401
H	-4.2001315351	-0.4187987314	-1.6467988122	 0.135503
H	-2.7818821111	 0.429952426	-2.266072951	 0.139813
H	-2.0687395352	-3.2518039538	-2.6851219637	 0.220235
81.2953	118.7982	211.7782	222.5592	282.4612	352.0057	445.8098	454.4207	505.5854	517.177	539.7403	667.4835	762.4624	818.568	825.8285	890.8197	899.1666	920.2322	937.4454	989.8336	1007.5115	1032.5344	1071.8098	1079.2235	1100.2137	1166.7382	1174.2908	1194.7859	1229.5358	1288.818	1296.2018	1306.4863	1345.1382	1360.648	1416.8162	1471.6011	1493.1226	1499.1533	1782.5328	3051.5846	3058.9049	3110.6122	3130.2279	3133.3779	3139.1004	3225.8114	3470.1292	3802.7324
OC1CC11CCC(=N)O1	O[C@H]1C[C@]21CC[C]([NH])O2	
InChI=1S/C6H9NO2/c7-5-1-2-6(9-5)3-4(6)8/h4,7-8H,1-3H2	InChI=1S/C6H9NO2/c7-5-1-2-6(9-5)3-4(6)8/h4,7-8H,1-3H2/t4-,6-/m0/s1
