16
gdb 69017	2.88799	1.34504	1.12299	3.2477	78.59	-0.2337	-0.0265	0.2072	1107.7302	0.121754	-400.69372	-400.685024	-400.68408	-400.726984	32.566	
C	-0.0284412197	 1.5558475615	 0.0717248484	-0.510621
C	 0.1158769155	 0.0705851885	-0.0039690703	 0.133224
N	-0.7631836714	-0.8664278198	 0.7583297615	-0.391054
C	 0.7004352088	-0.9593413737	 0.9670798428	 0.133876
C	 1.1997263718	-1.8611395061	-0.1767651561	-0.403423
C	 0.6742170732	-0.7628792126	-1.1431135038	 0.422191
O	 0.8426424475	-0.5414020756	-2.305777712	-0.306417
C	 1.315913615	-0.715827968	 2.2211290154	 0.169896
C	 1.8417563469	-0.5139975959	 3.2850785347	-0.390025
H	 0.8062023485	 2.0490306094	-0.4345732338	 0.146211
H	-0.9549744737	 1.8829439257	-0.4116270331	 0.145997
H	-0.0459207824	 1.8900791895	 1.114270923	 0.133581
H	-1.1477588486	-0.3197851405	 1.5312677954	 0.24136
H	 2.2871506608	-1.9452219846	-0.2430382915	 0.14182
H	 0.73300625	-2.8460123438	-0.2323787371	 0.137095
H	 2.3064725079	-0.3382896341	 4.2237508466	 0.196288
85.1364	116.4325	159.2334	192.8205	247.5389	301.8075	396.9619	469.5206	506.5715	543.0076	566.0193	585.8011	599.9911	660.9042	669.9137	700.9726	755.6193	834.5723	971.0356	996.6451	1044.7002	1067.5065	1092.2466	1103.32	1129.963	1199.8542	1295.5978	1359.0995	1394.3059	1421.6504	1449.4826	1478.551	1493.4464	1893.162	2233.2679	3035.8428	3077.0272	3103.1354	3115.2564	3141.271	3453.714	3500.8526
CC12NC1(CC2=O)C#C	C[C@]12N[C@]1(CC2=O)C#C	
InChI=1S/C7H7NO/c1-3-7-4-5(9)6(7,2)8-7/h1,8H,4H2,2H3	InChI=1S/C7H7NO/c1-3-7-4-5(9)6(7,2)8-7/h1,8H,4H2,2H3/t6-,7+/m1/s1
