15
gdb 124311	4.73379	0.95829	0.83449	4.6959	67.05	-0.2693	-0.0413	0.228	1324.8979	0.110954	-453.927891	-453.919558	-453.918614	-453.962344	29.01	
C	 0.1677843597	 1.4557011939	 0.1158339425	-0.477753
C	-0.3193940374	 0.0298710947	-0.0280290528	 0.384855
O	-1.1836850203	-0.4380842214	 0.673899822	-0.283371
C	 0.3361948467	-0.7821630241	-1.1523692417	-0.439803
C	 0.1935798472	-2.2610213555	-1.0049632702	 0.353479
N	 1.2059084581	-3.0652777751	-1.1991012312	-0.151287
O	 0.7292087128	-4.3279968347	-0.998357628	-0.148247
N	-0.5982965856	-4.31183528	-0.671695136	-0.066152
C	-0.9427050093	-3.0552951744	-0.6698437288	-0.092131
H	 1.1970134854	 1.4531152155	 0.4940535188	 0.154697
H	 0.1879584847	 1.9627879154	-0.8548995568	 0.142402
H	-0.4713061422	 1.999656665	 0.8118030937	 0.151951
H	-0.1408598771	-0.4459565534	-2.0852066236	 0.156914
H	 1.3944076465	-0.5236700077	-1.2499475301	 0.150719
H	-1.9434246093	-2.7431584982	-0.4238707079	 0.163727
44.7431	59.0244	131.8809	137.6738	301.5023	310.4513	339.2767	470.3401	569.7149	649.4501	676.8495	764.9503	818.9854	853.8597	893.4767	900.402	941.3546	973.9011	1025.7722	1042.4909	1071.3432	1176.8417	1195.3058	1217.8449	1341.7461	1385.9798	1425.9508	1442.6569	1461.0992	1469.6468	1475.1302	1614.1019	1819.305	3013.1074	3037.1853	3095.3581	3099.5146	3156.9751	3297.8242
CC(=O)CC1=NON=C1	CC(=O)Cc1nonc1	
InChI=1S/C5H6N2O2/c1-4(8)2-5-3-6-9-7-5/h3H,2H2,1H3	InChI=1S/C5H6N2O2/c1-4(8)2-5-3-6-9-7-5/h3H,2H2,1H3
