15
gdb 28399	3.29433	1.40623	0.98787	3.0507	75.16	-0.1875	-0.0169	0.1706	1121.4948	0.115887	-450.205918	-450.198082	-450.197137	-450.237855	30.554	
N	 0.036573355	 1.3888162286	 0.1234345612	-0.574909
C	-0.0426111801	 0.0074616783	 0.0406516079	 0.453376
N	-1.1912673213	-0.5931234192	 0.0205385292	-0.335038
C	-1.1772610356	-1.9656337157	 0.0324529383	-0.091782
C	-0.0483519216	-2.7351658454	 0.0293626575	 0.155188
N	 0.0029562314	-4.1244528683	 0.0878899569	-0.589112
C	 1.2453205916	-2.0692181066	 0.0168101275	 0.39727
O	 2.3323089172	-2.62850096	-0.0140868592	-0.408591
N	 1.1448529848	-0.6753273394	 0.0444940566	-0.393025
H	 0.7605031564	 1.8228029098	-0.4334970949	 0.253067
H	-0.8688061534	 1.8111193307	-0.0313499916	 0.267126
H	-2.1576247943	-2.4354863147	 0.0348113321	 0.099549
H	-0.7540640225	-4.6069803585	-0.3734191024	 0.246189
H	 0.9146812498	-4.4703896381	-0.1844914103	 0.260886
H	 2.0278404927	-0.1852082915	 0.0994656212	 0.259805
132.9896	182.9507	292.9839	297.9343	325.3218	346.4029	400.1875	411.4989	475.7486	554.6975	593.9817	635.3437	646.0648	687.4618	749.1727	762.2279	791.8766	817.9162	928.0887	1011.5269	1084.9686	1139.0108	1231.9921	1283.8485	1317.2684	1329.7198	1440.1133	1518.4349	1610.5347	1624.6997	1646.046	1672.5575	1771.8627	3156.3742	3542.3327	3550.3393	3594.3185	3654.0329	3655.7519
NC1=NC=C(N)C(=O)N1	Nc1ncc(N)c(=O)[nH]1	
InChI=1S/C4H6N4O/c5-2-1-7-4(6)8-3(2)9/h1H,5H2,(H3,6,7,8,9)	InChI=1S/C4H6N4O/c5-2-1-7-4(6)8-3(2)9/h1H,5H2,(H3,6,7,8,9)
