18
gdb 124492	2.57131	1.29731	1.05998	3.9024	75.33	-0.2265	-0.0288	0.1977	1207.6846	0.146589	-435.254318	-435.244868	-435.243924	-435.289358	33.721	
C	-0.0934404397	 1.5324997968	 0.0002298783	-0.384358
C	 0.0700532798	 0.0012196382	-0.07159483	-0.098359
C	 0.8888588581	-0.4172358177	-1.3071418705	-0.386624
C	 0.6691503782	-0.5428209485	 1.1842218808	 0.405661
C	 0.1787414135	-1.3156594168	 2.1981035097	 0.128943
N	-1.0843476794	-1.8943882503	 2.361974739	-0.604016
N	 1.2099384903	-1.5161796567	 3.0857381386	-0.169815
N	 2.2585019402	-0.9337765544	 2.6885762204	-0.026482
O	 1.9521070947	-0.2727789595	 1.4752033676	-0.228247
H	 0.8811138923	 2.0206134042	 0.0966869703	 0.136309
H	-0.5737497845	 1.9054426075	-0.9094763625	 0.119115
H	-0.7055524454	 1.8300043584	 0.8568914503	 0.116803
H	-0.9257060327	-0.4524459752	-0.1463514625	 0.098928
H	 1.9021709053	-0.0084606531	-1.2569571908	 0.136693
H	 0.9653336412	-1.5055188186	-1.3814344326	 0.127756
H	 0.4133444329	-0.042980208	-2.2185772897	 0.116745
H	-1.8222976434	-1.2094658935	 2.474658396	 0.252923
H	-1.0852243512	-2.5088763728	 3.1673263076	 0.258025
37.9107	83.1699	138.3686	164.3058	221.4124	250.5913	281.9842	296.9047	385.1424	426.9647	519.3466	621.5979	694.9084	707.8596	737.4762	767.6756	812.027	883.8182	934.8438	965.4227	1012.2354	1077.7381	1103.068	1120.0476	1175.1621	1219.8235	1270.9666	1337.1442	1376.9948	1398.1094	1408.5622	1428.8963	1443.6324	1486.2371	1490.7736	1501.2665	1513.2036	1650.0554	1675.1892	3037.444	3038.154	3043.2474	3110.7666	3114.4685	3117.4445	3122.2777	3527.5953	3612.9736
CC(C)C1=C(N)N=NO1	CC(C)c1c(N)nno1	
InChI=1S/C5H9N3O/c1-3(2)4-5(6)7-8-9-4/h3H,6H2,1-2H3	InChI=1S/C5H9N3O/c1-3(2)4-5(6)7-8-9-4/h3H,6H2,1-2H3
