17
gdb 54953	3.08963	1.08933	1.02419	5.1235	75.18	-0.2657	-0.0105	0.2551	1236.5098	0.133278	-418.0262	-418.016533	-418.015588	-418.061215	33.891	
C	 0.0736516992	 1.4147423616	-0.0522094994	-0.480012
C	-0.0275266161	-0.0965622871	-0.0144041939	 0.38078
O	 0.2548165479	-0.7743400917	 0.9454525638	-0.327129
N	-0.5695071996	-0.656826195	-1.177662879	-0.097568
C	-0.0930655506	-0.5513969971	-2.5342313231	-0.280057
C	-0.1220119897	-1.8833370886	-1.8059687819	 0.139354
C	 1.1760518116	-2.5486700036	-1.3842998789	-0.451375
C	-1.1894642988	-2.8080436351	-2.1538810606	 0.270408
N	-2.0143105162	-3.5609304411	-2.4502115848	-0.330011
H	 0.8759804736	 1.7263304856	-0.7302090316	 0.140762
H	-0.856264661	 1.8573117184	-0.4195136921	 0.152196
H	 0.2944732867	 1.779910851	 0.9503002402	 0.155693
H	-0.8382683813	-0.3314840312	-3.2934403966	 0.147748
H	 0.8936815087	-0.1269244743	-2.7087622148	 0.13643
H	 1.9590577128	-1.8010944934	-1.2405337457	 0.131168
H	 1.0420839281	-3.0831675816	-0.4421928644	 0.17009
H	 1.4981463747	-3.2550312867	-2.1540181272	 0.141522
63.8744	92.9735	104.4982	148.795	183.9488	201.3007	262.0359	362.7048	365.4233	386.9276	554.7774	574.9358	584.3408	604.4658	713.8514	725.7553	898.1529	917.5437	968.1593	1007.5822	1052.7052	1091.1887	1104.3179	1133.4898	1136.4963	1240.6317	1266.3268	1384.1052	1407.423	1419.8038	1467.4819	1477.3175	1478.0408	1488.8892	1507.7307	1800.3789	2362.5675	3047.0438	3057.3315	3101.7379	3112.7859	3133.638	3146.233	3165.8821	3196.8547
CC(=O)N1CC1(C)C#N	CC(=O)N1C[C@]1(C)C#N	
InChI=1S/C6H8N2O/c1-5(9)8-4-6(8,2)3-7/h4H2,1-2H3	InChI=1S/C6H8N2O/c1-5(9)8-4-6(8,2)3-7/h4H2,1-2H3/t6-,8?/m0/s1
