19
gdb 85404	1.87717	1.74727	0.94119	1.8871	79.1	-0.2498	-0.0132	0.2366	1254.2483	0.159772	-419.280427	-419.271556	-419.270612	-419.313903	33.362	
C	-0.103719515	 1.536428039	 0.0265967125	-0.388877
C	 0.0379514271	 0.0153113526	 0.0308926062	 0.03918
C	 0.7072899566	-0.5031032774	-1.2522749763	-0.331208
C	 1.0005925464	-1.9878066304	-1.1767775086	 0.3961
O	 1.0368862847	-2.7489031629	-2.1168945662	-0.351899
N	 1.2871480184	-2.4076431339	 0.1138606327	-0.365793
C	 1.2863437216	-1.5585639749	 1.2307244778	 0.3744
C	 1.9663478004	-2.1192789657	 2.4480940327	-0.477086
N	 0.7461834405	-0.4072507806	 1.2432282046	-0.283019
H	 0.8813103706	 2.0120082126	-0.0254638934	 0.117364
H	-0.6970081197	 1.8743099626	-0.8289973201	 0.109728
H	-0.5902613749	 1.871295583	 0.9461366927	 0.125381
H	-0.9724255868	-0.4226447877	 0.0873509019	 0.089931
H	 0.1029709929	-0.3144784843	-2.1419742048	 0.132467
H	 1.6692504786	 0.0096132211	-1.3962960634	 0.129627
H	 1.6161490048	-3.3587781208	 0.2016607184	 0.253759
H	 1.4905682005	-3.0562049858	 2.761560214	 0.136103
H	 3.0201783585	-2.3391002128	 2.2433242017	 0.137617
H	 1.8972609048	-1.3970509136	 3.2603830875	 0.156225
111.7459	121.3533	150.9445	193.8395	245.1888	271.2156	317.123	441.9266	453.9066	489.8544	535.7709	564.5099	607.8063	628.1987	684.0936	859.052	877.3522	917.8752	943.9391	1005.863	1011.4056	1059.5959	1100.98	1140.707	1150.8547	1198.3485	1230.2327	1288.7175	1305.8814	1349.5889	1368.2077	1404.3411	1410.1451	1451.2953	1458.332	1481.3644	1484.3599	1487.5681	1498.2527	1743.349	1821.6352	2966.9901	3020.2598	3034.2777	3037.665	3088.8632	3106.5967	3115.346	3123.1939	3165.2725	3606.8249
CC1CC(=O)NC(C)=N1	C[C@H]1CC(=O)NC(=N1)C	
InChI=1S/C6H10N2O/c1-4-3-6(9)8-5(2)7-4/h4H,3H2,1-2H3,(H,7,8,9)	InChI=1S/C6H10N2O/c1-4-3-6(9)8-5(2)7-4/h4H,3H2,1-2H3,(H,7,8,9)/t4-/m0/s1
