19
gdb 100394	2.08275	1.18354	1.00455	3.6589	73.	-0.2503	-0.0424	0.2078	1294.0449	0.153624	-460.166128	-460.15533	-460.154385	-460.203101	36.887	
C	-0.2478902098	 1.1888079196	 0.2702328239	-0.254705
O	-0.0806509946	-0.1940076464	 0.0039436249	-0.276084
C	 0.6304815044	-0.5306766925	-1.1864018381	 0.226874
C	 2.027199755	 0.0849584906	-1.267888645	-0.434567
C	 0.7151399964	-2.0762553706	-1.1648221119	-0.3107
C	-0.6195285977	-2.7844638194	-1.013106276	 0.144094
O	-0.9925467623	-3.6704796993	-1.739624432	-0.241792
C	-0.2339285818	-0.1192272617	-2.3897840733	 0.142364
O	 0.1781304454	 0.4040554909	-3.3897211236	-0.240692
H	 0.6948022684	 1.670596991	 0.5577126366	 0.122955
H	-0.6698052621	 1.7321819777	-0.5869845523	 0.121855
H	-0.9472541759	 1.2588310117	 1.1060922579	 0.138255
H	 2.6054006881	-0.1789766576	-0.3782255241	 0.12318
H	 2.5456952577	-0.2875833941	-2.1538519409	 0.141602
H	 1.9831990267	 1.1726466014	-1.3563604069	 0.132175
H	 1.2135555726	-2.450763191	-2.0622317978	 0.133951
H	 1.3213718649	-2.3411755156	-0.2877068005	 0.134583
H	-1.2315417794	-2.441756246	-0.1542871624	 0.100582
H	-1.3141316958	-0.3551391887	-2.2500797484	 0.09607
43.016	59.2317	83.4479	119.6294	176.6765	194.9856	212.0266	263.5662	285.8148	329.5412	362.875	412.2146	465.4949	539.4101	581.0078	742.1645	808.6005	889.2544	917.6115	986.0435	1031.4998	1039.3867	1108.9535	1143.1882	1178.0578	1183.1181	1198.1747	1228.0956	1277.9896	1319.9493	1392.8536	1412.322	1419.4192	1442.8487	1477.677	1482.1323	1488.048	1501.7474	1513.4299	1825.3291	1839.4889	2874.2964	2931.2513	3000.2248	3025.5501	3054.042	3061.6492	3115.3966	3123.9838	3132.5861	3137.7731
COC(C)(CC=O)C=O	CO[C@@](C)(CC=O)C=O	
InChI=1S/C6H10O3/c1-6(5-8,9-2)3-4-7/h4-5H,3H2,1-2H3	InChI=1S/C6H10O3/c1-6(5-8,9-2)3-4-7/h4-5H,3H2,1-2H3/t6-/m0/s1
