19
gdb 61416	2.53034	1.1385	0.88628	7.3482	73.38	-0.2391	0.0034	0.2424	1330.564	0.158911	-456.402498	-456.392787	-456.391843	-456.437568	35.681	
C	-0.9792059583	 1.6138192513	-1.563191148	-0.394972
C	-0.4211019223	 0.6885755799	-0.4598569993	-0.057868
C	-1.5908324472	 0.0874306208	 0.3482464775	-0.331042
C	-1.2147012727	-0.5606673303	 1.6859420191	 0.37612
O	-0.584665638	-1.7361244848	 1.6047544773	-0.374073
O	-1.4817328154	-0.0505163903	 2.7449764091	-0.334935
C	 0.5045077411	-0.3610101875	-1.0697860261	 0.391575
N	 0.2248270243	-1.6108553214	-0.9670690842	-0.549008
N	 1.5796990437	 0.1469260782	-1.7488041911	-0.524167
H	 2.327262977	-0.4760297729	-2.0093707107	 0.258328
H	 1.8446473656	 1.1073430466	-1.6069073115	 0.264213
H	-0.1882860835	 2.092022641	-2.146891115	 0.112321
H	-1.6075446645	 1.0457909474	-2.2566573515	 0.13518
H	-1.5913795676	 2.4009670045	-1.1152895711	 0.132684
H	 0.1906827872	 1.3007253112	 0.2181036101	 0.107533
H	-2.284569801	 0.8938231897	 0.5922615837	 0.122128
H	-2.1140876154	-0.6420523958	-0.2786662055	 0.13086
H	-0.3780140493	-1.9192768643	 0.6505384732	 0.323447
H	 0.9144510362	-2.2093531632	-1.4210985861	 0.211677
45.5752	86.0063	119.6335	207.4029	228.985	273.3618	308.8793	335.4085	348.3593	409.4871	455.4403	491.0863	569.9593	617.3246	687.2623	730.4589	793.5815	853.3967	886.7325	910.0067	915.9631	961.82	1043.5868	1090.2225	1097.0346	1141.2124	1163.0651	1190.7155	1299.0946	1310.8346	1339.3625	1354.4928	1410.2055	1441.0472	1469.1167	1495.1863	1498.2867	1504.4512	1644.459	1701.0204	1850.6818	3009.3466	3042.939	3059.1816	3114.6487	3119.1242	3125.0385	3223.5724	3474.008	3595.1939	3710.7303
CC(CC([O-])=O)C(N)=[NH2+]	C[C@@H](CC(=O)O)C(=N)N	
InChI=1S/C5H10N2O2/c1-3(5(6)7)2-4(8)9/h3H,2H2,1H3,(H3,6,7)(H,8,9)	InChI=1S/C5H10N2O2/c1-3(5(6)7)2-4(8)9/h3H,2H2,1H3,(H3,6,7)(H,8,9)/t3-/m0/s1
