16
gdb 39033	3.2233	1.82606	1.31966	3.7405	68.97	-0.2411	0.0072	0.2482	940.4653	0.126783	-437.876184	-437.869572	-437.868628	-437.90709	26.273	
C	 0.0113647799	 1.382306073	 0.0617469534	-0.092413
C	 1.4676310797	 1.9280842649	-0.0350998468	-0.384413
C	 2.1388575671	 0.7618745331	-0.7085371881	 0.34525
O	 2.6061554468	 0.761949036	-2.0652055265	-0.291823
C	 3.4346646422	 0.1692195358	-1.0426904932	-0.113555
C	 3.2169858542	-1.3502768957	-0.9378272588	-0.183402
N	 1.7991177407	-1.5797294909	-0.5566980441	-0.34911
C	 1.2921414721	-0.4264893417	-0.4132362394	 0.439096
O	 0.0865257913	-0.0699103343	 0.0613043671	-0.257816
H	-0.5019509961	 1.6771194837	 0.9782796827	 0.130543
H	-0.5892681136	 1.6934433576	-0.7993385167	 0.132162
H	 1.5274737985	 2.8522421859	-0.6113930887	 0.137665
H	 1.8792590012	 2.1057374177	 0.9626390547	 0.132375
H	 4.3997934382	 0.6402382039	-0.883871456	 0.110486
H	 3.4430753288	-1.849166611	-1.8865222922	 0.128941
H	 3.8663370189	-1.789004168	-0.1708683075	 0.116013
147.7436	203.446	289.3698	304.304	432.8816	452.4737	614.4202	645.7035	695.2717	723.8507	767.0499	833.7577	843.4562	888.7827	926.2519	942.8103	964.4386	1010.0278	1046.6217	1065.7434	1093.3609	1127.7322	1207.2185	1209.3593	1233.4583	1266.039	1299.9012	1312.4446	1327.4011	1417.5316	1461.6825	1474.0016	1483.1943	1519.6119	1756.4198	3038.3015	3054.1937	3066.9937	3078.3339	3121.716	3136.3608	3167.5174
C1CC23OC2CN=C3O1	C1C[C@@]23O[C@@H]2CN=C3O1	
InChI=1S/C6H7NO2/c1-2-8-5-6(1)4(9-6)3-7-5/h4H,1-3H2	InChI=1S/C6H7NO2/c1-2-8-5-6(1)4(9-6)3-7-5/h4H,1-3H2/t4-,6-/m1/s1
