22
gdb 85878	2.0417	1.52482	1.0846	4.0403	86.31	-0.2931	0.0328	0.3259	1235.5961	0.19286	-367.236871	-367.226936	-367.225992	-367.271196	37.594	
C	-0.526296169	 0.8153654631	-1.5419304884	-0.419141
C	 0.3749174838	-0.2073865657	-0.8709007696	 0.036101
C	 1.8914724065	-0.1961026047	-1.1916379542	-0.269295
C	 2.2206024521	-0.4536786145	 0.3102499553	 0.320912
C	 2.4474215022	-1.9379533738	 0.608136957	-0.438177
C	 3.3303246874	 0.3986986706	 0.9135964584	-0.452872
C	 0.7250953146	-0.0510360576	 0.6570341389	-0.22805
C	 0.5533342654	 1.2928967922	 1.1811955616	 0.293435
N	 0.4213723213	 2.3681243655	 1.5881928515	-0.350687
H	-0.1597131853	 1.834316802	-1.384739144	 0.13778
H	-0.5682101218	 0.6327766994	-2.6210629074	 0.117815
H	-1.5489790352	 0.7654819849	-1.1533978032	 0.123366
H	-0.0363463594	-1.2107086682	-1.0148964516	 0.086089
H	 2.2562503323	-0.9356067284	-1.9094648584	 0.099001
H	 2.225270412	 0.7958337991	-1.5124948206	 0.106156
H	 3.4021895585	-2.2692858744	 0.1855645915	 0.120346
H	 2.4761360867	-2.1224441197	 1.6877154087	 0.119996
H	 1.6597368909	-2.5670046356	 0.180156073	 0.115057
H	 3.1608429326	 1.4649544704	 0.7419341267	 0.1357
H	 3.410691166	 0.2433946659	 1.9953368185	 0.12056
H	 4.2940020293	 0.131197933	 0.4656220214	 0.11453
H	 0.2104424889	-0.7475127335	 1.3252779347	 0.111377
63.8622	139.0112	162.6267	214.902	226.4655	247.6255	276.3185	316.6283	327.544	375.2592	399.6087	420.7024	512.1188	567.5644	630.7823	752.6428	814.9846	860.4323	896.4599	925.3701	954.4888	962.3122	974.6378	1007.7868	1042.1212	1104.7833	1127.8158	1135.9291	1188.2776	1208.9207	1237.1705	1269.2717	1284.5429	1293.9578	1339.7374	1367.5734	1404.8833	1416.3776	1423.6559	1482.5786	1484.3187	1490.4042	1494.1237	1496.9708	1501.4637	1507.9523	2343.5242	3024.7541	3030.2542	3033.2427	3049.3876	3056.1002	3069.3182	3091.4413	3095.8583	3097.7483	3099.4638	3103.508	3112.8174	3115.56
CC1CC(C)(C)C1C#N	C[C@H]1CC(C)(C)[C@H]1C#N	
InChI=1S/C8H13N/c1-6-4-8(2,3)7(6)5-9/h6-7H,4H2,1-3H3	InChI=1S/C8H13N/c1-6-4-8(2,3)7(6)5-9/h6-7H,4H2,1-3H3/t6-,7-/m0/s1
