18
gdb 9360	5.51611	0.89461	0.79253	3.8853	67.14	-0.2343	0.0655	0.2997	1430.537	0.153093	-418.289684	-418.279763	-418.278819	-418.325703	33.547	
C	 0.0665452304	 1.3984839122	-0.1744392532	-0.321191
N	-0.0673627902	 0.0033379187	 0.1992144979	-0.360076
C	-1.2787163335	-0.6421503727	 0.0360992587	 0.501226
O	-2.3153236654	-0.0583540357	-0.2361089823	-0.414154
N	-1.2089526126	-2.0094668518	 0.2075696872	-0.372123
C	-2.4258196452	-2.7925834123	 0.3123427068	-0.118784
C	-2.139231383	-4.2414481579	-0.0406921912	-0.089472
O	-1.1528855865	-4.709827482	 0.8754907509	-0.42687
H	 0.7916200618	 1.894811706	 0.477569768	 0.116988
H	 0.382391097	 1.5330382135	-1.2181970366	 0.115369
H	-0.909517406	 1.8682832255	-0.0519900877	 0.166683
H	 0.7646914423	-0.5628182936	 0.1483560063	 0.232996
H	-0.4213374651	-2.3968815908	 0.7046599443	 0.241146
H	-2.8531219317	-2.7483553977	 1.3252935728	 0.108427
H	-3.1615763774	-2.3666024368	-0.3723272627	 0.139313
H	-3.0669788514	-4.8278240445	 0.0369823989	 0.092916
H	-1.775821593	-4.3036240717	-1.0769300795	 0.096071
H	-0.8784441106	-5.5904938484	 0.6052937915	 0.291535
33.6183	74.9793	100.345	106.1663	157.9721	210.7049	266.8379	303.9803	320.8983	401.458	473.0968	507.9408	559.6851	732.4622	768.7789	865.1825	917.1616	979.6841	1075.6456	1098.8205	1110.2957	1151.0835	1167.9154	1187.7982	1211.7556	1247.5498	1266.9812	1302.6485	1389.8028	1440.2199	1456.6262	1486.4862	1497.7963	1499.3531	1512.6842	1516.569	1562.9147	1782.121	2985.0222	2994.6193	3008.3293	3027.0599	3079.9812	3122.7408	3156.1497	3617.4986	3625.2162	3837.4054
CNC(=O)NCCO	CNC(=O)NCCO	
InChI=1S/C4H10N2O2/c1-5-4(8)6-2-3-7/h7H,2-3H2,1H3,(H2,5,6,8)	InChI=1S/C4H10N2O2/c1-5-4(8)6-2-3-7/h7H,2-3H2,1H3,(H2,5,6,8)
