19
gdb 96147	2.55266	1.73347	1.30581	1.5766	70.	-0.2468	0.0702	0.317	1012.0398	0.161495	-460.141792	-460.134304	-460.13336	-460.173472	30.164	
O	 0.2384214208	 1.3356412313	-0.2707086791	-0.432246
C	 0.0280555844	-0.0509557684	-0.0376318013	 0.096559
C	 0.7658454512	-0.4503002422	 1.2618495085	-0.091447
O	 0.4792932244	-1.756900557	 1.7319115889	-0.250102
C	-0.7271619936	-1.8705734041	 2.4664973056	-0.094795
C	-1.9656581402	-1.5252071002	 1.6465626985	 0.100945
C	-1.8279662698	-1.8774847135	 0.1523448222	-0.281505
C	-1.4642516648	-0.3867810577	 0.0062775642	 0.074719
O	-2.005653922	-0.1044151777	 1.328771127	-0.314757
H	-0.2192635323	 1.8119770972	 0.4328954888	 0.287363
H	 0.4749171319	-0.5642333192	-0.89744845	 0.093622
H	 1.8436355737	-0.4097991178	 1.0824497728	 0.113974
H	 0.5200339122	 0.2948231279	 2.0332499131	 0.089986
H	-0.7792678214	-2.9146474213	 2.7953112463	 0.10904
H	-0.7012478345	-1.2256849414	 3.3597214788	 0.101719
H	-2.8745888465	-1.8399677232	 2.1711471553	 0.080506
H	-1.0691412725	-2.6122778805	-0.1161867374	 0.120174
H	-2.7809331279	-2.1221258858	-0.3181238088	 0.110305
H	-1.9839117832	 0.1830410835	-0.7706216734	 0.085941
109.4255	231.8101	299.5918	310.9497	342.6974	367.072	392.6021	419.1869	500.3128	613.0908	628.7118	786.4834	810.1426	875.737	896.0111	928.3668	947.9013	977.0591	1019.2569	1029.4019	1052.0568	1075.4714	1091.6083	1113.372	1155.1002	1168.3156	1232.8552	1255.4337	1261.6742	1269.9328	1319.8045	1333.0268	1337.3807	1356.1871	1367.7369	1397.326	1415.5894	1427.5374	1472.0999	1482.7989	1489.6386	2981.4107	2996.1244	3047.2462	3048.648	3061.3107	3071.9567	3090.6474	3095.6891	3150.9819	3783.4305
OC1COCC2CC1O2	O[C@H]1COC[C@@H]2C[C@H]1O2	
InChI=1S/C6H10O3/c7-5-3-8-2-4-1-6(5)9-4/h4-7H,1-3H2	InChI=1S/C6H10O3/c7-5-3-8-2-4-1-6(5)9-4/h4-7H,1-3H2/t4-,5-,6+/m0/s1
