17
gdb 124966	3.15592	1.19533	0.87631	2.555	80.15	-0.2255	0.0278	0.2533	1284.5457	0.135829	-380.86555	-380.856507	-380.855563	-380.901289	32.299	
C	-0.9578156857	 1.4348409876	 0.3665166538	-0.513825
C	-0.2569939645	 0.1261322995	 0.1651716324	 0.106592
C	 0.4079239481	-0.318054708	-0.9672476143	 0.314145
C	 0.6285951032	 0.3456069787	-2.3007448506	-0.481806
C	 1.3929700012	-0.4731080443	-3.2368794489	 0.282449
C	 2.0240954908	-1.1689948311	-3.9864655074	-0.422099
N	 0.8762063166	-1.5551663432	-0.67373872	-0.243494
N	 0.5705360372	-1.9634755161	 0.5699205919	-0.240712
C	-0.1168111637	-0.9431522019	 1.0781260792	-0.07514
H	-0.2803638015	 2.2902089943	 0.253984882	 0.124441
H	-1.7791175825	 1.5799593079	-0.345993638	 0.124458
H	-1.3864882601	 1.4910447959	 1.3708022717	 0.129666
H	-0.3410491708	 0.6002801137	-2.7505915788	 0.1551
H	 1.1440802657	 1.3048783872	-2.1541280283	 0.155094
H	 2.5803087474	-1.764836096	-4.6675782329	 0.206175
H	 1.4057894362	-2.1517370807	-1.2889133111	 0.273323
H	-0.4951129378	-1.0012690736	 2.0893746293	 0.105635
13.0482	64.4374	117.7993	212.0863	230.6852	270.4907	323.5334	372.2097	501.7446	554.2205	623.4577	635.3213	661.9096	664.9132	703.8231	762.9225	882.9629	947.8072	958.5506	965.3171	1001.9452	1063.795	1139.3757	1166.3988	1217.2254	1245.8817	1287.292	1333.2693	1378.0734	1421.3608	1439.5217	1465.3621	1487.4329	1495.9058	1535.1841	1616.3649	2240.3711	3007.923	3019.2523	3028.3994	3064.056	3108.3838	3233.1944	3503.3065	3655.4756
CC1=C(CC#C)NN=C1	Cc1c(CC#C)[nH]nc1	
InChI=1S/C7H8N2/c1-3-4-7-6(2)5-8-9-7/h1,5H,4H2,2H3,(H,8,9)	InChI=1S/C7H8N2/c1-3-4-7-6(2)5-8-9-7/h1,5H,4H2,2H3,(H,8,9)
