15
gdb 26879	3.00359	1.44269	0.98054	3.4457	75.16	-0.2045	-0.0619	0.1427	1128.6436	0.11332	-454.014286	-454.006227	-454.005283	-454.047127	29.977	
C	-0.0048460708	 1.5405279119	 0.058772265	-0.501502
C	 0.0061834462	 0.0483094959	-0.0455385766	 0.280568
C	-0.0186863959	-0.6608400039	-1.2152680622	 0.338175
O	-0.0568969588	-0.0173264207	-2.4145507695	-0.437184
N	-0.0069848901	-2.0156088647	-1.2461541032	-0.297292
C	 0.0291729036	-2.6904984963	-0.1339025393	-0.119846
C	 0.0594031292	-2.0847126725	 1.1952268162	 0.380552
O	 0.0934592977	-2.6715167343	 2.2650798707	-0.400051
N	 0.0441711419	-0.6904685118	 1.1118844713	-0.399451
H	 0.8907804211	 1.9077406073	 0.5742104901	 0.143026
H	-0.0360234783	 1.9829284026	-0.9365476303	 0.169351
H	-0.877796558	 1.8912974847	 0.6223169257	 0.143012
H	-0.0685070769	-0.7118592376	-3.0851416258	 0.299441
H	 0.0379724131	-3.7758314918	-0.1786688976	 0.138208
H	 0.0636964059	-0.2126577589	 2.0037439655	 0.262992
75.7754	120.614	179.1648	276.6015	356.3534	357.6513	395.9507	453.0972	491.7485	501.6047	590.3993	592.6628	712.1033	722.6279	779.1279	817.9456	927.2025	929.8849	1032.0884	1058.6637	1109.1933	1203.301	1249.6224	1321.5	1353.1856	1406.6334	1416.8506	1460.2523	1485.1538	1494.009	1575.5927	1690.5036	1779.6632	3026.3828	3075.9779	3159.3352	3177.6146	3590.517	3795.2991
CC1=C(O)N=CC(=O)N1	Cc1c(O)ncc(=O)[nH]1	
InChI=1S/C5H6N2O2/c1-3-5(9)6-2-4(8)7-3/h2H,1H3,(H,6,9)(H,7,8)	InChI=1S/C5H6N2O2/c1-3-5(9)6-2-4(8)7-3/h2H,1H3,(H,6,9)(H,7,8)
