21
gdb 121690	6.81108	0.52804	0.49601	1.7324	84.96	-0.2567	-0.014	0.2428	2224.5163	0.18161	-420.459454	-420.448789	-420.447845	-420.496838	36.926	
C	-0.2252384382	 1.5330452968	-0.2325904982	-0.380968
C	-0.1682942897	 0.0294905658	 0.0502860753	-0.172744
C	 0.6917164244	-0.3123562537	 1.2710183813	-0.149135
C	 0.7493335285	-1.8131518931	 1.5544435842	-0.343897
C	 1.6031334714	-2.157869862	 2.7673451701	 0.431165
O	 2.1809770579	-1.3348586046	 3.4454106908	-0.347865
N	 1.6693703971	-3.5158868511	 3.0415007409	-0.311265
C	 2.3861185451	-4.0598879461	 4.0942995404	 0.100157
N	 2.3965703022	-5.3169897825	 4.2786289789	-0.466616
H	 0.7752170275	 1.937309167	-0.4216737635	 0.117249
H	-0.8445224151	 1.7515693517	-1.1079552046	 0.112103
H	-0.6455538916	 2.0792738328	 0.6189149825	 0.117253
H	-1.1864411065	-0.3540739727	 0.2013371386	 0.093719
H	 0.223745822	-0.4950098072	-0.8316229629	 0.093717
H	 1.7110696674	 0.0639620538	 1.1293080326	 0.113541
H	 0.3072720336	 0.2042394685	 2.1576409561	 0.11358
H	-0.2599155449	-2.2163992857	 1.7177076135	 0.124647
H	 1.1478195803	-2.3571586663	 0.6866310607	 0.124595
H	 1.1752543568	-4.1743690152	 2.4555797856	 0.259629
H	 2.8931521345	-3.2933113424	 4.6831875594	 0.139022
H	 2.9671750973	-5.5489900636	 5.0894555683	 0.232112
28.2137	65.8225	88.263	119.1097	135.4466	190.4654	203.3468	242.1569	293.6092	323.5284	450.9003	519.7943	562.1784	655.4823	727.3372	734.5887	808.1111	831.3022	908.0408	938.5242	972.0283	1025.8915	1065.5763	1081.5448	1089.9062	1123.2937	1131.0826	1170.6354	1235.9419	1285.1238	1305.8017	1315.6114	1329.0777	1368.5238	1393.3273	1402.4403	1414.248	1460.5021	1484.9591	1491.555	1496.2407	1498.9289	1512.3602	1727.6317	1801.9357	3009.4237	3012.8936	3031.2939	3036.9574	3041.9201	3045.9527	3085.1079	3099.6426	3104.0058	3125.4075	3507.0802	3607.6066
CCCCC(=O)NC=N	CCCCC(=O)NC=N	
InChI=1S/C6H12N2O/c1-2-3-4-6(9)8-5-7/h5H,2-4H2,1H3,(H2,7,8,9)	InChI=1S/C6H12N2O/c1-2-3-4-6(9)8-5-7/h5H,2-4H2,1H3,(H2,7,8,9)
