15
gdb 20889	7.06718	1.12029	1.0492	5.1861	62.71	-0.3158	-0.0427	0.2731	1119.9331	0.119373	-392.118517	-392.110951	-392.110007	-392.151928	25.672	
C	 0.0008159286	 1.5469630611	 0.0104091853	-0.385132
C	 0.0027000267	 0.0165683438	 0.0023142184	-0.184181
C	-1.4229136178	-0.544266132	 0.0125255287	-0.13866
N	-1.4386410591	-2.0040974164	 0.0048682996	 0.165212
N	-1.4228994721	-2.7403383101	-1.0947256125	-0.122086
N	-1.3863708414	-3.9705327064	-0.6791843072	-0.084443
N	-1.3769619945	-3.9777209997	 0.6671100469	-0.084466
N	-1.4072550239	-2.7520314369	 1.0962224795	-0.122036
H	 1.0232617317	 1.9332848953	 0.0027147666	 0.132372
H	-0.5145838152	 1.9503440824	-0.8677043771	 0.126707
H	-0.4977541764	 1.9410426428	 0.902350373	 0.12671
H	 0.5221144667	-0.3602241783	-0.8853251363	 0.130462
H	 0.5384027607	-0.3695411881	 0.8761650786	 0.130388
H	-1.9659166586	-0.2340481588	 0.90776743	 0.154596
H	-1.9824203655	-0.2243165587	-0.8690381736	 0.154557
33.3424	86.2498	111.7097	226.1089	296.8903	355.2271	380.4447	722.3946	752.5419	766.3937	777.3874	878.1812	905.9214	983.5661	1043.5403	1056.3605	1108.3365	1125.3908	1146.513	1209.7442	1253.4221	1284.6331	1328.3857	1333.7211	1392.4973	1404.3981	1417.1619	1421.3147	1475.5348	1492.8422	1498.8716	1509.424	3036.9622	3047.7622	3082.2793	3084.5061	3107.1298	3118.7231	3142.8273
CCCN1N=NN=N1	CCCn1nnnn1	
InChI=1S/C3H7N5/c1-2-3-8-6-4-5-7-8/h2-3H2,1H3	InChI=1S/C3H7N5/c1-2-3-8-6-4-5-7-8/h2-3H2,1H3
