17
gdb 65905	2.94979	1.30047	1.10556	2.5453	75.6	-0.2525	-0.0673	0.1852	1136.4536	0.133043	-421.790044	-421.780884	-421.77994	-421.824283	33.872	
O	 0.0076253812	 1.5741466335	-0.28665228	-0.477152
C	-0.0679840595	 0.2011063545	-0.0008908665	 0.305118
C	 0.1832739589	-0.252677454	 1.4858164227	-0.276331
C	-1.1046381085	-1.1121904266	 1.4001913841	-0.209437
C	-1.5155634976	-0.3296870748	 0.1244677472	-0.257061
C	 0.788504282	-0.6361887677	-0.9491342311	 0.202988
O	 0.5283940671	-1.7783857421	-1.2563195471	-0.293857
C	 1.9997848215	 0.0216458319	-1.4304558689	 0.206689
C	 3.0054035882	 0.5702578672	-1.8036620321	-0.379131
H	 0.9336489616	 1.8150476747	-0.4168689246	 0.278993
H	 1.1267028266	-0.7536287995	 1.7172797691	 0.104752
H	 0.0668878768	 0.619690061	 2.1337952657	 0.114042
H	-0.8852595889	-2.1576497438	 1.1778758788	 0.125057
H	-1.7830995688	-1.0627886086	 2.2533792422	 0.102051
H	-2.1861575272	 0.5056437351	 0.33631889	 0.114614
H	-1.8922972554	-0.9063620183	-0.7210253692	 0.118014
H	 3.898225802	 1.0314040475	-2.1521772301	 0.220652
38.1353	122.8289	149.9114	194.8624	262.4878	269.1756	304.2059	375.5063	376.8567	463.9393	551.5474	655.8296	659.3382	687.5509	703.6927	742.3265	787.4766	811.7883	890.4064	941.7703	976.2545	1001.4047	1045.5124	1067.1734	1165.5474	1201.5306	1206.3238	1246.9557	1267.0792	1278.5468	1299.6241	1384.3897	1459.0589	1475.9982	1496.7705	1765.5924	2201.3978	3059.0805	3077.5818	3081.5106	3114.7646	3132.4692	3146.522	3488.9475	3769.3258
OC1(CCC1)C(=O)C#C	OC1(CCC1)C(=O)C#C	
InChI=1S/C7H8O2/c1-2-6(8)7(9)4-3-5-7/h1,9H,3-5H2	InChI=1S/C7H8O2/c1-2-6(8)7(9)4-3-5-7/h1,9H,3-5H2
