13
gdb 21718	3.70256	1.23098	0.92835	3.3491	62.13	-0.2707	-0.1174	0.1533	1179.7601	0.089616	-431.87254	-431.862755	-431.861811	-431.9085	31.786	
N	 0.5525805609	 1.4899866896	-0.8091234512	-0.714598
H	 0.9721141756	 0.8826353426	-1.5079126745	 0.242152
H	 0.8924261375	 2.4266183425	-1.0101616899	 0.242154
H	-0.4456218792	 1.5016759596	-1.0052604164	 0.257
C	-0.7895770113	 0.4968866612	 2.0541583665	-0.390397
C	-2.0543604262	 0.5688527901	 1.6280245281	 0.338518
C	-3.2512531976	 0.2454883056	 2.4379218433	 0.31781
O	-3.3840648624	-0.1242626334	 3.5624492583	-0.266302
N	-4.3758488368	 0.4908468974	 1.4969576547	-0.134251
N	-3.9677379342	 0.860734082	 0.4162227621	 0.060537
O	-2.4561422178	 0.9441415545	 0.4004937699	-0.294685
H	-0.614568474	 0.1766912687	 3.0744769947	 0.152441
H	 0.0380588155	 0.7514297797	 1.3981495643	 0.189621
39.6751	60.3219	98.7585	121.8436	156.1849	188.622	227.9641	285.0271	339.7161	415.5905	525.8469	536.2	657.8705	744.2408	749.7551	818.7682	889.0514	973.1615	995.352	1049.6042	1110.3292	1290.4449	1430.4149	1662.8145	1675.4783	1687.174	1692.7601	1891.3341	3135.8264	3254.9495	3464.4901	3582.1068	3585.2706	39.675	60.3219	98.7578	121.8436	156.1847	188.6215	227.9639	285.0269	339.7161	415.5904	525.8468	536.2	657.8705	744.2407	749.755	818.7683	889.0514	973.1616	995.3525	1049.6043	1110.3292	1290.4448	1430.4155	1662.8145	1675.4784	1687.1742	1692.76	1891.3346	3135.8264	3254.9495	3464.49	3582.1067	3585.2705
[NH3+]CC1=C([O-])N=NO1	N.C=C1C(=O)N=NO1	
InChI=1S/C3H5N3O2/c4-1-2-3(7)5-6-8-2/h7H,1,4H2	InChI=1S/C3H2N2O2.H3N/c1-2-3(6)4-5-7-2;/h1H2;1H3
