16
gdb 13095	4.25352	1.25813	1.05806	2.8085	62.6	-0.2621	-0.0016	0.2605	1090.1926	0.128742	-420.877964	-420.869712	-420.868768	-420.912018	28.28	
C	-0.214264384	 1.4721498602	 0.177267349	-0.396452
C	 0.1251595396	 0.0008450598	 0.0561297412	 0.120117
O	 1.2393665361	-0.2522102203	-0.8376911321	-0.287249
C	 2.0369185787	-0.8259765974	 0.2148075386	-0.095306
C	 0.8923215976	-0.6692159172	 1.2268406998	 0.05165
O	 1.202223089	 0.1786879917	 2.3227824638	-0.182041
C	 0.8082591354	-0.1919907783	 3.5599211683	 0.169016
O	 1.0113072892	 0.4749619893	 4.5269618047	-0.267638
H	 0.637659588	 2.046169347	 0.5479010002	 0.138926
H	-0.5005727065	 1.8590236295	-0.8050551592	 0.131941
H	-1.0556565681	 1.6188433297	 0.8626209226	 0.121843
H	-0.7550213107	-0.5731032687	-0.2631223845	 0.082744
H	 2.3466283844	-1.8535955982	-0.0077749261	 0.110137
H	 2.9186517857	-0.2202895693	 0.45478285	 0.122416
H	 0.4521808684	-1.6033500429	 1.5885365174	 0.097866
H	 0.2900923074	-1.1709140548	 3.5670941662	 0.082031
44.6304	56.7268	146.0116	201.9083	214.7501	286.1194	386.6636	403.478	482.0141	649.5965	762.976	874.0051	884.7648	915.8856	1012.8108	1022.4965	1042.0854	1065.2701	1097.3601	1145.9235	1148.1181	1174.4555	1197.7079	1251.3229	1290.8588	1351.7659	1377.571	1392.2794	1407.7327	1444.5798	1484.4178	1488.3579	1517.2143	1872.4319	2947.387	3012.1751	3025.1522	3044.3163	3060.5094	3077.0956	3113.7489	3136.5379
CC1OCC1OC=O	C[C@H]1OC[C@H]1OC=O	
InChI=1S/C5H8O3/c1-4-5(2-7-4)8-3-6/h3-5H,2H2,1H3	InChI=1S/C5H8O3/c1-4-5(2-7-4)8-3-6/h3-5H,2H2,1H3/t4-,5-/m1/s1
