17
gdb 54719	4.45079	1.23485	1.13792	3.2345	73.28	-0.2282	0.0468	0.275	1091.3003	0.137121	-417.949191	-417.941836	-417.940892	-417.981265	28.977	
N	-0.1145578292	 1.3292967737	-0.2244962524	-0.545336
C	-0.0480191472	-0.0460787299	-0.0879963752	 0.398613
O	 0.8580351319	-0.719838385	-0.5382254679	-0.383359
N	-1.1129045561	-0.5811193278	 0.646405374	-0.158566
C	-2.5452953609	-0.4230467644	 0.2194488936	-0.024405
C	-2.4831805145	-1.5587815629	-0.8615322951	-0.050963
C	-3.6998820294	-2.285712098	-0.2542360493	-0.281299
C	-2.963693128	-1.7199075605	 0.9775303283	-0.056782
C	-1.5588959723	-1.970339564	 0.3407699129	 0.007713
H	 0.7548183345	 1.7507142723	-0.5140623498	 0.259065
H	-0.6217072081	 1.8405784069	 0.4812460742	 0.253825
H	-3.0583553174	 0.537562083	 0.1783700594	 0.088283
H	-2.1807008789	-1.4500374408	-1.9026323877	 0.096266
H	-4.685181795	-1.8646761049	-0.4732192818	 0.100573
H	-3.7181739812	-3.3744235986	-0.3539550384	 0.104393
H	-3.2062984799	-1.7879425224	 2.0375481045	 0.084829
H	-0.9050410883	-2.8341008366	 0.4331657807	 0.107149
77.4513	128.9008	176.0454	379.3963	405.649	449.794	505.7385	543.6552	636.4015	683.9279	739.7813	803.5859	818.4431	836.2638	840.9782	881.5342	917.2015	958.3483	971.0277	1024.2266	1039.3922	1056.5644	1072.9717	1117.5573	1129.2202	1153.6461	1157.8637	1174.456	1178.729	1194.4626	1246.7466	1292.2241	1322.1159	1383.7562	1513.6369	1617.451	1794.5987	3051.9472	3108.757	3115.8174	3124.5249	3130.7754	3157.8933	3578.8923	3696.9675
NC(=O)N1C2C3CC2C13	NC(=O)N1[C@H]2[C@@H]3C[C@H]2[C@H]13	
InChI=1S/C6H8N2O/c7-6(9)8-4-2-1-3(4)5(2)8/h2-5H,1H2,(H2,7,9)	InChI=1S/C6H8N2O/c7-6(9)8-4-2-1-3(4)5(2)8/h2-5H,1H2,(H2,7,9)/t2-,3+,4-,5+
