19
gdb 80650	2.64197	1.70077	1.2947	2.0914	76.11	-0.2388	0.0018	0.2405	1034.3742	0.160473	-423.015176	-423.007371	-423.006427	-423.047111	31.248	
C	-0.0719914656	 1.5185595902	 0.0617147568	-0.483991
C	-0.0505130981	 0.0224541726	-0.0191139512	 0.269979
C	-0.0108640843	-0.6947151521	-1.1466744342	-0.16182
C	 0.0301046346	-2.1976347373	-0.9961499825	 0.044349
C	-1.1124963095	-2.6437648077	-0.0481429356	-0.255066
C	-0.065707126	-2.2605009616	 1.0141669347	 0.047785
O	 0.999126976	-2.5416262775	 0.0551558252	-0.309867
C	 0.0061383782	-0.7527867541	 1.2974076732	 0.06918
O	 1.2137330555	-0.4616064923	 1.9945574599	-0.44167
H	 0.7649337739	 1.8778088562	 0.6701500362	 0.143795
H	-0.0115061911	 1.9780836848	-0.9284126491	 0.118685
H	-0.9892195324	 1.8740228138	 0.5492798975	 0.123081
H	-0.0273250662	-0.2404448851	-2.1328742247	 0.089038
H	 0.218949016	-2.7442950897	-1.9214050209	 0.078811
H	-2.0547824196	-2.0956002719	-0.091543097	 0.103746
H	-1.2831762205	-3.7219132618	-0.0692926268	 0.111122
H	 0.0310138119	-2.8488925143	 1.9300685085	 0.083471
H	-0.8062065532	-0.4434166876	 1.9669678267	 0.084216
H	 1.9119841603	-0.8536412345	 1.4518066831	 0.285157
122.189	182.4925	206.9549	255.0923	342.2262	396.2066	413.4774	473.4221	501.8934	578.6329	628.4914	663.4874	803.4003	830.3951	859.6765	866.4666	897.4503	927.8825	953.4772	976.6169	1031.8919	1049.6545	1064.1227	1077.3419	1085.9454	1119.3743	1193.8025	1207.7517	1243.2342	1260.0019	1300.8292	1308.6425	1318.9261	1350.724	1372.1511	1406.5456	1426.2031	1474.4275	1486.1752	1492.7765	1713.502	3020.7864	3037.2578	3071.6192	3078.5651	3086.4612	3102.1311	3116.3196	3138.151	3171.6183	3752.4519
CC1=CC2CC(O2)C1O	CC1=C[C@@H]2C[C@@H](O2)[C@H]1O	
InChI=1S/C7H10O2/c1-4-2-5-3-6(9-5)7(4)8/h2,5-8H,3H2,1H3	InChI=1S/C7H10O2/c1-4-2-5-3-6(9-5)7(4)8/h2,5-8H,3H2,1H3/t5-,6-,7+/m1/s1
