15
gdb 125275	5.30175	1.25016	1.01804	4.0995	74.77	-0.2076	0.004	0.2116	1112.5056	0.114673	-416.81729	-416.810076	-416.809132	-416.84881	27.646	
C	-0.0180472666	 1.484936758	 0.0729624241	-0.500496
C	-0.002818203	-0.0006955961	-0.0559590006	 0.346977
C	-0.0448593864	-0.8025633266	-1.1708394435	-0.441744
C	-0.0026571987	-2.1621613123	-0.7106377386	 0.19131
C	 0.0631118636	-2.0983178344	 0.6626187193	 0.482666
N	 0.0649583338	-0.813699479	 1.0926107226	-0.467415
O	 0.1095448933	-3.2819314926	 1.2617363171	-0.254349
N	 0.0722954783	-4.2502301429	 0.2015636469	-0.157622
C	 0.0074472697	-3.5667277856	-0.9214175802	-0.116614
H	 0.887222526	 1.8670810358	 0.5613853096	 0.131785
H	-0.0764482074	 1.9394072521	-0.9183626812	 0.143922
H	-0.8785515084	 1.8409011704	 0.6533846183	 0.131666
H	-0.0994047541	-0.4423490588	-2.1861892247	 0.106429
H	 0.106190656	-0.4886626429	 2.0426656668	 0.27234
H	-0.0290085664	-4.1327730353	-1.8423572661	 0.131145
133.6489	148.8909	275.6717	276.345	326.9772	388.501	493.3077	551.3579	602.9166	627.3453	742.509	761.3777	786.1464	808.9738	821.9614	901.8214	950.5907	984.4936	1014.1691	1063.5599	1161.4912	1196.3523	1215.3123	1257.8478	1357.671	1416.7671	1445.6675	1477.927	1478.1434	1500.4403	1557.143	1600.1655	1629.304	3017.3124	3061.9256	3127.1861	3235.5724	3255.3138	3683.6678
CC1=CC2=C(N1)ON=C2	Cc1cc2c([nH]1)onc2	
InChI=1S/C6H6N2O/c1-4-2-5-3-7-9-6(5)8-4/h2-3,8H,1H3	InChI=1S/C6H6N2O/c1-4-2-5-3-7-9-6(5)8-4/h2-3,8H,1H3
