21
gdb 90880	3.23754	1.5557	1.41599	1.653	81.11	-0.2402	0.0898	0.3299	1021.2743	0.185533	-387.062755	-387.05558	-387.054636	-387.093993	30.017	
C	-0.1674102652	 1.5485062413	-0.1843045982	-0.416072
C	 0.0484104873	 0.0621425539	 0.0256800708	 0.137733
O	 1.0045547537	-0.5506360641	-0.885449318	-0.325825
C	 1.6002775168	-1.318003526	 0.1900321951	 0.14131
C	 3.0424827378	-0.9517790232	 0.5777418155	-0.050116
C	 2.9268138692	-1.0209989608	 2.1359802881	-0.223759
C	 1.9823361842	 0.2112811864	 1.9176652534	-0.048186
C	 2.952723555	 0.5845108251	 0.7531184619	-0.23065
C	 0.7974918523	-0.5159196538	 1.2486781732	-0.077783
H	 0.724968296	 2.1412780356	 0.0233766226	 0.123646
H	-0.4730601445	 1.7363611435	-1.218733363	 0.127931
H	-0.9719782817	 1.8988729688	 0.4716674401	 0.115468
H	-0.9205637219	-0.4487104641	-0.0868261837	 0.06975
H	 1.4221864989	-2.3915573295	 0.0708553022	 0.068343
H	 3.8563304094	-1.4280202928	 0.031297567	 0.06242
H	 2.4987928964	-1.9217390318	 2.5883070333	 0.089807
H	 3.8623750213	-0.7584903794	 2.6343170745	 0.099413
H	 1.7604080833	 0.9122675053	 2.7226488021	 0.060828
H	 3.885097847	 1.0053485092	 1.1359990493	 0.092897
H	 2.5927362958	 1.1653750689	-0.0933080013	 0.111275
H	 0.1808368788	-1.0511448224	 1.972788295	 0.071572
166.9212	183.9202	193.9611	329.319	395.7359	455.6033	499.9521	577.7726	608.4591	755.9025	808.8547	822.7139	847.4848	854.1883	875.9292	895.4836	916.346	939.2831	968.2091	1004.3544	1020.3903	1024.7871	1051.4426	1062.9609	1091.8766	1101.2147	1108.0836	1130.7202	1158.4543	1201.6217	1222.1454	1231.5946	1240.432	1257.75	1289.8672	1298.2853	1329.9499	1339.098	1349.152	1398.729	1412.759	1481.0537	1490.7965	1495.327	1524.1733	2972.3086	3040.2993	3046.689	3053.3062	3080.7541	3090.9005	3102.6245	3111.2463	3115.3252	3121.865	3132.8044	3158.5199
CC1OC2C3CC(C3)C12	C[C@H]1O[C@H]2[C@@H]3C[C@@H](C3)[C@@H]12	
InChI=1S/C8H12O/c1-4-7-5-2-6(3-5)8(7)9-4/h4-8H,2-3H2,1H3	InChI=1S/C8H12O/c1-4-7-5-2-6(3-5)8(7)9-4/h4-8H,2-3H2,1H3/t4-,5-,6+,7-,8+/m1/s1
