18
gdb 19702	5.59094	1.77555	1.61638	0.2207	75.81	-0.2166	0.0093	0.226	849.0293	0.155537	-310.613214	-310.606902	-310.605958	-310.643147	26.393	
C	-0.1705557243	 1.5789301134	-0.0019041949	-0.432202
C	 0.0110302183	 0.0677942126	 0.0213339522	 0.026734
C	 1.2259859925	-0.6019628862	-0.6748556231	-0.049491
C	 2.1763248518	-0.1830587286	 0.5125116735	-0.062562
C	 3.1553797449	-1.3280221616	 0.7222558764	-0.109848
C	 2.413896909	-2.4223903915	 0.5399402448	-0.115316
C	 1.0306089043	-1.875037762	 0.2307866388	-0.052967
C	 0.8071681431	-0.623902382	 1.160205882	-0.04944
H	 0.7554426856	 2.1193821264	 0.2139436326	 0.115152
H	-0.5263873596	 1.9117897227	-0.9834245183	 0.114527
H	-0.915834974	 1.8914732146	 0.7381580437	 0.114541
H	-0.9423693622	-0.4272925885	-0.2021757893	 0.058205
H	 1.4811127372	-0.5993625699	-1.7391208503	 0.062335
H	 2.5261763674	 0.8438909149	 0.6046459349	 0.061473
H	 4.2052590559	-1.2361149861	 0.9629592019	 0.098771
H	 2.6930806284	-3.4653976955	 0.591175857	 0.100122
H	 0.1973965035	-2.5509250503	 0.0325437362	 0.057642
H	 0.5753134582	-0.6467771723	 2.2295433519	 0.062325
199.0274	244.3712	245.9177	414.0914	504.0934	511.4301	671.2878	675.1766	772.6349	785.3437	799.5789	809.1664	879.3361	909.514	911.6064	926.3575	943.0219	989.6679	1011.0271	1049.3826	1055.1308	1088.3101	1120.5065	1129.4353	1139.5482	1151.8866	1173.1317	1197.1293	1238.3917	1257.9858	1268.8688	1321.2325	1328.2986	1410.2068	1421.8754	1497.6759	1501.7154	1635.0496	3021.2759	3031.9747	3063.1053	3068.0149	3087.6615	3107.163	3110.3654	3131.3061	3218.0904	3245.5915
CC1C2C3C=CC2C13	C[C@H]1[C@H]2[C@@H]3C=C[C@H]2[C@H]13	
InChI=1S/C8H10/c1-4-7-5-2-3-6(7)8(4)5/h2-8H,1H3	InChI=1S/C8H10/c1-4-7-5-2-3-6(7)8(4)5/h2-8H,1H3/t4-,5-,6+,7-,8+
