21
gdb 116304	2.33349	1.29177	0.92982	3.6301	74.98	-0.2428	0.071	0.3138	1312.1803	0.182305	-461.350769	-461.341188	-461.340244	-461.385922	34.719	
C	 0.0542592953	 1.3205797952	-0.3497961925	-0.237175
O	-0.0128960015	-0.0401473563	 0.0104359068	-0.246385
C	-1.3329457607	-0.5449330814	 0.1344781326	 0.077958
C	-1.9311331992	-0.9402476584	-1.2286372652	-0.247525
C	-1.3235224724	-2.3285069611	-1.4310530638	-0.067532
O	-1.331828744	-2.9253744661	-0.1364593462	-0.294363
C	-1.2927347889	-1.8980866484	 0.872310775	 0.091496
C	-0.0769593762	-2.1453978145	 1.7611392976	-0.06401
O	-0.1429025153	-3.4408610629	 2.3296947714	-0.429911
H	 1.1107532758	 1.5986184804	-0.3599058107	 0.132506
H	-0.3681849733	 1.5156080607	-1.3465286842	 0.107277
H	-0.4747122408	 1.9562023801	 0.3772883066	 0.108247
H	-1.9551242728	 0.1821203024	 0.6749111644	 0.068446
H	-3.0215008383	-1.0064720947	-1.1528472846	 0.109805
H	-1.6826015749	-0.2322560354	-2.0223416567	 0.106751
H	-1.8984686859	-2.9693416869	-2.1057017859	 0.106979
H	-0.2964301655	-2.2477568076	-1.8153536043	 0.101993
H	-2.1981462772	-2.0116598494	 1.4836456181	 0.08316
H	 0.8392705365	-2.0027802146	 1.1749663116	 0.102382
H	-0.0612518146	-1.4298218296	 2.5897781043	 0.101829
H	-0.2827399761	-4.0418274114	 1.5879817256	 0.288072
49.1701	93.9642	123.5234	157.7416	173.2394	222.768	279.1126	350.4224	393.6244	456.612	479.8392	498.8889	648.12	779.1272	816.7143	868.0029	888.8637	926.1193	991.6226	1006.353	1011.3961	1071.7482	1101.9811	1109.1098	1119.0918	1152.829	1183.2113	1197.7743	1221.0223	1228.6779	1235.2316	1294.4741	1308.1747	1330.9643	1360.6918	1384.2581	1393.2877	1402.225	1434.2043	1472.3936	1480.493	1493.2431	1497.7687	1510.0476	1520.7326	2977.8576	3000.082	3001.4557	3017.8542	3026.6261	3030.0698	3057.2704	3083.784	3085.5418	3116.35	3117.5248	3789.5412
COC1CCOC1CO	CO[C@H]1CCO[C@H]1CO	
InChI=1S/C6H12O3/c1-8-5-2-3-9-6(5)4-7/h5-7H,2-4H2,1H3	InChI=1S/C6H12O3/c1-8-5-2-3-9-6(5)4-7/h5-7H,2-4H2,1H3/t5-,6-/m0/s1
