17
gdb 72052	2.47455	1.65022	1.2768	3.2497	78.94	-0.2334	0.0103	0.2437	1033.4409	0.13742	-380.82427	-380.816624	-380.81568	-380.856313	29.66	
C	-0.0867436768	 1.4199469262	-0.0506115924	-0.509404
C	 0.0059238991	-0.0695519595	-0.0064427031	 0.281629
N	 0.9966294249	-0.8454082263	-0.7860419203	-0.348716
C	 0.1581997563	-2.0529503152	-0.479528602	-0.102934
C	 0.4239634403	-2.2463269044	 1.0313911595	-0.21299
C	-0.3211184324	-0.9247006035	 1.2095599493	-0.15321
C	-1.088802829	-1.1314636631	-0.1086527843	 0.229096
C	-2.4625078981	-1.1023103395	-0.4225030574	 0.106683
N	-3.586942097	-1.0761215548	-0.7061246196	-0.370232
H	 0.8344146591	 1.8685167216	 0.3357911399	 0.142851
H	-0.2396426919	 1.7786081678	-1.0738468186	 0.132794
H	-0.9238916819	 1.7739139497	 0.5578113331	 0.140469
H	 0.8494614142	-0.6084572041	-1.7676644915	 0.221464
H	 0.1729319896	-2.8729127392	-1.1926669229	 0.09891
H	-0.1433131928	-3.0821360297	 1.4463262455	 0.117474
H	 1.4745129023	-2.2970055903	 1.3285072809	 0.113583
H	-0.7224683156	-0.4873804256	 2.1147759837	 0.112534
111.7719	147.5458	201.5725	255.0991	297.2936	427.1363	479.8781	513.3873	553.4406	602.101	620.5622	727.6965	771.4799	845.6565	870.2707	913.9902	939.015	969.322	994.3665	1012.6433	1037.8028	1067.332	1102.407	1139.2352	1160.3957	1186.4704	1224.8482	1263.1344	1284.5804	1307.7578	1355.5789	1412.6122	1460.5738	1480.5254	1488.4057	1500.6896	2326.0636	3036.2425	3064.7949	3101.4303	3116.8743	3128.7377	3160.9406	3206.5044	3452.2579
CC12NC3CC1C23C#N	C[C@@]12N[C@H]3C[C@@H]1[C@@]23C#N	
InChI=1S/C7H8N2/c1-6-4-2-5(9-6)7(4,6)3-8/h4-5,9H,2H2,1H3	InChI=1S/C7H8N2/c1-6-4-2-5(9-6)7(4,6)3-8/h4-5,9H,2H2,1H3/t4-,5-,6+,7+/m0/s1
