16
gdb 54340	1.91822	1.72531	1.24005	2.6749	69.66	-0.2627	-0.0515	0.2112	1074.509	0.121945	-437.891589	-437.882424	-437.88148	-437.926505	31.791	
C	-0.0119223226	 1.5178198381	-0.2419512299	-0.494959
C	 0.1420140164	 0.0412542853	 0.022238938	 0.352681
O	 1.1953146444	-0.517142596	 0.1911623054	-0.285287
C	-1.1925401076	-0.7533562731	 0.1402532743	 0.196177
C	-1.0806621038	-2.1427529149	 0.8079059485	-0.337104
C	-1.8980609393	-1.5053623878	 1.9479491743	-0.072169
O	-1.9472816408	-0.2244840607	 1.2571169533	-0.311494
C	-1.9431428119	-0.6952649335	-1.1175894523	 0.244437
N	-2.5084075754	-0.6446762569	-2.1249626149	-0.329017
H	 0.9559717523	 2.0119854913	-0.1582351377	 0.14976
H	-0.4213128086	 1.6718350892	-1.2466101923	 0.170472
H	-0.7270226149	 1.9466748543	 0.4664151148	 0.169068
H	-1.5676290132	-2.9548634357	 0.2708740658	 0.139008
H	-0.0489202935	-2.4029670496	 1.0394100022	 0.155387
H	-2.903694118	-1.9106929769	 2.0941194911	 0.127109
H	-1.3930589333	-1.4158750532	 2.9141893396	 0.125931
43.4568	83.149	127.5597	134.2347	188.4741	216.019	290.305	375.5878	468.4281	524.8078	572.2339	594.1403	619.2349	786.6506	847.7013	884.4042	952.5771	958.6349	1000.4089	1021.7489	1060.903	1113.0164	1155.9758	1188.6463	1215.2547	1236.8453	1262.5567	1345.5761	1381.4857	1461.484	1470.0195	1487.447	1527.6298	1830.0137	2345.6652	3046.89	3049.6001	3099.7272	3109.7982	3113.3303	3162.643	3173.5418
CC(=O)C1(CCO1)C#N	CC(=O)[C@]1(CCO1)C#N	
InChI=1S/C6H7NO2/c1-5(8)6(4-7)2-3-9-6/h2-3H2,1H3	InChI=1S/C6H7NO2/c1-5(8)6(4-7)2-3-9-6/h2-3H2,1H3/t6-/m0/s1
