19
gdb 38628	3.4234	1.93686	1.64304	1.8139	77.71	-0.2333	0.0866	0.3199	874.3792	0.163598	-385.837928	-385.832068	-385.831124	-385.867677	26.204	
C	-0.0402419951	 1.5607106277	 0.0945890729	-0.341627
C	 1.5136310625	 1.356744032	-0.0283612784	-0.065398
C	 1.8915732259	 0.6872026226	 1.3050348908	-0.238155
C	 1.0009055846	-0.541597548	 1.1014834061	-0.062774
C	 1.4803784495	-1.2791157442	-0.1576200545	 0.094395
O	 0.3414353803	-2.0897764546	-0.5546337778	-0.298993
C	-0.8049469223	-1.2016419593	-0.3945954422	-0.181462
C	-0.0503223252	 0.0297919871	 0.0375555981	 0.276665
C	 1.2298358133	 0.0573428135	-0.8732094901	-0.05273
H	-0.4280000335	 2.0711876696	 0.9821132088	 0.09452
H	-0.466433886	 2.0077540436	-0.8079495015	 0.105412
H	 2.1510564409	 2.1546612886	-0.4082378435	 0.065094
H	 2.9556768291	 0.4409801031	 1.3811063008	 0.097488
H	 1.6122549843	 1.2861602482	 2.1774082354	 0.096233
H	 0.6617631242	-1.1141839775	 1.9650583452	 0.065723
H	 2.3734806165	-1.9023875851	-0.2221075271	 0.071427
H	-1.3305091217	-1.0973975346	-1.3504664623	 0.101626
H	-1.490729225	-1.6209359018	 0.3509602088	 0.099157
H	 1.1362170576	 0.1303082492	-1.9562836795	 0.073401
304.1643	365.01	376.9269	435.0267	440.1628	609.0404	650.0962	710.7721	744.1249	831.4383	846.2126	868.8531	893.0277	905.3371	917.1524	949.0618	956.5069	979.6117	984.6457	1010.0358	1035.5066	1047.8807	1063.3839	1094.114	1141.0873	1158.9465	1176.9568	1197.7899	1207.9081	1219.4932	1233.6865	1248.0666	1253.891	1270.9571	1291.265	1313.743	1354.6878	1369.0057	1488.4545	1509.1477	1525.2213	3023.1506	3042.3203	3045.7237	3064.6001	3087.4449	3103.9576	3104.8696	3115.355	3116.6734	3128.9007
C1C2CC3C4OCC13C24	C1[C@H]2C[C@@H]3[C@H]4OC[C@@]13[C@@H]24	
InChI=1S/C8H10O/c1-4-2-8-3-9-7(5(1)8)6(4)8/h4-7H,1-3H2	InChI=1S/C8H10O/c1-4-2-8-3-9-7(5(1)8)6(4)8/h4-7H,1-3H2/t4-,5-,6+,7-,8+/m1/s1
