21
gdb 45366	2.55994	1.60869	1.44014	2.9831	80.4	-0.2332	-0.0105	0.2227	1028.9152	0.186248	-387.146284	-387.138838	-387.137893	-387.178293	30.349	
O	 0.0066587213	-0.0995739567	 0.2341070899	-0.3122
C	-0.0121592455	 1.0978884359	 0.0685860856	 0.393612
C	-1.3186373212	 1.8846951735	-0.0231771189	-0.307267
C	-1.2435454588	 3.0325393855	-1.0516343367	-0.005203
C	-0.8484357747	 2.5059866701	-2.4556248271	-0.215724
C	 0.7136474166	 2.5274973051	-2.4776219205	-0.215724
C	 1.1334804343	 3.0652687919	-1.0851062906	-0.005203
C	-0.0623069413	 3.9548877793	-0.6990813904	-0.217052
C	 1.2690638724	 1.9203238054	-0.0596166925	-0.307267
H	-2.122789863	 1.1775610227	-0.2459506114	 0.117294
H	-1.5215557716	 2.3015792051	 0.9739787077	 0.11523
H	-2.2013458647	 3.5600651567	-1.0697653039	 0.066644
H	-1.2554709036	 1.5085180548	-2.6451754943	 0.107001
H	-1.2498611473	 3.1639141445	-3.2318005939	 0.098988
H	 1.1424914492	 1.5415399196	-2.678946461	 0.107001
H	 1.0747967432	 3.1959283625	-3.2645341507	 0.098988
H	 2.0755065004	 3.6189530927	-1.1299877697	 0.066644
H	-0.0834629139	 4.8603631848	-1.3161124581	 0.093022
H	-0.0518075759	 4.2662666464	 0.3510166226	 0.08869
H	 1.4884238934	 2.3430211674	 0.9315925964	 0.115231
H	 2.0857860407	 1.2355072926	-0.3052169322	 0.117294
79.9714	112.5393	320.1519	344.1071	384.8525	421.7909	467.0196	483.9478	590.3958	714.6631	721.5589	784.5551	815.6549	832.3295	838.9605	879.2619	881.0137	953.8894	974.9683	981.4101	1003.3655	1031.2713	1042.9718	1085.7417	1102.6583	1167.3509	1174.1265	1208.836	1212.9976	1226.2204	1261.8524	1278.9289	1309.1301	1314.2928	1315.4798	1351.927	1353.9951	1374.8546	1377.662	1455.4013	1461.5229	1489.3915	1493.9029	1514.806	1814.3887	3010.7457	3014.8227	3034.5554	3046.6979	3054.9796	3063.942	3071.5231	3079.816	3082.0571	3091.6867	3093.0074	3103.5617
O=C1CC2CCC(C2)C1	O=C1C[C@@H]2CC[C@@H](C2)C1	
InChI=1S/C8H12O/c9-8-4-6-1-2-7(3-6)5-8/h6-7H,1-5H2	InChI=1S/C8H12O/c9-8-4-6-1-2-7(3-6)5-8/h6-7H,1-5H2/t6-,7+
