16
gdb 19738	4.07712	2.49276	2.27807	2.5224	62.4	-0.243	0.0934	0.3364	676.6252	0.134322	-383.723484	-383.718238	-383.717293	-383.752535	22.342	
C	-0.0481895502	 1.5700991054	 0.0438016706	-0.242797
C	 1.4829639646	 1.3770195499	 0.0080319114	 0.084848
O	 1.7404751287	 0.762734905	 1.2880952134	-0.285297
C	 0.893649398	-0.3959078828	 1.1788458425	 0.214868
O	 1.655612788	-1.4814945015	 0.7205156129	-0.253915
C	 2.1267387281	-1.0787671301	-0.5817780797	-0.108713
C	 1.2585665363	 0.1325886396	-0.9188509237	-0.068732
C	-0.0095193858	 0.0239970682	-0.0070980841	-0.100963
H	-0.4588823504	 2.0594209193	 0.9295981784	 0.104492
H	-0.4583580665	 2.0038174444	-0.871221363	 0.102497
H	 2.2072186404	 2.1674003524	-0.1832488767	 0.081834
H	 0.4569697366	-0.6510250478	 2.1431571805	 0.091479
H	 3.1944907279	-0.8330001433	-0.5343069399	 0.109928
H	 1.9877774706	-1.91163394	-1.2794083315	 0.106804
H	 1.0919268164	 0.3506991477	-1.9723567757	 0.084083
H	-0.8630381527	-0.6128926965	-0.2316878154	 0.079584
256.9021	388.1577	432.1712	537.5235	606.1035	703.2131	758.7814	807.327	848.1705	880.1991	890.2775	921.4584	931.5077	959.4679	961.6694	1001.7269	1011.839	1041.1255	1062.18	1092.8234	1110.0252	1124.2853	1173.365	1222.3861	1236.0737	1245.5509	1254.5734	1280.2375	1306.8362	1323.0123	1349.8469	1389.1919	1491.4146	1516.863	3027.642	3066.2742	3069.6941	3129.1172	3131.6206	3134.7137	3138.4162	3146.7399
C1C2OC3OCC2C13	C1[C@H]2O[C@@H]3OC[C@H]2[C@H]13	
InChI=1S/C6H8O2/c1-3-4-2-7-6(3)8-5(1)4/h3-6H,1-2H2	InChI=1S/C6H8O2/c1-3-4-2-7-6(3)8-5(1)4/h3-6H,1-2H2/t3-,4-,5+,6-/m0/s1
