17
gdb 56703	2.73273	1.32791	1.01942	2.8533	78.67	-0.2603	0.0095	0.2698	1170.2363	0.134313	-380.822619	-380.81334	-380.812396	-380.856649	34.18	
C	 0.431647189	 1.6265755857	-0.133009534	-0.393402
C	 0.0976010054	 0.1295236644	 0.0400177513	-0.220066
C	 0.4370672899	-0.6058871131	-1.1815294342	 0.259921
N	 0.7297991653	-1.1781302496	-2.1425552124	-0.328583
C	 0.7994055012	-0.4821929869	 1.2725036666	 0.085878
C	 1.1832187501	-1.9263464214	 1.2903610541	-0.274102
N	 2.2186314125	-0.8911339736	 1.1852650283	-0.332261
C	 0.4067522515	 0.1507632207	 2.5090403735	 0.297657
C	 0.0345187166	 0.6751326368	 3.5245883737	-0.396004
H	 1.5026401432	 1.7680411041	-0.2998361556	 0.141481
H	-0.1099835937	 2.0450474072	-0.9841509318	 0.138359
H	 0.1460404041	 2.1669158615	 0.7714414091	 0.149079
H	-0.9837143512	 0.026959599	 0.1937353619	 0.144031
H	 1.1612061646	-2.4562256814	 2.2370858326	 0.135286
H	 0.9484112707	-2.5228323344	 0.413674368	 0.144193
H	 2.532057268	-0.8215457967	 0.2178171945	 0.247927
H	-0.2739123773	 1.1322537677	 4.4324774844	 0.200607
55.1166	133.2151	170.5289	196.4725	221.9451	237.9461	273.2247	353.1203	409.7965	505.493	544.8915	551.8478	587.8216	620.3232	670.7978	698.9654	838.1825	861.1268	908.176	936.3177	994.1933	1031.3628	1055.5425	1095.2836	1129.4605	1158.1312	1250.3363	1268.4417	1306.1855	1322.8655	1374.1515	1411.6871	1495.7537	1497.1142	1505.1351	2239.3825	2353.3474	3040.349	3057.0426	3121.4472	3133.9292	3145.4766	3214.8222	3479.5248	3500.4791
CC(C#N)C1(CN1)C#C	C[C@@H](C#N)[C@]1(CN1)C#C	
InChI=1S/C7H8N2/c1-3-7(5-9-7)6(2)4-8/h1,6,9H,5H2,2H3	InChI=1S/C7H8N2/c1-3-7(5-9-7)6(2)4-8/h1,6,9H,5H2,2H3/t6-,7+/m0/s1
