16
gdb 32558	2.59605	1.49192	0.953	4.9663	74.95	-0.2124	-0.008	0.2044	1164.6986	0.126184	-437.939685	-437.93158	-437.930636	-437.972547	30.258	
O	-0.0029681415	 1.4373989052	 0.0069266969	-0.431787
C	-0.0058511142	 0.0175408801	 0.0021784743	-0.15355
C	-1.4184049046	-0.4836772889	 0.0122905706	 0.082414
C	-2.4793465832	 0.3572796982	 0.02333492	-0.050035
N	-3.764542069	-0.1210293504	 0.0324723918	-0.328368
C	-4.0146167313	-1.4645195098	 0.0307969292	 0.02053
C	-3.00100673	-2.3633163919	 0.0199942372	-0.235158
C	-1.6045147101	-1.9400505196	 0.0096037527	 0.319042
O	-0.6497008622	-2.7183167072	-0.0001678336	-0.406705
H	 0.9113932342	 1.7317446197	 0.000850206	 0.292357
H	 0.5068683766	-0.3916709591	-0.8821477424	 0.115919
H	 0.5215361984	-0.3976744306	 0.8749863717	 0.115952
H	-2.3628103217	 1.4327960588	 0.0254773315	 0.150198
H	-4.5322245315	 0.5285742866	 0.0406499266	 0.267509
H	-5.0608766811	-1.7466899794	 0.0386041003	 0.131259
H	-3.211219299	-3.4256769516	 0.0188137871	 0.110422
80.9323	147.4262	198.2355	208.7533	267.9562	337.4024	435.5521	460.8959	514.1554	553.1564	560.8635	595.8696	754.1824	769.5888	845.8287	883.1289	900.1492	959.2163	1033.6747	1041.5654	1061.6091	1134.6604	1171.8054	1217.9038	1231.2323	1252.6446	1267.0146	1400.9446	1423.2366	1457.7781	1500.3777	1546.2329	1630.7852	1684.7503	1714.3528	2982.823	3001.6749	3197.8624	3219.1621	3228.7757	3666.5972	3847.5978
OCC1=CNC=CC1=O	OCc1c[nH]ccc1=O	
InChI=1S/C6H7NO2/c8-4-5-3-7-2-1-6(5)9/h1-3,8H,4H2,(H,7,9)	InChI=1S/C6H7NO2/c8-4-5-3-7-2-1-6(5)9/h1-3,8H,4H2,(H,7,9)
