17
gdb 23156	2.30254	1.30052	0.93483	4.1357	76.92	-0.2639	-0.0172	0.2467	1254.0833	0.134538	-417.97091	-417.961775	-417.960831	-418.005779	33.032	
C	-0.4480274849	 1.4276703491	 0.0242867938	-0.401327
C	 0.0257967277	-0.0165500443	-0.0340452596	 0.003086
C	 1.3007369528	-0.2614929822	-0.9080996825	-0.339136
C	 2.0659104877	-0.5626689319	 0.3590077595	 0.421636
N	 3.2719364497	-0.7248951846	 0.700422528	-0.217479
O	 4.1239205676	-0.6594690882	-0.4076887443	-0.383222
C	 0.8212373484	-0.5380047488	 1.2391444292	-0.262791
C	 0.8376788402	 0.2979149357	 2.4284904187	 0.298512
N	 0.8311619952	 0.9768903589	 3.364069033	-0.334561
H	 0.373210374	 2.1073459155	 0.2741939782	 0.136521
H	-0.8531854059	 1.7296152551	-0.946781609	 0.122251
H	-1.2297298455	 1.5618148678	 0.7776517257	 0.137381
H	-0.8056957179	-0.6803891563	-0.2788581143	 0.092092
H	 1.2351626375	-1.1105385046	-1.5952467084	 0.132681
H	 1.6657749434	 0.6039281282	-1.4686881693	 0.137421
H	 4.992851516	-0.7700057253	-0.0056703241	 0.314472
H	 0.5072843541	-1.5483821841	 1.5231212056	 0.142463
26.3389	104.5784	143.828	197.6509	248.2606	289.2334	337.2736	356.3885	392.4207	444.7814	490.9051	528.6039	643.4125	710.1087	792.5418	810.5109	895.4016	896.6429	994.9608	1004.5245	1059.7326	1077.6813	1098.3376	1134.013	1177.5619	1217.2648	1242.6085	1279.1884	1314.438	1358.8328	1408.7679	1419.2173	1459.4831	1493.4785	1494.2299	1784.3132	2356.7349	3037.4765	3052.1753	3056.8304	3083.3966	3102.9535	3110.2168	3115.8504	3812.1893
CC1CC(=NO)C1C#N	C[C@H]1CC(=NO)[C@H]1C#N	
InChI=1S/C6H8N2O/c1-4-2-6(8-9)5(4)3-7/h4-5,9H,2H2,1H3	InChI=1S/C6H8N2O/c1-4-2-6(8-9)5(4)3-7/h4-5,9H,2H2,1H3/t4-,5-/m0/s1
