16
gdb 25643	6.42583	0.72237	0.65201	1.6304	89.55	-0.1817	0.0068	0.1885	1669.9615	0.123871	-400.763669	-400.754419	-400.753474	-400.799259	32.945	
C	-0.067198791	 1.4604862192	 0.0013879829	-0.508445
C	-0.0040497493	 0.0076213516	 0.0024647385	 0.172154
C	 0.0581992447	-1.1989797122	 0.0041689812	-0.059113
C	 0.1199016735	-2.6054534821	 0.0063798698	 0.215299
C	 1.208187734	-3.4700415456	 0.0729453307	-0.432804
C	 0.6991170524	-4.7897016372	 0.0398308105	 0.355444
O	 1.393821389	-5.9635178003	 0.0815069994	-0.453154
C	-0.6767062881	-4.7183137824	-0.0453919228	-0.188062
N	-1.0101507536	-3.3862684713	-0.0645683473	-0.323747
H	 0.9383322161	 1.8939655266	-0.0381359127	 0.152229
H	-0.6224175243	 1.8389610309	-0.8647603898	 0.147607
H	-0.5565223304	 1.8456816349	 0.9037294513	 0.147433
H	 2.2423767925	-3.1680852586	 0.137412296	 0.092743
H	 2.3312462317	-5.7589667056	 0.1401598639	 0.296586
H	-1.4179706832	-5.4974238067	-0.092229936	 0.121781
H	-1.942932214	-3.0181039213	-0.1218101154	 0.264051
16.6844	87.4522	90.9581	225.3803	236.6756	292.4932	326.8639	390.4839	422.8393	454.3956	490.5385	550.8163	629.0702	677.0677	695.3506	703.3862	776.4983	928.4737	998.9708	1042.3433	1051.1842	1051.3641	1124.4169	1173.6035	1220.1342	1303.9712	1350.3758	1412.5339	1440.2546	1472.9471	1473.8236	1478.9309	1537.948	1647.2044	2348.0679	3020.7432	3076.0959	3086.1995	3247.5493	3281.9602	3691.1275	3845.9812
CC#CC1=CC(O)=CN1	CC#Cc1cc(O)c[nH]1	
InChI=1S/C7H7NO/c1-2-3-6-4-7(9)5-8-6/h4-5,8-9H,1H3	InChI=1S/C7H7NO/c1-2-3-6-4-7(9)5-8-6/h4-5,8-9H,1H3
