17
gdb 86641	1.92946	1.79573	1.17517	3.1562	68.48	-0.269	-0.0448	0.2242	1084.6036	0.135264	-459.026866	-459.018329	-459.017384	-459.060873	30.665	
C	 0.5243702956	 1.3739276257	-0.0731104496	-0.397621
C	-0.034168166	-0.0372672897	-0.1865434673	 0.116209
C	 0.6080882914	-0.8904595428	-1.3083842809	-0.271057
C	 1.5824758349	-1.7998304327	-0.565665051	-0.238959
C	 3.0492320089	-1.3860534142	-0.6413595314	 0.146122
O	 3.4534199533	-0.4365101812	-1.2591007317	-0.231231
C	 1.1413956536	-1.7285162688	 0.9060009659	 0.416802
O	 1.5436229312	-2.4011501872	 1.8108225259	-0.340213
O	 0.2233982149	-0.752415944	 1.0503508878	-0.217775
H	 1.6175090438	 1.3596296797	-0.0347499551	 0.143211
H	 0.2234333613	 1.9614259407	-0.9462684275	 0.126133
H	 0.1436280786	 1.8667280183	 0.8250942033	 0.134826
H	-1.1224686323	-0.0034701476	-0.2838965489	 0.102388
H	-0.1495353706	-1.4792716092	-1.8291940398	 0.117757
H	 1.1264595675	-0.2641193204	-2.036798599	 0.140873
H	 1.5380553974	-2.8534681803	-0.8609450752	 0.134049
H	 3.7284723463	-2.0402678562	-0.0578133356	 0.118484
57.4896	84.0767	117.7128	222.2236	244.8252	272.2734	343.3532	422.5584	483.8881	614.6928	642.7264	693.5696	733.0873	785.5581	854.2069	873.4615	944.9756	980.8594	1020.1505	1060.9156	1085.8682	1117.5544	1132.2301	1182.7828	1205.3954	1242.844	1303.3131	1331.475	1366.1549	1390.234	1410.0272	1416.0687	1484.5464	1492.7238	1493.3905	1823.3518	1869.6823	2934.2904	3044.5556	3063.4065	3069.7568	3082.3361	3118.9282	3127.8408	3132.605
CC1CC(C=O)C(=O)O1	C[C@H]1C[C@@H](C=O)C(=O)O1	
InChI=1S/C6H8O3/c1-4-2-5(3-7)6(8)9-4/h3-5H,2H2,1H3	InChI=1S/C6H8O3/c1-4-2-5(3-7)6(8)9-4/h3-5H,2H2,1H3/t4-,5-/m0/s1
