17
gdb 47865	2.3646	1.73096	1.11457	3.6828	70.98	-0.2372	-0.0688	0.1684	1071.2044	0.137839	-455.147946	-455.139747	-455.138803	-455.181412	30.208	
N	-0.0950147748	 1.0430055219	-0.7077829662	-0.510032
C	 0.0032528629	-0.0304891619	-0.0221145472	 0.242059
N	-1.0905359234	-0.5378547451	 0.6453026244	-0.314099
C	-1.3542437866	-1.940108165	 0.9576967381	-0.191441
C	-0.4379120851	-2.9324420809	 0.2462392228	-0.072276
O	 0.858909187	-3.0469081446	 0.8080638214	-0.250728
C	 1.4800784487	-1.8383567615	 1.2085496039	-0.17218
C	 1.36274768	-0.7057100533	 0.1892149581	 0.334645
O	 2.3277782246	-0.2832890856	-0.4014803849	-0.291884
H	 0.83658678	 1.2950507599	-1.0433106314	 0.236978
H	-1.9101898734	 0.028735915	 0.4794454093	 0.250847
H	-1.2988820588	-2.1220661122	 2.0407941405	 0.124064
H	-2.3827413139	-2.1643384571	 0.6539891522	 0.121892
H	-0.8711657991	-3.934125313	 0.3210530351	 0.123737
H	-0.3790716496	-2.6722458308	-0.8225797284	 0.114566
H	 1.067606845	-1.4795372217	 2.1661367962	 0.114986
H	 2.5393781066	-2.0622969041	 1.3433600362	 0.138864
49.9304	96.0769	153.9837	252.8507	318.6333	347.5854	398.1225	445.1337	509.6137	548.7175	599.303	664.3868	691.6788	808.6175	829.7258	885.6443	951.568	989.0835	1005.9846	1064.7918	1097.8386	1148.8651	1191.6781	1225.4684	1258.712	1280.2906	1318.469	1365.6419	1380.1123	1411.7691	1445.092	1466.481	1490.4966	1506.0737	1509.096	1690.9223	1810.148	2970.51	2982.6999	3003.7893	3060.6759	3086.8065	3122.819	3469.4778	3598.8861
N=C1NCCOCC1=O	[NH][C]1NCCOCC1=O	
InChI=1S/C5H8N2O2/c6-5-4(8)3-9-2-1-7-5/h1-3H2,(H2,6,7)	InChI=1S/C5H8N2O2/c6-5-4(8)3-9-2-1-7-5/h1-3H2,(H2,6,7)
