12
gdb 16276	3.16857	2.11722	1.45124	4.2922	56.9	-0.2563	-0.057	0.1993	816.4508	0.08135	-418.450222	-418.443299	-418.442355	-418.481757	24.579	
O	-0.2298983126	-0.0067561341	 0.1854394959	-0.235758
C	-0.0388906165	 1.1800010655	 0.1304315099	 0.056495
C	 1.3022246156	 1.7909263491	-0.0165259797	 0.178556
O	 1.4498263739	 3.1877833255	 0.342521666	-0.255111
C	 1.7566567925	 2.8458353644	-0.9886032317	-0.02438
C	 3.2040643407	 2.334722684	-1.0061130739	-0.367477
C	 2.7351776924	 1.2310276699	-0.0109641692	 0.383127
O	 3.2492219746	 0.266332194	 0.4575972925	-0.268107
H	-0.8599291524	 1.9283999688	 0.1725838316	 0.09738
H	 1.1754228528	 3.2954284498	-1.7848336908	 0.137943
H	 3.5192929992	 1.8827620279	-1.9511702748	 0.14792
H	 3.95550005	 3.0464821852	-0.6597121358	 0.149412
96.8819	130.8978	184.366	254.6613	434.6936	453.8107	473.2653	585.5168	666.2724	718.4536	821.0273	844.4916	931.6447	958.1757	985.3043	1020.056	1049.3808	1133.3316	1189.0856	1232.3663	1268.7949	1366.2812	1419.9328	1442.9087	1816.2615	1919.0234	2901.1833	3072.5737	3136.4802	3201.3435
O=CC12OC1CC2=O	O=C[C@]12O[C@H]1CC2=O	
InChI=1S/C5H4O3/c6-2-5-3(7)1-4(5)8-5/h2,4H,1H2	InChI=1S/C5H4O3/c6-2-5-3(7)1-4(5)8-5/h2,4H,1H2/t4-,5+/m0/s1
