21
gdb 122384	4.54574	0.71288	0.69643	1.8399	79.71	-0.2345	0.0762	0.3108	1706.4985	0.181689	-424.163052	-424.153725	-424.152781	-424.198474	33.591	
C	 0.1680254297	 1.3073990993	-0.0885202182	-0.227538
O	-0.1049219969	-0.0596095624	 0.0933933862	-0.229571
C	 0.7076306383	-0.6557958159	 1.0804449504	-0.043091
C	 0.348514385	-2.1350011639	 1.1736151898	-0.240822
C	 1.1491568511	-2.8426865528	 2.2444183402	-0.034233
C	 1.340115879	-4.3479661797	 2.3466879538	-0.167734
C	 1.5960439617	-4.9426871661	 0.9659730086	-0.092509
O	 2.6326581011	-3.9617276245	 0.6887548093	-0.282799
C	 2.5060824021	-3.4404174827	 2.0157894376	 0.088801
H	 1.2082887499	 1.4790499935	-0.4090747661	 0.102852
H	-0.5053294561	 1.6768034478	-0.8661018035	 0.124902
H	-0.0035904913	 1.8866503749	 0.8334627438	 0.099824
H	 1.7748474852	-0.5407390618	 0.8250816522	 0.09256
H	 0.5542146159	-0.1570140167	 2.0546339338	 0.076505
H	-0.7246091335	-2.224994745	 1.3785504209	 0.104548
H	 0.5336023236	-2.5922973512	 0.1980890179	 0.123911
H	 1.0676308659	-2.4000501013	 3.2371805458	 0.087486
H	 1.1147623103	-4.9105855834	 3.2425901358	 0.097435
H	 2.0281955931	-5.9488277935	 1.0047258764	 0.110218
H	 0.7853175441	-4.9174699841	 0.2287501009	 0.108666
H	 3.4181649518	-3.1844156708	 2.5435600246	 0.100589
42.4934	80.7708	110.9403	116.1393	222.1261	244.7576	253.3918	353.595	398.6447	499.7077	607.9239	746.6418	785.9802	800.3342	816.3466	907.6588	958.6982	973.697	987.6368	1016.4256	1028.5723	1056.5971	1064.8873	1083.4013	1088.8769	1136.3117	1163.2506	1165.1689	1179.3555	1199.6694	1228.6413	1249.1608	1261.0413	1304.072	1313.9144	1326.1387	1364.1667	1424.9459	1451.0961	1481.5553	1483.9244	1485.6194	1504.2816	1517.2768	1531.607	2938.5927	2965.7091	2974.3026	3007.041	3026.6443	3044.6624	3073.8866	3101.0023	3110.7338	3117.9936	3171.9696	3202.1326
COCCC1C2COC12	COCC[C@H]1[C@H]2CO[C@@H]12	
InChI=1S/C7H12O2/c1-8-3-2-5-6-4-9-7(5)6/h5-7H,2-4H2,1H3	InChI=1S/C7H12O2/c1-8-3-2-5-6-4-9-7(5)6/h5-7H,2-4H2,1H3/t5-,6+,7-/m0/s1
