14
gdb 45499	3.11811	1.88759	1.67377	4.5786	59.2	-0.2785	-0.0021	0.2763	822.0814	0.103644	-473.837999	-473.832009	-473.831065	-473.868536	23.625	
O	-0.0636661183	-0.0230395124	-0.1139403805	-0.329731
C	-0.0345589853	 1.1627415243	-0.0245317718	 0.450969
O	-1.1528842502	 1.9522577522	-0.0012504608	-0.23227
C	-0.7835789902	 3.2700083448	 0.4427741468	 0.157955
O	-0.8695154531	 3.341935991	 1.8317132956	-0.237363
C	 0.3040719896	 2.7118386916	 2.3755598765	-0.11552
C	 1.3542120278	 2.7708477889	 1.2724654831	-0.069802
C	 0.7066993656	 3.3672194268	 0.0877291579	-0.079046
N	 1.1515760285	 1.976073817	 0.0182975449	-0.189555
H	-1.4730042408	 3.9838002103	-0.0020314651	 0.121165
H	 0.6233384938	 3.2833313946	 3.2513091793	 0.130836
H	 0.0753082064	 1.6863945662	 2.6901907034	 0.14151
H	 2.3960101623	 2.9200487149	 1.5305068559	 0.12916
H	 1.1198819839	 4.1001236397	-0.5936256552	 0.121692
128.7571	181.1055	376.1276	473.1806	531.1367	638.3168	686.7226	698.8339	756.3639	814.6754	831.3715	872.1187	922.9776	928.5924	947.1915	970.6702	976.9229	1043.3795	1058.8183	1072.9445	1114.2203	1143.7402	1227.4146	1264.203	1294.3838	1317.5925	1352.3049	1360.46	1406.7562	1513.5344	1908.5625	3036.9118	3096.5323	3160.9285	3187.12	3199.4324
O=C1OC2OCC3C2N13	O=C1O[C@H]2OC[C@@H]3[C@H]2N13	
InChI=1S/C5H5NO3/c7-5-6-2-1-8-4(9-5)3(2)6/h2-4H,1H2	InChI=1S/C5H5NO3/c7-5-6-2-1-8-4(9-5)3(2)6/h2-4H,1H2/t2-,3-,4-,6?/m1/s1
