21
gdb 94291	2.7711	1.50116	1.18653	1.4852	82.22	-0.2324	0.076	0.3084	1121.0843	0.183412	-387.044534	-387.036239	-387.035295	-387.077438	32.831	
O	 0.4575435368	 0.8513799046	-0.753753279	-0.427848
C	 0.1155039301	-0.2907081827	-0.0030645045	 0.066048
C	 0.0170367067	-0.1563545742	 1.5443833012	-0.2506
C	-1.2948229412	-0.9917193476	 1.521336683	-0.320285
C	-1.3379767977	-0.8151211465	-0.0060407119	 0.344692
C	-2.5444937673	-0.2636848072	-0.7136385531	-0.151232
C	-2.2516067133	 0.056944011	-2.1900500223	-0.226572
C	-1.7581208358	-1.4110931706	-2.3999504169	-0.233202
C	-2.0874596204	-1.7169698691	-0.932860525	-0.133573
H	-0.1673287321	 1.5468494831	-0.5206008546	 0.278589
H	 0.829936597	-1.0626365135	-0.3074751433	 0.089184
H	 0.852552231	-0.5390642952	 2.1342493962	 0.101735
H	-0.1627776824	 0.8847239474	 1.8313981971	 0.094853
H	-1.1417411001	-2.032175048	 1.8236670412	 0.10351
H	-2.1384635988	-0.5905214454	 2.0893929517	 0.101189
H	-3.3969914067	 0.1027193936	-0.1508610148	 0.07942
H	-3.1660836296	 0.2599237853	-2.7523450598	 0.099244
H	-1.5279678271	 0.8490556592	-2.3895988371	 0.102715
H	-2.3824967544	-1.9636449793	-3.1053433108	 0.100318
H	-0.7103775398	-1.5387379573	-2.6896168648	 0.103045
H	-2.5353994849	-2.6341146574	-0.5652823124	 0.07877
64.4988	141.5868	177.9813	247.5805	271.141	361.1749	388.2917	419.8276	512.8082	605.4714	688.1013	746.8496	779.8705	792.0666	834.9207	851.3628	911.6456	931.6506	950.0471	967.1825	985.9	988.0356	1019.0807	1061.4566	1069.6296	1085.5849	1119.1198	1131.0712	1183.2937	1197.1777	1225.6085	1227.347	1240.5489	1254.7644	1261.4282	1266.8657	1287.2929	1298.2132	1313.1925	1427.6197	1431.5143	1476.4347	1477.8863	1497.5505	1500.3172	3047.4807	3051.2766	3052.8533	3057.9776	3068.6331	3092.9114	3102.1469	3115.869	3124.1234	3155.1153	3167.6053	3801.7198
OC1CCC11C2CCC12	O[C@H]1CC[C@]21[C@H]1CC[C@@H]21	
InChI=1S/C8H12O/c9-7-3-4-8(7)5-1-2-6(5)8/h5-7,9H,1-4H2	InChI=1S/C8H12O/c9-7-3-4-8(7)5-1-2-6(5)8/h5-7,9H,1-4H2/t5-,6+,7-,8-/m0/s1
