16
gdb 66748	2.75059	2.04781	1.56844	3.9099	70.82	-0.2395	-0.0117	0.2278	879.508	0.124638	-400.679608	-400.672832	-400.671888	-400.710586	27.309	
C	 0.0347376318	 1.5718890033	-0.0711213501	-0.522764
C	 0.0010518333	 0.0792594485	-0.111254649	 0.38135
C	 0.5898357181	-0.9032402296	-1.1644944804	-0.183511
C	-0.4725288404	-1.8801932828	-0.7071433284	-0.078968
C	 0.8932955158	-1.7647444288	 0.0184049026	-0.037832
N	 0.6605077238	-0.7141481742	 1.0557216658	-0.243957
C	-0.713773487	-1.040488292	 1.5321486985	 0.431232
O	-1.1224352499	-1.2556239173	 2.6253956795	-0.302788
C	-1.2634896163	-0.8413780494	 0.1191204467	-0.262055
H	 1.0668469895	 1.9339001762	-0.1102329958	 0.139804
H	-0.5152145456	 1.9971096795	-0.9171727573	 0.12861
H	-0.4195120633	 1.9403937408	 0.8549553911	 0.138754
H	 1.0973568562	-0.7667068833	-2.108916277	 0.10519
H	-0.8279709112	-2.7889793459	-1.1708778786	 0.10651
H	 1.5873285973	-2.5820300756	 0.1557819797	 0.108861
H	-2.296281602	-0.6019422094	-0.1222426873	 0.091563
118.232	217.3441	270.0641	285.7138	396.225	582.7775	610.7354	632.8546	723.0527	739.3725	751.4156	792.4695	829.2771	833.6942	883.0716	908.8289	919.4724	976.197	978.9465	1012.7997	1031.0951	1051.3235	1064.9479	1097.3822	1143.3328	1159.113	1185.5849	1211.9152	1252.5308	1338.1168	1347.7759	1417.0526	1478.4864	1486.1055	1928.2561	3033.0297	3104.6926	3109.053	3151.8239	3210.0227	3215.9712	3229.5944
CC12C3C4C3N1C(=O)C24	C[C@@]12[C@@H]3[C@H]4[C@@H]3N1C(=O)[C@@H]24	
InChI=1S/C7H7NO/c1-7-3-2-4(7)6(9)8(7)5(2)3/h2-5H,1H3	InChI=1S/C7H7NO/c1-7-3-2-4(7)6(9)8(7)5(2)3/h2-5H,1H3/t2-,3-,4+,5+,7+/m1/s1
