23
gdb 80387	2.14717	1.52888	1.31185	1.2377	85.47	-0.2397	0.0735	0.3132	1158.9764	0.203752	-388.266869	-388.256915	-388.255971	-388.30047	38.968	
C	 0.1239909542	 1.6108058772	-0.3911098698	-0.424933
C	 0.2451118033	 0.1215615489	-0.1320395321	-0.07236
C	 1.4846944593	-0.723212034	-0.3364288568	-0.13162
C	 2.7351819421	-0.0038978358	 0.1902297428	-0.289618
C	 2.134436564	-0.0234248755	 1.6451071592	 0.255681
C	 2.839403099	-1.0874168882	 2.4944623921	-0.417109
C	 2.0480511841	 1.2894875988	 2.4259653164	-0.462827
C	 0.8387522365	-0.6169018591	 1.0429059458	 0.343755
O	 0.1076213129	-1.6033276409	 1.6968686429	-0.463338
H	 1.0634086249	 2.1466454268	-0.2431925707	 0.124474
H	-0.1856744335	 1.783806902	-1.4279584676	 0.114524
H	-0.6284940636	 2.0735147066	 0.2576493457	 0.111972
H	-0.6357480037	-0.4291888607	-0.46246827	 0.086051
H	 1.4929830262	-1.5608677362	-1.0233430018	 0.087117
H	 3.6484797801	-0.5974968035	 0.1082591767	 0.099586
H	 2.9308935039	 0.9849572919	-0.2362896625	 0.091759
H	 3.8528064449	-0.7590397058	 2.750874447	 0.102481
H	 2.293057342	-1.2724882966	 3.4245437263	 0.111003
H	 2.9103309036	-2.040363273	 1.9617835469	 0.117384
H	 1.5591374666	 2.0859338021	 1.8616957019	 0.11297
H	 1.4856772039	 1.1478285585	 3.3568301594	 0.107566
H	 3.0482773549	 1.6424796405	 2.703214181	 0.11153
H	-0.6477552856	-1.186534054	 2.1245758073	 0.283952
137.209	179.6453	181.1093	203.009	232.1525	249.7785	275.4843	287.1559	294.8982	357.5427	402.0182	447.4443	512.0038	556.3151	625.4782	646.3674	752.8718	814.8444	862.8527	901.4808	936.2296	961.1004	965.6273	986.5097	1001.6672	1022.5099	1055.7988	1104.715	1116.5582	1143.1508	1176.024	1221.4494	1231.0772	1237.2852	1264.272	1298.4746	1330.6906	1333.0245	1398.2394	1412.7589	1418.4884	1457.5773	1481.1555	1484.0578	1496.7578	1498.976	1505.0943	1507.6493	1513.7255	3024.4957	3030.4811	3031.2543	3050.2759	3079.6525	3083.1157	3099.4043	3101.7007	3106.6688	3109.6587	3123.6889	3133.318	3182.254	3800.4902
CC1C2CC(C)(C)C12O	C[C@H]1[C@H]2CC(C)(C)[C@@]12O	
InChI=1S/C8H14O/c1-5-6-4-7(2,3)8(5,6)9/h5-6,9H,4H2,1-3H3	InChI=1S/C8H14O/c1-5-6-4-7(2,3)8(5,6)9/h5-6,9H,4H2,1-3H3/t5-,6+,8+/m0/s1
