17
gdb 131195	3.17802	1.50804	1.04844	2.7835	74.49	-0.2094	0.0373	0.2468	1103.3904	0.139331	-418.035671	-418.028087	-418.027143	-418.067545	29.367	
O	 0.1085469077	 1.3350858852	 0.2533580465	-0.426611
C	 0.0800844117	 0.0094298662	-0.0187783287	 0.262861
C	 0.0746950905	-0.7518070132	-1.1648766606	 0.092239
C	 0.0586925822	-0.7024571404	-2.66409313	-0.375536
C	 0.4087854841	-2.1861559208	-3.0270149768	-0.194957
C	 0.0035449214	-3.0719127447	-1.8076171824	-0.331707
C	 0.0462788058	-2.0774976416	-0.684103058	 0.350015
N	 0.0389475985	-2.1743011506	 0.6337147461	-0.351587
N	 0.056210663	-0.8619399015	 1.0247472186	-0.252491
H	 0.1191000724	 1.8163813295	-0.5794347802	 0.312302
H	-0.9301286571	-0.4272232486	-3.0561132175	 0.106291
H	 0.7779315335	-0.0057328681	-3.109168256	 0.098454
H	-0.0681681095	-2.5075297697	-3.9563998582	 0.097645
H	 1.4907151746	-2.2623436214	-3.174713819	 0.11034
H	-1.0083628324	-3.47857645	-1.9306449016	 0.11399
H	 0.6754532827	-3.9236762152	-1.6705260958	 0.116136
H	 0.0944004306	-0.6269033651	 2.0018181436	 0.272617
139.2645	179.2857	226.4958	257.8574	273.3373	338.9773	452.774	530.4109	570.7981	611.1984	669.6761	692.5156	719.6133	804.7081	843.3244	897.3678	904.7202	992.1495	1048.7951	1061.6252	1125.0567	1149.2304	1151.8028	1209.1165	1221.4504	1240.0291	1305.5057	1320.3383	1337.3718	1359.4844	1434.7479	1483.4313	1489.675	1507.5691	1517.1615	1572.8269	1665.3131	3006.6219	3026.7828	3045.455	3059.0382	3085.9082	3105.0994	3678.7959	3846.6493
OC1=C2CCCC2=NN1	Oc1c2CCCc2n[nH]1	
InChI=1S/C6H8N2O/c9-6-4-2-1-3-5(4)7-8-6/h1-3H2,(H2,7,8,9)	InChI=1S/C6H8N2O/c9-6-4-2-1-3-5(4)7-8-6/h1-3H2,(H2,7,8,9)
