16
gdb 20857	5.07626	1.35362	1.1442	1.6497	66.89	-0.2752	-0.014	0.2613	1066.932	0.130308	-379.948191	-379.940124	-379.93918	-379.981478	28.044	
C	-0.1233563621	 1.5689947174	-0.0478051662	-0.378976
C	-0.0181037108	 0.0395929213	 0.0579103333	-0.291127
C	-1.3549291773	-0.6258311903	 0.0313274174	 0.356724
N	-1.80481367	-1.3420153701	 1.0274956965	-0.179074
O	-3.0709977601	-1.7590886513	 0.5839046463	-0.196586
C	-3.2365286067	-1.2388918385	-0.6391098375	 0.410878
C	-4.5066577769	-1.5256266331	-1.3556979871	-0.495029
N	-2.2230533586	-0.5323174036	-1.0395507757	-0.344482
H	 0.8730045943	 2.019221173	-0.0682147118	 0.118278
H	-0.6516722363	 1.857391324	-0.9602418139	 0.140519
H	-0.667298858	 1.9837809403	 0.8061206395	 0.126582
H	 0.5721477129	-0.3448117161	-0.7821746516	 0.125503
H	 0.4930562537	-0.2532696975	 0.978927271	 0.128694
H	-5.3638367596	-1.1612669615	-0.7815500106	 0.157879
H	-4.4886078612	-1.0353339675	-2.3286801733	 0.16218
H	-4.6360664433	-2.6031622563	-1.494736856	 0.158038
62.0225	72.1735	135.9454	197.5641	249.9387	298.7653	392.8589	436.9775	608.0501	673.8096	727.4692	768.4186	805.1295	915.1072	975.2103	997.8829	1020.5912	1069.6132	1070.2235	1084.8748	1103.9142	1275.6227	1305.1834	1345.1414	1390.5554	1408.4348	1414.7947	1475.6276	1476.3068	1476.6375	1496.7337	1507.6198	1565.3492	1633.1782	3042.6359	3045.596	3053.4295	3097.5766	3112.441	3116.8772	3128.5872	3163.7298
CCC1=NOC(C)=N1	CCc1noc(C)n1	
InChI=1S/C5H8N2O/c1-3-5-6-4(2)8-7-5/h3H2,1-2H3	InChI=1S/C5H8N2O/c1-3-5-6-4(2)8-7-5/h3H2,1-2H3
