14
gdb 17598	3.29575	1.73205	1.34357	0.3966	59.09	-0.245	-0.0789	0.1661	920.8373	0.103966	-419.675851	-419.667576	-419.666632	-419.709506	28.189	
C	 0.459666779	 1.2735040672	-0.5131882823	-0.483291
C	 0.5241816382	-0.1068426958	-1.113214074	 0.317111
O	 1.5499235024	-0.688993046	-1.3791465616	-0.283694
C	-0.8423785034	-0.7327529282	-1.480998528	 0.2868
O	-1.6913180441	-0.0348615451	-1.9891923216	-0.29748
C	-1.0825081077	-2.1849926191	-1.2109841263	-0.023595
C	-0.0396626626	-3.2219622215	-1.3843310994	-0.173823
O	-0.3914650748	-2.7488466826	-0.0930022285	-0.21945
H	-0.1858970339	 1.9108275504	-1.1235195671	 0.16876
H	 0.0009501237	 1.2172634095	 0.4815843434	 0.154105
H	 1.4633223733	 1.691391716	-0.4319303745	 0.146358
H	-2.1291483569	-2.4669544437	-1.314983542	 0.120266
H	-0.3748782154	-4.2313835785	-1.6184026897	 0.128716
H	 0.9446004722	-2.9296880527	-1.7337917784	 0.159217
39.8926	101.8118	136.7211	173.6799	232.1428	290.0729	355.2963	414.7967	501.1519	617.7641	651.0489	733.233	867.5707	884.3814	914.4988	1005.32	1031.9913	1093.7878	1144.208	1164.2296	1177.5893	1254.232	1298.1055	1376.6685	1388.8425	1459.7508	1461.514	1503.0629	1787.1272	1803.725	3041.2031	3100.2002	3111.2705	3134.5099	3163.1724	3221.0198
CC(=O)C(=O)C1CO1	CC(=O)C(=O)[C@H]1CO1	
InChI=1S/C5H6O3/c1-3(6)5(7)4-2-8-4/h4H,2H2,1H3	InChI=1S/C5H6O3/c1-3(6)5(7)4-2-8-4/h4H,2H2,1H3/t4-/m1/s1
