18
gdb 84897	2.0454	1.80725	1.27304	1.9244	77.53	-0.2465	0.0192	0.2657	1062.3737	0.147796	-401.929236	-401.920728	-401.919784	-401.962219	32.262	
C	-0.1043237326	 1.538731421	-0.0655744736	-0.39454
C	 0.0626252299	 0.021437549	-0.0159305094	 0.051003
N	 0.6864899214	-0.4388360037	-1.2568443742	-0.27232
C	 1.4498465182	-1.4443283517	-1.2227199524	 0.134108
O	 1.7757653357	-2.243492308	-0.1773571188	-0.22052
C	 1.0814466893	-1.9826554955	 1.0450285809	-0.079846
C	 0.8317270703	-0.4780663114	 1.2414153687	-0.235651
C	 2.082753244	 0.2355641181	 1.479628098	 0.363363
C	 3.1215083815	 0.8055258633	 1.681724209	-0.481471
H	 0.869925109	 2.0306679267	-0.1195554438	 0.135975
H	-0.6792151077	 1.8138974398	-0.953090147	 0.124899
H	-0.6291483878	 1.903987174	 0.8234115765	 0.105049
H	-0.9395636174	-0.4273489883	 0.0365968398	 0.088882
H	 1.9664848044	-1.7855547475	-2.1177676874	 0.126777
H	 0.1219388659	-2.5144824187	 1.0271712085	 0.11312
H	 1.702947965	-2.3985017916	 1.8397574239	 0.129345
H	 0.1849818858	-0.3578928223	 2.1199318347	 0.111311
H	 4.0362502351	 1.3148425068	 1.8596250366	 0.200517
92.2053	128.7585	153.768	241.6032	269.5959	313.4983	356.5276	425.3115	440.6112	527.0736	633.5767	637.0041	651.3284	691.8729	762.887	847.8194	874.9961	909.3203	951.7761	968.3646	1019.3977	1046.9963	1075.1236	1140.468	1155.2624	1197.4597	1246.7687	1276.3023	1303.4525	1352.0728	1367.9926	1401.7632	1407.2449	1418.1138	1485.4115	1498.0611	1504.0432	1733.3623	2234.9717	2996.774	3023.0126	3035.431	3043.7746	3117.4484	3118.0583	3133.3032	3161.4746	3503.522
CC1N=COCC1C#C	C[C@H]1N=COC[C@H]1C#C	
InChI=1S/C7H9NO/c1-3-7-4-9-5-8-6(7)2/h1,5-7H,4H2,2H3	InChI=1S/C7H9NO/c1-3-7-4-9-5-8-6(7)2/h1,5-7H,4H2,2H3/t6-,7-/m1/s1
