19
gdb 53187	3.15751	0.97819	0.88734	1.6746	86.1	-0.2197	0.0547	0.2744	1422.8996	0.1571	-385.82578	-385.816187	-385.815243	-385.861523	34.217	
C	-0.0196506618	 1.4917548224	 0.017795747	-0.500333
C	-0.0337494575	 0.0362071473	 0.0162215885	 0.096175
C	-0.0359702541	-1.1690065481	 0.0247579576	 0.083553
C	-0.0490706595	-2.6028169724	 0.0290612851	-0.314039
C	-0.4857978396	-3.4352757765	 1.2217862619	 0.056725
O	-1.4723892684	-2.7647486971	 1.9929722055	-0.282866
C	-2.378273883	-2.7787251628	 0.8542912509	-0.136864
C	-1.3266201811	-3.4521315317	-0.0291916903	 0.247529
C	-1.5920061926	-4.4836379935	-1.0843221596	-0.500096
H	 1.002564126	 1.8782988867	-0.0631365034	 0.147118
H	-0.5953421512	 1.9028409025	-0.8193326024	 0.143673
H	-0.4497507058	 1.890400677	 0.9433969732	 0.150132
H	 0.7602787765	-3.0784132759	-0.5232732436	 0.106498
H	 0.1415523222	-4.1697245455	 1.7159636694	 0.105978
H	-3.2410612396	-3.4218268499	 1.0625192196	 0.105448
H	-2.7085358624	-1.7732424531	 0.5733472959	 0.115733
H	-2.0248686598	-4.0299974121	-1.9838466314	 0.12838
H	-0.6682314876	-4.9884864298	-1.3840168102	 0.124325
H	-2.2899944808	-5.2485531372	-0.7254920036	 0.122929
24.657	82.3687	90.891	186.7886	231.3617	251.7062	256.6277	306.6677	381.8696	399.6493	508.9136	580.9212	627.3941	776.2515	806.4089	850.2114	910.9984	925.8203	980.0308	992.6227	1005.8884	1051.6026	1053.2464	1058.8898	1071.1495	1127.608	1165.8984	1195.1734	1240.4547	1265.5666	1291.636	1353.1519	1413.7555	1417.3921	1464.942	1477.4052	1479.4317	1486.8427	1497.2042	1503.0214	2365.6345	3022.811	3023.9401	3029.6469	3082.0911	3082.5402	3085.7394	3085.9908	3099.9107	3118.8923	3169.1949
CC#CC1C2OCC12C	CC#C[C@H]1[C@H]2OC[C@@]12C	
InChI=1S/C8H10O/c1-3-4-6-7-8(6,2)5-9-7/h6-7H,5H2,1-2H3	InChI=1S/C8H10O/c1-3-4-6-7-8(6,2)5-9-7/h6-7H,5H2,1-2H3/t6-,7+,8-/m0/s1
