12
gdb 16795	3.87798	2.17666	1.51694	1.8302	55.38	-0.2718	-0.0361	0.2357	764.6604	0.085955	-414.707494	-414.701526	-414.700582	-414.737686	22.545	
O	 0.0383116637	-0.0324240057	-0.0453328361	-0.343819
C	 0.0362141921	 1.1688293776	 0.0099168457	 0.443326
N	-1.0801162831	 1.9998114988	 0.0549802816	-0.373062
C	-0.7757966279	 3.361833319	 0.0317774692	 0.426634
O	-1.5570295758	 4.2664112174	 0.0868593504	-0.331411
N	 0.6558682832	 3.4934028798	-0.0787133274	-0.141205
C	 1.3333076275	 3.048674713	 1.1563082651	-0.244975
C	 1.2006882947	 2.1239116158	-0.0043343947	-0.161512
H	-2.0274499322	 1.6581100821	 0.1217177211	 0.282412
H	 2.2911704977	 3.5231846024	 1.3404188078	 0.15203
H	 0.7236135735	 2.8689612626	 2.0374707848	 0.150189
H	 2.0552180866	 1.8782728171	-0.6235257175	 0.141393
138.9967	219.0992	312.6186	399.0298	525.0792	622.6707	636.8434	651.9916	747.5061	794.4998	805.5516	845.3991	882.1708	955.0221	1005.0284	1072.0749	1106.3301	1142.5454	1159.8636	1254.6969	1317.4746	1346.9978	1353.2725	1506.3539	1854.8973	1899.4355	3123.9759	3194.7893	3220.8748	3635.0052
O=C1NC(=O)N2CC12	O=C1NC(=O)N2C[C@@H]12	
InChI=1S/C4H4N2O2/c7-3-2-1-6(2)4(8)5-3/h2H,1H2,(H,5,7,8)	InChI=1S/C4H4N2O2/c7-3-2-1-6(2)4(8)5-3/h2H,1H2,(H,5,7,8)/t2-,6?/m0/s1
