14
gdb 84615	2.72056	1.59378	1.24816	4.6453	66.82	-0.2762	-0.0413	0.2349	986.9466	0.101051	-436.670728	-436.663304	-436.66236	-436.70266	28.172	
O	 0.0783281647	 1.3709845563	-0.1488834655	-0.420904
C	 0.0879109485	-0.0339612824	-0.0431278468	 0.026807
C	 0.6924355073	-0.5368065663	 1.2620347976	-0.126844
C	-0.1582536008	-1.2721062264	 1.9786139914	-0.078771
C	-1.4751759613	-1.3704977149	 1.2761586674	-0.058178
O	-2.1131131656	-0.0843907697	 1.0740855102	-0.289028
C	-1.3343358844	-0.6376322649	 0.0041223689	 0.254859
C	-2.0328424968	-0.9731524995	-1.2083820208	 0.218889
N	-2.5573633264	-1.2443295347	-2.2020237228	-0.329346
H	-0.4981309334	 1.6954024793	 0.5557898128	 0.295697
H	 0.6335646292	-0.4012554545	-0.9183835592	 0.120927
H	 1.6899515004	-0.2369234678	 1.5601216093	 0.127648
H	 0.0272228142	-1.7178932522	 2.9474483238	 0.125901
H	-2.1587143857	-2.2032128624	 1.4022375236	 0.132344
110.3643	155.6265	186.8204	266.7902	404.2928	438.8131	451.7469	516.7779	561.7209	579.6915	631.7852	707.6646	771.3646	832.5652	890.3418	932.1346	953.3643	974.3871	1001.0435	1059.1391	1093.0077	1145.1546	1168.5676	1258.3435	1276.6742	1298.3537	1357.3943	1414.5063	1432.4786	1666.32	2360.5854	3068.9882	3184.5345	3205.4544	3228.9319	3770.7354
OC1C=CC2OC12C#N	O[C@H]1C=C[C@H]2O[C@@]12C#N	
InChI=1S/C6H5NO2/c7-3-6-4(8)1-2-5(6)9-6/h1-2,4-5,8H	InChI=1S/C6H5NO2/c7-3-6-4(8)1-2-5(6)9-6/h1-2,4-5,8H/t4-,5+,6-/m0/s1
