23
gdb 115386	3.22195	1.07377	0.95803	1.5032	82.03	-0.2541	0.0844	0.3385	1373.3287	0.206055	-425.446124	-425.436672	-425.435728	-425.480255	35.868	
C	 0.0099775872	 1.5448744141	 0.0393608469	-0.384521
C	-0.0150493772	 0.0154018211	 0.0345027565	-0.208897
C	-1.4225329956	-0.5529832832	 0.0104712925	 0.232065
O	-2.0552938687	-0.1448003063	-1.1818485653	-0.254714
C	-3.3833518255	-0.6443236418	-1.2713980479	-0.086618
C	-3.3957763876	-2.1789517029	-1.192379071	 0.000824
C	-2.7914482063	-2.8222419279	-2.4456456512	-0.385611
C	-2.6241470781	-2.5639525941	 0.0797580411	-0.090337
O	-1.3381263561	-1.9568289508	 0.0977981208	-0.255852
H	 1.0386979606	 1.9163716466	 0.0441685618	 0.112281
H	-0.4955109206	 1.9429212368	-0.8438876988	 0.134437
H	-0.4931132744	 1.9488873728	 0.9251098672	 0.110814
H	 0.5129332357	-0.3780476188	-0.8407519387	 0.113027
H	 0.4854633812	-0.3869931562	 0.9211696697	 0.106158
H	-2.0192695629	-0.1806424701	 0.8695747068	 0.047859
H	-3.9961984256	-0.2202377029	-0.4578473544	 0.084637
H	-3.7857822943	-0.2847262067	-2.2229176858	 0.105643
H	-4.4366467747	-2.5084247522	-1.0754438137	 0.071055
H	-1.7536784491	-2.5065507271	-2.5749751294	 0.140092
H	-2.8089978448	-3.9146867315	-2.3739586623	 0.108981
H	-3.349562901	-2.5355636804	-3.3430012846	 0.108752
H	-3.1939010507	-2.2553463122	 0.9729012219	 0.084106
H	-2.4570576017	-3.643271896	 0.1402274376	 0.10582
77.9647	112.3357	182.408	191.5181	207.6097	228.9077	273.3363	374.916	379.053	402.8688	496.5801	514.5133	588.1642	755.4625	767.666	797.7524	890.594	913.7273	935.2773	961.7725	982.741	988.2322	1021.5983	1040.1057	1080.1802	1123.0828	1143.1909	1150.3601	1178.7429	1200.6504	1263.5081	1280.158	1300.7686	1326.6729	1339.8485	1371.9903	1374.2603	1394.7694	1405.1924	1415.789	1423.0773	1435.6436	1478.5715	1489.7018	1492.1115	1497.6407	1504.8224	1506.4351	1511.0341	2883.0267	2957.1953	2965.9526	3025.3647	3037.9987	3038.242	3050.3783	3081.4563	3084.0631	3088.3041	3099.0977	3105.827	3127.4728	3130.1826
CCC1OCC(C)CO1	CC[C@H]1OC[C@@H](C)CO1	
InChI=1S/C7H14O2/c1-3-7-8-4-6(2)5-9-7/h6-7H,3-5H2,1-2H3	InChI=1S/C7H14O2/c1-3-7-8-4-6(2)5-9-7/h6-7H,3-5H2,1-2H3/t6-,7+
