17
gdb 67904	2.45482	1.95941	1.38286	4.2567	73.18	-0.24	0.0293	0.2693	966.2019	0.136246	-417.948018	-417.940607	-417.939663	-417.979529	29.649	
C	-0.0991458288	 1.4986105014	-0.0032410052	-0.48913
C	 0.0320629043	 0.0055269728	 0.0770375549	 0.469644
O	-1.2541710118	-0.6972941255	 0.0650780568	-0.295502
C	-0.9086141105	-1.4388667456	 1.1869232286	 0.451239
N	-1.5712301029	-2.2746854184	 1.8435226363	-0.562997
C	 0.4672017723	-0.8110132188	 1.3194316923	-0.242904
C	 1.5942106847	-1.4457856391	 0.4618251118	-0.045114
N	 0.9474352097	-2.143245242	-0.6646812008	-0.32235
C	 1.1592797036	-0.6830866594	-0.7457283081	-0.129029
H	 0.8814958403	 1.9739123776	 0.1014353715	 0.127296
H	-0.517168405	 1.7923103552	-0.972380261	 0.136987
H	-0.7573402214	 1.8748244848	 0.7844752534	 0.135496
H	-2.492782316	-2.4234534623	 1.4281387502	 0.225969
H	 0.7509789708	-0.3532151059	 2.2643665232	 0.102714
H	 2.5845312599	-1.7151761089	 0.8040135591	 0.105107
H	 1.6818266175	-2.5842214256	-1.2171698167	 0.237
H	 1.7313783332	-0.2415050803	-1.5530002762	 0.095572
134.6619	216.4025	230.2853	261.8756	314.7022	373.7687	457.2935	550.6161	598.8553	668.7023	710.5917	802.9645	813.033	840.7065	866.6173	874.3943	879.554	929.7716	960.2092	978.1919	996.2951	1008.3386	1065.0278	1101.6822	1124.1551	1134.8031	1174.1634	1205.409	1280.2783	1288.5803	1296.0888	1323.2546	1379.8022	1413.8475	1482.0858	1489.9129	1825.265	3036.3595	3104.1301	3120.5281	3148.115	3183.4389	3206.6367	3472.0935	3481.7122
CC12OC(=N)C1C1NC21	C[C@]12O[C]([NH])[C@H]1[C@H]1N[C@@H]21	
InChI=1S/C6H8N2O/c1-6-2(5(7)9-6)3-4(6)8-3/h2-4,7-8H,1H3	InChI=1S/C6H8N2O/c1-6-2(5(7)9-6)3-4(6)8-3/h2-4,7-8H,1H3/t2-,3-,4-,6+/m1/s1
