16
gdb 14189	2.91515	2.24573	2.08903	0.6617	64.44	-0.2389	0.064	0.303	777.2086	0.127771	-383.640796	-383.633497	-383.632552	-383.671835	28.129	
C	 0.0559698175	 1.471258723	-0.0987108715	-0.537366
C	 0.0248283819	-0.0182803801	-0.0357829143	 0.380196
O	 0.6058587308	-0.8148273755	-1.1171345545	-0.355276
C	 0.1221596966	-1.8356454786	-0.2015623435	-0.003525
C	 0.4509536645	-1.0265568106	 1.0830954676	-0.003517
O	-0.8839968282	-1.1437831982	 1.6474479902	-0.355275
C	-1.1565941739	-1.0342036145	 0.2138985635	 0.380191
C	-2.5599278542	-1.0671603243	-0.2893204367	-0.537365
H	 1.086345696	 1.8361312463	-0.1487477501	 0.138792
H	-0.4822796415	 1.8344303304	-0.9796450692	 0.136208
H	-0.4183364146	 1.8834732139	 0.7972720888	 0.141168
H	 0.2673960507	-2.8861036239	-0.451403056	 0.0998
H	 1.313297226	-1.0456295389	 1.7486598218	 0.0998
H	-3.142140279	-0.2398505479	 0.1280997664	 0.136191
H	-2.5576464677	-0.9796523628	-1.3801952747	 0.14117
H	-3.048747365	-2.0067484984	-0.0144747679	 0.138806
176.4289	199.1116	202.8762	236.202	256.9082	366.1432	529.6421	530.6742	674.9472	689.1531	746.8444	761.1591	786.4094	790.7846	846.4343	915.8522	951.914	954.2855	1038.6174	1102.015	1109.3364	1114.4305	1154.0568	1177.3085	1229.9589	1270.3422	1325.2245	1380.98	1405.1187	1432.5762	1474.5468	1475.4854	1488.1062	1491.5839	3039.0383	3039.8733	3111.8847	3112.3791	3117.5133	3117.958	3123.3783	3137.6609
CC12OC3C1OC23C	C[C@@]12O[C@H]3[C@@H]1O[C@@]23C	
InChI=1S/C6H8O2/c1-5-3-4(7-5)6(5,2)8-3/h3-4H,1-2H3	InChI=1S/C6H8O2/c1-5-3-4(7-5)6(5,2)8-3/h3-4H,1-2H3/t3-,4-,5+,6+/m0/s1
