19
gdb 40923	3.64688	1.37969	1.23448	1.0458	74.93	-0.2426	0.0584	0.3011	1069.966	0.160003	-422.973185	-422.965739	-422.964795	-423.00521	29.374	
C	 0.1892080922	 1.6172220819	-0.0940536799	-0.215825
C	 1.70903733	 1.3336080084	 0.0837765373	-0.286814
C	 1.3298843584	-0.0347274482	 0.6696520488	 0.441691
C	-0.072612038	 0.0895320321	 0.0389800158	-0.294255
O	 2.1295425258	-1.2101872562	 0.385172453	-0.338207
C	 2.2359781966	-1.5484597453	 1.7767086202	 0.05452
C	 3.4277348671	-0.8785274303	 2.4795773328	-0.097091
O	 2.632330637	 0.302269594	 2.7729411387	-0.289527
C	 1.4583445432	-0.2860110373	 2.1867430218	-0.022206
H	-0.2251171954	 2.1822618956	 0.744660151	 0.108164
H	-0.1243296256	 2.0945987072	-1.0236864846	 0.104455
H	 2.2146657293	 1.2082216553	-0.8778447499	 0.112561
H	 2.3021670326	 1.9896770411	 0.7237173039	 0.116676
H	-0.9293459531	-0.2501749328	 0.6280373727	 0.096196
H	-0.0902259504	-0.4082741205	-0.9345385976	 0.114857
H	 1.9914956079	-2.5897868842	 1.9905853776	 0.090243
H	 3.759607891	-1.3668890307	 3.4042968434	 0.104389
H	 4.2861264069	-0.6651364077	 1.8343572263	 0.115642
H	 0.5731035542	-0.2084022224	 2.8213144587	 0.08453
103.3694	120.7257	203.4685	282.5871	342.4713	409.2094	481.5523	522.0724	689.1939	779.3181	786.8547	811.0774	830.8253	882.7307	910.5651	919.4507	946.7833	958.7723	979.2633	1004.8335	1025.6667	1069.1488	1070.8368	1102.7505	1145.7389	1162.4017	1179.9304	1195.0597	1203.2136	1231.6865	1241.7083	1260.918	1271.196	1289.557	1318.025	1334.7841	1358.0081	1468.2977	1483.4203	1503.0465	1505.5595	3020.7289	3053.4642	3065.801	3070.8185	3084.2043	3088.3842	3104.9538	3106.5244	3120.184	3132.2333
C1CC2(C1)OC1COC21	C1CC2(C1)O[C@H]1CO[C@@H]21	
InChI=1S/C7H10O2/c1-2-7(3-1)6-5(9-7)4-8-6/h5-6H,1-4H2	InChI=1S/C7H10O2/c1-2-7(3-1)6-5(9-7)4-8-6/h5-6H,1-4H2/t5-,6+/m0/s1
