17
gdb 66906	2.7397	1.96656	1.34121	3.8318	80.92	-0.2322	-0.0715	0.1607	955.1917	0.135473	-384.621443	-384.614045	-384.613101	-384.652992	29.398	
C	 0.1404060061	 1.4816351278	-0.1043276674	-0.486216
C	-0.0346450486	-0.0037206503	 0.0912598855	 0.204926
C	-0.7572999353	-0.7906607042	-1.0958466582	-0.10373
C	-0.7938162595	-2.3752633629	-1.03065097	-0.271219
C	-0.8285320946	-2.0911439751	 0.4620254827	 0.090403
C	 0.3157717147	-2.0987405567	 1.1861013856	-0.243651
C	 0.8856880594	-0.7143885137	 1.0744985051	 0.334138
O	 1.9341901934	-0.2867992376	 1.4962975447	-0.337102
C	-1.3752182644	-0.6815478703	 0.252306975	-0.153035
H	 1.1025813329	 1.6901470076	-0.5818994248	 0.140943
H	-0.6526830668	 1.9102532428	-0.7234360835	 0.114409
H	 0.1392935901	 1.9967860748	 0.8612233385	 0.136155
H	-1.0065659049	-0.2323052644	-1.9947328681	 0.104455
H	-1.7330731121	-2.6911788537	-1.496600681	 0.123621
H	 0.0447135229	-2.9667275993	-1.4066009509	 0.118122
H	 1.0019568426	-2.9380546908	 1.2429223018	 0.117689
H	-2.2934254456	-0.232004054	 0.6056678849	 0.11009
124.2306	150.9374	250.139	272.9461	379.5897	402.487	436.1676	560.7253	628.3247	646.4849	725.3064	754.1946	775.2841	834.5016	844.9978	858.9646	881.464	921.5669	974.453	1017.5411	1040.536	1059.9401	1078.3214	1087.5696	1097.0893	1152.1582	1198.259	1228.6786	1260.4028	1282.5694	1343.9783	1414.5824	1482.2012	1491.9304	1493.3296	1565.7693	1793.1176	3041.0494	3044.6647	3107.8499	3113.2686	3114.9237	3144.7001	3182.4606	3206.3029
CC12C3CC(=CC1=O)C23	C[C@@]12[C@H]3C[C]([CH]C1=O)[C@@H]23	
InChI=1S/C8H8O/c1-8-5-2-4(7(5)8)3-6(8)9/h3,5,7H,2H2,1H3	InChI=1S/C8H8O/c1-8-5-2-4(7(5)8)3-6(8)9/h3,5,7H,2H2,1H3/t5-,7+,8+/m0/s1
