18
gdb 41524	3.41707	1.53598	1.1067	3.6341	81.71	-0.2289	-0.0243	0.2046	1089.1205	0.15123	-401.98544	-401.978278	-401.977333	-402.017092	28.14	
C	-0.017137035	 1.4244817489	-0.0637657716	-0.157633
C	 1.4559684621	 1.9291828683	 0.0646450019	-0.361233
C	 2.2330383381	 0.6396947299	 0.0132104014	 0.260801
C	 3.5253447784	 0.3467297323	-0.1387944808	-0.230834
C	 3.9409080914	-1.1026829863	-0.1746924439	-0.268941
C	 2.9009596293	-1.9722445349	 0.5320603147	-0.087708
O	 1.5566965023	-1.7187291823	 0.0911003958	-0.254919
C	 1.2086912681	-0.4189087143	 0.0715500625	 0.372497
N	-0.0082412711	-0.0399375817	 0.0318433112	-0.3038
H	-0.6671336426	 1.8360128973	 0.7156885276	 0.110373
H	-0.4595360289	 1.7166804344	-1.0241055388	 0.111897
H	 1.737326742	 2.6255283483	-0.7301473315	 0.118559
H	 1.6143524984	 2.4477813248	 1.0167839948	 0.121695
H	 4.2825321485	 1.1158668462	-0.2627345598	 0.096777
H	 4.0788365194	-1.4355816381	-1.2132251274	 0.125099
H	 4.9069226916	-1.2465435314	 0.3241124023	 0.114374
H	 3.0671047246	-3.0344628467	 0.3426780744	 0.120864
H	 2.9530828436	-1.8012862445	 1.6156000072	 0.112133
95.1471	193.0523	227.608	304.294	363.7966	410.6223	503.3413	551.0464	659.0923	693.2567	743.3787	777.4243	825.9338	861.7349	887.5024	930.6465	943.6105	984.1301	1044.7219	1056.4827	1078.138	1094.4251	1166.5236	1186.1219	1215.7258	1231.9895	1242.2903	1277.7071	1313.2309	1334.0699	1362.0065	1389.4827	1441.7381	1471.0733	1475.7932	1502.8785	1507.6068	1703.1625	1737.2617	3008.8793	3020.8449	3029.1312	3042.878	3058.2464	3063.7645	3091.2176	3113.1669	3166.03
C1CC2=CCCOC2=N1	C1CC2=CCCOC2=N1	
InChI=1S/C7H9NO/c1-2-6-3-4-8-7(6)9-5-1/h2H,1,3-5H2	InChI=1S/C7H9NO/c1-2-6-3-4-8-7(6)9-5-1/h2H,1,3-5H2
