18
gdb 116270	1.98294	1.55556	0.94899	4.4269	72.07	-0.2701	0.0232	0.2933	1220.2618	0.148734	-439.098867	-439.090096	-439.089152	-439.133812	31.692	
O	 0.0052750804	 1.4723819475	-0.1601074467	-0.422364
C	 0.0732984328	 0.0637388211	-0.0897682065	-0.083865
C	-1.3197302144	-0.5360596218	 0.0447153669	 0.094304
O	-2.0570749081	-0.1684491227	-1.1138914106	-0.259901
C	-3.1456473494	-1.0699119092	-1.2183933912	-0.086393
C	-2.5372551237	-2.4449087378	-0.9102839484	-0.234113
C	-1.4310808404	-2.1015501961	 0.1352140902	-0.189586
C	-0.1828355239	-2.81305559	-0.125506197	 0.282283
N	 0.8007903375	-3.3854613317	-0.3296750806	-0.333578
H	-0.5822280524	 1.6822679245	-0.8950590127	 0.294057
H	 0.5676897462	-0.3699639405	-0.9714268501	 0.111848
H	 0.6762237494	-0.1859327866	 0.7885974311	 0.122179
H	-1.8056447688	-0.1088706441	 0.9352789325	 0.087001
H	-3.933853167	-0.8141952801	-0.4920741262	 0.099797
H	-3.5600597483	-0.9900972919	-2.2255198234	 0.123992
H	-3.2615638133	-3.1634977638	-0.5225803834	 0.123259
H	-2.0824853525	-2.8664540013	-1.808711483	 0.13916
H	-1.7555831042	-2.3759181956	 1.1427399793	 0.131919
19.6926	119.1652	127.5507	194.3683	229.4464	266.1468	377.8247	422.6065	466.2349	485.0802	571.2328	612.2833	746.4777	789.972	865.2128	888.058	942.7006	982.4621	1035.5821	1046.3612	1082.1296	1103.7607	1108.189	1140.5282	1199.5503	1230.7417	1253.0128	1278.3944	1301.2751	1325.2568	1353.7229	1364.11	1390.9055	1409.0239	1440.2257	1491.4644	1492.7602	1516.7978	2354.1687	2977.9071	2985.429	3006.5753	3072.0965	3081.0244	3090.8765	3109.3931	3134.836	3804.0859
OCC1OCCC1C#N	OC[C@H]1OCC[C@H]1C#N	
InChI=1S/C6H9NO2/c7-3-5-1-2-9-6(5)4-8/h5-6,8H,1-2,4H2	InChI=1S/C6H9NO2/c7-3-5-1-2-9-6(5)4-8/h5-6,8H,1-2,4H2/t5-,6+/m0/s1
