19
gdb 103140	2.31876	1.46411	1.15106	2.0041	72.7	-0.2474	0.0158	0.2632	1141.9108	0.159152	-456.340606	-456.331194	-456.33025	-456.374523	35.139	
C	-0.2600650221	 1.5156787837	-0.0545811079	-0.400392
C	 0.0842256001	 0.046194709	-0.0229135307	 0.102235
O	 1.3349473582	-0.2543258898	-0.7570717056	-0.275045
C	 1.9405368863	-0.7342521933	 0.3728346367	 0.396791
N	 3.084147802	-1.2217506716	 0.570314267	-0.569426
C	 0.7225281715	-0.5456258835	 1.2709702545	 0.117609
N	 0.7923598237	 0.3130805231	 2.431977774	-0.562046
C	 0.1890846909	-1.9200834454	 1.6990045962	-0.101034
O	 1.0804259965	-2.5288103856	 2.6114043534	-0.425111
H	 0.5665806128	 2.1285406442	 0.3145591255	 0.121565
H	-0.4929891536	 1.830307224	-1.0758995935	 0.130906
H	-1.1318078993	 1.7035769103	 0.578574808	 0.140648
H	-0.721868825	-0.5629929144	-0.4445308544	 0.093016
H	 3.6495300901	-1.2431724381	-0.2801237296	 0.229354
H	 1.095721794	-0.2543954	 3.2194483474	 0.247824
H	 1.4885991	 1.0414971092	 2.3134433682	 0.235263
H	-0.7653681767	-1.7963937828	 2.2217873071	 0.119033
H	 0.0193149418	-2.5453065762	 0.8096208989	 0.096922
H	 1.9487534788	-2.5570973528	 2.1815975948	 0.301887
92.1902	118.6671	159.9903	189.1649	229.4811	259.3222	281.8167	324.7036	342.8505	445.7757	475.5038	548.9057	568.3676	689.9842	742.5617	749.553	848.4274	868.4409	876.1597	926.1591	1003.0873	1016.3061	1040.1814	1061.7801	1081.1992	1100.0036	1151.312	1216.0697	1237.2224	1283.1914	1297.7483	1368.7181	1384.9246	1401.5496	1412.211	1445.6624	1477.9971	1493.5208	1500.6426	1667.7633	1801.2994	2992.2364	3047.6476	3057.9928	3076.2231	3122.4683	3126.6654	3471.8156	3496.0865	3572.9899	3715.0452
CC1OC(=N)C1(N)CO	C[C@H]1O[C]([NH])[C@]1(N)CO	
InChI=1S/C5H10N2O2/c1-3-5(7,2-8)4(6)9-3/h3,6,8H,2,7H2,1H3	InChI=1S/C5H10N2O2/c1-3-5(7,2-8)4(6)9-3/h3,6,8H,2,7H2,1H3/t3-,5+/m1/s1
