20
gdb 16909	3.72594	1.75635	1.37485	1.3193	73.73	-0.2227	0.0794	0.302	963.6071	0.1788	-348.996678	-348.989177	-348.988233	-349.028133	29.75	
C	 0.0114930316	 1.5591698123	 0.0022687557	-0.403775
C	 0.0114554366	 0.0293504845	-0.0000408796	 0.023832
C	 0.681331047	-0.5259319974	-1.2589283226	-0.078465
O	 0.5482717128	-1.9341860598	-1.3700883775	-0.256688
C	 0.9023029021	-2.6751079692	-0.2380973999	 0.134853
C	 2.2341643338	-2.5347672917	 0.4458415813	-0.32957
C	 0.9626032241	-2.0477867282	 1.1311757874	-0.074181
C	 0.6995393626	-0.547378862	 1.2518565506	-0.227965
H	 1.0336872281	 1.9541319787	-0.0375662073	 0.114334
H	-0.5359073167	 1.96234095	-0.8563376988	 0.113282
H	-0.456774501	 1.9505918896	 0.9114530128	 0.115063
H	-1.027164651	-0.3278030122	-0.0162903068	 0.080457
H	 0.2120133885	-0.1214380405	-2.1611520815	 0.105189
H	 1.7437978012	-0.2270283959	-1.2821447046	 0.084948
H	 0.4867845957	-3.6729246123	-0.3320234781	 0.096729
H	 2.7192796205	-3.4325606507	 0.8134006929	 0.108068
H	 2.9201740996	-1.7740787435	 0.0871906403	 0.112677
H	 0.5994726466	-2.6542376341	 1.9548282376	 0.085516
H	 1.6412056638	-0.0087244912	 1.4239951656	 0.096344
H	 0.0744660041	-0.3516626563	 2.1294762624	 0.099352
100.1159	206.2692	229.0527	292.0277	328.607	386.9706	406.0392	469.0042	510.1106	676.0367	753.3595	800.1341	831.3159	859.7976	884.5537	928.3777	957.1974	983.9245	1011.1422	1035.5653	1049.715	1105.0449	1116.2101	1128.497	1160.6076	1178.0132	1190.0926	1234.6702	1250.3597	1304.2892	1313.7465	1340.9923	1367.5525	1381.3895	1399.7722	1412.0067	1428.3471	1477.911	1491.3723	1498.0624	1501.4447	1510.1268	2954.536	3009.2773	3020.0904	3026.4022	3064.9109	3074.1646	3091.475	3098.3749	3128.0976	3148.1372	3164.7937	3213.8258
CC1COC2CC2C1	C[C@H]1CO[C@H]2C[C@H]2C1	
InChI=1S/C7H12O/c1-5-2-6-3-7(6)8-4-5/h5-7H,2-4H2,1H3	InChI=1S/C7H12O/c1-5-2-6-3-7(6)8-4-5/h5-7H,2-4H2,1H3/t5-,6-,7+/m1/s1
