18
gdb 57082	3.2423	1.118	0.98164	4.5832	77.68	-0.2258	0.0138	0.2396	1244.8766	0.148706	-398.146395	-398.137565	-398.136621	-398.180628	31.548	
C	 0.2376951952	 1.3306538806	 0.0980523091	-0.393443
C	-0.048604641	-0.179177597	-0.0592487821	-0.127287
C	-1.5026848727	-0.4204580226	-0.069042029	 0.290025
N	-2.6467507065	-0.5793942646	-0.0707402941	-0.315665
N	 0.5617498035	-0.8016892546	-1.2244335833	-0.070729
C	 2.0067474375	-1.0681310845	-1.2547556855	-0.198016
C	 2.2402771764	-1.2588859513	-2.7789500515	-0.165813
N	 1.0470115584	-0.7058984264	-3.450264765	-0.266353
C	 0.1953684345	-0.486945358	-2.5285775169	 0.073636
H	 1.3160257887	 1.5028941992	 0.139935282	 0.135185
H	-0.1744560291	 1.8899539472	-0.7453954676	 0.146723
H	-0.2094646472	 1.7108925109	 1.0202080449	 0.144063
H	 0.3452585083	-0.7028902598	 0.8203645546	 0.141304
H	 2.5769649472	-0.2152759	-0.8584714792	 0.104016
H	 2.2582107847	-1.9514021785	-0.6604409524	 0.119051
H	 3.1465975473	-0.7597914176	-3.1317788672	 0.117863
H	 2.3308469043	-2.3206889584	-3.0378284291	 0.120655
H	-0.8087946295	-0.1152131546	-2.7119016575	 0.144785
56.8264	90.2378	145.3123	167.7724	212.2912	229.6485	340.2394	383.5765	470.0478	514.2521	572.2902	692.4784	767.3074	835.8228	847.4966	920.0784	952.2192	959.8708	972.2871	993.0867	1078.592	1101.8414	1120.0738	1189.3773	1208.0432	1226.4378	1262.0768	1317.2078	1328.5411	1331.2104	1356.6306	1402.8006	1429.2356	1488.5756	1491.4096	1496.6534	1526.0645	1695.4743	2363.5147	2992.4483	3034.5086	3040.3333	3051.6883	3073.322	3091.0247	3130.1482	3135.916	3187.8813
CC(C#N)N1CCN=C1	C[C@@H](C#N)N1CC[N][CH]1	
InChI=1S/C6H9N3/c1-6(4-7)9-3-2-8-5-9/h5-6H,2-3H2,1H3	InChI=1S/C6H9N3/c1-6(4-7)9-3-2-8-5-9/h5-6H,2-3H2,1H3/t6-/m0/s1
