17
gdb 78579	5.18777	1.06936	1.02438	4.7398	77.74	-0.2564	0.0072	0.2636	1185.6397	0.136366	-380.784504	-380.776982	-380.776038	-380.816504	28.938	
C	-0.1887170099	 1.6223977166	-0.0568979413	-0.430227
C	-0.0336849161	 0.1123626158	-0.0006324136	 0.002537
C	 1.1914382454	-0.5572262221	-0.6403623495	-0.019005
C	 2.1494223574	-0.2109442332	 0.5379154688	-0.078328
C	 2.5272973096	-1.6924287091	 0.6258453894	-0.134785
C	 2.9164657476	-2.2477915868	 1.9154413071	 0.287994
N	 3.2344528166	-2.6691178492	 2.9440009042	-0.324181
N	 1.0354744232	-1.7992408173	 0.2838343547	-0.163053
C	 0.7515454347	-0.5349954355	 1.1495041243	-0.02024
H	 0.7506272824	 2.1378613992	 0.1680616434	 0.120139
H	-0.5173524146	 1.9434553231	-1.0506385892	 0.126603
H	-0.9379986193	 1.9626079373	 0.6650645326	 0.128678
H	-0.9706819818	-0.4092266987	-0.2245644912	 0.0931
H	 1.4569034652	-0.6913211118	-1.6911209382	 0.090901
H	 2.783630201	 0.6669882333	 0.6835172939	 0.089484
H	 3.169936843	-2.0940773164	-0.164080112	 0.121822
H	 0.4991342756	-0.6412547853	 2.2051962065	 0.108561
111.7591	144.13	213.5795	231.3689	276.0098	401.9274	474.3667	539.7489	590.4883	727.995	758.2466	816.5745	849.3027	852.2987	871.8796	899.9994	924.0364	1010.5897	1026.6341	1029.5732	1048.6475	1102.6626	1115.3644	1134.9888	1146.2847	1170.1389	1184.641	1209.6459	1245.7275	1253.5483	1312.9714	1366.65	1394.0784	1416.7448	1494.5967	1500.5335	2353.3732	3035.6552	3055.4234	3065.2736	3075.4769	3098.0665	3103.2275	3106.6255	3117.1094
CC1C2C3C(C#N)N2C13	C[C@H]1[C@H]2[C@@H]3[C@@H](C#N)N2[C@H]13	
InChI=1S/C7H8N2/c1-3-6-5-4(2-8)9(6)7(3)5/h3-7H,1H3	InChI=1S/C7H8N2/c1-3-6-5-4(2-8)9(6)7(3)5/h3-7H,1H3/t3-,4-,5-,6-,7+/m1/s1
