18
gdb 91509	2.60895	1.39868	1.13504	1.9625	73.4	-0.246	-0.0291	0.2169	1128.2757	0.146667	-439.063822	-439.055048	-439.054104	-439.097555	32.67	
C	 0.1289339729	 1.4141932394	-0.3426412673	-0.497453
C	-0.0198298763	-0.0054567992	 0.1583854012	 0.275398
O	 0.8817866726	-0.6030411083	 0.7153403421	-0.331631
C	-1.3272823018	-0.6681206732	-0.0655133179	 0.22532
N	-1.6697117253	-1.8666519457	 0.7445168415	-0.380674
C	-1.5319818331	-2.0267318287	-0.6995841094	-0.080067
C	-2.8565368161	-1.5903029334	-1.3229349298	-0.260817
C	-2.6715615186	-0.180558792	-0.6342859265	 0.058247
O	-3.619883095	 0.2406246329	 0.3020960002	-0.433021
H	 1.1253275528	 1.7861446191	-0.1029802807	 0.145304
H	-0.0298969749	 1.4580799791	-1.4260637115	 0.142297
H	-0.6318341405	 2.0557529899	 0.1163623452	 0.155709
H	-0.7890194401	-2.1469624256	 1.1809798537	 0.253891
H	-0.7615734267	-2.6614369015	-1.1199509085	 0.116682
H	-2.8330513871	-1.5309082667	-2.4129297376	 0.109697
H	-3.7328230849	-2.1568066001	-0.9989978985	 0.113868
H	-2.5647976573	 0.6201361834	-1.3694574483	 0.094241
H	-3.5932663206	-0.4137481394	 1.0134442922	 0.293011
68.0904	114.9121	146.2631	183.4851	185.1396	329.218	383.0139	429.1378	479.5217	503.6822	583.3172	610.4878	664.4251	704.9613	821.5345	850.	891.9592	937.9719	953.8645	1001.5617	1024.1314	1042.881	1057.4916	1102.2842	1141.9044	1146.7728	1184.9441	1231.9533	1238.9747	1290.9661	1305.2192	1371.0954	1376.9867	1404.5731	1442.0875	1463.0374	1471.11	1473.7751	1769.1719	3036.5625	3069.3051	3091.683	3097.1667	3131.2248	3156.592	3198.2586	3457.5794	3759.0276
CC(=O)C12NC1CC2O	CC(=O)[C@]12N[C@H]1C[C@H]2O	
InChI=1S/C6H9NO2/c1-3(8)6-4(7-6)2-5(6)9/h4-5,7,9H,2H2,1H3	InChI=1S/C6H9NO2/c1-3(8)6-4(7-6)2-5(6)9/h4-5,7,9H,2H2,1H3/t4-,5+,6-/m0/s1
