16
gdb 50963	3.80638	0.81613	0.70707	2.8001	70.89	-0.2609	-0.055	0.2059	1503.2554	0.120765	-437.913215	-437.903533	-437.902589	-437.94905	32.542	
O	-0.1530080928	-0.0285172697	 0.2427155787	-0.241854
C	-0.0484278829	 1.078526303	-0.2099558202	 0.172949
C	 1.2517614319	 1.8717856463	-0.1980802099	-0.296749
C	 1.3354208701	 2.9555083351	-1.276785588	-0.113893
C	 2.6358612022	 3.7901117855	-1.149816949	-0.361708
C	 2.686292431	 4.9209890098	-2.0748413067	 0.262679
N	 2.7032092374	 5.8124489474	-2.8098355777	-0.296015
C	 1.1906505092	 2.3641865138	-2.6735448561	 0.153459
O	 0.7982115927	 1.2439244635	-2.8756434711	-0.226817
H	-0.9292315302	 1.6234223609	-0.6197376901	 0.078881
H	 1.3193606431	 2.345632033	 0.7911628446	 0.134098
H	 2.0811908068	 1.1621362575	-0.2716654826	 0.143266
H	 0.4907378493	 3.653479348	-1.1654123337	 0.133976
H	 2.7197856369	 4.1761167386	-0.1285105258	 0.167307
H	 3.5128403961	 3.1542750116	-1.3183172306	 0.167684
H	 1.4558117092	 3.0433811256	-3.5108526818	 0.122737
53.7776	83.5935	97.6645	109.4206	149.6121	189.3812	279.0781	315.2968	381.0402	391.9564	490.7736	525.9981	664.52	745.8781	830.6142	882.8181	936.558	981.248	1014.2774	1085.4546	1096.552	1122.9654	1198.8022	1221.966	1261.7938	1330.3397	1339.182	1369.1648	1423.8902	1433.1838	1447.7364	1470.3677	1825.4752	1843.3665	2362.6452	2871.1665	2923.2948	2998.626	3025.5786	3047.6375	3088.4032	3098.8242
O=CCC(CC#N)C=O	O=CC[C@@H](CC#N)C=O	
InChI=1S/C6H7NO2/c7-3-1-6(5-9)2-4-8/h4-6H,1-2H2	InChI=1S/C6H7NO2/c7-3-1-6(5-9)2-4-8/h4-6H,1-2H2/t6-/m1/s1
