19
gdb 94015	3.39219	1.00209	0.91416	3.0648	78.42	-0.2414	-0.0311	0.2102	1314.4667	0.159171	-423.044956	-423.036138	-423.035194	-423.079087	32.771	
O	 0.0062998377	 1.4525250708	 0.073780239	-0.437069
C	 0.0531462072	 0.0297718652	 0.0028271692	 0.103274
C	-1.3857454219	-0.4702830721	 0.1096461691	-0.212321
C	-1.4839813458	-1.959924632	-0.2411339542	-0.258169
C	-0.9795157879	-2.2675871303	-1.6674618557	-0.106236
C	-2.0459524134	-1.9739187512	-2.719651716	 0.157611
O	-2.2940921736	-2.6880518458	-3.6556551244	-0.248835
C	 0.2519161283	-1.4596529853	-2.0124787334	-0.082832
C	 0.7011634085	-0.4442301392	-1.2763046604	-0.086233
H	 0.9092266666	 1.7856815904	 0.0530830193	 0.281653
H	 0.6333560047	-0.36360478	 0.8569228636	 0.074909
H	-1.7672831396	-0.2847571371	 1.1180440933	 0.106013
H	-1.9921523991	 0.1332940349	-0.5749780947	 0.11719
H	-0.8808725392	-2.5420602693	 0.4657462608	 0.110686
H	-2.5163215316	-2.3081876911	-0.1231865773	 0.107909
H	-0.7495455846	-3.3339157054	-1.7724537227	 0.099228
H	-2.5861405484	-1.0109428179	-2.5714748987	 0.080732
H	 0.7660405064	-1.7423976807	-2.9275958452	 0.106831
H	 1.6028460757	 0.0848830361	-1.5817532615	 0.085659
57.2819	65.8163	197.4115	214.69	256.3527	304.6374	342.7928	364.5492	418.1025	491.3549	559.9989	584.6273	710.386	752.3176	837.9501	881.9766	917.0042	949.1762	990.5321	1008.3014	1020.7168	1071.5151	1074.1934	1103.2394	1116.1316	1165.7201	1196.2544	1248.771	1273.0012	1293.7754	1324.4712	1346.6155	1350.9663	1379.0802	1407.613	1420.8291	1436.8602	1489.5915	1495.6926	1711.7079	1828.6775	2870.9728	2932.246	3030.8097	3046.1727	3048.2827	3070.886	3093.1536	3133.0774	3166.2403	3815.495
OC1CCC(C=O)C=C1	O[C@H]1CC[C@@H](C=O)C=C1	
InChI=1S/C7H10O2/c8-5-6-1-3-7(9)4-2-6/h1,3,5-7,9H,2,4H2	InChI=1S/C7H10O2/c8-5-6-1-3-7(9)4-2-6/h1,3,5-7,9H,2,4H2/t6-,7+/m0/s1
