22
gdb 22992	2.56824	1.11436	0.81725	0.7182	86.72	-0.2409	0.0083	0.2492	1452.4765	0.192186	-404.308206	-404.298064	-404.29712	-404.343418	37.747	
C	 0.105807079	 1.584647041	-0.0374983655	-0.390594
C	-0.0202356008	 0.0551964044	-0.007638109	 0.025101
C	 0.5165407214	-0.5708458266	-1.3018075071	-0.396363
C	 0.6864260647	-0.5209793736	 1.2253699619	-0.050167
C	 0.1495368848	-0.1368732314	 2.6485821447	-0.25019
C	 0.1504408793	-1.6413846168	 3.0609125417	-0.321364
C	 0.4442119447	-1.9731632354	 1.6132426245	 0.406027
N	 0.4167144794	-3.0206028265	 0.9014190232	-0.239605
O	 0.0851505364	-4.1496441347	 1.6784703515	-0.393652
H	 1.1559956737	 1.8876494065	-0.1279839107	 0.110852
H	-0.4338778405	 2.0033063203	-0.8931658991	 0.111779
H	-0.297332744	 2.0452157294	 0.8701186379	 0.112496
H	-1.0861397442	-0.200339422	 0.078624112	 0.069159
H	 1.5776876859	-0.3286843958	-1.4389172787	 0.105655
H	 0.4199231863	-1.658915133	-1.2818311252	 0.142417
H	-0.0252121594	-0.1875383753	-2.1731589758	 0.103488
H	 1.7640002547	-0.3188804148	 1.1482360697	 0.085862
H	 0.7801270551	 0.5286280448	 3.2401136317	 0.103581
H	-0.859464806	 0.2814027792	 2.6058730122	 0.108878
H	 0.9653535889	-1.9218355818	 3.7359715196	 0.124978
H	-0.7784113289	-2.0548839129	 3.461674118	 0.127052
H	 0.0919366895	-4.8544877451	 1.0222520226	 0.304611
53.2553	95.4647	125.864	193.938	228.6987	235.3336	260.3212	314.2361	337.5834	361.7425	395.8653	451.7144	483.5574	596.7498	693.7873	763.1513	782.4071	886.4507	918.1047	936.2782	940.3786	967.1441	979.674	990.2692	1034.841	1063.7088	1144.1989	1155.7494	1178.8738	1202.5231	1212.082	1235.5466	1260.1834	1269.1825	1297.8059	1345.7571	1375.6984	1400.3396	1401.6715	1421.0445	1459.1876	1490.0953	1490.6012	1492.4628	1504.1515	1514.715	1776.0437	2996.0906	3012.3443	3023.7595	3028.5634	3055.8607	3068.415	3086.2862	3092.9627	3101.479	3102.8038	3126.5612	3127.0705	3819.3828
CC(C)C1CCC1=NO	CC(C)[C@H]1CCC1=NO	
InChI=1S/C7H13NO/c1-5(2)6-3-4-7(6)8-9/h5-6,9H,3-4H2,1-2H3	InChI=1S/C7H13NO/c1-5(2)6-3-4-7(6)8-9/h5-6,9H,3-4H2,1-2H3/t6-/m1/s1
