15
gdb 45522	3.08709	1.6603	1.31957	3.7165	66.96	-0.2635	0.0017	0.2652	950.168	0.115107	-453.945964	-453.939066	-453.938122	-453.977696	26.078	
N	-0.2253859013	 1.2218169384	-0.4726071361	-0.531446
C	-0.10203266	 0.0577829457	-0.035526928	 0.442759
O	 0.9662556602	-0.5736369654	 0.5774509935	-0.269924
C	 0.2486787522	-1.8462067498	 0.6280599125	 0.087966
C	 0.058315313	-2.3849100718	 2.0255062992	-0.106616
O	-0.9100369398	-1.6599321002	 2.794267952	-0.22128
C	-2.0041267671	-1.217210812	 2.1298996527	 0.132103
N	-2.1588403447	-1.00696288	 0.8913834925	-0.249438
C	-1.0102176485	-1.1722300522	 0.0259052065	-0.137784
H	 0.6231883876	 1.7711889434	-0.3248606282	 0.232256
H	 0.7494349169	-2.5846154616	-0.0050067103	 0.102566
H	-0.2680428597	-3.4312402138	 1.9540143199	 0.123535
H	 0.9893717589	-2.3458280785	 2.5953565821	 0.141762
H	-2.8154562334	-1.0219737509	 2.8282265699	 0.136563
H	-1.3305304943	-1.5393761911	-0.9504408182	 0.116978
80.6121	148.3592	220.5819	316.8247	410.6118	493.8193	530.2401	607.8026	676.9623	741.4132	810.0293	862.0622	870.6206	895.7962	919.1068	976.5394	996.1242	1008.8654	1033.7703	1077.4235	1103.9493	1186.0081	1219.1222	1229.9107	1265.9893	1330.1964	1333.3207	1371.6809	1401.9512	1417.0299	1485.7726	1723.3052	1831.6324	3023.3176	3072.057	3100.5496	3111.1333	3166.054	3475.7986
N=C1OC2COC=NC12	[NH][C]1O[C@H]2COC=N[C@@H]12	
InChI=1S/C5H6N2O2/c6-5-4-3(9-5)1-8-2-7-4/h2-4,6H,1H2	InChI=1S/C5H6N2O2/c6-5-4-3(9-5)1-8-2-7-4/h2-4,6H,1H2/t3-,4+/m0/s1
