16
gdb 28728	5.89174	0.8419	0.75528	3.0329	76.96	-0.1868	0.0152	0.2021	1452.5937	0.125161	-434.086659	-434.077907	-434.076963	-434.120827	31.636	
N	-0.2480231682	 1.5376534357	-0.1190015418	-0.610247
C	-0.0656318361	 0.1410516918	-0.0514947162	 0.278916
C	-0.855995566	-0.8959665241	 0.3827191891	-0.199781
C	-0.0985925187	-2.1061899407	 0.265178189	-0.266689
C	 1.1246185485	-1.7483999038	-0.2372959498	 0.367733
N	 1.1512884224	-0.3912694202	-0.4249436239	-0.325635
O	 2.2294272213	-2.4653389152	-0.5978603817	-0.214175
C	 2.6743682118	-3.4063960244	 0.2800999523	 0.107402
N	 3.5711591283	-4.2110789414	-0.0844107428	-0.431264
H	-0.4788621714	 1.852422543	-1.0577293022	 0.245205
H	-1.0013054447	 1.8261588064	 0.4931578948	 0.247842
H	-1.8764084132	-0.8096289272	 0.7233965474	 0.088353
H	-0.4304988783	-3.1092864371	 0.4799252494	 0.102632
H	 1.9598069543	 0.141123094	-0.6977722955	 0.268811
H	 2.1725123041	-3.3417675942	 1.2521574265	 0.106119
H	 3.8136078959	-4.8303536627	 0.6862175054	 0.234779
50.2844	109.0976	112.6643	155.5893	246.3463	301.3417	385.3386	444.1495	457.414	506.4022	632.5399	662.3193	688.2338	759.8912	786.9246	801.6321	826.5443	828.2558	993.1202	1014.197	1050.9302	1057.4984	1065.3658	1159.9685	1222.5253	1263.8984	1281.2004	1302.5819	1399.2855	1456.6003	1468.1691	1566.1821	1629.4072	1658.3962	1745.0777	3062.6413	3245.5012	3262.8715	3484.4962	3521.1506	3594.2775	3678.9782
NC1=CC=C(N1)OC=N	Nc1ccc([nH]1)O[CH][NH]	
InChI=1S/C5H7N3O/c6-3-9-5-2-1-4(7)8-5/h1-3,6,8H,7H2	InChI=1S/C5H7N3O/c6-3-9-5-2-1-4(7)8-5/h1-3,6,8H,7H2
