22
gdb 118298	4.66552	0.60582	0.59206	3.3937	81.33	-0.251	0.0322	0.2832	1936.3705	0.192129	-441.503648	-441.492519	-441.491574	-441.541468	38.202	
C	 0.065452887	 1.3381054131	 0.2446729043	-0.229259
O	 0.0280329346	-0.067358385	 0.1892746612	-0.234268
C	-1.2541368067	-0.5731499206	-0.1096976794	-0.05069
C	-1.1989623622	-2.1012328459	-0.0927848656	-0.007951
C	-0.8250606195	-2.633020327	 1.294621371	-0.383871
C	-2.5398081923	-2.6638272796	-0.5960932683	-0.166936
N	-2.5384878462	-4.1101193266	-0.7426168076	-0.275465
C	-3.3457264825	-4.937213175	-0.0248780331	 0.154305
O	-4.1564356952	-4.5839849295	 0.804885461	-0.322829
H	 1.092542337	 1.6297254323	 0.4771823191	 0.127707
H	-0.2242938422	 1.7934445543	-0.7159278675	 0.103007
H	-0.6025930015	 1.7347557913	 1.0255682533	 0.106023
H	-1.9925306453	-0.2122753432	 0.6288724225	 0.088296
H	-1.5845261411	-0.2101307716	-1.0991447594	 0.080039
H	-0.4137340058	-2.3930702926	-0.8056222288	 0.075384
H	 0.1174174079	-2.1924315704	 1.6261795517	 0.131563
H	-1.5993587058	-2.3816488017	 2.0285914678	 0.121797
H	-0.7180199025	-3.7209525505	 1.2860918078	 0.112216
H	-3.3432337265	-2.435982214	 0.1098345004	 0.149109
H	-2.7994036161	-2.2017922199	-1.5578679756	 0.103695
H	-1.9019420721	-4.5290431187	-1.4023266727	 0.245701
H	-3.1784311528	-6.0002530694	-0.2910000523	 0.072427
35.5861	48.4349	93.7708	99.7754	137.2879	210.7328	225.2757	237.0942	254.5459	308.2623	356.1008	385.0328	435.5877	532.5916	555.3366	762.2929	849.1305	929.4005	931.5994	944.0797	988.7188	1018.8103	1032.1877	1129.2525	1159.4114	1164.7567	1171.074	1193.399	1207.445	1231.8956	1263.7771	1292.2966	1314.9726	1383.0144	1389.7003	1410.157	1427.4771	1431.8151	1479.969	1485.2192	1487.801	1494.9916	1502.5751	1505.2348	1528.2301	1536.1558	1807.0342	2931.931	2936.0127	2962.5082	2970.059	3003.69	3012.9936	3016.8323	3040.0022	3105.5308	3108.9331	3114.0159	3133.3477	3629.6357
COCC(C)CNC=O	COC[C@@H](C)CNC=O	
InChI=1S/C6H13NO2/c1-6(4-9-2)3-7-5-8/h5-6H,3-4H2,1-2H3,(H,7,8)	InChI=1S/C6H13NO2/c1-6(4-9-2)3-7-5-8/h5-6H,3-4H2,1-2H3,(H,7,8)/t6-/m0/s1
