14
gdb 131087	4.27613	0.87144	0.84052	3.9428	64.16	-0.2768	-0.0234	0.2534	1337.1985	0.102464	-470.021943	-470.014041	-470.013097	-470.057061	26.727	
O	 0.0399233037	 0.5048332085	-1.2088149137	-0.269321
C	 0.202777273	 1.6008387587	-0.7664226216	 0.17465
O	 0.8372671046	 1.8226333043	 0.4039998817	-0.176397
C	 1.0251877423	 3.1950512811	 0.7994612391	-0.21726
C	 2.3375599045	 3.7322470138	 0.3330544259	 0.307121
N	 2.4132718958	 4.5795051599	-0.698825551	-0.257197
N	 3.7124085062	 4.799897879	-0.8150940499	-0.064806
N	 4.5037601685	 4.1752784539	 0.0470625371	-0.184738
C	 3.6443532918	 3.4833830034	 0.7929668774	-0.116561
H	-0.1504104823	 2.5324819748	-1.248830156	 0.088985
H	 0.2158650299	 3.8197822121	 0.4076830715	 0.137568
H	 0.9644674083	 3.1879717373	 1.889575059	 0.138904
H	 4.0829896182	 5.4190788087	-1.5186004099	 0.300071
H	 3.9869720856	 2.8545008146	 1.5990017104	 0.138981
21.2929	40.4144	125.3065	195.9635	286.6296	367.631	403.4729	551.9787	651.5657	695.8351	726.9858	788.4567	892.5888	965.5085	996.8861	1019.0109	1040.5399	1049.438	1135.8628	1163.5841	1220.9593	1241.7209	1302.7603	1361.9077	1398.2855	1416.8876	1433.999	1482.4419	1493.1937	1565.1259	1869.4213	2956.5729	3057.899	3118.9708	3273.6902	3663.6454
O=COCC1=NNN=C1	O=COCc1n[nH]nc1	
InChI=1S/C4H5N3O2/c8-3-9-2-4-1-5-7-6-4/h1,3H,2H2,(H,5,6,7)	InChI=1S/C4H5N3O2/c8-3-9-2-4-1-5-7-6-4/h1,3H,2H2,(H,5,6,7)
