14
gdb 33450	2.6118	1.61589	1.16957	5.1041	71.4	-0.285	-0.035	0.25	1022.7233	0.101435	-395.693072	-395.685466	-395.684521	-395.725236	28.105	
N	 0.0503177175	-1.1402934974	 0.0219261254	-0.335271
C	 0.0163102256	 0.0150815569	 0.0332165346	 0.265907
C	 0.0077231932	 1.4593184959	 0.0643052143	 0.045588
C	-1.085538871	 2.0688197521	-0.6615520915	 0.263335
N	-1.9724298041	 2.5587503356	-1.2157050948	-0.313914
C	 0.5283631578	 2.2090856513	 1.2613295899	-0.036455
C	 1.6182019777	 1.4285396187	 1.9856786992	-0.274888
C	 2.3614360095	 1.4183945647	 0.6212935726	-0.172973
N	 1.2790142535	 2.2529048341	-0.0332656803	-0.152313
H	-0.037316421	 3.0578106332	 1.6314954323	 0.136461
H	 2.1234703276	 2.028712841	 2.7429639377	 0.136643
H	 1.3276151261	 0.4697130549	 2.4189767697	 0.146255
H	 3.2837472503	 1.9990986639	 0.6144307377	 0.140907
H	 2.5312398173	 0.4541231651	 0.1391532734	 0.150717
136.0929	144.1107	169.6539	188.5654	322.6251	379.4982	480.6537	498.6364	592.2471	596.212	598.2943	775.2148	782.682	847.1632	857.0359	952.9221	958.3971	990.9726	1035.3752	1103.3714	1152.2757	1203.7914	1215.2917	1262.4362	1279.9026	1289.6185	1355.4726	1482.8937	1502.5346	2356.5733	2370.7075	3084.8296	3089.9421	3137.2751	3154.0539	3177.4827
N#CC1(C#N)C2CCN12	N#CC1(C#N)[C@H]2CCN12	
InChI=1S/C6H5N3/c7-3-6(4-8)5-1-2-9(5)6/h5H,1-2H2	InChI=1S/C6H5N3/c7-3-6(4-8)5-1-2-9(5)6/h5H,1-2H2/t5-,9?/m1/s1
