17
gdb 20073	4.45108	1.58274	1.45337	2.5848	63.42	-0.2458	0.0709	0.3167	903.9672	0.144277	-400.961812	-400.954616	-400.953672	-400.993965	26.289	
C	 0.2902786639	 1.4708127677	 0.2524208455	-0.233501
N	 1.3015209426	 0.4115347044	 0.0675568311	-0.314051
C	-0.1253146532	 0.0592897676	 0.0789976546	-0.032351
C	-0.5895761001	-0.7914017811	 1.2451357272	 0.093752
C	-0.0112217418	-2.2333072924	 1.217120102	-0.120669
O	 0.4338082892	-2.4555297886	 2.5464842384	-0.237438
C	 0.809971907	-1.1836669136	 3.0092598092	 0.023587
O	-0.1452733298	-0.2738549044	 2.4974035138	-0.25934
H	 0.2738688312	 1.900500194	 1.2478333628	 0.136953
H	 0.1065601958	 2.1657303413	-0.5625992254	 0.109502
H	 1.6542698256	 0.4266249631	-0.8852340667	 0.23232
H	-0.592452122	-0.207556736	-0.8689854509	 0.084268
H	-1.6868524695	-0.8017361461	 1.2627146431	 0.084647
H	-0.7538962415	-2.9952068698	 0.9707080815	 0.113712
H	 0.8261859293	-2.2947313445	 0.5079213524	 0.103081
H	 0.765437018	-1.1742120751	 4.1021218108	 0.113507
H	 1.8168223253	-0.9140485264	 2.6525020608	 0.102022
64.0038	95.3637	208.7012	243.3941	282.3168	433.4726	600.6891	672.127	743.6717	791.1404	875.0729	888.2028	905.0455	955.3555	970.8388	988.2241	1026.8356	1067.7836	1094.9726	1116.5508	1127.4116	1134.4371	1181.1667	1199.595	1219.7976	1260.363	1267.4572	1284.4262	1315.3341	1360.0833	1380.9869	1426.9625	1439.2184	1504.6651	1508.7551	1539.6056	2978.6096	3007.0584	3023.4539	3089.6459	3104.0986	3108.1458	3119.9043	3216.6336	3508.5048
C1NC1C1COCO1	C1N[C@H]1[C@H]1COCO1	
InChI=1S/C5H9NO2/c1-4(6-1)5-2-7-3-8-5/h4-6H,1-3H2	InChI=1S/C5H9NO2/c1-4(6-1)5-2-7-3-8-5/h4-6H,1-3H2/t4-,5-/m1/s1
