13
gdb 5029	3.50432	2.36297	1.41312	2.6547	65.27	-0.2086	-0.0262	0.1824	805.45	0.098352	-394.808279	-394.801798	-394.800853	-394.838714	25.066	
N	 0.0461747919	 1.3836069143	 0.0173545275	-0.586337
C	-0.0227774398	 0.0103131462	 0.0307056333	 0.22791
C	-1.1528314431	-0.7229711779	 0.0949533657	-0.057301
O	-1.1210121577	-2.0989776998	 0.1696365474	-0.173037
C	 0.0858094364	-2.6786110268	 0.1775628909	 0.122471
N	 1.2220086036	-2.1023925099	 0.1065650517	-0.326411
C	 1.266587513	-0.7051332391	 0.0080666757	 0.323643
N	 2.3462719467	-0.0281184846	-0.1095669634	-0.545396
H	 0.956651382	 1.7140163359	-0.2771392325	 0.273488
H	-0.741056085	 1.890470178	-0.3551326966	 0.248288
H	-2.1645031212	-0.3439558305	 0.105804952	 0.126614
H	-0.0024945179	-3.7582777276	 0.2529301013	 0.142648
H	 3.1479116611	-0.6597079383	-0.118599013	 0.22342
125.0975	283.6586	325.4909	387.3458	407.9168	484.4183	521.2317	539.3294	578.3057	610.8652	761.3199	797.4154	800.7829	895.8933	904.1001	957.372	1038.7992	1056.6686	1139.7712	1236.783	1298.3069	1353.2298	1416.6635	1459.5385	1613.0616	1656.4601	1681.2402	1710.4118	3191.3034	3238.5058	3481.9577	3544.2783	3673.8529
NC1=COC=NC1=N	NC1=C(N=COC1)[NH]	
InChI=1S/C4H5N3O/c5-3-1-8-2-7-4(3)6/h1-2,6H,5H2	InChI=1S/C4H6N3O/c5-3-1-8-2-7-4(3)6/h2,6H,1,5H2
