17
gdb 40122	2.23316	2.11285	1.29323	3.3004	73.81	-0.2486	0.0026	0.2512	987.0972	0.135599	-421.787994	-421.780546	-421.779602	-421.819941	29.246	
C	 0.4957668879	 1.3737607695	-0.0407775052	-0.251731
O	 1.2921127285	 0.2083890561	 0.1785121124	-0.252724
C	-0.1183756985	 0.0467588748	 0.0066220787	 0.331307
C	-0.8842560746	-0.5353604824	 1.1962308994	-0.355854
C	-1.3914397272	-1.8532560793	 0.6529837196	-0.092187
C	-1.2030086304	-1.9686912367	-0.6624552245	-0.152673
C	-0.5609853164	-0.7471529534	-1.2167186748	 0.37953
C	-0.9394399645	-0.1506702917	-2.5117753806	-0.252133
O	 0.313064917	-0.8137906782	-2.338899723	-0.272631
H	 0.3932402746	 2.0455289489	 0.8115095476	 0.111138
H	 0.6543780932	 1.8657010993	-0.9998074145	 0.117579
H	-0.2204371682	-0.6465757049	 2.0599773078	 0.130006
H	-1.7146563465	 0.1131782003	 1.505880045	 0.11735
H	-1.8735585959	-2.5919496399	 1.2824681181	 0.105913
H	-1.4898259184	-2.8049983588	-1.2878891134	 0.110386
H	-1.660736266	-0.6646445102	-3.1469462776	 0.114574
H	-0.8882899047	 0.9286813464	-2.6468929751	 0.112151
71.9023	220.0827	233.2577	273.3988	331.3279	408.1501	447.8181	527.9946	573.2892	592.2311	742.5216	767.9962	819.8841	865.5471	894.3595	918.304	949.3073	960.8609	975.5706	980.4244	1029.0415	1090.0318	1121.0193	1129.6977	1151.7016	1161.2596	1174.9072	1186.0659	1256.9096	1281.9785	1338.3999	1421.0835	1432.4124	1472.0422	1524.0336	1532.1258	1673.955	3021.0159	3074.2462	3074.703	3077.6416	3158.5182	3165.789	3196.6684	3221.6177
C1OC11CC=CC11CO1	C1O[C@]21CC=C[C@]12CO1	
InChI=1S/C7H8O2/c1-2-6(4-8-6)7(3-1)5-9-7/h1-2H,3-5H2	InChI=1S/C7H8O2/c1-2-6(4-8-6)7(3-1)5-9-7/h1-2H,3-5H2/t6-,7+/m1/s1
