19
gdb 121475	4.79714	0.63955	0.58538	1.8868	81.4	-0.2528	-0.0233	0.2295	1850.4662	0.158079	-456.368203	-456.358096	-456.357152	-456.404369	35.046	
C	-0.2288344811	 1.4942018321	-0.0221547594	-0.341327
N	-0.0253762724	 0.0495776188	-0.0344645959	-0.091603
C	 0.1347473774	-0.6398920607	 1.1528402834	 0.171249
O	 0.1203679007	-0.1393973183	 2.2506357347	-0.315363
C	 0.0066702832	-0.6305231839	-1.2401216425	 0.120748
N	-0.136112462	-0.0444777785	-2.3530266712	-0.26957
C	-0.1021341158	-0.84485228	-3.5656934279	-0.15558
C	-1.3216775414	-0.4898341818	-4.4224917406	-0.038941
O	-1.3572553869	 0.8901910632	-4.7148535728	-0.41989
H	 0.5492992543	 1.983893453	-0.6119883843	 0.14911
H	-1.1989669721	 1.7399846512	-0.4613981173	 0.144573
H	-0.1882462177	 1.8204827582	 1.0155952447	 0.167766
H	 0.2811502785	-1.7224275979	 0.9824896915	 0.092891
H	 0.1707734031	-1.709781274	-1.1283648516	 0.107826
H	 0.801159442	-0.5777734137	-4.1288494109	 0.118575
H	-0.0750161058	-1.9290304128	-3.3661004014	 0.083524
H	-1.2751867202	-1.0246010114	-5.3771768754	 0.105689
H	-2.2359054457	-0.8173585367	-3.8992436066	 0.082235
H	-1.1730336681	 1.335436973	-3.8779587064	 0.288089
41.9088	84.4849	112.0894	128.2526	158.8752	185.5546	303.7167	322.5572	334.063	376.6976	417.0296	447.3912	484.5056	578.1303	757.8201	875.5677	884.2955	915.9281	989.378	1029.0166	1068.1092	1091.0782	1100.1589	1123.8508	1159.846	1224.012	1259.6602	1306.3206	1357.9367	1373.5651	1382.9085	1426.2316	1439.2729	1448.3955	1455.8033	1479.1861	1488.6714	1509.4856	1511.9073	1742.2756	1824.6032	2960.4785	2963.2363	2969.3996	3039.5164	3046.5756	3060.3101	3072.868	3124.4807	3179.2631	3771.7786
CN(C=O)C=NCCO	CN(C=O)C=NCCO	
InChI=1S/C5H10N2O2/c1-7(5-9)4-6-2-3-8/h4-5,8H,2-3H2,1H3	InChI=1S/C5H10N2O2/c1-7(5-9)4-6-2-3-8/h4-5,8H,2-3H2,1H3
