22
gdb 61390	2.79511	0.91556	0.83142	3.5937	82.97	-0.2953	0.0132	0.3085	1495.2968	0.191213	-404.36838	-404.357498	-404.356554	-404.404308	40.245	
C	 0.4394879086	 1.37896612	 0.2678857553	-0.415026
C	-0.0704708667	-0.069518045	 0.1554411459	 0.262186
C	 0.2114781909	-0.8210416949	 1.4712734875	-0.41579
C	-1.5933593155	-0.0473814936	-0.0837603325	-0.406785
C	 0.566813806	-0.7897783592	-1.0621352044	-0.222935
C	 2.1014618123	-0.7316819048	-1.1959331128	-0.042931
O	 2.8202413048	-1.3346201781	-0.1339771404	-0.398196
C	 2.5057579406	-1.3234392095	-2.4916512103	 0.261719
N	 2.8092312837	-1.8158959364	-3.4921521169	-0.317214
H	 1.4996303605	 1.4203213165	 0.537165675	 0.124319
H	 0.302473464	 1.9269872107	-0.6714609326	 0.110535
H	-0.112033279	 1.9159657062	 1.0464427793	 0.115941
H	-0.3037363106	-0.3316403295	 2.3048826626	 0.110045
H	-0.1558067051	-1.8529107232	 1.4202524035	 0.101933
H	 1.2788929891	-0.8502720136	 1.6971397246	 0.134371
H	-1.8495182425	 0.5268515778	-0.9808256341	 0.111954
H	-1.9907625522	-1.0606362093	-0.2093941319	 0.112044
H	-2.1107438928	 0.4100864293	 0.7659971845	 0.113628
H	 0.2605216942	-1.8447122645	-1.0651765353	 0.103447
H	 0.1569283951	-0.3552088812	-1.9825896258	 0.118946
H	 2.429355386	 0.3126645528	-1.2014821488	 0.143278
H	 2.5665251587	-2.2639765005	-0.0880905822	 0.294532
35.3525	104.0833	127.8756	205.7714	233.1915	256.1187	271.1772	286.7643	299.413	332.6618	348.9901	380.1491	390.4898	413.562	505.8941	561.1849	594.5798	753.7778	851.6508	909.8318	920.4784	934.778	944.1011	963.2937	1001.996	1047.4629	1070.8365	1108.3552	1164.8284	1225.5876	1267.2875	1278.3643	1298.9491	1346.4016	1378.4899	1400.4055	1401.4568	1418.7495	1434.5264	1469.8278	1480.5838	1488.4436	1492.0022	1505.8384	1511.724	1523.6835	2353.0949	3015.2821	3023.4167	3025.1438	3033.083	3055.7186	3077.5984	3086.4639	3092.9005	3094.6224	3099.7178	3101.8334	3134.2338	3798.6545
CC(C)(C)CC(O)C#N	CC(C)(C)C[C@@H](O)C#N	
InChI=1S/C7H13NO/c1-7(2,3)4-6(9)5-8/h6,9H,4H2,1-3H3	InChI=1S/C7H13NO/c1-7(2,3)4-6(9)5-8/h6,9H,4H2,1-3H3/t6-/m1/s1
