15
gdb 22790	2.86299	1.51589	1.05504	2.2962	74.1	-0.2427	-0.0441	0.1986	1079.3003	0.114306	-450.093741	-450.085941	-450.084997	-450.126349	29.352	
O	 0.0370458404	 1.3304097015	 0.0948452478	-0.351553
N	 0.0221340496	-0.0455217046	 0.0079816306	-0.184333
C	-1.1367842414	-0.588774271	 0.023648492	 0.310343
C	-1.1653135823	-2.0992623528	-0.0757412084	-0.239286
N	-2.1476232995	-2.6220739099	-1.0241572364	-0.244737
C	-3.1837413016	-1.9102276864	-1.1920820726	 0.097778
N	-3.4393447393	-0.6825229708	-0.593124896	-0.368469
C	-2.4665754865	 0.0847239652	 0.0637777217	 0.32341
N	-2.6731831759	 1.2116455771	 0.6205789784	-0.496747
H	 0.978557182	 1.5257848263	 0.0182777945	 0.311494
H	-0.1672634196	-2.4524023549	-0.3431705184	 0.136785
H	-1.3990383233	-2.5288089338	 0.911958365	 0.127479
H	-3.9838879607	-2.2553474769	-1.8461074981	 0.122635
H	-4.3402196936	-0.2531110253	-0.7432536634	 0.248688
H	-3.6540419483	 1.4922785061	 0.5366087832	 0.206514
67.0639	124.6468	234.4497	300.3536	321.1437	424.6427	445.1888	456.5554	499.6732	530.2131	545.8114	673.2568	717.0501	738.0366	862.3472	921.569	942.2002	969.0489	995.6872	1048.4697	1060.776	1162.1452	1210.5974	1245.1941	1307.7204	1356.7799	1414.2479	1431.0064	1463.893	1471.6179	1709.2351	1723.1877	1743.2518	2980.3193	3103.7753	3139.3904	3428.7405	3611.2716	3794.0562
ON=C1CN=CNC1=N	ON=C1CN=CN[C]1[NH]	
InChI=1S/C4H6N4O/c5-4-3(8-9)1-6-2-7-4/h2,9H,1H2,(H2,5,6,7)	InChI=1S/C4H6N4O/c5-4-3(8-9)1-6-2-7-4/h2,9H,1H2,(H2,5,6,7)
