20
gdb 98289	3.06446	1.00041	0.85626	2.4928	75.71	-0.2446	-0.0304	0.2142	1420.6515	0.169566	-440.278443	-440.268645	-440.267701	-440.314126	35.246	
C	 0.0195754529	 1.5320020827	-0.0034862865	-0.382314
C	 0.3180712071	 0.0332497756	-0.0023997325	-0.291442
C	 0.7928135393	-0.4887445653	-1.3404932241	 0.376114
O	 1.1406994985	 0.2424548547	-2.2452444908	-0.328706
C	 0.8329357224	-2.0090562965	-1.5789201335	-0.00736
O	 1.3347306566	-2.2561135659	-2.8641840139	-0.436217
C	 1.6684382533	-2.7257300544	-0.521712013	-0.004856
C	 2.3826104942	-3.974118981	-0.8692751934	-0.242406
N	 3.1310024162	-2.719907613	-0.6420568757	-0.320941
H	 0.8983311669	 2.1008393149	-0.3146716707	 0.141763
H	-0.7893843846	 1.7709394443	-0.6992992653	 0.130006
H	-0.2761480712	 1.8640219302	 0.9950297202	 0.117445
H	 1.1056399289	-0.2044062317	 0.7265066656	 0.152417
H	-0.553098681	-0.5542677219	 0.3146772242	 0.124134
H	-0.2085414082	-2.3693163073	-1.4942416725	 0.09661
H	 1.4593272329	-1.3734358824	-3.2550504642	 0.298064
H	 1.3004294994	-2.6042557178	 0.494822941	 0.092433
H	 2.5287990844	-4.7393186701	-0.1125169781	 0.115987
H	 2.2921143699	-4.3313487174	-1.8895577284	 0.134643
H	 3.362133222	-2.3351539976	-1.5575898785	 0.234626
50.2093	67.8347	83.3142	151.3201	196.1942	233.0374	265.457	328.5214	381.1147	420.975	510.7244	558.2692	634.285	708.6437	737.1263	816.8647	851.9652	864.9579	941.9878	983.4364	996.4244	1006.2075	1042.9063	1083.0331	1107.8523	1132.852	1143.9381	1175.6107	1206.4282	1245.9193	1277.4901	1286.9835	1312.9673	1350.6571	1378.0153	1391.8205	1414.1171	1443.1035	1451.4788	1494.0304	1500.2435	1501.0306	1788.6411	2942.735	3023.982	3053.3527	3055.7657	3119.9893	3123.526	3130.5026	3135.739	3215.436	3474.8164	3637.1683
CCC(=O)C(O)C1CN1	CCC(=O)[C@@H](O)[C@H]1CN1	
InChI=1S/C6H11NO2/c1-2-5(8)6(9)4-3-7-4/h4,6-7,9H,2-3H2,1H3	InChI=1S/C6H11NO2/c1-2-5(8)6(9)4-3-7-4/h4,6-7,9H,2-3H2,1H3/t4-,6+/m1/s1
