23
gdb 58870	2.42306	1.36496	1.04609	1.2599	85.3	-0.2437	0.0713	0.315	1261.0705	0.204661	-388.268065	-388.258279	-388.257335	-388.30238	37.699	
C	 0.1039328005	 1.5452524066	-0.1528438905	-0.410204
C	-0.0681254118	 0.0350240944	 0.0293746043	 0.000607
O	 0.2748804277	-0.6702440303	-1.1616797439	-0.426265
C	 0.6829551105	-0.4945584208	 1.2315865642	 0.383637
C	 2.0991283312	-1.0017614748	 1.1597931823	-0.347004
C	 1.0079497025	-1.9419634201	 1.5975869075	-0.104443
C	 0.6524201487	-1.6835828052	 3.064903829	-0.249175
C	 0.2828988434	-0.2042291979	 2.696542465	-0.041331
C	 0.9551180473	 0.9348409708	 3.4550486228	-0.412824
H	 1.1629149999	 1.7994229833	-0.2850303253	 0.109611
H	-0.449649413	 1.8855818509	-1.0326982613	 0.120301
H	-0.2612485913	 2.0952343411	 0.719978883	 0.122923
H	-1.1356333189	-0.180389173	 0.173954178	 0.083599
H	 1.12534897	-0.3329802776	-1.4627422646	 0.278594
H	 2.4727287714	-1.1863042652	 0.1578974423	 0.098185
H	 2.8604199149	-0.6690147311	 1.8617851925	 0.100033
H	 0.7804691945	-2.8386134548	 1.0342966334	 0.091487
H	-0.2071379118	-2.2555174641	 3.4214473536	 0.100203
H	 1.4735909058	-1.8103766932	 3.7799838246	 0.090593
H	-0.8048647864	-0.0806296459	 2.7522467228	 0.069495
H	 2.0466861491	 0.8575151103	 3.4189037798	 0.11457
H	 0.6776167128	 1.9115291879	 3.0434346676	 0.113743
H	 0.659439543	 0.9247477086	 4.510191663	 0.113665
54.9057	129.6298	189.7037	213.5781	222.2301	267.8718	276.4629	297.4101	315.1345	412.3814	421.0649	494.6138	545.3493	658.4384	686.0816	812.5771	843.3234	863.4315	875.2625	911.5758	934.6007	973.7335	1013.9084	1020.0699	1052.6431	1066.5566	1073.2356	1094.1145	1108.0489	1126.5793	1141.9622	1187.9457	1206.187	1244.0401	1265.7954	1286.5879	1304.6549	1360.0475	1361.9829	1396.0515	1398.4527	1413.7659	1417.8488	1480.6501	1488.6557	1492.4041	1495.4843	1498.3519	1503.2088	3013.5721	3026.056	3027.5642	3032.0721	3035.2748	3090.3452	3096.4468	3098.0246	3102.5204	3108.0892	3115.9919	3185.1822	3198.968	3807.3001
CC(O)C12CC1CC2C	C[C@@H](O)[C@]12C[C@H]1C[C@H]2C	
InChI=1S/C8H14O/c1-5-3-7-4-8(5,7)6(2)9/h5-7,9H,3-4H2,1-2H3	InChI=1S/C8H14O/c1-5-3-7-4-8(5,7)6(2)9/h5-7,9H,3-4H2,1-2H3/t5-,6-,7-,8-/m1/s1
