20
gdb 72912	2.65395	1.76093	1.39799	1.9818	76.64	-0.2239	0.0708	0.2947	996.2314	0.172596	-403.111747	-403.104104	-403.10316	-403.143468	31.328	
O	 0.0066870094	 1.2907810188	-0.3280730449	-0.479585
C	 0.0329311532	-0.0748524928	 0.0392888664	 0.404212
C	 0.3589819264	-1.0365165885	-1.1498410128	-0.291965
C	-1.1263181839	-1.4997002188	-1.1720667869	-0.232866
C	-1.4016592196	-0.6769694369	 0.1242379222	-0.051596
C	-1.4451460272	-1.4064473848	 1.453728075	-0.036511
C	-0.4590633421	-2.48712926	 1.7203530623	-0.253075
N	-0.2189404406	-1.1411638475	 2.2520028746	-0.094514
C	 0.6831639234	-0.3173342698	 1.4256760044	-0.247306
H	 0.9058466609	 1.5574692519	-0.549125133	 0.276354
H	 0.6931922687	-0.5123473445	-2.0485922607	 0.097346
H	 1.083354021	-1.8209451595	-0.9140437042	 0.097246
H	-1.6757559902	-1.1256041173	-2.0380694064	 0.107501
H	-1.2992306853	-2.5745128688	-1.0908554826	 0.102039
H	-2.2021147871	 0.0607137087	 0.0486668316	 0.082681
H	-2.3784202487	-1.3998038125	 2.0094770146	 0.090284
H	-0.6738935856	-3.2403481025	 2.4738706896	 0.11379
H	 0.1588320161	-2.8472675889	 0.9009257959	 0.109055
H	 1.6725070405	-0.7849140287	 1.3645242842	 0.096836
H	 0.7925435907	 0.6547998425	 1.9174281807	 0.110074
102.8854	225.7869	250.8027	255.9039	363.0752	369.0706	413.7141	472.1249	600.592	633.9226	681.118	730.7215	757.1252	808.2886	853.6447	859.7927	905.3826	949.78	962.9523	967.0424	1010.2931	1027.5099	1059.8507	1103.8682	1110.5726	1117.7961	1135.8878	1170.726	1176.5923	1214.2393	1240.1793	1250.5975	1266.5309	1273.3844	1278.2837	1312.3215	1336.2465	1357.6794	1395.7788	1462.8935	1488.9443	1489.5518	1516.8268	3033.3595	3054.191	3072.169	3081.0662	3096.5669	3102.6963	3105.6858	3127.4714	3145.9062	3183.0815	3798.2635
OC12CCC1C1CN1C2	O[C@]12CC[C@H]1[C@H]1CN1C2	
InChI=1S/C7H11NO/c9-7-2-1-5(7)6-3-8(6)4-7/h5-6,9H,1-4H2	InChI=1S/C7H11NO/c9-7-2-1-5(7)6-3-8(6)4-7/h5-6,9H,1-4H2/t5-,6+,7-,8?/m0/s1
