20
gdb 19175	3.23931	1.76023	1.341	1.629	75.42	-0.2477	0.0745	0.3222	989.5715	0.176449	-348.943504	-348.934929	-348.933985	-348.976526	32.256	
C	-0.0425674896	 1.5557349449	-0.2803028787	-0.453431
C	 0.043057056	 0.0338874432	-0.1618586487	 0.057392
C	 1.1341163501	-0.8218487342	-0.8860178332	-0.143026
C	 2.1431697603	-0.5106002669	 0.2738055156	 0.077959
C	 2.9334316601	 0.7847060438	 0.4490896937	-0.448987
C	 0.7734728247	-0.7697739248	 0.9747581141	-0.140929
C	 0.6780242223	-2.0138137415	 0.0239181723	 0.194867
O	-0.5090583949	-2.7171782516	-0.1925645618	-0.453209
H	 0.8984342394	 2.0370028833	-0.5418376524	 0.127131
H	-0.7607340917	 1.8174271044	-1.0650541392	 0.113301
H	-0.4073758619	 2.0052820505	 0.6504592728	 0.117859
H	-0.9785389515	-0.3350303782	-0.3234961127	 0.035372
H	 1.3485546183	-0.8533458447	-1.9568225209	 0.064533
H	 2.8440030349	-1.3439105818	 0.4113801424	 0.065651
H	 2.3307697217	 1.643999245	 0.7386956978	 0.124407
H	 3.6802629244	 0.6426871834	 1.2376607171	 0.114983
H	 3.4794382797	 1.0442104465	-0.4651677826	 0.116749
H	 0.562777022	-0.7393377849	 2.0462106487	 0.064797
H	 1.4391064495	-2.7777521611	 0.1978345351	 0.080498
H	-1.2207611237	-2.1014186454	-0.3931280993	 0.284083
66.5585	106.7272	173.1343	221.469	259.9595	278.9834	351.0382	392.4287	431.3896	528.1546	649.8725	722.0114	779.0049	790.6792	795.269	869.3331	898.9545	999.8868	1019.2072	1049.5869	1056.8134	1069.0551	1086.2142	1099.6903	1113.9981	1148.8283	1163.8296	1205.1773	1213.8027	1241.0856	1255.3877	1280.4702	1291.9209	1406.3268	1417.3535	1424.0696	1468.616	1472.9061	1496.2759	1498.5751	1500.3365	1529.8409	2990.1726	3010.0364	3036.0319	3037.4892	3082.0081	3083.271	3086.0241	3086.7697	3094.9248	3142.1957	3163.6625	3815.3793
CC1C2C(C)C1C2O	C[C@H]1[C@H]2[C@@H](C)[C@@H]1[C@H]2O	
InChI=1S/C7H12O/c1-3-5-4(2)6(3)7(5)8/h3-8H,1-2H3	InChI=1S/C7H12O/c1-3-5-4(2)6(3)7(5)8/h3-8H,1-2H3/t3-,4+,5-,6+,7-
