13
gdb 127499	4.00155	1.16038	0.90468	6.6259	67.97	-0.2626	-0.0384	0.2242	1184.8772	0.090573	-448.967782	-448.959759	-448.958815	-449.001102	27.992	
C	-0.0070166571	 1.4293280657	-0.0781847343	-0.333756
N	 0.0234411719	-0.0176993472	-0.0035288298	-0.018156
N	 0.0589845148	-0.7859218003	-1.1234383952	-0.294468
C	 0.0778272043	-2.0121875175	-0.62070979	 0.246662
N	 0.0570414621	-2.0913741189	 0.7453798647	-0.40233
C	 0.023321305	-0.8216362766	 1.0811908546	 0.454934
O	-0.0081717585	-0.3108557423	 2.3122447711	-0.421165
C	 0.1174215311	-3.1642645022	-1.4600581129	 0.273768
N	 0.1494680265	-4.104957408	-2.1312753419	-0.331712
H	 0.8837166655	 1.7936021649	-0.5948267814	 0.164333
H	-0.8971565617	 1.7549501433	-0.6210230949	 0.164268
H	-0.0305211161	 1.8233332367	 0.9377935465	 0.167763
H	-0.0029209277	-1.0529429977	 2.9309396436	 0.329859
53.5627	126.8684	154.5545	202.517	281.2316	335.2227	406.2499	444.9492	519.6924	544.1936	620.8058	677.7211	721.9254	766.5647	839.1209	1042.5721	1057.5682	1155.6193	1176.7433	1285.6325	1306.0956	1391.1016	1451.7214	1477.6823	1479.7519	1509.3918	1568.7097	1627.4916	2366.8774	3062.5382	3134.2098	3167.7617	3800.1568
CN1N=C(N=C1O)C#N	Cn1nc(nc1O)C#N	
InChI=1S/C4H4N4O/c1-8-4(9)6-3(2-5)7-8/h1H3,(H,6,7,9)	InChI=1S/C4H4N4O/c1-8-4(9)6-3(2-5)7-8/h1H3,(H,6,7,9)
