21
gdb 107394	3.24519	1.16985	0.97403	1.0817	85.55	-0.2192	0.0243	0.2435	1304.7235	0.181645	-387.083796	-387.07473	-387.073785	-387.117268	34.705	
C	 0.2116023766	 1.28151937	-0.330058483	-0.252943
O	-0.216650533	 0.0021088826	 0.0949607245	-0.285824
C	 0.4965079534	-0.4957889977	 1.1814246279	 0.441764
C	 1.9057475312	-1.018128506	 0.9834100182	-0.340203
C	 0.7724778475	-1.9751192492	 1.3051125513	-0.128969
C	 0.5364518322	-2.3642995158	 2.7605691235	-0.323916
C	 0.2034778602	-1.0480778531	 3.4489526078	 0.323349
C	-0.0072488144	-0.9728856361	 4.9280212094	-0.487122
C	 0.1616726951	-0.0428870123	 2.5678344185	-0.267217
H	 1.2745601113	 1.2802767255	-0.6103075887	 0.10757
H	-0.3892603412	 1.5453164343	-1.203702991	 0.123778
H	 0.0598781429	 2.0469391959	 0.4448174872	 0.10692
H	 2.2714803337	-1.0586559944	-0.0379136035	 0.111053
H	 2.6582235862	-0.8012978355	 1.7353970485	 0.106313
H	 0.4566773655	-2.6432237459	 0.513294967	 0.094988
H	-0.2890788893	-3.0821085222	 2.8641904178	 0.106582
H	 1.4162172261	-2.8434436352	 3.2112391988	 0.106501
H	 0.8951692318	-1.2716161995	 5.4769053315	 0.124355
H	-0.2760879798	 0.0378732915	 5.2467943724	 0.122928
H	-0.8043530026	-1.6563505796	 5.2481513609	 0.124024
H	-0.0579856034	 0.9910692926	 2.8107712312	 0.086069
101.0711	141.4547	166.1793	190.4683	194.859	284.4806	327.0008	391.4118	404.8985	428.8993	485.4037	585.0667	652.4939	755.5998	832.7513	848.0791	865.2727	919.0965	935.8332	945.5203	992.2752	1016.4665	1039.2197	1052.5468	1063.6362	1096.5565	1113.2203	1160.4113	1183.5509	1195.8335	1218.3765	1244.6255	1266.015	1326.2735	1331.9591	1384.8846	1413.1201	1463.4279	1476.0382	1479.2341	1483.8424	1489.8663	1491.7265	1508.3254	1707.4357	2989.024	3008.2313	3015.9981	3036.2623	3039.4782	3059.7822	3109.4972	3115.8828	3117.8187	3186.7801	3189.2794	3210.4101
COC12CC1CC(C)=C2	CO[C@]12C[C@H]1CC(=C2)C	
InChI=1S/C8H12O/c1-6-3-7-5-8(7,4-6)9-2/h4,7H,3,5H2,1-2H3	InChI=1S/C8H12O/c1-6-3-7-5-8(7,4-6)9-2/h4,7H,3,5H2,1-2H3/t7-,8-/m1/s1
