17
gdb 42183	3.05369	1.32069	1.08211	2.9927	80.21	-0.2563	-0.0601	0.1962	1134.3079	0.135321	-384.615802	-384.60774	-384.606796	-384.649079	30.511	
O	-0.0365908102	-0.068211822	 0.002828912	-0.287458
C	-0.069525976	 1.1445346307	 0.0072551632	 0.139007
C	 1.1459563535	 1.9463798721	 0.0011699819	 0.259262
C	 2.1363400338	 2.6310354179	-0.003531603	-0.457213
C	-1.3462911651	 1.9239513606	 0.0178511285	 0.26544
C	-1.8328392928	 2.960468433	-1.0502861875	-0.254363
C	-2.9502111945	 2.898149403	 0.0313270677	-0.05875
C	-2.7869557773	 1.3483922809	 0.0250394316	-0.261378
C	-1.8192284905	 2.953176128	 1.0991006537	-0.254323
H	 3.0227580961	 3.2178955749	-0.0069004467	 0.215353
H	-1.2628994051	 3.8897028729	-1.1211385114	 0.102087
H	-2.0727067749	 2.5529659003	-2.0356222119	 0.102732
H	-3.8848126975	 3.4583452141	 0.0391492246	 0.080382
H	-3.1019895289	 0.821570536	-0.8783619685	 0.102207
H	-3.0905287809	 0.815442827	 0.928768116	 0.102209
H	-2.0466005652	 2.5389654444	 2.0846010069	 0.102728
H	-1.2483858846	 3.8819250062	 1.169036803	 0.102078
45.6291	109.6265	164.6155	223.4604	273.9993	420.272	456.5174	535.303	559.0762	643.1527	661.3169	698.7045	717.1619	808.0562	816.1609	883.6777	917.3794	953.7941	962.933	969.4946	997.5262	1060.5326	1093.916	1101.9373	1131.5691	1138.7437	1162.2894	1170.0375	1230.7305	1232.4923	1244.3266	1320.4483	1497.1555	1499.9325	1552.8877	1756.1616	2209.0569	3055.9214	3058.8873	3066.3019	3117.2411	3125.1786	3129.8367	3132.6826	3493.0984
O=C(C#C)C12CC(C1)C2	O=C(C#C)[C@@]12C[C@@H](C1)C2	
InChI=1S/C8H8O/c1-2-7(9)8-3-6(4-8)5-8/h1,6H,3-5H2	InChI=1S/C8H8O/c1-2-7(9)8-3-6(4-8)5-8/h1,6H,3-5H2/t6-,8-
