18
gdb 100227	2.00617	1.28819	1.18905	4.7031	77.78	-0.2751	0.0185	0.2936	1200.1802	0.143501	-401.917904	-401.907493	-401.906549	-401.95334	37.006	
C	 0.0103752088	 1.3563128544	-0.1445862566	-0.249531
O	 0.0088252079	-0.0469925623	 0.0487631836	-0.252825
C	 0.7063125065	-0.5473830378	 1.1826874081	 0.153748
C	-0.0087378935	-0.1802788637	 2.4975259762	-0.426274
C	 0.658156729	-2.0870933729	 0.9941256857	-0.362768
C	 1.3098856827	-2.5407438055	-0.2317001824	 0.284584
N	 1.8243771294	-2.9290714055	-1.1898752952	-0.310711
C	 2.1043127826	-0.088456541	 1.222464774	 0.3555
C	 3.2450000626	 0.2856461388	 1.2722590657	-0.487228
H	 1.0299543372	 1.757415088	-0.1886399016	 0.128443
H	-0.4843200052	 1.5281896205	-1.102535874	 0.138307
H	-0.548343913	 1.885294037	 0.6392239211	 0.109344
H	-1.0543770157	-0.4972565487	 2.4464151605	 0.128268
H	 0.4747810754	-0.667948619	 3.3479778551	 0.13185
H	 0.0254978899	 0.8971814768	 2.6697113566	 0.136233
H	 1.1290318736	-2.5765467477	 1.8514704354	 0.155482
H	-0.3940259673	-2.3880602412	 0.9662928323	 0.157953
H	 4.2577332088	 0.6063213897	 1.3009017556	 0.209626
68.152	81.5086	115.5917	162.4867	186.0571	199.5395	248.3594	282.9011	328.3485	391.0621	400.0747	418.6959	470.7323	573.3514	644.7379	647.16	684.5559	715.3284	843.2229	903.4529	965.9529	982.8624	1082.2436	1119.7868	1154.4391	1181.8925	1193.2823	1229.856	1286.0444	1337.2812	1400.8052	1448.7569	1472.8926	1480.7197	1487.0149	1503.5261	1509.5721	2232.6965	2370.2415	3006.5835	3048.8005	3060.0641	3070.0946	3108.2472	3127.3001	3129.1458	3137.1439	3497.1896
COC(C)(CC#N)C#C	CO[C@@](C)(CC#N)C#C	
InChI=1S/C7H9NO/c1-4-7(2,9-3)5-6-8/h1H,5H2,2-3H3	InChI=1S/C7H9NO/c1-4-7(2,9-3)5-6-8/h1H,5H2,2-3H3/t7-/m1/s1
