15
gdb 33647	3.31386	1.5073	1.4104	4.6867	75.16	-0.2517	-0.0249	0.2268	945.1377	0.115472	-379.640905	-379.634417	-379.633473	-379.671727	26.203	
N	-0.1017600404	-1.1546045643	 0.0610235635	-0.354363
C	-0.0614891916	 0.0017342664	 0.0253218719	 0.151377
C	-0.00608829	 1.4201926926	-0.0239062425	 0.233884
C	-0.6681545989	 2.4859672615	 0.8081597242	-0.076004
N	 0.5883088111	 3.1293020941	 1.1071076069	-0.293485
C	 1.2496633655	 2.3623469134	-0.0286090709	-0.108157
C	 1.1089468356	 3.1814444873	-1.2895251555	-0.117659
C	-0.1853578509	 3.2146040203	-1.6409562655	-0.069814
C	-0.974886647	 2.3531286644	-0.7308171306	-0.154785
H	-1.4660246813	 2.4103226727	 1.5367281539	 0.12783
H	 0.5924815575	 4.140252341	 0.9613287809	 0.219208
H	 2.2257943584	 1.958570776	 0.2316553207	 0.101954
H	 1.9137794247	 3.7668274856	-1.7150887618	 0.111933
H	-0.6299777625	 3.8278519471	-2.4141267547	 0.115173
H	-1.9630975603	 1.986183112	-0.9778441005	 0.112908
136.1259	162.0899	390.0372	408.4449	500.7894	514.0111	535.9409	607.1424	682.5915	734.0593	760.8019	793.9138	832.5844	888.8617	904.4849	931.1287	950.2906	975.28	1007.5461	1023.5532	1051.3259	1115.313	1127.8782	1138.2281	1199.6004	1206.6604	1270.8706	1307.7036	1358.5252	1365.0969	1416.0281	1626.8071	2348.0247	3140.2684	3195.1639	3202.9946	3209.967	3230.7311	3435.2673
N#CC12C3NC1C=CC23	N#C[C@@]12[C@H]3N[C@@H]1C=C[C@@H]23	
InChI=1S/C7H6N2/c8-3-7-4-1-2-5(7)9-6(4)7/h1-2,4-6,9H	InChI=1S/C7H6N2/c8-3-7-4-1-2-5(7)9-6(4)7/h1-2,4-6,9H/t4-,5-,6+,7+/m1/s1
