17
gdb 110079	1.73978	1.51304	1.02199	3.0025	75.34	-0.2613	-0.0545	0.2068	1222.3156	0.133859	-417.992874	-417.983525	-417.982581	-418.027636	32.864	
C	 0.947111028	 0.9903526327	 0.7586260612	-0.386283
C	-0.1135227892	 0.3466287855	-0.1273773886	-0.144922
N	 0.5249633714	-0.4171017305	-1.2106371266	-0.089422
C	 1.0802117784	-1.7522083726	-0.9846538565	-0.113308
C	 0.9781853757	-2.4752773068	 0.3205361447	 0.153274
O	 1.864056504	-3.185790881	 0.7244502355	-0.252598
C	-0.1625699925	-1.5327962158	-1.830278431	-0.174408
C	-1.450781021	-1.9807699726	-1.3486831443	 0.295489
N	-2.4985136805	-2.3119636517	-0.9876441628	-0.32946
H	 1.5398049626	 0.2361934764	 1.2866660913	 0.132215
H	 1.6295049434	 1.6018928586	 0.1623598209	 0.137853
H	 0.4717890083	 1.6282273047	 1.5088039142	 0.129798
H	-0.8109779495	-0.2519672323	 0.473034847	 0.121859
H	-0.7115333895	 1.1190884415	-0.6224242937	 0.127298
H	 2.0112977335	-1.9539277805	-1.5088287002	 0.130585
H	 0.0441916906	-2.325755908	 0.8978562822	 0.109485
H	-0.0544232239	-1.6076814176	-2.9096636034	 0.152544
67.9216	93.4432	111.3579	150.605	204.2584	254.0598	276.0243	322.1949	387.614	429.2489	504.4305	587.7617	641.3653	707.1446	815.7106	834.183	913.0319	961.2689	1010.3928	1023.6733	1063.2814	1111.6293	1134.0786	1153.2714	1179.028	1301.2272	1308.4554	1328.4328	1358.5045	1389.4256	1416.8344	1441.984	1490.8066	1497.2614	1518.4828	1814.2565	2350.4589	2935.2359	3021.5616	3044.2659	3070.15	3114.8122	3127.9723	3139.5326	3150.5011
CCN1C(C=O)C1C#N	CCN1[C@@H](C=O)[C@H]1C#N	
InChI=1S/C6H8N2O/c1-2-8-5(3-7)6(8)4-9/h4-6H,2H2,1H3	InChI=1S/C6H8N2O/c1-2-8-5(3-7)6(8)4-9/h4-6H,2H2,1H3/t5-,6+,8?/m1/s1
