20
gdb 96307	2.09259	1.53466	0.97732	2.0132	75.46	-0.2286	-0.0169	0.2117	1220.4187	0.172285	-440.299515	-440.290825	-440.289881	-440.333016	33.478	
O	-0.1666838627	 1.4766663905	-0.3329381143	-0.435331
C	-0.0142986114	 0.0738545274	-0.1594078922	 0.11288
C	-1.2257294111	-0.3688655338	 0.6604582182	-0.153024
C	-1.3237540874	-1.8722314683	 0.9374926629	-0.188059
N	-1.4857787996	-2.6558442353	-0.2915430189	-0.291964
C	-0.2450953662	-3.1384509176	-0.8715372359	-0.265233
C	 0.6630956058	-2.0346915241	-1.4184258579	 0.369787
O	 1.8047801027	-2.2936690539	-1.7246957436	-0.307062
C	 0.1000360506	-0.6299866037	-1.5369520118	-0.304772
H	 0.6105702189	 1.8078048326	-0.7943458258	 0.283027
H	 0.9069060676	-0.1362056541	 0.4100407797	 0.074947
H	-1.2036780869	 0.1756183349	 1.6110960201	 0.102585
H	-2.1263401794	-0.0494536496	 0.1240826655	 0.112065
H	-0.4501730825	-2.210193402	 1.5240858256	 0.08878
H	-2.2025831719	-2.0405076525	 1.5679108393	 0.104176
H	-2.1035010519	-3.4392602098	-0.1251730338	 0.226383
H	 0.3779772266	-3.737686376	-0.1833970069	 0.111699
H	-0.4819147024	-3.7892051067	-1.7230566821	 0.130783
H	-0.8869484731	-0.6451860412	-2.0094670995	 0.125901
H	 0.7971897242	-0.0667077166	-2.1644599286	 0.102434
57.3658	130.4743	186.9057	279.5632	305.5761	319.968	337.8755	382.6515	445.8812	486.934	522.2214	532.1643	587.2636	722.116	817.5885	821.6043	882.0307	900.9562	928.1829	1006.8465	1023.704	1064.1402	1085.2589	1104.1753	1139.9094	1175.7262	1214.6018	1244.8244	1258.1751	1288.2194	1297.4099	1311.8195	1343.1853	1368.8553	1386.2117	1411.5861	1436.8146	1457.0534	1461.6239	1483.0714	1484.3443	1499.0408	1805.3849	2940.0437	2946.9747	2956.4928	3039.3274	3048.3392	3050.0364	3071.3751	3086.7527	3110.1737	3559.5898	3815.8233
OC1CCNCC(=O)C1	O[C@H]1CCNCC(=O)C1	
InChI=1S/C6H11NO2/c8-5-1-2-7-4-6(9)3-5/h5,7-8H,1-4H2	InChI=1S/C6H11NO2/c8-5-1-2-7-4-6(9)3-5/h5,7-8H,1-4H2/t5-/m0/s1
