21
gdb 101282	2.15552	1.30696	0.93114	4.3932	84.77	-0.2141	0.0298	0.2439	1331.5932	0.181678	-383.25253	-383.242491	-383.241546	-383.288097	36.442	
C	-0.1760431154	 1.6861202854	 0.175445034	-0.390888
C	-0.0476329973	 0.1632884038	 0.1135907018	-0.141773
N	-1.3334269841	-0.5061724319	-0.0981731046	-0.066683
C	-1.8473698777	-0.318599076	-1.4507608887	-0.336912
C	-1.4184084321	-1.8805181088	 0.3035302293	 0.080938
C	-0.2687098958	-2.816216428	 0.5681692589	-0.324397
C	-1.1797903348	-2.3929446624	 1.7251105118	-0.20974
C	-0.6798188218	-1.5608094614	 2.7795308745	 0.301541
N	-0.2909623364	-0.8976168442	 3.6454132749	-0.352264
H	 0.7939531885	 2.1276234126	 0.4232940235	 0.119119
H	-0.4984909548	 2.1201463051	-0.7752235211	 0.116546
H	-0.8944504181	 1.9734226311	 0.9478111031	 0.135599
H	 0.6808006808	-0.1215794275	-0.6690404985	 0.078432
H	 0.3642283652	-0.1705774981	 1.0673750995	 0.131957
H	-1.2057942374	-0.7721395733	-2.2286179507	 0.098943
H	-2.8468894102	-0.7555143761	-1.5332556906	 0.122049
H	-1.9382609215	 0.747262133	-1.6691224032	 0.128584
H	-2.2895604032	-2.3521102688	-0.1396981539	 0.10646
H	-0.3271752047	-3.8492569266	 0.2437453088	 0.125962
H	 0.7327736189	-2.4038157357	 0.5790393032	 0.142404
H	-1.896011858	-3.1292546821	 2.0752986579	 0.134123
49.7231	57.7347	139.7735	170.8766	206.3304	214.0614	239.784	312.2142	351.3382	403.0981	414.3784	507.0551	563.298	662.8625	733.5535	740.8778	812.3517	829.0535	881.9923	954.8521	987.4404	1045.3074	1062.5281	1077.5481	1102.0618	1117.0012	1121.7443	1155.384	1159.9925	1204.6925	1228.1678	1302.9868	1352.0688	1373.0947	1402.8431	1417.2736	1430.5531	1467.3602	1484.4376	1487.2028	1494.4958	1501.9841	1508.2808	1515.2926	2344.8072	2923.3939	2938.7235	3045.6313	3075.9393	3102.4561	3118.4053	3122.4174	3129.5173	3142.9216	3155.9996	3165.2639	3236.817
CCN(C)C1CC1C#N	CCN(C)[C@H]1C[C@H]1C#N	
InChI=1S/C7H12N2/c1-3-9(2)7-4-6(7)5-8/h6-7H,3-4H2,1-2H3	InChI=1S/C7H12N2/c1-3-9(2)7-4-6(7)5-8/h6-7H,3-4H2,1-2H3/t6-,7-/m0/s1
