16
gdb 45553	3.39424	1.51983	1.29842	3.7215	65.03	-0.2568	0.0548	0.3116	982.1558	0.127117	-475.059238	-475.052345	-475.0514	-475.091188	26.338	
N	 0.2533656065	 1.3442237538	 0.1643599773	-0.570624
C	 0.1634373386	 0.1082589227	-0.0379633843	 0.482986
O	-0.9378918048	-0.4536866706	-0.5936088353	-0.241012
C	-0.7837666191	-1.8680774915	-0.6990395457	 0.035412
C	-0.7466493338	-2.3226400122	-2.1606048516	-0.242334
C	 0.7467567763	-2.2232832672	-2.4921367965	-0.108528
O	 1.4017961766	-2.6034418219	-1.2721561975	-0.243012
C	 0.6597024918	-2.1316865144	-0.1966678696	 0.187111
O	 1.094461447	-0.8461016044	 0.2515022041	-0.260141
H	 1.1550836971	 1.5655468363	 0.5792538937	 0.234045
H	-1.561684877	-2.3491720048	-0.1029723588	 0.108331
H	-1.0832095649	-3.3610947071	-2.231503011	 0.120309
H	-1.3849443636	-1.6998119955	-2.7891252413	 0.135046
H	 1.0790504295	-2.9135961866	-3.2690570755	 0.125119
H	 1.0321247647	-1.2035177558	-2.7810287472	 0.12607
H	 0.7817476351	-2.8272691207	 0.6345781691	 0.111222
82.2441	98.8948	215.5772	352.2091	447.3221	523.7832	602.133	659.294	712.0144	720.1778	802.1045	845.8464	856.6791	896.7056	919.7494	938.2945	954.4829	997.3048	1027.9513	1035.4257	1072.9902	1132.244	1140.2375	1213.0059	1233.671	1259.0424	1298.3908	1328.0643	1347.5109	1371.5472	1394.5197	1417.0306	1473.3459	1522.4701	1802.9024	3028.0171	3068.1896	3094.1327	3113.7769	3121.2749	3136.4605	3540.9005
N=C1OC2CCOC2O1	[NH][C]1O[C@H]2CCO[C@H]2O1	
InChI=1S/C5H7NO3/c6-5-8-3-1-2-7-4(3)9-5/h3-4,6H,1-2H2	InChI=1S/C5H7NO3/c6-5-8-3-1-2-7-4(3)9-5/h3-4,6H,1-2H2/t3-,4-/m0/s1
