21
gdb 55473	3.0351	1.21962	0.94776	3.5406	80.21	-0.2265	0.0598	0.2863	1277.5198	0.186039	-420.467966	-420.459261	-420.458317	-420.502276	33.524	
N	 0.0081702755	 1.4055000236	-0.164055484	-0.568679
C	 0.0636057468	 0.0162691453	-0.0118071237	 0.432407
O	 1.1346583032	-0.5654020737	 0.0568209643	-0.40646
N	-1.1488217796	-0.625213401	 0.1025632387	-0.099931
C	-2.4468896817	 0.026152707	 0.2138160886	-0.176642
C	-3.2076626237	-0.4596879796	 1.4583586618	-0.183434
C	-3.2896355608	-1.9907692693	 1.5040087112	-0.190992
C	-1.8879375805	-2.6048158637	 1.3876437162	-0.190402
C	-1.170400398	-2.0847897815	 0.1382050962	-0.164132
H	 0.9263468865	 1.7608676207	-0.3887771177	 0.256748
H	-0.7108608021	 1.7773611013	-0.7667241791	 0.248304
H	-2.3106887094	 1.1055376043	 0.2781276772	 0.116068
H	-3.0478858137	-0.1835861756	-0.6864089622	 0.095553
H	-2.6853758831	-0.0928037048	 2.3506341234	 0.108069
H	-4.2088724137	-0.014212605	 1.4620484367	 0.094179
H	-3.7825157831	-2.3185105776	 2.425455529	 0.096132
H	-3.9126813248	-2.3468691751	 0.6711439569	 0.092401
H	-1.2943075551	-2.3461362897	 2.2731761109	 0.108195
H	-1.9453081692	-3.6980623939	 1.3439336831	 0.094777
H	-1.6901336797	-2.4566733216	-0.7597084454	 0.089789
H	-0.135439554	-2.4213110201	 0.0974973377	 0.148049
22.8114	103.0974	189.882	242.2809	300.4073	371.5477	381.2136	418.5537	444.0672	501.1008	548.8579	598.5575	612.3129	739.443	783.7329	817.3747	845.9809	861.0231	910.4509	968.2554	983.1066	1041.271	1070.4983	1083.1761	1111.4863	1158.4514	1181.1688	1194.2443	1276.3822	1286.0907	1314.2375	1319.1395	1359.2929	1377.3503	1384.3788	1390.9898	1418.5852	1465.9119	1477.3572	1484.7736	1486.8497	1492.2171	1504.0111	1621.0107	1774.228	2966.9571	2973.9376	3009.6466	3028.9488	3030.8108	3067.3882	3073.7019	3078.9076	3125.4726	3146.3416	3568.1713	3674.3837
NC(=O)N1CCCCC1	NC(=O)N1CCCCC1	
InChI=1S/C6H12N2O/c7-6(9)8-4-2-1-3-5-8/h1-5H2,(H2,7,9)	InChI=1S/C6H12N2O/c7-6(9)8-4-2-1-3-5-8/h1-5H2,(H2,7,9)
