21
gdb 15831	4.53797	0.94336	0.83329	1.6892	75.33	-0.2451	0.0718	0.3169	1430.5624	0.187774	-366.237218	-366.227606	-366.226662	-366.272165	34.474	
C	-0.4091104922	 1.4415191087	 0.2148199475	-0.383316
C	 0.0654822307	 0.0049170598	-0.0162898724	-0.165191
C	 0.7688218161	-0.5989986465	 1.2032142412	-0.180235
C	 1.308280768	-2.0140499738	 0.9595080409	 0.088662
O	 2.2247427923	-2.0531658187	-0.1363112603	-0.430002
C	 1.9227400445	-2.6066224292	 2.2107691372	 0.003959
C	 1.1596341754	-3.5768739189	 3.0359106771	-0.241974
N	 2.310765598	-4.0222142504	 2.2351742571	-0.319201
H	 0.4312640007	 2.1042173324	 0.4507799243	 0.111966
H	-0.9085080875	 1.8429156973	-0.6724969603	 0.11302
H	-1.1170184657	 1.4991442492	 1.0494600882	 0.111944
H	-0.7920891727	-0.626493487	-0.2845967666	 0.092947
H	 0.7496048603	-0.0346524407	-0.8704040436	 0.11136
H	 1.606868729	 0.0477588741	 1.5050477959	 0.084343
H	 0.0832275256	-0.6272961547	 2.0606493991	 0.098374
H	 0.4821902061	-2.662665967	 0.6364091741	 0.076978
H	 3.0233881902	-1.5845475308	 0.1320705132	 0.279663
H	 2.6375644643	-1.9540480591	 2.7144539083	 0.082607
H	 1.3054122015	-3.6151215295	 4.111691159	 0.118473
H	 0.1569495917	-3.8407905781	 2.7074454767	 0.110012
H	 1.9948261038	-4.4695861072	 1.3771356435	 0.23561
56.8316	83.8845	104.4061	132.4995	229.6829	247.6194	271.5641	299.5796	336.068	388.2605	508.8439	557.9688	747.1153	814.2221	853.4929	865.5526	908.9824	920.7711	955.5606	980.6507	1038.9587	1056.9675	1084.7112	1107.4586	1114.7808	1139.1251	1159.3053	1195.982	1242.2946	1248.5977	1276.2184	1295.4936	1309.2546	1330.5465	1355.8311	1394.9671	1412.5296	1413.9854	1436.6276	1477.2209	1494.0305	1500.3296	1511.0402	1512.6054	2993.8716	3016.1125	3022.6537	3028.2661	3043.1072	3072.267	3094.0775	3096.9852	3101.6196	3104.638	3188.9627	3493.3019	3794.8612
CCCC(O)C1CN1	CCC[C@@H](O)[C@H]1CN1	
InChI=1S/C6H13NO/c1-2-3-6(8)5-4-7-5/h5-8H,2-4H2,1H3	InChI=1S/C6H13NO/c1-2-3-6(8)5-4-7-5/h5-8H,2-4H2,1H3/t5-,6-/m1/s1
