17
gdb 28324	4.80443	1.25802	1.01885	4.5448	75.44	-0.1959	0.045	0.2409	1156.9975	0.138611	-418.048641	-418.040981	-418.040036	-418.080967	28.484	
C	-0.0855322672	 1.4610364622	 0.0558128544	-0.483569
C	-0.0093708674	-0.0268475164	-0.0338322576	 0.281449
C	 0.0111086314	-0.8081861647	-1.1608748555	-0.247587
N	 0.1493995558	-2.1117253801	-0.6894393709	-0.044435
C	 0.0040446654	-3.4847643692	-1.1177043907	-0.205424
C	 0.3528125028	-4.1969042793	 0.2232393665	-0.100531
O	 0.1505580714	-3.2233721251	 1.2708079597	-0.269166
C	 0.145165892	-2.0164861329	 0.6621113108	 0.47933
N	 0.0707356525	-0.8073393941	 1.1261551418	-0.435157
H	 0.8061331675	 1.8751232191	 0.5397603076	 0.131642
H	-0.1750671615	 1.9098493938	-0.937365812	 0.114025
H	-0.9482788824	 1.7737272763	 0.6541205375	 0.132525
H	-0.0038289254	-0.5669530766	-2.209957635	 0.123423
H	-1.0184821678	-3.6983463214	-1.4539144928	 0.128945
H	 0.6993032671	-3.7602825192	-1.9152231994	 0.131124
H	-0.2826998999	-5.058450953	 0.4314013769	 0.134184
H	 1.4028311556	-4.5086391296	 0.2358370288	 0.129221
113.8503	131.3759	147.5629	238.9839	273.5132	318.0438	501.3443	557.3582	643.7942	671.7063	709.5502	728.5929	755.7377	851.0224	881.595	944.0779	975.4063	1016.1469	1041.6818	1063.0946	1134.8914	1157.724	1187.5867	1216.4855	1252.0959	1289.7679	1314.2535	1383.4714	1389.0773	1421.2988	1472.992	1484.4466	1493.1287	1517.6491	1538.2482	1595.8507	1632.9987	3022.6294	3031.3407	3048.1826	3084.438	3087.2747	3113.9322	3129.9061	3279.013
CC1=CN2CCOC2=N1	Cc1cn2CCOc2n1	
InChI=1S/C6H8N2O/c1-5-4-8-2-3-9-6(8)7-5/h4H,2-3H2,1H3	InChI=1S/C6H8N2O/c1-5-4-8-2-3-9-6(8)7-5/h4H,2-3H2,1H3
