16
gdb 54886	2.82467	1.57245	1.02632	4.6127	73.24	-0.2259	-0.0198	0.2062	1105.57	0.126138	-434.120852	-434.11295	-434.112006	-434.153459	30.222	
N	-0.0924819908	 1.3832824936	-0.0659898221	-0.550516
C	 0.0760074313	 0.0009161954	 0.0587611665	 0.411884
N	 1.2276125348	-0.5110908689	 0.1977956492	-0.534339
N	-1.1573253787	-0.6990720127	 0.0608643993	-0.168373
C	-2.4425864424	-0.1155090563	 0.1880347939	 0.000663
C	-3.4125363774	-1.0281568065	 0.1232511053	-0.170894
C	-2.7923283004	-2.3833059561	-0.0592365727	-0.391505
C	-1.2883230059	-2.0944687695	-0.0524119852	 0.426313
O	-0.3825972889	-2.8909302583	-0.1245610784	-0.361473
H	 0.8170442301	 1.8223177394	-0.1350410383	 0.262889
H	-0.6943354821	 1.6671127705	-0.8293504611	 0.249722
H	 1.1654559231	-1.5142248626	 0.3545844955	 0.249645
H	-2.5097315284	 0.9478274008	 0.3542102765	 0.149434
H	-4.4696338293	-0.8299969556	 0.2099333933	 0.118088
H	-3.0300894168	-3.0938426786	 0.740363819	 0.154791
H	-3.0609404583	-2.8744639445	-1.0022424907	 0.15367
82.2949	117.0574	196.0707	241.9913	383.4909	402.6234	439.8228	465.78	539.7171	582.5159	643.3943	649.5557	705.2739	711.8873	802.8128	851.619	898.0898	936.0245	956.5929	979.9919	984.5738	1112.3306	1141.8544	1150.4503	1173.102	1225.998	1248.3382	1282.6438	1393.4971	1422.3577	1434.1215	1621.9485	1673.5082	1734.9005	1832.3213	3045.1231	3078.1243	3249.9797	3276.5406	3530.6374	3534.2384	3635.0876
NC(=N)N1C=CCC1=O	NC(=N)N1C=CCC1=O	
InChI=1S/C5H7N3O/c6-5(7)8-3-1-2-4(8)9/h1,3H,2H2,(H3,6,7)	InChI=1S/C5H7N3O/c6-5(7)8-3-1-2-4(8)9/h1,3H,2H2,(H3,6,7)
