18
gdb 16422	3.33628	2.25224	1.88561	1.1802	66.67	-0.2341	0.0867	0.3208	794.2996	0.155457	-384.924205	-384.917408	-384.916464	-384.954827	27.065	
C	-0.1801004291	 1.5549086528	 0.0740936291	-0.402887
C	 0.0563312767	 0.0480540349	 0.0052561782	 0.139662
O	 0.7921378167	-0.3151469782	-1.1748183174	-0.290529
C	 2.2053138995	-0.4216275705	-1.0190377201	-0.073734
C	 2.55217498	-0.8942670404	 0.3855376536	 0.07544
C	 1.4556586584	-1.8405906049	 0.9168326111	-0.252037
C	 0.7806754232	-0.4931435215	 1.2397849918	 0.07081
O	 2.0919450799	 0.1438932684	 1.3029476751	-0.301106
H	 0.7606703691	 2.0809395413	 0.2530031097	 0.135227
H	-0.6147745896	 1.9079515265	-0.8644044006	 0.121605
H	-0.870803394	 1.8000163143	 0.8886079378	 0.108795
H	-0.9054367204	-0.4730930163	-0.094879332	 0.081399
H	 2.5453367736	-1.1348405273	-1.7792677852	 0.104507
H	 2.7018996121	 0.5435781332	-1.1992274074	 0.101734
H	 3.6103713432	-1.1358441874	 0.5154101264	 0.079882
H	 0.9629268632	-2.5121640469	 0.2122390129	 0.112921
H	 1.7706816622	-2.3695030737	 1.8166332801	 0.109777
H	 0.2062779051	-0.3665683643	 2.1614436469	 0.078535
143.3249	221.0866	234.4676	352.1188	378.476	431.1756	463.0783	594.8866	680.7925	772.645	836.0654	860.7575	885.987	904.9622	920.181	966.288	984.5795	1028.718	1031.8389	1074.6648	1102.3225	1109.3799	1130.6093	1178.5447	1211.7029	1251.1955	1255.7728	1307.8314	1329.964	1347.9215	1357.8146	1372.6306	1398.2752	1403.3266	1479.9849	1484.9069	1493.6553	1503.549	2994.9532	3017.8638	3040.6581	3058.4451	3075.4624	3079.3832	3089.2761	3111.2297	3135.3262	3149.7256
CC1OCC2CC1O2	C[C@H]1OC[C@@H]2C[C@H]1O2	
InChI=1S/C6H10O2/c1-4-6-2-5(8-6)3-7-4/h4-6H,2-3H2,1H3	InChI=1S/C6H10O2/c1-4-6-2-5(8-6)3-7-4/h4-6H,2-3H2,1H3/t4-,5+,6-/m1/s1
