21
gdb 120865	3.35816	0.61912	0.56496	1.344	76.33	-0.2626	0.0775	0.3401	1977.4612	0.180199	-461.328216	-461.317492	-461.316547	-461.365407	37.279	
O	-0.0283066214	 1.3565427311	 0.3648043075	-0.421911
C	-0.1592635835	-0.0511294593	 0.4858878477	-0.065046
C	-1.26917219	-0.4943700961	-0.4635341614	-0.217104
C	-1.450467668	-1.9913340737	-0.4459019458	 0.050781
O	-2.0534085059	-2.570808389	 0.7209889876	-0.268991
C	-2.7411368771	-2.6956607418	-0.532949987	 0.050786
C	-4.0909491667	-2.034233216	-0.6538517817	-0.217114
C	-5.1552440671	-2.7774696316	 0.1490470863	-0.065041
O	-6.3925682564	-2.1165134989	-0.0642879826	-0.421911
H	 0.628075907	 1.6532692087	 1.0016547625	 0.286464
H	 0.7816753431	-0.5641564967	 0.2257510154	 0.082725
H	-0.4223947911	-0.3477138814	 1.5121282054	 0.105224
H	-2.1924885941	 0.0178465174	-0.1824783652	 0.117192
H	-1.012351352	-0.1728237879	-1.480512162	 0.110707
H	-0.5760689564	-2.5484092304	-0.7935837087	 0.085466
H	-2.7067075854	-3.7110977726	-0.9372959892	 0.085465
H	-4.0547161798	-0.9983504201	-0.3081568837	 0.117188
H	-4.3926984449	-2.0175772916	-1.7084902511	 0.110707
H	-5.2024148457	-3.8297411421	-0.1776564172	 0.082724
H	-4.8719526251	-2.7758212244	 1.2121124038	 0.105226
H	-7.0586696595	-2.5412573036	 0.4837656095	 0.286464
52.4828	80.6705	83.0516	93.7103	132.1819	169.3097	261.615	261.7432	272.1785	334.9657	370.5175	498.5731	504.8927	547.3889	759.138	802.5865	833.1138	864.6145	941.4388	1012.1758	1020.1273	1039.3328	1074.1085	1076.0104	1108.3349	1109.6221	1167.6418	1179.6776	1227.5567	1232.7854	1245.3103	1246.3393	1301.7425	1308.9804	1319.7099	1321.9033	1339.6743	1418.0289	1461.4705	1464.1175	1472.9773	1483.3768	1501.4755	1529.4248	1529.9441	2963.1139	2963.3002	3007.3148	3007.7023	3040.6729	3043.9599	3061.2524	3075.1492	3101.7863	3115.268	3831.291	3831.3361
OCCC1OC1CCO	OCC[C@H]1O[C@H]1CCO	
InChI=1S/C6H12O3/c7-3-1-5-6(9-5)2-4-8/h5-8H,1-4H2	InChI=1S/C6H12O3/c7-3-1-5-6(9-5)2-4-8/h5-8H,1-4H2/t5-,6+
