13
gdb 48049	3.8887	0.71435	0.62866	2.4573	74.01	-0.2653	-0.1117	0.1536	1667.3503	0.085923	-456.512578	-456.503684	-456.50274	-456.548404	29.307	
O	-0.8218601427	 1.500839233	 0.132322212	-0.214466
C	 0.2409597176	 1.079840205	-0.2317641062	 0.084105
C	 1.4957165974	 1.9477079198	-0.416054502	 0.111626
O	 2.5232266711	 1.4149455313	-0.7805146053	-0.254301
C	 1.3534450727	 3.3488674078	-0.1358748468	 0.127162
C	 1.2344273307	 4.527502333	 0.1015188524	 0.105676
C	 1.0577389867	 5.9211323251	 0.3857792041	-0.132831
C	 1.9769128351	 6.6282385676	 1.3079296985	-0.154346
O	 2.0641953354	 6.8251975252	-0.0921367813	-0.199101
H	 0.4396343364	 0.0152140287	-0.4749542268	 0.114799
H	 0.0388618171	 6.2934492916	 0.2946842534	 0.138278
H	 1.584878815	 7.4641568154	 1.8850462273	 0.134177
H	 2.7979376675	 6.0758940667	 1.7598138706	 0.139221
32.4182	64.9731	100.5219	125.5876	155.9031	260.3984	300.1429	417.3152	528.2916	541.2105	612.6682	651.9534	707.4203	836.7786	862.4492	955.2531	1028.0061	1058.2683	1095.1949	1156.2007	1164.4348	1240.8455	1284.0494	1363.1839	1398.3935	1517.8013	1750.9658	1832.7843	2324.9892	2933.5829	3092.9323	3130.6123	3190.2956
O=CC(=O)C#CC1CO1	O=CC(=O)C#C[C@H]1CO1	
InChI=1S/C6H4O3/c7-3-5(8)1-2-6-4-9-6/h3,6H,4H2	InChI=1S/C6H4O3/c7-3-5(8)1-2-6-4-9-6/h3,6H,4H2/t6-/m0/s1
