17
gdb 109067	4.07586	1.22672	1.11276	2.5849	72.99	-0.2216	0.0079	0.2295	1106.7214	0.136088	-421.768543	-421.761068	-421.760124	-421.800774	29.124	
O	-0.0190056448	 1.4130671965	-0.075540441	-0.411793
C	-0.0429474881	-0.0015358037	-0.0747505735	-0.188415
C	-1.4464270385	-0.4793913694	 0.0989749944	 0.346159
C	-2.5654366315	 0.2608133839	 0.1602285788	-0.195976
C	-3.7366836729	-0.675697459	 0.0727317914	 0.036231
O	-3.7073222854	-1.2268914177	-1.3244661145	-0.296432
C	-3.0016139198	-2.3376625375	-0.8356024447	 0.103124
C	-3.2299320972	-2.0519096049	 0.6013944314	-0.156437
C	-1.806536136	-1.9216028647	 0.1092279351	-0.213494
H	 0.893182557	 1.6970582592	-0.1808308175	 0.290335
H	 0.3600768034	-0.4146970855	-1.0165860662	 0.103957
H	 0.5862364699	-0.4134141288	 0.7347755271	 0.094658
H	-2.6230868595	 1.3350519838	 0.0633514589	 0.116084
H	-4.7349926292	-0.3149417516	 0.3126335729	 0.082117
H	-2.9786448773	-3.2362353344	-1.4403776231	 0.109691
H	-3.5796446035	-2.6381802109	 1.4414138722	 0.098625
H	-1.0852568265	-2.6993668951	 0.3344480483	 0.081566
70.4342	161.5733	194.0631	228.9985	392.3352	416.1812	486.55	597.7163	689.2251	699.1326	721.6684	778.287	788.607	821.9452	842.3498	879.7215	938.6875	954.1773	990.1233	1035.9575	1036.7285	1053.7366	1073.0255	1082.7964	1111.8661	1167.5004	1202.1416	1212.4832	1233.5394	1248.2787	1276.918	1304.8097	1344.1519	1381.0561	1467.8799	1505.0082	1671.4528	2938.47	2952.4271	3138.0905	3176.9892	3183.8722	3199.2934	3245.6756	3839.6075
OCC1=CC2OC3C2C13	OCC1=C[C@H]2O[C@@H]3[C@H]2[C@H]13	
InChI=1S/C7H8O2/c8-2-3-1-4-6-5(3)7(6)9-4/h1,4-8H,2H2	InChI=1S/C7H8O2/c8-2-3-1-4-6-5(3)7(6)9-4/h1,4-8H,2H2/t4-,5+,6-,7+/m1/s1
