20
gdb 57973	3.63775	0.79297	0.69578	1.7617	83.53	-0.2676	0.0217	0.2893	1658.3969	0.167579	-403.121561	-403.110964	-403.11002	-403.158043	37.836	
C	 0.0621759195	 0.6334338729	-0.8389373799	-0.38955
C	 0.0293683247	-0.2936007826	 0.3927668793	-0.043026
C	 0.5994982469	 0.3928256309	 1.6353317701	-0.380087
C	-1.3821418558	-0.7977695729	 0.6175073917	 0.436676
N	-2.0994157008	-0.4195825919	 1.5911876813	-0.531521
O	-1.713281578	-1.6693789306	-0.3832199886	-0.245993
C	-3.0307595904	-2.2154711471	-0.3721944146	-0.268024
C	-3.1912818595	-3.0938091051	-1.5199101973	 0.279078
C	-3.3573813274	-3.8252547637	-2.4569096821	-0.387632
H	 1.0898130659	 0.9436195932	-1.0506895453	 0.115417
H	-0.3348827554	 0.1303929225	-1.7238249645	 0.128368
H	-0.5322855452	 1.5352369536	-0.6572796132	 0.122625
H	 0.6342553062	-1.1783798553	 0.1562258283	 0.095956
H	 0.0061104452	 1.2714292405	 1.9004035271	 0.132718
H	 0.5950049573	-0.2775153158	 2.498323031	 0.120262
H	 1.6297684901	 0.7106237946	 1.4464232887	 0.103283
H	-3.0311854774	-0.8294590187	 1.6013117655	 0.222429
H	-3.1976919506	-2.7757016515	 0.5590319339	 0.141335
H	-3.7740692838	-1.4061185328	-0.4074223181	 0.141418
H	-3.4989043913	-4.4716848803	-3.2877217833	 0.206268
34.7957	73.3381	103.6732	122.6048	214.3102	226.7023	240.8217	291.8492	330.1573	336.012	338.988	429.7216	535.8713	620.4004	623.579	684.2188	703.6712	821.6188	852.3042	919.6827	935.0838	971.6066	986.147	1006.9713	1039.2519	1112.0223	1124.4708	1136.9171	1194.9562	1252.9168	1270.1954	1331.4731	1374.6757	1394.5553	1412.0346	1422.5131	1484.8473	1488.0673	1499.0323	1501.206	1513.4263	1730.0186	2252.5806	2994.1117	3025.3546	3027.3257	3037.7745	3045.2056	3106.0411	3115.8111	3124.8884	3128.1165	3505.3993	3509.3818
CC(C)C(=N)OCC#C	CC(C)[C]([NH])OCC#C	
InChI=1S/C7H11NO/c1-4-5-9-7(8)6(2)3/h1,6,8H,5H2,2-3H3	InChI=1S/C7H11NO/c1-4-5-9-7(8)6(2)3/h1,6,8H,5H2,2-3H3
