23
gdb 103334	2.76199	1.33443	1.08582	1.6262	85.46	-0.2504	0.078	0.3284	1225.3729	0.205632	-388.229473	-388.220152	-388.219208	-388.263074	36.794	
C	 0.8478956694	-0.8575151516	 1.185183415	-0.376942
C	 0.0277459847	-0.0785069114	 0.1485810938	-0.271752
C	-1.444919197	-0.5379325004	 0.0457249806	 0.406514
C	-2.2190459599	 0.1439731212	 1.1944570273	-0.525125
C	-2.0592261184	-0.5937053131	-1.4149314495	-0.173523
C	-1.166247957	-1.8484642876	-1.6689067708	-0.237109
C	-1.7613234544	-2.0548522792	-0.2486971174	-0.141359
C	-3.1173710414	-1.6220528975	-0.9282379624	 0.178777
O	-4.2848289939	-1.2581653383	-0.240883345	-0.453822
H	 1.8574983513	-0.4450081701	 1.2772327202	 0.111544
H	 0.3879251825	-0.8260196082	 2.1785485385	 0.116582
H	 0.9420978763	-1.9106898756	 0.9010044338	 0.119633
H	 0.0235238707	 0.9856451707	 0.41755039	 0.090272
H	 0.5383243583	-0.1276169849	-0.8161400915	 0.096659
H	-2.603577769	 1.1263125485	 0.8889274078	 0.113178
H	-3.0446320675	-0.4544395295	 1.580348607	 0.136619
H	-1.5509448489	 0.3299070005	 2.0408442178	 0.117497
H	-2.2200155053	 0.2483275876	-2.0939486561	 0.063875
H	-1.5153231481	-2.5329993619	-2.4458723184	 0.092257
H	-0.092959032	-1.6992581818	-1.745241214	 0.102511
H	-1.597717842	-2.9049170067	 0.4165048073	 0.067953
H	-3.4432599999	-2.332763788	-1.6932555528	 0.078167
H	-4.2035028783	-0.3588819427	 0.0820829484	 0.287594
83.8673	131.5075	162.8661	209.1976	228.9838	274.829	354.0374	380.3897	398.1851	446.645	469.5642	541.3134	635.8394	653.9729	761.5857	789.7752	801.8267	856.897	884.0956	891.933	927.3286	992.2285	1015.6157	1020.1337	1045.4269	1046.7912	1083.768	1090.569	1099.2172	1137.2925	1164.0059	1186.273	1197.7343	1212.7956	1230.1664	1246.7957	1278.7182	1307.3002	1331.6544	1361.8307	1407.3615	1417.3111	1469.4959	1492.8926	1496.6414	1504.4059	1513.6422	1535.6987	1549.0381	3020.5164	3027.07	3033.9791	3060.0843	3069.0545	3077.0791	3082.5016	3088.5098	3097.0122	3103.394	3104.9278	3134.2147	3170.327	3874.0651
CCC1(C)C2CC1C2O	CC[C@@]1(C)[C@H]2C[C@@H]1[C@H]2O	
InChI=1S/C8H14O/c1-3-8(2)5-4-6(8)7(5)9/h5-7,9H,3-4H2,1-2H3	InChI=1S/C8H14O/c1-3-8(2)5-4-6(8)7(5)9/h5-7,9H,3-4H2,1-2H3/t5-,6+,7-,8-
