20
gdb 18363	3.16273	2.09036	1.53762	1.8065	73.49	-0.241	0.0795	0.3206	900.5512	0.1792	-349.00857	-349.001258	-349.000314	-349.039903	28.753	
C	-0.160755654	 1.5477324645	-0.0518543874	-0.412621
C	 0.0956525205	 0.0409382674	-0.0490150119	 0.036017
C	 0.9966729668	-0.4728595834	-1.1941989583	-0.219113
C	 1.3968127692	-1.889929788	-0.7439766435	-0.226762
C	 1.5899590361	-1.7546938316	 0.7658062858	 0.132766
O	 2.8304288907	-1.0878834465	 1.1051289748	-0.298438
C	 2.1293426199	 0.0547692228	 1.6362768804	-0.082248
C	 0.7578404163	-0.5231361678	 1.225160419	-0.073816
H	 0.7722044734	 2.115763636	 0.0289644336	 0.116358
H	-0.6531109648	 1.8580395328	-0.9794233258	 0.114961
H	-0.8064406851	 1.8457507306	 0.7813853831	 0.111579
H	-0.874950379	-0.467482658	-0.1425691083	 0.071514
H	 0.4932259954	-0.4534130275	-2.1650184417	 0.092071
H	 1.890324482	 0.1569349499	-1.2785009522	 0.107936
H	 0.5832894871	-2.5996494024	-0.9414636538	 0.093173
H	 2.2986193203	-2.2708654	-1.2316396576	 0.10724
H	 1.4842037313	-2.6962239875	 1.315948155	 0.065913
H	 2.2779926873	 0.1551825805	 2.7192655715	 0.096224
H	 2.4422980912	 0.9882524402	 1.1522303733	 0.097613
H	 0.0528321754	-0.6587129021	 2.0468144641	 0.069635
113.7446	185.3893	221.6379	243.8299	320.8925	375.111	497.3189	539.0412	617.9412	767.8798	812.643	840.6477	873.2773	893.4813	932.0391	949.5544	974.2554	982.5566	1024.2237	1030.354	1043.6173	1088.5833	1127.5828	1147.2002	1165.3775	1200.2385	1202.6521	1231.2572	1280.5867	1303.9676	1313.9421	1337.0497	1338.3803	1360.3741	1375.8532	1378.4584	1411.5406	1469.6444	1493.9127	1496.8127	1499.5443	1526.3815	2995.512	3007.6359	3027.2196	3029.5089	3040.2141	3046.2917	3047.93	3088.8148	3094.4634	3095.9857	3096.9014	3100.4636
CC1CCC2OCC12	C[C@H]1CC[C@H]2OC[C@@H]12	
InChI=1S/C7H12O/c1-5-2-3-7-6(5)4-8-7/h5-7H,2-4H2,1H3	InChI=1S/C7H12O/c1-5-2-3-7-6(5)4-8-7/h5-7H,2-4H2,1H3/t5-,6-,7+/m0/s1
