22
gdb 98840	3.10183	1.04551	0.8339	3.5284	84.59	-0.2318	0.0338	0.2657	1464.3411	0.19292	-404.381397	-404.371034	-404.370089	-404.418004	36.548	
C	 0.0853258347	 1.5225618896	-0.147859251	-0.369868
C	-0.0237763385	 0.0070113984	 0.0066874111	-0.295208
C	-1.4721398836	-0.4763125808	-0.0170833847	 0.378978
O	-2.4153741429	 0.2461591005	-0.3006374771	-0.381979
N	-1.65233866	-1.7834336234	 0.3136466261	-0.077064
C	-0.7448044649	-2.9316950757	 0.3978542005	-0.175431
C	-1.991539811	-3.8596489702	 0.3851327006	-0.265862
C	-2.8727490775	-2.5924414812	 0.1583143633	 0.072559
C	-3.9843100596	-2.3026325117	 1.1539433742	-0.400254
H	 1.1334477626	 1.834545919	-0.1699438786	 0.102999
H	-0.4001008871	 1.8512445398	-1.0692713592	 0.135952
H	-0.4117307635	 2.0354290625	 0.679660958	 0.128152
H	 0.5179420082	-0.5023149824	-0.8026504212	 0.117194
H	 0.4512763637	-0.3313835087	 0.9360696086	 0.114076
H	-0.0859665245	-3.0417022889	-0.4725343852	 0.111318
H	-0.1300710884	-2.9617222771	 1.3043313835	 0.113673
H	-2.0149680042	-4.6024866506	-0.4124112227	 0.113737
H	-2.1818379647	-4.3525553258	 1.3403325425	 0.113172
H	-3.2652946441	-2.5199749013	-0.8640317671	 0.088416
H	-3.6149936419	-2.3741463054	 2.1823395461	 0.109944
H	-4.3746239281	-1.2950766652	 0.9931823943	 0.152527
H	-4.8020183747	-3.0207713914	 1.0285402981	 0.112967
33.5898	76.6399	86.1698	124.386	138.6774	196.907	236.3219	264.5223	307.7746	404.5629	443.0998	541.3906	580.681	699.5382	762.5233	810.6044	812.2282	885.6548	923.7332	941.2534	960.0966	1010.8049	1075.4571	1095.3753	1103.901	1117.5222	1149.9333	1178.4122	1191.2569	1228.4243	1265.0551	1281.5916	1291.1851	1324.4169	1336.3104	1380.9822	1401.8475	1411.8306	1440.6964	1462.0221	1483.2204	1488.8365	1490.5318	1499.5926	1503.7978	1522.899	1752.5916	3014.8163	3016.9556	3022.8141	3034.471	3050.1623	3052.2163	3057.5552	3084.1223	3102.8335	3120.4154	3131.5606	3133.8695	3141.2409
CCC(=O)N1CCC1C	CCC(=O)N1CC[C@H]1C	
InChI=1S/C7H13NO/c1-3-7(9)8-5-4-6(8)2/h6H,3-5H2,1-2H3	InChI=1S/C7H13NO/c1-3-7(9)8-5-4-6(8)2/h6H,3-5H2,1-2H3/t6-/m1/s1
