18
gdb 85534	2.50354	1.7449	1.1692	4.6475	73.48	-0.2406	0.0478	0.2884	1067.9663	0.148293	-439.088295	-439.080367	-439.079423	-439.120916	30.682	
C	-0.1372391902	 1.5112794405	-0.0449167353	-0.395662
C	 0.0198604921	 0.0116583111	 0.1490105966	 0.100658
O	 0.5730754844	-0.5012289981	-1.0832607139	-0.278759
C	 0.9236278315	-1.8146790906	-1.1764230551	 0.44788
N	 0.9372038919	-2.4574362372	-2.261849543	-0.545345
O	 1.3111612852	-2.4377725023	-0.0425636903	-0.234008
C	 1.5859095913	-1.6937247591	 1.1228717711	 0.119679
C	 2.4094148621	-0.4363663223	 1.0840629915	-0.336748
C	 0.9080601356	-0.3779313475	 1.3088783274	-0.069838
H	 0.8387152561	 1.9828396105	-0.1887312045	 0.132006
H	-0.759621497	 1.7197416956	-0.9188408847	 0.132141
H	-0.6123236695	 1.9544453478	 0.8353525131	 0.122012
H	-0.9690056686	-0.4484069793	 0.2913297817	 0.095244
H	 0.5657558292	-1.8687758658	-3.0043873964	 0.225061
H	 1.7033709111	-2.3850009178	 1.9474894464	 0.118854
H	 3.0636771677	-0.2403161366	 1.9257978819	 0.123053
H	 2.7893580096	-0.1069774593	 0.1238525651	 0.143971
H	 0.5302270277	-0.1137074996	 2.2913356086	 0.099801
73.0792	128.8315	219.5917	245.0741	286.8883	372.1443	443.7217	478.1364	538.7893	614.1775	713.1709	727.6307	756.2183	795.8779	821.5543	833.714	896.2753	937.2422	1002.2612	1011.9142	1045.3456	1063.9208	1072.5867	1111.8419	1123.5202	1137.6049	1167.6311	1180.7759	1246.9431	1292.2106	1352.5787	1380.4289	1398.6705	1411.1335	1422.481	1480.9748	1485.01	1496.4464	1762.0635	2997.6822	3047.3232	3122.7564	3129.8419	3143.9612	3162.384	3197.8074	3234.5617	3528.221
CC1OC(=N)OC2CC12	C[C@H]1O[C]([NH])O[C@H]2C[C@@H]12	
InChI=1S/C6H9NO2/c1-3-4-2-5(4)9-6(7)8-3/h3-5,7H,2H2,1H3	InChI=1S/C6H9NO2/c1-3-4-2-5(4)9-6(7)8-3/h3-5,7H,2H2,1H3/t3-,4+,5+/m1/s1
