15
gdb 29676	2.39577	1.99751	1.09675	2.8322	70.55	-0.2486	-0.044	0.2046	1027.9139	0.11406	-454.005867	-453.99811	-453.997166	-454.038375	28.716	
C	-0.208043142	 1.4179002847	-0.0147161127	-0.334654
N	-0.0322447478	-0.0354661355	-0.0047925644	-0.209701
C	 0.015958263	-0.6598080846	-1.2401133265	 0.47759
N	-0.0856301025	-0.0145498943	-2.323270124	-0.562391
O	 0.1811535976	-2.0332858065	-1.2408317604	-0.2285
C	 0.2902006989	-2.7187484306	-0.0801315425	 0.075744
C	 0.2481945963	-2.1439352518	 1.1217951779	-0.27003
C	 0.0760432449	-0.6969522477	 1.231972528	 0.437912
O	 0.0271498431	-0.0947001245	 2.2849767445	-0.374846
H	 0.6155107833	 1.8880161164	-0.5563676676	 0.148828
H	-1.1397393171	 1.6755692436	-0.5227019166	 0.148974
H	-0.2273740487	 1.7444567656	 1.0224031701	 0.166612
H	-0.0274464544	-0.6448678072	-3.119475396	 0.233572
H	 0.4138809541	-3.7790753619	-0.2642371192	 0.152307
H	 0.3379444513	-2.7159750957	 2.0333471695	 0.138583
91.3422	139.2201	153.91	223.5981	354.3147	402.6259	409.001	507.8554	529.9116	571.0539	697.6344	711.5905	741.8036	809.003	832.9462	859.9806	948.7773	966.0464	1040.0566	1060.3003	1162.0028	1165.373	1194.5682	1279.2836	1330.3294	1390.5907	1420.46	1453.2404	1490.2919	1506.911	1687.5306	1749.5411	1793.2175	3066.5525	3130.6308	3189.9195	3216.046	3253.9641	3535.0471
CN1C(=N)OC=CC1=O	CN1[C]([NH])OC=CC1=O	
InChI=1S/C5H6N2O2/c1-7-4(8)2-3-9-5(7)6/h2-3,6H,1H3	InChI=1S/C5H6N2O2/c1-7-4(8)2-3-9-5(7)6/h2-3,6H,1H3
