23
gdb 60839	1.82325	1.46804	1.10242	2.3936	86.05	-0.2408	-0.0228	0.218	1275.1035	0.202512	-388.296428	-388.285606	-388.284662	-388.332689	39.474	
C	 0.283313306	 1.4565853406	 0.2972960409	-0.423146
C	-0.0763289029	-0.0087205587	 0.0080650081	-0.128293
C	-1.5851444885	-0.1792195197	-0.1122201803	 0.162282
O	-2.1988700392	-1.1471313507	 0.2581818725	-0.254371
C	 0.6064787103	-0.5530950831	-1.2579235691	 0.362396
C	 0.2248187176	 0.133306681	-2.5613827748	-0.477354
C	 2.0433444275	-1.0176070479	-1.1311733834	-0.349833
C	 0.9411761039	-2.0298443129	-1.3511937135	-0.029908
C	 0.5930900885	-3.0582889265	-0.2938860407	-0.417929
H	 1.3689503567	 1.5834388621	 0.3310308534	 0.127761
H	-0.1089383017	 2.1302439561	-0.4715477996	 0.123854
H	-0.1269227007	 1.7796606946	 1.2594398159	 0.121209
H	 0.2295999825	-0.6292087509	 0.8545016845	 0.093818
H	-2.1161438289	 0.6764409028	-0.5936595643	 0.071098
H	 0.4556141069	 1.2039558393	-2.5456019326	 0.118008
H	 0.7773311477	-0.3046108174	-3.397799863	 0.118444
H	-0.8426553521	 0.0239629964	-2.7850855836	 0.120643
H	 2.7302319264	-0.7910669261	-1.9404226009	 0.106867
H	 2.4988949277	-0.9921180109	-0.1454577721	 0.106426
H	 0.8736393132	-2.4222949232	-2.3636270986	 0.080914
H	 0.828701997	-2.7105676106	 0.7154870689	 0.115472
H	-0.4709914192	-3.311089796	-0.312286415	 0.139799
H	 1.1688546214	-3.9754247683	-0.4600187427	 0.111843
28.9112	76.4514	148.3863	191.5338	199.8794	208.7425	226.5625	263.2477	280.1041	293.3558	380.8054	430.4013	443.9528	493.1258	551.047	691.415	778.7972	870.9297	879.4742	908.0893	931.6899	957.8199	973.5944	1024.9781	1046.2645	1061.329	1095.0583	1129.6169	1131.6193	1136.2226	1153.8992	1189.2673	1245.8439	1292.3122	1315.2656	1354.5308	1405.3502	1410.4301	1420.1097	1430.6693	1434.5756	1486.4534	1492.4399	1493.7408	1496.1651	1501.1374	1503.8705	1508.3766	1828.8037	2845.2915	3027.1282	3037.6883	3038.0672	3074.6391	3087.3451	3099.3442	3101.0789	3106.0189	3113.4517	3115.5717	3118.7769	3129.6391	3201.6233
CC(C=O)C1(C)CC1C	C[C@@H](C=O)[C@@]1(C)C[C@H]1C	
InChI=1S/C8H14O/c1-6-4-8(6,3)7(2)5-9/h5-7H,4H2,1-3H3	InChI=1S/C8H14O/c1-6-4-8(6,3)7(2)5-9/h5-7H,4H2,1-3H3/t6-,7+,8+/m1/s1
