21
gdb 94045	4.9881	0.81529	0.74152	2.2668	85.07	-0.2404	0.0579	0.2983	1569.9335	0.181446	-387.069962	-387.060332	-387.059388	-387.105246	35.566	
C	-0.6340674191	 1.3730961345	 0.0263511935	-0.412369
C	 0.1459580236	 0.0621700637	-0.0213645683	 0.014902
C	 1.2305377	 0.0035424478	-1.1057302574	-0.068734
O	 2.1650771147	-0.9872557908	-0.6923328824	-0.272024
C	 2.0107628812	-1.2648035863	 0.7024619893	 0.145362
C	 3.3765968486	-1.1833492908	 1.4050881409	-0.368052
C	 4.3197119339	-2.2045758193	 0.9680017485	 0.308212
C	 5.0869216208	-3.0600112469	 0.6166111988	-0.441374
C	 0.9829190426	-0.2526214988	 1.2285914021	-0.258379
H	 0.0364359382	 2.2226127694	 0.2001414695	 0.116688
H	-1.166339622	 1.5544598563	-0.9134965334	 0.118551
H	-1.3772737183	 1.3638852102	 0.8299122134	 0.118591
H	-0.5525661733	-0.7678656061	-0.1893989307	 0.081078
H	 0.8416688726	-0.27312017	-2.0917887172	 0.103842
H	 1.7290817663	 0.9823606331	-1.2026599711	 0.084547
H	 1.6274451639	-2.2901118611	 0.8086263577	 0.08108
H	 3.7955041072	-0.1847732337	 1.2283477949	 0.128899
H	 3.2158578947	-1.2732132113	 2.487865318	 0.125093
H	 5.7679565092	-3.8091839306	 0.2976217851	 0.192245
H	 1.4891354222	 0.657386513	 1.5772169243	 0.097323
H	 0.3942049729	-0.6472375224	 2.0607544945	 0.104517
37.4421	69.4433	111.2195	167.0714	226.715	262.7064	337.7499	349.1369	389.6917	426.7213	487.7893	572.795	612.5721	634.4753	675.9634	825.3875	861.0831	883.6842	929.1616	957.6727	970.7011	975.4715	1014.7309	1074.1049	1083.0376	1129.7565	1144.143	1165.9164	1199.9443	1238.1612	1269.4451	1271.4529	1318.642	1334.2432	1356.9808	1371.5296	1394.1649	1409.6736	1416.4879	1455.1569	1491.7652	1497.0971	1501.6082	1529.349	2241.4977	2964.8805	2992.5322	3015.3235	3017.9553	3027.1965	3031.473	3057.223	3061.0007	3094.5893	3099.7558	3101.9429	3508.3903
CC1COC(CC#C)C1	C[C@H]1CO[C@@H](CC#C)C1	
InChI=1S/C8H12O/c1-3-4-8-5-7(2)6-9-8/h1,7-8H,4-6H2,2H3	InChI=1S/C8H12O/c1-3-4-8-5-7(2)6-9-8/h1,7-8H,4-6H2,2H3/t7-,8+/m1/s1
