16
gdb 14235	4.79	1.71875	1.51815	0.9097	63.73	-0.242	0.0751	0.317	840.7025	0.130532	-383.675487	-383.668674	-383.66773	-383.705922	27.579	
O	 0.1718386991	 1.2961972682	 0.1660163235	-0.444924
C	 0.0811833158	-0.0994529274	-0.0143651295	 0.160576
C	-1.3448305227	-0.6341008792	-0.1185476365	-0.187492
C	-1.3215786052	-0.5222892067	-1.6432020736	-0.156706
C	 0.2565900131	-0.5814471121	-1.4853376069	-0.105741
C	 0.1575919858	-2.1311421424	-1.400471239	-0.303832
C	-1.3009424789	-1.8842836624	-1.0188996825	 0.397221
O	-2.3407121045	-2.7887519288	-1.049544048	-0.462781
H	-0.4933464719	 1.7035282768	-0.4021727162	 0.278274
H	 0.7557642456	-0.5356499114	 0.7305235987	 0.078363
H	-2.1845084484	-0.4674377952	 0.5457399931	 0.088633
H	-1.9979747803	-0.0716181449	-2.3540206304	 0.099581
H	 0.9847751923	-0.0948028047	-2.1305184959	 0.078632
H	 0.2284266241	-2.6031171316	-2.3845273269	 0.106608
H	 0.8204881993	-2.6423873878	-0.6914700096	 0.086659
H	-2.3437564933	-3.2791614702	-0.2199097202	 0.286927
188.2888	251.6236	298.9384	333.4689	366.1677	403.6774	450.1568	489.8224	626.0927	747.2535	790.6788	825.8796	851.8026	892.9057	922.5389	925.3977	938.234	985.9755	1017.3441	1036.5684	1091.0135	1111.594	1118.501	1143.2122	1181.5103	1218.0474	1243.8441	1267.2391	1282.519	1300.9337	1308.8904	1429.7357	1440.4836	1506.1133	3025.4195	3053.0872	3096.4755	3143.9746	3189.5543	3230.3258	3779.8825	3791.8645
OC1C2C3C1CC23O	O[C@H]1[C@H]2[C@H]3[C@@H]1C[C@@]23O	
InChI=1S/C6H8O2/c7-5-2-1-6(8)3(2)4(5)6/h2-5,7-8H,1H2	InChI=1S/C6H8O2/c7-5-2-1-6(8)3(2)4(5)6/h2-5,7-8H,1H2/t2-,3+,4+,5+,6-/m0/s1
