17
gdb 117477	6.07707	0.58945	0.56533	3.54	68.15	-0.2658	-0.0376	0.2283	1918.5478	0.131259	-496.115419	-496.105031	-496.104087	-496.153737	33.578	
C	-0.2419462056	 1.3673832106	 0.2944387415	-0.226788
O	-0.1563905859	-0.0336568445	 0.4306478182	-0.212172
C	-1.2058308615	-0.6990331371	-0.1999252754	-0.171576
C	-1.0269354955	-2.1963828041	-0.0270157075	 0.417568
O	-0.1164617725	-2.7486959045	 0.5200739576	-0.318771
O	-2.0827383233	-2.8275076946	-0.6097085696	-0.250585
C	-2.0913435626	-4.2559910069	-0.5638599109	-0.173328
C	-3.2834781544	-4.7347722437	 0.2450654968	 0.146305
O	-3.7505149481	-5.8365607173	 0.1443597803	-0.225862
H	 0.6167559936	 1.7929795261	 0.817276912	 0.138801
H	-0.2079055809	 1.677135207	-0.7617534581	 0.109461
H	-1.1665681483	 1.7654467668	 0.7408939331	 0.109165
H	-2.1903578417	-0.4188960616	 0.2121536071	 0.12099
H	-1.2496595259	-0.4841196394	-1.2817983956	 0.12265
H	-2.1520239213	-4.6421965122	-1.5844855704	 0.147903
H	-1.1682754512	-4.614313466	-0.0939493588	 0.174708
H	-3.6823944749	-3.9762173688	 0.9555990296	 0.091532
22.3619	52.3019	62.5246	74.6565	109.3556	155.9765	233.9245	300.4036	319.8092	365.8046	389.3112	560.899	596.1099	690.437	763.7553	916.9733	1002.21	1037.3232	1047.7649	1066.7719	1118.3345	1175.3545	1183.9271	1185.1324	1244.4425	1248.8745	1267.662	1347.4151	1406.52	1420.5556	1455.9653	1472.3545	1487.13	1491.7995	1515.8527	1844.98	1860.4256	2888.0523	2957.5685	2975.7505	2982.424	3020.616	3053.0188	3115.9978	3127.2849
COCC(=O)OCC=O	COCC(=O)OCC=O	
InChI=1S/C5H8O4/c1-8-4-5(7)9-3-2-6/h2H,3-4H2,1H3	InChI=1S/C5H8O4/c1-8-4-5(7)9-3-2-6/h2H,3-4H2,1H3
