20
gdb 59796	3.0544	0.93776	0.80306	1.7388	79.69	-0.2347	-0.0187	0.216	1490.0394	0.169599	-436.523714	-436.513148	-436.512204	-436.559296	38.795	
C	 0.3833795636	 1.8978203918	 0.1607165657	-0.377281
C	-0.0844110569	 0.4455319426	 0.2855856898	 0.051622
C	 0.2011851429	-0.3492901808	-0.9999555002	-0.377361
N	 0.5933477159	-0.1693863996	 1.4214153122	-0.31094
C	 0.0542081299	-1.159141131	 2.0267493181	 0.272835
N	-1.1174110302	-1.8091937345	 1.7787641907	-0.549498
C	 0.7873857572	-1.7767217934	 3.2161888595	 0.393208
N	 2.0049711709	-1.2426897087	 3.427375667	-0.526492
O	 0.271688939	-2.6632842018	 3.8795814856	-0.386106
H	 1.4644402094	 1.9317900704	-0.0092713447	 0.11675
H	-0.1157097884	 2.4019348492	-0.6731313454	 0.104863
H	 0.1699391333	 2.4524146858	 1.0789202127	 0.113987
H	-1.1786079769	 0.4621255941	 0.4441443851	 0.051584
H	 1.2785629153	-0.3753231505	-1.191466407	 0.122978
H	-0.1514009261	-1.3814925921	-0.9163706683	 0.119026
H	-0.2911206263	 0.1143652811	-1.8610132393	 0.110427
H	-1.8191539721	-1.3970043318	 1.1899214954	 0.259698
H	-1.4045660124	-2.4498506657	 2.505155316	 0.274725
H	 2.288868871	-0.4806787456	 2.830128096	 0.272557
H	 2.5542015708	-1.5417694896	 4.213905501	 0.263419
55.8384	92.9806	114.319	152.2666	221.5214	257.7618	276.0081	316.744	330.0634	346.5049	379.9424	436.6633	440.425	520.2953	568.493	608.4363	642.8919	685.8795	817.1523	824.4667	838.7441	929.0804	948.8614	957.1872	1104.069	1118.8318	1142.8618	1156.8053	1203.3387	1300.5885	1334.2399	1385.5695	1394.4475	1408.4896	1418.4063	1481.9946	1487.8717	1495.9358	1510.7109	1580.0641	1590.5146	1730.5808	1797.5212	2917.3301	3033.511	3037.602	3104.9231	3110.3815	3112.4866	3113.965	3573.5141	3579.2603	3720.87	3736.352
CC(C)N=C(N)C(N)=O	CC(C)N=C(N)C(=O)N	
InChI=1S/C5H11N3O/c1-3(2)8-4(6)5(7)9/h3H,1-2H3,(H2,6,8)(H2,7,9)	InChI=1S/C5H11N3O/c1-3(2)8-4(6)5(7)9/h3H,1-2H3,(H2,6,8)(H2,7,9)
