17
gdb 102957	2.74097	0.91897	0.72289	4.0347	72.82	-0.2657	-0.0086	0.257	1499.8786	0.133043	-458.940701	-458.930815	-458.929871	-458.976745	34.497	
O	 0.0386228025	 1.4811284733	 0.1625184837	-0.419427
C	 0.0050859645	 0.0781332021	 0.0710409135	-0.058173
C	-1.4229416256	-0.4802661637	-0.1808106622	-0.209509
C	-1.903023608	-0.2326109744	-1.6235034345	-0.099342
O	-1.8283157824	 1.1623550429	-1.954893999	-0.194898
C	-2.979184105	 1.8470490431	-2.1445009046	 0.174443
O	-2.9970750386	 3.0177741873	-2.3646589643	-0.264049
C	-1.4798724737	-1.9132518251	 0.0845380774	 0.302898
C	-1.4980690036	-3.1004627961	 0.2714059012	-0.44081
H	-0.2802208861	 1.8408898355	-0.6731907853	 0.29935
H	 0.679032071	-0.310600168	-0.7097135894	 0.097079
H	 0.362544449	-0.3058423993	 1.030138038	 0.125482
H	-2.0958833192	 0.0497204273	 0.5063439832	 0.123093
H	-1.2554669357	-0.759903429	-2.3296426025	 0.139545
H	-2.9280533747	-0.5964346343	-1.7567574014	 0.128443
H	-3.8733456767	 1.1980981406	-2.0807518007	 0.091176
H	-1.5225564176	-4.1461650122	 0.4564103871	 0.204697
39.1728	66.4088	125.2805	140.1185	157.8409	200.9299	293.4922	341.5346	384.8053	439.7985	479.3661	502.7811	507.5877	647.0101	662.7834	680.7439	873.5096	901.5487	1011.0236	1033.8476	1042.403	1080.3269	1092.6712	1104.2334	1147.7372	1240.8512	1273.8075	1309.8833	1335.4401	1379.4189	1405.6095	1431.0062	1440.3046	1496.9318	1508.7607	1873.4956	2236.629	2961.7272	2975.2827	3027.6672	3042.7965	3094.5279	3103.9307	3502.3538	3801.8019
OCC(COC=O)C#C	OC[C@@H](COC=O)C#C	
InChI=1S/C6H8O3/c1-2-6(3-7)4-9-5-8/h1,5-7H,3-4H2	InChI=1S/C6H8O3/c1-2-6(3-7)4-9-5-8/h1,5-7H,3-4H2/t6-/m0/s1
