18
gdb 9645	4.28406	1.19906	1.07219	1.7745	75.56	-0.2571	0.0291	0.2862	1167.0486	0.15023	-347.759745	-347.750461	-347.749516	-347.793607	33.624	
C	-0.2993479178	 1.496494285	 0.1915490813	-0.374035
C	 0.2760744043	 0.1283262333	-0.1987138285	-0.223936
C	 1.0196007073	-0.5046189181	 0.9527820536	 0.045125
O	 0.2495797997	-1.0348687583	 2.0347268175	-0.283842
C	 1.0539755702	-1.9556598097	 1.2671803182	 0.175722
C	 0.296774239	-2.9997951257	 0.4717207333	-0.471367
C	 2.2206774075	-2.4636093941	 1.9583343416	 0.291738
C	 3.1883571836	-2.9130056304	 2.5122359207	-0.433399
H	 0.493080828	 2.1869023017	 0.4997648551	 0.11854
H	-0.8325732627	 1.9513328385	-0.6481325788	 0.115245
H	-0.9986921342	 1.3943999341	 1.0265407976	 0.13631
H	-0.5307367613	-0.5273555925	-0.5366727541	 0.105486
H	 0.9732041041	 0.2400550553	-1.0390943388	 0.105541
H	 1.8885747296	 0.0670462905	 1.2878729414	 0.092907
H	-0.5947181505	-2.5746608567	 0.0095718001	 0.130887
H	 0.9373788575	-3.4250239376	-0.3068258848	 0.132152
H	-0.0140701588	-3.8130686173	 1.1339097044	 0.139014
H	 4.0436255446	-3.299965538	 3.0089177902	 0.197911
66.2794	123.1511	136.9268	158.2639	219.8453	227.4422	283.2556	366.4413	403.3744	467.3102	547.0286	587.8933	620.5038	659.9431	687.6142	759.0019	828.5742	900.133	919.9098	986.453	1033.5435	1079.6453	1104.6753	1143.4485	1160.3367	1242.2549	1289.6628	1332.4826	1348.4852	1408.0709	1411.4763	1457.4392	1472.9479	1484.5116	1497.5187	1498.3448	1509.7812	2236.3563	3032.4553	3038.094	3049.8568	3076.9004	3091.5444	3111.1332	3115.0074	3118.4381	3147.639	3502.0593
CCC1OC1(C)C#C	CC[C@H]1O[C@]1(C)C#C	
InChI=1S/C7H10O/c1-4-6-7(3,5-2)8-6/h2,6H,4H2,1,3H3	InChI=1S/C7H10O/c1-4-6-7(3,5-2)8-6/h2,6H,4H2,1,3H3/t6-,7-/m1/s1
