23
gdb 89315	2.52542	1.56972	1.20041	1.4259	85.8	-0.2317	0.0857	0.3174	1162.9378	0.204902	-388.294952	-388.285797	-388.284853	-388.32779	36.688	
C	-0.0347984631	 1.5185437735	-0.0387150013	-0.418822
C	 0.101058075	 0.0067079275	 0.0510618373	 0.130841
O	 0.9848429787	-0.4980471083	-0.9783037405	-0.330801
C	 1.9337309598	-1.281835717	-0.2215246878	 0.444124
C	 2.9326226057	-1.928550332	-1.1388525551	-0.489782
C	 2.288609557	-0.3338280341	 0.9543092874	-0.310983
C	 0.784316353	-0.5846396645	 1.3062945476	 0.282364
C	 0.1821177782	-0.2872885673	 2.6589099121	-0.505585
C	 1.0232205736	-2.0395019349	 0.780471252	-0.307913
H	 0.9094355452	 2.0283856559	 0.1718388809	 0.116875
H	-0.3517941056	 1.8008475091	-1.0470476944	 0.126694
H	-0.7909798822	 1.8799138778	 0.6664749648	 0.111793
H	-0.8928045386	-0.4464377257	-0.0825580741	 0.064734
H	 3.4766246261	-1.1693977665	-1.7096777628	 0.125563
H	 3.6553285888	-2.5179011574	-0.5674149037	 0.114183
H	 2.4280521844	-2.5903441728	-1.8497573371	 0.125609
H	 2.9622565483	-0.7868976389	 1.6851985681	 0.09222
H	 2.6166217122	 0.6773994111	 0.7027365003	 0.093583
H	 0.1953849568	 0.7865961021	 2.8759148821	 0.120086
H	-0.8604446237	-0.6235309226	 2.7099723513	 0.116483
H	 0.733911708	-0.7940775852	 3.4571443913	 0.116033
H	 0.1717693461	-2.5869729864	 0.3656867612	 0.091528
H	 1.5768928662	-2.6588371933	 1.4899197805	 0.091174
179.7728	196.8515	203.8661	207.2148	228.2391	234.0379	253.4787	360.8052	402.2171	495.9291	501.4012	530.6137	581.8803	618.9008	682.6785	795.5396	816.299	869.8547	879.8456	901.3755	930.1799	966.5286	1011.856	1022.3958	1029.9069	1056.0618	1092.8037	1117.2732	1139.5949	1151.0554	1182.2669	1204.8387	1216.7142	1261.687	1278.9539	1330.0992	1353.3773	1393.6826	1409.1893	1412.3618	1420.6261	1472.4044	1480.6427	1488.3712	1490.0584	1493.0466	1494.554	1498.0258	1517.8133	2983.8893	3023.385	3038.3015	3039.0751	3053.0362	3067.7908	3085.8858	3095.6892	3107.4327	3108.5659	3115.8286	3116.1815	3120.2689	3129.2317
CC1OC2(C)CC1(C)C2	C[C@H]1O[C@@]2(C)C[C@]1(C)C2	
InChI=1S/C8H14O/c1-6-7(2)4-8(3,5-7)9-6/h6H,4-5H2,1-3H3	InChI=1S/C8H14O/c1-6-7(2)4-8(3,5-7)9-6/h6H,4-5H2,1-3H3/t6-,7-,8+/m1/s1
