20
gdb 118303	2.79156	0.74635	0.63275	1.8435	75.13	-0.2625	0.0217	0.2842	1782.9348	0.168552	-477.39903	-477.388389	-477.387445	-477.436439	36.428	
C	 0.1775664798	 0.6357826972	-0.7395034568	-0.231233
O	-0.0632882964	-0.5128829456	 0.0423099543	-0.252128
C	-1.3391251854	-1.0854325349	-0.1773808674	-0.078552
C	-1.4652223224	-2.2381719503	 0.8134053603	 0.10517
O	-1.2526182742	-1.781654892	 2.135275382	-0.445355
C	-2.8543624781	-2.8720271928	 0.7954914213	-0.108729
O	-3.156284783	-3.4176763901	-0.4849568588	-0.18006
C	-2.8917926409	-4.726083798	-0.677224667	 0.129453
N	-2.9980999036	-5.2297631839	-1.8286403413	-0.440952
H	 1.176307914	 0.9994285551	-0.4869515056	 0.131043
H	 0.142351106	 0.406043808	-1.8147350774	 0.115104
H	-0.5564139943	 1.4292468093	-0.5313561726	 0.110769
H	-2.1302832994	-0.3407189499	 0.0136251993	 0.09135
H	-1.4450883041	-1.4449209157	-1.2106546445	 0.11783
H	-0.7207201027	-3.005899655	 0.5408041531	 0.076283
H	-0.51444267	-1.1617538669	 2.0796736243	 0.295524
H	-2.9114073643	-3.6390513785	 1.5775303608	 0.119901
H	-3.6158092711	-2.1157078798	 1.0051923934	 0.125696
H	-2.6107596493	-5.2524540135	 0.2463274454	 0.088657
H	-2.7934598306	-6.2260263128	-1.791132823	 0.230232
37.5563	63.132	92.5066	115.883	118.3582	169.104	232.1098	247.8434	347.2297	370.1173	415.8275	445.5756	475.5871	547.0852	665.0438	819.7748	871.4149	929.9779	980.1401	994.4301	1043.3174	1071.4098	1136.0942	1136.5346	1148.42	1164.6485	1186.9158	1221.1428	1236.6428	1267.2883	1287.6893	1333.1552	1362.6845	1374.0812	1409.0614	1427.5633	1460.253	1479.8025	1486.5392	1500.0199	1503.5348	1521.6665	1745.8737	2956.1345	2968.2964	2982.7747	3014.2266	3030.2109	3033.4575	3036.9292	3101.8658	3118.7086	3520.3721	3779.6562
COCC(O)COC=N	COC[C@@H](O)CO[CH][NH]	
InChI=1S/C5H11NO3/c1-8-2-5(7)3-9-4-6/h4-7H,2-3H2,1H3	InChI=1S/C5H11NO3/c1-8-2-5(7)3-9-4-6/h4-7H,2-3H2,1H3/t5-/m1/s1
