17
gdb 75050	2.95325	1.39301	0.95764	3.9365	79.32	-0.2113	-0.0637	0.1476	1193.9935	0.136705	-418.057913	-418.049469	-418.048524	-418.091467	31.553	
C	 0.0446040139	 1.5459560335	 0.1521073248	-0.491767
C	-0.0686515504	 0.0543143914	 0.0301522322	 0.384086
C	-1.2079715517	-0.5970410343	-0.2302134102	-0.200031
C	-1.2770860425	-2.0901970713	-0.3437388947	-0.383651
C	 0.0440702582	-2.8143394035	-0.1426946559	 0.332997
O	 0.1369552519	-4.0173503276	-0.2072006954	-0.309562
C	 1.299849702	-1.9945913607	 0.151518609	 0.279549
N	 2.4435315164	-2.5285578128	 0.3325644357	-0.50825
N	 1.1350899984	-0.6290018828	 0.2128387127	-0.405689
H	 0.7452582595	 1.9503567521	-0.5886530234	 0.136261
H	-0.925686778	 2.0202902969	-1.0323*^-6	 0.140341
H	 0.4167487587	 1.8337129581	 1.1430101712	 0.136244
H	-2.1209713923	-0.0307525949	-0.3655508848	 0.092355
H	-1.9845137266	-2.521374988	 0.3798677758	 0.150914
H	-1.6626805068	-2.4068986275	-1.323999196	 0.150889
H	 2.3339396547	-3.541016299	 0.2430301667	 0.240556
H	 1.9751778646	-0.1048834894	 0.4079134245	 0.254757
47.1734	106.0978	170.1829	229.9339	297.7867	371.1813	394.2361	436.5949	504.7542	540.3519	568.9316	571.4729	661.6278	675.3771	755.6038	772.693	877.5234	956.1215	960.0517	1006.7542	1070.318	1082.0452	1124.0384	1182.7132	1191.5229	1207.9366	1325.7338	1362.5998	1416.784	1428.1066	1431.5642	1477.6276	1479.983	1505.0147	1702.9813	1750.9337	1809.1796	3004.0323	3022.4466	3025.1672	3074.3722	3141.3392	3203.204	3465.6794	3616.7397
CC1=CCC(=O)C(=N)N1	CC1=CCC(=O)[C]([NH])N1	
InChI=1S/C6H8N2O/c1-4-2-3-5(9)6(7)8-4/h2H,3H2,1H3,(H2,7,8)	InChI=1S/C6H8N2O/c1-4-2-3-5(9)6(7)8-4/h2H,3H2,1H3,(H2,7,8)
