22
gdb 101189	2.95988	1.05637	0.9473	0.4971	81.51	-0.2253	0.0744	0.2997	1349.7217	0.194068	-404.29416	-404.284682	-404.283737	-404.328676	35.583	
C	 0.7143770539	 1.1301135252	-0.6281189637	-0.400259
C	-0.0713730805	-0.0722657643	-0.0844191275	-0.008995
C	-0.149285661	-1.2035640944	-1.1131456884	-0.072236
O	-0.8404261711	-0.7177115582	-2.2552796267	-0.426541
C	 0.5694801834	-0.5844932693	 1.1912538738	 0.015798
C	 0.310481737	-0.0983570597	 2.5615833091	-0.050505
C	-1.1510921151	 0.280990304	 2.7937600381	-0.252641
C	-1.4998717749	-1.1458010012	 2.3048611169	-0.154425
N	-0.0474266173	-1.528265988	 2.1539935996	-0.170785
H	 1.7630578113	 0.8626373583	-0.8059810994	 0.108595
H	 0.2866104973	 1.4661306504	-1.5748956578	 0.134544
H	 0.6984327755	 1.9635883397	 0.0806776313	 0.112611
H	-1.0992982275	 0.253084341	 0.1058524281	 0.085569
H	 0.8711406904	-1.5312469021	-1.3735433666	 0.083118
H	-0.6671855323	-2.0681457686	-0.6708764541	 0.097782
H	-0.8550659632	-1.4141581196	-2.9177022944	 0.287161
H	 1.6074978128	-0.8819819068	 1.0358641254	 0.088646
H	 1.1177222634	 0.1040287274	 3.2596487323	 0.089991
H	-1.3868394188	 0.4311079156	 3.8486789177	 0.110394
H	-1.535674599	 1.1343503171	 2.226983339	 0.105417
H	-1.951703787	-1.771274809	 3.0770089353	 0.109822
H	-2.0920587373	-1.2418097374	 1.3897809319	 0.106938
59.635	101.4974	139.2069	198.9797	236.364	248.4582	258.8819	295.5609	401.8161	419.1091	477.3758	579.4478	753.1829	778.0521	786.9595	790.8646	864.292	915.2856	932.0663	963.4202	969.0248	1003.0433	1022.054	1068.552	1078.2144	1098.0525	1128.2191	1144.9098	1168.0201	1180.1016	1219.456	1241.8709	1251.8297	1264.8368	1271.6361	1297.327	1317.2789	1354.0636	1369.0365	1398.1925	1455.0026	1457.9003	1490.0687	1494.6545	1505.4749	1512.88	1521.3073	2962.1491	3000.7423	3031.4845	3050.5204	3055.7658	3063.8295	3095.3596	3101.3137	3103.2734	3121.5055	3131.9116	3150.5812	3834.1375
CC(CO)C1C2CCN12	C[C@@H](CO)[C@H]1[C@H]2CCN12	
InChI=1S/C7H13NO/c1-5(4-9)7-6-2-3-8(6)7/h5-7,9H,2-4H2,1H3	InChI=1S/C7H13NO/c1-5(4-9)7-6-2-3-8(6)7/h5-7,9H,2-4H2,1H3/t5-,6+,7-,8?/m0/s1
