17
gdb 65441	3.18233	0.92641	0.90405	1.2241	76.61	-0.2702	0.001	0.2712	1353.2428	0.134224	-418.004408	-417.994963	-417.994019	-418.039531	33.201	
C	 0.0186739301	 1.4859521203	 0.3140103224	-0.466495
C	 0.0699408206	-0.0209395804	 0.1197612063	 0.107861
C	 1.3768902528	-0.6673720422	-0.346097564	-0.347105
C	 0.9324935036	-0.8783344246	 1.0557264447	 0.09205
O	 1.6792580588	-0.2347999472	 2.0449452142	-0.186347
C	 1.1216064291	-0.1925336463	 3.2838471456	 0.126518
N	 1.7163452147	 0.4227277459	 4.2062650761	-0.429769
C	-1.1540940152	-0.633860926	-0.3285876692	 0.238966
N	-2.1402338903	-1.1309367192	-0.6748285274	-0.339195
H	 0.9576094037	 1.841065515	 0.7424198591	 0.1523
H	-0.1457346853	 1.9907645608	-0.6418306084	 0.142267
H	-0.7941592874	 1.7648878041	 0.990657153	 0.140013
H	 1.328648984	-1.5015365654	-1.0349924029	 0.147445
H	 2.2051532882	 0.0156146976	-0.4962978321	 0.149344
H	 0.5434532805	-1.8525917229	 1.3398632445	 0.130486
H	 0.1690245918	-0.7334564449	 3.3509316949	 0.103326
H	 1.1881906002	 0.3516659353	 5.0734675033	 0.238334
59.3625	81.3361	93.5584	166.3555	181.2273	239.9754	254.3347	331.2592	423.1172	463.484	563.5041	572.7187	617.3676	693.7953	817.533	830.756	882.9867	929.8749	965.2173	1035.2017	1045.0629	1075.7634	1082.1378	1108.8321	1134.3209	1201.6309	1268.9154	1276.0886	1298.4475	1399.63	1415.6993	1424.4428	1477.672	1489.5327	1499.9135	1753.0657	2346.8286	3040.9052	3050.6324	3117.9664	3142.2559	3144.9939	3151.0333	3245.8205	3523.0806
CC1(CC1OC=N)C#N	C[C@]1(C[C@H]1O[CH][NH])C#N	
InChI=1S/C6H8N2O/c1-6(3-7)2-5(6)9-4-8/h4-5,8H,2H2,1H3	InChI=1S/C6H8N2O/c1-6(3-7)2-5(6)9-4-8/h4-5,8H,2H2,1H3/t5-,6+/m1/s1
