18
gdb 128825	4.87558	0.81855	0.7213	2.5883	76.67	-0.2487	-0.0037	0.245	1582.8681	0.146257	-439.077986	-439.068681	-439.067737	-439.113223	32.283	
C	 0.0790383982	 1.4583976659	-0.0147074691	-0.222032
O	 0.2309308933	 0.063753267	 0.1129150345	-0.235221
C	 0.5480779336	-0.5604295388	-1.1127533848	-0.175475
C	 0.6350550406	-2.0367570843	-0.8850986712	 0.383322
N	 1.5825257774	-2.7378236975	-1.4589631889	-0.212202
O	 1.3524043208	-4.0577921689	-1.0757070476	-0.211344
C	 0.2740314466	-4.1076520642	-0.2691744917	 0.440589
C	-0.1116727271	-5.4467872215	 0.2511321811	-0.491785
C	-0.2314094744	-2.8559320772	-0.1084194291	-0.407544
H	 1.0045448773	 1.9392073343	-0.3677504721	 0.109656
H	-0.7309828793	 1.7185973889	-0.7147459572	 0.105322
H	-0.1679342157	 1.8500895085	 0.9746361495	 0.130449
H	-0.233303141	-0.3434417462	-1.8624993241	 0.103409
H	 1.5023663689	-0.1957988099	-1.5214984665	 0.117212
H	-0.3271320214	-6.1391603708	-0.5692052777	 0.150234
H	 0.6969470482	-5.8836900625	 0.8463324472	 0.151474
H	-1.0001170646	-5.364420218	 0.8797235217	 0.141849
H	-1.0782880815	-2.5481876248	 0.480465576	 0.122088
52.3224	85.0522	100.0696	113.3994	204.2304	233.7682	292.2497	344.8504	370.5119	430.9434	633.8724	644.6628	692.0686	790.4176	820.2396	927.9178	987.5689	1008.3181	1016.6928	1031.0581	1046.9366	1065.7845	1146.8608	1161.7873	1184.5187	1226.4281	1250.5531	1292.8586	1399.9125	1412.6578	1458.947	1474.359	1479.2434	1485.7751	1490.9362	1500.2014	1519.3215	1536.6335	1648.6194	2948.3078	2972.4213	3010.4092	3017.8471	3042.8837	3099.2276	3119.1268	3139.6275	3287.0868
COCC1=NOC(C)=C1	COCc1noc(C)c1	
InChI=1S/C6H9NO2/c1-5-3-6(4-8-2)7-9-5/h3H,4H2,1-2H3	InChI=1S/C6H9NO2/c1-5-3-6(4-8-2)7-9-5/h3H,4H2,1-2H3
