27
gdb 118488	2.06243	0.94053	0.71606	0.057	96.4	-0.269	0.0821	0.3511	1750.5759	0.251146	-353.55616	-353.544932	-353.543988	-353.593075	41.472	
C	-0.1387874118	 0.9846861795	-1.4727834349	-0.379337
C	-0.1012307562	-0.3376192932	-0.7005744811	-0.176643
C	-1.5005353407	-0.8765552282	-0.3803414176	-0.164049
C	-1.5336038265	-2.2687065324	 0.2821436096	-0.000961
C	-0.7780291435	-2.3442988812	 1.6292586051	-0.184233
C	-1.2902699334	-1.4121858679	 2.7339716964	-0.379431
C	-2.9676271394	-2.7585033392	 0.4107315129	 0.04068
C	-3.6565108069	-3.42340009	-0.754181539	-0.275485
C	-3.2760181908	-4.2332207151	 0.462375943	-0.279382
H	 0.8694562497	 1.3527495811	-1.6877912506	 0.108828
H	-0.662950922	 0.8703141048	-2.428259034	 0.112503
H	-0.6615729417	 1.7609169524	-0.902600755	 0.112358
H	 0.4506080391	-1.0866516936	-1.284816878	 0.091405
H	 0.468754076	-0.1967408251	 0.2258083551	 0.098349
H	-2.031283454	-0.1528836672	 0.2535463638	 0.090177
H	-2.0798946644	-0.9327396225	-1.3113079033	 0.091895
H	-1.0197806843	-2.9636167932	-0.3998449037	 0.05822
H	-0.8310871342	-3.3803228541	 1.9856148583	 0.093261
H	 0.2851950749	-2.1409808984	 1.4553081877	 0.09197
H	-1.2027532004	-0.3571891595	 2.454584628	 0.115741
H	-2.3405158717	-1.6056783382	 2.9743459935	 0.116542
H	-0.7137753186	-1.5541277042	 3.6535786199	 0.110416
H	-3.6058226918	-2.1251840669	 1.0223454852	 0.078329
H	-4.7063944382	-3.2147089772	-0.9285094985	 0.107217
H	-3.0799804758	-3.5777168744	-1.6610716999	 0.107127
H	-2.4464728688	-4.9266770199	 0.3644723285	 0.107494
H	-4.0650503149	-4.5798382559	 1.1208504286	 0.10701
68.0637	72.1523	83.6901	124.3397	131.6227	197.382	239.1258	266.6599	273.5377	293.4429	334.4414	393.7078	480.6117	564.0292	732.3855	758.7195	782.2558	809.2549	830.4252	859.838	892.142	905.7759	945.331	962.7906	994.139	1030.9672	1041.072	1051.5302	1057.8752	1076.7598	1091.2154	1140.1415	1144.6284	1175.9438	1199.0247	1199.8295	1226.3861	1256.154	1285.159	1304.4034	1322.8881	1332.8518	1356.0817	1380.0538	1397.7516	1411.6416	1413.9239	1424.5848	1469.2003	1483.4153	1489.6063	1492.6961	1499.9361	1504.8736	1505.9348	1507.6958	1513.9259	2981.4455	3008.9597	3017.5726	3027.4766	3028.1567	3035.9727	3038.2529	3055.6848	3060.0626	3094.6535	3099.4895	3100.9342	3105.2332	3123.8582	3127.8644	3132.748	3201.318	3216.6469
CCCC(CC)C1CC1	CCC[C@@H](CC)C1CC1	
InChI=1S/C9H18/c1-3-5-8(4-2)9-6-7-9/h8-9H,3-7H2,1-2H3	InChI=1S/C9H18/c1-3-5-8(4-2)9-6-7-9/h8-9H,3-7H2,1-2H3/t8-/m1/s1
