21
gdb 79965	1.80652	1.77879	1.57251	1.6864	82.91	-0.2276	0.0063	0.2339	1064.8136	0.182417	-387.088049	-387.079098	-387.078154	-387.12081	35.289	
C	-0.085353644	 1.5782053196	-0.0558675765	-0.444398
C	 0.0638914786	 0.074663145	 0.0556859942	-0.042929
C	 1.3526542552	-0.6943134484	-0.2242914905	-0.147433
C	 2.624488024	 0.0819272967	-0.1187014045	-0.075053
C	 2.830731442	 0.527205359	 1.121822764	-0.135171
C	 1.745760724	 0.0594906837	 2.0772862622	 0.027483
O	 1.183524189	 1.0812394888	 2.894316729	-0.43818
C	 0.7495609093	-0.6917060368	 1.1711710939	 0.301066
C	 0.0545902202	-1.8873855286	 1.7784167455	-0.492799
H	 0.8472676899	 2.107344016	 0.1577868178	 0.120808
H	-0.3872760837	 1.8578122219	-1.071407955	 0.117805
H	-0.8607889636	 1.9488106381	 0.6247429283	 0.12043
H	-0.8170653908	-0.4528093433	-0.3064413147	 0.084227
H	 1.3048985933	-1.5645992944	-0.8711079425	 0.083388
H	 3.2645330425	 0.2768361824	-0.972708453	 0.097713
H	 3.6490234706	 1.1555595877	 1.4548940488	 0.098986
H	 2.1642687461	-0.6476848218	 2.8068886401	 0.089029
H	 0.8305983847	 1.7601475483	 2.3108279397	 0.28238
H	-0.5662797948	-1.5814709414	 2.628714104	 0.127053
H	-0.5942127416	-2.3899614476	 1.0540326178	 0.110087
H	 0.778995039	-2.6240587148	 2.1455867611	 0.115506
137.5868	189.8611	199.4683	219.1875	243.4185	284.227	297.2499	316.7851	371.1565	475.455	534.8178	590.5553	596.5445	704.2601	757.2231	775.817	835.0432	871.6591	907.0375	953.1346	964.7319	1015.3769	1026.3278	1030.9843	1075.5522	1090.9419	1111.8756	1122.7825	1130.6713	1152.3007	1218.0053	1259.8628	1284.4415	1313.3607	1350.4052	1370.6387	1409.6779	1414.7353	1429.9005	1451.1608	1488.4708	1500.6805	1506.4377	1510.6997	1669.7326	3008.6879	3020.8589	3026.2418	3080.5806	3081.0627	3096.5706	3102.415	3121.6056	3157.6212	3180.508	3207.7845	3827.8436
CC1C2C=CC(O)C12C	C[C@H]1[C@H]2C=C[C@@H](O)[C@@]12C	
InChI=1S/C8H12O/c1-5-6-3-4-7(9)8(5,6)2/h3-7,9H,1-2H3	InChI=1S/C8H12O/c1-5-6-3-4-7(9)8(5,6)2/h3-7,9H,1-2H3/t5-,6+,7+,8-/m0/s1
