19
gdb 72531	2.71107	1.7097	1.70619	2.2834	74.26	-0.2383	0.0059	0.2442	935.8837	0.161064	-423.032274	-423.024905	-423.023961	-423.06349	30.144	
C	 0.0011764171	 1.5252145513	 0.0141561404	-0.480549
C	-0.0279872502	 0.0018005571	 0.0010073157	 0.161934
C	 0.6930356071	-0.5840310593	-1.2401364953	-0.069786
O	 0.6910947183	-2.0118381152	-1.1852814795	-0.266751
C	 0.0210590103	-2.4763071702	-0.0213116831	 0.146733
O	 0.7133658819	-2.0323142305	 1.1376077263	-0.266754
C	 0.7165767004	-0.605695597	 1.2175926412	-0.069786
C	-1.3905185225	-1.9377610023	-0.0030362654	-0.083231
C	-1.414234771	-0.6056687773	 0.0089367318	-0.117469
H	 1.0285580198	 1.904185464	 0.0075754317	 0.119983
H	-0.5133317993	 1.9337902459	-0.8619118266	 0.122943
H	-0.4962458885	 1.9181963944	 0.9070644226	 0.122943
H	 0.2008690921	-0.2570379305	-2.1655422996	 0.096304
H	 1.7362702116	-0.2394685354	-1.2590130203	 0.099212
H	 0.0962434059	-3.562992204	-0.0316108464	 0.087559
H	 1.760035289	-0.2613313091	 1.2225715782	 0.099212
H	 0.2422638092	-0.2951642104	 2.1578724914	 0.096303
H	-2.2528639585	-2.5930459755	-0.0005535084	 0.106864
H	-2.3081409228	 0.0090701241	 0.0229211952	 0.094334
175.705	206.7902	272.2438	278.5672	363.083	389.1721	443.2708	462.9963	551.7156	632.4496	656.3695	719.438	741.3271	859.5166	901.5292	913.5854	941.5775	950.4811	985.1636	987.8815	1005.2378	1031.7463	1033.2389	1105.988	1151.2543	1196.6807	1197.7822	1216.5125	1242.6409	1295.809	1329.7956	1342.0244	1382.947	1387.9479	1406.0646	1419.821	1494.0346	1497.0323	1509.4616	1521.4954	1678.4202	2995.893	2999.3894	3030.977	3036.2597	3040.2721	3100.3316	3100.4053	3130.3791	3176.1992	3209.9148
CC12COC(OC1)C=C2	C[C@@]12CO[C@@H](OC1)C=C2	
InChI=1S/C7H10O2/c1-7-3-2-6(8-4-7)9-5-7/h2-3,6H,4-5H2,1H3	InChI=1S/C7H10O2/c1-7-3-2-6(8-4-7)9-5-7/h2-3,6H,4-5H2,1H3/t6-,7+
