17
gdb 104952	2.76467	0.83929	0.69546	2.8991	83.46	-0.2655	-0.0616	0.2039	1594.0791	0.133576	-421.785859	-421.776121	-421.775177	-421.82173	33.788	
O	 0.1617562496	 1.3038392915	-0.4009350412	-0.410137
C	 0.0042391124	 0.016529738	 0.1583092951	-0.130221
C	-1.4243762539	-0.5081914858	 0.0525471988	 0.123597
C	-1.8624511906	-1.1405415756	-1.2662557552	-0.278207
C	-1.6349794692	-2.0155389317	-0.0766213789	-0.293043
C	-2.3970971803	 0.2480254396	 0.778249752	 0.027134
C	-3.1991302411	 0.9138873319	 1.3959205439	 0.045374
C	-4.1461550004	 1.7002434988	 2.1360556018	 0.010029
O	-5.3284402227	 1.4524868432	 2.2220786893	-0.233847
H	-0.4093411869	 1.9063362956	 0.0885732375	 0.289123
H	 0.6696451912	-0.6446172232	-0.4060216547	 0.110236
H	 0.3226573535	-0.0088042923	 1.2115743317	 0.100131
H	-2.8813392752	-0.9650145293	-1.5884974574	 0.139979
H	-1.1239540992	-1.1327502392	-2.0600837015	 0.136226
H	-0.7399227083	-2.627513698	-0.0428735376	 0.129121
H	-2.4950900035	-2.440563488	 0.4259193616	 0.139631
H	-3.7033076254	 2.5825083745	 2.6427367749	 0.094873
60.0354	63.4697	93.681	124.49	174.1356	251.625	272.783	293.1171	340.9289	442.5263	483.4928	564.7295	615.2928	722.853	786.3329	836.9059	902.0215	931.6347	957.1426	1019.196	1032.6221	1058.6606	1077.4876	1087.9479	1092.2349	1193.4465	1205.677	1283.0074	1363.4758	1380.937	1422.757	1426.1392	1468.152	1491.5342	1505.3345	1760.0078	2302.4993	2911.8227	2990.2826	3078.8142	3141.7683	3147.2605	3229.3407	3243.5172	3802.0324
OCC1(CC1)C#CC=O	OCC1(CC1)C#CC=O	
InChI=1S/C7H8O2/c8-5-1-2-7(6-9)3-4-7/h5,9H,3-4,6H2	InChI=1S/C7H8O2/c8-5-1-2-7(6-9)3-4-7/h5,9H,3-4,6H2
