14
gdb 10249	2.71583	2.0664	1.19488	3.1393	63.19	-0.2432	-0.0316	0.2116	939.55	0.108209	-412.076264	-412.068529	-412.067585	-412.108582	28.172	
N	-0.2967008824	 1.3017595683	 0.0385601431	-0.556569
C	-0.0754314318	-0.0350539331	-0.1339002188	 0.434054
N	 1.0198960819	-0.6396687525	-0.388856655	-0.5465
N	-1.2390332448	-0.8569164163	 0.0697657393	-0.152709
C	-2.5639561436	-0.4373034006	-0.025117363	 0.136371
N	-2.9236046401	 0.7616580001	-0.2583005282	-0.49694
C	-1.0323088725	-2.2259016867	 0.3638951301	 0.182264
O	-1.9314527335	-3.015713607	 0.5024566052	-0.31115
H	 0.4309804982	 1.9060210084	-0.3081468728	 0.250193
H	-1.2590380684	 1.6182326094	-0.076284467	 0.286714
H	 1.7913601513	 0.0191993808	-0.4670179338	 0.214454
H	-3.2340715276	-1.2837157591	 0.1261647069	 0.157299
H	-3.9376728936	 0.8295103992	-0.2870620035	 0.242297
H	 0.0347251568	-2.4550618408	 0.4484100075	 0.16022
64.2319	159.6533	197.2405	280.9317	304.1845	321.0058	443.7943	468.5953	480.9013	602.6767	660.3455	704.0965	724.5463	797.1651	830.6516	838.0688	1049.9818	1090.2486	1105.0577	1117.9027	1168.2337	1248.2471	1321.6145	1404.9291	1427.4338	1439.245	1642.0963	1712.3284	1735.0415	1816.8431	3103.5353	3140.5575	3399.6193	3513.1492	3521.9542	3662.2043
NC(=N)N(C=N)C=O	NC(=N)N(C=N)C=O	
InChI=1S/C3H6N4O/c4-1-7(2-8)3(5)6/h1-2,4H,(H3,5,6)	InChI=1S/C3H6N4O/c4-1-7(2-8)3(5)6/h1-2,4H,(H3,5,6)
