16
gdb 65832	3.24205	1.16194	1.1176	3.3882	69.46	-0.2672	0.0116	0.2788	1129.0783	0.125673	-434.130717	-434.12239	-434.121446	-434.163531	31.184	
C	 0.0858730292	 1.4748602383	 0.0651648353	-0.423948
C	-0.0669988364	-0.0568555778	-0.0107005652	 0.111597
C	 0.7238198743	-0.6653219205	-1.2157171653	-0.191773
N	 2.0075310085	-0.9412312129	-0.5985510698	-0.350471
C	 1.8762496863	-1.1433874571	 0.7700279251	 0.439671
O	 2.7131782527	-1.564556846	 1.5300716637	-0.394666
N	 0.5788034108	-0.7498039688	 1.0982573428	-0.354308
C	-1.4960827587	-0.4075155524	-0.0921364682	 0.275218
N	-2.6227550369	-0.6527030373	-0.160360161	-0.330311
H	 1.1481718452	 1.7312926057	 0.048139666	 0.147696
H	-0.4134003357	 1.9570276378	-0.7797979601	 0.141969
H	-0.3576115026	 1.858652635	 0.9879399323	 0.138416
H	 0.2229785761	-1.5697132627	-1.5830249043	 0.134246
H	 0.8013700313	 0.0535948931	-2.0351772691	 0.131886
H	 2.7019175789	-1.4934274728	-1.0765402873	 0.262968
H	 0.406965747	-0.4611658616	 2.049332895	 0.26181
96.2105	153.0769	192.2532	201.1653	258.9376	335.677	405.5478	451.9916	481.6838	519.2223	530.2256	584.2249	613.3606	713.9243	763.1308	816.2809	929.2494	953.5462	986.0242	1004.3357	1089.9387	1126.9783	1180.1509	1210.9247	1238.7702	1296.6057	1360.3026	1389.2904	1404.8286	1440.2476	1487.3867	1491.2052	1526.0767	1864.953	2362.4532	3025.1262	3046.5821	3093.7026	3124.8926	3134.3683	3634.2431	3645.0714
CC1(CNC(=O)N1)C#N	C[C@]1(CNC(=O)N1)C#N	
InChI=1S/C5H7N3O/c1-5(2-6)3-7-4(9)8-5/h3H2,1H3,(H2,7,8,9)	InChI=1S/C5H7N3O/c1-5(2-6)3-7-4(9)8-5/h3H2,1H3,(H2,7,8,9)/t5-/m1/s1
