19
gdb 68590	2.10819	1.92377	1.58019	2.2834	70.09	-0.2419	0.055	0.2969	965.4008	0.158799	-460.137132	-460.128834	-460.12789	-460.169173	33.48	
C	-0.1496406801	 1.5700888897	 0.0741803839	-0.458034
C	-0.0095203629	 0.0590867807	 0.0099206941	 0.419612
O	-1.2939179926	-0.4632439339	-0.2125338771	-0.496171
C	 1.1227034948	-0.5727547781	-0.8541483596	 0.021418
C	 2.125033623	-0.2472996238	 0.2666328497	-0.326497
C	 0.8763199271	-0.5977034507	 1.145418377	 0.317863
O	 0.6938999615	-0.203850791	 2.4624207447	-0.485712
C	 0.7115554092	-2.080099047	 0.7719716325	-0.163651
O	 0.8582359733	-1.9896300757	-0.6693332358	-0.298204
H	 0.7855836544	 2.0845024865	 0.2959220734	 0.118277
H	-0.5444415732	 1.9444155391	-0.874543824	 0.122439
H	-0.8667675715	 1.8209326169	 0.8608147397	 0.142174
H	-1.1672696687	-1.3202513041	-0.6409598626	 0.291198
H	 1.2791165254	-0.3651387532	-1.9106769093	 0.085858
H	 2.9946489013	-0.9039646637	 0.3376321815	 0.101105
H	 2.4208765905	 0.7982999246	 0.3173708254	 0.115341
H	 1.3156151826	-0.6804634264	 3.0236550294	 0.284614
H	 1.4900152905	-2.7287876522	 1.1919975188	 0.096101
H	-0.2748857645	-2.4745717078	 1.0350518084	 0.11227
163.8613	193.0224	223.9536	236.6569	290.0778	344.7136	375.2285	401.6465	494.873	509.4479	551.0071	574.7808	613.3584	684.3473	736.168	800.9083	871.8239	895.8151	935.6542	952.9618	982.4415	990.4246	1067.629	1088.3387	1107.3724	1115.235	1161.0492	1186.2339	1201.443	1204.5654	1259.4382	1267.6752	1296.3048	1330.6387	1390.9488	1397.9897	1424.4376	1481.7539	1488.401	1504.8824	1527.2153	3023.8351	3054.569	3079.8399	3085.2874	3118.6159	3146.1877	3147.2474	3169.7745	3757.5312	3797.2032
CC1(O)C2CC1(O)CO2	C[C@@]1(O)[C@H]2C[C@]1(O)CO2	
InChI=1S/C6H10O3/c1-5(7)4-2-6(5,8)3-9-4/h4,7-8H,2-3H2,1H3	InChI=1S/C6H10O3/c1-5(7)4-2-6(5,8)3-9-4/h4,7-8H,2-3H2,1H3/t4-,5-,6+/m1/s1
