16
gdb 5864	4.38387	0.8975	0.88911	3.9935	72.9	-0.2658	-0.0602	0.2055	1342.591	0.126177	-383.718167	-383.708531	-383.707587	-383.753067	33.224	
C	 0.2451821051	 1.5237760356	 0.0131913675	-0.406664
C	-0.0349142173	 0.0075148815	 0.0196382555	 0.138654
C	 0.5791973809	-0.6663840383	 1.2631321506	-0.406679
O	-1.4434453695	-0.2375413164	-0.0334149167	-0.45128
C	 0.5346657595	-0.5955813809	-1.1891662542	 0.232701
C	 1.0610810303	-1.0726564268	-2.1654948842	-0.055585
C	 1.6371931389	-1.6594916927	-3.3471098849	 0.021489
O	 2.815741484	-1.6362989509	-3.620026067	-0.231961
H	 1.3186987251	 1.7283290077	-0.0047658405	 0.135794
H	-0.2196176916	 1.9874086124	-0.859376785	 0.140061
H	-0.1761636981	 1.975565989	 0.9183467814	 0.111238
H	 0.157950523	-0.2136487851	 2.1678538585	 0.111232
H	 0.3477253663	-1.7335232241	 1.2643474977	 0.140063
H	 1.6642839773	-0.5377063506	 1.288192363	 0.135804
H	-1.8297158178	 0.154860149	 0.7578263239	 0.282403
H	 0.8978849539	-2.1510234993	-4.0116419358	 0.102729
48.1818	86.2162	109.3458	216.1988	233.1977	234.505	264.4731	276.9832	334.4737	357.5566	409.9803	562.7668	574.0057	580.5718	733.4952	862.7233	921.4827	963.5358	1018.685	1022.9731	1070.4903	1166.9265	1175.3526	1195.5137	1386.32	1390.9883	1412.377	1421.3598	1475.8267	1479.1414	1491.957	1509.509	1767.1676	2329.8843	2921.6498	3034.8164	3039.2242	3109.8679	3115.6022	3138.0161	3140.2448	3801.7862
CC(C)(O)C#CC=O	CC(C)(O)C#CC=O	
InChI=1S/C6H8O2/c1-6(2,8)4-3-5-7/h5,8H,1-2H3	InChI=1S/C6H8O2/c1-6(2,8)4-3-5-7/h5,8H,1-2H3
