15
gdb 75937	2.84661	1.57018	1.12807	1.9818	60.81	-0.2765	-0.0097	0.2668	1027.9296	0.112129	-494.909178	-494.901433	-494.900489	-494.941671	28.844	
O	 0.2680774113	 1.1612246507	-0.594335945	-0.431248
C	-0.0076621856	-0.1130855478	-0.0897795921	-0.090034
C	 0.4520535154	-0.2690726787	 1.359602217	 0.418802
O	 1.3974276597	 0.2766708936	 1.8530928786	-0.349076
O	-0.3840436632	-1.0906490593	 2.0316065258	-0.216301
C	-1.5138141237	-1.4494356984	 1.2043890481	-0.167403
C	-1.4745495467	-0.4747832572	 0.0317418782	 0.382768
C	-2.5689248739	 0.4198649788	-0.3452874443	-0.237823
O	-2.2577912519	-0.7644131622	-1.1058550429	-0.278899
H	 1.0170719454	 1.4980613671	-0.0817278247	 0.301838
H	 0.4929917585	-0.8992905629	-0.6837677889	 0.116265
H	-1.3943732121	-2.4825629645	 0.8604253393	 0.13908
H	-2.4161332989	-1.3758499567	 1.8137396641	 0.1403
H	-3.508943979	 0.3845389329	 0.2026787771	 0.122798
H	-2.3298346152	 1.3593697346	-0.8357559503	 0.148932
70.5292	175.3047	230.1834	253.2281	300.8011	352.985	358.199	481.7168	513.1192	558.1758	633.1268	715.4951	791.2995	881.8816	915.0317	934.2632	948.7856	1044.1362	1071.3815	1128.392	1141.7125	1166.2215	1177.6949	1208.1763	1220.9101	1263.5608	1350.4569	1392.4126	1395.7586	1455.194	1513.8605	1531.7569	1879.4802	2946.9974	3053.293	3098.9463	3122.3446	3201.1453	3740.9737
OC1C(=O)OCC11CO1	O[C@H]1C(=O)OC[C@]21CO2	
InChI=1S/C5H6O4/c6-3-4(7)8-1-5(3)2-9-5/h3,6H,1-2H2	InChI=1S/C5H6O4/c6-3-4(7)8-1-5(3)2-9-5/h3,6H,1-2H2/t3-,5+/m0/s1
