20
gdb 57707	2.86785	0.96506	0.90613	3.4888	82.47	-0.2531	0.0237	0.2768	1385.4157	0.167982	-403.147533	-403.136945	-403.136001	-403.183359	38.462	
C	-0.5211640165	 1.3880475904	-0.1208975127	-0.397539
C	-0.0439597622	-0.071667713	 0.0390332686	 0.050069
C	 0.9076586492	-0.1877935028	 1.2503550661	-0.412423
C	-1.2626783808	-1.029706199	 0.2129944315	-0.17548
N	-2.0643529378	-0.771997105	 1.3966808609	-0.280999
C	-3.2732123671	-0.1454943306	 1.3535632903	 0.153319
O	-3.78471411	 0.3203336235	 0.3584596941	-0.320573
C	 0.6603635948	-0.4978577757	-1.173841634	 0.352014
C	 1.2259133213	-0.8653415741	-2.1692599009	-0.494226
H	 0.332904357	 2.0505788162	-0.285066291	 0.118212
H	-1.2064223579	 1.4861695809	-0.9656175885	 0.140035
H	-1.0444608489	 1.7153133063	 0.7815769989	 0.12052
H	 0.3949783689	 0.1241783787	 2.1660317759	 0.107738
H	 1.2633590946	-1.2149914873	 1.3773438848	 0.118655
H	 1.7805176197	 0.4562427089	 1.1161621592	 0.130681
H	-1.925867014	-0.9284006482	-0.6480674866	 0.153005
H	-0.8988647441	-2.0617407516	 0.2459966165	 0.114588
H	-1.7626508669	-1.1458988692	 2.2817991795	 0.24979
H	-3.749497523	-0.1066790333	 2.3536937089	 0.07621
H	 1.7280136138	-1.1791235053	-3.0508778515	 0.196404
48.1986	66.1381	135.281	177.2366	207.2859	232.6643	249.0273	267.8719	301.0979	360.1606	370.6273	476.5502	527.7588	545.8899	551.0768	631.5711	642.1194	725.1303	752.368	878.1862	931.731	956.8883	987.3183	997.9097	1032.7201	1048.0829	1179.1792	1208.7051	1221.7072	1237.2903	1319.7067	1385.0663	1394.3436	1421.3736	1430.6709	1467.7053	1478.8007	1489.0057	1501.4486	1506.7397	1529.3874	1807.291	2231.3161	2933.9147	3035.8915	3048.9962	3053.3134	3107.556	3118.5412	3123.1514	3127.5058	3134.5372	3500.9965	3640.4419
CC(C)(CNC=O)C#C	CC(C)(CNC=O)C#C	
InChI=1S/C7H11NO/c1-4-7(2,3)5-8-6-9/h1,6H,5H2,2-3H3,(H,8,9)	InChI=1S/C7H11NO/c1-4-7(2,3)5-8-6-9/h1,6H,5H2,2-3H3,(H,8,9)
