19
gdb 86762	3.7016	0.9516	0.81384	2.9524	82.25	-0.2354	-0.019	0.2165	1434.7645	0.156485	-385.87007	-385.860378	-385.859434	-385.905258	35.158	
C	 0.1805503083	 1.706805737	-0.0076659588	-0.406494
C	 0.1073081459	 0.1872331872	 0.0146563555	-0.081549
C	 0.6367706217	-0.6596741076	-1.1880437395	-0.285349
C	 1.3245994812	-1.6543758818	-0.2001931999	-0.086009
C	 2.7490365817	-2.1468584662	-0.4898525376	-0.375656
C	 3.2402669981	-3.0985484087	 0.4987360745	 0.312469
C	 3.6239791191	-3.8993785905	 1.3080257256	-0.442854
C	 1.1261246163	-0.574648154	 0.8811133551	 0.38189
O	 1.6923678595	-0.3137922088	 1.9029213699	-0.295898
H	 1.1835660102	 2.0471749056	-0.2847155891	 0.120992
H	-0.5314476199	 2.1286405231	-0.7239497557	 0.119616
H	-0.0467390133	 2.1157864556	 0.9812127945	 0.136805
H	-0.902870285	-0.1460196648	 0.2856430822	 0.103676
H	-0.110109291	-1.0805625259	-1.8622354057	 0.109574
H	 1.373386348	-0.1016311565	-1.7745099858	 0.110503
H	 0.6695288927	-2.5081533593	 0.0062527666	 0.113292
H	 2.7663503779	-2.6124678362	-1.4840118369	 0.134263
H	 3.426076142	-1.2845537739	-0.5418873085	 0.133825
H	 3.9726974663	-4.5930695445	 2.0320928836	 0.196906
47.3023	69.5279	134.332	174.0276	182.77	220.015	312.845	337.0249	345.8166	436.4921	527.2721	599.0363	619.3822	643.7216	687.5148	740.0343	831.8031	895.381	923.0411	933.7764	953.1411	985.3762	1050.5843	1080.8668	1113.9146	1141.2282	1147.1136	1198.4357	1234.3758	1251.4498	1265.7472	1320.3427	1334.8516	1365.4779	1408.6212	1467.8037	1489.2472	1494.3491	1495.581	1884.3009	2242.192	3017.1266	3030.1175	3037.0261	3044.9208	3057.6253	3062.2068	3105.6447	3113.1827	3127.6165	3507.3099
CC1CC(CC#C)C1=O	C[C@H]1C[C@@H](CC#C)C1=O	
InChI=1S/C8H10O/c1-3-4-7-5-6(2)8(7)9/h1,6-7H,4-5H2,2H3	InChI=1S/C8H10O/c1-3-4-7-5-6(2)8(7)9/h1,6-7H,4-5H2,2H3/t6-,7+/m0/s1
