23
gdb 121359	3.26303	0.94553	0.82633	1.6641	82.58	-0.2409	0.0684	0.3093	1512.679	0.205328	-425.431592	-425.421458	-425.420514	-425.467435	36.863	
C	 0.066842853	 1.4638579343	-0.1268779624	-0.3831
C	-0.0266288589	-0.026082615	 0.1574148589	-0.037337
O	-1.3315316081	-0.4594545536	-0.1710303008	-0.255975
C	-1.5266690152	-1.8458878265	-0.0660542827	 0.169478
C	-1.5652296738	-2.4211578838	 1.3690221083	-0.231582
C	-2.4128206956	-3.7187894874	 1.2537290757	-0.201937
C	-2.9922280086	-3.7178832742	-0.189374876	-0.238048
C	-2.8825624181	-2.2585384864	-0.6511020491	 0.087683
O	-3.8745416728	-1.4396310373	-0.0448904445	-0.433482
H	 1.0661153457	 1.8381043324	 0.1156729507	 0.109989
H	-0.1354153478	 1.6652681437	-1.1826679196	 0.124107
H	-0.6656457778	 2.0130072893	 0.4713562427	 0.128932
H	 0.7185963939	-0.580789279	-0.4395071232	 0.078979
H	 0.1965146828	-0.2273414616	 1.2171939979	 0.088442
H	-0.7488550063	-2.3739179259	-0.6471294061	 0.055344
H	-0.567180989	-2.6077245163	 1.7727568057	 0.090279
H	-2.0580322758	-1.6877652217	 2.0124481216	 0.120113
H	-1.8165955595	-4.616674192	 1.4362459418	 0.096547
H	-3.2150014646	-3.7172507328	 1.99514799	 0.107391
H	-2.3968647154	-4.3573089771	-0.8514322702	 0.098063
H	-4.023236656	-4.0829565549	-0.238610856	 0.086139
H	-2.9024401704	-2.149700499	-1.7446054624	 0.059342
H	-4.7337343319	-1.7668149853	-0.3280243205	 0.280635
59.0115	79.8689	82.7481	121.0036	174.9463	246.0008	262.033	296.3146	324.9251	366.9889	431.9687	562.8644	644.4624	710.7433	786.3336	821.9939	856.6321	871.0641	896.0294	911.7407	954.8581	1004.1732	1026.2069	1054.1817	1061.3359	1106.0118	1141.403	1177.6487	1186.6441	1194.5149	1204.3206	1221.8568	1268.4647	1284.1594	1295.9948	1308.4727	1327.2195	1339.977	1364.5391	1385.252	1403.8035	1423.8423	1450.2943	1482.4571	1482.9909	1486.3102	1500.5042	1510.1479	1529.8708	2934.5401	2950.3945	2988.4436	3002.8653	3038.762	3044.4094	3059.5762	3069.6913	3074.8785	3098.1681	3118.0309	3118.5932	3122.2452	3822.8312
CCOC1CCCC1O	CCO[C@H]1CCC[C@H]1O	
InChI=1S/C7H14O2/c1-2-9-7-5-3-4-6(7)8/h6-8H,2-5H2,1H3	InChI=1S/C7H14O2/c1-2-9-7-5-3-4-6(7)8/h6-8H,2-5H2,1H3/t6-,7+/m1/s1
