25
gdb 109150	2.90889	1.00526	0.93143	0.2361	95.02	-0.2246	0.0339	0.2585	1468.5254	0.228304	-352.389896	-352.379726	-352.378782	-352.424784	39.181	
C	 0.5773283701	 1.6781620744	 0.0311666579	-0.372048
C	-0.121725964	 0.3258351028	 0.2590377888	-0.291251
C	 0.5541390467	-0.5367542835	 1.2850417504	 0.349982
C	 0.0586989199	-0.9164984633	 2.4652981886	-0.179336
C	 0.9927280914	-1.8203316978	 3.2266269416	-0.287209
C	 2.3477433163	-1.6904713454	 2.4609211466	 0.329623
C	 3.2302715038	-0.6464085632	 3.1665493994	-0.418886
C	 3.0954595026	-3.0248209808	 2.3657416824	-0.439184
C	 1.9242763847	-1.1450749644	 1.0624397397	-0.34314
H	 1.6073836766	 1.5457518153	-0.3143160835	 0.118754
H	 0.0473173135	 2.2674805851	-0.723581922	 0.111444
H	 0.608435486	 2.2609706994	 0.9571665721	 0.118818
H	-1.1604074208	 0.501337858	 0.5616278937	 0.099072
H	-0.1637842538	-0.2129022683	-0.6985408302	 0.098719
H	-0.9249348045	-0.6434720589	 2.8354011486	 0.078393
H	 1.0939514791	-1.5433650688	 4.2837921398	 0.093125
H	 0.625964407	-2.8574048175	 3.2186564691	 0.094648
H	 3.4919736553	-0.9714207965	 4.1797636353	 0.106576
H	 4.1634778559	-0.4822556256	 2.6160885809	 0.10577
H	 2.7113930939	 0.3148950356	 3.2449487007	 0.114448
H	 2.4874481408	-3.7849503906	 1.8632669001	 0.107753
H	 4.0294162687	-2.9174997762	 1.8021304991	 0.107896
H	 3.352525496	-3.4065775783	 3.3605025947	 0.108552
H	 1.8601324501	-1.9528143541	 0.3178869412	 0.09358
H	 2.6560663746	-0.4291995572	 0.667863555	 0.0939
65.6022	71.1671	164.5664	194.5882	249.4157	260.2917	292.273	326.3183	331.4296	346.4389	415.5448	432.6927	504.857	547.6913	649.7211	773.4378	793.1186	839.887	861.5969	907.6751	923.3635	951.2503	953.7641	967.5757	985.7579	1000.3491	1044.9603	1067.1491	1084.8356	1130.2814	1160.4207	1193.1768	1215.5245	1238.2321	1269.704	1291.4783	1303.4589	1336.6823	1354.7824	1360.4201	1396.6069	1406.6985	1417.7104	1479.4964	1482.6764	1484.2281	1487.349	1497.921	1499.8456	1504.1177	1507.232	1509.7987	1718.723	2992.8805	2995.4562	3004.677	3019.1541	3024.6042	3035.0969	3035.4035	3041.2854	3057.3844	3085.1293	3090.9513	3091.2487	3096.8595	3106.2322	3108.7613	3175.0424
CCC1=CCC(C)(C)C1	CCC1=CCC(C)(C)C1	
InChI=1S/C9H16/c1-4-8-5-6-9(2,3)7-8/h5H,4,6-7H2,1-3H3	InChI=1S/C9H16/c1-4-8-5-6-9(2,3)7-8/h5H,4,6-7H2,1-3H3
