17
gdb 115557	2.82499	1.07346	1.03831	2.9645	69.21	-0.2646	0.01	0.2746	1225.3456	0.135586	-455.117249	-455.107928	-455.106984	-455.152142	33.233	
N	 0.0510619378	 1.518345156	-0.0776936759	-0.543311
C	-0.0058520757	 0.0614205831	-0.0750886713	 0.043069
C	-0.0966481929	-0.5454473529	 1.3518422852	-0.078823
O	-1.4201253814	-1.0523965841	 1.1176066672	-0.296466
C	-1.4388011138	-0.5489552144	-0.2404560992	 0.111026
C	-2.62237689	 0.3846208375	-0.4380164983	-0.083766
O	-3.8195666878	-0.3256478225	-0.1857447058	-0.417813
C	 1.0088006102	-0.5573473348	-0.9379933614	 0.231452
N	 1.8190416235	-1.0021478105	-1.6333965397	-0.334908
H	 0.9415875102	 1.8261172918	 0.3046270886	 0.248392
H	 0.0129910093	 1.8725419707	-1.0299754517	 0.249891
H	 0.6199852222	-1.3433272146	 1.5703650661	 0.12782
H	-0.0712162382	 0.2153977702	 2.1394428926	 0.120758
H	-1.4847840598	-1.3768959787	-0.9566462191	 0.103407
H	-2.5150798731	 1.2617260009	 0.2119439638	 0.112514
H	-2.6674991107	 0.7286830988	-1.4773856596	 0.110531
H	-3.7427451699	-0.6756126466	 0.7102136785	 0.296229
38.9096	94.5181	140.5058	177.5989	205.3047	230.4992	302.6749	377.8289	414.1731	437.1829	481.5477	550.9037	610.8259	641.1793	832.6352	883.0821	906.6236	919.405	978.776	1034.164	1051.6576	1068.0725	1091.8871	1148.769	1186.7071	1216.4621	1233.3311	1287.7622	1299.0388	1336.3604	1364.9676	1397.3232	1430.2493	1501.3608	1512.5672	1660.4002	2342.2384	3027.3193	3034.9544	3050.6771	3082.1356	3092.8966	3486.1671	3562.48	3791.3325
NC1(COC1CO)C#N	N[C@]1(CO[C@H]1CO)C#N	
InChI=1S/C5H8N2O2/c6-2-5(7)3-9-4(5)1-8/h4,8H,1,3,7H2	InChI=1S/C5H8N2O2/c6-2-5(7)3-9-4(5)1-8/h4,8H,1,3,7H2/t4-,5-/m0/s1
