19
gdb 63923	2.96963	1.58163	1.54693	0.7639	73.1	-0.2294	0.0788	0.3083	962.5087	0.159376	-422.991958	-422.984333	-422.983389	-423.023483	31.349	
C	-0.1281813278	 1.5755316392	 0.0002377092	-0.442781
C	 0.012484733	 0.0519844505	-0.0272819403	 0.401136
O	-1.2753474616	-0.5674080878	 0.0187215178	-0.486394
C	 0.8529615559	-0.4611674131	-1.2444720361	-0.279206
C	 2.1653201345	-0.9120726675	-0.6179245629	 0.088819
O	 2.7815072866	 0.2591234065	 0.02406199	-0.311653
C	 2.2627587676	-0.1922262764	 1.2764611956	 0.088712
C	 1.8130321344	-1.5199465713	 0.7612326978	-0.171903
C	 0.7796258232	-0.4944480639	 1.1791019616	-0.097291
H	 0.8568366058	 2.0471776196	-0.0318447147	 0.139706
H	-0.7013459341	 1.9282372564	-0.8669069812	 0.098166
H	-0.6515845079	 1.894849487	 0.9065621328	 0.116465
H	-1.8173470829	-0.1643802369	-0.6681222548	 0.271429
H	 0.3340061632	-1.3144762752	-1.6938238077	 0.104041
H	 1.0112507176	 0.3039169036	-2.0104303663	 0.101438
H	 2.8745965531	-1.4255972262	-1.2682636379	 0.082108
H	 2.7746833287	 0.1191956701	 2.1793436222	 0.104362
H	 1.9297540817	-2.5340930859	 1.1150859965	 0.098627
H	 0.2368267489	-0.6268998388	 2.1079071682	 0.094218
126.2117	238.1629	252.2508	273.8629	343.6966	393.403	405.8147	418.8046	559.013	626.6461	668.2801	769.3151	789.8073	814.6803	839.337	856.0194	901.0714	925.0365	950.3422	988.5598	996.0695	1001.5756	1032.0795	1053.6234	1071.1053	1090.0389	1094.7792	1128.6624	1201.8979	1214.0829	1230.9877	1263.0099	1267.9418	1296.9648	1335.5277	1383.3999	1399.3941	1404.8089	1469.1334	1491.6314	1501.5991	3021.5674	3046.9343	3091.7959	3101.5691	3107.8802	3130.3952	3180.5424	3189.0537	3217.0393	3802.676
CC1(O)CC2OC3C2C13	C[C@@]1(O)C[C@H]2O[C@@H]3[C@H]2[C@H]13	
InChI=1S/C7H10O2/c1-7(8)2-3-4-5(7)6(4)9-3/h3-6,8H,2H2,1H3	InChI=1S/C7H10O2/c1-7(8)2-3-4-5(7)6(4)9-3/h3-6,8H,2H2,1H3/t3-,4-,5+,6-,7-/m1/s1
