21
gdb 101603	2.64394	0.91145	0.79769	3.4706	76.15	-0.2605	-0.0212	0.2393	1538.0204	0.178693	-461.372487	-461.361496	-461.360552	-461.409935	38.211	
C	-0.3340119218	 0.977157904	 0.4039305458	-0.241303
O	-0.2499759904	-0.344477803	-0.0838072573	-0.253636
C	 0.6003657186	-0.5139552062	-1.2131346235	 0.149295
C	 2.0799999546	-0.5187380513	-0.8278997819	-0.407681
C	 0.1664763364	-1.8379674191	-1.8580967796	-0.3112
C	-1.2827986893	-1.7545024876	-2.2994668532	 0.374005
O	-1.6396063431	-1.0384153113	-3.2127109618	-0.341105
C	-2.3122843205	-2.5732751123	-1.5454133667	-0.137586
O	-3.5973323088	-2.3825225106	-2.0545265104	-0.422494
H	 0.6172520139	 1.3325271741	 0.8246173546	 0.109688
H	-0.6500718903	 1.6782037361	-0.3830091537	 0.11434
H	-1.0841954975	 0.9767999912	 1.1981932522	 0.132495
H	 0.4069470402	 0.2936151253	-1.9364944814	 0.090567
H	 2.7069162836	-0.6684223184	-1.7123595612	 0.121054
H	 2.3746544479	 0.4301446656	-0.3712588693	 0.122379
H	 2.2860802729	-1.321842339	-0.1133567826	 0.125704
H	 0.78524054	-2.0314819003	-2.7397780582	 0.1295
H	 0.3109099061	-2.653510624	-1.14179916	 0.112915
H	-2.0122732468	-3.6343825754	-1.5951580491	 0.109811
H	-2.2380458474	-2.2788994257	-0.4851068078	 0.131553
H	-3.4854367782	-1.7394112221	-2.7734542347	 0.2917
33.8996	61.4836	73.0425	114.9836	161.0816	198.7966	236.3584	274.8901	290.6943	311.1225	399.1501	410.6462	453.1608	478.0031	544.1756	692.4406	798.5811	835.7631	901.8267	927.6132	982.6944	1045.0251	1097.5533	1116.1412	1126.5508	1156.2701	1164.844	1184.1765	1209.1787	1241.7276	1266.4029	1297.7846	1326.7009	1374.3596	1387.2177	1405.7994	1446.1925	1464.4846	1478.9816	1482.867	1491.0559	1492.7585	1503.1812	1511.582	1793.4471	2965.1823	2984.384	2989.6353	2990.8517	3036.8101	3041.9784	3051.2592	3104.1184	3114.5789	3116.6838	3118.3675	3678.6979
COC(C)CC(=O)CO	CO[C@@H](C)CC(=O)CO	
InChI=1S/C6H12O3/c1-5(9-2)3-6(8)4-7/h5,7H,3-4H2,1-2H3	InChI=1S/C6H12O3/c1-5(9-2)3-6(8)4-7/h5,7H,3-4H2,1-2H3/t5-/m0/s1
