19
gdb 84859	2.33366	1.90829	1.27015	2.9355	75.22	-0.2445	0.0141	0.2585	1023.4323	0.161598	-423.017733	-423.010177	-423.009233	-423.04977	30.019	
O	 0.0011268992	 1.33780493	-0.2220735157	-0.438089
C	 0.0570216505	-0.0517472606	 0.0562018181	 0.07143
C	 0.599478118	-0.3314033675	 1.4359996819	-0.08135
C	 0.284490953	-1.4150357213	 2.144098636	-0.072108
C	-0.6784948593	-2.4582631143	 1.6375502894	-0.286261
C	-1.7518585285	-1.8625795465	 0.7228039566	-0.07433
C	-2.7337208599	-0.8621912336	 1.3704502322	-0.073926
O	-2.3303894702	 0.1962166228	 0.473160642	-0.307233
C	-1.3393851453	-0.6549152517	-0.161026497	 0.095536
H	-0.7989623692	 1.6501126912	 0.2239774474	 0.28974
H	 0.7435465354	-0.4772560208	-0.6899486512	 0.092909
H	 1.3070505997	 0.4029911095	 1.8112394473	 0.097942
H	 0.7406450826	-1.5813379286	 3.1164953635	 0.090739
H	-0.1278209559	-3.2428172593	 1.0986294177	 0.116312
H	-1.165193195	-2.968741755	 2.4780336711	 0.107406
H	-2.2570737368	-2.6500317725	 0.1604644608	 0.081167
H	-3.7994963606	-1.094623942	 1.2645398581	 0.103673
H	-2.5174859373	-0.6131939511	 2.416508958	 0.1055
H	-1.5469019505	-0.7476349887	-1.2327719763	 0.080943
95.3109	129.8594	253.1014	304.7553	327.041	431.604	464.1112	505.9152	524.216	622.7161	720.4242	730.9634	812.8709	843.4971	877.9458	919.0343	935.5782	978.9157	1004.2113	1010.3019	1024.1732	1077.7527	1090.9292	1105.8009	1123.3906	1166.4501	1172.7541	1219.2664	1253.3872	1273.7477	1290.4269	1312.9546	1336.7251	1341.9468	1365.9997	1389.5737	1413.2029	1436.7918	1478.5361	1515.3518	1713.9793	3001.4932	3003.2	3018.8098	3042.8952	3043.9497	3063.9068	3090.5791	3152.6344	3177.017	3743.2756
OC1C=CCC2COC12	O[C@H]1C=CC[C@H]2CO[C@@H]12	
InChI=1S/C7H10O2/c8-6-3-1-2-5-4-9-7(5)6/h1,3,5-8H,2,4H2	InChI=1S/C7H10O2/c8-6-3-1-2-5-4-9-7(5)6/h1,3,5-8H,2,4H2/t5-,6-,7+/m0/s1
