19
gdb 75589	2.34834	1.58701	1.04502	1.2907	78.78	-0.2256	-0.0489	0.1768	1164.6055	0.161367	-419.242106	-419.233612	-419.232667	-419.275495	32.523	
N	-0.0087351166	 1.3507090965	 0.1582635294	-0.523963
C	-0.0336979942	-0.0209995591	 0.0036501337	 0.256876
N	-1.138070145	-0.652988987	 0.0273759287	-0.288459
C	-1.2792901477	-2.0935424579	-0.106238113	-0.14832
C	-0.5814116683	-2.7954258687	-1.280112795	-0.197368
C	 0.9381649355	-2.9138888169	-1.1461767839	-0.206846
C	 1.6900617906	-1.5777956131	-1.2490300671	-0.294089
C	 1.3940685054	-0.560250653	-0.1687442057	 0.331403
O	 2.268481461	-0.099640205	 0.5345610228	-0.313839
H	 0.8419003995	 1.707820779	 0.5688868208	 0.264156
H	-0.8655354948	 1.7392833465	 0.525739629	 0.251287
H	-0.9705935454	-2.5793055667	 0.8335929569	 0.101088
H	-2.3543594052	-2.2867071405	-0.1931790047	 0.105375
H	-1.0051648289	-3.8039311061	-1.3602528121	 0.09824
H	-0.8364781079	-2.2754733563	-2.2128731443	 0.102094
H	 1.1874367709	-3.4010245176	-0.1945908901	 0.10793
H	 1.3237637431	-3.5682581031	-1.935671711	 0.10662
H	 2.7712190486	-1.7392906469	-1.2336245155	 0.12174
H	 1.4338186593	-1.101039654	-2.2065124186	 0.126075
48.0458	123.5499	202.7765	266.4292	318.7558	328.7726	360.4243	397.1892	489.8356	491.6876	567.854	616.0416	637.0956	686.089	774.5739	812.8394	844.0875	894.5851	939.929	974.8099	1023.1138	1081.5242	1094.4819	1134.1001	1172.9936	1215.0804	1254.2864	1277.335	1312.0314	1347.6168	1366.591	1377.649	1384.0855	1403.5028	1465.5457	1480.9817	1489.428	1501.5227	1607.1306	1736.8221	1779.6233	2976.1128	3011.7825	3018.985	3025.3386	3048.949	3062.0019	3070.9077	3099.2374	3559.7535	3677.8474
NC1=NCCCCC1=O	NC1=NCCCCC1=O	
InChI=1S/C6H10N2O/c7-6-5(9)3-1-2-4-8-6/h1-4H2,(H2,7,8)	InChI=1S/C6H10N2O/c7-6-5(9)3-1-2-4-8-6/h1-4H2,(H2,7,8)
