18
gdb 53301	3.30581	0.75752	0.65179	1.6442	88.91	-0.2362	0.0377	0.2739	1724.8385	0.144988	-364.726963	-364.716822	-364.715878	-364.763791	35.517	
C	 0.1340505814	 1.5229677681	 0.1615947943	-0.500182
C	 0.0661622136	 0.0699379453	 0.1131515826	 0.089289
C	 0.010018602	-1.1332820882	 0.0866461264	 0.1324
C	-0.0375571964	-2.5682509918	 0.0170979607	-0.26927
N	-0.6931012554	-3.2989227819	 1.133194517	-0.314437
C	-1.3103489333	-3.330154147	-0.190531044	 0.001501
C	-2.6469906382	-2.62237782	-0.3356097515	-0.360422
C	-3.77269149	-3.4935202548	-0.0165051069	 0.298183
C	-4.6850795624	-4.2333102578	 0.2378073443	-0.443666
H	 1.1726964246	 1.8715470479	 0.1677693948	 0.150101
H	-0.3634024517	 1.9766639001	-0.7028298859	 0.148423
H	-0.3504398924	 1.9102134808	 1.0646397004	 0.153303
H	 0.851052786	-3.0273616643	-0.4127184068	 0.106388
H	-0.1903892887	-4.1627852128	 1.3189015894	 0.236697
H	-1.2241183464	-4.2475660792	-0.770051178	 0.097274
H	-2.6474371834	-1.7437508044	 0.317428727	 0.14932
H	-2.7462309533	-2.2514630209	-1.3642334665	 0.131587
H	-5.4986014258	-4.8743983891	 0.4705260128	 0.193511
34.439	53.8226	64.3796	127.8758	149.3109	229.564	313.0442	337.466	366.5005	381.3563	484.4014	533.1433	586.5554	614.6245	640.4755	728.6125	827.8483	863.4932	913.4798	956.1597	971.8468	1010.3219	1052.1022	1053.1283	1082.5031	1152.5033	1182.6216	1214.3492	1256.9054	1272.6961	1318.9172	1404.873	1413.9848	1455.3985	1459.8286	1476.964	1478.1179	2239.7983	2369.9565	3027.1225	3027.1681	3081.0174	3087.3746	3090.004	3114.5916	3127.782	3506.3631	3507.7528
CC#CC1NC1CC#C	CC#C[C@H]1N[C@H]1CC#C	
InChI=1S/C8H9N/c1-3-5-7-8(9-7)6-4-2/h1,7-9H,5H2,2H3	InChI=1S/C8H9N/c1-3-5-7-8(9-7)6-4-2/h1,7-9H,5H2,2H3/t7-,8+/m0/s1
