25
gdb 103838	2.45561	1.02237	0.96776	1.1141	90.03	-0.2438	0.0867	0.3304	1468.1664	0.225701	-389.481537	-389.47028	-389.469336	-389.517583	41.621	
C	 0.0036948999	 1.2811324105	-0.5893327007	-0.244845
O	-0.0747349315	 0.0859534327	 0.1612698488	-0.27983
C	-1.337484086	-0.5287159917	 0.1657053054	 0.426078
C	-2.3861667176	 0.1889217	 0.989018937	-0.456709
C	-1.7408097711	-1.2812188636	-1.0841256682	-0.372389
C	-1.2947569584	-2.0320498985	 0.1586632085	-0.047691
C	 0.01759209	-2.7971600209	 0.1739564713	 0.034714
C	 0.5715500582	-2.8949758523	 1.6031001705	-0.391547
C	-0.1520716555	-4.1855098869	-0.4587601872	-0.388356
H	 1.0527721459	 1.5871991844	-0.5882610283	 0.124526
H	-0.3247511435	 1.1303318929	-1.6274660038	 0.106411
H	-0.5958517467	 2.0907867862	-0.1503092583	 0.108085
H	-2.6339820838	 1.1703395852	 0.5700482171	 0.115708
H	-3.3108056319	-0.3938770954	 1.0263102614	 0.117012
H	-2.0310230116	 0.3361321209	 2.0144787402	 0.123563
H	-2.7858745409	-1.2998851288	-1.3755354156	 0.104835
H	-1.0416456017	-1.2623738467	-1.9144947867	 0.111324
H	-2.0877880398	-2.5122474144	 0.7304359932	 0.074236
H	 0.7379411116	-2.2280710154	-0.4241066229	 0.078323
H	 0.7421149601	-1.8988307424	 2.0206075065	 0.12646
H	-0.1276632572	-3.4260683876	 2.2607595844	 0.103247
H	 1.5208926675	-3.4410987017	 1.6218218577	 0.103607
H	-0.5299190985	-4.1134306826	-1.4837146894	 0.110253
H	 0.8009709404	-4.7246389458	-0.485603801	 0.106199
H	-0.8607322479	-4.7950746183	 0.1150222901	 0.106788
64.4222	97.5283	126.7844	139.0986	190.3924	222.3384	229.6545	247.3146	282.9621	299.7341	335.2157	383.9898	391.6994	436.7005	489.0951	616.203	697.2345	772.2892	868.5749	894.0791	927.4663	930.6617	938.1018	964.9176	987.0864	1043.1552	1062.2774	1096.4751	1112.2023	1127.3137	1145.0381	1181.175	1184.9201	1215.972	1220.4683	1258.1756	1300.0959	1332.9221	1348.437	1395.7223	1409.1194	1415.3805	1430.9668	1473.6792	1479.778	1481.7008	1488.9907	1491.0487	1494.2525	1503.031	1506.6728	1511.0546	1512.1358	2991.7271	3021.7659	3025.5122	3031.4274	3043.6125	3044.34	3084.0703	3091.7768	3094.3419	3099.912	3110.3885	3113.5875	3113.7775	3116.2856	3123.5946	3209.6104
COC1(C)CC1C(C)C	CO[C@@]1(C)C[C@H]1C(C)C	
InChI=1S/C8H16O/c1-6(2)7-5-8(7,3)9-4/h6-7H,5H2,1-4H3	InChI=1S/C8H16O/c1-6(2)7-5-8(7,3)9-4/h6-7H,5H2,1-4H3/t7-,8-/m0/s1
