14
gdb 46124	5.55025	0.9047	0.80474	1.2209	62.73	-0.2928	-0.0156	0.2771	1314.4053	0.100809	-473.871795	-473.863849	-473.862905	-473.905409	27.771	
O	-0.9193200123	 0.1141031081	 0.3353625384	-0.306451
C	-0.4673040385	 1.2082039036	 0.2091752861	 0.40117
C	-1.1784912603	 2.5448821517	 0.0406465807	-0.226793
O	-0.1561966939	 3.5092710374	 0.2111508839	-0.247437
C	 1.0631154895	 2.8688781834	-0.0694595849	 0.225245
C	 2.1625356744	 3.397016473	 0.8519545335	-0.361429
C	 2.4669279747	 4.8002840411	 0.5902393706	 0.265949
N	 2.7138494687	 5.9068788198	 0.3717177175	-0.291342
O	 0.8735163153	 1.4789207239	 0.1859172612	-0.227961
H	-1.6416265751	 2.5966928092	-0.955581023	 0.145977
H	-1.9513715872	 2.6840825176	 0.7989866298	 0.162697
H	 1.3425278685	 2.9899943839	-1.1270783157	 0.115157
H	 1.8352468804	 3.271683503	 1.8885581953	 0.170464
H	 3.0640688258	 2.7942824744	 0.7040268665	 0.174756
56.1455	85.6528	139.1921	173.4542	295.975	389.3589	417.279	498.3009	537.937	562.4376	678.2312	754.3773	851.9377	875.9308	965.4932	1007.4219	1043.6277	1048.4956	1081.2158	1123.7282	1205.2698	1218.1417	1238.3327	1308.202	1339.2849	1388.3772	1423.8104	1451.549	1495.195	1916.4823	2372.7668	2998.8041	3011.9703	3063.9628	3113.5682	3118.0351
O=C1COC(CC#N)O1	O=C1CO[C@@H](CC#N)O1	
InChI=1S/C5H5NO3/c6-2-1-5-8-3-4(7)9-5/h5H,1,3H2	InChI=1S/C5H5NO3/c6-2-1-5-8-3-4(7)9-5/h5H,1,3H2/t5-/m1/s1
