20
gdb 90353	3.55174	1.2987	1.0078	1.2043	83.44	-0.2159	0.0181	0.2341	1204.6635	0.172204	-403.113729	-403.105702	-403.104758	-403.146031	31.333	
C	-0.0527812064	 1.5193078472	 0.0174454809	-0.323584
N	-0.026523697	 0.0726019782	 0.0851356982	-0.099087
C	-1.2771448536	-0.6204053492	 0.5226353514	-0.262446
C	-0.390710407	-1.550485895	 1.3163146642	 0.309835
C	-0.2340854355	-2.831194322	 1.6032817542	-0.265806
C	 1.1485843494	-3.3088485414	 1.9824236301	-0.093851
O	 2.1423595644	-2.2933362267	 1.9832637194	-0.256844
C	 2.0327538181	-1.324527503	 0.941868599	-0.115518
C	 0.7361207028	-0.5601422972	 1.194378376	-0.01471
H	 0.9477391825	 1.8973766052	-0.2165609967	 0.122366
H	-0.7263627694	 1.8403314544	-0.7841156602	 0.121128
H	-0.3889971186	 1.9952526187	 0.9584441341	 0.091846
H	-1.919481616	 0.0185263367	 1.1529826411	 0.094047
H	-1.8831464245	-1.0423634853	-0.2865010288	 0.113675
H	-1.0127647273	-3.5791354088	 1.4813828392	 0.093729
H	 1.1700935015	-3.7390800205	 2.9912504269	 0.118871
H	 1.4332683483	-4.1184785861	 1.2858892903	 0.099662
H	 2.9366947706	-0.7130868187	 1.0124770577	 0.102202
H	 1.9930142785	-1.7913921856	-0.0531794992	 0.095977
H	 0.8443028793	 0.1048002391	 2.067262462	 0.068509
108.8612	204.4946	219.3515	244.0456	261.7072	313.1619	354.3465	443.6041	465.8271	530.3721	649.4923	717.4834	798.3707	827.0728	879.6579	911.3693	969.1255	974.5077	1004.644	1025.7507	1063.2798	1088.2158	1115.9264	1131.8	1147.4487	1163.6882	1195.0508	1205.3801	1233.4335	1262.9308	1289.1395	1302.6848	1324.9426	1362.2964	1374.5573	1402.7367	1450.6421	1485.5283	1487.4283	1497.7458	1501.4379	1504.5195	1794.2525	2925.3194	2941.2581	2951.9395	2965.1945	3002.2265	3042.0792	3057.3916	3059.1741	3088.9815	3100.4257	3166.312
CN1CC2=CCOCC12	CN1C[C]2[CH]COC[C@@H]12	
InChI=1S/C7H11NO/c1-8-4-6-2-3-9-5-7(6)8/h2,7H,3-5H2,1H3	InChI=1S/C7H11NO/c1-8-4-6-2-3-9-5-7(6)8/h2,7H,3-5H2,1H3/t7-/m1/s1
