18
gdb 35812	3.01882	1.43928	1.13488	5.655	75.21	-0.2638	0.0353	0.2991	1087.1044	0.150279	-401.961314	-401.953788	-401.952843	-401.993581	28.841	
N	-0.1176061614	-1.1111251118	-0.2978822991	-0.324409
C	-0.0660799748	 0.0296128396	-0.1206198792	 0.278121
C	-0.0214858755	 1.4701674421	 0.1002851356	-0.1627
C	-0.4957846569	 1.9220100421	 1.5044937958	-0.226381
C	 0.0415385856	 3.3626195592	 1.6065272792	-0.239499
C	 1.409025923	 3.327250539	 0.9062537279	-0.072127
C	 2.5269508675	 2.563461522	 1.6466296818	-0.078316
O	 2.3596639818	 1.4031050658	 0.7999864339	-0.282871
C	 1.3921241556	 2.0792422412	-0.0199318256	 0.121261
H	-0.6501130891	 1.9485269475	-0.6629060978	 0.12275
H	-1.5791112561	 1.8526188724	 1.620617342	 0.118262
H	-0.0373699332	 1.2779379168	 2.260096303	 0.136986
H	-0.6263779281	 4.0497361071	 1.0742028276	 0.108027
H	 0.1075963663	 3.712895969	 2.6409212159	 0.110502
H	 1.7014238784	 4.2819873211	 0.4694913991	 0.085032
H	 3.5303177434	 2.9935927354	 1.5447809566	 0.108915
H	 2.3411279853	 2.3327531414	 2.7028547774	 0.107044
H	 1.7295215085	 2.17287083	-1.056864994	 0.089404
89.9917	140.8521	178.2331	246.7905	361.4727	364.7876	479.0662	539.2207	584.7364	656.9047	791.029	832.5497	853.9976	888.9547	900.9896	952.2376	958.4244	969.7882	1022.4551	1035.2806	1080.2033	1088.6065	1104.9754	1159.7805	1172.3918	1196.152	1247.3153	1257.1971	1285.2996	1303.3754	1316.8829	1331.795	1355.0399	1365.2182	1371.6456	1488.8662	1498.8073	1526.6082	2361.4414	3016.9268	3024.9988	3040.4641	3061.1961	3061.5688	3072.0125	3090.9178	3113.3336	3124.1626
N#CC1CCC2COC12	N#C[C@H]1CC[C@H]2CO[C@@H]12	
InChI=1S/C7H9NO/c8-3-5-1-2-6-4-9-7(5)6/h5-7H,1-2,4H2	InChI=1S/C7H9NO/c8-3-5-1-2-6-4-9-7(5)6/h5-7H,1-2,4H2/t5-,6+,7+/m1/s1
