25
gdb 119974	2.25648	0.94979	0.79855	1.0867	90.35	-0.2339	0.0794	0.3133	1635.5871	0.226857	-389.474721	-389.463455	-389.462511	-389.51167	40.381	
C	-0.013496941	 1.5683975368	 0.0904601487	-0.381995
C	 0.1646192707	 0.0489937308	 0.042315841	-0.156004
C	 0.5182599079	-0.4683662935	-1.3592174856	-0.184747
C	 0.6484441572	-1.9783436899	-1.4012848299	-0.078468
C	 1.4578973464	-2.7145187876	-2.4630192469	-0.076996
C	 2.1906764005	-1.9792476494	-3.5655724117	-0.409407
C	 1.9339360252	-2.6565358121	-1.0228958684	 0.105361
O	 3.0002812373	-1.8242940823	-0.6812773771	-0.235309
C	 4.2527680288	-2.4749114954	-0.7588253101	-0.232347
H	 0.9032926818	 2.0839713579	-0.2170062736	 0.113608
H	-0.8158136684	 1.8959415842	-0.5807068438	 0.109531
H	-0.2642544044	 1.9108308729	 1.0995149847	 0.107896
H	 0.9561604053	-0.2560140237	 0.7368637216	 0.110401
H	-0.7559408477	-0.4394579868	 0.3893638362	 0.086639
H	-0.2553713073	-0.151724731	-2.0724763383	 0.08686
H	 1.4516910242	 0.0007506761	-1.6823774239	 0.105901
H	-0.250031681	-2.495941543	-1.0706559853	 0.078581
H	 1.0405219921	-3.6703556291	-2.7713105111	 0.077524
H	 2.775267608	-1.1449992843	-3.1720262417	 0.131157
H	 2.8813213155	-2.6515505466	-4.0863586035	 0.110441
H	 1.4941433952	-1.5812651219	-4.3117512923	 0.114867
H	 1.8895884227	-3.571227306	-0.4284078774	 0.074955
H	 4.4711666055	-2.8239874531	-1.777634235	 0.110671
H	 5.0127677814	-1.7499393357	-0.4573572873	 0.124992
H	 4.2979061441	-3.3401471369	-0.0798120595	 0.105891
54.3548	81.2701	106.5144	118.2295	162.8184	184.3335	197.8695	231.2233	243.2002	283.8566	303.5802	391.3372	489.4866	574.5972	604.7116	748.1861	769.6081	789.257	877.4934	886.2647	901.9875	974.8059	991.487	1035.6066	1045.9879	1082.8761	1104.7304	1124.4776	1133.6088	1153.0575	1169.4285	1183.7369	1188.6405	1231.7444	1265.7088	1272.4202	1304.8598	1331.7818	1369.2475	1372.8845	1398.6386	1412.0161	1415.8893	1447.5306	1477.9108	1484.9838	1487.4583	1492.8521	1499.4713	1501.34	1502.9017	1509.6609	1510.8117	2983.4351	3011.9696	3017.1747	3026.9452	3032.1972	3037.5146	3057.7303	3073.9408	3085.0535	3087.0462	3096.5667	3098.6593	3115.4779	3116.8395	3122.4289	3136.8891
CCCC1C(C)C1OC	CCC[C@H]1[C@@H](C)[C@H]1OC	
InChI=1S/C8H16O/c1-4-5-7-6(2)8(7)9-3/h6-8H,4-5H2,1-3H3	InChI=1S/C8H16O/c1-4-5-7-6(2)8(7)9-3/h6-8H,4-5H2,1-3H3/t6-,7+,8-/m1/s1
