17
gdb 62750	2.56344	1.56199	1.27005	2.207	70.63	-0.225	0.0158	0.2409	1039.2254	0.133738	-455.100342	-455.091091	-455.090147	-455.133991	34.495	
C	-0.0092686716	 1.5473016586	 0.0138608651	-0.46442
C	 0.0714094131	 0.0386832789	 0.0420182424	 0.317068
O	-1.0746774645	-0.6152058343	-0.4298603868	-0.451301
C	 1.3385698925	-0.7373975927	-0.1763529838	-0.043076
O	 2.4601837295	-0.0020981874	 0.379884924	-0.272647
C	 1.916795849	-0.115123949	 1.661153214	 0.374513
N	 2.4053417011	 0.1575755618	 2.7826397367	-0.562191
C	 0.6560528189	-0.7800225836	 1.2029824354	 0.162966
N	-0.0855771029	-1.766373605	 1.8872152797	-0.598422
H	 0.916939972	 2.0064114902	 0.362090039	 0.14904
H	-0.1871066895	 1.8926010152	-1.0124823517	 0.111275
H	-0.8373474708	 1.8959134448	 0.6379057629	 0.131284
H	-1.2388754662	-0.305586717	-1.3278068521	 0.289507
H	 1.5344593175	-1.4936745653	-0.9236328631	 0.127617
H	 3.3470493166	 0.5433618878	 2.6983494651	 0.231641
H	 0.4350959287	-2.1077553732	 2.687029607	 0.250111
H	-0.9781243133	-1.4105708296	 2.2085804963	 0.247034
75.3512	132.7843	183.0421	203.7731	239.6331	263.2629	288.0562	300.2353	403.3094	412.9659	533.1912	550.8757	615.8579	683.0189	736.3521	764.9538	765.978	861.2076	900.3479	911.2701	970.3361	975.0502	991.1898	1038.8002	1091.5697	1159.5029	1224.254	1246.9176	1273.133	1299.6257	1354.6684	1414.1537	1472.4642	1489.6116	1502.6453	1655.2758	1821.735	3028.9806	3097.2602	3144.3448	3221.7097	3481.8993	3521.2706	3604.8703	3797.5512
CC1(O)C2OC(=N)C12N	C[C@@]1(O)[C@H]2O[C]([NH])[C@@]12N	
InChI=1S/C5H8N2O2/c1-4(8)2-5(4,7)3(6)9-2/h2,6,8H,7H2,1H3	InChI=1S/C5H8N2O2/c1-4(8)2-5(4,7)3(6)9-2/h2,6,8H,7H2,1H3/t2-,4-,5-/m1/s1
