19
gdb 37461	2.74752	2.10362	1.78611	1.9173	75.98	-0.2155	0.0663	0.2818	865.3199	0.164488	-382.026872	-382.020712	-382.019767	-382.056997	26.821	
C	-0.0444454844	 1.5470951725	-0.1777646058	-0.23189
C	 1.4382296062	 1.956184255	 0.0251555885	-0.195343
C	 2.043218638	 0.8034573071	 0.8522466218	-0.021262
C	 1.7559312086	 0.9297097666	 2.3563926206	-0.045089
N	 0.4533176238	 1.5622088701	 2.671264429	-0.338434
C	 0.5736493894	 0.0872115493	 2.6419898621	-0.043735
C	 0.2246584151	-0.6250466185	 1.3601470574	-0.030037
C	-0.0341816414	 0.0372923815	 0.0463218466	-0.034686
N	 1.3312864941	-0.4411976737	 0.3740003522	-0.130445
H	-0.7020029846	 2.0681812258	 0.5160558908	 0.131199
H	-0.3819632197	 1.7592130468	-1.1966055694	 0.089789
H	 1.9475135596	 2.0157541677	-0.941595463	 0.09867
H	 1.5458258641	 2.920800526	 0.5260987598	 0.10423
H	 3.1140192773	 0.6773190416	 0.6790325097	 0.07643
H	 2.5775310892	 1.0461444243	 3.0558277392	 0.08693
H	 0.459727338	 1.8730073971	 3.6408390377	 0.229698
H	 0.4625055814	-0.4644042871	 3.5694518956	 0.088297
H	-0.1206943216	-1.6495187166	 1.4795291633	 0.082485
H	-0.557644343	-0.5678125656	-0.691533086	 0.083192
201.9055	277.4238	298.646	466.4725	560.8047	607.7669	671.017	714.7109	725.6979	758.0456	762.4857	826.9706	838.2959	868.2352	884.0569	913.5793	932.9772	943.6884	988.355	1002.8978	1041.7678	1060.8541	1081.0218	1108.1041	1120.0307	1147.0298	1164.7956	1191.1998	1227.6613	1240.41	1253.3016	1275.4918	1309.9539	1325.6653	1338.821	1365.7353	1384.8054	1408.8871	1428.5481	1477.2332	1497.3797	3050.4936	3063.0757	3087.0838	3108.9347	3115.4673	3130.1191	3143.5038	3157.5709	3170.7858	3482.0914
C1CC2C3NC3C3C1N23	C1C[C@H]2[C@H]3N[C@H]3[C@H]3[C@@H]1N23	
InChI=1S/C7H10N2/c1-2-4-7-6-5(8-6)3(1)9(4)7/h3-8H,1-2H2	InChI=1S/C7H10N2/c1-2-4-7-6-5(8-6)3(1)9(4)7/h3-8H,1-2H2/t3-,4+,5+,6+,7+,9?/m0/s1
