16
gdb 15392	3.10485	1.38282	1.04739	4.2423	66.28	-0.2637	0.0149	0.2785	1119.8041	0.129868	-379.888864	-379.880361	-379.879417	-379.92295	29.208	
C	-0.2736202275	 1.3334364392	-0.3378169631	-0.227656
O	-0.3755541786	-0.0694550373	-0.4314589809	-0.238665
C	-1.0543631179	-0.6413839282	 0.6610816364	-0.057337
C	-1.1143515607	-2.129514821	 0.4324549103	-0.035152
N	-2.1006652537	-2.8655619526	 1.2168746613	-0.321069
C	-2.2742941529	-2.7866285396	-0.2491750349	-0.180201
C	-3.406502588	-2.028728304	-0.7255524713	 0.336428
N	-4.3045848924	-1.424296021	-1.1310269229	-0.335923
H	 0.2623319938	 1.6799510201	-1.2241926808	 0.131278
H	-1.2645930647	 1.8111930374	-0.3098481233	 0.116906
H	 0.2844334368	 1.6420805006	 0.5603061226	 0.105122
H	-0.5234399511	-0.4388889055	 1.6074772592	 0.095231
H	-2.0725970211	-0.2361544754	 0.7642660171	 0.118281
H	-0.1481000699	-2.5927427584	 0.242014807	 0.10933
H	-1.759755737	-3.7887009645	 1.470555055	 0.249557
H	-2.058423305	-3.66930893	-0.8446899018	 0.13387
43.996	82.8637	149.958	164.5645	224.2647	243.4746	339.1993	425.587	446.8219	577.4398	606.8966	799.118	832.5	921.7777	966.99	996.3133	1010.5354	1034.5825	1123.0902	1167.024	1177.5759	1197.4562	1213.1632	1226.7569	1246.7154	1279.276	1372.7479	1417.3191	1469.2151	1485.0554	1485.5464	1502.9983	1523.4989	2361.6215	2957.2432	2976.3237	3008.5411	3023.7711	3120.7412	3133.6027	3153.1016	3516.0681
COCC1NC1C#N	COC[C@H]1N[C@H]1C#N	
InChI=1S/C5H8N2O/c1-8-3-5-4(2-6)7-5/h4-5,7H,3H2,1H3	InChI=1S/C5H8N2O/c1-8-3-5-4(2-6)7-5/h4-5,7H,3H2,1H3/t4-,5+/m0/s1
