23
gdb 102169	1.86423	1.1535	0.88246	4.3409	86.97	-0.2268	0.0298	0.2566	1466.973	0.203387	-384.475443	-384.46422	-384.463276	-384.51261	39.976	
C	-0.3493142722	 1.405979578	 0.3635094903	-0.390436
C	-0.1389900513	-0.0941480571	 0.5691038602	-0.137673
N	 1.1044534556	-0.4159262966	 1.2766633603	-0.066725
C	 1.0442554573	-1.7166351557	 1.9282049121	-0.303089
C	 0.1279465324	-1.705190006	 3.0783385359	 0.282545
N	-0.5994371567	-1.7106340675	 3.9758597478	-0.312045
C	 2.3417867838	-0.1961742063	 0.5012217596	 0.058453
C	 3.5365344975	 0.0449495251	 1.4322887876	-0.396813
C	 2.6518502968	-1.2854500397	-0.5435601924	-0.397775
H	 0.3854243592	 1.8462391321	-0.3168885977	 0.120415
H	-1.3384506942	 1.5835287953	-0.0699003457	 0.118313
H	-0.288701803	 1.9328111876	 1.3197383489	 0.132867
H	-0.9624254216	-0.4707139166	 1.1847627151	 0.124921
H	-0.2140399331	-0.6222421438	-0.3995790577	 0.083426
H	 0.7299416493	-2.5408538568	 1.2615372926	 0.129707
H	 2.0359138359	-1.9838959896	 2.3045096031	 0.150336
H	 2.1724030325	 0.7388764365	-0.0408209354	 0.088128
H	 3.8318600541	-0.860884437	 1.9737600302	 0.114551
H	 4.4073140397	 0.3673655583	 0.8529448818	 0.116861
H	 3.2974315985	 0.8177414646	 2.1669063788	 0.12888
H	 1.8003597625	-1.4679555258	-1.2062662321	 0.12058
H	 3.4971312467	-0.980151132	-1.1680311596	 0.119506
H	 2.9240812803	-2.235836727	-0.0711592037	 0.115066
36.005	64.3213	79.0909	141.797	203.5917	221.0312	234.325	240.2594	275.808	281.1196	376.0737	389.8294	416.5554	458.8541	542.0507	566.7858	750.8829	811.0222	857.4261	920.7333	928.7031	940.5088	955.2073	1010.8721	1046.7765	1094.3264	1121.2824	1144.82	1158.6668	1203.45	1234.693	1288.1132	1326.0954	1345.3767	1387.3087	1396.3575	1401.071	1408.0231	1416.4244	1426.3823	1470.3245	1483.1546	1491.1761	1493.5751	1496.7529	1501.2277	1508.1305	1513.8609	2362.6519	2929.4866	2933.5508	3031.4511	3035.9217	3043.1457	3061.44	3065.5891	3086.903	3094.8487	3103.9718	3107.4319	3111.1237	3123.0795	3125.661
CCN(CC#N)C(C)C	CCN(CC#N)C(C)C	
InChI=1S/C7H14N2/c1-4-9(6-5-8)7(2)3/h7H,4,6H2,1-3H3	InChI=1S/C7H14N2/c1-4-9(6-5-8)7(2)3/h7H,4,6H2,1-3H3
