15
gdb 27845	2.07251	1.78485	0.95961	3.7936	76.42	-0.1867	-0.0109	0.1758	1145.4622	0.113512	-453.990054	-453.982155	-453.981211	-454.022172	31.097	
N	 0.0869029212	 1.337246609	 0.16904289	-0.563418
C	-0.0555525807	-0.022234954	 0.0615224481	 0.463491
C	-1.2297129733	-0.7045870006	 0.0375275184	-0.362812
C	-1.1575492001	-2.1291474309	-0.002979693	 0.442955
O	-2.3533584777	-2.7622056715	-0.0203160385	-0.42985
C	 0.0393569186	-2.7795156352	-0.0242295536	-0.362252
C	 1.2717698947	-2.0485294895	-0.0088282402	 0.389016
N	 2.4391906066	-2.549428594	-0.030855359	-0.555965
O	 1.1404249024	-0.633606382	 0.0314439557	-0.272296
H	 0.973136502	 1.6998001246	-0.148628735	 0.26633
H	-0.7125600094	 1.8912139297	-0.0937877628	 0.266712
H	-2.1836715244	-0.1988363113	 0.0608811593	 0.10263
H	-2.20302925	-3.7140516408	-0.0475708188	 0.304057
H	 0.1168456777	-3.8588176905	-0.0566288052	 0.099491
H	 3.1489459523	-1.818960143	-0.0096907754	 0.211911
137.3989	178.201	206.3356	313.3475	350.0652	357.9441	459.0944	481.8855	497.618	531.1797	561.3447	629.9174	636.2749	666.4838	706.1325	750.7582	788.1953	810.7591	863.0122	1001.9657	1018.116	1100.3302	1111.6676	1185.7895	1229.6467	1263.5538	1310.7035	1429.3706	1513.1594	1606.1037	1643.6973	1683.1572	1754.0534	3209.3388	3237.3595	3506.5209	3586.3534	3700.4686	3808.735
NC1=CC(O)=CC(=N)O1	NC1=C[C@@H](O)C=C([NH])O1	
InChI=1S/C5H6N2O2/c6-4-1-3(8)2-5(7)9-4/h1-2,6,8H,7H2	InChI=1S/C5H7N2O2/c6-4-1-3(8)2-5(7)9-4/h1-3,6,8H,7H2/t3-/m0/s1
