16
gdb 55596	5.01725	0.82202	0.71483	5.0474	73.23	-0.2276	-0.0164	0.2112	1509.2534	0.125021	-467.429646	-467.420171	-467.419227	-467.464913	33.756	
N	 1.3012626602	-0.3111363805	-0.2277125995	-0.520966
C	 0.0420651021	 0.1502625695	 0.0175810372	 0.447332
N	-0.1933534308	 1.3825964	 0.2654197999	-0.561836
N	-0.9819091104	-0.8285882614	-0.087385705	-0.442375
C	-0.8417468077	-2.2098316163	-0.1509778749	 0.55603
O	 0.2116727124	-2.8006488967	-0.0810661929	-0.361008
N	-2.0817730567	-2.8355433202	-0.3215449092	-0.38039
C	-2.3670366045	-4.1996981175	-0.2647548586	 0.08912
N	-1.5568826935	-5.08675778	 0.1307431575	-0.394877
H	 2.0294565469	 0.3374064748	 0.0220860516	 0.260644
H	 1.4618953771	-1.3016626094	-0.1042056235	 0.28584
H	-1.1871778715	 1.5729292563	 0.3670297607	 0.19668
H	-1.905749173	-0.4558831224	 0.0618343616	 0.243095
H	-2.8488141764	-2.2548452188	-0.6190634546	 0.25266
H	-3.398075611	-4.3776025815	-0.5966246549	 0.097309
H	-2.0012694435	-6.002106276	 0.0849341249	 0.232742
42.7421	77.4963	100.4458	148.6697	185.1031	285.4095	348.7927	393.6636	425.3108	489.584	517.3611	529.6708	557.6018	619.6255	721.555	748.9203	754.3125	816.9596	856.7355	939.2574	987.7225	1060.4544	1117.9462	1148.8915	1167.3609	1197.9396	1262.2227	1416.9913	1432.6595	1487.7193	1540.3753	1606.4947	1740.7431	1755.0206	1825.725	3031.9782	3503.5427	3511.9514	3545.0351	3632.8469	3644.9603	3700.012
NC(=N)NC(=O)NC=N	NC(=N)NC(=O)NC=N	
InChI=1S/C3H7N5O/c4-1-7-3(9)8-2(5)6/h1H,(H6,4,5,6,7,8,9)	InChI=1S/C3H7N5O/c4-1-7-3(9)8-2(5)6/h1H,(H6,4,5,6,7,8,9)
