16
gdb 16650	3.44195	2.27238	1.53755	4.6584	65.34	-0.2434	0.0339	0.2773	829.0466	0.132389	-379.938489	-379.931374	-379.93043	-379.969826	26.243	
C	-0.0471915426	 1.3857438249	 0.0085359701	-0.34145
N	-0.0165972452	-0.0566938528	 0.0099017791	-0.081585
C	-1.2081591348	-0.876188496	 0.057941265	-0.193412
C	-0.6253843298	-2.2820512921	-0.0172056662	-0.026407
C	 0.2278641032	-2.6350763626	-1.1736919145	-0.248466
N	 0.8426700387	-2.1864004087	 0.0995912234	-0.154027
C	 1.1559379385	-0.7753709462	 0.0518328195	 0.408286
O	 2.2731325643	-0.3217284885	 0.052622343	-0.380599
H	 0.9864551336	 1.7353953341	-0.0035243808	 0.16893
H	-0.5701422607	 1.7718664563	-0.8752055502	 0.122656
H	-0.5490122191	 1.7756836908	 0.9035876131	 0.123511
H	-1.7602632615	-0.7311400865	 0.9978946512	 0.11404
H	-1.8952102729	-0.6451310545	-0.7677765348	 0.11457
H	-1.1005168379	-3.063995585	 0.5650123869	 0.110088
H	 0.4077225444	-3.6773623348	-1.4164779899	 0.132414
H	 0.2666996919	-1.9503414086	-2.0174142348	 0.13145
130.2882	143.5266	178.787	263.6195	304.5072	384.6492	490.7819	632.6202	676.9886	756.5204	788.8932	826.8157	871.928	940.4594	985.9437	1016.445	1075.6792	1094.4021	1114.5239	1127.3366	1155.7314	1172.1284	1220.1601	1260.8703	1305.0555	1313.2007	1389.6134	1428.0822	1447.0489	1492.2343	1504.576	1514.8407	1541.4656	1841.7137	2993.8275	3011.676	3021.9359	3059.4477	3113.3542	3144.4254	3169.671	3206.3641
CN1CC2CN2C1=O	CN1C[C@H]2CN2C1=O	
InChI=1S/C5H8N2O/c1-6-2-4-3-7(4)5(6)8/h4H,2-3H2,1H3	InChI=1S/C5H8N2O/c1-6-2-4-3-7(4)5(6)8/h4H,2-3H2,1H3/t4-,7?/m0/s1
