25
gdb 119057	1.73019	1.28521	0.94936	0.9191	89.9	-0.2419	0.0827	0.3246	1463.2751	0.226149	-389.485143	-389.473894	-389.472949	-389.521858	41.034	
C	-0.8938957812	 1.2638238734	-0.489674502	-0.385759
C	-0.6962610384	-0.2421913812	-0.4363416625	-0.048211
O	 0.5968663601	-0.5336179481	-0.9459250665	-0.296894
C	 0.8901270106	-1.8973865631	-1.1040757844	 0.44608
C	 1.1429892763	-2.6513559617	 0.1901862925	-0.246268
C	 2.2850463473	-2.0470506912	 1.014402036	-0.374434
C	 0.2521361887	-2.6039561098	-2.2794801984	-0.366435
C	 1.7213661205	-2.2204661992	-2.3187519567	-0.048862
C	 2.2060036924	-1.1409666538	-3.2599087871	-0.402586
H	-0.1283516724	 1.7725369353	 0.1032591214	 0.126187
H	-0.823363035	 1.6257114761	-1.5195304753	 0.123492
H	-1.8769132488	 1.5339538908	-0.0920661853	 0.112986
H	-0.7962648549	-0.6007266679	 0.5992350893	 0.090429
H	-1.4625681932	-0.7583148287	-1.0342283108	 0.089105
H	 0.2239200138	-2.6755501532	 0.7902592369	 0.094372
H	 1.3660266488	-3.6957658137	-0.056418074	 0.094516
H	 2.0849242791	-0.9955851868	 1.2379997616	 0.126911
H	 2.4165514367	-2.5811335997	 1.9603200617	 0.105786
H	 3.2317670957	-2.0925208765	 0.4658482821	 0.115669
H	-0.0243875174	-3.648914195	-2.1833333957	 0.104639
H	-0.4174597779	-2.0150893193	-2.8982959075	 0.110126
H	 2.4194943951	-3.0429339371	-2.179227584	 0.079041
H	 1.5029985443	-0.3059027444	-3.2862682142	 0.125682
H	 3.1766102985	-0.7454485249	-2.9412034177	 0.114764
H	 2.3208587311	-1.5313694002	-4.2770722695	 0.109664
45.8063	75.797	115.2658	148.2917	166.1754	192.6886	206.2811	243.3092	264.6181	301.3948	330.7597	427.5895	438.3068	488.4811	573.0091	705.53	783.0322	804.5387	819.1354	883.9059	889.3012	916.8958	952.1465	995.8224	1016.4204	1041.6655	1051.7912	1094.2345	1109.4733	1128.3838	1139.1989	1149.1353	1187.4851	1192.1982	1257.215	1261.0854	1295.8152	1335.5375	1361.2983	1396.8367	1404.2552	1408.9287	1423.009	1428.4547	1481.6323	1484.3834	1486.1287	1493.8726	1495.2408	1499.3294	1504.8409	1509.3164	1528.9085	2981.5339	3010.0425	3023.4161	3033.3678	3039.3997	3043.2131	3059.5961	3089.1178	3105.0018	3117.3621	3118.909	3119.5338	3120.0929	3124.8311	3137.2934	3211.0896
CCOC1(CC)CC1C	CCO[C@@]1(CC)C[C@H]1C	
InChI=1S/C8H16O/c1-4-8(9-5-2)6-7(8)3/h7H,4-6H2,1-3H3	InChI=1S/C8H16O/c1-4-8(9-5-2)6-7(8)3/h7H,4-6H2,1-3H3/t7-,8+/m1/s1
