17
gdb 84621	2.6442	1.52317	1.17907	2.8599	73.97	-0.2511	-0.0298	0.2213	1059.402	0.135557	-421.828722	-421.820649	-421.819705	-421.861295	30.742	
O	 0.3451886667	 1.4280277889	-0.1231265006	-0.426203
C	 0.1123281595	 0.0315573001	-0.0109188873	-0.015706
C	 0.6418704991	-0.588760601	 1.2713473674	-0.130301
C	-0.2741969146	-1.332152004	 1.8934015733	-0.079742
C	-1.5910654831	-1.3013914086	 1.1893531818	-0.097423
C	-2.2575778334	 0.03669596	 1.1176468263	-0.322271
C	-1.3606516416	-0.3918209246	-0.0328092602	 0.233083
C	-2.0176779299	-0.7369587449	-1.3139140988	 0.06625
O	-3.1858592577	-1.0242786087	-1.4339098984	-0.279453
H	-0.0856502607	 1.8575268169	 0.6243699098	 0.278776
H	 0.6242118218	-0.390029366	-0.8875718329	 0.09963
H	 1.652896901	-0.3978341637	 1.6115427572	 0.11035
H	-0.1258855045	-1.8812123267	 2.8165865363	 0.111191
H	-2.1990573028	-2.1928268582	 1.0856895054	 0.117531
H	-3.3132480697	 0.0578587782	 0.8703001206	 0.148578
H	-1.9075495114	 0.8178597981	 1.7848251184	 0.109665
H	-1.3369699489	-0.7283423457	-2.1950638181	 0.076046
95.6998	146.6337	210.679	232.8703	251.981	314.131	364.2412	453.0051	550.9371	568.6456	680.3352	735.5631	756.881	791.2628	843.7144	883.551	940.6004	970.8443	978.3793	1015.161	1043.1228	1057.2909	1078.4157	1085.8403	1093.0341	1154.5579	1207.4596	1249.8269	1276.2467	1313.5568	1358.412	1383.2199	1424.4692	1432.4231	1457.8099	1670.4245	1801.8988	2876.8398	3011.8919	3126.9006	3181.9075	3191.004	3215.6305	3226.5583	3798.9772
OC1C=CC2CC12C=O	O[C@H]1C=C[C@H]2C[C@@]12C=O	
InChI=1S/C7H8O2/c8-4-7-3-5(7)1-2-6(7)9/h1-2,4-6,9H,3H2	InChI=1S/C7H8O2/c8-4-7-3-5(7)1-2-6(7)9/h1-2,4-6,9H,3H2/t5-,6-,7-/m0/s1
