18
gdb 65359	4.20613	1.0109	0.91626	1.5557	79.47	-0.2479	0.0202	0.2681	1298.1101	0.145616	-401.865526	-401.856419	-401.855475	-401.899264	33.953	
C	 0.2320178707	 1.4327535817	-0.129497562	-0.486326
C	 0.0001538242	-0.0389632409	 0.1466527664	 0.174912
O	 1.175832827	-0.8894364944	 0.1737737087	-0.280338
C	 0.4606378777	-0.7025138443	 1.3936341301	-0.012406
C	 1.1901918108	 0.0101933425	 2.4941766137	-0.046104
C	 2.4647692705	-0.5629131797	 2.9980506916	-0.236078
N	 2.4634857602	 0.6840754715	 2.2141261291	-0.315724
C	-1.1297707414	-0.6171412999	-0.5468923323	 0.293633
C	-2.0810458648	-1.0668395718	-1.1277775285	-0.420311
H	 1.0330318068	 1.8356326868	 0.4905110986	 0.154742
H	 0.4852225271	 1.577621243	-1.1838458342	 0.138439
H	-0.6850225975	 1.9933044834	 0.0747895026	 0.136367
H	-0.1122776625	-1.5746706741	 1.7136019785	 0.105319
H	 0.5433744381	 0.535145488	 3.1946171961	 0.103664
H	 2.732764177	-0.4532093281	 4.044663265	 0.121005
H	 2.8331353414	-1.4670081451	 2.5202334132	 0.123884
H	 2.7265866784	 0.4539252959	 1.2565691983	 0.244146
H	-2.9180265838	-1.4731730944	-1.6402639151	 0.201176
99.0531	117.9064	125.313	193.5546	203.3901	250.0263	315.8373	376.285	408.7632	543.3348	571.0381	627.7114	637.4812	665.0932	692.4222	787.0556	841.3373	859.1209	915.9291	947.5514	989.2113	999.9158	1065.66	1100.7003	1119.5949	1135.174	1143.9974	1191.3164	1247.459	1284.5502	1304.6546	1325.6802	1399.3903	1418.1784	1443.0812	1491.1581	1496.1594	1507.7507	2238.5593	3051.9136	3095.5002	3111.0673	3115.8299	3127.4586	3156.9973	3199.6007	3478.4096	3500.8215
CC1(OC1C1CN1)C#C	C[C@]1(O[C@H]1[C@H]1CN1)C#C	
InChI=1S/C7H9NO/c1-3-7(2)6(9-7)5-4-8-5/h1,5-6,8H,4H2,2H3	InChI=1S/C7H9NO/c1-3-7(2)6(9-7)5-4-8-5/h1,5-6,8H,4H2,2H3/t5-,6+,7+/m1/s1
