19
gdb 71811	3.41785	1.6143	1.54881	1.5719	77.5	-0.2205	0.0726	0.2931	956.2269	0.160677	-385.837903	-385.830972	-385.830027	-385.868725	29.308	
C	-0.137985225	 1.5056459243	-0.0075559922	-0.49508
C	-0.0569194324	 0.0158487639	 0.037093985	 0.453321
O	-0.1225348105	-0.6795484529	-1.2146110139	-0.333347
C	-0.5746905318	-1.8833654317	-0.5108620826	 0.063453
C	 0.6254360815	-2.8091371912	-0.2784510399	-0.046588
C	 1.9800672552	-2.2906820994	-0.7105797577	-0.292255
C	 1.4945080982	-2.0460852596	 0.6987004423	-0.040726
C	 0.6949365193	-0.8129490596	 1.0842965057	-0.135117
C	-0.7818557402	-1.0507177231	 0.7925979401	-0.210513
H	 0.7288157885	 1.9239869151	-0.531321825	 0.13136
H	-1.0426357473	 1.8273412666	-0.5333590307	 0.129171
H	-0.1560144814	 1.9201994078	 1.0043521882	 0.123538
H	-1.435178963	-2.3317826763	-1.0083771144	 0.078692
H	 0.4500360943	-3.8758686298	-0.1904831845	 0.080893
H	 2.7693847833	-3.0270645882	-0.828064856	 0.101111
H	 2.0054771758	-1.4708734568	-1.4144577172	 0.13555
H	 2.0021143121	-2.559752675	 1.5090388824	 0.08155
H	 0.9645191898	-0.276716199	 1.9879980454	 0.082793
H	-1.6187141767	-1.036164495	 1.4786298349	 0.092193
183.5053	197.4915	285.7072	304.7916	373.4512	531.0091	551.2142	606.8705	696.9323	715.8105	744.4278	789.5863	814.8973	835.8646	867.8718	886.6978	905.7247	932.1968	956.0371	959.0804	995.1681	1023.7602	1053.8002	1063.9236	1083.8498	1100.8381	1104.503	1111.2424	1176.4415	1193.0096	1212.6988	1245.8726	1268.5647	1308.3012	1337.6964	1373.8755	1403.791	1454.7498	1474.4166	1476.6375	1498.9425	3033.2719	3097.806	3110.4922	3116.3096	3135.7218	3150.7485	3167.6965	3173.8949	3194.3814	3247.3584
CC12OC3C4CC4C1C23	C[C@@]12O[C@H]3[C@H]4C[C@H]4[C@@H]1[C@@H]23	
InChI=1S/C8H10O/c1-8-5-3-2-4(3)7(9-8)6(5)8/h3-7H,2H2,1H3	InChI=1S/C8H10O/c1-8-5-3-2-4(3)7(9-8)6(5)8/h3-7H,2H2,1H3/t3-,4+,5-,6-,7+,8-/m1/s1
