16
gdb 20957	7.30752	1.17037	1.02166	1.6119	67.5	-0.2139	0.0315	0.2454	1132.9023	0.131812	-379.940701	-379.933023	-379.932079	-379.973158	27.788	
C	-0.006263821	 1.4729843092	-0.0178912737	-0.392292
C	 0.0046598551	-0.0439250181	-0.0055043395	-0.031696
O	 0.6814192737	-0.4808810091	-1.1894230088	-0.276745
C	 0.7879121733	-1.8095879684	-1.3554153944	 0.458217
N	 0.305869733	-2.6921004087	-0.4882457218	-0.323625
N	 0.6290738053	-3.8901918125	-1.0394995764	-0.209656
C	 1.2915880919	-3.7717970278	-2.2124135494	-0.000266
C	 1.4208037481	-2.4240730784	-2.4637237751	-0.333594
H	 1.0132782888	 1.8688015069	-0.0270720799	 0.126994
H	-0.5290566603	 1.85058896	-0.901250538	 0.126975
H	-0.5160563571	 1.8502624033	 0.8737495497	 0.117104
H	 0.5237811601	-0.4391695184	 0.876120968	 0.112343
H	-1.0110853949	-0.4574844341	 0.0054931384	 0.112416
H	 0.364712184	-4.7306969927	-0.5579154119	 0.272579
H	 1.6154194592	-4.6366125948	-2.7702206249	 0.133765
H	 1.8918119508	-1.9447273964	-3.3045028322	 0.10748
66.9169	99.8712	165.4784	250.6121	336.9357	355.0725	394.7902	465.0262	648.2572	720.6311	747.9462	763.9856	813.152	829.5282	911.4511	936.9562	1003.9728	1062.3549	1074.8774	1115.8855	1135.0554	1184.4573	1224.1404	1289.2415	1311.8263	1389.3177	1406.2803	1419.9445	1484.9403	1491.3964	1498.3899	1515.1219	1538.1905	1593.4456	3025.8556	3044.9657	3060.77	3119.2285	3122.8063	3256.8479	3287.0289	3695.7557
CCOC1=NNC=C1	CCOc1n[nH]cc1	
InChI=1S/C5H8N2O/c1-2-8-5-3-4-6-7-5/h3-4H,2H2,1H3,(H,6,7)	InChI=1S/C5H8N2O/c1-2-8-5-3-4-6-7-5/h3-4H,2H2,1H3,(H,6,7)
