18
gdb 17853	4.90797	1.6052	1.52248	1.5136	71.45	-0.2203	0.0755	0.2958	902.0656	0.154725	-347.748563	-347.741569	-347.740625	-347.779901	27.061	
C	 0.0660595052	 1.3163543898	-0.2740551242	-0.07621
C	 1.5130712976	 1.520980341	 0.2229687186	-0.365161
C	 1.3236239476	 0.1311890692	 0.832100411	 0.482038
O	-0.0142431556	 0.0089760551	 0.3395421122	-0.323661
C	 2.1732712131	-1.0937212981	 0.8638211049	-0.137842
C	 3.6055295979	-0.7396759026	 1.2744387029	-0.232799
C	 3.0613463192	-0.0884700382	 2.5907832388	-0.232809
C	 1.6328197262	-0.4470573669	 2.171243644	-0.137836
H	-0.6808553874	 2.0029599756	 0.1402419648	 0.105296
H	-0.0600695663	 1.2601477651	-1.3612013786	 0.105294
H	 2.2719469186	 1.5919893675	-0.5587193664	 0.113178
H	 1.6525737808	 2.3329730891	 0.9393338001	 0.113178
H	 1.8478861655	-1.9948431065	 0.3573601429	 0.092007
H	 4.2215447886	-1.6187204054	 1.4749672938	 0.107682
H	 4.1546603018	-0.0841406966	 0.5893110815	 0.093976
H	 3.3917833745	-0.6257422167	 3.4821599792	 0.107677
H	 3.2670999818	 0.9779284465	 2.7361651041	 0.093982
H	 0.8298817508	-0.776775768	 2.8200704704	 0.092008
80.7829	170.9867	174.2628	294.4986	411.7776	446.1762	557.167	695.2476	776.0704	795.8826	816.1221	874.646	876.1775	911.6356	958.4234	964.3373	978.2265	984.3165	1014.2463	1027.3909	1084.8828	1087.1855	1132.0198	1166.329	1167.9867	1213.9593	1223.6593	1226.7138	1245.5449	1248.2388	1273.7152	1287.2785	1353.0833	1448.5167	1481.0827	1489.8617	1503.9365	1531.8141	3025.135	3035.6238	3043.9143	3067.0401	3073.1933	3093.9259	3112.2118	3126.1254	3177.8126	3187.3611
C1CC2(O1)C1CCC21	C1C[C@@]2(O1)[C@H]1CC[C@@H]21	
InChI=1S/C7H10O/c1-2-6-5(1)7(6)3-4-8-7/h5-6H,1-4H2	InChI=1S/C7H10O/c1-2-6-5(1)7(6)3-4-8-7/h5-6H,1-4H2/t5-,6+,7+
