19
gdb 36406	4.41775	1.01928	0.96751	1.6896	80.13	-0.246	0.0571	0.3031	1261.3472	0.159851	-385.836373	-385.828449	-385.827505	-385.869079	31.238	
C	-0.0196217994	-1.1686805553	-0.1649430958	-0.447716
C	-0.0157770456	 0.0256070113	-0.026411334	 0.299307
C	 0.0215327038	 1.4734831124	 0.1397598542	-0.378514
C	 1.4420642418	 2.0576978967	 0.0546956314	 0.028928
C	 2.1233001151	 1.8946496134	-1.3458168688	-0.233717
C	 2.2752725778	 3.3944628626	-1.6696393159	 0.083339
C	 2.8624334374	 3.9920090912	-0.371655176	-0.238892
C	 1.438527664	 3.6062202468	 0.0776289441	 0.061213
O	 0.9691510592	 3.9285412661	-1.2701544144	-0.299744
H	-0.0382834693	-2.2231266373	-0.2866310316	 0.192399
H	-0.5924846564	 1.9544246005	-0.63122562	 0.145577
H	-0.4255852458	 1.7389861867	 1.107248549	 0.122911
H	 2.0553808177	 1.6452064843	 0.8610042092	 0.08096
H	 3.0792797499	 1.3668311892	-1.3055845499	 0.102008
H	 1.4774890386	 1.3862301678	-2.0649318798	 0.117073
H	 2.5906463105	 3.6948983482	-2.6685237566	 0.080468
H	 3.7228125468	 3.5085426714	 0.0989284427	 0.094885
H	 2.991138365	 5.0725766644	-0.4373469612	 0.112411
H	 0.8946233588	 4.1176963796	 0.8729823732	 0.077102
69.4548	113.325	182.6611	284.6821	348.7729	395.5995	423.4987	529.706	574.1717	615.058	633.7452	706.5393	827.839	831.3717	847.5345	871.0955	875.4274	907.6114	950.3684	959.4978	975.4823	1006.2906	1036.5308	1054.15	1097.4858	1116.8654	1145.8741	1197.1056	1227.3818	1236.7539	1242.7043	1262.5085	1282.8339	1308.6722	1317.8803	1348.7356	1376.82	1474.9345	1483.3243	1496.3804	2237.0655	3016.4096	3054.5783	3064.3073	3069.4221	3074.8099	3113.5354	3120.4671	3126.4436	3145.295	3507.4485
C#CCC1CC2CC1O2	C#CC[C@H]1C[C@@H]2C[C@H]1O2	
InChI=1S/C8H10O/c1-2-3-6-4-7-5-8(6)9-7/h1,6-8H,3-5H2	InChI=1S/C8H10O/c1-2-3-6-4-7-5-8(6)9-7/h1,6-8H,3-5H2/t6-,7+,8+/m0/s1
