22
gdb 59025	2.97767	1.17382	1.05879	1.4078	88.19	-0.2236	0.023	0.2467	1279.6225	0.19495	-367.204928	-367.195947	-367.195003	-367.238628	34.787	
C	 0.0288680506	 1.5536701913	-0.0447873057	-0.38816
C	-0.0125463886	 0.0162203172	 0.0480201513	-0.091203
C	 0.7303822497	-0.4764752733	 1.3036529969	-0.379428
C	-1.424609824	-0.5032349667	 0.0100794873	 0.41332
C	-1.9670866131	-1.3093738872	-0.9098169693	-0.214901
C	-3.4194381603	-1.641597146	-0.6332619791	-0.255062
C	-3.678304985	-0.9423743381	 0.6968909028	-0.035011
N	-2.8498738795	-1.4534815868	 1.8107040322	-0.336055
C	-2.4381636858	-0.2168084309	 1.0797807918	-0.162791
H	 1.0639151697	 1.9108042492	-0.0632251759	 0.110725
H	-0.4723555212	 1.909763068	-0.949797532	 0.11548
H	-0.4626441707	 2.0185003189	 0.8173767206	 0.112131
H	 0.5059599076	-0.3838090384	-0.8327954857	 0.073053
H	 0.7295597288	-1.5685407792	 1.3586288614	 0.124841
H	 1.7693197309	-0.129772233	 1.2999294087	 0.106008
H	 0.2551401352	-0.098329751	 2.2153891614	 0.114287
H	-1.4292195131	-1.7258798722	-1.755432388	 0.084605
H	-4.0837006508	-1.261675458	-1.4212847767	 0.101283
H	-3.5916159562	-2.7225395695	-0.5633039667	 0.11631
H	-4.6647999422	-0.5519591219	 0.9228505677	 0.083919
H	-3.2955995365	-1.1761638292	 2.6845481542	 0.223253
H	-2.4506108056	 0.7265914569	 1.6156112528	 0.083397
57.5353	118.197	186.4317	226.3667	251.2486	305.5153	311.4894	319.4102	409.5198	472.2144	579.3876	674.71	735.1516	813.2928	823.5605	833.1469	860.1756	888.9469	915.8455	928.3546	937.6339	964.8813	977.1352	1005.509	1042.5611	1079.4529	1117.5454	1132.9028	1164.6897	1172.6785	1190.368	1218.653	1249.1604	1276.1121	1330.4899	1341.7091	1349.7178	1393.6706	1395.2157	1412.902	1416.3222	1467.9992	1486.1671	1489.9217	1501.2206	1508.7178	1698.4546	3015.6792	3019.4761	3028.0358	3032.7077	3054.5335	3092.607	3099.3566	3106.8938	3113.9628	3158.7076	3169.3498	3182.407	3467.0693
CC(C)C1=CCC2NC12	CC(C)C1=CC[C@H]2N[C@@H]12	
InChI=1S/C8H13N/c1-5(2)6-3-4-7-8(6)9-7/h3,5,7-9H,4H2,1-2H3	InChI=1S/C8H13N/c1-5(2)6-3-4-7-8(6)9-7/h3,5,7-9H,4H2,1-2H3/t7-,8+/m1/s1
