19
gdb 96133	2.2185	1.7699	1.22046	1.3325	70.67	-0.2457	0.0619	0.3076	1058.8203	0.159694	-460.141185	-460.132835	-460.131891	-460.17363	32.97	
O	-0.0535430557	 1.4158218675	-0.0221439697	-0.443482
C	-0.0055709483	-0.0095678891	 0.0357094048	 0.011978
C	 0.7672047119	-0.5184286015	 1.2597277188	-0.132158
O	 0.6711162375	-1.9243906938	 1.3459734928	-0.237743
C	-0.6372496599	-2.3612050913	 1.6883577491	-0.098849
C	-1.7501339627	-1.7178383464	 0.8617592997	-0.113094
C	-2.2967965758	-0.3547413147	 1.2509331156	-0.347792
C	-1.4279724652	-0.5112658983	 0.0298102846	 0.448257
O	-2.0497660807	-0.4422094141	-1.2227448559	-0.483385
H	 0.8181563065	 1.7362205115	-0.2750030486	 0.287069
H	 0.4752273328	-0.4165294514	-0.8656747523	 0.082859
H	 1.8317010809	-0.2804848696	 1.1611035504	 0.099952
H	 0.3979043269	-0.0232110259	 2.1726661735	 0.096461
H	-0.6308345864	-3.4430572935	 1.5314567049	 0.114976
H	-0.8153298548	-2.1795552194	 2.761091808	 0.093054
H	-2.4628118725	-2.4033564535	 0.4159552082	 0.104588
H	-3.3481046131	-0.1681326073	 1.0652467274	 0.115309
H	-1.8938122264	 0.1288814364	 2.1352304909	 0.11527
H	-2.0710136149	 0.4923426042	-1.462148792	 0.286731
106.4404	192.0355	239.8335	253.1513	292.2501	345.722	360.9317	390.6584	440.8373	475.2434	496.6788	553.991	687.9311	699.1532	819.3652	885.2563	918.5299	943.2206	953.8846	1006.1562	1035.0454	1064.3611	1076.7976	1090.6903	1091.2615	1129.5633	1164.3981	1206.2296	1238.0395	1263.1905	1287.4822	1315.2017	1341.9923	1354.6086	1374.7698	1409.6446	1418.1527	1445.4337	1490.6881	1498.0999	1508.5729	2966.7297	2977.5909	3003.0502	3069.9152	3088.0066	3129.7637	3170.5481	3222.6482	3785.4024	3818.503
OC1COCC2CC12O	O[C@H]1COC[C@H]2C[C@@]12O	
InChI=1S/C6H10O3/c7-5-3-9-2-4-1-6(4,5)8/h4-5,7-8H,1-3H2	InChI=1S/C6H10O3/c7-5-3-9-2-4-1-6(4,5)8/h4-5,7-8H,1-3H2/t4-,5+,6+/m1/s1
