14
gdb 11433	4.18061	1.61144	1.28945	4.8825	54.28	-0.2898	0.0397	0.3295	922.167	0.107439	-456.859049	-456.851772	-456.850827	-456.89132	25.237	
C	-0.1236159908	 1.3559011281	-0.0644115712	-0.251268
O	-0.082269343	-0.0662071085	-0.1108651877	-0.230573
C	 0.694200841	-0.5775447622	-1.1330307889	 0.185682
C	 0.6668446392	-2.1090409717	-1.0619708038	-0.123453
O	-0.2389123184	-2.4860278803	-2.0981128989	-0.237319
C	-0.5092208217	-1.4209479213	-2.891625443	 0.49297
O	-1.1865431552	-1.4503678512	-3.8662364763	-0.366501
O	 0.1265456729	-0.3096881128	-2.419000849	-0.246687
H	 0.8882422747	 1.7752859782	 0.0292208476	 0.116451
H	-0.6015437312	 1.7689183572	-0.9587228778	 0.144618
H	-0.7065610481	 1.6225062202	 0.8181997204	 0.141539
H	 1.6982752829	-0.1344106927	-1.1345799629	 0.095416
H	 1.6465080976	-2.5547268354	-1.2562655988	 0.130578
H	 0.2800991502	-2.4467666776	-0.0998904398	 0.148546
74.2831	131.1252	159.5477	193.6324	271.1918	416.8953	489.4918	572.1587	733.6727	770.0787	816.1567	865.2744	910.3541	999.4094	1029.6108	1090.648	1094.2488	1149.2986	1160.9236	1181.3319	1218.5524	1260.3778	1367.7937	1388.1621	1417.8281	1482.6194	1486.9384	1509.1807	1512.3401	1934.8233	3005.6022	3031.6688	3068.056	3084.5563	3138.8309	3143.4021
COC1COC(=O)O1	CO[C@H]1COC(=O)O1	
InChI=1S/C4H6O4/c1-6-3-2-7-4(5)8-3/h3H,2H2,1H3	InChI=1S/C4H6O4/c1-6-3-2-7-4(5)8-3/h3H,2H2,1H3/t3-/m1/s1
