18
gdb 108281	2.73337	1.41632	1.09045	5.1699	71.61	-0.2374	0.0033	0.2407	1144.8002	0.147597	-439.08271	-439.074355	-439.073411	-439.115864	31.306	
C	-0.0256430456	 1.5794775701	 0.0134592064	-0.385826
C	 0.0498780944	 0.0531144186	 0.1499413485	-0.278349
C	-1.2991046141	-0.6038428469	 0.0312347083	 0.458027
C	-2.3871754911	-0.4626329206	 1.1221311118	-0.226074
N	-2.7793919705	-1.8910436689	 0.9331530984	-0.317806
C	-1.641087988	-2.1142928677	-0.0011774847	-0.28982
C	-2.1033118519	-1.8204359867	-1.4356060683	 0.484488
O	-2.5313704439	-2.4010611284	-2.377690796	-0.323974
O	-1.870170123	-0.4628447268	-1.3198215485	-0.295895
H	 0.9700572644	 2.0253775472	 0.0857074921	 0.120461
H	-0.4569036234	 1.8584039607	-0.9517231721	 0.145298
H	-0.6466813749	 2.0201499971	 0.8006502971	 0.121341
H	 0.708491129	-0.3602528809	-0.6227479187	 0.114156
H	 0.4850037452	-0.2210309369	 1.1186621331	 0.105202
H	-1.9583399152	-0.2432680013	 2.1070449916	 0.106854
H	-3.1883737824	 0.2503013245	 0.9088549078	 0.126089
H	-2.7051849908	-2.443807205	 1.7778252133	 0.233268
H	-0.9649737981	-2.9482888482	 0.1855821796	 0.102561
84.224	122.6749	161.5296	220.6224	231.4431	331.3738	361.4008	400.0643	460.6435	629.126	668.4329	695.1088	781.7142	803.2379	841.6206	854.4755	953.354	960.6609	984.3251	1006.2819	1013.2617	1018.548	1080.9135	1126.7848	1136.1165	1181.6217	1211.6549	1243.0404	1273.0716	1310.1135	1348.4176	1377.8225	1392.8094	1412.5351	1476.2835	1495.6726	1499.464	1508.6327	1943.2263	3028.5736	3034.1731	3041.7843	3069.2867	3094.1574	3109.8001	3122.0716	3125.2532	3560.2155
CCC12CNC1C(=O)O2	CC[C@]12CN[C@H]1C(=O)O2	
InChI=1S/C6H9NO2/c1-2-6-3-7-4(6)5(8)9-6/h4,7H,2-3H2,1H3	InChI=1S/C6H9NO2/c1-2-6-3-7-4(6)5(8)9-6/h4,7H,2-3H2,1H3/t4-,6-/m0/s1
