20
gdb 103619	2.62918	1.24982	1.11655	2.5526	77.73	-0.2288	0.0304	0.2592	1227.0863	0.168742	-440.299269	-440.28903	-440.288086	-440.334418	36.047	
C	 0.0552303765	 1.3968979998	 0.1382635123	-0.261081
O	-0.0081985704	 0.0013192343	-0.1250435832	-0.289506
C	-1.3001995743	-0.5616861527	-0.0788798959	 0.26682
C	-2.2338057139	-0.0480596252	-1.1671949123	-0.460618
C	-1.1886280038	-2.1109980345	 0.0621363018	-0.222661
N	-1.8283204231	-1.9806664549	 1.373963447	-0.079455
C	-2.1487180838	-2.9472687209	 2.3906755297	-0.34418
C	-1.9197219452	-0.6157607894	 1.3579795416	 0.37053
O	-2.3168820968	 0.1837388085	 2.1707219948	-0.392572
H	 1.1154429974	 1.6425631824	 0.2327801337	 0.126253
H	-0.3680721621	 1.9902955989	-0.6834958809	 0.108215
H	-0.4635952756	 1.6547651774	 1.0681953303	 0.146046
H	-1.7618913506	-0.1501948522	-2.1496314657	 0.125709
H	-3.1711656302	-0.6121156475	-1.1665354264	 0.124242
H	-2.4829456534	 1.004265546	-1.0062486777	 0.137348
H	-1.7623558513	-2.7014536713	-0.6608598834	 0.104938
H	-0.1524010404	-2.4604732302	 0.1017502943	 0.119537
H	-1.2539466388	-3.4811733386	 2.7342327958	 0.130409
H	-2.5837275334	-2.4078834248	 3.2355188952	 0.161548
H	-2.8747407866	-3.6854745452	 2.0289362989	 0.128477
80.3247	113.405	127.8951	151.5743	177.8597	211.7794	224.7305	245.379	275.2498	333.2641	378.4095	404.5188	579.272	612.3277	736.3942	790.6957	840.0779	911.9305	935.5978	971.8607	1048.3915	1092.8904	1125.9381	1150.3839	1169.2439	1184.7826	1199.6411	1216.3829	1246.1807	1269.535	1330.1498	1399.8175	1421.8157	1448.7916	1475.8435	1482.002	1482.5067	1489.7442	1503.5622	1508.1791	1515.4335	1529.6099	1860.1365	3006.6803	3014.3788	3033.9013	3040.9932	3065.5551	3077.1198	3089.6933	3114.0945	3119.9909	3124.0096	3129.2771
COC1(C)CN(C)C1=O	CO[C@@]1(C)CN(C)C1=O	
InChI=1S/C6H11NO2/c1-6(9-3)4-7(2)5(6)8/h4H2,1-3H3	InChI=1S/C6H11NO2/c1-6(9-3)4-7(2)5(6)8/h4H2,1-3H3/t6-/m0/s1
