18
gdb 69263	2.7238	1.54015	1.1597	4.1159	72.39	-0.243	0.0089	0.2519	1087.2824	0.14886	-439.121657	-439.113578	-439.112634	-439.154027	31.24	
C	-0.0059438832	 1.515616124	 0.0079992608	-0.471102
C	-0.0375694813	 0.007871132	 0.0546308572	 0.393848
C	-1.2203117246	-0.6821476459	-0.6018690848	-0.275957
C	-1.0434246244	-2.2044291027	-0.6064723343	-0.167134
N	-0.7217337211	-2.6913356988	 0.7275566144	-0.337576
C	 0.1150687449	-2.0669087826	 1.605670501	 0.427612
O	 0.4029506013	-2.5220745206	 2.6976141678	-0.377609
C	 0.6307039302	-0.7241259551	 1.1502622633	-0.131046
O	 1.216151118	-0.6489854228	-0.1634485355	-0.285843
H	 0.8837734251	 1.8989067603	 0.5127933149	 0.13615
H	 0.0096956177	 1.8662209152	-1.0297320809	 0.129055
H	-0.8929647612	 1.9370576653	 0.4923634149	 0.12809
H	-2.1342814808	-0.4071133573	-0.0614266756	 0.116695
H	-1.3334459112	-0.3308670995	-1.6339973947	 0.112593
H	-1.9709751935	-2.6838533124	-0.931435155	 0.11254
H	-0.2582874358	-2.4742953447	-1.3226637823	 0.129538
H	-1.0097583627	-3.6186789257	 1.000516565	 0.250285
H	 1.1706163727	-0.1889057087	 1.9274167137	 0.109859
110.7401	159.6365	207.1441	256.5298	286.5605	373.416	380.1278	451.7634	472.345	510.0444	556.5801	659.4802	687.2262	759.2093	822.1106	873.3657	902.6177	927.3572	991.5641	1022.1926	1040.4412	1098.6448	1113.6218	1126.7555	1223.3346	1245.486	1272.592	1296.1481	1359.7699	1371.9886	1405.9771	1413.1064	1444.9945	1468.3435	1480.5535	1487.4639	1500.3781	1514.9615	1793.2205	3031.3316	3032.5032	3038.3191	3075.3439	3088.9585	3100.8127	3128.2756	3153.6093	3625.0821
CC12CCNC(=O)C1O2	C[C@]12CCNC(=O)[C@H]1O2	
InChI=1S/C6H9NO2/c1-6-2-3-7-5(8)4(6)9-6/h4H,2-3H2,1H3,(H,7,8)	InChI=1S/C6H9NO2/c1-6-2-3-7-5(8)4(6)9-6/h4H,2-3H2,1H3,(H,7,8)/t4-,6+/m1/s1
