18
gdb 50562	4.5405	0.98822	0.88749	2.918	73.58	-0.2441	0.0192	0.2632	1292.7972	0.148371	-439.097121	-439.088861	-439.087917	-439.131086	30.219	
O	 0.1056086042	 0.1687765005	 0.8405863746	-0.339103
C	 0.0897461827	 1.2796238948	 0.3489718177	 0.142954
N	 1.195230439	 1.9744017124	-0.0131451213	-0.056938
C	 2.5443850529	 1.4182576858	 0.1558529023	-0.157916
C	 3.4246851563	 2.3454712242	-0.6932319974	-0.324889
C	 2.6730553004	 3.6670728912	-0.645459177	 0.444117
C	 3.2156162245	 4.8979043717	-0.058461165	-0.245982
O	 3.0748123944	 4.739066212	-1.478732317	-0.278219
C	 1.1888618341	 3.3114811699	-0.6014350116	-0.249908
H	-0.8452134625	 1.8397501399	 0.144625651	 0.070246
H	 2.8345813075	 1.4386375022	 1.2138849529	 0.12073
H	 2.5605672866	 0.3748926782	-0.165761396	 0.138424
H	 4.449288941	 2.4208115371	-0.3251189296	 0.118044
H	 3.4613918144	 1.997534394	-1.731617715	 0.126391
H	 2.5452468371	 5.625891259	 0.3962801816	 0.119856
H	 4.2413206892	 4.9160631386	 0.3075063101	 0.121112
H	 0.7833181351	 3.3098897962	-1.6223595732	 0.12781
H	 0.6056512832	 4.0207888721	-0.0056745473	 0.123272
27.9279	122.9335	164.4069	203.6181	323.0921	334.043	350.0203	394.189	449.793	568.3042	726.024	760.4654	835.6581	873.9544	892.2378	924.7921	941.1562	993.9248	1011.3496	1036.1171	1120.0318	1129.2481	1161.6553	1175.0906	1201.6093	1206.4172	1237.6832	1259.229	1307.0613	1324.4815	1364.581	1402.594	1439.9291	1446.7916	1489.0057	1516.2544	1526.899	1534.9928	1790.546	2927.154	3009.7771	3026.7939	3051.5962	3067.0112	3081.7172	3104.7926	3119.6985	3170.7991
O=CN1CCC2(CO2)C1	O=CN1CC[C@]2(CO2)C1	
InChI=1S/C6H9NO2/c8-5-7-2-1-6(3-7)4-9-6/h5H,1-4H2	InChI=1S/C6H9NO2/c8-5-7-2-1-6(3-7)4-9-6/h5H,1-4H2/t6-/m1/s1
