16
gdb 27638	3.06954	1.22945	0.88754	4.5675	80.55	-0.2313	-0.0209	0.2105	1268.8403	0.123859	-400.817969	-400.809201	-400.808257	-400.851628	31.278	
C	 0.1026773417	 1.4538010411	-0.0629017332	-0.491877
C	-0.0665433402	-0.0211966141	-0.0368594975	 0.369692
C	-1.1433814192	-0.8431799951	-0.0526637912	-0.400571
C	-0.6258051276	-2.1887763775	-0.0082701117	 0.097454
C	-1.3602317031	-3.3986659749	-0.0052704959	 0.194516
N	-1.9595056588	-4.3904224481	-0.0027771314	-0.352796
C	 0.7405115659	-2.0812998082	 0.0315367222	 0.2654
C	 1.8307109976	-3.0853068328	 0.0861366617	-0.503818
O	 1.0830273866	-0.7719655167	 0.0143804652	-0.205213
H	 0.6820321135	 1.7748487394	-0.9356432948	 0.145091
H	-0.87561135	 1.9369563325	-0.1035677194	 0.143587
H	 0.6271120762	 1.8123557751	 0.829733209	 0.14509
H	-2.1809411755	-0.5538991944	-0.0905767556	 0.132776
H	 2.4962304937	-2.9947356007	-0.7793985532	 0.149394
H	 2.4419816419	-2.9578196738	 0.9863476571	 0.14939
H	 1.4051762475	-4.0905275419	 0.0940625485	 0.161884
117.4932	121.6603	134.4502	141.321	208.3897	252.4744	294.4675	388.0996	516.2947	525.9531	575.4604	638.2445	641.7094	693.8301	772.9637	810.021	943.9581	1015.0567	1035.3819	1059.6864	1067.9535	1137.8981	1166.5553	1253.4559	1288.4773	1398.2356	1417.8255	1425.2024	1471.8409	1472.3328	1482.0202	1490.2434	1614.2533	1655.7278	2343.6335	3034.9937	3036.2323	3087.3884	3089.4321	3134.9938	3140.5831	3271.7134
CC1=CC(C#N)=C(C)O1	Cc1cc(C#N)c(C)o1	
InChI=1S/C7H7NO/c1-5-3-7(4-8)6(2)9-5/h3H,1-2H3	InChI=1S/C7H7NO/c1-5-3-7(4-8)6(2)9-5/h3H,1-2H3
