19
gdb 45211	2.88516	1.77491	1.38561	2.99	77.45	-0.2314	-0.0146	0.2168	972.1422	0.16182	-385.899486	-385.892614	-385.89167	-385.93092	28.276	
O	 0.0002967877	-0.0243845239	-0.1199501988	-0.319216
C	-0.0215784263	 1.1757978715	-0.0179555381	 0.389809
C	-1.2871408582	 2.0394010525	 0.1070706321	-0.333932
C	-0.805816706	 3.4391724695	 0.4839978238	-0.027001
C	-0.3627708691	 3.6522519964	 1.9685974985	-0.244006
C	 1.1300782085	 3.6744163413	 1.5476904367	-0.014727
C	 1.7928221081	 2.2786270238	 1.4571266693	-0.238947
C	 1.203836187	 2.0850752706	 0.012027083	-0.126692
C	 0.6965986137	 3.5509229818	 0.0456357705	-0.055509
H	-1.7742729237	 2.0373837939	-0.8773661054	 0.12723
H	-1.994951407	 1.5911139259	 0.8104519633	 0.126583
H	-1.4656528876	 4.2244654424	 0.1132630006	 0.074149
H	-0.7018499573	 4.6115277863	 2.3671050265	 0.104321
H	-0.6512970779	 2.869372903	 2.6784859356	 0.096268
H	 1.7422374301	 4.4866498794	 1.9404090379	 0.067094
H	 2.8830879098	 2.338018978	 1.4256285436	 0.111294
H	 1.5097201118	 1.5355863313	 2.2090975472	 0.10704
H	 1.933066486	 1.7804590141	-0.7390798718	 0.092699
H	 0.9826767402	 4.2411566723	-0.7467156744	 0.063543
66.8189	205.9363	303.6543	355.1492	438.2875	534.9534	564.0367	612.5464	660.6072	742.1075	770.7931	808.4952	846.6961	857.8961	883.7591	916.9587	931.0596	950.0435	985.81	1000.7841	1034.634	1056.5253	1101.7255	1135.1977	1144.0713	1154.7747	1169.1326	1193.7385	1225.6116	1235.1816	1253.0624	1266.5472	1277.9474	1299.3437	1303.0562	1313.9507	1342.3971	1444.601	1477.3509	1488.8625	1835.2307	3028.0837	3042.8126	3051.4188	3087.8581	3091.4892	3095.937	3101.5611	3107.1176	3111.5578	3123.7236
O=C1CC2CC3CC1C23	O=C1C[C@H]2C[C@H]3C[C@@H]1[C@@H]23	
InChI=1S/C8H10O/c9-7-3-5-1-4-2-6(7)8(4)5/h4-6,8H,1-3H2	InChI=1S/C8H10O/c9-7-3-5-1-4-2-6(7)8(4)5/h4-6,8H,1-3H2/t4-,5+,6-,8+/m0/s1
