17
gdb 55910	3.02589	1.11625	0.87405	7.9759	74.2	-0.2308	-0.0106	0.2202	1288.5742	0.13517	-455.123833	-455.115218	-455.114274	-455.157381	31.886	
O	-0.428810094	 0.3925435638	-1.5034570994	-0.376984
C	-0.2363645746	 1.2058198903	-0.4688075539	 0.390037
O	 0.8378154688	 1.3261412637	 0.0653052802	-0.333307
C	-1.4640669908	 2.0085902354	 0.008455111	-0.352515
C	-2.652187474	 1.1403190677	 0.3648686503	-0.002767
C	-4.073836598	 1.6244295606	 0.1515311538	-0.295477
N	-3.46158697	 0.6134175328	-0.6955793085	 0.011403
C	-3.1563531717	 0.516172968	-2.0007491177	-0.064686
N	-4.1648881872	 0.7672529558	-2.8288314719	-0.429192
H	-4.0316389146	 0.635935921	-3.8170213792	 0.28121
H	-5.103374032	 1.0130883221	-2.5257524834	 0.243981
H	-1.1447832082	 2.5938908075	 0.8727730617	 0.134993
H	-1.7556717504	 2.7029516681	-0.7899153891	 0.117431
H	-2.4935311273	 0.4549686212	 1.196519911	 0.119602
H	-4.8585275858	 1.2950245203	 0.8272090136	 0.136046
H	-4.2125693691	 2.613547293	-0.2799516393	 0.132137
H	-1.3793751411	 0.3974367188	-1.8531030493	 0.28809
84.0262	125.1228	151.3581	194.8709	241.6826	296.3302	357.3177	379.3148	485.9158	521.7892	596.6051	614.5308	697.1283	732.1069	786.983	856.262	895.5794	928.8868	966.7311	1016.3933	1055.048	1080.9163	1111.0969	1127.0093	1158.8215	1210.8875	1241.6366	1300.4963	1304.6313	1356.22	1409.1618	1460.3459	1489.0988	1494.4138	1516.5352	1652.2869	1841.4409	2859.4847	3034.3494	3102.4518	3115.4882	3126.8955	3196.062	3472.9022	3686.1743
[O-]C(=O)CC1CN1C=[NH2+]	OC(=O)C[C@H]1CN1[C]N	
InChI=1S/C5H8N2O2/c6-3-7-2-4(7)1-5(8)9/h3-4,6H,1-2H2,(H,8,9)	InChI=1S/C5H8N2O2/c6-3-7-2-4(7)1-5(8)9/h4H,1-2,6H2,(H,8,9)/t4-,7?/m0/s1
