21
gdb 85984	3.86309	1.034	1.01321	2.4053	79.11	-0.2422	0.0643	0.3065	1279.255	0.18204	-424.198245	-424.189406	-424.188462	-424.231475	35.248	
O	-0.0712484788	 1.441033041	 0.0071540582	-0.435087
C	 0.0611279303	 0.0169386277	 0.0065381436	 0.087984
C	 0.1963844216	-0.5574153176	 1.4414869531	-0.298817
C	-1.3687146498	-0.6229013473	 1.5051280319	 0.425855
O	-1.9217729632	 0.5599802332	 2.0540468316	-0.49827
C	-1.358192456	-0.5857940898	-0.0605258424	-0.268985
C	-1.9990476955	-1.8087549213	 2.1843067949	-0.035327
C	-2.37611747	-1.7528303551	 3.643810941	-0.270377
C	-3.4522704441	-1.7846916571	 2.5874039359	-0.269717
H	 0.7668936634	 1.8150614949	 0.3002616394	 0.286742
H	 0.7922638133	-0.3013176022	-0.7457967113	 0.067762
H	 0.6506703742	-1.5526883782	 1.4400116148	 0.098213
H	 0.6894079547	 0.068199893	 2.1913789398	 0.09397
H	-1.5345524913	 1.296078059	 1.5615851679	 0.28045
H	-2.1243258211	 0.0232739279	-0.5452297195	 0.11017
H	-1.3507108693	-1.5885773771	-0.495486187	 0.09941
H	-1.6145470553	-2.7579915969	 1.8211938856	 0.070381
H	-2.2140863786	-2.6389756671	 4.2476426457	 0.101012
H	-2.2175535562	-0.8118684317	 4.156178811	 0.126565
H	-3.9953173513	-0.8644472325	 2.4105793569	 0.126763
H	-4.0320068369	-2.6927700629	 2.4632312589	 0.1013
78.7312	126.6095	165.4068	258.655	308.7586	325.1525	370.6506	415.8302	429.0025	461.7479	492.5051	552.1611	660.1552	794.7293	802.867	829.5664	852.8827	865.971	891.8369	917.2865	945.0939	954.5951	987.8204	1040.7056	1059.486	1067.9809	1072.8151	1085.9721	1112.1904	1136.8215	1172.5558	1189.1129	1204.7511	1226.256	1235.9654	1267.9981	1273.5141	1323.7583	1364.1589	1404.6502	1448.2121	1457.2397	1463.9107	1479.5472	1502.9993	3028.5301	3049.9331	3066.967	3109.6988	3127.6483	3138.1746	3138.5556	3145.6615	3225.4689	3238.9156	3752.765	3805.2258
OC1CC(O)(C1)C1CC1	O[C@H]1C[C@@](O)(C1)C1CC1	
InChI=1S/C7H12O2/c8-6-3-7(9,4-6)5-1-2-5/h5-6,8-9H,1-4H2	InChI=1S/C7H12O2/c8-6-3-7(9,4-6)5-1-2-5/h5-6,8-9H,1-4H2/t6-,7+
