17
gdb 42866	2.51804	1.75028	1.48118	1.9404	73.3	-0.2374	-0.0271	0.2103	957.2194	0.137465	-421.828532	-421.82133	-421.820385	-421.860102	28.303	
O	-0.0373329231	 0.0262355813	 0.3534133597	-0.289913
C	-0.0073266016	 1.1960162743	 0.1326753861	 0.384411
C	-1.0359782864	 2.3118538542	-0.1196661269	-0.019313
C	-1.6201535239	 2.9401954942	 1.1585220907	-0.2412
C	-0.6570302651	 3.9380240118	 1.8428727447	-0.241392
C	 0.7709185807	 3.4872718697	 2.074281477	-0.069429
C	 1.546957241	 2.8028181902	 1.2294661822	-0.044018
C	 1.0708156676	 2.2807195463	-0.0978803461	-0.081514
O	 0.035083414	 3.1117465303	-0.6856755119	-0.288848
H	-1.8099931632	 2.0805084637	-0.8591551991	 0.106986
H	-2.5474118095	 3.4705863004	 0.9164265761	 0.111057
H	-1.8928476079	 2.133505875	 1.8491920738	 0.124834
H	-0.6321939714	 4.8534499658	 1.240183493	 0.137554
H	-1.0956661219	 4.2218560412	 2.8048975723	 0.103792
H	 1.2114217065	 3.8008148279	 3.0177128982	 0.100836
H	 2.5614338434	 2.5398647546	 1.5150133458	 0.099839
H	 1.8826476109	 2.0647199091	-0.7980593657	 0.106317
113.0077	179.9601	205.9304	331.1779	366.0457	396.3785	487.6753	548.077	638.8676	701.4803	740.7023	767.942	818.0151	861.3493	890.1194	909.9315	951.4848	990.2089	995.4772	1031.3902	1062.3166	1073.2623	1097.2301	1149.7697	1197.2183	1224.4387	1256.9645	1277.3463	1314.8463	1327.9894	1361.1595	1380.6405	1413.3236	1472.5331	1490.6565	1701.8512	1920.6397	3034.708	3039.3907	3057.8821	3072.5717	3077.6481	3082.1682	3150.9051	3177.383
O=C1C2CCC=CC1O2	O=C1[C@H]2CCC=C[C@@H]1O2	
InChI=1S/C7H8O2/c8-7-5-3-1-2-4-6(7)9-5/h1,3,5-6H,2,4H2	InChI=1S/C7H8O2/c8-7-5-3-1-2-4-6(7)9-5/h1,3,5-6H,2,4H2/t5-,6+/m0/s1
