21
gdb 59729	3.14653	1.15889	1.00272	2.0646	80.04	-0.2451	0.0216	0.2666	1271.4675	0.182736	-424.236832	-424.227839	-424.226895	-424.270356	34.596	
C	-0.2106016352	 1.5286639543	 0.0297363481	-0.406651
C	 0.0377274037	 0.0210491791	-0.0507329523	 0.130028
O	 0.7945159628	-0.3213285852	-1.2048315107	-0.440759
C	 0.7326710012	-0.5238947713	 1.2060627747	 0.106058
C	 0.8053441006	-2.0538697267	 1.2337712193	-0.264592
C	 1.8195009178	-2.5218828536	 2.2422364744	-0.07012
C	 2.7261998086	-1.6961548725	 2.7576380567	-0.068373
C	 2.823814169	-0.2594736589	 2.3286878255	-0.115288
O	 2.0477927043	 0.0340079608	 1.1814851912	-0.283922
H	 0.7291927039	 2.0593840729	 0.2076027148	 0.124749
H	-0.6423693186	 1.884319421	-0.909079798	 0.120508
H	-0.9008401405	 1.7721383058	 0.8449958494	 0.105911
H	-0.921024408	-0.5007285808	-0.1603540498	 0.081443
H	 1.7035950689	-0.0640220111	-1.0044198063	 0.287021
H	 0.201887451	-0.1666857134	 2.1039728835	 0.064221
H	-0.1852509683	-2.4597445826	 1.4767252201	 0.102683
H	 1.0523546514	-2.4181783926	 0.2283881806	 0.128287
H	 1.7852180803	-3.5638082334	 2.5492269258	 0.091005
H	 3.4358590395	-2.027545581	 3.5107973485	 0.091527
H	 2.538356957	 0.4069384202	 3.1634441	 0.099278
H	 3.8581749906	-0.0058754709	 2.0658121345	 0.116985
92.2092	106.2617	190.8903	200.9109	241.334	292.8973	328.7522	395.1973	422.9161	473.7518	507.6001	534.4124	636.8777	676.1329	768.8371	867.379	896.6389	927.415	948.471	960.5948	994.6175	1007.565	1041.6179	1053.9274	1076.8766	1107.9908	1126.8342	1148.1261	1209.4958	1217.6953	1255.139	1297.7885	1312.1624	1355.4749	1364.6951	1392.0803	1397.029	1407.2105	1412.568	1435.0838	1473.0325	1488.7178	1492.9385	1500.813	1729.1231	2937.3451	2968.2727	3020.3674	3036.801	3039.4229	3044.9553	3055.5536	3109.1541	3127.2552	3152.8255	3176.1701	3775.841
CC(O)C1CC=CCO1	C[C@@H](O)[C@H]1CC=CCO1	
InChI=1S/C7H12O2/c1-6(8)7-4-2-3-5-9-7/h2-3,6-8H,4-5H2,1H3	InChI=1S/C7H12O2/c1-6(8)7-4-2-3-5-9-7/h2-3,6-8H,4-5H2,1H3/t6-,7-/m1/s1
