20
gdb 9720	2.65584	1.90137	1.58798	0.5855	79.44	-0.2555	0.0579	0.3134	948.4715	0.177072	-311.8587	-311.850176	-311.849231	-311.891492	32.592	
C	-0.1185390501	 1.5685322873	-0.0073493382	-0.436976
C	 0.0349857681	 0.0381017262	 0.0041809693	 0.098691
C	 0.8726540436	-0.4976502161	-1.1898450909	-0.21659
C	 1.3341886926	-1.9058083655	-0.7597216512	-0.205931
C	 1.3332709476	-1.8941566251	 0.7986159246	-0.205932
C	 0.8712112572	-0.479733433	 1.2070922539	-0.216591
C	-1.2894601481	-0.5916081199	 0.0080929089	 0.362824
C	-2.3778049889	-1.104207672	 0.0112760221	-0.525786
H	 0.8667251155	 2.0465874834	-0.0103295659	 0.109838
H	-0.6659441894	 1.9013178962	-0.8941090318	 0.122389
H	-0.6670067113	 1.9145275001	 0.8736792775	 0.122389
H	 0.3117048553	-0.4940172783	-2.1276412849	 0.101836
H	 1.735268043	 0.1672828797	-1.3180857852	 0.092208
H	 0.6383314958	-2.6622463461	-1.1320638592	 0.110152
H	 2.3167227788	-2.1480231457	-1.1735327852	 0.095439
H	 0.636994441	-2.6449677756	 1.1814146701	 0.110151
H	 2.3153224313	-2.1301160325	 1.2171621917	 0.095439
H	 1.7336710705	 0.187053906	 1.3264252059	 0.092209
H	 0.3091275282	-0.4621001309	 2.1440496855	 0.101837
H	-3.3390989609	-1.555154478	 0.0140689533	 0.192403
65.5203	124.1616	177.0211	213.8885	238.9342	300.57	381.8057	459.1513	534.2471	606.523	618.8384	629.6076	650.8026	686.3794	800.4605	807.8288	887.3949	907.2973	915.7038	960.8235	996.8032	1049.7878	1062.1825	1074.0529	1127.6315	1163.5186	1225.1984	1228.4385	1265.6272	1281.2555	1308.1715	1338.6922	1343.2989	1351.7935	1409.0182	1480.2898	1489.038	1489.9393	1491.0992	1500.6805	1515.1231	2225.8679	3030.9465	3032.0661	3038.6751	3055.299	3066.1249	3084.2726	3096.9205	3102.1011	3106.3242	3112.4548	3114.2648	3501.8756
CC1(CCCC1)C#C	CC1(CCCC1)C#C	
InChI=1S/C8H12/c1-3-8(2)6-4-5-7-8/h1H,4-7H2,2H3	InChI=1S/C8H12/c1-3-8(2)6-4-5-7-8/h1H,4-7H2,2H3
