17
gdb 50617	2.7938	1.50652	1.06216	5.8344	79.16	-0.2383	-0.0463	0.192	1113.7769	0.137993	-418.04606	-418.038224	-418.037279	-418.078788	29.49	
N	 0.0040286883	 1.3282896914	-0.0743223246	-0.469951
C	 0.037986502	 0.0578236105	 0.0195455828	 0.349541
C	 1.2666505633	-0.7597740312	 0.0751477445	-0.097027
C	 1.2661505504	-2.0946058546	 0.1219850431	-0.08377
C	-0.0147315299	-2.874701679	 0.2117649666	-0.259155
C	-1.1279677311	-1.9744001559	 0.7502812827	-0.192998
N	-1.1656783987	-0.6906124718	 0.0489561817	-0.119138
C	-2.339573978	-0.2976240978	-0.5825286025	 0.156466
O	-2.5153531489	 0.6782395047	-1.2601654751	-0.284785
H	 0.9566167607	 1.6923715984	-0.12436422	 0.221462
H	 2.1961471756	-0.1999654316	 0.0355955383	 0.102401
H	 2.2034119778	-2.643065898	 0.0945537154	 0.109652
H	-0.2808399663	-3.2753740744	-0.7767574905	 0.130242
H	 0.1078130888	-3.7404203957	 0.872513478	 0.119392
H	-2.1066167988	-2.4483054154	 0.6429948537	 0.122359
H	-0.9621609379	-1.799794182	 1.8210985697	 0.123921
H	-3.1346302175	-1.0496830475	-0.3955984539	 0.07139
61.1674	137.0138	230.7926	235.0272	318.7317	345.3407	427.713	472.4	496.9238	629.8347	652.5284	724.6122	774.6106	807.8592	888.3166	906.3218	948.8553	1000.1777	1010.9969	1021.7063	1063.4828	1087.2075	1176.0947	1185.2606	1226.4038	1244.0691	1325.6177	1361.6106	1386.9392	1414.3871	1432.9153	1461.6776	1469.4426	1503.9149	1668.0732	1711.9183	1836.8381	2905.4563	3011.5749	3024.5344	3065.2696	3099.7169	3164.3809	3186.0662	3468.2329
N=C1C=CCCN1C=O	[NH]C1=C[CH]CCN1C=O	
InChI=1S/C6H8N2O/c7-6-3-1-2-4-8(6)5-9/h1,3,5,7H,2,4H2	InChI=1S/C6H8N2O/c7-6-3-1-2-4-8(6)5-9/h1,3,5,7H,2,4H2
