18
gdb 67151	2.59065	1.72707	1.63833	4.153	75.36	-0.2298	-0.0045	0.2253	944.0606	0.148787	-401.927229	-401.919895	-401.918951	-401.958667	29.222	
C	-0.027552364	 1.5435803072	 0.0229093314	-0.519708
C	 0.0594808843	 0.0488938729	 0.0258827988	 0.394789
C	 0.6008650774	-0.9017225652	-1.1011227301	-0.106318
C	 1.4594378243	-1.6075772335	-0.0179163076	-0.23118
C	 0.6859664573	-0.8652949152	 1.1317592686	-0.25462
C	-0.6842788545	-1.5285594715	 1.2030033155	 0.409792
O	-1.1812231245	-2.4178416506	 1.8279507939	-0.325524
N	-1.2153398947	-0.7766006293	 0.0875669971	-0.205102
C	-0.8345640163	-1.4615419553	-1.2086908301	-0.197462
H	 0.9707475087	 1.9928781256	-0.0044333995	 0.124342
H	-0.587035259	 1.9025525537	-0.8472123797	 0.130442
H	-0.5394333896	 1.8995597955	 0.9232282727	 0.134781
H	 1.1064126422	-0.577686865	-2.0110859029	 0.076826
H	 1.4767944577	-2.7006022167	 0.0116974433	 0.116384
H	 2.4861948649	-1.2358026504	-0.0555508624	 0.118246
H	 1.2358277772	-0.5684169143	 2.0241574975	 0.090312
H	-1.4037120768	-1.034436681	-2.0389046813	 0.118857
H	-0.9780710648	-2.5459591871	-1.1936436852	 0.125142
135.1258	217.8997	222.2275	266.5866	295.9855	376.9325	489.9591	587.5805	592.9152	642.553	761.0268	789.2854	829.7367	860.0823	868.2181	893.7899	934.0811	965.9563	993.3907	1006.6801	1045.2791	1095.2406	1109.7462	1121.6792	1136.7578	1162.495	1181.7496	1197.2722	1239.3566	1278.74	1305.0682	1311.392	1337.9958	1416.0132	1480.9871	1483.4613	1485.9617	1506.0001	1893.574	3031.4963	3051.0602	3056.9034	3102.1195	3103.1172	3103.5875	3107.7467	3114.2346	3121.0282
CC12C3CC1C(=O)N2C3	C[C@@]12[C@H]3C[C@@H]1C(=O)N2C3	
InChI=1S/C7H9NO/c1-7-4-2-5(7)6(9)8(7)3-4/h4-5H,2-3H2,1H3	InChI=1S/C7H9NO/c1-7-4-2-5(7)6(9)8(7)3-4/h4-5H,2-3H2,1H3/t4-,5+,7+/m0/s1
