18
gdb 113427	2.97588	1.09154	0.91388	4.6309	73.86	-0.2382	0.038	0.2762	1289.876	0.146558	-439.08135	-439.072329	-439.071385	-439.115613	33.332	
O	 0.3754573622	 0.3527540884	 0.9173488138	-0.411293
C	-0.1842809272	 0.1744586011	-0.3775176328	-0.074725
C	-1.5254027583	-0.5242450304	-0.3576180338	-0.118596
C	-1.8818908001	-1.5336044569	-1.4488125885	-0.367192
C	-1.5920134696	-1.9867633682	-0.054005858	 0.424318
C	-0.4821508533	-2.9048610914	 0.4868676158	-0.483434
C	-1.593877928	-3.4935601804	 1.3973585454	 0.434631
O	-1.6694175614	-4.3417943781	 2.2432837276	-0.359248
N	-2.5231308507	-2.6348147285	 0.8499139121	-0.390052
H	-0.2344853151	 0.8869698292	 1.4360777229	 0.283762
H	-0.2646699869	 1.1337107714	-0.9123096737	 0.094836
H	 0.5417722336	-0.4369982285	-0.9237236526	 0.110527
H	-2.3537804989	 0.0802307776	 0.0096672668	 0.08264
H	-2.9091556232	-1.560081144	-1.7974823132	 0.117417
H	-1.1445787672	-1.7308983387	-2.2213670995	 0.122393
H	-0.0614760116	-3.6188198242	-0.2232856156	 0.130602
H	 0.3104816782	-2.3883464716	 1.0301059478	 0.155174
H	-3.5037697825	-2.4916401168	 1.0411846255	 0.24824
53.1447	99.9726	142.8024	174.6211	274.9475	290.2641	312.0079	403.2535	440.042	474.6146	504.5004	565.3488	594.0824	776.5131	794.2386	861.2815	895.8411	958.5782	962.4728	1013.4914	1026.121	1045.0468	1065.6148	1085.8641	1114.3359	1130.8889	1146.6788	1198.2244	1227.1392	1267.4618	1286.4502	1361.1376	1383.4637	1420.0649	1439.6208	1458.8289	1498.5919	1511.9485	1900.76	2983.9984	3070.4563	3088.3526	3117.1087	3123.1301	3151.826	3209.1834	3610.3752	3816.8927
OCC1CC11CC(=O)N1	OC[C@H]1C[C@]21CC(=O)N2	
InChI=1S/C6H9NO2/c8-3-4-1-6(4)2-5(9)7-6/h4,8H,1-3H2,(H,7,9)	InChI=1S/C6H9NO2/c8-3-4-1-6(4)2-5(9)7-6/h4,8H,1-3H2,(H,7,9)/t4-,6-/m1/s1
