17
gdb 105742	2.47718	1.43611	1.16619	3.4451	69.09	-0.228	-0.0308	0.1972	1093.0938	0.135521	-455.149286	-455.140285	-455.139341	-455.184117	31.968	
O	 0.1633233084	 1.5308864052	-0.0861840303	-0.419135
C	 0.0959038455	 0.1456657314	 0.1890592387	-0.105613
C	-1.3409950665	-0.4274319069	 0.1839341662	 0.202234
C	-1.3287219292	-1.9846757079	 0.1939992635	-0.246286
N	-2.4127498213	-2.2644419757	 1.1411799752	-0.295145
C	-2.6363589802	-1.0923476598	 1.8352383145	 0.054433
N	-2.1046040025	-0.021819394	 1.3797765925	-0.285063
C	-2.0594986597	 0.1197148852	-1.0551614948	 0.121567
O	-1.8962256316	-0.3154850709	-2.1673613519	-0.26908
H	 0.1407907037	 1.6506837048	-1.0406872857	 0.294178
H	 0.7021727387	-0.4370957094	-0.5196916069	 0.102651
H	 0.5074412708	 0.0017620528	 1.1929426126	 0.12005
H	-1.5214505812	-2.3986090581	-0.7981188546	 0.139022
H	-0.3650894601	-2.3709195127	 0.5565076427	 0.102107
H	-2.4271540766	-3.1436485505	 1.6354148349	 0.247885
H	-3.2816735695	-1.111618977	 2.7094211375	 0.129011
H	-2.7375843184	 0.9717177334	-0.8455406741	 0.107185
32.8357	76.5099	117.9187	192.1057	247.0214	286.0246	311.5	368.3044	394.3335	488.687	554.9004	599.2192	701.7342	803.9858	841.9684	915.5384	953.9907	970.4636	978.405	1019.0917	1069.9409	1102.5958	1122.5009	1160.4015	1165.2254	1209.8173	1271.3773	1303.0146	1345.1091	1389.4015	1400.8497	1408.9426	1445.6276	1480.9382	1522.9146	1676.4504	1817.6603	2932.4083	2993.771	3002.1937	3085.3807	3102.136	3181.5553	3618.3559	3823.5877
OCC1(CNC=N1)C=O	OC[C@]1(CN[CH][N]1)C=O	
InChI=1S/C5H8N2O2/c8-2-5(3-9)1-6-4-7-5/h2,4,9H,1,3H2,(H,6,7)	InChI=1S/C5H8N2O2/c8-2-5(3-9)1-6-4-7-5/h2,4,9H,1,3H2,(H,6,7)/t5-/m0/s1
