22
gdb 65200	2.9804	1.34648	1.19088	1.4336	84.63	-0.2271	0.0861	0.3132	1157.2249	0.194783	-367.152277	-367.14372	-367.142776	-367.185181	34.049	
C	 0.6958616752	-0.0113695828	-1.3466131854	-0.452165
C	 0.0887484883	 0.0512799995	 0.0444419887	 0.347731
C	 0.9649339428	-0.3463346902	 1.2094775793	-0.309222
C	 0.6178130175	 1.1058171643	 0.9926989855	-0.302415
C	-1.356944044	-0.3980825372	 0.0720800301	-0.007038
C	-2.3010207261	-0.1529634772	 1.286198766	-0.300654
C	-3.2212999757	 0.5612479573	 0.300651806	-0.012635
C	-2.5229169957	 1.6643206728	-0.3833368114	-0.241311
N	-2.3144881431	 0.2914396467	-0.8865081599	-0.147753
H	 1.74706929	 0.2926101068	-1.3323824595	 0.106574
H	 0.6464370009	-1.0295099753	-1.7504405966	 0.115415
H	 0.1582486758	 0.6431089423	-2.0396264388	 0.134211
H	 0.5018340229	-0.8528440623	 2.0504668843	 0.110724
H	 1.9765104644	-0.6756737532	 0.9964778838	 0.110052
H	 1.3917782108	 1.768808168	 0.6200203171	 0.109996
H	-0.0513846154	 1.574170812	 1.7050610789	 0.110389
H	-1.3786066993	-1.4570743162	-0.2071410185	 0.084974
H	-2.7144525371	-1.0806882961	 1.6854410089	 0.109763
H	-1.9362489399	 0.4500230887	 2.123157942	 0.103424
H	-4.295246608	 0.4201135651	 0.2324044876	 0.09238
H	-3.0998451979	 2.2695088582	-1.0761403996	 0.117336
H	-1.7102489363	 2.1902200888	 0.1074712814	 0.120223
79.7963	152.8039	179.8608	215.1788	300.0155	307.8738	352.8171	395.5574	452.9378	509.8475	691.9809	746.1587	766.4039	781.2422	790.278	861.571	866.7052	917.2231	947.115	950.7905	954.7702	997.5194	1041.7647	1050.0745	1058.3401	1066.1753	1082.6056	1091.9664	1102.7201	1123.6262	1130.9011	1172.2248	1191.3892	1227.7745	1269.1173	1273.2961	1299.6014	1353.9144	1366.0633	1390.9953	1416.2269	1466.8462	1488.0615	1489.8796	1499.1031	1507.5382	1512.1939	3027.5758	3039.0861	3051.3887	3090.9045	3107.646	3113.3233	3123.2041	3125.1766	3136.0645	3160.7731	3204.1617	3208.6948	3221.046
CC1(CC1)C1CC2CN12	CC1(CC1)[C@H]1C[C@H]2CN12	
InChI=1S/C8H13N/c1-8(2-3-8)7-4-6-5-9(6)7/h6-7H,2-5H2,1H3	InChI=1S/C8H13N/c1-8(2-3-8)7-4-6-5-9(6)7/h6-7H,2-5H2,1H3/t6-,7+,9?/m0/s1
