18
gdb 104357	2.43853	1.46517	1.20726	2.6537	68.58	-0.2682	0.0157	0.2839	1092.5097	0.147191	-476.235077	-476.226134	-476.22519	-476.268795	32.899	
C	-0.0444076787	 1.5626845344	 0.0228506812	-0.426258
C	-0.0643962692	 0.0333890104	 0.063594972	 0.232949
C	-1.4911541896	-0.5308256915	 0.0310247499	-0.082126
O	-2.1679893824	-0.1579592712	-1.1508330819	-0.41948
O	 0.6246667364	-0.5298951329	-1.0739351442	-0.299043
C	 1.9243311628	-0.8374210054	-0.6591089614	 0.00692
O	 1.8654916128	-1.0978715614	 0.7437114853	-0.241095
C	 0.7292606786	-0.5225141875	 1.232817079	 0.372785
N	 0.3784960853	-0.4688198299	 2.441564238	-0.539141
H	 0.9738646011	 1.9423358902	-0.1015685628	 0.116413
H	-0.660968905	 1.9099898686	-0.8085706735	 0.140793
H	-0.4460358236	 1.9586620531	 0.9591352988	 0.145288
H	-1.4406325029	-1.6231793269	 0.1438205789	 0.095585
H	-2.0551140009	-0.1281936404	 0.8758307951	 0.135017
H	-1.6523638504	-0.5091046383	-1.8861231938	 0.29314
H	 2.2726249366	-1.7365015005	-1.1751170591	 0.130831
H	 2.6225864189	-0.0033979972	-0.8312995615	 0.108153
H	 1.0728366	-0.9034358937	 3.05059121	 0.22927
78.8799	116.1986	172.0456	182.1172	229.1588	258.5377	329.212	331.356	433.0957	442.552	537.6786	635.3316	689.6888	747.8368	751.0137	886.1413	891.8925	939.8504	959.8124	995.1516	1030.0434	1074.6746	1123.4647	1134.7594	1171.1356	1183.9042	1220.5201	1232.275	1257.6243	1320.04	1387.5539	1403.464	1418.4205	1446.4582	1482.1632	1493.6584	1495.4553	1547.2033	1790.6234	2982.0645	3005.5578	3049.7861	3090.0018	3111.1065	3123.6725	3143.5493	3483.4847	3799.3663
CC1(CO)OCOC1=N	C[C@@]1(CO)OCO[C]1[NH]	
InChI=1S/C5H9NO3/c1-5(2-7)4(6)8-3-9-5/h6-7H,2-3H2,1H3	InChI=1S/C5H9NO3/c1-5(2-7)4(6)8-3-9-5/h6-7H,2-3H2,1H3/t5-/m0/s1
