17
gdb 128291	3.58682	1.15451	0.88871	1.2508	72.89	-0.1913	0.0451	0.2364	1291.6708	0.137152	-451.355972	-451.346732	-451.345788	-451.390364	32.493	
C	-0.0485661324	 1.3775697802	-0.1169143365	-0.319719
N	-0.0953189926	-0.0173635327	 0.2877785775	-0.37065
C	-1.2707942454	-0.7195078053	 0.1689625976	 0.442285
N	-1.2981459451	-2.0408531841	 0.0663567463	-0.380622
N	-2.659466029	-2.2950994253	 0.0513059634	-0.021807
C	-3.1699457138	-3.6393293033	-0.0474597751	-0.326494
C	-3.3127338647	-1.1308720409	 0.1284275492	 0.457268
O	-4.6518676916	-1.0812156256	 0.1230625785	-0.428813
N	-2.4942449542	-0.1011372102	 0.203274798	-0.442275
H	 0.9091567537	 1.8034363003	 0.1927864553	 0.119277
H	-0.1658524016	 1.5271330061	-1.2011185536	 0.110173
H	-0.8493872302	 1.9230117326	 0.3853009082	 0.153284
H	 0.7081941732	-0.5719407052	 0.0318383097	 0.244805
H	-2.8263975571	-4.238880138	 0.8006235454	 0.146249
H	-4.2598061662	-3.5971749524	-0.0446727396	 0.154558
H	-2.8258693568	-4.1098204452	-0.9733734852	 0.14475
H	-4.8907498461	-0.148851131	 0.1959150012	 0.317733
78.4975	100.6036	119.8267	162.1854	190.8729	251.1153	276.3303	369.1866	392.4895	398.476	549.1671	574.7896	679.9215	698.814	711.7815	775.1334	856.6943	1020.4521	1042.0423	1107.3751	1156.3459	1157.209	1167.9612	1182.2299	1285.7799	1323.8328	1407.351	1439.1722	1453.6026	1476.7663	1476.9561	1490.4589	1511.8761	1515.1419	1581.4039	1604.3054	1674.0711	2987.284	3044.5019	3089.7275	3104.7921	3139.2301	3154.223	3612.3291	3810.3541
CNC1=NN(C)C(O)=N1	CNc1nn(C)c(O)n1	
InChI=1S/C4H8N4O/c1-5-3-6-4(9)8(2)7-3/h1-2H3,(H2,5,6,7,9)	InChI=1S/C4H8N4O/c1-5-3-6-4(9)8(2)7-3/h1-2H3,(H2,5,6,7,9)
