20
gdb 22547	2.63603	0.95235	0.76964	2.7096	74.94	-0.2418	0.0086	0.2504	1492.5311	0.168204	-477.373858	-477.363139	-477.362195	-477.410002	38.419	
C	 0.1739417472	 1.4803509759	-0.0228367442	-0.472281
C	 0.031808737	-0.0187390036	 0.0128658722	 0.337457
N	-0.0255863195	-0.6962147246	 1.0960256992	-0.170737
O	 0.0547505288	 0.1286202417	 2.229585768	-0.402932
C	-0.062743886	-0.7838402038	-1.2865786186	-0.090948
C	 0.2033388647	-2.2792458291	-1.1030789104	-0.099609
O	 0.1901086823	-2.8901633843	-2.3996638879	-0.432166
C	-1.4345091775	-0.5311584575	-1.9661734673	-0.056961
O	-1.4463650392	-0.8719606777	-3.3324766547	-0.429431
H	 1.0786118874	 1.7831236511	 0.5141905913	 0.147996
H	 0.2258620034	 1.8530850769	-1.0471413518	 0.126794
H	-0.6650409672	 1.9606459549	 0.4907607712	 0.149215
H	 0.0073302984	-0.5096899453	 2.9489277149	 0.305064
H	 0.6977489753	-0.3828091556	-1.9710265568	 0.099575
H	 1.1732358053	-2.4338538098	-0.6134554622	 0.104612
H	-0.5677874962	-2.716197808	-0.4568224094	 0.111041
H	 0.1878790105	-3.8445655687	-2.2855078244	 0.294189
H	-2.205372007	-1.0765351196	-1.393687184	 0.085625
H	-1.6886069488	 0.5329058011	-1.9085476147	 0.104086
H	-1.052549169	-1.7535995039	-3.3899112203	 0.289411
50.7138	98.0936	106.0232	135.0543	175.8443	222.2158	275.1294	289.554	308.82	366.8396	383.202	390.5673	426.3952	474.5725	565.2146	572.1958	696.1422	859.9527	874.2396	920.0689	994.3109	1019.4033	1033.0298	1055.5222	1084.4168	1098.7035	1124.8883	1203.425	1219.3025	1254.6074	1287.0016	1298.6418	1360.566	1381.0521	1397.265	1402.3361	1456.6726	1471.4386	1478.0045	1483.8065	1505.8989	1519.0077	1723.1562	2950.4653	3015.7642	3019.486	3044.7249	3058.5083	3063.7082	3101.5439	3138.5539	3735.4512	3821.9039	3839.7059
CC(=NO)C(CO)CO	CC(=NO)C(CO)CO	
InChI=1S/C5H11NO3/c1-4(6-9)5(2-7)3-8/h5,7-9H,2-3H2,1H3	InChI=1S/C5H11NO3/c1-4(6-9)5(2-7)3-8/h5,7-9H,2-3H2,1H3
