20
gdb 120051	4.37681	1.00647	0.96722	1.6804	78.66	-0.2447	0.0705	0.3152	1313.6791	0.171508	-403.083794	-403.075556	-403.074612	-403.117419	31.072	
C	-0.092380973	 1.5086359851	-0.0208876771	-0.385597
C	-0.1162950586	 0.000720824	-0.2006601727	-0.042259
O	-1.3941326028	-0.4786502122	 0.1866113353	-0.264685
C	-1.5241787959	-1.8699446007	 0.1061728987	 0.180381
C	-2.8277392269	-2.4660728177	 0.5739048252	-0.108334
C	-3.7823469901	-2.4793350195	-0.5730667965	-0.028788
C	-3.1116923409	-1.8499073696	-1.7812160738	-0.234045
C	-1.8546004064	-2.5567746446	-1.2444028319	-0.066332
N	-2.7515219864	-3.5688264075	-0.4589667569	-0.16897
H	 0.8838482716	 1.911665318	-0.3064838473	 0.115558
H	-0.8584597781	 1.9814225899	-0.641985641	 0.127087
H	-0.2870936356	 1.7727710472	 1.0223537379	 0.128315
H	 0.09201038	-0.2651375661	-1.2495212783	 0.090858
H	 0.6647848105	-0.4763753186	 0.4142997816	 0.090051
H	-0.6754659549	-2.3769606368	 0.5886158498	 0.077174
H	-3.1380106532	-2.6704199558	 1.5918204206	 0.095097
H	-4.8349951256	-2.6916264587	-0.4235554929	 0.096165
H	-3.4618979132	-2.3102760646	-2.7080513432	 0.108677
H	-3.0906917601	-0.7607579863	-1.8741495591	 0.109026
H	-1.0758588003	-2.9343272655	-1.9036364982	 0.080621
63.0706	72.2777	131.7415	232.1315	270.5011	330.7566	368.8452	487.6776	606.1611	745.8313	763.4578	777.8665	813.4595	821.6488	831.1153	910.54	932.6962	965.0061	986.1384	1010.2129	1031.0297	1051.6786	1067.1185	1078.1321	1118.3998	1143.0658	1151.5738	1171.6281	1186.9988	1198.2367	1234.2076	1265.1342	1278.5837	1297.4713	1354.9338	1376.9383	1381.1384	1405.8179	1444.193	1483.4713	1484.6329	1499.6567	1527.8856	2963.031	2990.6665	3001.766	3045.3754	3059.4346	3117.6125	3119.7627	3122.4826	3140.0666	3177.9902	3191.8921
CCOC1C2C3CC1N23	CCO[C@H]1[C@H]2[C@H]3C[C@@H]1N23	
InChI=1S/C7H11NO/c1-2-9-7-5-3-4-6(7)8(4)5/h4-7H,2-3H2,1H3	InChI=1S/C7H11NO/c1-2-9-7-5-3-4-6(7)8(4)5/h4-7H,2-3H2,1H3/t4-,5+,6-,7-,8?/m1/s1
