16
gdb 130220	3.06756	1.45873	1.04957	0.7079	72.2	-0.2001	0.0116	0.2117	1106.0495	0.126955	-430.215632	-430.207598	-430.206653	-430.248573	29.786	
N	 0.0290538313	 1.3264931446	 0.3371592748	-0.599068
C	 0.018891913	-0.0379524567	 0.0822096869	 0.267046
N	-1.0852179073	-0.7736265894	 0.0061516415	-0.280179
N	-0.609706977	-2.0129174704	-0.1736538419	-0.100001
N	 0.7108021418	-2.1361875707	-0.2383006212	-0.277164
C	 1.1422504416	-0.8879014572	-0.0713861159	 0.300524
N	 2.479052144	-0.473871257	-0.1119096514	-0.179157
C	 3.2463621785	-0.4908534192	 1.1486186616	-0.228412
C	 3.5140594199	-1.486069042	 0.0769071486	-0.218731
H	 0.8108581836	 1.7908440828	-0.1069465268	 0.256386
H	-0.8468439599	 1.7738294815	 0.1014331688	 0.254366
H	-1.2232314939	-2.7940127437	-0.3248348231	 0.286942
H	 3.9104810521	 0.3553507506	 1.293843134	 0.121083
H	 2.7302407409	-0.8391015244	 2.0390113676	 0.129747
H	 3.1832969302	-2.5065169954	 0.2423126415	 0.145514
H	 4.3835897712	-1.3748956535	-0.5636957651	 0.121103
56.4705	163.8868	176.3899	268.4438	274.5019	307.2582	337.8744	457.953	544.4386	585.4428	681.6383	708.196	752.2093	800.0594	828.1927	885.3061	930.3869	978.7394	1042.2344	1097.831	1113.7673	1134.9964	1177.832	1178.1964	1189.5871	1219.7499	1248.3198	1328.218	1421.5643	1470.5877	1490.739	1516.7283	1578.2554	1591.8046	1646.9212	3115.9931	3123.8984	3203.9963	3218.7643	3541.8341	3642.0307	3695.7534
NC1=NNN=C1N1CC1	Nc1n[nH]nc1N1CC1	
InChI=1S/C4H7N5/c5-3-4(7-8-6-3)9-1-2-9/h1-2H2,(H3,5,6,7,8)	InChI=1S/C4H7N5/c5-3-4(7-8-6-3)9-1-2-9/h1-2H2,(H3,5,6,7,8)
