23
gdb 120264	2.90766	1.08137	0.9395	0.9882	86.23	-0.2393	0.0823	0.3216	1391.9015	0.204799	-388.260311	-388.250538	-388.249594	-388.295394	36.356	
C	-0.0775149026	 1.5247996549	-0.087761804	-0.384347
C	 0.1486717509	 0.0250090885	 0.0027458413	-0.040284
O	 0.4817251856	-0.4558334493	-1.2873267528	-0.253617
C	 0.7081531483	-1.8428744925	-1.3518410826	 0.121141
C	 0.735946021	-2.4001042061	-2.7668174646	-0.081665
C	 1.8925212505	-1.827819593	-3.5377902187	-0.278834
C	 2.1598035404	-2.9265869728	-2.5498597176	-0.056339
C	 2.1788837551	-2.3877011033	-1.111632512	-0.023218
C	 3.2794721303	-1.4132497995	-0.7090672638	-0.405705
H	 0.8304138356	 2.0296668062	-0.430018488	 0.125197
H	-0.8801468599	 1.7485451728	-0.7962207503	 0.126431
H	-0.3523263037	 1.9302209261	 0.8907439607	 0.112232
H	 0.9512332927	-0.1979118566	 0.7228553128	 0.089323
H	-0.7605879013	-0.482351486	 0.3673496765	 0.085161
H	-0.0140836472	-2.3704569311	-0.7132874676	 0.061284
H	-0.1026927467	-2.8747532639	-3.26126929	 0.081378
H	 1.9329101049	-2.1269434299	-4.5803066741	 0.107836
H	 2.2207208959	-0.8097443514	-3.3559675099	 0.119857
H	 2.5688138401	-3.8813800986	-2.8577320767	 0.08096
H	 2.1410507107	-3.2161510531	-0.396843208	 0.066874
H	 3.2606377376	-0.5069331499	-1.3195313426	 0.12482
H	 3.1775391133	-1.1083795796	 0.337885467	 0.110495
H	 4.2651116985	-1.8781023719	-0.8230479052	 0.111022
57.3166	92.0382	105.403	161.3633	208.239	221.1176	250.1151	296.664	371.3375	424.0231	546.7695	584.736	681.5554	771.768	803.3502	809.921	822.5907	906.6546	915.2156	935.7543	984.5329	1000.0824	1022.0034	1055.4913	1065.1934	1082.8691	1084.7738	1098.7811	1138.4684	1154.2631	1160.1286	1186.6099	1190.0629	1236.5024	1276.3589	1296.5549	1317.7001	1359.1955	1367.5215	1373.9997	1402.7994	1408.7837	1441.8604	1482.9824	1484.9168	1491.6342	1498.9823	1504.8629	1528.8645	2960.4252	2994.0944	2999.6138	3032.5501	3043.8453	3049.9558	3092.0938	3116.8662	3117.6999	3120.9398	3129.8902	3177.1984	3186.9131	3211.619
CCOC1C2CC2C1C	CCO[C@H]1[C@H]2C[C@H]2[C@H]1C	
InChI=1S/C8H14O/c1-3-9-8-5(2)6-4-7(6)8/h5-8H,3-4H2,1-2H3	InChI=1S/C8H14O/c1-3-9-8-5(2)6-4-7(6)8/h5-8H,3-4H2,1-2H3/t5-,6+,7+,8-/m1/s1
