19
gdb 56221	3.7505	0.88546	0.75886	8.4204	73.94	-0.2323	0.01	0.2422	1488.5398	0.158595	-456.402098	-456.392094	-456.39115	-456.438209	35.101	
C	 0.1600698466	 1.2994155995	 0.0869928547	-0.484324
C	 0.0472467874	-0.1745405043	-0.2329207814	 0.376667
N	 0.6774332122	-1.1164281197	 0.3818750991	-0.537458
H	 0.8151644478	-2.7557612796	-0.083967017	 0.334201
H	 1.2628859151	-0.75551027	 1.1271650567	 0.226405
N	-0.8041154521	-0.4794585894	-1.2445583845	-0.271359
C	-1.0753134137	-1.8472519038	-1.664251486	-0.194331
C	 0.1084311256	-2.5557664835	-2.3822583826	-0.319641
C	 0.5936178122	-3.8337094273	-1.6864620795	 0.380304
O	 0.904274299	-3.7050031813	-0.3969864448	-0.382186
O	 0.6896059816	-4.8848868867	-2.2695661719	-0.338492
H	 0.4446155344	 1.8693327758	-0.8038155517	 0.144933
H	-0.7993963353	 1.6913469611	 0.4401751341	 0.150596
H	 0.9110206847	 1.4713713528	 0.8590639469	 0.142157
H	-1.2320968844	 0.2743470604	-1.75189484	 0.252245
H	-1.3737513917	-2.4216835737	-0.7812882382	 0.145288
H	-1.9407185913	-1.8072091689	-2.3287519265	 0.119382
H	-0.1637888198	-2.8355964121	-3.4007443909	 0.126459
H	 0.9522553816	-1.8606605592	-2.4447769865	 0.129153
44.3354	68.8201	96.9298	108.9426	170.0497	224.9748	274.3155	294.4898	337.0852	442.8542	468.5315	587.1433	593.5079	645.0021	698.2354	791.3994	792.3415	891.4029	940.3523	972.5514	999.1659	1012.9662	1049.237	1061.8958	1105.2048	1183.7874	1209.5798	1293.4956	1303.7514	1331.8822	1373.783	1402.1705	1410.6656	1466.7836	1476.4218	1479.4117	1487.2101	1509.0878	1572.6139	1690.6461	1847.0531	3031.5869	3043.8153	3054.3532	3061.832	3104.5304	3107.375	3129.5911	3145.0347	3550.35	3676.594
CC(=[NH2+])NCCC([O-])=O	CC(=N)NCCC(=O)O	
InChI=1S/C5H10N2O2/c1-4(6)7-3-2-5(8)9/h2-3H2,1H3,(H2,6,7)(H,8,9)	InChI=1S/C5H10N2O2/c1-4(6)7-3-2-5(8)9/h2-3H2,1H3,(H2,6,7)(H,8,9)
