21
gdb 102579	2.17713	1.34061	0.97534	2.2042	74.74	-0.226	0.0587	0.2848	1278.3023	0.180596	-461.321597	-461.311397	-461.310452	-461.357325	37.172	
C	 0.1174277047	 1.4411886917	-0.0816502456	-0.253044
O	-0.0909875746	 0.043829453	-0.2170734288	-0.276416
C	 0.6825112858	-0.5810257854	-1.2592811567	 0.055619
C	 2.1129357104	-0.8160291277	-0.7541274047	-0.064001
O	 2.1405879223	-1.598987514	 0.4195516648	-0.417447
C	-0.0056331344	-1.8676609389	-1.6744348583	-0.054033
C	-0.8511683901	-2.6816345011	-0.7076135489	-0.325473
C	-1.5026702189	-1.9544917077	-1.8537728319	 0.118767
O	-2.3369610523	-0.854548629	-1.6526183552	-0.435879
H	 1.1477699014	 1.681514601	 0.2085130916	 0.125194
H	-0.1174832073	 1.9692590201	-1.0160857427	 0.125175
H	-0.5569753453	 1.7875842834	 0.7048361462	 0.137059
H	 0.7233922901	 0.1014711144	-2.1241503798	 0.077771
H	 2.6840880483	-1.3525926026	-1.5194740004	 0.110613
H	 2.6144914496	 0.1541555446	-0.6015297216	 0.082655
H	 1.4425994544	-1.2545223546	 0.9891083731	 0.287506
H	 0.5964207437	-2.4341076234	-2.3801636325	 0.089096
H	-0.7661205419	-3.7626495211	-0.7281320192	 0.111035
H	-1.0101093686	-2.2613662989	 0.2791539938	 0.116039
H	-1.8688863807	-2.5453795339	-2.6874831943	 0.101612
H	-1.9240309866	-0.32599322	-0.9568191887	 0.288151
53.9079	64.8339	102.8602	161.0879	193.4356	225.7906	257.4346	324.3234	337.7725	410.9347	429.1851	467.5602	491.1187	635.9276	669.0941	774.3267	798.6523	856.6368	870.6765	954.8648	990.896	1020.1037	1051.588	1067.1242	1096.4723	1107.4061	1124.1758	1143.9145	1150.0616	1181.6229	1212.3006	1227.736	1237.807	1306.5613	1348.5623	1369.1381	1385.9738	1405.3954	1428.4605	1454.0819	1478.9904	1486.5175	1495.0029	1509.3785	1514.9028	2960.0124	2975.2351	3003.6199	3063.5632	3069.7651	3122.0897	3134.8864	3139.2753	3161.6665	3224.4029	3751.0003	3792.4628
COC(CO)C1CC1O	CO[C@@H](CO)[C@H]1C[C@H]1O	
InChI=1S/C6H12O3/c1-9-6(3-7)4-2-5(4)8/h4-8H,2-3H2,1H3	InChI=1S/C6H12O3/c1-9-6(3-7)4-2-5(4)8/h4-8H,2-3H2,1H3/t4-,5+,6-/m0/s1
