18
gdb 41544	4.21083	1.58882	1.4969	1.3586	74.04	-0.2323	0.0646	0.2969	918.9881	0.151298	-401.85647	-401.850426	-401.849482	-401.886721	25.487	
C	 0.014666114	 1.4998340313	 0.3408754795	-0.096695
O	 1.3473411552	 1.64528616	-0.2047932853	-0.302891
C	 1.4243285604	 0.2296966016	-0.5032136553	 0.1084
C	-0.0324717963	 0.0059582824	-0.0413008115	-0.09268
C	-0.6408482769	-0.3540691388	-1.3853849063	 0.005417
C	-0.0299331589	 0.4906969576	-2.5381241351	-0.073335
C	-0.1281933369	-0.7835165564	-3.3857502081	-0.180324
N	 0.3543611792	-1.352094013	-2.0482507652	-0.174043
C	 1.2862461139	-0.1051558751	-1.9793412193	 0.003523
H	 0.0028462347	 1.6944882355	 1.4200511155	 0.104395
H	-0.7099839679	 2.1598311653	-0.1512858655	 0.102449
H	 2.2559497747	-0.2608252732	 0.0097134625	 0.084004
H	-0.2448013942	-0.7118588028	 0.7501897457	 0.088924
H	-1.6877238094	-0.6598641328	-1.4323599918	 0.074567
H	-0.2401344139	 1.5297125833	-2.8114052294	 0.072634
H	-1.1211967117	-1.1385947437	-3.6769769577	 0.099347
H	 0.5878433034	-0.9186806499	-4.2013099667	 0.101435
H	 2.1772140705	-0.1626631313	-2.6063749761	 0.074874
169.9537	222.8366	345.2573	472.1301	486.094	662.0635	716.1615	755.999	787.8305	817.7864	854.5	880.275	900.474	925.7953	929.8512	959.7305	983.908	1008.7807	1027.7998	1052.7004	1061.3169	1072.2658	1112.6276	1117.6104	1135.8538	1160.9941	1183.0774	1200.7517	1222.9762	1241.5938	1244.9321	1262.9722	1298.5294	1319.8651	1335.4706	1350.8527	1381.603	1522.1768	1532.2356	3016.6036	3043.1099	3054.7577	3060.6468	3074.9496	3100.1693	3107.9541	3112.2818	3123.8832
C1OC2C1C1C3CN1C23	C1O[C@H]2[C@@H]1[C@H]1[C@@H]3CN1[C@H]23	
InChI=1S/C7H9NO/c1-3-5-4-2-9-7(4)6(3)8(1)5/h3-7H,1-2H2	InChI=1S/C7H9NO/c1-3-5-4-2-9-7(4)6(3)8(1)5/h3-7H,1-2H2/t3-,4-,5+,6-,7-/m0/s1
