19
gdb 99338	7.13877	0.5734	0.5378	1.796	79.14	-0.2695	0.0147	0.2842	2026.6	0.155653	-423.03633	-423.025637	-423.024693	-423.074254	36.452	
C	-0.0976725726	 1.4225509237	 0.1910969415	-0.370484
C	 0.0506474368	-0.0755076648	-0.0628127273	-0.303197
C	 0.7853783959	-0.3815372786	-1.3517994314	 0.444683
O	 1.2233361705	 0.4324334746	-2.1244313576	-0.348983
O	 0.8936415616	-1.7168929134	-1.5361592555	-0.24758
C	 1.5750474059	-2.1289875027	-2.7310127001	-0.057851
C	 1.5773615205	-3.65903493	-2.7282399746	-0.356179
C	 2.2479950379	-4.1986878457	-3.9036264276	 0.284228
C	 2.8061840628	-4.6164254607	-4.8820820204	-0.439365
H	 0.8796516317	 1.9077135223	 0.2522319542	 0.133277
H	-0.6504540947	 1.9039503437	-0.6194385916	 0.133284
H	-0.6320394781	 1.6001091349	 1.1283604682	 0.112432
H	 0.5903732397	-0.5707160971	 0.7531739642	 0.132237
H	-0.9246431284	-0.5745039916	-0.1094865012	 0.132236
H	 1.0572485774	-1.732107002	-3.6085813508	 0.133883
H	 2.5924508966	-1.7281970042	-2.7344306291	 0.133886
H	 2.0692048245	-4.0142118872	-1.8147690769	 0.141703
H	 0.54216631	-4.0180985056	-2.6842592597	 0.141704
H	 3.2973311921	-4.9973991957	-5.7429552942	 0.200085
27.3059	48.2256	57.7765	82.8877	163.113	181.6012	211.9534	280.2296	313.4046	353.4207	430.0548	548.8898	579.1306	627.965	653.9318	665.1423	784.2851	810.7906	883.2288	973.1502	1004.8703	1028.771	1077.4278	1084.0959	1104.8327	1107.6113	1209.96	1230.3178	1278.109	1295.1153	1307.338	1374.2789	1413.7931	1416.7251	1459.1696	1476.7378	1492.7651	1500.1953	1514.9833	1821.8718	2244.1539	3032.8203	3041.9999	3052.8546	3063.8711	3065.5904	3071.2563	3114.2279	3124.6551	3129.7817	3507.1586
CCC(=O)OCCC#C	CCC(=O)OCCC#C	
InChI=1S/C7H10O2/c1-3-5-6-9-7(8)4-2/h1H,4-6H2,2H3	InChI=1S/C7H10O2/c1-3-5-6-9-7(8)4-2/h1H,4-6H2,2H3
