23
gdb 122511	2.38192	0.94141	0.76507	1.9413	83.16	-0.2466	0.0778	0.3245	1601.0124	0.204066	-425.401896	-425.391355	-425.39041	-425.438586	38.157	
C	-0.2802928328	 1.1320302207	 0.1154992927	-0.37488
C	-0.4844103206	-0.2801630484	-0.445239012	-0.197709
C	 0.6324166171	-0.7154136274	-1.3730603722	-0.017408
C	 1.9715537117	-1.1544620243	-0.8051432794	-0.324461
C	 1.0817058441	-2.1578165427	-1.4663570455	 0.112592
O	 0.5208022767	-3.1272233556	-0.6340585	-0.265108
C	-0.6793978121	-3.7000116073	-1.1390869994	-0.071752
C	-1.2131197739	-4.6112780102	-0.0446593086	-0.065395
O	-1.4437226586	-3.896821477	 1.1544992963	-0.420447
H	 0.6471612825	 1.1967037545	 0.6938812567	 0.116801
H	-0.2188276999	 1.872499522	-0.6897080253	 0.111962
H	-1.1081842111	 1.4201598152	 0.7708991713	 0.112441
H	-0.5765638582	-0.9996904918	 0.3752602314	 0.104515
H	-1.4385767678	-0.3181560891	-0.9868746539	 0.096952
H	 0.6820973347	-0.1595080792	-2.3071539192	 0.081399
H	 2.8906999117	-0.8588284931	-1.2982105624	 0.112218
H	 2.0414475681	-1.2284682877	 0.2754884737	 0.118378
H	 1.3658819548	-2.5380100477	-2.4485844713	 0.08287
H	-1.4100439126	-2.9122442264	-1.368155547	 0.103168
H	-0.4805059151	-4.2701015096	-2.0606783894	 0.088782
H	-2.1710046237	-5.0407710942	-0.3552879339	 0.1086
H	-0.5051080625	-5.4403514273	 0.1121745138	 0.094141
H	-0.6137006423	-3.4476427534	 1.3519484036	 0.292341
40.055	66.713	86.5093	131.2501	172.9406	210.7882	231.6081	274.9762	334.6075	372.1304	430.5997	464.895	511.7175	625.7104	760.2562	782.6366	803.0187	831.6785	894.1269	906.9662	959.8407	977.6029	1037.5142	1044.2898	1067.7428	1089.1273	1096.9076	1125.6004	1133.1787	1138.1072	1183.9792	1196.2364	1240.0368	1248.5866	1262.4103	1293.2784	1340.9476	1372.4671	1389.1504	1406.6528	1414.2189	1426.4286	1437.0461	1480.5832	1489.128	1497.3318	1497.8517	1506.0845	1509.9096	2978.0764	2985.3564	3021.6177	3031.5966	3036.5782	3069.0899	3082.4833	3088.0727	3100.2693	3105.3155	3127.5983	3132.9147	3219.7026	3800.5113
CCC1CC1OCCO	CC[C@H]1C[C@H]1OCCO	
InChI=1S/C7H14O2/c1-2-6-5-7(6)9-4-3-8/h6-8H,2-5H2,1H3	InChI=1S/C7H14O2/c1-2-6-5-7(6)9-4-3-8/h6-8H,2-5H2,1H3/t6-,7+/m0/s1
