17
gdb 66090	2.44743	1.27352	1.05701	3.7391	70.46	-0.2525	-0.0546	0.1978	1172.7983	0.133279	-458.967428	-458.958506	-458.957561	-459.001666	32.302	
O	 0.1225194182	 1.422273542	-0.498647916	-0.47176
C	 0.0118421788	 0.0996140299	-0.090001367	 0.330081
C	 0.0000116689	-0.1618815758	 1.4479243121	-0.286565
C	-1.2093235805	-1.1125537959	 1.2709172031	-0.244533
C	-1.4255519767	-0.5716130401	-0.1768435293	-0.178095
C	-2.5114757892	 0.4736348774	-0.2714849919	 0.185196
O	-3.3362254591	 0.5097818624	-1.1461731575	-0.252026
C	 1.0233089493	-0.7559610331	-0.8163174606	 0.122002
O	 1.7554750391	-0.2935653956	-1.6573132925	-0.27451
H	 0.7747639437	 1.4290151083	-1.2189867292	 0.296874
H	 0.910961529	-0.5652459148	 1.8972525733	 0.113388
H	-0.2613348651	 0.7663792089	 1.9601476298	 0.134932
H	-0.9346460519	-2.1693094664	 1.2719977592	 0.120108
H	-2.043100908	-0.9758114595	 1.9631203437	 0.120699
H	-1.579850707	-1.3022007015	-0.9738378286	 0.096879
H	-2.5123740683	 1.2201140814	 0.5532370325	 0.08338
H	 1.0529220889	-1.8297390876	-0.5420522212	 0.10395
59.1627	91.8082	120.4452	188.2917	274.9253	290.4996	334.6191	372.5314	421.302	469.048	524.3578	533.5227	715.2567	826.08	854.1548	861.8002	907.802	932.4719	960.672	992.9587	1032.0873	1074.1468	1108.727	1153.9169	1213.1501	1224.2723	1262.0699	1265.7285	1279.7811	1307.5052	1386.9531	1434.2093	1439.5437	1479.076	1497.3376	1807.9724	1832.3784	2887.9362	2934.8848	3066.3036	3072.5731	3091.7171	3115.6004	3132.7412	3670.3319
OC1(CCC1C=O)C=O	O[C@]1(CC[C@H]1C=O)C=O	
InChI=1S/C6H8O3/c7-3-5-1-2-6(5,9)4-8/h3-5,9H,1-2H2	InChI=1S/C6H8O3/c7-3-5-1-2-6(5,9)4-8/h3-5,9H,1-2H2/t5-,6+/m0/s1
