20
gdb 94898	2.77102	1.622	1.21983	3.8848	78.95	-0.2403	0.0333	0.2736	1077.8871	0.174117	-403.177982	-403.170289	-403.169345	-403.210032	30.367	
C	-0.241047464	 1.5541733125	-0.1740105904	-0.401647
C	-0.0349741773	 0.0414203369	-0.055001794	-0.052566
C	 0.9283925638	-0.501399215	-1.1458730508	-0.092878
O	 2.2723491172	-0.3789570833	-0.6168464394	-0.257195
C	 2.1702658027	-0.2422263793	 0.7177500834	 0.450325
N	 3.0757171514	 0.0802221945	 1.5407590219	-0.32592
C	 2.3871239304	 0.2109213512	 2.8431469598	-0.155889
C	 0.8565522729	 0.3485782475	 2.5375133773	-0.269576
C	 0.7496414598	-0.3991888598	 1.2012258144	-0.097528
H	 0.7094496571	 2.0951897992	-0.1144672633	 0.137703
H	-0.7074685372	 1.8035918055	-1.1323392741	 0.117353
H	-0.8918093949	 1.9299515558	 0.620965258	 0.123138
H	-1.0012360678	-0.4651513074	-0.1340914575	 0.079315
H	 0.7363483205	-1.5582009836	-1.367334449	 0.111732
H	 0.8923408709	 0.0661275708	-2.0790167038	 0.12059
H	 2.5917468873	-0.6731135458	 3.4630526418	 0.10304
H	 2.7822665586	 1.0756989926	 3.3846086989	 0.107862
H	 0.2230592308	-0.060811608	 3.3277053002	 0.099301
H	 0.602384275	 1.4058315841	 2.4153939697	 0.109639
H	 0.5535696629	-1.4666964383	 1.3774921368	 0.093202
111.1581	151.0191	243.69	261.724	274.4545	351.2992	458.9181	465.7261	615.7465	641.2272	704.752	731.7354	796.2616	841.6669	864.461	920.8899	930.8312	952.9663	976.5081	1014.2765	1045.1065	1056.4901	1096.5913	1118.4478	1166.2166	1183.5235	1210.7694	1231.0278	1252.4665	1261.6023	1292.3794	1319.4333	1324.8917	1351.8043	1377.4651	1407.9539	1423.2436	1488.4551	1498.9002	1501.2092	1509.9188	1518.2499	1766.209	3001.2238	3012.0518	3031.6495	3035.8387	3061.3958	3065.0302	3077.2931	3102.5847	3105.3523	3110.7425	3113.482
CC1COC2=NCCC12	C[C@H]1CO[C]2[N]CC[C@@H]12	
InChI=1S/C7H11NO/c1-5-4-9-7-6(5)2-3-8-7/h5-6H,2-4H2,1H3	InChI=1S/C7H11NO/c1-5-4-9-7-6(5)2-3-8-7/h5-6H,2-4H2,1H3/t5-,6-/m0/s1
