19
gdb 40379	3.90093	1.32801	1.19996	2.2843	78.94	-0.195	0.0781	0.2731	1082.1242	0.159715	-381.93997	-381.932477	-381.931533	-381.971866	30.502	
C	-0.8259767385	-0.4332141662	-1.11345053	-0.227371
C	-1.0850318469	 0.9286360372	-0.5727920569	-0.229219
N	-0.0891206726	 0.0495974845	 0.0479009352	-0.153302
C	-0.4087967811	-0.5039492909	 1.3197554784	 0.372146
C	-0.3393895254	-1.9524058151	 1.6691602097	-0.328561
C	-1.6419420214	-1.207206727	 1.9186539079	-0.146842
C	-1.5376711579	-0.2600114969	 3.1475607558	-0.046537
N	-0.2122094994	-0.4421299151	 3.7992150758	-0.337812
C	-0.3504384031	 0.405903039	 2.5862928563	-0.111931
H	-1.6018190432	-1.1797980607	-0.9558289067	 0.114553
H	-0.2385710217	-0.5690170397	-2.0165758069	 0.119383
H	-0.6875861903	 1.8060395798	-1.0739262918	 0.116767
H	-2.0253811644	 1.077995157	-0.0467632626	 0.114652
H	-0.3858183241	-2.6134050099	 0.808245265	 0.10564
H	 0.2667497702	-2.3087116633	 2.4928837904	 0.139709
H	-2.5794881976	-1.5113913302	 1.4714988973	 0.086439
H	-2.3771778642	 0.1550918168	 3.6899077567	 0.091773
H	-0.1820260173	 0.1897950871	 4.5993772226	 0.228107
H	-0.0565020312	 1.4474599935	 2.5784796939	 0.092405
86.1208	159.6013	193.935	310.777	406.3165	440.4292	491.5989	519.5588	612.4068	718.4307	775.5239	791.0077	826.1591	831.889	851.1425	891.873	902.6332	910.0999	921.3937	954.3456	988.9142	1002.4549	1034.9976	1055.6972	1092.1609	1104.4474	1112.0826	1122.2801	1131.5668	1168.5208	1174.7021	1200.5852	1214.6504	1248.8133	1300.5833	1316.7287	1357.022	1403.1892	1477.3304	1487.1866	1513.2083	3101.8462	3106.1182	3131.2961	3184.6591	3187.8214	3195.8275	3200.1378	3205.5064	3222.9989	3468.4005
C1CN1C12CC1C1NC21	C1CN1[C@]12C[C@H]1[C@H]1N[C@@H]21	
InChI=1S/C7H10N2/c1-2-9(1)7-3-4(7)5-6(7)8-5/h4-6,8H,1-3H2	InChI=1S/C7H10N2/c1-2-9(1)7-3-4(7)5-6(7)8-5/h4-6,8H,1-3H2/t4-,5+,6+,7+/m0/s1
