18
gdb 49069	2.468	1.63189	1.29411	3.0038	71.73	-0.2367	-0.0293	0.2075	1028.9864	0.148904	-439.074295	-439.06654	-439.065596	-439.106776	29.629	
O	-0.7637731528	 1.1779197976	 0.7763072743	-0.260916
C	 0.1385391436	 0.9399162085	 0.0132353559	 0.117739
C	 1.4111198855	 1.7510779847	-0.100787743	 0.193663
C	 1.7870249074	 2.5104780965	 1.1767955871	-0.297447
C	 2.3556215168	 3.843346824	 0.661456053	-0.09622
O	 1.6450914156	 4.1153240926	-0.545510633	-0.244821
C	 1.4155249235	 2.896882705	-1.1954993664	 0.067446
C	 2.6455922524	 2.1746881155	-1.8122165906	-0.1999
N	 2.465360387	 1.0487046224	-0.8642262588	-0.367454
H	 0.096619793	 0.0961045163	-0.7101901588	 0.085426
H	 0.8730318993	 2.6718073441	 1.7545855091	 0.141957
H	 2.4966347273	 1.9576037172	 1.799319445	 0.104932
H	 2.1902371098	 4.685011219	 1.3377851594	 0.121229
H	 3.4361369508	 3.7676048376	 0.4683217162	 0.094669
H	 0.5452946131	 3.0094269436	-1.8437249742	 0.101058
H	 2.546385608	 1.8758510111	-2.8611902849	 0.110426
H	 3.569240853	 2.7542147764	-1.6999214948	 0.107826
H	 3.2850242067	 0.7837206478	-0.3298410554	 0.220387
91.6108	111.6878	230.4325	246.9507	265.389	369.5643	436.3532	509.1286	562.6633	664.0925	698.3864	739.525	821.3012	843.5262	883.3833	940.0189	976.6566	988.4623	1015.2787	1026.7327	1042.5968	1100.3952	1115.3877	1170.9297	1177.6912	1189.6503	1229.4739	1241.2646	1252.8913	1307.7244	1334.0841	1354.5724	1379.717	1388.9021	1404.0784	1481.4481	1509.6724	1528.8987	1818.0119	2897.6675	2992.2009	3029.2495	3061.5177	3071.6835	3100.9934	3108.4585	3116.6227	3534.5396
O=CC12CCOC1CN2	O=C[C@]12CCO[C@H]1CN2	
InChI=1S/C6H9NO2/c8-4-6-1-2-9-5(6)3-7-6/h4-5,7H,1-3H2	InChI=1S/C6H9NO2/c8-4-6-1-2-9-5(6)3-7-6/h4-5,7H,1-3H2/t5-,6+/m0/s1
