15
gdb 7261	4.35212	1.17304	0.98716	1.049	60.44	-0.2741	-0.0398	0.2343	1137.887	0.116123	-436.960613	-436.951855	-436.950911	-436.994557	30.271	
C	 0.1313487999	 0.97251308	-0.7517753598	-0.396424
C	-0.0903969837	-0.0012701962	 0.414605592	 0.093506
O	 0.3025873649	 0.5859506278	 1.6275063295	-0.436582
C	-1.5323552014	-0.4561033092	 0.4865704858	 0.386719
N	-2.2311639572	-0.2420552206	 1.514576504	-0.51581
O	-1.9389385809	-1.0721070446	-0.6827863048	-0.19812
C	-2.7673397325	-2.1608899281	-0.6148946152	 0.158986
O	-3.2625809882	-2.6320655211	-1.5865280395	-0.239012
H	 1.1800041042	 1.2781816611	-0.7555145868	 0.136185
H	-0.1076535171	 0.5061564087	-1.7103902388	 0.133293
H	-0.4871406428	 1.8649437274	-0.6200338917	 0.128158
H	 0.5112471296	-0.9070446009	 0.2276175714	 0.098202
H	-0.4728102707	 0.5660311979	 2.2079572743	 0.297785
H	-3.2014621653	-0.5413138842	 1.4475312655	 0.242149
H	-2.8783982489	-2.540535838	 0.414384164	 0.110965
61.2214	84.1226	126.0794	202.2136	232.9651	289.2294	319.1451	351.0629	381.9164	463.2561	530.9907	656.0325	754.1904	839.5873	874.5093	946.5422	1037.9195	1049.3499	1058.6064	1104.7129	1111.7542	1170.6822	1249.3282	1319.9722	1357.9434	1401.7821	1411.951	1442.0371	1492.4206	1498.5111	1745.6443	1882.5688	2964.4891	3006.751	3051.2021	3130.0535	3140.1437	3518.1828	3712.8249
CC(O)C(=N)OC=O	C[C@@H](O)C(=N)OC=O	
InChI=1S/C4H7NO3/c1-3(7)4(5)8-2-6/h2-3,5,7H,1H3	InChI=1S/C4H7NO3/c1-3(7)4(5)8-2-6/h2-3,5,7H,1H3/t3-/m1/s1
