18
gdb 61949	5.53659	0.61541	0.58614	1.5673	78.31	-0.2567	0.0072	0.2639	1808.4481	0.14654	-398.138214	-398.12822	-398.127276	-398.174466	34.285	
C	-0.1153263855	 1.5577744745	 0.0045254402	-0.348663
N	-0.0407589088	 0.1002666611	 0.070081238	-0.070084
C	 0.6640263026	-0.3870396823	 1.250253515	-0.139932
C	 2.1883331664	-0.1900805193	 1.1141988547	-0.348825
C	 2.9048959633	-0.7567156141	 2.2532713442	 0.260056
N	 3.4505440865	-1.2130748133	 3.1637003813	-0.298289
C	-1.3589947085	-0.5134477513	-0.0518772626	-0.284473
C	-1.9583823421	-0.2622711776	-1.3683431238	 0.276541
N	-2.4431875792	-0.061390877	-2.3970765903	-0.301429
H	 0.8884800327	 1.9876709673	-0.0077549518	 0.131499
H	-0.6119248944	 1.8579907069	-0.921123193	 0.157921
H	-0.6684008157	 1.9936002836	 0.8565152113	 0.107396
H	 0.3143202558	 0.0928716944	 2.1818025403	 0.110993
H	 0.4703455682	-1.458743318	 1.3529559081	 0.127803
H	 2.5324017601	-0.6681312448	 0.1914332273	 0.167101
H	 2.4435364202	 0.8716734543	 1.0409690783	 0.158044
H	-1.2614929636	-1.5972859891	 0.07059196	 0.158873
H	-2.076183998	-0.1671501054	 0.7170146527	 0.135467
46.6297	49.6515	105.7446	120.9312	164.4839	237.0657	285.1204	345.4651	360.5451	392.7822	402.597	418.4329	519.5274	614.083	781.6033	862.5828	939.0169	959.6361	998.277	1039.8669	1058.8749	1063.0938	1148.8832	1173.2591	1208.7612	1265.1418	1301.7771	1309.1754	1342.7977	1379.2503	1423.7285	1465.541	1468.0375	1475.7913	1495.7394	1501.7429	1506.8188	2365.4543	2367.9011	2925.8464	2946.3399	2950.9336	3058.0827	3069.2628	3079.3193	3091.5586	3104.4515	3132.1776
CN(CCC#N)CC#N	CN(CCC#N)CC#N	
InChI=1S/C6H9N3/c1-9(6-4-8)5-2-3-7/h2,5-6H2,1H3	InChI=1S/C6H9N3/c1-9(6-4-8)5-2-3-7/h2,5-6H2,1H3
