18
gdb 11747	5.37865	1.32214	1.20471	1.1935	67.9	-0.2327	0.0689	0.3016	1040.0838	0.152686	-384.89553	-384.887365	-384.886421	-384.928026	30.624	
C	-0.2479722368	 1.4701407153	 0.1824278724	-0.407086
C	 0.047016469	-0.0124243658	 0.268722162	 0.150292
O	 0.7847889698	-0.529005005	-0.8867080516	-0.346629
C	 1.7265913909	-1.1648230158	-0.0137295605	 0.452643
C	 2.1746223984	-2.5468596559	-0.4034442951	-0.186512
O	 3.174310777	-3.0638345198	 0.4564854812	-0.406757
C	 2.4959253234	-0.1391039406	 0.759242575	-0.353414
C	 1.1089166803	-0.5598699822	 1.2228967948	-0.192761
H	 0.6704124937	 2.0615341074	 0.1414043882	 0.121578
H	-0.8359502901	 1.6872817175	-0.7150765551	 0.128149
H	-0.8288139739	 1.7884940962	 1.0548135399	 0.118545
H	-0.8871609003	-0.5812548798	 0.3645820341	 0.082713
H	 1.3304358912	-3.2423021245	-0.3493296636	 0.120944
H	 2.5033462077	-2.521076183	-1.4549312062	 0.103569
H	 3.979547605	-2.5602990116	 0.3004218091	 0.288052
H	 3.2889038545	-0.5260704059	 1.3912743378	 0.11282
H	 2.6795729765	 0.8409384066	 0.3282604912	 0.111353
H	 0.9273184038	-0.9902180133	 2.1983313965	 0.102502
68.6056	151.1812	190.7667	218.9726	287.8457	311.997	338.798	440.887	475.7019	549.4255	669.3401	703.1321	812.8267	851.8334	866.6878	958.3384	973.867	989.7747	1020.278	1036.4201	1057.233	1080.7405	1091.775	1112.4708	1145.0553	1165.3914	1217.3042	1279.7221	1306.1805	1381.3733	1384.2177	1393.9952	1411.0545	1421.1669	1483.6871	1487.1936	1494.3403	1504.5811	2979.803	3016.5342	3038.5406	3071.5942	3106.4246	3116.5471	3122.2809	3202.5548	3211.7939	3821.1568
CC1OC2(CO)CC12	C[C@H]1O[C@@]2(CO)C[C@@H]12	
InChI=1S/C6H10O2/c1-4-5-2-6(5,3-7)8-4/h4-5,7H,2-3H2,1H3	InChI=1S/C6H10O2/c1-4-5-2-6(5,3-7)8-4/h4-5,7H,2-3H2,1H3/t4-,5+,6-/m1/s1
