17
gdb 123901	3.46383	1.57236	1.12584	5.1278	73.95	-0.2109	0.0126	0.2235	1042.2764	0.140906	-414.197414	-414.190489	-414.189545	-414.228661	27.607	
C	 0.0006603263	 1.5237923896	-0.0166436305	-0.210791
C	 1.4473305332	 2.0566291323	 0.0108247896	-0.166205
N	 2.2151621523	 1.6507005267	 1.2065271974	-0.408878
C	 1.9000310434	 0.3524882432	 1.5937353466	 0.348959
C	 0.9305571677	-0.4739437295	 1.0720265944	 0.272768
C	-0.0380972015	-0.0202715856	 0.0278604402	-0.32603
N	 1.0185509885	-1.6851657909	 1.6903139415	-0.273756
N	 1.9778536453	-1.6570721717	 2.5683462245	-0.133488
N	 2.5350384651	-0.4148228959	 2.5097821407	-0.290533
H	-0.5443939322	 1.9287522122	 0.8450115744	 0.103704
H	-0.5004868671	 1.8936706833	-0.9167935815	 0.104016
H	 1.9863243265	 1.6878630451	-0.8708484477	 0.122028
H	 1.4610983646	 3.1484029498	-0.0376559381	 0.109494
H	 2.1392587159	 2.3238857774	 1.9602392159	 0.23887
H	-1.0494928522	-0.3736887891	 0.2522363685	 0.12234
H	 0.2224994662	-0.4317693647	-0.9563177695	 0.115303
H	 3.3207310681	-0.1927360721	 3.0988176734	 0.272199
113.414	223.3593	308.0904	316.9917	394.146	447.4008	509.0157	523.2179	604.8549	694.7915	709.4931	724.8321	770.5798	861.3445	877.2921	941.0342	997.4901	1017.601	1026.4652	1062.9013	1101.1376	1186.727	1211.503	1237.2414	1248.5112	1298.344	1306.0915	1364.5904	1371.7502	1373.8711	1398.0933	1449.8813	1478.9847	1484.5872	1496.5551	1533.2205	1646.9129	3017.7644	3027.9384	3035.9413	3076.1194	3085.8642	3098.9512	3531.6713	3663.9133
C1CNC2=C(C1)N=NN2	C1CNc2c(C1)nn[nH]2	
InChI=1S/C5H8N4/c1-2-4-5(6-3-1)8-9-7-4/h1-3H2,(H2,6,7,8,9)	InChI=1S/C5H8N4/c1-2-4-5(6-3-1)8-9-7-4/h1-3H2,(H2,6,7,8,9)
