19
gdb 49915	5.58719	0.80045	0.73844	4.9986	79.88	-0.2384	0.027	0.2654	1524.2886	0.159312	-419.178563	-419.16971	-419.168766	-419.214059	31.36	
O	 0.2287491675	-0.0069322318	 0.7286073395	-0.333365
C	 0.1703802171	 1.1891961652	 0.5244213097	 0.132545
N	 1.1440534857	 1.912356011	-0.0658607213	-0.04086
C	 2.4674656273	 1.5080020861	-0.5358431387	-0.183093
C	 2.7189685827	 2.9891042437	-0.9485809356	 0.030112
C	 1.3197019043	 3.336862527	-0.3543060317	-0.19724
N	 3.8214808569	 3.6175158089	-0.2567061891	-0.061544
C	 5.1111886558	 3.5923772414	-0.9449668987	-0.223503
C	 4.3318066094	 4.8559734614	-0.8434160437	-0.22504
H	-0.7032140427	 1.8174312858	 0.7980439296	 0.065327
H	 3.1275547618	 1.1547582378	 0.2623335413	 0.130389
H	 2.4468963308	 0.7731638408	-1.3461962091	 0.120734
H	 2.764928783	 3.128280905	-2.0395917208	 0.067524
H	 0.5909634781	 3.7525498708	-1.0583506558	 0.113712
H	 1.3793745951	 3.9722884285	 0.5356973997	 0.124745
H	 5.9773937521	 3.4250226955	-0.3123434613	 0.125622
H	 5.1595981024	 3.1152033305	-1.9223626388	 0.11556
H	 3.8595935429	 5.2232185	-1.7531672433	 0.11392
H	 4.6197729199	 5.6271193424	-0.1355567218	 0.124455
21.2492	71.0833	88.2753	177.8704	222.2407	288.8066	319.0602	361.1387	479.4476	559.486	700.5681	796.7556	824.3956	875.2696	905.2227	911.317	958.2416	996.778	1033.648	1062.9853	1065.7172	1096.3525	1112.7031	1119.9195	1142.716	1172.7654	1174.8976	1191.4398	1217.2074	1270.3855	1285.0076	1313.0367	1326.8992	1383.5205	1405.1528	1455.2574	1489.8411	1497.0701	1513.9258	1518.7615	1791.523	2914.2665	2975.9769	3030.8735	3047.781	3082.2837	3097.5767	3097.7857	3102.4082	3184.6473	3198.498
O=CN1CC(C1)N1CC1	O=CN1CC(C1)N1CC1	
InChI=1S/C6H10N2O/c9-5-7-3-6(4-7)8-1-2-8/h5-6H,1-4H2	InChI=1S/C6H10N2O/c9-5-7-3-6(4-7)8-1-2-8/h5-6H,1-4H2
