17
gdb 65632	3.3621	1.30321	1.19516	2.6899	74.38	-0.2406	0.0182	0.2589	1080.0453	0.134103	-421.743281	-421.734825	-421.733881	-421.776449	32.018	
O	-0.1492690466	 1.3221015658	 0.1522598593	-0.452971
C	 0.0213257791	-0.0717605046	 0.0497587852	 0.242016
C	 0.3584026849	-0.8589627554	 1.3759587968	-0.315616
C	-0.9165925456	-1.7251095345	 1.1953930991	-0.065284
C	-2.1625381813	-1.1269093436	 1.8655551181	-0.082149
O	-2.3821366752	-0.2321881329	 0.7466459075	-0.279533
C	-1.3387667998	-0.8464836511	-0.0165861725	 0.072745
C	 0.9019738895	-0.4395654811	-1.0525967686	 0.273976
C	 1.6336929101	-0.7320703508	-1.9616859954	-0.479797
H	 0.6923892286	 1.7399891244	-0.0584388538	 0.286259
H	 1.3037465302	-1.4021759422	 1.3461463107	 0.112493
H	 0.3375955529	-0.2090145455	 2.2541650657	 0.111988
H	-0.802199352	-2.8063616145	 1.163752171	 0.082004
H	-3.0033576566	-1.8225977896	 1.9827660935	 0.102398
H	-2.0051195537	-0.5871980923	 2.8072808146	 0.105914
H	-1.6725693421	-1.1887219206	-0.9991360514	 0.08267
H	 2.2758944976	-0.9886347216	-2.7680341297	 0.202885
62.4087	135.3537	164.2679	209.1132	244.9491	342.9772	390.9767	440.3085	496.401	555.8725	620.7883	638.6547	670.1527	776.6644	786.0675	842.937	877.4341	923.3669	961.7269	998.1587	1001.3239	1023.1304	1066.1207	1091.6212	1144.2572	1154.687	1194.7965	1212.5042	1230.804	1255.2698	1294.7593	1309.8599	1352.0413	1372.1345	1470.0642	1522.9547	2224.7655	3010.6567	3058.485	3068.6324	3080.7427	3129.4467	3140.7704	3499.0859	3816.7836
OC1(CC2COC12)C#C	O[C@]1(C[C@H]2CO[C@@H]12)C#C	
InChI=1S/C7H8O2/c1-2-7(8)3-5-4-9-6(5)7/h1,5-6,8H,3-4H2	InChI=1S/C7H8O2/c1-2-7(8)3-5-4-9-6(5)7/h1,5-6,8H,3-4H2/t5-,6+,7-/m0/s1
