23
gdb 104733	2.11579	1.38592	1.06386	1.5744	82.01	-0.2217	0.0689	0.2906	1281.9894	0.20234	-425.406385	-425.395585	-425.39464	-425.44146	40.489	
C	-0.6056910068	 1.4823227019	 0.7303283528	-0.373572
C	-0.0417987042	 0.1952057102	 0.1152866465	-0.269615
C	 0.8787494591	-0.5471778348	 1.0646058308	 0.358597
C	 0.3021374548	-1.44838637	 2.1364298666	-0.412667
C	 1.1353636788	-2.0455723074	 1.0166514393	 0.375634
C	 0.5313697227	-2.9694979962	-0.0089110341	-0.441871
O	 2.4378762841	-2.464238056	 1.3290947533	-0.478906
O	 1.9884071919	 0.1931502639	 1.5360808272	-0.298811
C	 2.9010859707	 0.5868987601	 0.5171832114	-0.263956
H	 0.1981123097	 2.1667510046	 1.015515243	 0.127235
H	-1.261915523	 1.999803618	 0.024234866	 0.108625
H	-1.1842583665	 1.2620967731	 1.6332742452	 0.120683
H	-0.8640481994	-0.4703472165	-0.1647412517	 0.102679
H	 0.4844639317	 0.4266561825	-0.8193303976	 0.098023
H	 0.7610488397	-1.3968509339	 3.1183251187	 0.115779
H	-0.771749564	-1.6073137748	 2.1418286213	 0.107954
H	-0.4994452996	-2.6966332307	-0.2437246475	 0.115335
H	 1.1165102474	-2.9574303879	-0.934120836	 0.121491
H	 0.5312710595	-3.9949303795	 0.3752958759	 0.128725
H	 2.8437263623	-1.7387605192	 1.8208342842	 0.287084
H	 3.2126565021	-0.2679130404	-0.09574235	 0.126954
H	 2.4777578886	 1.3603450414	-0.1361262212	 0.117209
H	 3.7740239503	 1.0037052016	 1.0256220957	 0.127391
94.3666	123.2553	142.4074	176.1141	184.4433	209.3965	216.7033	280.8681	305.5825	330.9126	397.3281	413.3426	430.6185	475.6146	494.3598	600.7914	686.5513	756.9714	800.2741	879.511	893.0183	939.1142	965.9083	987.773	1018.99	1044.8711	1084.1158	1101.1868	1116.0119	1160.7984	1181.4043	1191.5886	1235.6675	1251.8698	1299.0974	1337.4013	1372.8078	1402.505	1408.7394	1440.4994	1467.8221	1478.3131	1479.3159	1484.7116	1494.975	1501.5271	1503.572	1510.11	1514.6647	3008.1029	3031.0013	3039.528	3040.6079	3069.9773	3077.5622	3100.6335	3108.3761	3117.1107	3118.2082	3122.5233	3130.1299	3214.9174	3770.5323
CCC1(CC1(C)O)OC	CC[C@]1(C[C@]1(C)O)OC	
InChI=1S/C7H14O2/c1-4-7(9-3)5-6(7,2)8/h8H,4-5H2,1-3H3	InChI=1S/C7H14O2/c1-4-7(9-3)5-6(7,2)8/h8H,4-5H2,1-3H3/t6-,7+/m0/s1
