19
gdb 91883	2.39727	1.71141	1.09076	2.7975	77.68	-0.2372	0.0141	0.2513	1126.099	0.160513	-419.196009	-419.18783	-419.186886	-419.229109	31.38	
C	-0.0671881804	 1.5242855901	 0.0735465345	-0.40173
C	-0.0033916762	 0.013409226	-0.0668423179	 0.114412
C	 0.8340253344	-0.4533590456	-1.2475838439	-0.162931
N	 0.8954461736	-1.9225385119	-1.3090316228	-0.108701
C	 2.1089718864	-2.5435382583	-0.7956904921	-0.238507
C	 0.841259682	-2.6142858043	-0.0113515589	-0.083314
C	 0.7134874531	-1.8471726628	 1.264632805	 0.374062
N	 0.7628762071	-2.4417743717	 2.3803179249	-0.521717
O	 0.5652375119	-0.4942028828	 1.1615225994	-0.262152
H	 0.9371364614	 1.9431760634	 0.1878373204	 0.129707
H	-0.532975686	 1.9684923703	-0.8108803011	 0.124525
H	-0.6558358146	 1.8002360548	 0.9519165972	 0.133037
H	-1.0189319965	-0.3961023177	-0.1637743624	 0.095845
H	 0.3885345738	-0.0893272569	-2.1801361904	 0.114166
H	 1.8364349967	-0.0115336785	-1.165456087	 0.105033
H	 2.4578740552	-3.4232761539	-1.3289297382	 0.124051
H	 2.8957473473	-1.8937794189	-0.4162673142	 0.121115
H	 0.2867668225	-3.5470673476	-0.0096067167	 0.123611
H	 0.6449597484	-1.7684550238	 3.1404812542	 0.219489
50.0209	139.8941	213.5299	219.4631	275.8997	400.9822	418.0731	452.7864	455.4108	510.5346	647.5109	692.8248	743.0287	828.0482	880.0886	906.3387	914.5726	930.0481	947.4023	1018.4462	1042.2079	1073.8934	1106.0332	1108.8794	1138.2982	1148.808	1162.4507	1183.7755	1261.0343	1305.7607	1314.5568	1342.8649	1378.5812	1396.4956	1408.8312	1413.5395	1483.2517	1491.737	1499.7414	1515.0565	1749.8889	3004.2562	3014.9347	3046.3794	3063.2039	3096.4541	3120.7158	3127.5977	3162.4794	3187.7026	3462.8394
CC1CN2CC2C(=N)O1	C[C@H]1CN2C[C@H]2[C]([NH])O1	
InChI=1S/C6H10N2O/c1-4-2-8-3-5(8)6(7)9-4/h4-5,7H,2-3H2,1H3	InChI=1S/C6H10N2O/c1-4-2-8-3-5(8)6(7)9-4/h4-5,7H,2-3H2,1H3/t4-,5-,8?/m0/s1
