18
gdb 112060	2.15048	1.54196	0.98351	1.2974	78.17	-0.2536	0.0127	0.2663	1214.8223	0.146891	-401.928919	-401.919974	-401.91903	-401.963418	32.675	
C	-0.062310807	 1.6073655135	-0.0301773271	-0.388061
C	-0.0024949695	 0.0821473327	-0.1410262923	-0.174054
C	-1.3784929905	-0.5674335336	 0.0277998076	 0.001981
N	-2.3012132994	-0.170191265	-1.0516689889	-0.263764
C	-2.7492819125	-1.2372912884	-1.559429011	 0.1213
O	-2.3634592455	-2.4417224693	-1.0736868533	-0.222831
C	-1.4095542542	-2.1464554983	-0.0102143956	-0.104248
C	-0.1490304951	-2.8202716541	-0.2833179815	 0.356293
C	 0.8914994459	-3.3871595447	-0.4817804681	-0.468795
H	 0.9301382778	 2.0466754276	-0.1682110901	 0.109939
H	-0.7338914023	 2.0241828898	-0.7846296005	 0.142018
H	-0.4304550556	 1.918433247	 0.9541666443	 0.110192
H	 0.4096718576	-0.212465331	-1.1123490373	 0.109581
H	 0.6723807137	-0.3268046747	 0.6196297015	 0.102869
H	-1.8065838224	-0.2305249086	 0.9798864306	 0.091657
H	-3.4496979789	-1.29900739	-2.3852644079	 0.144937
H	-1.8384592201	-2.5463035564	 0.9138524228	 0.123885
H	 1.8112618979	-3.8868259466	-0.6630577631	 0.207101
35.8698	105.5567	130.76	199.2721	215.0343	254.1919	348.813	375.9002	487.5451	538.6214	587.1195	627.122	675.9228	757.7758	791.0226	808.9828	870.7063	915.3991	951.7181	963.0372	987.2307	1044.5416	1083.2334	1123.325	1126.6721	1150.9539	1270.3593	1282.0475	1306.6314	1333.2281	1345.3528	1362.5762	1393.5822	1409.6474	1478.9515	1495.851	1509.7152	1714.7559	2238.6461	3022.8606	3036.2012	3039.5285	3058.4635	3078.2858	3102.0592	3127.7117	3213.6913	3501.3374
CCC1N=COC1C#C	CC[C@H]1N=CO[C@H]1C#C	
InChI=1S/C7H9NO/c1-3-6-7(4-2)9-5-8-6/h2,5-7H,3H2,1H3	InChI=1S/C7H9NO/c1-3-6-7(4-2)9-5-8-6/h2,5-7H,3H2,1H3/t6-,7+/m1/s1
