21
gdb 91421	2.5739	1.65906	1.31246	2.464	76.88	-0.2417	0.0762	0.318	1057.925	0.184932	-424.223113	-424.215263	-424.214319	-424.254977	32.211	
C	 0.02223403	 1.6012803938	-0.0245989599	-0.401091
C	 0.0200254788	 0.0723890536	-0.0057808617	-0.008824
C	 0.6432174192	-0.5433573767	-1.2872687988	-0.220798
C	 1.107986178	-1.9715840112	-1.0079116581	 0.08998
C	 0.198407974	-2.7016594302	 0.0055581705	-0.263274
C	 1.0967458506	-1.9692413185	 1.0185474045	 0.05329
O	 2.1580728011	-1.9061215467	 0.0130025659	-0.310801
C	 0.6958185734	-0.5070919862	 1.2724576174	 0.136109
O	 1.8587586423	 0.2026224864	 1.6655432692	-0.436806
H	 1.0440339742	 1.9886685398	-0.0105804422	 0.126054
H	-0.4816504355	 1.9795957602	-0.9204522363	 0.103814
H	-0.4943915065	 2.0082278349	 0.8509750706	 0.112019
H	-1.0264019441	-0.2560702427	 0.0332533102	 0.073634
H	-0.0816301531	-0.5209736044	-2.1099296022	 0.096799
H	 1.5154069139	 0.0355272353	-1.6147972537	 0.106769
H	 1.4460706632	-2.5060715818	-1.8992464166	 0.079636
H	-0.8745541039	-2.5039620741	-0.0009583108	 0.105265
H	 0.3837482099	-3.7767105672	 0.0123944608	 0.112837
H	 1.4263549558	-2.4778090638	 1.9277220811	 0.084016
H	-0.0038522233	-0.4335015756	 2.11351507	 0.075747
H	 2.5548051922	-0.108469355	 1.0688829801	 0.285624
120.2218	223.2354	230.7109	269.2668	339.7691	366.5979	400.21	446.9692	529.0661	562.5823	583.8643	677.7928	754.7546	833.4591	849.5663	872.2316	900.8985	929.8316	943.5091	967.0483	994.8982	1020.7911	1053.3126	1069.3367	1093.4098	1101.781	1141.2307	1179.2298	1201.691	1228.922	1246.9448	1275.6359	1307.3448	1319.4258	1327.6542	1344.6288	1360.4523	1362.7863	1393.4938	1411.6285	1441.2697	1478.6661	1492.2913	1498.1563	1500.0487	3013.3758	3026.6323	3035.4259	3043.0203	3068.9865	3076.0533	3081.953	3090.8971	3098.0602	3121.9889	3139.7606	3732.8215
CC1CC2CC(O2)C1O	C[C@H]1C[C@@H]2C[C@@H](O2)[C@H]1O	
InChI=1S/C7H12O2/c1-4-2-5-3-6(9-5)7(4)8/h4-8H,2-3H2,1H3	InChI=1S/C7H12O2/c1-4-2-5-3-6(9-5)7(4)8/h4-8H,2-3H2,1H3/t4-,5+,6+,7-/m0/s1
