13
gdb 127696	3.33524	1.55068	1.06562	3.4394	66.81	-0.2838	-0.098	0.1858	1036.6379	0.088954	-486.06067	-486.052857	-486.051913	-486.09411	27.284	
C	 0.2135433146	 1.4176458817	-0.049898995	-0.320628
N	-0.0589747707	-0.0146912896	 0.0157728438	-0.109985
N	-0.2997264392	-0.6382953819	-1.1666292439	-0.036256
N	-0.5416657576	-1.8688749419	-1.1913439339	-0.2392
C	-0.567017729	-2.6224070814	 0.0047914333	 0.473279
N	-0.8039076433	-3.8568247768	 0.0538042898	-0.474759
O	-0.3197190805	-1.9768997234	 1.2028677511	-0.220315
C	-0.0562174011	-0.6493202237	 1.2530569917	 0.523596
O	 0.1587499008	-0.0832137905	 2.2830200405	-0.343587
H	 1.2072283448	 1.6310330721	 0.349529204	 0.163519
H	 0.1573724369	 1.7030057785	-1.0994185598	 0.164983
H	-0.5261808721	 1.9687437322	 0.5344200518	 0.16373
H	-0.9670670236	-4.1982157552	-0.8928965432	 0.255624
40.2883	111.5886	136.8466	199.1393	314.1063	389.9399	434.9968	503.667	558.3919	592.7707	718.2175	753.3889	759.3836	841.4807	894.2424	961.7474	987.8416	1086.4466	1154.0824	1158.6246	1250.8274	1305.5293	1364.2663	1448.5667	1476.8985	1509.2526	1582.0992	1739.214	1876.2384	3065.625	3137.1194	3177.1143	3516.4435
CN1N=NC(=N)OC1=O	Cn1nnc([NH])oc1=O	
InChI=1S/C3H4N4O2/c1-7-3(8)9-2(4)5-6-7/h4H,1H3	InChI=1S/C3H7N4O2/c1-7-3(8)9-2(4)5-6-7/h2,4-6H,1H3
