21
gdb 60034	2.7226	0.94526	0.82596	5.3867	82.81	-0.2405	-0.0179	0.2227	1494.7922	0.180586	-420.432239	-420.421657	-420.420712	-420.468703	37.235	
C	-0.1512141453	 1.5220164342	-0.0711719703	-0.393572
C	-0.0085416649	-0.0020317482	 0.0084604662	 0.036696
C	 0.7210667114	-0.5630920184	-1.2188340088	-0.389518
C	 0.72135746	-0.4469728356	 1.2900910755	-0.202392
N	 0.0382785998	-0.0845185357	 2.534662995	-0.053338
C	-1.0763398363	-0.8553049973	 2.8900896341	 0.088864
N	-1.8722462244	-0.5844788329	 3.8378282759	-0.415548
C	 0.5438217495	 0.9686567815	 3.297397734	 0.161075
O	 0.1046665586	 1.3906793112	 4.3317465613	-0.275428
H	 0.8319260295	 2.0059443706	-0.1184548326	 0.113819
H	-0.7051315446	 1.8118877775	-0.9692201357	 0.120439
H	-0.6856749589	 1.9255599534	 0.793449017	 0.136415
H	-1.0165299676	-0.4392944886	 0.0366907298	 0.082464
H	 1.7387345148	-0.1606759813	-1.2888802046	 0.118271
H	 0.7960051251	-1.6552005813	-1.1807407671	 0.11388
H	 0.1967886968	-0.2953353035	-2.1408474665	 0.121706
H	 0.8656262853	-1.5338013855	 1.2748568719	 0.11612
H	 1.7209806311	-0.0008156737	 1.3151522633	 0.120046
H	-1.1597664264	-1.7306703832	 2.2330377038	 0.094006
H	-2.5814844504	-1.314081551	 3.9014356841	 0.22927
H	 1.4532890969	 1.3821577679	 2.8161420536	 0.076724
44.7271	69.0672	87.6485	136.6087	210.7371	231.329	237.9012	246.2624	297.8101	328.5258	395.0073	428.8379	440.7588	513.0558	733.824	819.8022	828.0862	894.7213	916.2621	931.9286	951.471	970.5909	1018.4689	1068.261	1117.3504	1143.5923	1194.262	1195.5948	1225.1836	1271.2784	1330.6364	1371.6185	1394.5144	1403.3071	1415.0673	1427.793	1441.7472	1457.8888	1485.7468	1491.07	1501.2898	1504.6423	1512.0232	1715.3628	1839.5827	2919.1935	3008.983	3023.5583	3026.3235	3031.2869	3036.4591	3081.0301	3091.4904	3098.6203	3106.965	3114.4816	3488.674
CC(C)CN(C=N)C=O	CC(C)CN(C=N)C=O	
InChI=1S/C6H12N2O/c1-6(2)3-8(4-7)5-9/h4-7H,3H2,1-2H3	InChI=1S/C6H12N2O/c1-6(2)3-8(4-7)5-9/h4-7H,3H2,1-2H3
