16
gdb 45512	4.4275	1.27495	1.03174	2.7388	73.22	-0.2252	0.0008	0.226	1100.0288	0.126705	-437.928175	-437.921194	-437.92025	-437.959646	27.447	
O	 0.0357344356	-0.0137688844	-0.2259939362	-0.344458
C	-0.0336593232	 1.1779368176	-0.0771749036	 0.390424
C	-1.300876588	 2.0550064311	 0.042011179	-0.377559
C	-0.7508409323	 3.4682971345	-0.1733122824	 0.084916
O	-1.267677524	 4.5406202979	 0.5841460745	-0.277711
C	-0.146400089	 5.3594838905	 0.968606328	-0.108909
C	 1.0609112756	 4.436431652	 0.9331096284	-0.291059
C	 0.6746855598	 3.3350718115	 0.2990459676	 0.387807
N	 1.0688010859	 2.0317601601	 0.0658631702	-0.422427
H	-2.0683490337	 1.7275491215	-0.6590360002	 0.135547
H	-1.6861063452	 1.9468380728	 1.0625177848	 0.147214
H	-0.7760553411	 3.7066054104	-1.2519295108	 0.087713
H	-0.0534257791	 6.2175072998	 0.2817338375	 0.102596
H	-0.3452808695	 5.7577201762	 1.9705755265	 0.11799
H	 2.0049660759	 4.6569874756	 1.4094477557	 0.103632
H	 1.9919628225	 1.6540231529	 0.2137188809	 0.264283
111.2337	160.7908	272.1895	328.0308	414.9832	506.56	514.5785	546.2555	615.7209	658.3607	703.6991	768.7938	781.9098	836.2748	852.427	934.5281	973.0288	1004.4955	1038.089	1062.5792	1124.7569	1154.355	1196.3486	1201.8577	1222.8986	1244.3966	1290.0269	1325.1992	1367.7854	1380.3675	1394.0898	1462.9405	1518.265	1766.7958	1859.1905	2937.097	2960.9887	3048.7221	3060.2152	3141.4612	3237.7107	3636.921
O=C1CC2OCC=C2N1	O=C1C[C@H]2OCC=C2N1	
InChI=1S/C6H7NO2/c8-6-3-5-4(7-6)1-2-9-5/h1,5H,2-3H2,(H,7,8)	InChI=1S/C6H7NO2/c8-6-3-5-4(7-6)1-2-9-5/h1,5H,2-3H2,(H,7,8)/t5-/m1/s1
