18
gdb 88817	2.8439	1.44188	1.05555	4.1473	74.12	-0.2417	0.02	0.2617	1141.078	0.148269	-439.088264	-439.080119	-439.079175	-439.121292	30.898	
O	-0.1704103265	 0.9776249459	 1.5365082805	-0.431226
C	-0.0186559914	 0.0572081597	 0.515064741	 0.119012
C	-0.6137816613	-1.3060885805	 0.7234145746	-0.325489
C	-1.2125590942	-0.3717221643	-0.315295306	-0.044464
N	-2.4714946773	 0.2461422229	-0.0761326243	-0.067
C	-3.8486752575	-0.258664504	-0.2043102306	-0.167293
C	-4.3327505194	 1.1838429309	 0.1125845247	-0.365933
C	-2.8359842456	 1.5392633276	 0.1903878946	 0.427887
O	-2.1827416449	 2.5354364453	 0.412044398	-0.402349
H	-0.6149902445	 1.7637001354	 1.1721024674	 0.306412
H	 0.9247984816	 0.1124865431	-0.029445351	 0.091778
H	-0.0846278705	-2.1862181518	 0.3765585692	 0.116418
H	-1.1756515857	-1.4258556804	 1.6425831003	 0.12813
H	-1.0245127268	-0.6117344927	-1.360602045	 0.100562
H	-4.0906970422	-0.6242107988	-1.2075875619	 0.115887
H	-4.1075593302	-1.0213373194	 0.536228667	 0.120323
H	-4.8716518719	 1.6893376985	-0.6903168596	 0.137687
H	-4.8729742018	 1.3073327326	 1.0524566412	 0.139659
71.4602	123.2513	182.0067	208.4548	267.6175	323.5522	427.2923	509.8274	553.693	564.7715	634.286	715.9587	787.8916	807.2732	820.4764	842.1191	919.4024	965.1837	1020.885	1043.1351	1048.4598	1063.7488	1114.789	1131.0418	1149.5657	1157.9848	1174.757	1185.7498	1228.8045	1234.3465	1290.2506	1378.0797	1399.9831	1433.18	1437.979	1463.7831	1477.3923	1526.6787	1834.4584	3043.5128	3089.2995	3090.7745	3091.8059	3110.0637	3141.6074	3149.0211	3236.8946	3609.8505
OC1CC1N1CCC1=O	O[C@H]1C[C@H]1N1CCC1=O	
InChI=1S/C6H9NO2/c8-5-3-4(5)7-2-1-6(7)9/h4-5,8H,1-3H2	InChI=1S/C6H9NO2/c8-5-3-4(5)7-2-1-6(7)9/h4-5,8H,1-3H2/t4-,5+/m1/s1
