20
gdb 18116	4.07651	1.84879	1.36624	0.3341	80.68	-0.2222	0.028	0.2501	948.1738	0.180625	-311.900317	-311.893418	-311.892474	-311.931335	27.732	
C	-0.0401706319	 1.5211477011	 0.037806648	-0.201619
C	 1.4361648792	 1.9919805106	-0.0021059597	-0.231541
C	 2.1092226928	 0.9330942433	-0.8918874116	-0.025719
C	 3.6020498488	 0.5746610476	-0.7573526461	-0.243826
C	 3.6337157202	-0.977647224	-0.8790260951	-0.242131
C	 2.2404753691	-1.3809305292	-0.4293919402	-0.24445
C	 1.4122337406	-0.3399110983	-0.4551077034	 0.389068
C	 0.0102690488	-0.0397556637	 0.0084977779	-0.336666
H	-0.5831440177	 1.907384533	 0.9046378883	 0.095816
H	-0.5631602113	 1.8881879015	-0.852392546	 0.100191
H	 1.5381532717	 3.0182746543	-0.3671552896	 0.090449
H	 1.8723115455	 1.952705013	 1.0042462756	 0.094709
H	 1.8611302301	 1.1532818603	-1.9432703444	 0.06863
H	 4.2422887349	 1.072827574	-1.4906510599	 0.089724
H	 3.9565567394	 0.863754002	 0.2391494718	 0.09755
H	 3.8291018865	-1.2955624158	-1.9140656706	 0.099703
H	 4.4240903732	-1.4290648499	-0.2683301084	 0.096719
H	 1.99072072	-2.3925829825	-0.1272783932	 0.082005
H	-0.1763742399	-0.4708155897	 0.9982343336	 0.112456
H	-0.7568962401	-0.4510623378	-0.6572542371	 0.108934
96.7866	181.4231	234.542	332.4446	384.0847	552.4933	571.4483	607.4925	668.7687	782.6299	817.3182	835.6402	862.3925	897.8167	905.6296	916.3911	962.8024	981.6887	988.9864	1008.6826	1066.7079	1092.015	1130.5588	1165.9674	1175.335	1207.3533	1220.227	1233.8352	1264.7745	1288.5936	1299.9008	1310.3641	1321.3101	1338.4753	1357.014	1364.0682	1475.9438	1483.0528	1490.5246	1499.4251	1504.4102	1733.1404	2962.8984	2995.7456	3026.4664	3033.5076	3034.9969	3043.2677	3053.9947	3064.6919	3083.8252	3092.1681	3096.7669	3184.2035
C1CC2CCC=C2C1	C1C[C@H]2CCC=C2C1	
InChI=1S/C8H12/c1-3-7-5-2-6-8(7)4-1/h3,8H,1-2,4-6H2	InChI=1S/C8H12/c1-3-7-5-2-6-8(7)4-1/h3,8H,1-2,4-6H2/t8-/m1/s1
