19
gdb 110789	2.46886	1.36772	1.17228	2.2434	74.73	-0.2389	-0.0151	0.2238	1130.6381	0.159553	-423.037806	-423.029364	-423.02842	-423.071394	32.034	
O	-0.2324619296	 1.4367724913	-0.4087796363	-0.417829
C	-0.0891484089	 0.1911211348	 0.2654900773	-0.12376
C	-1.3895667806	-0.5578049855	 0.1208251486	-0.004164
C	-1.8315484131	-1.1682660386	-1.188453694	-0.055152
C	-0.7893644357	-1.3691906113	-2.2705098877	-0.329637
C	 0.2653606012	-2.3154113141	-1.6731823929	 0.380228
O	 1.3311721006	-2.5776818432	-2.1659049199	-0.313636
C	-0.2593896531	-2.8761263035	-0.3384548039	-0.333412
C	-1.493712985	-2.0636483489	-0.0006900288	-0.08651
H	 0.5789356396	 1.9386520407	-0.2831718735	 0.287921
H	 0.7538103855	-0.3794472833	-0.1496741807	 0.101902
H	 0.127759737	 0.3418593996	 1.3349323963	 0.091858
H	-2.1978705733	-0.1013019855	 0.6857394015	 0.093372
H	-2.8615588965	-1.0196540455	-1.4897266846	 0.08889
H	-1.2184442818	-1.8509487547	-3.1574392301	 0.126832
H	-0.3086031629	-0.4453344024	-2.6062628963	 0.144516
H	-0.5232948809	-3.9295595171	-0.4980614097	 0.13126
H	 0.537988014	-2.8645448156	 0.4110457402	 0.128543
H	-2.2837695565	-2.5519047974	 0.5579759445	 0.088776
61.2937	83.0258	152.3068	231.5078	295.201	305.6687	448.5365	461.4766	493.3663	503.8828	628.1022	684.6852	758.4494	774.087	798.7288	828.5414	890.8632	949.5454	990.6259	1018.6916	1042.1647	1060.1648	1067.7654	1109.6768	1117.751	1146.8733	1164.5286	1206.2034	1212.3583	1251.3878	1280.5862	1282.2028	1291.2242	1351.8204	1364.9674	1427.2979	1447.1169	1457.2522	1476.0083	1521.4278	1843.2286	2975.7919	3010.8061	3035.3111	3043.0372	3083.0837	3091.6367	3144.0291	3169.5188	3181.1953	3820.7831
OCC1C2CC(=O)CC12	OC[C@H]1[C@H]2CC(=O)C[C@@H]12	
InChI=1S/C7H10O2/c8-3-7-5-1-4(9)2-6(5)7/h5-8H,1-3H2	InChI=1S/C7H10O2/c8-3-7-5-1-4(9)2-6(5)7/h5-8H,1-3H2/t5-,6+,7-
