20
gdb 117970	3.36542	0.86979	0.73214	3.8824	74.2	-0.2339	0.0136	0.2475	1577.8141	0.16835	-477.406903	-477.396246	-477.395302	-477.4436	37.061	
C	-0.2577385459	 0.8442069004	 0.1230189293	-0.238252
O	 0.8264638936	-0.0557509386	 0.2736448341	-0.24005
C	 1.2253852207	-0.7185238705	-0.9006119596	-0.076908
C	 0.3459349241	-1.9426882548	-1.2369039513	 0.056392
O	-0.9492162268	-1.5605923493	-1.6302739352	-0.438966
C	 0.9973498046	-2.7781065886	-2.3259744206	 0.392187
N	 0.4257360306	-2.8755059455	-3.4539641957	-0.561749
O	 2.1633281767	-3.314452158	-1.9091890186	-0.222319
C	 2.897425826	-4.1029623188	-2.8390586499	-0.267895
H	-0.057485618	 1.5761155352	-0.674923414	 0.09827
H	-1.1958018392	 0.3299743178	-0.1077343325	 0.1376
H	-0.3528822583	 1.3775490152	 1.0726824546	 0.116315
H	 1.2188357262	-0.0366323184	-1.7665692394	 0.088428
H	 2.2511565291	-1.0595456839	-0.727367491	 0.109436
H	 0.2879396314	-2.5568788516	-0.3261432754	 0.102805
H	-1.026277135	-1.8299212321	-2.5605840551	 0.294277
H	 0.9156870658	-3.4463586978	-4.1371214837	 0.227214
H	 2.3196089853	-4.9782515244	-3.1578293209	 0.136861
H	 3.1837181379	-3.5147204392	-3.7185678038	 0.136076
H	 3.7942346409	-4.4321174271	-2.3141605913	 0.15028
46.8291	63.3208	103.4663	110.054	177.3318	211.5125	213.2276	253.8476	333.2002	371.7181	384.0743	414.8172	448.7586	516.625	631.422	712.7506	841.0992	901.3943	919.6467	962.3998	997.1858	1074.6781	1113.2559	1144.9769	1167.4187	1175.9327	1185.6123	1219.3412	1222.1625	1242.3243	1304.325	1339.4801	1370.6692	1396.8664	1456.3022	1470.1676	1477.5617	1483.6762	1491.1177	1492.6104	1505.0087	1516.1669	1729.5776	2975.2655	2987.4712	3008.3014	3021.5002	3075.6912	3082.0755	3087.8943	3117.1308	3151.9591	3534.389	3661.3869
COCC(O)C(=N)OC	COC[C@@H](O)C(=N)OC	
InChI=1S/C5H11NO3/c1-8-3-4(7)5(6)9-2/h4,6-7H,3H2,1-2H3	InChI=1S/C5H11NO3/c1-8-3-4(7)5(6)9-2/h4,6-7H,3H2,1-2H3/t4-/m1/s1
