20
gdb 65351	3.14738	0.95778	0.91779	1.0336	87.63	-0.2322	0.0395	0.2717	1396.6159	0.169076	-365.942615	-365.933026	-365.932081	-365.977257	36.085	
C	-0.0855717441	 1.56937341	-0.100347895	-0.454937
C	-0.0309238234	 0.0594384037	 0.0421854683	 0.126391
N	 1.3054857727	-0.561572931	-0.1592207616	-0.375669
C	 0.6962034608	-0.6176730259	 1.1747337705	-0.055689
C	 1.3742053668	 0.1120003856	 2.2868563511	 0.027494
C	 0.7428719647	 0.1301115764	 3.6585572513	-0.268849
C	 1.9939743837	-0.6742219378	 3.4190008066	-0.272899
C	-1.1728668118	-0.6423839355	-0.4911513968	 0.277878
C	-2.1219121313	-1.2189627281	-0.9553459878	-0.455431
H	 0.8348078627	 2.0247428869	 0.2680518057	 0.128597
H	-0.2036165535	 1.84411704	-1.1527004602	 0.128962
H	-0.9332193398	 1.9795108175	 0.4567837794	 0.126223
H	 1.20456123	-1.4525554124	-0.6386544504	 0.236929
H	 0.2603933321	-1.5693198439	 1.4783597567	 0.086431
H	 1.9078227835	 1.0049885691	 1.9820255859	 0.092728
H	 0.8145829081	 1.040564263	 4.2428024219	 0.114513
H	-0.1890909648	-0.4095442871	 3.7922942325	 0.114888
H	 1.9049488507	-1.7553986806	 3.3915179091	 0.111979
H	 2.9287194784	-0.3165382949	 3.8356178909	 0.115212
H	-2.9608722255	-1.7295617551	-1.3588423782	 0.19525
56.4147	102.6837	125.6433	162.5586	203.4062	257.293	305.6263	358.186	417.4384	458.2984	547.7496	571.415	596.2399	651.1067	686.8792	762.3934	804.8753	828.9801	871.8588	902.4184	923.4288	967.5928	1011.6769	1056.4978	1062.5823	1077.8977	1081.6162	1100.8088	1126.6909	1143.1019	1197.5047	1224.2612	1251.4482	1286.2365	1329.8225	1340.6555	1413.5564	1468.2279	1470.4308	1484.0919	1496.1595	1508.3307	2228.322	3047.3717	3107.4369	3112.6257	3130.932	3135.3754	3141.4519	3173.8604	3209.5443	3225.0652	3502.384	3507.376
CC1(NC1C1CC1)C#C	C[C@]1(N[C@H]1C1CC1)C#C	
InChI=1S/C8H11N/c1-3-8(2)7(9-8)6-4-5-6/h1,6-7,9H,4-5H2,2H3	InChI=1S/C8H11N/c1-3-8(2)7(9-8)6-4-5-6/h1,6-7,9H,4-5H2,2H3/t7-,8-/m0/s1
