18
gdb 32818	3.35702	1.09492	0.83931	1.321	75.41	-0.2262	0.0117	0.238	1356.7659	0.146957	-439.112372	-439.103133	-439.102189	-439.147789	31.99	
C	 0.4630057016	 1.4652191517	-0.0948457288	-0.225987
O	 0.7540287298	 0.0876731517	-0.0701279511	-0.231102
C	 0.0904006253	-0.6252986752	-1.0888069426	-0.162749
C	 0.449705674	-2.0756594739	-1.0356926116	 0.133546
C	 1.3737533615	-2.7534971595	-0.3049386682	 0.276211
C	 2.3924461181	-2.4145159465	 0.7201692562	-0.501552
O	 1.2745293219	-4.0805466815	-0.6680495318	-0.178578
C	 0.2976510118	-4.1138048769	-1.5973629553	 0.061305
N	-0.2330191895	-2.9683026651	-1.8625225038	-0.313104
H	 0.7745505158	 1.9303837212	-1.0431887717	 0.108662
H	-0.6127438909	 1.6552817173	 0.0436490257	 0.109471
H	 1.0135646397	 1.9304266101	 0.7259321509	 0.128845
H	-1.0036741737	-0.5223272667	-0.990272657	 0.110109
H	 0.3505111659	-0.21512479	-2.0808486021	 0.106607
H	 2.1997576991	-2.9437672333	 1.6603831176	 0.134716
H	 3.3976132156	-2.696287137	 0.3862437039	 0.133417
H	 2.3670144659	-1.342159534	 0.9071164339	 0.164572
H	 0.0576814779	-5.0772130924	-2.0194926241	 0.145612
28.4214	79.836	130.4979	146.7799	224.6834	232.7477	285.6135	306.4357	361.427	427.956	644.6148	681.5643	687.9013	764.762	834.8611	956.7856	970.4784	1002.3661	1046.4226	1071.8338	1118.6906	1154.1363	1174.8341	1185.8786	1204.5152	1235.721	1249.0769	1295.4524	1347.9832	1415.1626	1434.7415	1481.5675	1484.0869	1485.3129	1487.1866	1501.5538	1523.4296	1566.7954	1685.0851	2946.5162	2970.3071	2975.7234	3019.9949	3032.8363	3080.2773	3118.9015	3171.4596	3273.2996
COCC1=C(C)OC=N1	COCc1c(C)ocn1	
InChI=1S/C6H9NO2/c1-5-6(3-8-2)7-4-9-5/h4H,3H2,1-2H3	InChI=1S/C6H9NO2/c1-5-6(3-8-2)7-4-9-5/h4H,3H2,1-2H3
