18
gdb 29195	2.97899	1.3696	0.94924	3.8831	86.01	-0.2039	-0.0371	0.1668	1227.897	0.147886	-401.996761	-401.988265	-401.987321	-402.029636	32.391	
C	-0.0343742719	 1.5306746551	-0.0298010489	-0.497072
C	-0.008595973	 0.0265876574	 0.00313285	 0.129998
C	-0.0290473683	-0.6874957493	-1.1368276567	 0.004573
O	-0.0085454008	-2.0367568245	-1.2008095379	-0.242193
C	 0.0371288614	-2.8123217817	-0.0402358515	 0.375179
N	 0.0559362087	-4.0815188155	-0.1154516546	-0.544411
C	 0.0600595784	-2.0731536435	 1.2030483747	-0.23858
C	 0.0391381066	-0.7214816935	 1.2534199131	 0.247634
C	 0.0640398742	 0.0142743929	 2.5644910432	-0.491416
H	 0.8530793883	 1.9641220517	 0.4459599531	 0.131674
H	-0.0696921166	 1.896587654	-1.0594873071	 0.126638
H	-0.9071868492	 1.9350489806	 0.4960072303	 0.131671
H	-0.0643351693	-0.2491317324	-2.1277556427	 0.126863
H	 0.0333508985	-4.3832481384	-1.089756454	 0.216871
H	 0.0954488913	-2.6788017797	 2.1003831176	 0.11555
H	 0.099494749	-0.681809362	 3.4050378005	 0.133664
H	 0.9344707138	 0.6773393913	 2.6315519731	 0.136675
H	-0.8228402813	 0.6479844675	 2.6813806579	 0.136681
94.593	157.1584	201.5901	220.0496	286.1155	301.5008	328.8148	401.9648	430.1408	514.077	553.944	607.5156	718.0574	733.0211	756.5874	835.2851	848.4616	881.2752	900.9372	1020.8624	1025.3253	1056.5966	1073.2302	1096.7617	1159.7608	1188.3594	1247.5935	1306.5045	1356.4703	1408.2582	1425.8011	1432.208	1473.2615	1482.0461	1489.6584	1501.9371	1613.1115	1692.7628	1741.7053	3025.244	3030.7177	3074.3158	3080.8903	3111.6819	3127.2363	3201.8215	3209.7182	3489.4443
CC1=COC(=N)C=C1C	CC1=COC(=C[C@@H]1C)[NH]	
InChI=1S/C7H9NO/c1-5-3-7(8)9-4-6(5)2/h3-4,8H,1-2H3	InChI=1S/C7H10NO/c1-5-3-7(8)9-4-6(5)2/h3-5,8H,1-2H3/t5-/m0/s1
