21
gdb 62930	2.67436	1.59098	1.49371	2.5367	77.49	-0.238	0.0655	0.3035	1017.7916	0.183774	-424.217093	-424.208926	-424.207981	-424.248994	33.264	
C	-0.0967427983	 1.5055425863	-0.0247335975	-0.475028
C	 0.0042899126	-0.0161166142	-0.0095725911	 0.447594
O	-1.2779041724	-0.5859007602	-0.2071953287	-0.476053
C	 1.1942218116	-0.599569505	-0.8439576476	-0.115459
C	 2.07460803	-0.4275600887	 0.4263864171	-0.240415
C	 0.7473953039	-0.6108562863	 1.2175365573	-0.088106
C	 0.4510078784	-2.1153334551	 1.2986908278	-0.071995
O	 0.9763770722	-2.8127938085	 0.1731656759	-0.269201
C	 0.9507602997	-2.0991599448	-1.0573934969	-0.060269
H	 0.8623502954	 1.9920192876	 0.1671489505	 0.124244
H	-0.4485561925	 1.855117594	-1.0044550675	 0.105099
H	-0.8120844884	 1.8411804066	 0.732942333	 0.124466
H	-1.706523839	-0.1267471674	-0.9368743602	 0.276675
H	 1.4750501655	-0.1001289672	-1.7762925173	 0.054587
H	 2.8487940545	-1.1785302116	 0.5914345568	 0.111152
H	 2.5015633182	 0.5707909496	 0.5238610752	 0.097176
H	 0.6122864214	-0.1242769498	 2.1876700035	 0.060645
H	 0.947420283	-2.5513976627	 2.1729995454	 0.097233
H	-0.6300213999	-2.2798911914	 1.394688148	 0.110413
H	-0.0060741232	-2.2496387142	-1.5774512223	 0.089932
H	 1.748878337	-2.534922197	-1.6688853216	 0.09731
169.0322	216.7911	231.429	253.7145	290.2254	294.645	380.3976	417.439	440.6564	505.2783	581.4911	606.9965	700.8858	827.3016	841.9349	849.0684	861.6252	920.7764	953.6329	975.5797	997.829	1011.8006	1056.9261	1061.5002	1087.3237	1108.7095	1144.717	1168.9315	1185.2891	1215.1287	1238.6132	1249.1162	1275.9164	1299.251	1303.9135	1322.9388	1373.8938	1385.9587	1410.1541	1421.0569	1488.3909	1493.9139	1498.2593	1498.8302	1512.5809	3001.0791	3019.0501	3020.1376	3054.9655	3061.0956	3064.1996	3069.3903	3085.0633	3088.8332	3123.0914	3140.0022	3810.6759
CC1(O)C2CC1COC2	C[C@@]1(O)[C@H]2C[C@@H]1COC2	
InChI=1S/C7H12O2/c1-7(8)5-2-6(7)4-9-3-5/h5-6,8H,2-4H2,1H3	InChI=1S/C7H12O2/c1-7(8)5-2-6(7)4-9-3-5/h5-6,8H,2-4H2,1H3/t5-,6+,7+
