13
gdb 25279	3.44397	1.75237	1.17	3.0721	64.49	-0.2516	-0.0338	0.2178	943.1598	0.092964	-452.817616	-452.811381	-452.810437	-452.848501	23.459	
O	-0.0233254041	-0.0503168305	 0.0031103058	-0.3601
C	-0.012892642	 1.1399838063	 0.0090727957	 0.53944
O	-1.1105154902	 1.9403857016	 0.029027947	-0.256442
C	-0.7567304335	 3.3477561719	 0.0312135189	-0.202449
C	 0.7385979563	 3.3259038294	 0.0094338689	 0.273575
C	 1.9044130492	 4.0312647493	-0.0039477494	-0.213626
N	 2.9784250639	 3.1490301314	-0.0239922206	-0.266724
C	 2.473763769	 1.9418299821	-0.0227944735	 0.017108
N	 1.1021555887	 1.9992376128	-0.002561192	-0.136478
H	-1.2105409389	 3.8120993694	-0.8495146698	 0.155726
H	-1.18474488	 3.802842207	 0.929517275	 0.155723
H	 2.0590718984	 5.0984753465	-0.0008041047	 0.128733
H	 3.0141868532	 1.0088605328	-0.0353650113	 0.165514
141.7108	189.353	241.9091	315.7525	572.4578	633.3088	652.4702	663.3215	681.9368	767.9577	789.8968	823.0906	847.6918	958.0553	1018.99	1031.6379	1075.7902	1116.0903	1177.9359	1193.0637	1234.6868	1270.2387	1359.5175	1403.4239	1421.5125	1497.3566	1509.2957	1614.0149	1916.5366	3053.9271	3093.1939	3264.2329	3276.2117
O=C1OCC2=CN=CN12	O=C1OCc2cncn12	
InChI=1S/C5H4N2O2/c8-5-7-3-6-1-4(7)2-9-5/h1,3H,2H2	InChI=1S/C5H4N2O2/c8-5-7-3-6-1-4(7)2-9-5/h1,3H,2H2
