13
gdb 130468	4.11673	1.65637	1.18114	3.1158	73.31	-0.239	-0.0796	0.1594	936.0919	0.093114	-415.629119	-415.623367	-415.622423	-415.659203	22.98	
O	-0.0312363583	 1.2702625847	 0.0093891928	-0.141845
C	 1.2125303401	 1.7581357559	-0.0000532864	-0.037799
C	 2.1117166321	 0.7205133716	-0.0144897729	 0.14177
C	 3.5182160455	 0.5279823328	-0.0292412352	-0.25473
C	 3.9616103673	-0.7634927721	-0.0406360668	 0.003916
N	 3.1522942565	-1.8797769061	-0.0388727179	-0.267966
C	 1.8575541568	-1.7325863389	-0.0254600669	-0.04608
C	 1.2602834518	-0.4338025485	-0.0125244908	 0.300495
N	-0.0258220025	-0.1124607558	 0.0017776426	-0.233435
H	 1.2979195354	 2.832984374	 0.0049974975	 0.168206
H	 4.2125776519	 1.3598916022	-0.031445592	 0.113257
H	 5.0252604637	-0.9786091368	-0.0521754014	 0.118192
H	 1.2344157697	-2.623655673	-0.0242644827	 0.136019
213.2067	247.6381	404.6372	447.8477	554.9896	589.5227	621.659	623.9869	770.5521	786.0002	818.6023	836.4292	914.0456	929.3102	949.584	958.5712	982.406	1032.9601	1150.5026	1210.587	1264.6506	1290.0282	1352.548	1404.4981	1426.8737	1489.3145	1529.5282	1581.4347	1669.7289	3162.3222	3180.3565	3205.1797	3272.8453
O1C=C2C=CN=CC2=N1	o1cc2ccncc2n1	
InChI=1S/C6H4N2O/c1-2-7-3-6-5(1)4-9-8-6/h1-4H	InChI=1S/C6H4N2O/c1-2-7-3-6-5(1)4-9-8-6/h1-4H
