19
gdb 52947	3.22076	0.94433	0.85735	1.7395	87.8	-0.2172	0.0399	0.2571	1451.8122	0.156827	-385.83543	-385.825742	-385.824797	-385.871885	34.712	
C	-0.0019193794	 1.5033168607	 0.049737252	-0.508954
C	-0.0005692143	 0.0482176373	 0.0329622669	 0.232826
C	-0.0001458032	-1.1582437227	 0.0218647531	-0.18756
C	 0.0093736334	-2.5774029488	-0.0077369713	 0.062484
C	-0.2848855293	-3.4682249618	 1.2014574959	-0.373896
C	-1.1227903912	-3.6198595684	-0.0241403126	 0.416595
C	-2.6076171231	-3.5219000079	-0.1257830504	-0.481686
O	-0.4368644045	-4.4352577682	-0.9802415861	-0.320774
C	 0.6326470338	-3.4618419302	-1.0894072599	-0.133893
H	 0.8145371045	 1.9046582057	-0.5611947225	 0.14961
H	-0.9395282397	 1.9110053516	-0.3453462583	 0.146595
H	 0.12703563	 1.8919077754	 1.0662736815	 0.147642
H	 0.4159760554	-4.2522172364	 1.4775691055	 0.112315
H	-0.7455224951	-2.9396816754	 2.0293868151	 0.123731
H	-2.9864777156	-2.7700137151	 0.5718694516	 0.130919
H	-2.9112278704	-3.2460941867	-1.1398778131	 0.132212
H	-3.0726221204	-4.482937031	 0.1221825194	 0.133827
H	 0.6309435257	-2.9932352249	-2.0789096228	 0.113964
H	 1.6174581235	-3.8956584332	-0.8793603141	 0.104042
11.252	79.3782	99.1794	182.8525	207.7392	243.1669	303.4857	348.3054	389.6193	429.0927	482.4603	515.6516	552.7165	678.5767	754.0186	817.0821	904.2208	936.6374	971.6036	983.8056	998.4153	1050.7754	1053.7856	1066.2651	1074.7732	1107.1632	1139.4504	1159.4919	1221.2789	1314.7863	1343.8024	1398.7041	1416.244	1428.211	1472.3329	1476.1382	1479.2584	1485.7155	1501.4597	1519.8208	2359.2064	3023.0306	3026.2061	3034.9229	3081.135	3082.352	3084.9734	3100.3513	3111.7759	3122.6737	3213.5832
CC#CC12CC1(C)OC2	CC#C[C@@]12C[C@]1(C)OC2	
InChI=1S/C8H10O/c1-3-4-8-5-7(8,2)9-6-8/h5-6H2,1-2H3	InChI=1S/C8H10O/c1-3-4-8-5-7(8,2)9-6-8/h5-6H2,1-2H3/t7-,8-/m0/s1
