18
gdb 31395	3.34394	1.12546	0.89735	3.5778	85.39	-0.2091	-0.0402	0.1689	1313.7329	0.148574	-401.991826	-401.98348	-401.982535	-402.025229	31.443	
C	 0.0965033695	 1.5519121193	-0.1369490915	-0.372227
C	-0.0710836336	 0.0332947664	 0.0485207747	-0.286317
C	 0.657010846	-0.4914009786	 1.2590480273	 0.306495
C	 0.0098560611	-0.9301116868	 2.3633821431	-0.254976
C	 0.7087070395	-1.4157381673	 3.5358990385	 0.383892
N	 0.1311515174	-1.8299481011	 4.5889203188	-0.539891
O	 2.1091080961	-1.4101921593	 3.4596014832	-0.239359
C	 2.7426486113	-0.9763318228	 2.350247921	 0.077753
C	 2.1045113932	-0.5206238065	 1.2616822011	-0.249094
H	 1.1501835371	 1.8296700017	-0.2393891239	 0.122125
H	-0.4284819842	 1.8897075607	-1.0352412115	 0.120675
H	-0.3092576817	 2.0951269381	 0.7216862688	 0.128946
H	-1.1343781769	-0.2123853648	 0.1310342141	 0.112296
H	 0.3057846208	-0.4813377338	-0.8450234787	 0.111846
H	-1.0711933067	-0.9424409917	 2.4313415938	 0.116303
H	 0.816997668	-2.1230005039	 5.2848656649	 0.218412
H	 3.8185222464	-1.0480202282	 2.4562170137	 0.135755
H	 2.6757358468	-0.1918923514	 0.4031098327	 0.107368
59.652	126.149	149.8941	207.234	283.5373	322.835	411.4971	447.0004	504.0426	573.7179	658.6941	719.9984	741.5696	791.4941	794.2305	833.6198	840.1268	905.4254	933.384	965.7061	981.2233	1057.3174	1075.5937	1096.7118	1114.5169	1185.6552	1256.0508	1277.6593	1303.2881	1349.6846	1362.2102	1409.8207	1458.7789	1483.6044	1497.2606	1507.3187	1608.4076	1684.5623	1739.7879	3024.2934	3040.0142	3077.2982	3112.2005	3116.3946	3203.2661	3209.4095	3223.3365	3491.0658
CCC1=CC(=N)OC=C1	CC[C@@H]1C=C([NH])OC=C1	
InChI=1S/C7H9NO/c1-2-6-3-4-9-7(8)5-6/h3-5,8H,2H2,1H3	InChI=1S/C7H10NO/c1-2-6-3-4-9-7(8)5-6/h3-6,8H,2H2,1H3/t6-/m0/s1
