12
gdb 21606	3.4994	2.36568	1.41292	3.3535	64.75	-0.2184	-0.0716	0.1469	792.0501	0.084171	-410.78883	-410.782166	-410.781222	-410.819473	25.403	
N	 0.0474401453	 1.3873175832	 0.0439319319	-0.587915
C	-0.016221167	 0.0175107746	 0.0251746346	 0.20015
C	-1.1382071497	-0.7365919613	 0.0683980815	 0.015916
O	-1.1165648114	-2.0911551068	 0.1071362718	-0.228516
N	 0.1286750077	-2.7739552887	 0.1026040652	 0.045498
N	 1.1724993667	-2.1146895836	 0.0512853362	-0.190578
C	 1.2455804561	-0.6993782336	-0.0052261555	 0.371451
N	 2.3611826981	-0.0808554355	-0.0877351416	-0.531866
H	 0.9495973779	 1.7468535231	-0.2372930725	 0.278704
H	-0.7527138175	 1.9065973793	-0.2802520174	 0.255091
H	-2.1512028269	-0.3519506472	 0.0828189246	 0.137571
H	 3.1332503907	-0.7486141234	-0.1053810988	 0.234492
110.2934	285.4399	303.6161	363.0824	396.3318	458.7566	513.4357	528.6755	554.4668	602.8597	654.9479	779.77	782.8103	832.1252	894.6177	943.6356	1055.4464	1091.704	1183.8747	1291.0831	1340.3361	1458.8083	1586.9468	1618.544	1681.8183	1704.9972	3203.8274	3481.172	3559.5179	3684.0208
NC1=CON=NC1=N	NC1=CO[N]N=C1[NH]	
InChI=1S/C3H4N4O/c4-2-1-8-7-6-3(2)5/h1,5H,4H2	InChI=1S/C3H4N4O/c4-2-1-8-7-6-3(2)5/h1,5H,4H2
