19
gdb 80855	2.24868	1.73391	1.46284	2.8756	70.41	-0.2421	0.0608	0.3029	1002.3643	0.158943	-460.146549	-460.13812	-460.137175	-460.178956	33.267	
C	 0.0198064084	 1.4554467719	 0.0216175526	-0.510965
C	-0.0372438422	-0.042459791	 0.0862345564	 0.344905
O	 0.4472700923	-0.7581593597	-1.1131993801	-0.350151
C	-0.28175477	-1.9005892769	-0.5570604235	 0.021491
C	 0.5193924943	-2.2452351628	 0.7051779748	-0.267555
C	 0.7947362241	-0.7800097577	 1.172994431	 0.142048
O	 2.1542974081	-0.4036958524	 1.1111827988	-0.447642
C	-1.326747051	-0.8750754611	-0.037424616	 0.067491
O	-2.0372976433	-1.0945261323	 1.1508797281	-0.43244
H	 1.0554005145	 1.8008745617	 0.0808011482	 0.136208
H	-0.4298646702	 1.8263704624	-0.9032619417	 0.123476
H	-0.5274497751	 1.8786185432	 0.8703826934	 0.13243
H	-0.5049632003	-2.6760270696	-1.2897863655	 0.076144
H	-0.0644766721	-2.8217107384	 1.4258813219	 0.108291
H	 1.4515617181	-2.7708955102	 0.4873513695	 0.102457
H	 0.4535698509	-0.575315976	 2.1887629456	 0.096912
H	 2.412016792	-0.516588363	 0.1865454688	 0.280007
H	-1.954619468	-0.4999345269	-0.8530929946	 0.084227
H	-2.8633142806	-1.5413732213	 0.9439074723	 0.292666
135.4629	183.4881	225.2682	228.8751	247.9052	273.07	342.3294	423.6411	477.9583	510.2544	594.1271	612.658	628.0988	763.2399	800.3779	840.9178	862.3523	889.1925	895.4506	952.7494	987.95	1004.3344	1060.8331	1103.6678	1127.4985	1141.5886	1151.1715	1191.1549	1232.8281	1255.748	1281.6608	1291.5759	1300.4388	1307.9895	1342.845	1406.9001	1429.6809	1445.8071	1477.1962	1481.8376	1491.1651	3043.6044	3052.2405	3073.7726	3109.2615	3114.8691	3122.2169	3125.7649	3129.7554	3763.581	3831.4449
CC12OC(CC1O)C2O	C[C@@]12O[C@@H](C[C@H]1O)[C@H]2O	
InChI=1S/C6H10O3/c1-6-4(7)2-3(9-6)5(6)8/h3-5,7-8H,2H2,1H3	InChI=1S/C6H10O3/c1-6-4(7)2-3(9-6)5(6)8/h3-5,7-8H,2H2,1H3/t3-,4+,5+,6+/m0/s1
