16
gdb 43309	2.91467	1.85953	1.44182	4.3231	73.66	-0.2374	-0.0576	0.1798	909.0047	0.126416	-400.721544	-400.714972	-400.714028	-400.752453	26.448	
O	 0.0078835983	-0.0470978722	-0.0960056025	-0.324889
C	-0.0348623909	 1.1594090338	-0.0403131686	 0.372097
C	-1.2523516798	 2.0165025834	-0.0265758134	-0.184881
C	-0.9329421333	 3.3158694164	 0.0923542897	-0.065728
C	 0.552216469	 3.5288134579	 0.1455998112	-0.09303
C	 1.2448442562	 3.6314869277	 1.5285392042	-0.03874
C	 0.8893896225	 2.5223843946	 2.4291777652	-0.248556
N	 1.8928056278	 2.2660643729	 1.3757103111	-0.132704
C	 1.1600250492	 2.1208154146	 0.0425782148	-0.096245
H	-2.2494575516	 1.5967880017	-0.0824789958	 0.121128
H	-1.6483476681	 4.1290624515	 0.1637770127	 0.120861
H	 0.9170264598	 4.2740741825	-0.5634330002	 0.096644
H	 1.8181850053	 4.4933382943	 1.8532121597	 0.104294
H	 1.3400831287	 2.530077803	 3.4167100093	 0.130178
H	-0.0899675214	 2.0561143857	 2.386499192	 0.128745
H	 1.8893313482	 1.932996232	-0.7453203094	 0.110825
114.7094	221.3137	263.5073	365.7034	489.3474	499.4835	588.6914	691.2794	706.8451	744.6468	758.5356	796.432	835.6805	872.2069	925.1182	957.1148	968.6758	1003.8348	1012.309	1052.4177	1065.7639	1102.2886	1113.1147	1140.0988	1174.3113	1210.0717	1218.9551	1246.388	1276.5547	1299.8391	1347.7774	1375.0663	1500.8545	1625.2119	1812.224	3095.2885	3116.6878	3124.0719	3166.887	3182.929	3208.8981	3218.925
O=C1C=CC2C3CN3C12	O=C1C=C[C@H]2[C@H]3CN3[C@@H]12	
InChI=1S/C7H7NO/c9-6-2-1-4-5-3-8(5)7(4)6/h1-2,4-5,7H,3H2	InChI=1S/C7H7NO/c9-6-2-1-4-5-3-8(5)7(4)6/h1-2,4-5,7H,3H2/t4-,5+,7+,8?/m0/s1
