15
gdb 50022	3.10119	1.09387	1.0133	2.7836	69.83	-0.2553	-0.0565	0.1989	1193.7416	0.109867	-457.747987	-457.739757	-457.738813	-457.781529	29.523	
O	 0.0116340998	-0.0004242664	-0.3910660923	-0.258603
C	 0.0600944281	 1.1212175933	 0.0465521708	 0.17648
C	 1.275873306	 1.974168107	 0.0047760589	-0.190257
C	 1.0903780857	 3.4865095513	-0.0700238424	-0.365621
C	 1.5512715577	 2.8803492049	 1.2005059213	 0.315646
O	 0.7940877305	 2.8563394224	 2.4078608447	-0.310722
C	 1.9807793767	 2.958956463	 3.2371613178	-0.191053
C	 2.8423862824	 3.0130729773	 1.9627139552	 0.287187
O	 3.99889557	 3.1097639245	 1.6908029115	-0.279152
H	-0.824067948	 1.6027689616	 0.5185279628	 0.088748
H	 2.1404570619	 1.5311259011	-0.4781504073	 0.132903
H	 1.7999628569	 4.0572462346	-0.6583795015	 0.153441
H	 0.0677901286	 3.8521385314	-0.080503096	 0.148106
H	 1.9852755492	 3.8663955095	 3.8500941856	 0.145202
H	 2.1329553645	 2.0755298245	 3.8666307209	 0.147695
75.7238	97.5767	142.7837	176.1543	249.5137	313.5274	417.0269	471.8081	510.1193	572.0977	613.104	726.5426	829.5111	848.0361	864.862	971.0365	995.3969	1013.7228	1021.9219	1033.0886	1064.8881	1076.1429	1137.2588	1159.0832	1203.9817	1261.4566	1305.0529	1375.0183	1441.2815	1458.815	1483.3451	1820.0854	1923.0311	2894.1858	3041.7355	3097.8953	3131.5171	3180.1024	3227.5809
O=CC1CC11OCC1=O	O=C[C@H]1C[C@]21OCC2=O	
InChI=1S/C6H6O3/c7-2-4-1-6(4)5(8)3-9-6/h2,4H,1,3H2	InChI=1S/C6H6O3/c7-2-4-1-6(4)5(8)3-9-6/h2,4H,1,3H2/t4-,6-/m1/s1
