23
gdb 69844	2.16961	2.00404	1.47291	0.2228	88.49	-0.2399	0.0866	0.3266	1041.5329	0.207142	-351.129891	-351.121733	-351.120789	-351.161641	34.347	
C	 0.0213255008	 1.4679880976	 0.0009248411	-0.482759
C	-0.0113827436	-0.0411588764	-0.0172264846	 0.336837
C	-0.626960456	-0.8013734573	 1.1374152241	-0.374297
C	 0.8558405682	-0.9193162651	 0.8663463976	-0.067239
C	 1.3718224303	-1.9359068493	-0.1700769604	-0.043579
C	 0.1227643768	-2.2820534455	-1.019740083	-0.273425
C	 0.1792326084	-0.7696814353	-1.3831120683	 0.287086
C	-0.5486749506	-0.2204750862	-2.59043104	-0.506973
C	 1.7441032934	-0.969049497	-1.3446427671	-0.250346
H	 0.8590860009	 1.8622515794	-0.5866127459	 0.113336
H	-0.8997082738	 1.8996051498	-0.4093731367	 0.114996
H	 0.1312639557	 1.8443836587	 1.0230661667	 0.11138
H	-0.8917425083	-0.1908972648	 1.9963677193	 0.101043
H	-1.3002491844	-1.6374331293	 0.9926549939	 0.107875
H	 1.5613111556	-0.4971597557	 1.574640054	 0.078771
H	 2.0538136486	-2.7111563853	 0.1803849902	 0.056326
H	 0.3857879983	-2.8994821828	-1.8822324348	 0.089965
H	-0.7676600442	-2.6971315715	-0.5457216269	 0.088716
H	-1.63510217	-0.2742507156	-2.4528699507	 0.115718
H	-0.2917611831	 0.8279848419	-2.7765158003	 0.116303
H	-0.298808873	-0.7882160196	-3.4928116205	 0.110515
H	 2.3632906316	-0.0986752169	-1.1078796536	 0.08523
H	 2.1330377983	-1.4822148838	-2.2296277839	 0.084521
178.2483	203.9	221.2723	245.208	292.7857	338.7083	402.9619	457.4323	514.3573	544.9832	584.9665	609.0507	711.7338	788.9331	828.413	834.0434	857.6243	886.3475	912.4392	942.9181	961.9808	977.3569	992.2242	1024.3891	1036.6631	1054.4359	1060.8763	1081.9333	1102.836	1117.5503	1140.9054	1190.2304	1202.4091	1208.688	1230.2256	1258.2215	1284.8924	1292.3404	1324.3883	1376.747	1411.0133	1419.3611	1477.8325	1486.0504	1490.8259	1495.7387	1500.6382	1503.0708	1539.3173	3017.3868	3024.5117	3043.7289	3068.8421	3073.0586	3087.1079	3092.1104	3095.2495	3103.0761	3107.8513	3116.2791	3129.4563	3160.6877	3205.9557
CC12CC1C1CC2(C)C1	C[C@]12C[C@H]1[C@H]1C[C@]2(C)C1	
InChI=1S/C9H14/c1-8-3-6(4-8)7-5-9(7,8)2/h6-7H,3-5H2,1-2H3	InChI=1S/C9H14/c1-8-3-6(4-8)7-5-9(7,8)2/h6-7H,3-5H2,1-2H3/t6-,7-,8+,9-/m0/s1
