21
gdb 95643	2.15027	1.7274	1.02264	3.6368	80.15	-0.2217	0.0314	0.2531	1196.7398	0.184187	-420.442766	-420.433721	-420.432777	-420.47652	34.359	
C	 0.0161309467	 1.5690968332	 0.0080309107	-0.409367
C	 0.0760547767	 0.0378987548	-0.0097548266	-0.046159
N	 0.6871974001	-0.4861186954	-1.2382663605	-0.083345
C	-0.0887541339	-0.1650499005	-2.4281972776	-0.323316
C	 0.933174582	-1.9166977693	-1.1356679028	-0.141207
C	 1.9958812062	-2.1734313121	-0.078741479	-0.161115
N	 1.6044532552	-1.5289040322	 1.1603266663	-0.322477
C	 0.7866767147	-0.4463134079	 1.2705907056	 0.408544
O	 0.5777194308	 0.091371603	 2.3440735061	-0.384393
H	 0.9932746182	 1.9874952629	-0.252052302	 0.121197
H	-0.7266911817	 1.9543003497	-0.6936745583	 0.110347
H	-0.2511434033	 1.8947621332	 1.0136450254	 0.151537
H	-0.960721953	-0.3478136971	 0.0948072585	 0.081145
H	-0.1530708632	 0.9158936248	-2.5654479281	 0.128743
H	 0.4090411128	-0.5830086958	-3.3082860655	 0.1181
H	-1.1192325386	-0.5685508437	-2.3942461275	 0.092923
H	 0.0135427355	-2.4839628584	-0.8878524894	 0.084421
H	 1.2933734632	-2.2859853417	-2.1006050401	 0.10526
H	 2.1013281564	-3.2505383848	 0.0923577508	 0.108978
H	 2.9627473086	-1.7912397655	-0.4347543383	 0.11388
H	 2.0689090066	-1.7832650572	 2.0200609623	 0.246305
56.5411	123.4773	207.8151	216.9344	230.7619	306.2195	344.3297	369.1326	425.9277	450.4789	473.7732	517.8521	580.5615	672.6978	697.3384	790.0499	833.506	907.4482	963.0773	1040.7548	1053.5291	1097.0154	1104.3243	1112.9448	1118.7019	1159.7997	1184.691	1253.3518	1268.6123	1302.2652	1323.6269	1345.628	1371.1287	1396.0838	1400.513	1407.1179	1461.7766	1482.3705	1488.9027	1496.7669	1502.7278	1504.3648	1510.3531	1523.7229	1781.1582	2873.063	2904.6178	2925.8294	3005.1997	3052.3443	3061.087	3073.9249	3078.9835	3120.2389	3130.3228	3154.7119	3608.1881
CC1N(C)CCNC1=O	C[C@H]1N(C)CCNC1=O	
InChI=1S/C6H12N2O/c1-5-6(9)7-3-4-8(5)2/h5H,3-4H2,1-2H3,(H,7,9)	InChI=1S/C6H12N2O/c1-5-6(9)7-3-4-8(5)2/h5H,3-4H2,1-2H3,(H,7,9)/t5-/m1/s1
