16
gdb 128400	6.43145	0.80276	0.72007	3.6629	79.6	-0.2042	-0.0055	0.1988	1511.9393	0.126429	-430.255739	-430.246994	-430.24605	-430.290572	30.07	
C	-0.1241560275	 1.456644796	 0.0082618132	-0.31117
N	 0.0786101681	 0.0209834841	-0.0181675589	-0.284764
C	 0.7262552182	-0.600816643	-1.0287874314	 0.105883
N	 1.156885601	 0.0427990907	-2.0546427545	-0.378819
C	 1.7339809802	-0.6748572252	-3.0859171227	 0.379704
N	 1.6355433777	-2.0014148891	-3.27626811	-0.301384
N	 2.3466065866	-2.2007234347	-4.3827066175	-0.075777
N	 2.8916486976	-1.1318227257	-4.9448844853	-0.199668
C	 2.5142995446	-0.1433451165	-4.1359193887	-0.126373
H	 0.8232208167	 1.999678578	 0.1094303537	 0.136655
H	-0.594112566	 1.7819463053	-0.9234715585	 0.153442
H	-0.7743543645	 1.7083694802	 0.8482637099	 0.122297
H	-0.1164557732	-0.5110878233	 0.811061925	 0.254562
H	 0.8346806655	-1.6820713089	-0.9003906581	 0.12121
H	 2.4350587675	-3.1149965606	-4.7939747444	 0.286534
H	 2.8043345375	 0.8784466228	-4.3174852318	 0.11767
36.6168	83.4692	112.8955	132.7621	215.2082	249.3905	393.9131	449.8447	459.6157	463.24	594.4147	713.9549	751.8483	865.0328	879.0972	980.5985	990.4076	1009.6047	1034.1259	1151.9967	1157.6957	1176.6047	1206.8674	1242.7506	1270.1967	1353.583	1372.1743	1405.356	1452.123	1473.4511	1501.0903	1509.5784	1544.8802	1572.3261	1709.8193	3030.2192	3084.025	3096.5793	3138.1443	3277.4779	3673.1145	3679.8165
CNC=NC1=NNN=C1	CNC=Nc1n[nH]nc1	
InChI=1S/C4H7N5/c1-5-3-6-4-2-7-9-8-4/h2-3H,1H3,(H2,5,6,7,8,9)	InChI=1S/C4H7N5/c1-5-3-6-4-2-7-9-8-4/h2-3H,1H3,(H2,5,6,7,8,9)
