19
gdb 70481	3.26722	1.02617	0.90387	4.8007	79.49	-0.2316	0.0275	0.2591	1349.1424	0.158576	-419.158772	-419.149781	-419.148837	-419.193467	32.903	
C	-0.0864107244	 1.4917909009	-0.0040722983	-0.515584
C	 0.0923221289	 0.0057462943	 0.0252168925	 0.306143
N	-0.7703494227	-0.8742034435	 0.8522130829	-0.352536
C	 0.7000250215	-0.9284596528	 1.0253601695	-0.10783
C	 1.1831800581	-1.8892188481	-0.0647645356	-0.262542
C	 0.6302239888	-0.8613368848	-1.1130322583	 0.109951
O	-0.3325263409	-1.2993137944	-2.0534910766	-0.186893
C	 0.089968703	-1.5535433776	-3.3059448237	 0.125507
N	-0.7078296549	-2.0219467629	-4.1645209958	-0.442622
H	 0.7844394473	 1.9880047866	-0.4461854398	 0.122986
H	-0.9664621188	 1.7681190896	-0.5958453219	 0.143039
H	-0.2227311838	 1.8915478751	 1.0066559384	 0.120337
H	-1.1439701268	-0.2844099258	 1.5965417756	 0.225949
H	 1.1665273308	-0.7048918633	 1.9764410863	 0.097548
H	 2.2652127197	-2.0207019486	-0.127249781	 0.102072
H	 0.6788249776	-2.8571930863	-0.0638439123	 0.126702
H	 1.4530808731	-0.3495225761	-1.6278115478	 0.082413
H	 1.1488118774	-1.3037460075	-3.4700191878	 0.078874
H	-0.2286182339	-2.1337916048	-5.0555214964	 0.226484
36.599	101.2773	115.1024	192.3137	207.094	273.0514	331.6493	384.5193	435.3021	511.6703	603.6498	675.4917	713.8391	816.9759	844.6931	866.1626	904.5949	933.3682	960.0867	1022.4361	1028.265	1043.3232	1044.362	1090.4712	1105.4245	1122.7237	1145.2303	1179.9448	1222.335	1244.7051	1293.5562	1308.9351	1341.0066	1383.4449	1411.2511	1427.6971	1447.5667	1477.0473	1483.4269	1498.994	1745.421	3002.7244	3024.7358	3028.8923	3074.5092	3090.6887	3096.081	3137.2962	3197.8343	3461.8176	3517.1308
CC12NC1CC2OC=N	C[C@]12N[C@H]1C[C@H]2O[CH][NH]	
InChI=1S/C6H10N2O/c1-6-4(8-6)2-5(6)9-3-7/h3-5,7-8H,2H2,1H3	InChI=1S/C6H10N2O/c1-6-4(8-6)2-5(6)9-3-7/h3-5,7-8H,2H2,1H3/t4-,5+,6-/m0/s1
