18
gdb 83495	2.91981	1.52076	1.47312	3.4616	72.07	-0.2512	0.0317	0.2829	977.6111	0.150646	-439.11065	-439.103375	-439.102431	-439.142035	29.401	
O	-0.0404965979	 1.3945503561	-0.0403079126	-0.438947
C	-0.0144391416	-0.011390296	 0.0205594848	 0.116362
C	 0.3194406097	-0.6127038424	 1.4065235408	 0.044803
C	-0.7717978296	-0.020512939	 2.312263613	-0.213582
C	-2.0090175252	-0.0023569993	 1.3603842875	-0.221463
C	-1.4359176036	-0.6056211944	 0.0427080126	-0.12674
C	-1.0875215827	-2.0421981914	 0.3483113262	 0.429485
N	-1.6725713927	-3.0853550864	-0.0484612908	-0.563943
O	 0.010150154	-2.0108568168	 1.1866907499	-0.259905
H	 0.8657611904	 1.714293238	-0.0871852103	 0.290572
H	 0.6105076564	-0.4480175432	-0.769193519	 0.084664
H	 1.3469937531	-0.5448883342	 1.7644178079	 0.079333
H	-0.9155051492	-0.6457878405	 3.1957329167	 0.112722
H	-0.498769393	 0.9852975939	 2.6387053717	 0.110001
H	-2.846504364	-0.5938090751	 1.7346099021	 0.11809
H	-2.3572578191	 1.0157634404	 1.1815326803	 0.121324
H	-2.0536298538	-0.4823230092	-0.8429928823	 0.097389
H	-1.2253584613	-3.9169623406	 0.3430531314	 0.219834
143.1244	230.0505	254.9297	278.8646	305.576	400.6947	447.1183	540.0431	595.6779	678.3952	745.5264	802.1098	837.5098	851.2898	878.2682	889.6604	901.4103	944.405	959.4364	1013.171	1030.0655	1043.0418	1068.6694	1136.0108	1152.584	1173.1663	1200.7675	1236.1034	1261.97	1266.88	1295.6629	1301.6056	1333.9868	1353.95	1359.4179	1435.5895	1471.3031	1500.2396	1794.1661	3028.4246	3073.8357	3084.6468	3118.7416	3121.3955	3137.9136	3160.0378	3463.5617	3825.0759
OC1C2CCC1C(=N)O2	O[C@H]1[C@H]2CC[C@@H]1[C]([NH])O2	
InChI=1S/C6H9NO2/c7-6-3-1-2-4(9-6)5(3)8/h3-5,7-8H,1-2H2	InChI=1S/C6H9NO2/c7-6-3-1-2-4(9-6)5(3)8/h3-5,7-8H,1-2H2/t3-,4+,5+/m0/s1
