15
gdb 105576	2.05728	1.56663	1.34583	2.9423	67.14	-0.2827	-0.0255	0.2572	1040.3049	0.111312	-453.928737	-453.919989	-453.919045	-453.962454	30.73	
C	-0.0497529069	 1.4635546006	-0.0319087178	-0.276198
O	 0.0772850847	 0.0383577895	 0.0090871019	-0.273686
C	 0.6683970596	-0.5303403037	-1.1175558543	 0.146224
C	 0.4808040598	-2.0685086984	-1.1477812768	-0.121135
O	-0.3213379336	-1.9570115503	-2.3621479881	-0.244444
C	-0.2043359261	-0.5888784732	-2.3876890657	 0.407704
N	-0.679225491	 0.2817973649	-3.1477103349	-0.532169
C	 2.046030526	-0.0626235033	-1.3416563481	 0.245243
N	 3.1304281692	 0.3016791769	-1.5027554172	-0.331499
H	 0.9356390859	 1.9444511053	-0.059192841	 0.140689
H	-0.6354162394	 1.7806822293	-0.9002647147	 0.157366
H	-0.5641378933	 1.7410753513	 0.8888630228	 0.141268
H	 1.376082739	-2.6678994147	-1.3143225938	 0.148356
H	-0.1093936625	-2.4347301524	-0.3068949972	 0.149001
H	-1.2700238914	-0.1216963619	-3.8769443051	 0.243279
103.9225	113.077	128.0593	171.0225	179.6269	255.6553	302.3059	378.1217	432.6614	537.0451	583.1763	636.9867	715.4571	771.8021	860.9011	899.2059	969.1589	1012.8577	1033.6263	1056.1595	1145.4893	1185.2646	1188.6998	1207.5531	1225.549	1241.1308	1360.0249	1478.1555	1487.9519	1500.2269	1510.2849	1828.1098	2356.6893	3025.6658	3087.4853	3101.5084	3148.8534	3161.7238	3479.0143
COC1(COC1=N)C#N	CO[C@]1(CO[C]1[NH])C#N	
InChI=1S/C5H6N2O2/c1-8-5(2-6)3-9-4(5)7/h7H,3H2,1H3	InChI=1S/C5H6N2O2/c1-8-5(2-6)3-9-4(5)7/h7H,3H2,1H3/t5-/m0/s1
