16
gdb 41682	4.02726	1.5523	1.29492	2.1449	67.27	-0.2235	0.01	0.2335	953.031	0.126858	-437.87274	-437.866215	-437.865271	-437.903565	25.936	
C	 0.1687812247	 1.2604352518	 0.320713918	-0.080411
C	 1.4211343869	 1.9509079368	-0.2638595732	-0.355474
C	 2.0946407742	 0.7869525375	-0.9305323566	 0.390289
O	 3.1440445746	 0.9687792484	-1.8581144974	-0.253622
C	 3.786680504	-0.2336476954	-1.8738680829	 0.084199
N	 3.4149794202	-1.1480240099	-1.0710974289	-0.25857
C	 2.2995136843	-0.6084406144	-0.3250023157	-0.134486
C	 1.0692371547	-0.2813622873	-1.1557443764	 0.023272
O	-0.0945985453	 0.0884884854	-0.4692716636	-0.263219
H	 0.3458283775	 0.9645793742	 1.3629121034	 0.110708
H	-0.7227904816	 1.8915547158	 0.2923246613	 0.120427
H	 1.1585351283	 2.7012692122	-1.0171705032	 0.125666
H	 2.0192449808	 2.4351644807	 0.5124782612	 0.119664
H	 4.6026376224	-0.3001440605	-2.5822687001	 0.147226
H	 2.2167924689	-0.8869721633	 0.7203464415	 0.108728
H	 0.8885330955	-0.7865801521	-2.0985127574	 0.115603
151.8172	228.746	238.2178	356.3719	400.6933	476.0666	593.4943	660.2458	701.0847	756.6666	867.5291	876.3272	907.8106	926.9121	949.998	968.8749	996.466	1020.7069	1034.7043	1046.5973	1097.8955	1128.9804	1147.9623	1196.9348	1208.4627	1242.2061	1250.5308	1273.9765	1314.4423	1348.0728	1389.3481	1403.737	1497.3779	1523.7418	1661.6855	3018.2101	3050.1763	3092.9031	3105.0159	3164.3195	3171.6683	3237.139
C1CC23OC=NC2C3O1	C1C[C@@]23OC=N[C@@H]2[C@H]3O1	
InChI=1S/C6H7NO2/c1-2-8-5-4-6(1,5)9-3-7-4/h3-5H,1-2H2	InChI=1S/C6H7NO2/c1-2-8-5-4-6(1,5)9-3-7-4/h3-5H,1-2H2/t4-,5-,6-/m1/s1
