15
gdb 131162	3.13798	1.39893	1.04637	2.7956	68.69	-0.2221	0.0074	0.2294	1101.3177	0.114201	-450.084711	-450.077136	-450.076192	-450.117376	28.276	
O	-0.2123276196	 1.3413099188	 0.1363741634	-0.424724
C	-0.0328677618	 0.0171816001	 0.0292281273	 0.343152
C	 0.2215776834	-0.7972710026	-1.0510206193	 0.234
N	 0.3167502123	-2.0786099753	-0.6022178898	-0.253965
N	 0.1376143308	-2.1088123265	 0.6862673741	-0.137381
N	-0.0784696151	-0.821245392	 1.0822973762	-0.235528
N	 0.3507252977	-0.3283012241	-2.3699617437	-0.220409
C	 1.3155148124	-1.0183444089	-3.2430827889	-0.219459
C	-0.1429347816	-1.1992982408	-3.4502293281	-0.219461
H	-0.1286753017	 1.6948245576	-0.7613274308	 0.316521
H	-0.2426237712	-0.6093680833	 2.0529073129	 0.286551
H	 1.885739922	-0.3681217852	-3.8998879648	 0.119222
H	 1.8616611641	-1.8481356908	-2.8050876886	 0.146127
H	-0.5728744999	-2.1501949697	-3.150869788	 0.14613
H	-0.6496306718	-0.6826917574	-4.2599923019	 0.119223
54.6662	152.3266	179.1932	283.9612	302.0897	447.4932	475.9794	534.999	537.5191	592.7373	704.9756	739.9585	757.4398	826.7285	850.561	926.1963	1006.2148	1022.6084	1044.3659	1114.8586	1136.2936	1158.0462	1185.4325	1189.986	1223.0107	1267.6132	1313.6232	1362.1405	1423.3752	1479.8829	1507.4456	1570.3182	1676.6309	3115.9448	3118.9774	3206.1746	3220.597	3665.8914	3752.1712
OC1=C(N=NN1)N1CC1	Oc1c(nn[nH]1)N1CC1	
InChI=1S/C4H6N4O/c9-4-3(5-7-6-4)8-1-2-8/h1-2H2,(H2,5,6,7,9)	InChI=1S/C4H6N4O/c9-4-3(5-7-6-4)8-1-2-8/h1-2H2,(H2,5,6,7,9)
