19
gdb 68240	2.75026	1.86723	1.64178	2.2895	73.28	-0.24	0.076	0.3159	909.0213	0.162114	-422.966718	-422.960151	-422.959207	-422.997098	28.882	
O	-0.1482021764	 1.3958040314	 0.0093784871	-0.495707
C	 0.0493185741	 0.0122721579	-0.0017060351	 0.397867
C	 0.9903514054	-0.6874571706	-1.0257628587	-0.290365
C	 0.9062572994	-1.8637520462	-0.0045109105	-0.062475
C	 0.8650321487	-0.7500498635	 1.0918350522	-0.257275
C	-0.5468789452	-2.4868125175	-0.0529382112	 0.077616
C	-1.4118022142	-1.7979179001	-1.1375533689	-0.229673
C	-1.3678026142	-0.69447515	-0.0546892563	 0.044222
O	-1.3583062124	-1.7703507056	 0.9324208677	-0.282782
H	 0.7146867113	 1.8232053138	 0.0165350718	 0.276092
H	 0.6844855194	-0.8215216955	-2.0620100451	 0.096881
H	 1.9878920904	-0.2361139696	-1.0113613538	 0.083341
H	 1.6983807444	-2.6114845901	 0.0129656836	 0.068468
H	 1.8529369871	-0.3017430929	 1.2319256884	 0.078046
H	 0.3940992747	-0.9651113191	 2.0464793651	 0.119658
H	-0.5715754158	-3.5684022813	 0.0906466512	 0.077974
H	-1.0423551692	-1.6288516514	-2.1470471262	 0.09972
H	-2.403702086	-2.2499543425	-1.1705114937	 0.109572
H	-2.1783904314	 0.0216348829	 0.0853440322	 0.088819
220.3727	302.1712	336.0106	413.3406	478.1085	497.6712	516.1518	560.868	596.5111	642.6496	754.9964	786.6758	849.0495	870.1302	874.5365	894.4032	925.5956	935.9193	945.8258	990.4278	1008.3957	1041.9899	1047.2019	1064.8166	1093.485	1121.5772	1133.0395	1160.3736	1194.019	1202.8267	1231.5278	1235.8642	1251.4082	1299.1367	1307.5217	1314.9845	1349.4571	1375.152	1474.9127	1500.2003	1546.2188	3050.0407	3067.5748	3090.2932	3099.3075	3115.64	3119.0772	3129.0283	3157.8197	3174.2549	3811.4173
OC12CC(C1)C1CC2O1	O[C@@]12C[C@@H](C1)[C@@H]1C[C@H]2O1	
InChI=1S/C7H10O2/c8-7-2-4(3-7)5-1-6(7)9-5/h4-6,8H,1-3H2	InChI=1S/C7H10O2/c8-7-2-4(3-7)5-1-6(7)9-5/h4-6,8H,1-3H2/t4-,5-,6+,7-/m0/s1
