19
gdb 97668	3.19613	0.78901	0.70764	1.3061	81.36	-0.2484	0.026	0.2744	1649.4808	0.15701	-422.972402	-422.962324	-422.96138	-423.009136	35.32	
C	-0.1579584209	 1.6600150396	-0.0632105199	-0.429437
C	-0.0308829728	 0.1392152474	-0.0562294602	 0.21931
C	 0.7822694881	-0.4870672287	-1.2313934802	-0.320177
C	 1.7635050653	-0.9389280777	-0.1363515672	-0.065804
O	 0.9908836861	-0.2918778725	 0.8958517505	-0.304709
C	-1.316800345	-0.4996157751	 0.2072218237	 0.0868
C	-2.3868003013	-1.0158430386	 0.4124993985	 0.034232
C	-3.6511090209	-1.6952746935	 0.6919557769	-0.196414
O	-3.6359777438	-3.0802047244	 0.3748371711	-0.401338
H	 0.8176982043	 2.1127185173	-0.2606128711	 0.118298
H	-0.8652345005	 1.9822925516	-0.8335662297	 0.126154
H	-0.5175357841	 2.0115324585	 0.9075743066	 0.135586
H	 0.2721861739	-1.2811392049	-1.7753996783	 0.122886
H	 1.1717651706	 0.2497157027	-1.9357218185	 0.113484
H	 1.8236743176	-2.022939682	 0.0190792854	 0.105451
H	 2.7798912698	-0.5334291865	-0.1986746344	 0.104732
H	-3.9257374127	-1.5275325361	 1.7457688714	 0.121453
H	-4.453096662	-1.2598560204	 0.0853402077	 0.141074
H	-2.8761705017	-3.4679885468	 0.8216245878	 0.288418
29.8672	52.2697	92.9042	114.1226	191.8041	232.7643	275.8401	321.4465	353.3552	357.8702	447.2028	539.2891	586.2544	614.9345	775.0237	824.7844	870.5781	892.4317	973.0444	981.6499	996.7771	1024.3542	1030.1784	1079.7264	1118.9691	1162.0521	1190.8419	1212.8165	1216.2226	1259.7782	1288.6304	1349.3582	1360.2049	1399.9004	1417.5067	1478.5228	1485.3556	1488.908	1491.1892	1531.8826	2349.9939	2977.2228	3020.4325	3041.2487	3060.1112	3062.1022	3086.6148	3119.5571	3125.166	3150.0794	3816.2089
CC1(CCO1)C#CCO	C[C@]1(CCO1)C#CCO	
InChI=1S/C7H10O2/c1-7(3-2-5-8)4-6-9-7/h8H,4-6H2,1H3	InChI=1S/C7H10O2/c1-7(3-2-5-8)4-6-9-7/h8H,4-6H2,1H3/t7-/m1/s1
