18
gdb 74595	3.53552	1.71599	1.37991	1.7392	80.27	-0.2177	0.0185	0.2362	964.1171	0.149526	-364.756633	-364.749871	-364.748927	-364.787412	28.3	
C	-0.0564219522	 1.5124471977	 0.0598716759	-0.495367
C	 0.0188625279	 0.0177467855	-0.0413585073	 0.336699
C	 0.0098847845	-0.677426351	-1.1873555273	-0.184736
C	 0.0753259625	-2.1361914949	-1.1118549319	-0.060782
C	 0.8444765283	-2.8476095168	-0.0433099637	-0.063451
C	 0.882612943	-2.0949446823	 1.2860529563	-0.12726
C	-0.6132249346	-2.1528310432	 1.2616391238	-0.035323
C	 0.0752579939	-0.7907068324	 1.1830794196	-0.137407
N	-0.6450535293	-2.927580138	-0.0232787433	-0.175322
H	 0.8167554735	 1.9219196876	 0.5834593876	 0.125925
H	-0.1050374234	 1.9743386155	-0.9300507881	 0.123343
H	-0.9404169633	 1.831177435	 0.6267969248	 0.12692
H	-0.059048745	-0.2033206077	-2.160345269	 0.087321
H	-0.0007050612	-2.6792088923	-2.0488095239	 0.094093
H	 1.4543196479	-3.7201446137	-0.2534914439	 0.097422
H	 1.589822276	-2.2702408636	 2.0849217803	 0.096363
H	-1.3541467388	-2.3823710494	 2.0154932065	 0.105508
H	 0.0425941602	-0.2577219559	 2.1293969838	 0.086054
156.3477	176.7525	307.5943	378.8418	468.4277	481.3768	579.4172	619.5214	683.1316	713.4735	755.3642	778.23	809.2955	816.2896	855.7997	908.1711	927.0882	957.25	978.5764	1002.1641	1026.7252	1034.3191	1053.8513	1068.5262	1069.6777	1096.0264	1133.1385	1200.2371	1205.1225	1249.5126	1288.2605	1302.6326	1352.9663	1391.6586	1413.49	1452.5058	1479.2147	1493.869	1710.297	3016.1296	3063.015	3110.1039	3152.1042	3155.4674	3164.5499	3186.0866	3199.1918	3212.3278
CC1=CC2C3C4C(C14)N23	CC1=C[C@H]2[C@H]3[C@@H]4[C@@H]([C@H]14)N23	
InChI=1S/C8H9N/c1-3-2-4-7-6-5(3)8(6)9(4)7/h2,4-8H,1H3	InChI=1S/C8H9N/c1-3-2-4-7-6-5(3)8(6)9(4)7/h2,4-8H,1H3/t4-,5+,6+,7-,8+,9?/m0/s1
