16
gdb 106079	3.05864	1.58467	1.40294	3.0619	70.19	-0.2152	-0.0613	0.1538	970.6931	0.121929	-437.723656	-437.715914	-437.71497	-437.75587	29.42	
C	 0.1726562314	 1.3179843794	-0.2249486329	-0.263967
O	 0.0889041307	-0.0223912242	 0.2509315704	-0.283182
C	-1.1520591402	-0.5626990296	 0.1281253145	 0.350276
C	-1.5948659259	-1.9598009519	 0.2382447272	-0.179507
C	-2.3725933377	-2.0527164819	 1.5759420134	-0.176135
N	-3.1664140692	-0.7694523101	 1.5860599887	-0.221513
C	-2.5720829932	-0.105667668	 0.6882660138	 0.17011
O	-3.1332713975	 0.0941649501	-0.5876853431	-0.261194
C	-2.074816585	-0.8939315806	-0.9516370263	-0.029087
H	 1.2038047894	 1.6403768849	-0.0736192349	 0.137511
H	-0.0776291597	 1.3771239735	-1.2914870898	 0.126264
H	-0.5022957885	 1.9782993283	 0.3352595601	 0.129417
H	-0.9901446224	-2.7815415685	-0.1399765191	 0.104504
H	-3.1284950918	-2.8429084474	 1.5870836056	 0.138421
H	-1.6974242723	-2.2078864173	 2.4303578857	 0.121329
H	-1.996438858	-1.1219623965	-2.0076126334	 0.136753
91.5281	158.0082	174.4317	255.6589	283.6556	393.281	464.7748	483.6513	557.8959	574.879	672.5642	720.037	767.7785	858.0029	904.8228	912.6047	935.2435	955.3819	1003.1217	1023.6778	1053.4068	1098.6489	1147.3436	1178.2449	1179.1195	1188.1251	1234.1661	1256.3566	1296.2516	1441.5156	1479.3773	1487.7884	1500.097	1516.8549	1618.8949	2998.1914	3008.1265	3069.2348	3087.956	3140.0407	3147.1822	3202.5508
COC12C3CN=C1OC23	CO[C@@]12[C@H]3C[N][C]1O[C@@H]23	
InChI=1S/C6H7NO2/c1-8-6-3-2-7-5(6)9-4(3)6/h3-4H,2H2,1H3	InChI=1S/C6H7NO2/c1-8-6-3-2-7-5(6)9-4(3)6/h3-4H,2H2,1H3/t3-,4+,6+/m0/s1
