21
gdb 83087	2.28388	1.65657	1.4232	1.1209	82.54	-0.2288	0.0195	0.2483	1055.1045	0.184202	-387.086934	-387.078852	-387.077908	-387.118774	33.09	
C	-0.2150717368	 1.577201981	 0.0584129378	-0.434164
C	 0.0434380859	 0.0812446375	 0.0152018746	 0.058767
C	 0.8093626756	-0.5939922628	-1.1713961192	-0.056352
C	 2.0688318161	 0.2006558799	-1.5612879678	-0.271591
C	 2.8725230861	 0.5405390948	-0.3253435923	-0.06212
C	 2.4151494903	 0.1688387205	 0.8722821271	-0.066094
C	 1.1171595919	-0.6019792336	 0.9344268903	-0.133892
C	 1.1951773223	-1.7118725391	-0.1701241981	 0.156657
O	 0.1639857895	-2.6770233618	-0.1222902457	-0.450974
H	 0.7044869548	 2.1620792864	-0.0263730746	 0.11964
H	-0.8838721473	 1.8758082231	-0.7572896272	 0.110634
H	-0.7020079092	 1.8592170271	 0.9991296692	 0.109431
H	-0.8957108908	-0.4607146304	 0.1461696355	 0.087297
H	 0.2303980659	-0.9043178266	-2.0446822383	 0.065122
H	 2.6780973106	-0.3864693925	-2.2626351329	 0.105915
H	 1.7953066002	 1.1173599086	-2.1030624754	 0.105901
H	 3.7991707584	 1.0956810867	-0.4409692022	 0.085938
H	 2.9527451287	 0.3957109556	 1.7878565524	 0.084318
H	 0.8315219828	-0.8984937795	 1.9468284821	 0.046973
H	 2.1793116314	-2.1817046099	-0.3002049077	 0.058781
H	 0.3104298335	-3.227798765	 0.6534922924	 0.279811
199.4661	205.5936	234.5412	240.4741	285.7128	329.656	340.195	420.701	481.344	549.2487	558.2865	654.6426	726.3266	790.6352	825.0731	876.8121	897.2237	929.4567	957.135	978.8637	981.0011	999.2152	1028.8628	1077.6274	1088.7154	1114.3727	1121.707	1146.0776	1166.5316	1188.8871	1212.2982	1234.6022	1281.1248	1299.7152	1315.7055	1326.0458	1354.8679	1384.1753	1403.6777	1411.008	1420.8515	1474.6992	1492.0071	1505.9758	1695.9107	3002.4693	3007.0497	3025.3668	3027.8413	3071.7608	3076.7857	3083.903	3086.597	3116.13	3157.1166	3181.4691	3811.8726
CC1C2CC=CC1C2O	C[C@H]1[C@H]2CC=C[C@@H]1[C@H]2O	
InChI=1S/C8H12O/c1-5-6-3-2-4-7(5)8(6)9/h2-3,5-9H,4H2,1H3	InChI=1S/C8H12O/c1-5-6-3-2-4-7(5)8(6)9/h2-3,5-9H,4H2,1H3/t5-,6+,7-,8-/m1/s1
