16
gdb 24269	4.01365	1.60679	1.25273	2.7911	74.87	-0.1774	0.0422	0.2197	968.2665	0.127539	-400.750733	-400.744208	-400.743264	-400.781363	27.012	
C	-0.0155074052	 1.4758652741	 0.109964642	-0.321149
C	 1.288352487	 0.7345779445	 0.0255507299	 0.096496
O	 2.0157160828	 0.4333577099	 1.2090754961	-0.279063
C	 1.2013459756	-0.4113317852	 1.9246932673	 0.351433
C	 0.0563232226	-0.7601472722	 1.26160346	 0.237139
N	-0.6598259136	-1.5908400353	 2.086270956	-0.377796
C	 0.0513343681	-1.7647833472	 3.2543011813	-0.069841
C	 1.2243068902	-1.0273453107	 3.1955297109	-0.323246
C	-0.0342130387	-0.0477385098	-0.0243671513	-0.23244
H	-0.3203139219	 1.9027044268	 1.0586333051	 0.125889
H	-0.2798732834	 2.0579413933	-0.7671141693	 0.113305
H	 1.9412481528	 0.8681471432	-0.8278232223	 0.105432
H	-1.5468011083	-2.015464474	 1.8837672501	 0.261147
H	-0.318784591	-2.415635973	 4.0298336534	 0.116783
H	 1.9789684845	-0.9701519993	 3.9627779017	 0.101758
H	-0.4051750216	-0.511412165	-0.932326721	 0.094153
134.8515	265.4086	355.5774	405.3758	436.3827	463.3775	617.7392	626.9639	671.1458	702.5584	719.1238	763.6025	777.4783	797.7433	818.46	928.767	940.571	963.6045	1026.6922	1052.0833	1069.0269	1078.9913	1100.7712	1137.1638	1165.3647	1186.3555	1246.6957	1304.3504	1348.2839	1394.4629	1455.2424	1459.3627	1477.5401	1547.9563	1615.2764	3129.6458	3157.2597	3192.8297	3224.798	3257.4059	3274.6618	3692.2849
C1C2OC3=C(NC=C3)C12	C1[C@H]2Oc3c([nH]cc3)[C@@H]12	
InChI=1S/C7H7NO/c1-2-8-7-4-3-6(4)9-5(1)7/h1-2,4,6,8H,3H2	InChI=1S/C7H7NO/c1-2-8-7-4-3-6(4)9-5(1)7/h1-2,4,6,8H,3H2/t4-,6+/m0/s1
