16
gdb 12829	3.45961	2.09572	1.64618	1.755	60.02	-0.2475	0.0685	0.316	805.8738	0.131181	-420.848761	-420.841839	-420.840895	-420.879532	27.09	
O	-0.0388032284	 1.3703683513	 0.0998973492	-0.460158
C	 0.0154962836	-0.0249438298	-0.0060602375	 0.317906
C	-0.4967558749	-0.6724251752	-1.2710726209	-0.361777
C	-1.3113731679	-0.7306381931	 0.0053911452	 0.063029
O	-1.4330007978	-1.9694678254	 0.6506077089	-0.244689
C	-0.4201474228	-2.1980082378	 1.5985599022	 0.014251
O	 0.8637841117	-2.0428412363	 1.0549159966	-0.232111
C	 1.135485904	-0.6725419885	 0.7928319597	-0.154777
H	 0.5889793927	 1.7411675691	-0.5304656248	 0.286776
H	-0.843752189	-0.0166609687	-2.0620194963	 0.113589
H	-0.0353932564	-1.601848736	-1.5864475475	 0.131085
H	-2.2050479989	-0.1171677331	 0.0728370854	 0.110495
H	-0.5428869851	-1.5206112702	 2.4627978462	 0.08452
H	-0.5190991034	-3.2388865605	 1.9117465449	 0.119913
H	 2.0928706373	-0.6410779785	 0.2621309773	 0.10727
H	 1.2402700452	-0.1119073772	 1.7351617813	 0.104681
146.3214	207.5436	288.2794	351.8922	386.4972	400.613	432.7493	497.1322	523.3343	651.3982	748.1792	825.5311	909.3806	926.8066	970.1321	1009.4862	1012.9739	1045.4629	1061.217	1081.5692	1106.8755	1180.1247	1194.2593	1235.6059	1276.2538	1304.0221	1324.7451	1340.2634	1367.5588	1412.5425	1445.0087	1472.8306	1501.871	1513.0299	2942.1608	2986.0943	3070.179	3118.042	3134.086	3154.8132	3232.6577	3792.3014
OC12CC1OCOC2	O[C@]12C[C@H]1OCOC2	
InChI=1S/C5H8O3/c6-5-1-4(5)8-3-7-2-5/h4,6H,1-3H2	InChI=1S/C5H8O3/c6-5-1-4(5)8-3-7-2-5/h4,6H,1-3H2/t4-,5+/m1/s1
