21
gdb 68093	2.45675	1.6051	1.31328	2.7707	82.51	-0.2246	0.002	0.2266	1096.7954	0.182413	-387.11597	-387.107079	-387.106134	-387.148872	34.457	
C	-0.0425844196	 1.5558325004	 0.0317637558	-0.498551
C	-0.0073725847	 0.049645294	-0.0039304887	 0.209132
C	 0.711827409	-0.7831353397	-1.1273208061	-0.313946
C	-0.2338627907	-1.9588908179	-0.684550545	 0.209132
C	-0.5719652427	-3.1387410158	-1.5590524298	-0.498551
C	 0.2730232735	-2.204403118	 0.7569263981	-0.258923
C	 0.4394828009	-0.7281914576	 1.2571620296	-0.258924
C	-1.2196327125	-0.8012641539	-0.4310888229	 0.379612
O	-2.3722314731	-0.5882894199	-0.6760346032	-0.336728
H	 0.9529450948	 1.974849958	 0.215568058	 0.116528
H	-0.4156392937	 1.9658279044	-0.9119496671	 0.125109
H	-0.70483396	 1.908410912	 0.82980912	 0.127739
H	 0.5008629681	-0.4178816129	-2.1349993161	 0.109837
H	 1.7842614641	-0.9501803148	-0.9912378198	 0.100124
H	 0.3048322745	-3.7725848201	-1.7319882847	 0.116527
H	-1.3439156376	-3.7587473933	-1.0906005618	 0.12774
H	-0.9546168554	-2.8141342156	-2.531713402	 0.125108
H	-0.4452447433	-2.7754477179	 1.3524719633	 0.107694
H	 1.2189639507	-2.7546305252	 0.7560584003	 0.101823
H	 1.4741999419	-0.4911234257	 1.5230827168	 0.101823
H	-0.1887350741	-0.5006353604	 2.1233238153	 0.107694
136.842	177.1746	178.3342	213.1004	215.2889	248.7133	260.3549	352.0855	434.2554	523.1679	567.2336	579.8021	686.6528	723.2245	778.5419	844.4597	873.3465	878.0513	917.351	929.1019	954.028	982.3937	1006.7819	1043.3541	1091.0575	1107.6942	1162.8368	1173.5878	1212.1416	1233.5911	1245.0272	1259.8016	1261.2129	1358.0358	1364.1399	1413.2831	1418.4975	1488.1261	1489.2382	1489.718	1490.5021	1493.9366	1496.3235	1518.4948	1885.2585	3029.7658	3030.1977	3043.632	3052.6047	3055.7469	3082.647	3094.1182	3094.3075	3101.5783	3103.0834	3103.3718	3122.74
CC12CC(C)(CC1)C2=O	C[C@@]12C[C@@](C)(CC1)C2=O	
InChI=1S/C8H12O/c1-7-3-4-8(2,5-7)6(7)9/h3-5H2,1-2H3	InChI=1S/C8H12O/c1-7-3-4-8(2,5-7)6(7)9/h3-5H2,1-2H3/t7-,8+
