19
gdb 70190	3.43789	1.30199	1.10786	3.9645	76.4	-0.2186	0.0285	0.2471	1136.6785	0.160941	-419.225395	-419.217172	-419.216228	-419.257852	32.491	
C	 0.005704099	 1.4994540044	-0.0303443982	-0.452568
C	-0.0589945608	-0.009896441	 0.0421411282	 0.337694
C	-0.8498376795	-0.6473465057	 1.1859752978	-0.363233
C	 0.6720410476	-0.7192114558	 1.1364203957	-0.009641
N	 1.3357424895	-1.9448809883	 0.7993772225	-0.311902
C	 1.1150275582	-2.6756421064	-0.3317775331	 0.40983
O	 1.6373815713	-3.7562740322	-0.5293997851	-0.375919
C	 0.1108285889	-2.0742598899	-1.3104882948	-0.296475
N	 0.0423724773	-0.6168032418	-1.2634382627	-0.356296
H	 0.9074373383	 1.8187047609	-0.5613112338	 0.13233
H	-0.8639723493	 1.8992608104	-0.56637028	 0.115162
H	 0.0078880086	 1.9441676743	 0.968496438	 0.117318
H	-1.3156216476	 0.0021164959	 1.9198800277	 0.111417
H	-1.3835542869	-1.573226683	 1.000863415	 0.117086
H	 1.2388193437	-0.1226144179	 1.8433443306	 0.104112
H	 1.8962496632	-2.4070088163	 1.5007347235	 0.248407
H	 0.4178343181	-2.389976275	-2.3101932192	 0.137666
H	-0.8526578074	-2.5749172551	-1.102609555	 0.111871
H	-0.7098667724	-0.2869732376	-1.859519497	 0.22314
87.2807	183.638	213.0183	241.5679	314.2082	371.9733	385.3415	454.8022	488.2125	501.1989	561.0126	630.8283	669.8697	690.2429	757.7778	821.3025	878.1631	905.4217	925.5367	972.661	1016.1977	1027.4012	1041.5464	1106.9981	1118.0365	1124.9825	1155.0537	1238.0589	1272.5391	1297.3893	1338.0458	1379.783	1409.1935	1428.0839	1453.5887	1479.4112	1486.7774	1492.7667	1507.4975	1519.5867	1797.6042	2934.5478	3027.4139	3092.0795	3100.0421	3118.6598	3129.22	3160.6471	3219.2365	3511.9526	3606.6028
CC12CC1NC(=O)CN2	C[C@]12C[C@H]1NC(=O)CN2	
InChI=1S/C6H10N2O/c1-6-2-4(6)8-5(9)3-7-6/h4,7H,2-3H2,1H3,(H,8,9)	InChI=1S/C6H10N2O/c1-6-2-4(6)8-5(9)3-7-6/h4,7H,2-3H2,1H3,(H,8,9)/t4-,6+/m1/s1
