17
gdb 35785	3.71441	1.1888	1.00443	4.4347	71.9	-0.2515	0.0218	0.2733	1157.0144	0.138608	-418.000792	-417.993239	-417.992295	-418.03301	29.001	
N	 0.0765912124	-1.1708706713	 0.1378900984	-0.31649
C	 0.0593673603	-0.0186149081	 0.0588617394	 0.27728
C	 0.0107953041	 1.4487494422	 0.0001986088	-0.116481
C	-0.8087961618	 2.0114350544	 1.192654746	-0.242913
C	-0.5707262096	 3.4997907545	 1.3772051533	 0.032384
O	 0.6736292484	 3.862534482	 1.9927145292	-0.253552
C	 0.4780394095	 4.204588837	 0.6199637711	 0.054508
C	 1.3383423858	 3.4321895596	-0.3623698697	-0.216134
N	 1.3666800151	 1.9912697603	-0.115139957	-0.28801
H	-0.5081074077	 1.7152908425	-0.930632912	 0.131611
H	-1.8743418224	 1.8186702202	 1.030765643	 0.122087
H	-0.526334305	 1.4942577026	 2.1158672095	 0.137052
H	-1.4212953939	 4.0724851213	 1.7451489971	 0.102109
H	 0.362975256	 5.2714861778	 0.4236960222	 0.095734
H	 0.9667594932	 3.6115222149	-1.3805138986	 0.11696
H	 2.3675507555	 3.8046403264	-0.3276358223	 0.125446
H	 1.8702993502	 1.8128645736	 0.7493370818	 0.238409
87.3106	158.5663	195.463	299.9511	355.6199	373.3139	420.9576	525.5776	552.5824	579.7446	690.1301	777.1197	805.4018	833.0061	874.4874	906.3357	960.4429	1016.7037	1032.7418	1051.7874	1078.9531	1087.1	1149.5636	1168.0865	1228.0728	1272.1493	1286.2598	1313.798	1358.1256	1366.8964	1371.4729	1378.9764	1467.6377	1473.5778	1476.6346	1506.0574	2364.5285	3021.1917	3022.5295	3047.6791	3078.0163	3092.0809	3101.3196	3119.2805	3514.8119
N#CC1CC2OC2CN1	N#C[C@H]1C[C@H]2O[C@H]2CN1	
InChI=1S/C6H8N2O/c7-2-4-1-5-6(9-5)3-8-4/h4-6,8H,1,3H2	InChI=1S/C6H8N2O/c7-2-4-1-5-6(9-5)3-8-4/h4-6,8H,1,3H2/t4-,5-,6+/m1/s1
