20
gdb 22408	6.36305	0.59877	0.5706	1.6383	80.47	-0.2407	0.0088	0.2495	1897.0764	0.168879	-440.226639	-440.216676	-440.215732	-440.262543	35.922	
O	-0.2391027492	 1.4675090742	 0.2043054862	-0.419577
C	-0.0520632047	 0.0621492241	 0.1392936178	-0.072553
C	-1.4150224941	-0.5818046322	-0.084195215	-0.193702
C	-1.3548370217	-2.1005023573	-0.161936488	 0.026261
C	-1.0604311148	-2.8929630639	 1.1619242024	-0.330685
C	-2.2713257603	-3.7443980279	 0.8472456595	 0.422031
C	-2.7146354927	-2.8626101559	-0.3012432816	-0.345215
N	-2.6470645375	-4.8429337814	 1.3512850332	-0.233332
O	-3.8108937846	-5.3159537968	 0.7114668705	-0.395585
H	 0.6162859101	 1.8787422149	 0.3582558591	 0.285908
H	 0.6265457491	-0.2130816602	-0.6852655614	 0.084168
H	 0.396301193	-0.3232147208	 1.0697790451	 0.088322
H	-2.0844826339	-0.2743614418	 0.7295753361	 0.10397
H	-1.8424625091	-0.1772083104	-1.0100316385	 0.108394
H	-0.6625142809	-2.4097037075	-0.9519109242	 0.077766
H	-0.1029782036	-3.4145253591	 1.2362492868	 0.119802
H	-1.191438044	-2.2805690085	 2.0619267207	 0.119236
H	-3.5867758477	-2.2461389707	-0.0552226345	 0.123612
H	-2.9145018524	-3.3745822935	-1.2458899287	 0.1259
H	-3.9705082009	-6.1458415854	 1.1732529243	 0.305279
32.7915	82.6453	103.5958	154.2589	202.7156	253.2661	265.3804	317.0807	359.5205	388.3541	448.2657	466.8688	537.0524	703.0782	781.3328	792.7356	804.8311	916.5886	941.4	964.1079	984.875	1017.8563	1051.8043	1079.734	1094.4118	1129.3133	1184.854	1194.5098	1217.2206	1233.6169	1248.6606	1261.0134	1278.3125	1314.786	1328.3088	1383.4383	1403.1126	1450.5034	1463.4985	1469.1089	1492.5436	1527.2637	1785.4692	2958.1294	2982.9155	3023.6686	3037.8089	3044.72	3048.3532	3069.5679	3101.0482	3103.7447	3818.7861	3830.6437
OCCC1CC(C1)=NO	OCC[C@H]1CC(=NO)C1	
InChI=1S/C6H11NO2/c8-2-1-5-3-6(4-5)7-9/h5,8-9H,1-4H2	InChI=1S/C6H11NO2/c8-2-1-5-3-6(4-5)7-9/h5,8-9H,1-4H2/t5-
