22
gdb 116340	2.89311	1.22903	0.95583	1.8514	81.54	-0.2152	0.0758	0.291	1279.9067	0.196291	-404.324447	-404.315751	-404.314807	-404.357785	33.798	
O	-0.0701816676	 1.4617010199	 0.082450822	-0.424465
C	 0.0377471802	 0.04599716	 0.0168855599	-0.09227
C	-1.3735575289	-0.533607901	-0.0554323323	 0.015883
C	-2.1401036631	-0.086998388	-1.3096195631	-0.210344
C	-3.4755878273	-0.8296890287	-1.3858125057	-0.207684
C	-3.2576773728	-2.3375969847	-1.550678236	-0.143405
N	-2.2905325725	-2.9273939649	-0.6032374576	-0.104639
C	-0.8857370442	-2.9450512211	-1.0017952363	-0.248149
C	-1.3414194013	-2.0483439484	 0.0958093328	-0.014509
H	 0.8169847922	 1.8318147571	 0.0907961877	 0.287156
H	 0.6113345894	-0.2699285345	-0.8692256384	 0.084864
H	 0.557250704	-0.3531720321	 0.9032964489	 0.083622
H	-1.9181102362	-0.1348308003	 0.8123300759	 0.084293
H	-2.2843665637	 0.9953831182	-1.270276918	 0.11507
H	-1.5468459249	-0.2897822437	-2.2124619528	 0.087667
H	-4.0473588223	-0.6363317251	-0.4687043911	 0.10047
H	-4.086058098	-0.4644885584	-2.2189886311	 0.093704
H	-4.20847651	-2.8668472847	-1.4191192925	 0.102183
H	-2.9234830287	-2.5453664296	-2.5758585382	 0.095463
H	-0.3393207526	-3.8594114675	-0.7806254127	 0.107085
H	-0.6223043025	-2.4883224658	-1.9552745188	 0.102224
H	-1.143681919	-2.3770244868	 1.1161048274	 0.08578
85.0462	117.0223	169.9509	240.6633	272.5318	284.7892	357.7083	399.2594	437.115	470.0565	559.3563	629.9078	724.7525	778.8624	858.8202	882.7632	892.8348	934.7911	952.9301	986.9132	1030.2848	1051.1618	1072.7	1078.3069	1096.9022	1120.1375	1123.6737	1164.7021	1182.5379	1201.6072	1223.1563	1248.3639	1274.2658	1286.1076	1326.593	1336.255	1352.9174	1374.749	1380.9133	1391.4159	1421.0605	1457.7217	1487.2725	1499.3046	1501.1235	1517.7824	1521.4237	2962.2638	2988.119	3005.3042	3011.3044	3015.8187	3024.1169	3050.6839	3071.3139	3084.2453	3095.4826	3098.0124	3162.9995	3833.696
OCC1CCCN2CC12	OC[C@H]1CCCN2C[C@@H]12	
InChI=1S/C7H13NO/c9-5-6-2-1-3-8-4-7(6)8/h6-7,9H,1-5H2	InChI=1S/C7H13NO/c9-5-6-2-1-3-8-4-7(6)8/h6-7,9H,1-5H2/t6-,7+,8?/m1/s1
