22
gdb 59710	2.97344	1.28587	1.01113	2.6551	82.29	-0.237	0.072	0.309	1259.1214	0.194816	-404.333893	-404.324919	-404.323975	-404.367522	34.524	
C	-0.0161901868	 1.5016667295	-0.0923451729	-0.393733
C	 0.0023270686	-0.0295524779	-0.0057930472	 0.02861
C	 0.8288329887	-0.5052672244	 1.1968830041	-0.402468
C	-1.4216727064	-0.5926423491	 0.0537183387	 0.152048
O	-2.1477495452	-0.1245936072	-1.0893949295	-0.278556
C	-3.110475332	-1.0862808007	-1.5010055573	-0.075936
C	-2.6080363329	-2.4167689454	-0.984018625	-0.060224
N	-1.1912609401	-2.6552637881	-1.3291960615	-0.330049
C	-1.5480577298	-2.1067659791	-0.0020379807	-0.083422
H	 1.0007250042	 1.896345976	-0.1883840361	 0.103262
H	-0.6014186137	 1.8365175289	-0.9509712645	 0.134494
H	-0.4578695944	 1.9402571805	 0.8113233739	 0.102871
H	 0.4489295648	-0.4301740482	-0.9232801536	 0.095383
H	 1.8404982333	-0.0896238412	 1.155894259	 0.11411
H	 0.378893996	-0.1785031871	 2.1426911713	 0.108837
H	 0.9211994917	-1.5955830431	 1.2273306561	 0.109992
H	-1.9133542108	-0.2434523293	 0.9807628802	 0.058514
H	-4.1029809074	-0.8742977331	-1.0703368333	 0.087567
H	-3.1842961271	-1.0356576423	-2.5925216327	 0.11209
H	-3.2897646027	-3.2526488389	-0.8688869017	 0.092109
H	-0.9910371829	-3.6480402144	-1.2325076689	 0.231108
H	-1.3927314351	-2.6997969655	 0.8921497813	 0.093393
73.8291	112.7653	173.9809	225.5711	243.5193	267.3963	327.0636	371.3569	393.3593	452.9113	507.7016	669.4266	764.8843	805.4375	839.7887	881.3046	885.3562	901.424	931.7193	960.5541	969.2816	986.7325	1016.8931	1030.5775	1086.1647	1104.3256	1139.3957	1150.1557	1158.4717	1179.6205	1199.904	1232.7267	1254.7213	1303.8774	1320.592	1351.3919	1364.2909	1388.1739	1395.3839	1401.7172	1419.24	1434.5975	1489.3691	1492.5277	1504.3253	1508.696	1514.4282	2929.766	2971.8121	3023.367	3027.0969	3046.5469	3067.7382	3086.3096	3093.798	3102.512	3132.1024	3167.802	3180.1947	3498.2877
CC(C)C1OCC2NC12	CC(C)[C@H]1OC[C@H]2N[C@@H]12	
InChI=1S/C7H13NO/c1-4(2)7-6-5(8-6)3-9-7/h4-8H,3H2,1-2H3	InChI=1S/C7H13NO/c1-4(2)7-6-5(8-6)3-9-7/h4-8H,3H2,1-2H3/t5-,6-,7-/m1/s1
