17
gdb 17536	3.89807	1.87866	1.64599	1.752	68.5	-0.2331	0.0807	0.3138	842.7223	0.141847	-363.785166	-363.778017	-363.777073	-363.816272	27.684	
C	-0.0824958885	 1.5354946753	 0.0374770717	-0.319702
N	 0.1114955289	 0.0905630716	 0.0916499684	-0.079158
C	 1.3781506195	-0.5504943181	-0.1590441454	-0.038459
C	 2.5865809132	 0.2518879535	 0.3712875401	-0.354331
C	 1.9214097014	 0.197903939	 1.7603652042	 0.44644
C	 2.556460286	 0.0966017225	 3.0725337227	-0.265609
O	 1.8336473442	 1.2737957676	 2.6838515515	-0.272964
C	 0.7334961787	-0.5759303639	 1.2168687443	-0.146081
H	 0.7312840683	 2.1349121633	 0.4636588022	 0.12854
H	-0.2229296387	 1.8266980432	-1.0081873084	 0.120163
H	-0.9985985262	 1.7779897198	 0.5837287059	 0.12859
H	 1.4266426606	-1.3426136766	-0.89758916	 0.098614
H	 3.5215389899	-0.3126098031	 0.3343644416	 0.113606
H	 2.7487353946	 1.2424317151	-0.0613779622	 0.114204
H	 2.0905729605	-0.4971213771	 3.8588006035	 0.116491
H	 3.6356449431	 0.2173142671	 3.1603936408	 0.11543
H	 0.1873754346	-1.3598572592	 1.731203359	 0.094226
115.7947	176.4166	236.1914	304.761	331.7048	382.4822	468.4295	529.1617	641.0153	720.0433	809.7211	844.8295	865.1597	883.5046	917.929	942.6894	988.29	1019.3979	1049.6492	1077.3081	1119.6348	1133.8415	1163.0116	1174.5551	1180.9059	1183.3145	1223.1524	1251.3601	1276.3973	1368.6922	1432.4428	1458.576	1475.6794	1497.2718	1507.0789	1536.2099	3020.2714	3063.3067	3076.1918	3086.7887	3110.1551	3114.5067	3161.5409	3164.2887	3179.8308
CN1C2CC3(CO3)C12	CN1[C@H]2C[C@]3(CO3)[C@@H]12	
InChI=1S/C6H9NO/c1-7-4-2-6(3-8-6)5(4)7/h4-5H,2-3H2,1H3	InChI=1S/C6H9NO/c1-7-4-2-6(3-8-6)5(4)7/h4-5H,2-3H2,1H3/t4-,5-,6-,7?/m0/s1
