12
gdb 132700	3.2926	1.4074	0.98596	3.4248	59.61	-0.2402	-0.0393	0.2009	1051.275	0.078365	-513.977601	-513.970651	-513.969707	-514.008992	26.485	
O	 0.0680853169	 1.3816216071	-0.1128715995	-0.440854
C	 0.057971415	 0.0259873016	-0.0675116287	 0.257699
C	-0.0265403702	-0.7439194864	-1.2132047161	-0.055815
N	-0.0380416733	-2.0875856867	-1.1838518194	-0.31604
C	 0.036765383	-2.6245938192	 0.0100897067	 0.339384
F	 0.027060913	-3.944398089	 0.0659224584	-0.059395
N	 0.1218910773	-2.0132156338	 1.1859748464	-0.396164
C	 0.1316721158	-0.6941313361	 1.1358148628	 0.334147
O	 0.2156651802	 0.0138142128	 2.2786231285	-0.429244
H	 0.1342603437	 1.7141163039	 0.7905969732	 0.314495
H	-0.086993252	-0.2643772467	-2.1856848242	 0.137115
H	 0.2583074007	-0.6191392675	 3.0090584918	 0.314672
137.5178	242.9665	289.7671	358.7266	372.9962	397.6752	456.2489	500.3873	526.0117	566.0659	615.0027	727.7037	776.5286	806.4356	810.0044	964.9002	1018.0756	1180.5526	1210.4296	1295.1543	1307.1031	1345.0137	1440.0998	1474.8189	1515.4864	1642.1348	1666.0337	3181.6813	3772.4446	3800.2571
OC1=CN=C(F)N=C1O	Oc1cnc(F)nc1O	
InChI=1S/C4H3FN2O2/c5-4-6-1-2(8)3(9)7-4/h1,8H,(H,6,7,9)	InChI=1S/C4H3FN2O2/c5-4-6-1-2(8)3(9)7-4/h1,8H,(H,6,7,9)
