19
gdb 106388	3.33973	1.46322	1.27761	2.4844	73.84	-0.25	0.0845	0.3345	1043.5094	0.159841	-422.965999	-422.958502	-422.957558	-422.997942	30.146	
C	-0.0041746127	 1.3500333226	 0.1461703683	-0.260233
O	 0.0247301266	-0.048718865	-0.0492662461	-0.308531
C	 0.7094932695	-0.4915640145	-1.1689779584	 0.422422
C	 0.3883322649	-0.0670565312	-2.6595816642	-0.293929
C	 1.7810549183	-0.7456319588	-2.8939927999	-0.087917
C	 2.1959673353	-0.1720613502	-1.50857429	-0.289574
C	 1.4167752959	-2.2103240867	-2.5584864291	 0.04167
O	 1.9190066774	-2.7031189162	-1.3054958742	-0.256086
C	 0.6527239075	-2.0274497769	-1.3290475127	-0.013518
H	 1.0026788261	 1.7668756256	 0.2854102369	 0.114263
H	-0.4871981623	 1.8721076229	-0.6915328851	 0.110663
H	-0.5857720751	 1.5286618481	 1.0532044446	 0.130277
H	-0.4870996342	-0.5159821061	-3.1382568534	 0.095482
H	 0.4041826804	 1.0129250907	-2.8264749421	 0.098241
H	 2.368155927	-0.5492902819	-3.7887312634	 0.072101
H	 2.3850699838	 0.9007156467	-1.5713115721	 0.09445
H	 2.9740256813	-0.6844231454	-0.9466887596	 0.122917
H	 1.2134285487	-2.9521838191	-3.323077226	 0.102326
H	-0.2169605785	-2.5903717446	-1.0092442035	 0.104976
76.9172	188.543	216.2398	308.8179	365.5059	428.2333	450.3307	518.237	598.5914	623.749	670.4208	796.3725	814.1293	859.9663	881.988	900.2114	920.0006	952.7431	973.7578	995.5904	1025.4493	1048.7719	1081.1472	1087.6809	1099.1858	1152.7065	1175.4093	1180.4346	1215.6663	1224.8062	1232.87	1256.0053	1268.4619	1288.1839	1325.8297	1404.6629	1472.1265	1484.3398	1490.9414	1505.488	1514.5398	2995.1631	3047.3169	3053.9641	3090.3899	3116.029	3121.3401	3136.4357	3166.0574	3173.2381	3186.921
COC12CC(C1)C1OC21	CO[C@@]12C[C@@H](C1)[C@H]1O[C@@H]21	
InChI=1S/C7H10O2/c1-8-7-2-4(3-7)5-6(7)9-5/h4-6H,2-3H2,1H3	InChI=1S/C7H10O2/c1-8-7-2-4(3-7)5-6(7)9-5/h4-6H,2-3H2,1H3/t4-,5-,6-,7-/m1/s1
