21
gdb 103784	4.39065	0.71451	0.6792	1.2144	90.23	-0.2256	0.0533	0.2789	1737.5088	0.179475	-387.055926	-387.044888	-387.043944	-387.093314	38.774	
C	 0.1554193727	 1.4779141723	 0.0515126084	-0.499201
C	 0.0631044703	 0.0248464802	 0.0502965255	 0.091299
C	-0.0115587886	-1.1784172569	 0.0521327282	 0.067671
C	-0.0826926121	-2.611070258	 0.0411949159	-0.270775
C	-0.6342318527	-3.381494211	 1.2347751566	-0.309596
C	-1.4211644045	-3.3460488717	-0.0450971034	 0.354071
C	-2.7080933463	-2.5500261852	-0.0958320105	-0.461226
C	-1.4205825005	-4.5987879428	-0.8913709445	-0.140186
O	-2.4124778158	-5.4831978855	-0.3835812243	-0.421144
H	 1.1437164513	 1.8117288706	-0.2844064597	 0.14636
H	-0.5882895522	 1.9296189816	-0.6149035914	 0.144599
H	-0.0063649118	 1.8892296457	 1.0544178636	 0.145099
H	 0.7411330425	-3.0953194187	-0.4781413451	 0.100133
H	-0.1300889856	-4.3008382225	 1.5124909595	 0.114504
H	-0.9997345722	-2.795134536	 2.0698912717	 0.118614
H	-2.646740006	-1.6559125881	 0.5283238226	 0.121954
H	-2.9272155616	-2.2257068858	-1.1200240188	 0.110813
H	-3.5420706108	-3.1670722159	 0.2494333304	 0.131963
H	-1.6310946799	-4.3332392585	-1.9402330742	 0.087801
H	-0.4237438483	-5.0677341032	-0.8634468193	 0.080265
H	-2.508368178	-6.2129435304	-1.0024113013	 0.286982
24.6211	65.0477	83.2871	116.9648	193.7191	207.9088	235.0206	249.5318	291.3872	324.9538	365.7124	373.3628	424.3887	509.4554	606.3873	698.3452	744.8453	862.7854	918.8611	939.6948	958.3552	985.3242	1051.8024	1053.3583	1056.6114	1067.8725	1072.8492	1109.1689	1111.4886	1213.4948	1238.9441	1246.9913	1280.1304	1357.3608	1405.4617	1415.3106	1416.4743	1461.4792	1478.0333	1480.0491	1483.6535	1488.3322	1507.4538	1517.1842	2365.7116	2959.6249	2990.7593	3022.7193	3034.9854	3080.7864	3083.1364	3101.8907	3124.9725	3130.8453	3136.2737	3225.5042	3829.5814
CC#CC1CC1(C)CO	CC#C[C@H]1C[C@]1(C)CO	
InChI=1S/C8H12O/c1-3-4-7-5-8(7,2)6-9/h7,9H,5-6H2,1-2H3	InChI=1S/C8H12O/c1-3-4-7-5-8(7,2)6-9/h7,9H,5-6H2,1-2H3/t7-,8+/m0/s1
