16
gdb 86472	2.47585	1.40446	1.04568	4.9361	73.96	-0.2748	-0.0272	0.2477	1151.6248	0.124128	-396.926351	-396.917609	-396.916665	-396.959877	31.809	
C	 0.739349785	 1.5122358972	-0.0852939895	-0.419088
C	-0.0616829078	 0.2173249444	-0.0606735471	 0.071074
C	 0.2329659529	-0.7792353478	-1.2149082079	-0.295161
C	 1.0114511065	-1.641169016	-0.153666106	 0.045903
N	 0.397619801	-0.8177879574	 0.9096657124	-0.33597
C	 0.6491065908	-3.0652568334	-0.0889846048	 0.274946
N	 0.3338629719	-4.1756750227	-0.0577878459	-0.32107
C	 2.4731457642	-1.5072835913	-0.2699127124	 0.270208
N	 3.6159608506	-1.3461897749	-0.3336164025	-0.330451
H	 1.804612351	 1.3263473809	-0.2558266345	 0.142815
H	 0.3743710048	 2.1708231577	-0.8805079676	 0.131952
H	 0.631699549	 2.0481242874	 0.8639167408	 0.130818
H	-1.1244408896	 0.4399174616	 0.0763253553	 0.0987
H	-0.6428142735	-1.3044400187	-1.5935653501	 0.148667
H	 0.8393752513	-0.4132801132	-2.0421422456	 0.144701
H	 1.0295541917	-0.5172141339	 1.6445785255	 0.241956
79.2965	133.1225	145.4092	191.3298	241.5875	257.4449	336.5886	391.0302	482.5363	502.3192	552.2422	596.5144	603.2925	691.4315	806.5153	847.1667	918.4161	942.8304	964.1313	1030.5841	1073.1274	1112.2276	1143.3201	1190.6025	1204.6497	1266.4267	1304.1014	1354.2227	1408.6907	1416.1066	1478.1501	1494.0468	1496.9792	2350.4508	2365.2933	3032.7964	3052.7631	3102.6849	3105.1911	3113.0584	3170.9988	3536.1166
CC1CC(N1)(C#N)C#N	C[C@H]1CC(N1)(C#N)C#N	
InChI=1S/C6H7N3/c1-5-2-6(3-7,4-8)9-5/h5,9H,2H2,1H3	InChI=1S/C6H7N3/c1-5-2-6(3-7,4-8)9-5/h5,9H,2H2,1H3/t5-/m0/s1
