23
gdb 112863	1.88717	1.47908	0.92737	1.5428	89.29	-0.2247	0.0243	0.249	1380.9502	0.204162	-388.317689	-388.307534	-388.30659	-388.352802	37.664	
C	-0.0502594647	 1.5238045291	-0.2592221256	-0.380613
C	-0.0103325048	-0.0018808365	-0.1441149419	-0.178591
C	-1.3930318325	-0.6089885805	 0.1245507751	 0.043417
O	-2.2949126254	-0.2467123341	-0.9230782096	-0.290834
C	-2.959645311	-1.401550502	-1.4479198336	 0.097515
C	-2.818146366	-1.4346443216	-2.9698057897	-0.387311
C	-2.3224228179	-2.5545864808	-0.7224776339	-0.2246
C	-1.433343777	-2.122080978	 0.1673681192	 0.311289
C	-0.5977984125	-2.9208601551	 1.1154405798	-0.498082
H	 0.9429906264	 1.9306181635	-0.4718452941	 0.106238
H	-0.7273078758	 1.8273961452	-1.0615699735	 0.135805
H	-0.4071825801	 1.9800520118	 0.6711401569	 0.109964
H	 0.385356552	-0.4413391644	-1.0679796482	 0.094901
H	 0.6648677614	-0.2984665059	 0.6687603942	 0.089951
H	-1.7684631033	-0.1937732756	 1.0793485279	 0.067585
H	-4.0340284442	-1.3335081746	-1.2010438252	 0.074996
H	-1.7661005702	-1.5294623486	-3.2541846426	 0.115982
H	-3.3734228316	-2.2801318934	-3.390013508	 0.1084
H	-3.2158758922	-0.5132799773	-3.404975749	 0.123093
H	-2.5864082768	-3.5879196094	-0.9150375226	 0.094376
H	-0.8154878961	-3.9890357081	 1.0366227431	 0.126027
H	 0.4730404113	-2.7785645911	 0.9268827426	 0.132669
H	-0.775448029	-2.6131216427	 2.1538952985	 0.127824
62.0487	105.1551	141.7222	172.4785	181.4587	231.5619	236.5966	270.9032	340.2811	355.8856	455.8321	461.3364	550.7416	613.6972	710.1136	770.8224	831.8891	859.9017	873.0797	915.7139	965.7037	989.8593	1012.1114	1042.9307	1051.5584	1083.5937	1104.9364	1117.2012	1138.1683	1142.8826	1215.0496	1278.7904	1287.3485	1321.7214	1341.6278	1364.5682	1376.4234	1389.6188	1398.6406	1406.4353	1414.7261	1474.5954	1481.6691	1485.8658	1489.8645	1495.5898	1496.3571	1509.9793	1732.4141	2914.9551	2938.3536	3019.7725	3022.5342	3035.1721	3035.498	3061.5576	3068.9711	3100.0877	3108.7729	3114.0476	3119.2539	3125.13	3201.1035
CCC1OC(C)C=C1C	CC[C@H]1O[C@@H](C)C=C1C	
InChI=1S/C8H14O/c1-4-8-6(2)5-7(3)9-8/h5,7-8H,4H2,1-3H3	InChI=1S/C8H14O/c1-4-8-6(2)5-7(3)9-8/h5,7-8H,4H2,1-3H3/t7-,8+/m0/s1
