21
gdb 77011	2.73258	1.03623	0.95051	4.7291	84.06	-0.2376	0.0303	0.2678	1364.1297	0.17984	-383.261804	-383.251302	-383.250358	-383.297512	37.971	
C	 1.5569452407	 1.1595717239	-0.7880308802	-0.432961
C	 0.9428514396	-0.1510970753	-0.3453430794	-0.028281
N	 1.7333587316	-1.3523215114	-0.0219882207	-0.135951
C	 3.1877779482	-1.2953593805	-0.0505742496	-0.287723
C	 3.6797814991	-1.5695238334	-1.4071117053	 0.282791
N	 4.0765770884	-1.7651456311	-2.4740748493	-0.307255
C	 0.9805640639	-0.6818398921	 1.0577193068	 0.296684
C	 1.6911530749	 0.0731247649	 2.1671048048	-0.458993
C	-0.1975568772	-1.5002577908	 1.5540598985	-0.435867
H	 2.3844817618	 1.4963433478	-0.1609279057	 0.118157
H	 1.9251384626	 1.0808273381	-1.816434327	 0.146182
H	 0.7942632459	 1.9448736352	-0.7698445079	 0.12942
H	 0.0577896994	-0.4075683662	-0.9278812915	 0.092975
H	 3.6396467888	-0.3472841599	 0.2755322827	 0.131267
H	 3.5763026774	-2.0736865228	 0.6168237353	 0.15496
H	 2.5144905815	 0.700688778	 1.8233147317	 0.118895
H	 0.9790394121	 0.7255979097	 2.6832229998	 0.128568
H	 2.0882914635	-0.6261819562	 2.9119941108	 0.124766
H	 0.1198952373	-2.215658027	 2.3213166836	 0.116634
H	-0.9622012958	-0.8516883765	 1.9963956658	 0.115131
H	-0.6476013439	-2.0633158643	 0.733510547	 0.130598
37.4248	107.715	141.0532	163.3569	197.4083	222.0421	235.2971	271.9557	292.7209	362.5317	382.3008	445.8008	467.9212	505.2222	573.2727	684.5615	776.0707	802.4011	938.3834	951.1751	965.5626	994.6731	1013.7351	1030.6192	1049.9825	1131.7249	1138.5324	1169.2261	1190.0172	1258.6838	1277.4777	1358.1982	1366.9192	1406.0275	1412.4988	1424.3071	1440.4996	1471.4152	1480.7211	1484.1552	1495.1962	1496.0723	1507.4203	1517.1835	2365.7365	2997.2924	3028.7375	3036.8313	3043.7334	3057.1495	3088.9014	3093.8974	3096.1319	3101.4299	3125.7101	3127.6451	3138.0845
CC1N(CC#N)C1(C)C	C[C@H]1N(CC#N)C1(C)C	
InChI=1S/C7H12N2/c1-6-7(2,3)9(6)5-4-8/h6H,5H2,1-3H3	InChI=1S/C7H12N2/c1-6-7(2,3)9(6)5-4-8/h6H,5H2,1-3H3/t6-,9?/m1/s1
