18
gdb 91727	2.53067	1.68227	1.50929	4.2324	70.42	-0.2318	0.0314	0.2632	960.0649	0.150976	-439.132111	-439.124847	-439.123903	-439.163586	29.457	
O	-0.08636528	 1.4303288119	-0.0431100296	-0.443846
C	 0.0102778855	 0.019044413	 0.0159561622	 0.142646
C	 0.6108058514	-0.5452645638	 1.3465614542	-0.268257
C	-0.5650609933	-1.3831929409	 1.9407781963	-0.131408
C	-1.1850435346	-1.9616694811	 0.6518827971	-0.23038
C	-1.4239000923	-0.5700818348	 0.0395416982	-0.029032
N	-2.171676196	 0.060453895	 1.1308136885	-0.285579
C	-1.6072544741	-0.3283935154	 2.3374012794	 0.409071
O	-1.8436823762	 0.1314243211	 3.4295509289	-0.385594
H	 0.7982254351	 1.8001872121	 0.0322254527	 0.288302
H	 0.5596533723	-0.3644456229	-0.8558529508	 0.07014
H	 1.4757346078	-1.1870503319	 1.1562141392	 0.102769
H	 0.9224718598	 0.2625503282	 2.0141963735	 0.11846
H	-0.2952976166	-2.060181997	 2.7484185907	 0.085806
H	-0.4891362906	-2.5744127063	 0.0721156798	 0.102522
H	-2.1151217388	-2.510341147	 0.8133985379	 0.116748
H	-1.9580491175	-0.5183887138	-0.9088637721	 0.082123
H	-2.497385972	 1.0122932637	 1.0449786039	 0.255509
111.4392	213.0731	262.425	291.571	413.229	450.4465	468.9808	500.378	534.761	630.1911	717.5719	763.4362	794.4452	840.7327	852.3096	886.3175	935.8172	958.8686	965.6694	989.3201	1035.9325	1063.3509	1084.7084	1136.2172	1168.9987	1183.1794	1219.8051	1224.2838	1239.3674	1287.7279	1293.044	1330.9554	1338.4174	1371.3632	1403.0012	1419.6803	1481.8933	1500.7651	1845.8914	2992.7875	3055.7258	3064.7539	3106.6257	3121.4885	3124.7493	3144.9653	3621.0036	3829.1253
OC1CC2CC1NC2=O	O[C@H]1C[C@@H]2C[C@H]1NC2=O	
InChI=1S/C6H9NO2/c8-5-2-3-1-4(5)7-6(3)9/h3-5,8H,1-2H2,(H,7,9)	InChI=1S/C6H9NO2/c8-5-2-3-1-4(5)7-6(3)9/h3-5,8H,1-2H2,(H,7,9)/t3-,4+,5-/m0/s1
