19
gdb 62722	2.4471	2.07099	1.62851	1.4178	78.48	-0.2156	0.0004	0.2161	919.6047	0.159569	-385.875081	-385.86745	-385.866506	-385.906265	32.105	
C	-0.0979351712	 1.5115660214	-0.0445139611	-0.479695
C	 0.051082143	-0.0104809638	-0.0163299514	 0.457153
O	-1.2334620176	-0.5806050083	-0.1704792696	-0.477557
C	 1.1623766379	-0.6284729774	-0.9772960261	-0.178476
C	 2.4027723827	-0.0476532893	-0.2904819787	-0.080755
C	 2.1708113043	-0.0559472055	 1.0237445231	-0.083299
C	 0.7703151222	-0.6405945551	 1.2379160389	-0.147813
C	 0.8079476924	-2.1060349689	 0.7672762109	-0.069679
C	 1.0428712833	-2.0967382694	-0.5425148338	-0.063878
H	 0.8419751507	 2.0406682804	 0.1014612285	 0.130938
H	-0.5098027185	 1.8234585113	-1.0138044174	 0.104541
H	-0.8040138078	 1.8222876854	 0.7325612162	 0.122085
H	-1.7400059158	-0.0130660136	-0.7590599634	 0.274884
H	 1.0616039578	-0.429598763	-2.0453917426	 0.050347
H	 3.290547196	 0.2870328195	-0.8105181671	 0.096244
H	 2.8266777581	 0.2655313617	 1.8216116745	 0.096483
H	 0.3073897025	-0.4571681911	 2.2077798738	 0.058925
H	 0.6803817422	-2.9562749514	 1.4227722651	 0.095373
H	 1.1492920678	-2.9392736228	-1.2117787897	 0.094179
193.1254	230.0885	236.1053	274.2648	378.5928	399.8089	449.5238	459.1023	547.2897	563.2676	615.1652	682.0829	739.897	751.1098	794.0519	832.0073	895.5093	918.2559	929.411	935.3034	940.1434	942.1556	961.5562	963.8618	1076.2836	1083.6586	1128.7504	1138.43	1180.7634	1198.3858	1235.7351	1237.2774	1257.9398	1292.4914	1333.0115	1383.1678	1399.7301	1489.3919	1504.4607	1617.129	1660.3078	3019.7623	3086.0969	3102.2807	3114.3164	3159.9049	3205.3206	3212.7181	3231.1654	3239.1851	3823.5091
CC1(O)C2C=CC1C=C2	C[C@@]1(O)[C@H]2C=C[C@@H]1C=C2	
InChI=1S/C8H10O/c1-8(9)6-2-3-7(8)5-4-6/h2-7,9H,1H3	InChI=1S/C8H10O/c1-8(9)6-2-3-7(8)5-4-6/h2-7,9H,1H3/t6-,7+,8-
