18
gdb 108410	2.24413	1.31937	0.97079	11.9434	82.17	-0.1718	-0.0027	0.1691	1248.7683	0.146047	-438.941668	-438.932617	-438.931673	-438.976004	32.576	
C	 0.1396419563	 1.4655186306	-0.2787715672	-0.356714
N	 0.0233889972	 0.0570800337	 0.2090814118	-0.261829
H	 0.6269798527	-0.5448362888	-0.3613027606	 0.287472
H	 0.3184603286	-0.004914832	 1.1891377454	 0.285
C	-1.3452270539	-0.5317087253	-0.0098675996	 0.121202
C	-2.4798490228	-0.3730571278	 1.0189466018	-0.130108
O	-2.8489920106	-1.7484913325	 0.8610188091	-0.285424
C	-1.6805098572	-2.0006880358	-0.0398168804	-0.03305
C	-1.6389394432	-1.2212003912	-1.2548294262	-0.175439
C	-2.5247291119	-0.893667165	-2.3263282303	 0.091128
O	-3.2040126359	-1.6522124049	-2.998020163	-0.332643
H	 1.1651406771	 1.8199306282	-0.1601597776	 0.155089
H	-0.155811924	 1.4609666213	-1.3284157237	 0.198537
H	-0.5465006344	 2.0859679936	 0.2977802634	 0.178622
H	-2.1366327842	-0.1744906692	 2.0491793245	 0.068566
H	-3.2835525263	 0.3279095315	 0.7657425203	 0.111226
H	-1.1167827763	-2.8842079729	 0.2479942044	 0.08993
H	-2.4916705011	 0.2028442964	-2.5814990821	-0.011566
72.503	91.7757	131.001	189.9648	205.6844	248.2048	312.5685	317.5821	383.0247	485.3193	613.2471	639.9309	758.0542	790.0593	814.4608	862.9154	946.6303	958.3803	985.3289	993.5548	1019.1425	1028.0799	1067.0673	1125.9309	1152.447	1171.7737	1206.7342	1242.4357	1315.5886	1350.002	1367.3374	1405.2235	1443.8629	1492.7539	1496.5647	1503.5253	1513.1335	1594.7161	1754.6769	2717.316	2947.4382	3050.6923	3069.7762	3139.199	3164.6542	3177.2654	3356.4563	3433.1481
C[NH2+]C12COC1[C-]2C=O	C[NH2][C@]12CO[C@H]1[C]2C=O	
InChI=1S/C6H8NO2/c1-7-6-3-9-5(6)4(6)2-8/h2,5,7H,3H2,1H3/q-1/p+1	InChI=1S/C6H9NO2/c1-7-6-3-9-5(6)4(6)2-8/h2,5H,3,7H2,1H3/t5-,6-/m0/s1
