14
gdb 94526	2.68845	1.4073	1.09908	3.8041	62.8	-0.2752	-0.0899	0.1853	1073.1071	0.098917	-473.803701	-473.795053	-473.794109	-473.838013	29.829	
O	 0.1507154806	 1.2745403096	-0.345682962	-0.413175
C	 0.0657818662	-0.0759307131	 0.0086956648	 0.055925
C	-0.0119160318	-0.3041680999	 1.5276041079	-0.084618
O	-1.2336514825	-1.0724267757	 1.3928913521	-0.265925
C	-1.3518724518	-0.7502371928	 0.0148250949	-0.034531
C	-2.4778428309	 0.2221324888	-0.2881751591	 0.306706
O	-3.2582068527	 0.6699698225	 0.5046442062	-0.251196
C	-2.5189992986	 0.6016421774	-1.723163921	 0.205863
N	-2.4847773123	 0.8719406532	-2.8471992709	-0.304389
H	 0.2907165284	 1.3500315545	-1.2956540517	 0.306335
H	 0.8175282662	-0.6891102442	-0.4985264568	 0.102518
H	 0.7898073213	-0.8886267126	 1.9872868332	 0.122352
H	-0.1709938015	 0.6266468935	 2.082750192	 0.135128
H	-1.4707850805	-1.6355565012	-0.6260730396	 0.119006
54.4832	77.2705	115.8052	164.2162	265.5202	271.22	335.2014	396.1449	444.3884	508.0232	576.3799	695.0884	741.6825	840.7997	908.4424	958.4932	991.7548	1033.3976	1036.0206	1119.3393	1144.0997	1161.7443	1208.5079	1242.5403	1292.4295	1333.7521	1357.9076	1444.5609	1513.7223	1819.0827	2332.9289	3011.8001	3044.9422	3055.5572	3105.5414	3816.5507
OC1COC1C(=O)C#N	O[C@H]1CO[C@H]1C(=O)C#N	
InChI=1S/C5H5NO3/c6-1-3(7)5-4(8)2-9-5/h4-5,8H,2H2	InChI=1S/C5H5NO3/c6-1-3(7)5-4(8)2-9-5/h4-5,8H,2H2/t4-,5-/m0/s1
