20
gdb 88514	2.49472	1.25031	1.1041	3.9492	80.02	-0.2355	-0.0181	0.2174	1217.1486	0.169737	-403.121962	-403.11264	-403.111696	-403.15666	34.482	
C	-0.6088148375	 1.2606935701	-0.0716831206	-0.403658
C	-0.0656669968	-0.1438862564	 0.0273590614	 0.0117
N	 1.3650989114	-0.3436792046	-0.2585782877	-0.344946
C	 0.8625150444	-0.6120334116	 1.0990493723	-0.13758
C	 1.3678888971	 0.2424090485	 2.231655735	 0.270474
C	 0.5417423187	 0.3044485329	 3.5098432728	-0.283076
C	 1.8129197038	-0.4669230632	 3.5182097257	-0.292963
C	 2.1748532002	 1.4608001618	 1.9238161967	 0.068779
O	 2.4909581673	 2.2810747784	 2.7570862168	-0.288589
H	 0.0851715325	 1.99521861	 0.343048579	 0.133094
H	-0.7900513518	 1.5299132176	-1.1175897411	 0.124151
H	-1.5578977613	 1.3453074492	 0.4682166305	 0.120438
H	-0.7440999872	-0.9082698236	-0.3517011914	 0.08284
H	 1.5288741074	-1.208532896	-0.7645462126	 0.234499
H	 0.7437491817	-1.658705859	 1.3791074799	 0.078996
H	 0.5332325282	 1.2645360028	 4.0129168208	 0.141412
H	-0.3971306199	-0.2384761903	 3.5058729597	 0.116328
H	 1.7715753206	-1.5511903246	 3.5127017506	 0.117445
H	 2.665010455	-0.0337010793	 4.0288799087	 0.139396
H	 2.4942215261	 1.5517809073	 0.8693244035	 0.111258
36.3802	99.3039	160.85	177.8647	217.8647	267.8065	289.6816	326.0409	384.7086	426.6245	537.0521	638.4409	739.6967	785.0314	794.3652	822.2494	845.8964	902.7949	955.3057	974.396	991.8154	1016.66	1036.9318	1065.6377	1069.2096	1073.4243	1102.4168	1140.2831	1179.3558	1206.6336	1240.7967	1261.9606	1285.2781	1332.4129	1403.0753	1420.6105	1433.9324	1451.9748	1466.5969	1482.5239	1486.4227	1500.1791	1792.2185	2969.5895	3039.1171	3093.0233	3099.5457	3104.1517	3130.4189	3132.5557	3136.7942	3223.0055	3237.6468	3517.5397
CC1NC1C1(CC1)C=O	C[C@H]1N[C@H]1C1(CC1)C=O	
InChI=1S/C7H11NO/c1-5-6(8-5)7(4-9)2-3-7/h4-6,8H,2-3H2,1H3	InChI=1S/C7H11NO/c1-5-6(8-5)7(4-9)2-3-7/h4-6,8H,2-3H2,1H3/t5-,6-/m1/s1
