17
gdb 69908	2.74532	1.78672	1.41216	2.5181	71.44	-0.2485	-0.0096	0.2389	954.2828	0.136131	-421.794626	-421.787316	-421.786371	-421.826183	29.073	
C	 0.0228978839	 1.483220231	-0.0108745106	-0.488551
C	 0.0093435762	-0.0233167166	-0.0143946796	 0.320601
C	-0.849155083	-0.8474895751	 0.908648423	-0.343082
C	 0.6500489437	-0.9227562252	 1.0584523869	-0.106644
C	 1.3693113096	-1.9270121028	 0.1507037517	-0.067574
O	 0.399770642	-2.1818055763	-0.9115691226	-0.281798
C	 0.5165343891	-0.7701237486	-1.2609127535	-0.118111
C	 2.0247936725	-0.9615986857	-0.890659517	 0.455401
O	 3.0995148207	-0.6557016535	-1.2894108368	-0.309516
H	 0.982683128	 1.8757267093	-0.3664258958	 0.131694
H	-0.7634162605	 1.890543053	-0.6570330709	 0.125497
H	-0.14264903	 1.8745936949	 0.9973291504	 0.124247
H	-1.3602370696	-0.2849990563	 1.6829093005	 0.116142
H	-1.3923388314	-1.7045807418	 0.531339604	 0.132126
H	 1.1554708046	-0.5292943835	 1.9316626793	 0.103625
H	 1.8402484975	-2.8196286387	 0.556796798	 0.104953
H	 0.1452914569	-0.515556504	-2.2518622869	 0.100989
112.7424	188.123	216.2233	297.5109	359.5858	423.2686	502.7168	528.2462	590.8499	659.7276	727.4677	751.7658	824.8657	850.1883	880.952	901.9342	925.2519	954.3168	972.2272	1010.9816	1033.2545	1081.6068	1087.2231	1095.7565	1109.5355	1147.4689	1196.2536	1211.6118	1266.658	1286.8744	1292.5968	1374.9741	1423.86	1468.3654	1490.0455	1501.1753	1926.2141	3025.0678	3083.6025	3103.9655	3142.2027	3147.8787	3153.3236	3193.8007	3232.4932
CC12CC1C1OC2C1=O	C[C@]12C[C@H]1[C@H]1O[C@@H]2C1=O	
InChI=1S/C7H8O2/c1-7-2-3(7)5-4(8)6(7)9-5/h3,5-6H,2H2,1H3	InChI=1S/C7H8O2/c1-7-2-3(7)5-4(8)6(7)9-5/h3,5-6H,2H2,1H3/t3-,5+,6+,7-/m0/s1
