23
gdb 94832	3.46924	1.15065	1.0109	1.2336	85.92	-0.2375	0.0871	0.3246	1294.6462	0.207006	-388.297215	-388.288563	-388.287619	-388.329961	34.91	
C	 0.0424763059	 1.5534498445	 0.0540553813	-0.405696
C	 0.0143576914	 0.0247481146	-0.0072016597	 0.030841
C	 0.6574449643	-0.5228448264	-1.2920046888	-0.202764
C	 0.712852898	-2.0587540843	-1.2615559219	-0.275819
C	 1.3419700467	-2.5297448988	 0.0332155232	 0.461714
C	 1.8669655087	-3.916739231	 0.1982078509	-0.336513
C	 2.8355036371	-2.7478154796	 0.1345269549	-0.322912
O	 0.7014097436	-2.0147054582	 1.1731657263	-0.292994
C	 0.7190259643	-0.5935023524	 1.2071713281	-0.083888
H	 1.0721337699	 1.930108337	 0.0436982191	 0.114044
H	-0.4778707438	 1.9908973171	-0.8042010132	 0.114239
H	-0.4403336164	 1.9276904663	 0.963356406	 0.1121
H	-1.0314093764	-0.3126123265	 0.0220043321	 0.076261
H	 0.1073111069	-0.1740807573	-2.1735421431	 0.08972
H	 1.6780385286	-0.1240003365	-1.3776248139	 0.093312
H	-0.3044400535	-2.4664121455	-1.3276557402	 0.100506
H	 1.2741513536	-2.44678153	-2.1181016706	 0.091577
H	 1.7126573491	-4.3807819817	 1.1655729564	 0.122244
H	 1.8118661751	-4.5928647071	-0.6483439943	 0.109225
H	 3.4456080755	-2.6281636195	-0.7546888511	 0.107675
H	 3.3160178079	-2.4554039951	 1.0613233725	 0.115862
H	 1.7598571325	-0.2292917001	 1.254979767	 0.081428
H	 0.2194338611	-0.3088865095	 2.1385782089	 0.099838
97.3715	189.2064	226.075	235.834	259.0479	311.1009	358.5763	385.6138	421.9624	482.7839	495.2746	611.3234	697.9796	775.5882	800.0212	864.6145	877.69	894.8459	940.8623	950.0458	961.5381	984.1229	998.3476	1022.0941	1045.201	1077.8163	1084.2241	1115.2569	1150.0469	1159.005	1189.4153	1218.1329	1226.0178	1281.9579	1307.6665	1319.5786	1344.8757	1351.6218	1380.8198	1392.326	1407.3059	1422.0721	1452.5529	1478.1545	1485.8722	1492.614	1498.0652	1500.8264	1505.0659	2958.6584	3004.7637	3014.1538	3021.3448	3025.825	3060.2048	3074.5133	3075.46	3091.5895	3097.9439	3130.8845	3135.4343	3215.9499	3230.0074
CC1CCC2(CC2)OC1	C[C@H]1CCC2(CC2)OC1	
InChI=1S/C8H14O/c1-7-2-3-8(4-5-8)9-6-7/h7H,2-6H2,1H3	InChI=1S/C8H14O/c1-7-2-3-8(4-5-8)9-6-7/h7H,2-6H2,1H3/t7-/m0/s1
