21
gdb 40974	3.6634	1.21801	1.20945	0.207	88.52	-0.2332	0.0241	0.2573	1148.9537	0.184944	-349.980768	-349.973016	-349.972072	-350.013123	31.213	
C	-0.193881409	 1.3042674534	 0.1205988563	-0.259493
C	 1.2047799893	 1.9704737034	 0.0881196882	-0.28879
C	 2.1632992955	 0.9503554522	-0.5882873883	 0.318506
C	 2.4508203811	 1.2072408675	-2.1080722801	-0.305185
C	 3.8743161869	 0.7420458512	-2.287561449	-0.059693
C	 4.4898045324	 0.5601058253	-1.1204583467	-0.063732
C	 3.586206658	 0.874464301	 0.0448249979	-0.316374
C	 1.3963040039	-0.3485151832	-0.4214721278	-0.09815
C	 0.1330942406	-0.1606819792	-0.0471767362	-0.080632
H	-0.7382747963	 1.5196113114	 1.0471366924	 0.10031
H	-0.8376086687	 1.6539559945	-0.6990698577	 0.104359
H	 1.2053706519	 2.9412746969	-0.4154622983	 0.09146
H	 1.5402466672	 2.1428922073	 1.1164897999	 0.099857
H	 1.7385335728	 0.6795115314	-2.752716708	 0.10182
H	 2.3587432799	 2.2750985392	-2.355724155	 0.099925
H	 4.3303182116	 0.6162924841	-3.2637989453	 0.087471
H	 5.5251823307	 0.261759509	-0.99625445	 0.087792
H	 3.8659553343	 1.8340239917	 0.5045088117	 0.100507
H	 3.6307228887	 0.1276708862	 0.8470013354	 0.099386
H	 1.8559069154	-1.3071119431	-0.6406936349	 0.092533
H	-0.6025879462	-0.9460486302	 0.0903654655	 0.088124
80.5316	99.3384	231.382	301.0576	362.3062	387.7816	424.937	501.4802	670.0875	688.0862	754.3364	757.7359	787.3014	806.8075	851.7004	905.4146	934.9102	942.7972	954.75	975.9659	978.2159	979.3344	988.4708	1009.8404	1081.3017	1102.4107	1105.1248	1129.0575	1156.6895	1171.0286	1200.6453	1223.7572	1275.0659	1288.3897	1313.6727	1320.5375	1331.604	1366.3511	1382.535	1480.37	1482.9416	1488.3864	1499.607	1684.9398	1687.997	2995.9154	2996.598	3007.285	3039.2051	3043.7392	3051.5916	3055.456	3090.8581	3173.2017	3177.3777	3199.5263	3203.2306
C1CC2(CC=CC2)C=C1	C1C[C@]2(CC=CC2)C=C1	
InChI=1S/C9H12/c1-2-6-9(5-1)7-3-4-8-9/h1-3,7H,4-6,8H2	InChI=1S/C9H12/c1-2-6-9(5-1)7-3-4-8-9/h1-3,7H,4-6,8H2
