22
gdb 78779	3.13419	1.40459	1.28934	1.6097	85.17	-0.2312	0.0885	0.3197	1124.1928	0.193619	-367.15741	-367.148738	-367.147794	-367.189807	34.881	
C	-0.1630006792	 1.4458550012	-0.0349789042	-0.412916
C	 0.0333791115	-0.0653657894	 0.0449654155	-0.012759
C	 1.2299817805	-0.5509603937	-0.7828512374	-0.048189
C	 2.1502424579	-0.4078130559	 0.3682714141	-0.059468
C	 0.8633904941	-0.5280039889	 1.2743122924	-0.108067
C	 1.0369267724	-2.0597265906	 1.0802130987	 0.344598
C	 1.9527316609	-2.6696246161	 2.1393340667	-0.430661
C	-0.1727449023	-2.9569699173	 0.8437412877	-0.454492
N	 1.8639056635	-1.7676151974	-0.1556156948	-0.175796
H	 0.7768127268	 1.9792604583	 0.1445613878	 0.117541
H	-0.5328684993	 1.744239869	-1.0221291084	 0.114585
H	-0.8928942863	 1.7844213229	 0.7081133586	 0.113965
H	-0.9277178816	-0.5674708448	-0.1072816382	 0.063509
H	 1.4255678475	-0.4042623314	-1.837925644	 0.092165
H	 3.1409285845	 0.0105424918	 0.4843957377	 0.093353
H	 0.691777118	-0.0871837304	 2.256824382	 0.061883
H	 1.4051030819	-2.8222927761	 3.0754503014	 0.109062
H	 2.3330567186	-3.6392375098	 1.8030449758	 0.121909
H	 2.810566118	-2.0239135895	 2.3481246008	 0.114454
H	-0.7701379138	-2.6394154789	-0.0126215421	 0.121416
H	 0.1585435288	-3.9826789612	 0.6505919253	 0.12124
H	-0.8207122223	-2.9746782718	 1.7273513347	 0.112667
158.3478	202.8139	210.7747	223.5693	243.3699	260.4601	316.0642	365.0521	392.5724	497.1819	568.8581	623.8277	750.7961	795.6705	797.4565	840.1295	872.3538	882.2938	911.9851	945.1685	946.8006	973.399	1004.8993	1008.7289	1032.4622	1061.9472	1067.3611	1116.5625	1143.8102	1161.9667	1174.0386	1197.6495	1229.5673	1255.139	1273.2363	1294.8025	1327.5968	1378.9071	1403.2284	1410.9849	1416.7059	1476.1723	1487.4245	1494.4768	1496.7819	1500.0859	1511.222	3026.8327	3032.7997	3037.6037	3045.8229	3092.2737	3096.8819	3099.6545	3104.9681	3109.7143	3112.0762	3129.9539	3189.4546	3206.3937
CC1C2C3C1C(C)(C)N23	C[C@H]1[C@H]2[C@H]3[C@@H]1C(C)(C)N23	
InChI=1S/C8H13N/c1-4-5-7-6(4)9(7)8(5,2)3/h4-7H,1-3H3	InChI=1S/C8H13N/c1-4-5-7-6(4)9(7)8(5,2)3/h4-7H,1-3H3/t4-,5-,6+,7-,9?/m1/s1
