16
gdb 54730	4.12927	1.16661	1.05892	4.0153	70.31	-0.2374	0.01	0.2474	1141.1065	0.121668	-437.804128	-437.796047	-437.795103	-437.8377	29.664	
C	-0.0600715543	 1.4538247367	 0.0096113247	-0.476928
C	 0.0086238653	-0.0618737719	-0.0148731581	 0.366113
O	 0.9670372056	-0.6964349279	 0.3665755319	-0.340126
N	-1.1072679175	-0.6725358092	-0.583685019	-0.053005
C	-2.4656053341	-0.6243521675	-0.0670586573	-0.122378
C	-3.4310726395	-1.212376621	-1.1690764271	 0.002525
O	-2.6563220985	-1.5723790828	-2.3076793577	-0.209958
C	-2.664281245	-2.459867758	-1.191829465	 0.002457
C	-1.6810491962	-1.9012890809	-0.0928129797	-0.089516
H	 0.9525167642	 1.8535216865	-0.0577860377	 0.151439
H	-0.6790702636	 1.846202312	-0.7997794083	 0.140704
H	-0.488732772	 1.7858647213	 0.962212391	 0.140365
H	-2.7429012899	-0.011921075	 0.7809741093	 0.1182
H	-4.4844695796	-1.0004690168	-1.3031955763	 0.11973
H	-2.9564391626	-3.4899069353	-1.3520969358	 0.121309
H	-1.2216620725	-2.4474135503	 0.7194153852	 0.129069
56.5157	87.6708	121.3741	152.5995	307.2789	398.1694	461.0942	574.7948	599.8513	626.443	750.5141	774.9155	788.0394	811.0179	841.7052	864.7943	896.5629	947.2716	997.649	1009.4749	1011.471	1034.8453	1046.4978	1066.0452	1161.3034	1203.9046	1245.3458	1250.1362	1267.1836	1365.9486	1386.1349	1409.6427	1470.7417	1480.6095	1787.8978	3044.8438	3116.6767	3157.5325	3191.7885	3205.0599	3208.599	3226.0145
CC(=O)N1C2C3OC3C12	CC(=O)N1[C@H]2[C@H]3O[C@H]3[C@@H]12	
InChI=1S/C6H7NO2/c1-2(8)7-3-4(7)6-5(3)9-6/h3-6H,1H3	InChI=1S/C6H7NO2/c1-2(8)7-3-4(7)6-5(3)9-6/h3-6H,1H3/t3-,4+,5-,6+,7?
