15
gdb 128261	3.01777	1.3779	0.95157	5.6602	73.07	-0.2433	-0.054	0.1893	1168.1705	0.11443	-450.170077	-450.161737	-450.160793	-450.204153	29.441	
C	-0.0272088552	 1.4557208389	-0.0030757764	-0.316378
N	 0.0293022535	 0.0053400429	 0.0463113797	-0.349322
C	 0.632455585	-0.6640654336	 1.0519368743	 0.422412
N	 1.1912217665	 0.0163000508	 2.0252897506	-0.418746
C	 1.8034606331	-0.6752587392	 3.0456896357	 0.442886
O	 2.3568726562	-0.183281087	 4.003945509	-0.386349
N	 1.7634229761	-2.0889135302	 2.9319947151	-0.264705
N	 1.2038624868	-2.7958349515	 1.9564305546	-0.142193
C	 0.6370741758	-2.1128343912	 1.0132471284	-0.075689
H	 0.979148875	 1.8846134638	-0.0204070081	 0.154979
H	-0.5637920623	 1.7527796949	-0.9055438666	 0.12601
H	-0.5428318566	 1.8557124602	 0.8750584033	 0.155044
H	-0.3956521332	-0.524503051	-0.6941765626	 0.258048
H	 2.2059675159	-2.6200146825	 3.6684988929	 0.27724
H	 0.1747109934	-2.6733280652	 0.20789176	 0.116761
34.4159	104.9959	150.3574	194.0255	213.7095	332.5002	424.6973	442.6838	505.3962	574.9359	625.9011	670.6797	743.3558	753.824	791.0657	853.2312	972.6346	1017.1439	1077.1962	1158.4279	1170.0395	1177.6199	1266.5458	1302.9197	1407.7274	1431.5432	1458.0429	1472.7353	1512.025	1575.5091	1578.0525	1651.408	1819.7782	3045.5385	3104.7482	3142.862	3184.9995	3612.3066	3673.3281
CNC1=NC(=O)NN=C1	CNc1nc(=O)[nH]nc1	
InChI=1S/C4H6N4O/c1-5-3-2-6-8-4(9)7-3/h2H,1H3,(H2,5,7,8,9)	InChI=1S/C4H6N4O/c1-5-3-2-6-8-4(9)7-3/h2H,1H3,(H2,5,7,8,9)
