19
gdb 85888	1.81602	1.76215	1.18175	2.7327	71.73	-0.2422	-0.0209	0.2213	1116.7092	0.155853	-460.157453	-460.147768	-460.146823	-460.191753	36.036	
C	-0.2745345275	 1.5139515496	 0.1175188863	-0.462621
C	-0.0321164015	 0.014026416	-0.0044498706	 0.400118
O	-1.2124552659	-0.6754345762	-0.3539377166	-0.473222
C	 1.143560187	-0.3629138749	-0.9457345373	-0.290779
C	 2.0673108411	-0.5619965531	 0.2860017755	 0.077406
O	 2.8154201694	 0.589202851	 0.647842168	-0.429381
C	 0.7992186465	-0.6271531089	 1.1702922799	-0.145201
C	 0.8134111123	-0.0123368207	 2.5430508352	 0.146008
O	-0.1561288123	 0.4932245322	 3.0560916957	-0.267108
H	 0.6579980868	 2.0427533478	 0.3289223849	 0.132111
H	-0.6907080953	 1.8886380889	-0.8231597002	 0.115067
H	-0.9736221785	 1.7296475106	 0.9308730063	 0.133437
H	-1.9183480573	-0.363368261	 0.2234378206	 0.282388
H	 0.9338493552	-1.306687104	-1.4547912189	 0.11601
H	 1.4569941916	 0.3882942675	-1.6760959995	 0.097341
H	 2.7068042182	-1.4527859132	 0.2733274365	 0.073496
H	 3.4542293193	 0.7651763046	-0.0504443312	 0.28849
H	 0.4742849498	-1.6693469756	 1.2739228984	 0.116096
H	 1.783902571	-0.0654276706	 3.0819062769	 0.090343
65.6797	111.4045	157.1927	208.293	240.7621	282.3604	295.5863	316.5471	340.0964	375.8695	426.2403	444.1615	512.7236	602.4771	688.151	776.5425	838.3442	869.0305	925.8375	938.3583	958.098	982.7773	1049.2611	1096.7699	1114.2643	1127.5338	1167.0625	1173.255	1223.0251	1250.4857	1273.8166	1303.738	1333.6608	1381.7822	1402.2911	1411.9364	1423.7758	1464.3248	1489.7145	1503.9741	1809.3195	2899.3395	3021.8558	3039.4482	3050.0338	3060.0494	3114.1804	3122.6575	3129.8522	3800.7008	3816.7924
CC1(O)CC(O)C1C=O	C[C@@]1(O)C[C@@H](O)[C@H]1C=O	
InChI=1S/C6H10O3/c1-6(9)2-5(8)4(6)3-7/h3-5,8-9H,2H2,1H3	InChI=1S/C6H10O3/c1-6(9)2-5(8)4(6)3-7/h3-5,8-9H,2H2,1H3/t4-,5-,6-/m1/s1
