20
gdb 80072	2.44522	1.78497	1.4966	1.4785	83.75	-0.224	0.0155	0.2395	998.2772	0.173938	-365.985551	-365.977993	-365.977048	-366.017176	30.9	
C	-0.2851924164	 1.5156793409	-0.2617929437	-0.39843
C	-0.0285839954	 0.0467417149	-0.0078556376	-0.024634
C	 1.3313249685	-0.6231527919	-0.1902572872	-0.110877
C	 2.5730677942	 0.154433528	-0.3857711931	-0.064735
C	 3.1943221344	 0.8357426807	 0.5849142108	-0.05367
C	 2.6927172328	 0.8696597601	 1.9772185226	-0.077579
N	 1.4652723117	 1.666580191	 2.2499095847	-0.33684
C	 1.3945157101	 0.1952457685	 2.2742601947	-0.049246
C	 0.6761102011	-0.5546774155	 1.1871394825	-0.048379
H	 0.5798785593	 2.132767767	-0.0279444439	 0.148143
H	-0.557941878	 1.6640542222	-1.313382444	 0.09864
H	-1.117098882	 1.8756662502	 0.3527781598	 0.110439
H	-0.8423542095	-0.5855119896	-0.3579778376	 0.082557
H	 1.312598082	-1.5758893003	-0.7132708962	 0.082365
H	 3.0040030744	 0.1416767936	-1.3842602129	 0.087914
H	 4.1155710917	 1.3702330782	 0.3701749437	 0.085628
H	 3.4534733892	 0.8775518364	 2.7545392368	 0.082087
H	 1.4995705554	 2.0151594585	 3.2050196943	 0.227186
H	 1.3092629411	-0.2708831209	 3.2526272253	 0.079837
H	 0.2490486356	-1.4867296421	 1.544304571	 0.079593
132.9718	158.2324	227.2667	294.2294	310.9856	425.5014	503.3756	522.2833	564.173	672.2117	704.3088	739.9009	775.1235	817.3202	823.914	881.8945	895.0859	923.9602	951.099	965.737	993.6548	1001.3086	1058.1076	1083.1043	1094.2416	1106.8316	1143.7531	1148.7788	1161.7541	1197.2264	1220.41	1247.3381	1280.1974	1354.7503	1381.7324	1408.1288	1420.3819	1428.9414	1439.7808	1459.2555	1487.2236	1500.418	1694.9294	3031.0112	3085.6155	3114.1119	3123.1767	3129.4222	3132.7527	3146.3907	3153.4516	3170.459	3170.97	3490.9486
CC1C2C=CC3NC3C12	C[C@H]1[C@H]2C=C[C@H]3N[C@H]3[C@@H]12	
InChI=1S/C8H11N/c1-4-5-2-3-6-8(9-6)7(4)5/h2-9H,1H3	InChI=1S/C8H11N/c1-4-5-2-3-6-8(9-6)7(4)5/h2-9H,1H3/t4-,5+,6+,7-,8+/m0/s1
