18
gdb 61894	3.43511	0.7491	0.65522	3.9708	73.71	-0.2811	-0.0424	0.2387	1656.112	0.144917	-439.12528	-439.11517	-439.114226	-439.161484	35.142	
C	 0.0552691192	 1.42561686	 0.0555971778	-0.484609
C	 0.0593432723	-0.0777404461	-0.075576627	 0.366456
O	 1.0757671044	-0.7183374282	-0.2396403022	-0.312267
C	-1.2739557254	-0.8340461053	 0.0002633601	 0.028063
O	-1.0497421723	-2.2038988093	-0.1864304202	-0.43594
C	-1.9933774832	-0.5805228749	 1.3384112957	-0.21061
C	-3.2775570929	-1.4270679734	 1.4297123911	-0.336159
C	-3.976586859	-1.2362415381	 2.6973618032	 0.254993
N	-4.5166086802	-1.0681891857	 3.7051246261	-0.304176
H	 1.0074091092	 1.8274833202	-0.2926310903	 0.156617
H	-0.7727417916	 1.8732274391	-0.5022878232	 0.144301
H	-0.0770408582	 1.7015232026	 1.1083444084	 0.162214
H	-1.9111447584	-0.4445787374	-0.8145270027	 0.092408
H	-0.0858914589	-2.2915781479	-0.2828319812	 0.297351
H	-1.3260220082	-0.8492298987	 2.1643199364	 0.131111
H	-2.2418171036	 0.4803974853	 1.4416145491	 0.120543
H	-3.9610689927	-1.1717015008	 0.611169085	 0.149945
H	-3.0194143608	-2.4832818616	 1.3109354538	 0.179759
53.6804	82.8212	98.9135	107.7084	123.4435	221.2831	258.1936	328.587	395.4478	405.4597	457.0263	481.0249	526.4864	602.345	640.564	776.4126	814.8256	939.813	950.0407	973.5265	996.9144	1055.3286	1090.8684	1142.4345	1189.324	1222.0168	1253.4537	1293.1338	1316.4237	1362.8477	1379.6127	1388.9667	1437.4821	1463.1626	1468.3124	1475.2847	1486.4888	1798.4082	2363.0982	2943.6755	3040.8203	3042.8189	3051.9695	3091.0432	3105.0986	3109.7127	3154.4835	3650.5262
CC(=O)C(O)CCC#N	CC(=O)[C@@H](O)CCC#N	
InChI=1S/C6H9NO2/c1-5(8)6(9)3-2-4-7/h6,9H,2-3H2,1H3	InChI=1S/C6H9NO2/c1-5(8)6(9)3-2-4-7/h6,9H,2-3H2,1H3/t6-/m0/s1
