19
gdb 84069	2.34601	1.5518	1.04634	2.9394	78.87	-0.2458	-0.0488	0.1969	1181.9614	0.158221	-423.072099	-423.062799	-423.061855	-423.106115	34.282	
C	 0.0928632176	 1.5840457504	-0.0062453624	-0.377117
C	-0.0415614358	 0.0524744686	 0.0327673266	-0.08898
C	 0.6558375347	-0.6129323182	-1.1348465337	-0.150599
C	 1.7938827067	-1.2534605277	-0.8152354784	 0.20635
C	 2.7846507037	-1.9387224438	-1.698653435	-0.496795
C	 1.9937039865	-1.1079883307	 0.6432476385	 0.287208
O	 3.0009073753	-1.2961580034	 1.293399985	-0.353187
C	 0.6837422371	-0.5896873336	 1.2418824537	 0.041805
O	 0.9048274179	 0.2547039027	 2.3397949024	-0.43519
H	 1.1444251814	 1.8845345124	-0.003403007	 0.122643
H	-0.3774020101	 1.9889657335	-0.907848215	 0.109252
H	-0.3848656896	 2.0281478554	 0.8695557263	 0.138637
H	-1.1093225099	-0.1979505643	 0.0314660834	 0.085401
H	 0.2686189243	-0.5237294444	-2.1462852907	 0.108837
H	 3.7845842778	-1.5203984262	-1.541799632	 0.148936
H	 2.8537430196	-3.00531184	-1.4564288928	 0.140563
H	 2.5225753381	-1.8402134562	-2.7549426276	 0.124548
H	 0.110323678	-1.482756599	 1.5492529144	 0.095129
H	 1.7839523767	 0.0189112845	 2.6721809745	 0.292562
74.8389	113.1901	147.6284	213.4872	228.1835	254.0676	257.3824	344.3808	398.2983	415.8977	511.0664	557.9372	583.5815	679.8963	715.572	835.9266	858.5578	911.6973	937.3285	979.3407	1032.2952	1060.9997	1067.4413	1092.5131	1108.8526	1180.8279	1212.6323	1249.4396	1311.7095	1332.9746	1347.7313	1373.112	1401.8076	1413.2134	1416.8701	1474.517	1486.2209	1490.8134	1493.9314	1682.9572	1801.7327	2939.9607	3030.2898	3035.7124	3043.3587	3090.4803	3113.5727	3122.4337	3133.4914	3172.1643	3718.7021
CC1C=C(C)C(=O)C1O	C[C@H]1C=C(C)C(=O)[C@H]1O	
InChI=1S/C7H10O2/c1-4-3-5(2)7(9)6(4)8/h3-4,6,8H,1-2H3	InChI=1S/C7H10O2/c1-4-3-5(2)7(9)6(4)8/h3-4,6,8H,1-2H3/t4-,6-/m0/s1
