16
gdb 39248	2.78803	2.32955	1.64048	3.8536	67.42	-0.2435	-0.0053	0.2382	826.8154	0.127017	-437.849079	-437.84295	-437.842006	-437.879428	25.08	
C	-0.0160730634	 1.4708350153	-0.3193506578	-0.085428
O	 1.0711968355	 2.1068520393	 0.3595683736	-0.277567
C	 2.034000754	 1.159236735	 0.851436172	 0.077847
C	 2.1578696326	 1.3197682143	 2.4086836104	-0.172159
N	 0.8612575354	 0.7898184721	 2.9459652984	-0.279055
C	 0.4769966766	 0.033391194	 2.0128138995	 0.378427
O	-0.7534773608	-0.2118434887	 1.4437634628	-0.281888
C	-0.0797479049	 0.0047641086	 0.1219693579	 0.049294
C	 1.3007066128	-0.1727657532	 0.7705596058	-0.187393
H	-0.9308319472	 2.0238011767	-0.0895646745	 0.136838
H	 0.1461539509	 1.491355239	-1.4082481631	 0.105533
H	 2.9815083838	 1.2543974926	 0.3097422268	 0.077658
H	 3.0374215374	 0.7926035157	 2.8007015099	 0.107006
H	 2.2322605461	 2.373066056	 2.6896895544	 0.132965
H	-0.4699763761	-0.6959999459	-0.6141684108	 0.108795
H	 1.8510763773	-1.0999168907	 0.6366138349	 0.109128
145.7792	263.9955	345.5835	371.2022	495.3948	591.0043	665.4981	701.4741	758.5717	805.8335	820.0482	853.4852	884.6385	901.0918	919.5669	961.4051	971.356	988.1604	1029.6587	1044.6866	1089.3837	1118.6797	1165.9589	1196.7991	1230.3971	1255.6194	1263.4806	1277.254	1312.088	1327.1479	1339.4706	1384.3241	1471.953	1494.3482	1737.9634	2988.5523	3027.0964	3052.3548	3096.7022	3108.6421	3137.448	3159.7761
C1OC2CN=C3OC1C23	C1O[C@H]2C[N][C]3O[C@@H]1[C@@H]23	
InChI=1S/C6H7NO2/c1-3-5-4(2-8-3)9-6(5)7-1/h3-5H,1-2H2	InChI=1S/C6H7NO2/c1-3-5-4(2-8-3)9-6(5)7-1/h3-5H,1-2H2/t3-,4-,5+/m0/s1
