12
gdb 21793	6.64955	1.16738	1.08576	2.277	57.94	-0.269	-0.0577	0.2112	1015.531	0.082391	-414.642531	-414.635495	-414.634551	-414.675178	23.878	
O	-0.4766372227	 0.4266114833	 0.6583642988	-0.216215
C	 0.100454368	 0.889272011	-0.2856306192	 0.159108
C	 1.2851414663	 1.8534219776	-0.1552606659	-0.39047
C	 1.2326188846	 2.9595959118	-1.1483691962	 0.390113
C	 1.0187845852	 4.3005659226	-1.0464975474	-0.201028
N	 1.054469937	 4.8096682234	-2.3221700484	-0.098275
N	 1.2622692137	 3.9051343882	-3.1638897791	-0.003138
O	 1.3874150915	 2.6592420064	-2.4378035928	-0.21894
H	-0.1735354657	 0.6344074282	-1.3312698987	 0.111771
H	 1.3124871451	 2.2406944107	 0.8646808342	 0.153716
H	 2.1945400189	 1.2594679592	-0.3220946671	 0.164548
H	 0.8505894081	 4.9209864675	-0.1833298982	 0.148809
48.6546	72.4821	144.8162	292.6023	365.6558	443.3491	603.0974	658.4261	697.2572	737.2411	806.6009	824.2623	985.9334	1021.2053	1036.0352	1054.0545	1119.8355	1193.4741	1241.5014	1290.2732	1377.9418	1419.0543	1444.577	1466.9094	1607.0926	1844.908	2916.6422	3027.8896	3129.5588	3294.1734
O=CCC1=CN=NO1	O=CCc1cnno1	
InChI=1S/C4H4N2O2/c7-2-1-4-3-5-6-8-4/h2-3H,1H2	InChI=1S/C4H4N2O2/c7-2-1-4-3-5-6-8-4/h2-3H,1H2
