14
gdb 123941	3.60955	1.67641	1.18169	4.4699	63.25	-0.2152	-0.0006	0.2145	959.7548	0.103466	-473.797934	-473.791571	-473.790627	-473.828756	24.818	
C	-0.0033608284	 1.3959372863	 0.0050443851	-0.107609
C	 1.4322405074	 1.9363974242	 0.0209979254	-0.113542
O	 2.1349844771	 1.5567808624	 1.206653703	-0.27356
C	 1.9101382054	 0.2304007453	 1.446992528	 0.117069
C	 0.9033197606	-0.4846835399	 0.8739925321	 0.419388
O	 0.9245646172	-1.7545576368	 1.2621733521	-0.222134
N	 2.0104865788	-1.9123518289	 2.1574176223	-0.150926
C	 2.5750156506	-0.7252168199	 2.2448987216	-0.083203
O	-0.0312285596	-0.0495552872	 0.0244267833	-0.260154
H	-0.5573636488	 1.7680825958	 0.8743846171	 0.136589
H	-0.5165474104	 1.6958285708	-0.9100439865	 0.138042
H	 1.9718325541	 1.5657218074	-0.8611429228	 0.126506
H	 1.4160916219	 3.0282825349	-0.0007214995	 0.132024
H	 3.4395866743	-0.6015004543	 2.8809294389	 0.14151
127.5225	241.6623	337.9953	382.9866	424.5058	471.555	542.6094	626.5735	696.7567	715.1119	729.2558	863.93	883.983	897.2111	927.6132	946.0843	1056.652	1073.4495	1115.1238	1197.2324	1212.3335	1272.6057	1295.7838	1358.3221	1384.672	1396.2349	1438.0818	1483.8653	1489.6399	1551.5911	1708.7314	3020.5156	3049.7154	3116.8487	3131.4851	3248.2065
C1COC2=C(ON=C2)O1	C1COc2c(onc2)O1	
InChI=1S/C5H5NO3/c1-2-8-5-4(7-1)3-6-9-5/h3H,1-2H2	InChI=1S/C5H5NO3/c1-2-8-5-4(7-1)3-6-9-5/h3H,1-2H2
