21
gdb 59216	2.8823	1.23724	1.15483	1.4348	77.01	-0.2414	0.067	0.3085	1184.1026	0.183391	-424.203945	-424.195426	-424.194482	-424.237177	33.331	
C	 0.1331812209	 1.584717934	-0.062317861	-0.404823
C	 0.1620860252	 0.0602945367	 0.0609897429	 0.096719
O	 0.81098116	-0.3578939957	 1.263260528	-0.434339
C	-1.2320854131	-0.5473856101	-0.0200569691	 0.018047
C	-2.0518286634	-0.7020504319	-1.3290177533	 0.045339
C	-1.1250865516	-1.4805428662	-2.2881942246	-0.22071
C	-0.6667471033	-2.5769206238	-1.2734888021	-0.223091
C	-1.4806356556	-2.076201829	-0.063128591	 0.055925
O	-2.7798434326	-1.7889540756	-0.6775280986	-0.302625
H	 1.1427849505	 1.9917155629	 0.0385166115	 0.12567
H	-0.2730490184	 1.8971457892	-1.030372669	 0.119296
H	-0.4956596174	 2.0268626302	 0.720431953	 0.108219
H	 0.7968019915	-0.3432928655	-0.7344675598	 0.088641
H	 0.2903380393	-0.0285502465	 2.00462016	 0.27646
H	-1.882490362	-0.1086023384	 0.7451956163	 0.073054
H	-2.6908252913	 0.0839383373	-1.7321997342	 0.076291
H	-1.6926729355	-1.892105501	-3.1249499295	 0.108083
H	-0.3058107437	-0.8778878312	-2.6901694139	 0.09877
H	-0.981931493	-3.5796508764	-1.5678081056	 0.106848
H	 0.4104215603	-2.5906174586	-1.0898553426	 0.109796
H	-1.536032087	-2.6955750406	 0.8311782226	 0.078433
58.8281	151.0622	181.2092	243.3176	279.6455	309.8764	331.5118	441.0794	448.2338	519.5354	568.2309	739.1349	806.454	841.0544	849.8423	863.852	871.3916	897.4694	924.6276	956.5729	992.2266	1007.4675	1009.8274	1046.9404	1074.8718	1101.7009	1127.4414	1168.2548	1191.7967	1199.4854	1213.3993	1246.7508	1271.3531	1276.0644	1308.7298	1310.9816	1337.0316	1345.4411	1402.3321	1414.2515	1427.2831	1483.4724	1490.2858	1495.7715	1503.1822	3025.1105	3046.6074	3062.5002	3064.791	3074.3884	3094.6474	3109.7545	3118.3147	3119.5572	3126.457	3132.795	3795.2409
CC(O)C1C2CCC1O2	C[C@@H](O)[C@H]1[C@H]2CC[C@@H]1O2	
InChI=1S/C7H12O2/c1-4(8)7-5-2-3-6(7)9-5/h4-8H,2-3H2,1H3	InChI=1S/C7H12O2/c1-4(8)7-5-2-3-6(7)9-5/h4-8H,2-3H2,1H3/t4-,5-,6+,7+/m1/s1
