18
gdb 105321	2.44939	1.51935	1.15609	4.6637	75.81	-0.238	0.0185	0.2565	1110.3027	0.147996	-398.073566	-398.06501	-398.064066	-398.106671	32.131	
C	 0.080914397	 1.4584439097	-0.1056872112	-0.34355
N	-0.0144607695	 0.0260922201	 0.1640243469	-0.334176
C	-1.3345016036	-0.5456991829	 0.0153895157	 0.141976
C	-2.0991703848	-0.6211312368	-1.3731107188	-0.219225
N	-2.2391941603	-2.1124263475	-1.2735588	-0.114429
C	-0.86529397	-2.6329049307	-1.2633301572	-0.257907
C	-1.4046953223	-2.0780787352	-0.0048280812	-0.065835
C	-2.2207323197	 0.012767481	 1.0465464022	 0.29704
N	-2.9271044283	 0.4613627066	 1.8434505008	-0.344368
H	 1.121140651	 1.7720853356	 0.0104823535	 0.13037
H	-0.2596110463	 1.7516439849	-1.1128430254	 0.104765
H	-0.5184753774	 2.0081096419	 0.62618875	 0.155118
H	 0.6392077956	-0.4944453222	-0.4077714961	 0.225711
H	-3.0772322622	-0.1402930888	-1.3709551811	 0.140797
H	-1.5208249112	-0.285499266	-2.2403250188	 0.1115
H	-0.8157004416	-3.7151136413	-1.3322797515	 0.137185
H	-0.0969712049	-2.1109378949	-1.830694094	 0.111438
H	-1.6360021617	-2.6895968735	 0.8596901564	 0.123591
104.5637	136.598	166.1896	187.5699	197.5231	291.8629	387.1068	424.0982	499.0958	516.7613	573.2522	626.5066	727.9999	757.1666	779.7156	851.0977	912.7236	952.5011	982.6441	1023.2454	1060.0155	1084.4186	1094.9591	1116.7603	1123.4777	1159.8961	1186.2835	1203.6856	1229.4788	1269.0238	1279.2846	1364.1584	1460.42	1473.8426	1485.7546	1494.7309	1505.823	1518.1243	2357.8755	2966.8859	3050.173	3079.7144	3101.8134	3123.5928	3137.7694	3182.3869	3198.8845	3555.4414
CNC1(CN2CC12)C#N	CN[C@]1(CN2C[C@@H]12)C#N	
InChI=1S/C6H9N3/c1-8-6(3-7)4-9-2-5(6)9/h5,8H,2,4H2,1H3	InChI=1S/C6H9N3/c1-8-6(3-7)4-9-2-5(6)9/h5,8H,2,4H2,1H3/t5-,6-,9?/m0/s1
