23
gdb 6896	2.88552	1.40441	1.27566	1.2599	82.79	-0.2099	0.0794	0.2893	1152.9877	0.209228	-330.309317	-330.299034	-330.298089	-330.343807	37.715	
C	 3.9222550345	 0.1971344427	 0.3513680617	-0.376451
C	 2.4620042779	-0.2721682644	 0.4063414655	-0.20771
C	 1.9404135716	-0.6930159371	-0.9550319365	-0.025191
N	 2.1299751481	-2.0304649945	-1.5366846143	-0.131543
C	 2.8145112877	-3.0802928066	-0.8004499733	-0.316935
C	 0.769806189	-1.6059457639	-1.1727257134	 0.298478
C	 0.0334137991	-2.2283346592	 0.0013364165	-0.455883
C	-0.1272429153	-1.3588608943	-2.3731526678	-0.434426
H	 4.5870754231	-0.6106876082	 0.029399752	 0.122127
H	 4.0422420983	 1.0241081347	-0.3568325444	 0.11734
H	 4.2635592242	 0.5436463049	 1.3317865785	 0.110292
H	 2.3646562306	-1.0765416459	 1.139997337	 0.096437
H	 1.8311215983	 0.548243605	 0.7732857218	 0.099943
H	 2.0762182307	 0.0957561173	-1.6991966265	 0.073066
H	 2.6902740916	-3.0699666464	 0.2920353488	 0.097065
H	 2.4621005442	-4.0516174246	-1.1636664238	 0.119654
H	 3.8871250566	-3.0181239873	-1.0137495482	 0.120814
H	 0.6610959811	-2.3911192909	 0.8779835684	 0.116666
H	-0.7983483025	-1.5837479293	 0.3063139604	 0.119089
H	-0.395318832	-3.195401482	-0.287278655	 0.117323
H	-0.591152259	-2.2931205672	-2.7114554341	 0.110509
H	-0.9322616817	-0.6566823984	-2.1263464268	 0.106933
H	 0.4509162538	-0.9505978845	-3.2053537767	 0.122405
73.64	130.3995	163.9661	167.3623	190.1277	206.8915	244.8825	268.1146	293.8851	314.1581	376.1683	468.4163	490.1735	546.4067	692.2991	732.7946	756.8492	844.1711	940.3378	951.1108	1000.8125	1006.1715	1050.4477	1070.286	1130.5073	1135.5072	1143.0202	1153.9872	1182.0292	1203.345	1277.8748	1291.531	1338.1836	1368.7701	1404.222	1411.429	1417.6356	1437.219	1459.6381	1472.9185	1479.9416	1486.3171	1494.9734	1499.3336	1500.6639	1505.3121	1508.1398	1515.0797	2990.7539	3022.9418	3024.4787	3033.0818	3033.9943	3059.7917	3061.5403	3081.1069	3084.7874	3086.1317	3091.032	3106.1258	3108.6015	3121.5145	3137.3228
CCC1N(C)C1(C)C	CC[C@H]1N(C)C1(C)C	
InChI=1S/C7H15N/c1-5-6-7(2,3)8(6)4/h6H,5H2,1-4H3	InChI=1S/C7H15N/c1-5-6-7(2,3)8(6)4/h6H,5H2,1-4H3/t6-,8?/m1/s1
