14
gdb 27038	2.43125	1.4967	0.93177	3.8295	71.26	-0.2399	-0.0694	0.1705	1173.0931	0.099656	-473.860228	-473.852167	-473.851222	-473.893188	28.875	
C	 0.1526886149	 1.4925818979	 0.066399048	-0.49397
C	-0.0263774231	 0.0240698239	 0.0375303652	 0.283117
C	-1.0958791483	-0.7895323079	-0.0694507104	 0.120605
O	-0.6502935616	-2.1044124566	-0.0389748129	-0.232219
C	 0.7089415587	-2.0663887924	 0.0885132004	 0.49491
N	 1.5320664286	-3.0062888737	 0.1574826112	-0.568329
O	 1.0984378776	-0.7430830174	 0.1361812442	-0.214053
C	-2.5100396969	-0.4967974937	-0.1996361915	 0.0657
O	-3.3838507206	-1.3288245773	-0.2891087885	-0.272536
H	 0.7989177135	 1.8126879545	-0.7578297997	 0.16652
H	-0.806995806	 2.0035086033	-0.0185920691	 0.154671
H	 0.6356118158	 1.7982632892	 1.0006041197	 0.166511
H	 1.0616450926	-3.9060573627	 0.1057588227	 0.247989
H	-2.7290140352	 0.5922914229	-0.2104872793	 0.081083
116.7641	151.8557	164.5995	175.327	223.9624	275.7902	382.7066	451.7711	556.0425	627.582	628.3169	715.2535	731.4341	791.7663	839.6141	934.4852	994.7028	1000.1797	1026.5393	1060.4352	1103.9659	1250.3939	1311.3906	1365.4594	1422.6503	1428.5723	1464.5096	1479.4505	1714.7838	1783.5815	1823.7801	2899.7747	3044.1132	3100.2638	3151.4561	3550.5977
CC1=C(OC(=N)O1)C=O	CC1=C(O[C@@H]([NH])O1)C=O	
InChI=1S/C5H5NO3/c1-3-4(2-7)9-5(6)8-3/h2,6H,1H3	InChI=1S/C5H6NO3/c1-3-4(2-7)9-5(6)8-3/h2,5-6H,1H3/t5-/m0/s1
