19
gdb 46785	2.82201	1.58905	1.24222	4.2732	74.96	-0.2584	0.0094	0.2678	1044.6413	0.161384	-423.05048	-423.042835	-423.041891	-423.083353	29.567	
O	-0.0742991793	 0.0205561003	-0.613967692	-0.305942
C	-0.0138498617	 1.1144154629	-0.1214508417	 0.383094
C	-1.275171325	 1.9788636299	-0.0221399263	-0.334891
C	-1.2876353108	 3.2572586213	 0.805423815	-0.008308
C	-0.0989191843	 4.2169790965	 0.5147079651	-0.240185
C	 0.6465492153	 3.5572574785	 1.706600007	-0.020446
C	-0.7238516718	 3.0582162318	 2.2379902187	-0.240211
C	 1.596702086	 2.4477437937	 1.2885661458	-0.077919
O	 1.2151496643	 1.6123841648	 0.1846677813	-0.236389
H	-1.5176238996	 2.214557753	-1.0670560174	 0.140453
H	-2.0648199025	 1.3003468418	 0.3165379741	 0.137222
H	-2.2846983058	 3.7003990734	 0.7384470052	 0.074415
H	 0.371598911	 4.1553070662	-0.4702598617	 0.106688
H	-0.3559467016	 5.2582813313	 0.7223282735	 0.103363
H	 1.2049208282	 4.2237738711	 2.3713800165	 0.077208
H	-1.1595331797	 3.7578272994	 2.9555597683	 0.103497
H	-0.7683254079	 2.0495331355	 2.6624497738	 0.099565
H	 2.5477198304	 2.8801639097	 0.9631043944	 0.123169
H	 1.8048338845	 1.7918295686	 2.1447249703	 0.115617
40.6735	102.6489	273.7639	295.9361	330.7621	358.2307	483.2625	519.9888	563.1841	681.7619	718.6302	807.4845	813.2918	845.0195	882.3883	886.1046	904.3893	977.5621	1006.4987	1061.1764	1070.47	1080.3731	1116.0629	1126.5524	1169.5398	1177.5366	1212.1397	1235.3908	1257.4346	1285.7668	1292.096	1327.2067	1339.7508	1362.3036	1382.2486	1430.208	1450.5287	1475.7105	1500.9807	1507.4983	1823.4974	3016.8587	3030.5529	3043.9465	3054.6588	3061.6518	3069.9033	3082.9736	3083.1891	3104.169	3115.4418
O=C1CC2CC(C2)CO1	O=C1C[C@@H]2C[C@@H](C2)CO1	
InChI=1S/C7H10O2/c8-7-3-5-1-6(2-5)4-9-7/h5-6H,1-4H2	InChI=1S/C7H10O2/c8-7-3-5-1-6(2-5)4-9-7/h5-6H,1-4H2/t5-,6+
