15
gdb 46823	2.65533	1.62021	1.17221	2.2729	72.59	-0.2395	-0.0298	0.2097	1031.2774	0.111148	-420.591132	-420.583276	-420.582332	-420.623536	29.869	
O	-0.0061874681	 0.0475704594	 0.2286863143	-0.294243
C	-0.0059170916	 1.2336892153	 0.0442294987	 0.307309
C	-1.2512712098	 2.100517172	-0.2030765427	-0.196962
O	-0.8090147414	 3.3558593512	-0.6986903349	-0.256281
C	 0.570400854	 3.48564752	-0.4875635062	 0.07481
C	 1.0756575492	 3.3761698086	 0.9017267085	-0.345
C	 1.1842717953	 2.1546710057	-0.0515784049	 0.000073
C	 2.4595699788	 1.660890694	-0.4520740052	 0.196179
C	 3.5354607729	 1.2450706198	-0.7910730926	-0.383147
H	-1.8986341483	 1.6237721596	-0.9450399403	 0.150551
H	-1.8239279434	 2.2109470512	 0.728617831	 0.135014
H	 1.0512789959	 4.1219285765	-1.2199972119	 0.13357
H	 2.0267620666	 3.8381341893	 1.1371482491	 0.148613
H	 0.3690562764	 3.3221533124	 1.7227372164	 0.135865
H	 4.4820593835	 0.8690175649	-1.0910493993	 0.193649
102.4504	130.0219	167.9076	215.406	384.2597	414.3243	456.7563	505.7792	557.8865	593.7075	611.5511	634.1454	656.3482	690.3948	828.535	868.4422	876.7902	993.422	1008.8672	1013.8576	1048.1527	1067.5196	1080.0299	1168.3902	1208.0409	1241.6189	1295.4947	1329.9536	1395.9192	1475.3732	1486.441	1851.4331	2242.901	3012.8936	3087.7911	3142.3677	3200.6753	3239.5812	3502.9764
O=C1COC2CC12C#C	O=C1CO[C@H]2C[C@@]12C#C	
InChI=1S/C7H6O2/c1-2-7-3-6(7)9-4-5(7)8/h1,6H,3-4H2	InChI=1S/C7H6O2/c1-2-7-3-6(7)9-4-5(7)8/h1,6H,3-4H2/t6-,7-/m0/s1
