21
gdb 36769	6.40517	0.59341	0.56389	1.0286	86.15	-0.2504	0.0549	0.3053	1970.5318	0.180781	-387.039966	-387.030131	-387.029187	-387.075977	35.621	
C	 0.164446401	-1.2521760873	-0.3107753189	-0.450156
C	 0.1393910078	-0.0977710329	 0.022594228	 0.28788
C	 0.1421414321	 1.305888468	 0.4109996811	-0.350353
C	 1.4215408898	 2.0282506268	-0.0258268485	-0.061083
O	 1.3170058582	 3.3690527238	 0.4007334115	-0.252515
C	 2.4388535056	 4.1525494185	 0.0879519825	 0.177017
C	 2.6368012248	 4.6514044395	-1.3732529445	-0.246188
C	 3.0367052457	 6.0313467321	-0.7803126497	-0.217779
C	 2.3431490149	 5.6193868092	 0.5480937752	-0.250622
H	 0.1727203667	-2.2739241508	-0.5988973856	 0.195558
H	-0.7186005029	 1.8242288659	-0.0279484249	 0.139068
H	 0.0410401585	 1.4014040547	 1.4985639748	 0.139522
H	 2.3018320484	 1.5413890787	 0.4233721901	 0.099067
H	 1.5323945858	 1.9649524205	-1.1188165149	 0.103573
H	 3.3557030046	 3.6698192589	 0.462369856	 0.063993
H	 3.3562039681	 4.1324772033	-2.0107082709	 0.095893
H	 1.6701547463	 4.6997821259	-1.8836491125	 0.107524
H	 4.1196208322	 6.1265059377	-0.6639168574	 0.104986
H	 2.6637117321	 6.9232111125	-1.2867400023	 0.103073
H	 1.2944528985	 5.9288048321	 0.5667597745	 0.113176
H	 2.8142387819	 5.892593633	 1.4945671463	 0.098364
44.6203	64.5128	82.6581	125.4336	157.2195	221.4537	313.7212	355.1305	392.6397	463.2678	541.3058	621.3376	639.2079	647.6631	765.7653	786.6624	797.9764	901.3092	925.3369	946.2599	960.1906	986.2931	1044.5963	1060.8426	1080.2651	1090.962	1149.9011	1182.7225	1192.4937	1228.5412	1246.076	1247.2911	1258.8986	1273.3818	1300.959	1302.5365	1308.7453	1378.2556	1436.8223	1471.6451	1477.1984	1486.2716	1508.7092	1527.0323	2241.6705	2970.6637	2978.8506	3010.7179	3035.4469	3056.159	3063.8541	3067.6394	3072.9843	3108.266	3116.5598	3129.0861	3507.8452
C#CCCOC1CCC1	C#CCCOC1CCC1	
InChI=1S/C8H12O/c1-2-3-7-9-8-5-4-6-8/h1,8H,3-7H2	InChI=1S/C8H12O/c1-2-3-7-9-8-5-4-6-8/h1,8H,3-7H2
