19
gdb 126518	3.05501	0.99346	0.79505	3.8773	78.68	-0.2056	0.025	0.2306	1461.3656	0.159671	-419.229457	-419.219958	-419.219014	-419.264948	34.074	
C	-0.1065159611	 1.5981500104	 0.0657609494	-0.380614
C	-0.0698878948	 0.0690032592	 0.0335539591	-0.152748
C	 0.8028576926	-0.5315873442	 1.1550779137	-0.332763
C	 0.866168738	-2.0245503945	 1.1534416276	 0.245738
C	 1.8281393907	-2.9073497129	 0.6909445554	 0.167094
O	 3.0372555774	-2.6493588894	 0.1152921882	-0.445374
C	 1.3161336035	-4.1985203466	 0.934380629	-0.067151
N	 0.1158856721	-4.1397925966	 1.5076351621	-0.226768
N	-0.1353619407	-2.8272203797	 1.6259709265	-0.25005
H	 0.896361666	 2.0225431268	-0.0568954459	 0.11545
H	-0.735798156	 1.9967032039	-0.735471635	 0.119225
H	-0.5053737704	 1.96641868	 1.0176304791	 0.116423
H	-1.0876267312	-0.3306051683	 0.1215716334	 0.100667
H	 0.3068436096	-0.2800619461	-0.9350740587	 0.107801
H	 1.8234156538	-0.1335680186	 1.0674205649	 0.095889
H	 0.4383216624	-0.1729743428	 2.1276300737	 0.112155
H	 3.1694947101	-1.6972701595	 0.0730725148	 0.293827
H	 1.777840448	-5.1492133797	 0.7159893289	 0.113414
H	-0.99553794	-2.5338113016	 2.0564539736	 0.267785
31.2355	79.185	106.0208	181.5629	236.7469	253.8612	284.6541	311.6953	380.3573	438.223	468.3491	660.3308	690.5269	703.3479	739.4154	771.5845	861.3679	863.84	895.4793	950.811	1041.5201	1068.7589	1108.5774	1120.3982	1155.501	1228.1922	1250.9136	1276.5429	1304.2986	1311.7175	1341.3172	1379.3766	1413.6355	1427.2384	1451.0657	1482.6311	1491.7295	1499.3372	1509.1574	1554.2268	1640.3322	3003.2073	3029.0238	3031.2643	3033.2907	3065.8297	3097.0876	3107.1894	3256.2751	3672.2137	3827.2378
CCCC1=C(O)C=NN1	CCCc1c(O)cn[nH]1	
InChI=1S/C6H10N2O/c1-2-3-5-6(9)4-7-8-5/h4,9H,2-3H2,1H3,(H,7,8)	InChI=1S/C6H10N2O/c1-2-3-5-6(9)4-7-8-5/h4,9H,2-3H2,1H3,(H,7,8)
