19
gdb 114347	2.67848	1.50902	1.32105	2.1721	70.81	-0.2218	0.0742	0.2961	1054.8118	0.159729	-460.140647	-460.132388	-460.131444	-460.173474	31.675	
C	 0.5906092236	 1.022449497	-0.3885458156	-0.252248
O	 0.5626772356	-0.3694735787	-0.0921681828	-0.247454
C	 0.6383865677	-0.6542425404	 1.2954584767	 0.171754
C	 0.5365803413	-2.1813339698	 1.4802809727	-0.274228
C	 1.9557530177	-2.6326802013	 1.7948683981	-0.156952
C	 3.0562035584	-2.2289394209	 0.8220856531	 0.105535
O	 2.8549737916	-1.8965378367	-0.5066561094	-0.438756
C	 2.7359377959	-1.3500795191	 2.0071838588	 0.032387
O	 1.8738097019	-0.2417353874	 1.837190947	-0.256997
H	 1.5247407627	 1.4819158531	-0.0500092631	 0.139687
H	 0.5031503861	 1.1170974269	-1.472328622	 0.135109
H	-0.256083921	 1.5352440015	 0.0884452849	 0.116616
H	-0.1464936344	-0.0787235227	 1.8041606758	 0.087923
H	-0.1256278953	-2.415539245	 2.317940883	 0.115427
H	 0.1162911887	-2.6306058808	 0.5769115282	 0.130258
H	 2.0857436854	-3.5051455073	 2.4252645961	 0.090165
H	 3.9763261918	-2.7979701453	 0.9260375784	 0.103288
H	 2.0777050783	-1.3174523168	-0.5781614131	 0.299604
H	 3.445082344	-1.1794001264	 2.8096973231	 0.098883
98.511	140.3884	155.5784	211.463	244.4241	295.9956	421.0544	507.1281	536.5985	566.3764	643.0102	713.9192	741.7387	749.4124	793.541	824.2955	913.4044	983.4814	994.423	1016.3537	1066.4549	1083.316	1095.7002	1101.3354	1105.1181	1148.0324	1181.7964	1195.3223	1225.334	1236.2585	1293.6106	1306.3727	1349.3001	1372.1968	1396.3808	1408.6164	1472.1732	1484.0918	1485.1435	1495.9911	1513.6652	3008.8192	3019.8693	3066.8639	3086.4332	3112.1838	3137.043	3146.3072	3163.6917	3174.4602	3629.977
COC1CC2C(O)C2O1	CO[C@H]1C[C@H]2[C@@H](O)[C@H]2O1	
InChI=1S/C6H10O3/c1-8-4-2-3-5(7)6(3)9-4/h3-7H,2H2,1H3	InChI=1S/C6H10O3/c1-8-4-2-3-5(7)6(3)9-4/h3-7H,2H2,1H3/t3-,4+,5+,6-/m0/s1
