19
gdb 56586	2.92293	1.06538	0.86075	2.9827	76.06	-0.2638	0.0261	0.29	1346.7609	0.158293	-419.189723	-419.179895	-419.178951	-419.224744	35.364	
C	-0.1593976857	 1.7017471554	-0.201366496	-0.415249
C	-0.0281964789	 0.1755819113	-0.1046362608	-0.006511
C	-1.4219691438	-0.4966396655	 0.01466136	-0.120592
N	-1.3374522386	-1.9400439493	-0.1915875544	-0.498903
C	-2.0444891793	-0.1259716349	 1.3063533766	 0.258576
N	-2.5360611656	 0.120765083	 2.3238919503	-0.330714
C	 0.7403830871	-0.385492807	-1.2842496871	 0.085812
C	 2.2090660923	-0.3750527371	-1.2949455817	-0.186371
O	 1.4822855415	-1.5836586145	-1.063296809	-0.23529
H	 0.8265366593	 2.173895514	-0.2008026688	 0.126154
H	-0.6713334431	 1.9952183064	-1.1248259833	 0.122438
H	-0.728332275	 2.103413746	 0.641702456	 0.147351
H	 0.5423366947	-0.0810346399	 0.7968472393	 0.099264
H	-2.0667284837	-0.0861084226	-0.7746220301	 0.126426
H	-0.6126999507	-2.3425820933	 0.3944516954	 0.250395
H	-2.2150651276	-2.3889734835	 0.0483785017	 0.244397
H	 0.2188796276	-0.3553299599	-2.242202488	 0.099043
H	 2.7452741411	-0.325668528	-2.241118906	 0.119234
H	 2.7499341585	 0.0184331595	-0.4346821041	 0.114539
52.4196	103.0759	132.7348	190.5546	222.0796	231.1821	240.9342	286.7072	333.5626	374.3423	415.6203	508.99	567.1096	604.5642	815.6275	824.7885	868.3807	882.3504	948.8388	952.1443	978.3715	1063.0256	1075.2598	1099.3328	1147.7355	1157.7545	1161.7992	1191.5319	1224.9191	1289.4181	1292.8881	1325.2573	1362.7241	1385.7945	1415.9805	1446.4302	1500.6301	1501.607	1530.9147	1659.9832	2340.9416	3013.8866	3035.2523	3040.3899	3083.0941	3101.2971	3107.934	3122.5872	3170.3926	3506.6601	3592.6568
CC(C(N)C#N)C1CO1	C[C@@H]([C@@H](N)C#N)[C@H]1CO1	
InChI=1S/C6H10N2O/c1-4(5(8)2-7)6-3-9-6/h4-6H,3,8H2,1H3	InChI=1S/C6H10N2O/c1-4(5(8)2-7)6-3-9-6/h4-6H,3,8H2,1H3/t4-,5-,6+/m0/s1
