23
gdb 76335	1.82942	1.75328	1.19363	1.5437	80.99	-0.2422	0.0526	0.2948	1186.3598	0.20338	-425.42717	-425.416622	-425.415678	-425.461677	40.226	
C	-0.3827956396	 1.4332968802	 0.190170099	-0.41203
C	-0.0977158206	-0.0569075612	 0.0203433302	-0.066271
C	 0.7868873568	-0.4718212019	-1.205098713	-0.000031
C	 0.8901476688	 0.423115398	-2.432466472	-0.410307
C	 2.019282073	-0.6060789446	-0.261660469	 0.339566
C	 2.959130209	-1.7824204911	-0.4519662096	-0.483747
O	 2.7431636944	 0.6307073489	-0.2635908015	-0.476401
C	 1.0310386843	-0.6153489771	 0.9524606172	 0.113968
O	 1.4246048575	 0.1167590196	 2.0810039147	-0.440321
H	 0.5212135478	 2.0409730281	 0.0919605947	 0.123096
H	-1.0987689423	 1.7826074012	-0.5607112164	 0.110664
H	-0.8102584698	 1.6257467659	 1.1789960767	 0.121404
H	-1.0400116883	-0.6093318881	 0.0912598458	 0.061357
H	 0.4987348025	-1.4807511527	-1.5213842607	 0.067649
H	 1.2301577566	 1.4277362608	-2.1737167968	 0.131581
H	 1.6022428298	 0.0110099356	-3.1557792436	 0.110136
H	-0.0797823953	 0.5055280967	-2.934459126	 0.110068
H	 3.5130191756	-1.6947958002	-1.3930209364	 0.124337
H	 3.6846949662	-1.8395909974	 0.3703078256	 0.114846
H	 2.4061072281	-2.7263258776	-0.4650125024	 0.121963
H	 3.5778303882	 0.4789031966	 0.1923255901	 0.283733
H	 0.8104726866	-1.6314632046	 1.2931756233	 0.077257
H	 1.8375484206	 0.9186627549	 1.73454795	 0.277484
82.7831	176.1897	190.9184	209.57	219.7152	227.9923	236.0733	253.3322	257.7745	291.1433	346.5742	437.2371	500.2222	523.4514	550.8262	608.2339	669.8078	764.538	796.5327	809.6875	872.2312	947.5399	990.594	1011.081	1024.9265	1036.7303	1108.6734	1119.469	1155.0508	1168.2881	1180.6039	1200.1481	1216.4618	1275.0566	1294.2247	1301.7295	1343.6477	1371.543	1396.557	1406.31	1410.1497	1415.153	1444.5434	1486.12	1490.3519	1491.3189	1499.9784	1500.4544	1514.278	3016.6292	3031.2471	3036.6425	3038.9247	3047.9855	3068.2889	3083.0185	3092.769	3104.1532	3108.9132	3113.0858	3132.19	3763.6192	3810.3419
CC1C(C)C(C)(O)C1O	C[C@H]1[C@@H](C)[C@@](C)(O)[C@H]1O	
InChI=1S/C7H14O2/c1-4-5(2)7(3,9)6(4)8/h4-6,8-9H,1-3H3	InChI=1S/C7H14O2/c1-4-5(2)7(3,9)6(4)8/h4-6,8-9H,1-3H3/t4-,5+,6-,7+/m0/s1
