19
gdb 80458	2.50526	1.60388	1.3591	4.6094	75.97	-0.2387	0.0361	0.2748	1049.0008	0.160166	-419.230294	-419.221614	-419.220669	-419.263579	31.953	
C	-0.0693646704	 1.5342901065	 0.1141515593	-0.421746
C	 0.0165321292	 0.0401317961	-0.0888488791	 0.002007
C	 0.7171103575	-0.6189381213	-1.2221453268	-0.056736
C	 1.7176119051	 0.1613709403	-2.0688098313	-0.203995
N	 2.7299705734	 0.5160455064	-1.0964860296	-0.069295
C	 3.8839483748	 1.3224056741	-1.4106072741	-0.343579
C	 2.4545954047	 0.0708495073	 0.1764096709	 0.402095
O	 3.1065438733	 0.2959749763	 1.1671208047	-0.384526
N	 1.264061059	-0.739761421	 0.1452800776	-0.174068
H	 0.7676520538	 2.0747803404	-0.3320190692	 0.133965
H	-0.9953877693	 1.9104261197	-0.3330396825	 0.124296
H	-0.0906706354	 1.7725291643	 1.1820669619	 0.1458
H	-0.8464455825	-0.496249573	 0.3012072067	 0.104238
H	 0.3037745495	-1.5260822099	-1.6516872786	 0.104516
H	 2.1287848794	-0.4720973805	-2.8666605438	 0.115055
H	 1.2854369817	 1.0526343577	-2.5479227042	 0.109827
H	 3.5925429811	 2.3146352883	-1.7792319775	 0.12025
H	 4.4627972062	 1.4381025884	-0.492661266	 0.168285
H	 4.5082631789	 0.8423702601	-2.1746926883	 0.12361
105.7517	123.7761	158.79	173.7508	207.202	246.7769	304.8251	389.3364	495.6333	512.2359	622.4563	693.1004	752.793	777.5774	811.3527	828.7943	955.0814	976.0847	1002.5343	1018.579	1077.2942	1099.2972	1119.9508	1147.8583	1156.9657	1178.4746	1219.8805	1279.5139	1305.1955	1313.1478	1374.258	1412.7319	1424.7609	1435.8169	1451.6947	1489.2836	1493.1597	1498.6876	1514.7328	1541.5229	1834.2114	2987.7541	3009.5824	3018.5212	3044.5478	3056.1817	3105.8033	3118.9766	3138.4998	3143.2371	3156.5775
CC1C2CN(C)C(=O)N12	C[C@H]1[C@H]2CN(C)C(=O)N12	
InChI=1S/C6H10N2O/c1-4-5-3-7(2)6(9)8(4)5/h4-5H,3H2,1-2H3	InChI=1S/C6H10N2O/c1-4-5-3-7(2)6(9)8(4)5/h4-5H,3H2,1-2H3/t4-,5+,8?/m0/s1
