17
gdb 32705	4.67751	0.98264	0.85623	2.382	81.64	-0.2248	-0.0569	0.1678	1353.4564	0.138502	-414.229572	-414.221382	-414.220438	-414.263503	29.644	
C	-0.0485852152	 1.5996368615	 0.0041169723	-0.35856
C	-0.043880646	 0.0684979023	-0.0201173989	-0.137502
N	-1.4036923109	-0.441902335	-0.1023138984	-0.353207
C	-1.7410324919	-1.1713323391	-1.0843526256	 0.450861
N	-3.0852383912	-1.6280859282	-1.1140304021	-0.313996
C	-3.5475576858	-2.4092819371	-2.1002394678	 0.125377
N	-2.8237467853	-2.8116107787	-3.1037994786	-0.291292
C	-1.5234250923	-2.3513084758	-3.0545276753	 0.073165
N	-0.9659031564	-1.5995661072	-2.1604747231	-0.291967
H	 0.9662743619	 1.9853374783	 0.1454168811	 0.106594
H	-0.4386120775	 2.0017323237	-0.9364167167	 0.113703
H	-0.6786641377	 1.9719951872	 0.8173741779	 0.117843
H	 0.5878186665	-0.2952682057	-0.8389607704	 0.11586
H	 0.3907913519	-0.2985109621	 0.9193948019	 0.09744
H	-3.6712488404	-1.330962547	-0.3458616367	 0.27427
H	-4.5918225575	-2.7072073045	-2.0301141402	 0.144612
H	-0.9002266124	-2.6740710123	-3.8874250797	 0.126799
32.7723	98.0104	156.2112	195.6262	279.3585	366.2447	391.4944	473.4455	503.1976	603.4577	687.6427	716.2164	784.709	796.1408	834.1307	918.6308	979.1824	989.0882	1034.4936	1071.9005	1092.9502	1117.6982	1138.5226	1186.4227	1247.4015	1304.4632	1377.6924	1395.5121	1403.6279	1423.247	1483.3444	1489.0509	1494.3974	1510.5093	1563.0539	1670.1418	1752.6333	3009.7985	3035.2994	3056.0406	3106.4745	3113.7646	3147.3234	3161.2502	3602.917
CCN=C1NC=NC=N1	CC[N]C1=NC=NCN1	
InChI=1S/C5H8N4/c1-2-7-5-8-3-6-4-9-5/h3-4H,2H2,1H3,(H,6,7,8,9)	InChI=1S/C5H9N4/c1-2-7-5-8-3-6-4-9-5/h3H,2,4H2,1H3,(H,6,8,9)
