17
gdb 112693	3.3231	1.07918	0.86518	2.1354	64.66	-0.2773	-0.0044	0.2729	1292.2702	0.135847	-496.138316	-496.12971	-496.128766	-496.172022	31.692	
O	-0.1118832959	 1.4540072435	-0.1521356794	-0.417834
C	 0.0029585961	 0.0526024953	-0.0497415006	-0.065518
C	-1.3522219471	-0.6358438848	-0.0348506755	 0.090898
C	-1.3223070294	-2.1661493331	 0.1020797783	-0.27927
C	-2.5987079673	-2.4392106223	 0.8958118838	 0.014724
O	-2.557644149	-3.5916272535	 1.6904735569	-0.434942
C	-2.7223762478	-1.1743368255	 1.7446620836	 0.406649
O	-3.2930930571	-1.085166015	 2.7953343695	-0.35296
O	-2.0629295171	-0.1588991747	 1.1486908298	-0.242198
H	-0.625172121	 1.7518460045	 0.6075848304	 0.297688
H	 0.5659268159	-0.2863522342	-0.9262182401	 0.12021
H	 0.5632078464	-0.251857528	 0.8487527155	 0.100012
H	-1.9331687774	-0.3130083084	-0.9063290752	 0.106568
H	-1.2833078881	-2.6694455462	-0.86479212	 0.126244
H	-0.4619526603	-2.485484106	 0.7005559681	 0.128149
H	-3.4670637516	-2.4542745092	 0.2130014503	 0.103144
H	-3.0532126094	-3.3816991224	 2.4949843045	 0.298436
74.5122	111.2353	127.8249	225.9527	254.4703	356.6417	386.8254	409.1347	427.7026	452.4255	550.9437	585.9045	653.2585	718.5807	809.7185	902.7188	929.8778	1004.9626	1045.8864	1064.6995	1097.4518	1108.1549	1157.1333	1175.2552	1206.3757	1235.2023	1265.8153	1279.2282	1343.3405	1365.3357	1388.7235	1403.2339	1423.8421	1433.4484	1488.5064	1496.7983	1874.555	2947.0435	2982.8667	3048.9601	3059.225	3078.3032	3129.8861	3743.4913	3804.4267
OCC1CC(O)C(=O)O1	OC[C@H]1C[C@@H](O)C(=O)O1	
InChI=1S/C5H8O4/c6-2-3-1-4(7)5(8)9-3/h3-4,6-7H,1-2H2	InChI=1S/C5H8O4/c6-2-3-1-4(7)5(8)9-3/h3-4,6-7H,1-2H2/t3-,4-/m1/s1
