17
gdb 108842	3.04946	1.20331	0.96765	1.3754	69.	-0.2489	-0.01	0.2389	1208.7425	0.135714	-458.933049	-458.9248	-458.923856	-458.966117	31.18	
O	 0.1866483263	 1.3683071887	 0.0561136789	-0.403242
C	 0.0257075985	-0.0338011113	 0.1202074744	-0.171191
C	-1.4044749078	-0.4839014484	 0.1232642562	 0.279438
C	-2.5067260487	 0.2709451333	 0.153716061	-0.23655
C	-3.7873828303	-0.5500998674	 0.0734329923	 0.086942
O	-4.5918251984	-0.2187564721	-1.0463832131	-0.433598
C	-3.2564732861	-1.9884124786	 0.0097396052	-0.000356
O	-2.5268427344	-2.2268658038	-1.2038136823	-0.268044
C	-1.7945191165	-1.9322565697	 0.0169717118	-0.074494
H	-0.2124418932	 1.6679033844	-0.7677260134	 0.287193
H	 0.5630589074	-0.5451926272	-0.6977689943	 0.107379
H	 0.5199306358	-0.3503112087	 1.0485493109	 0.12824
H	-2.5285289988	 1.3539776697	 0.1621563327	 0.108752
H	-4.42514926	-0.4019661841	 0.9522254992	 0.095017
H	-4.0889293923	-0.5089021484	-1.8189704491	 0.287087
H	-3.8399680788	-2.8258796267	 0.3799630643	 0.105049
H	-1.1583852626	-2.7374977197	 0.3725299051	 0.102379
85.8981	124.1708	181.0793	193.5338	294.4219	346.2882	403.7754	445.2786	473.469	551.7065	584.2118	656.4047	769.8439	804.2925	857.2175	884.417	893.0669	934.7638	992.6007	1002.8845	1052.9823	1066.0776	1083.3529	1107.2701	1167.1547	1210.2148	1241.9493	1252.4391	1270.7681	1303.6956	1329.142	1390.9532	1417.449	1422.6261	1432.7189	1487.9412	1703.1029	2953.7866	3034.0746	3051.2836	3156.605	3168.4816	3210.8348	3766.4733	3810.8413
OCC1=CC(O)C2OC12	OCC1=C[C@@H](O)[C@H]2O[C@@H]12	
InChI=1S/C6H8O3/c7-2-3-1-4(8)6-5(3)9-6/h1,4-8H,2H2	InChI=1S/C6H8O3/c7-2-3-1-4(8)6-5(3)9-6/h1,4-8H,2H2/t4-,5+,6-/m1/s1
