19
gdb 63764	3.06972	1.36513	1.14168	1.7797	81.96	-0.2306	0.0459	0.2765	1133.8737	0.156337	-385.820052	-385.81106	-385.810116	-385.853083	34.996	
C	-0.2462094712	 1.5633008695	 0.0054884429	-0.447086
C	-0.0269359949	 0.0624544967	 0.0753565017	 0.388918
C	-1.2989774604	-0.7144364743	-0.2494615609	-0.413303
O	 1.0479312118	-0.398031925	-0.8272890214	-0.321454
C	 1.6483725034	-1.1213606429	 0.2332123588	 0.079211
C	 2.2000561418	-0.2162834702	 1.3100620841	-0.249796
C	 2.8108850656	 1.0610224739	 1.076739137	 0.312501
C	 3.3883266566	 2.1040632126	 0.9147871265	-0.417716
C	 0.7100541356	-0.5666899979	 1.2705966159	-0.192709
H	 0.6702872023	 2.1118519718	 0.2180358395	 0.147522
H	-0.5963902266	 1.8400874337	-0.9945836444	 0.120755
H	-1.014055941	 1.862791563	 0.7266719391	 0.114392
H	-1.6497488009	-0.4538261703	-1.2524186225	 0.125894
H	-1.1189410117	-1.792290007	-0.2145261769	 0.119541
H	-2.091666591	-0.4713867893	 0.466740992	 0.113982
H	 2.0289456869	-2.1160725139	 0.0285697691	 0.107487
H	 2.6907779251	-0.791872706	 2.0944411076	 0.118524
H	 3.8836504557	 3.0299648687	 0.757803659	 0.193464
H	 0.2258158829	-1.039873823	 2.1153233532	 0.099874
111.6483	139.1208	178.0958	221.988	243.8398	284.4991	350.0367	379.3932	385.1968	450.2621	584.6098	618.7387	639.9639	647.8051	657.5078	748.6072	794.0052	840.743	893.795	925.5091	939.3237	973.3215	1004.0077	1021.4813	1038.4271	1052.3752	1068.3717	1165.0102	1170.9257	1222.3124	1254.8825	1307.5391	1337.2275	1400.6911	1413.3051	1416.9866	1474.3247	1480.7839	1495.7488	1507.3177	2232.4631	3034.5272	3042.8241	3100.8364	3108.6783	3115.6881	3120.2126	3162.549	3169.9673	3193.3709	3503.381
CC1(C)OC2C(C#C)C12	CC1(C)O[C@H]2[C@@H](C#C)[C@@H]12	
InChI=1S/C8H10O/c1-4-5-6-7(5)9-8(6,2)3/h1,5-7H,2-3H3	InChI=1S/C8H10O/c1-4-5-6-7(5)9-8(6,2)3/h1,5-7H,2-3H3/t5-,6+,7-/m0/s1
