20
gdb 97420	3.58997	0.89438	0.78123	2.1431	80.31	-0.2433	0.0229	0.2662	1523.6855	0.169315	-440.265319	-440.255671	-440.254726	-440.300759	34.845	
C	-0.588250878	 1.0130118954	-0.1147539205	-0.315603
N	 0.0937371855	-0.2522077718	 0.0637500844	-0.212352
C	 0.6045432273	-0.7815649444	-0.9551496491	 0.127318
O	 1.3063468087	-1.9340242128	-0.8497254031	-0.234022
C	 1.5888462768	-2.6204264027	-2.0689400512	 0.07261
C	 2.5674477804	-3.777702713	-1.7815632979	-0.249227
C	 1.3541706354	-4.7366316322	-1.611963966	-0.264998
C	 0.4804486588	-3.6845091937	-2.3539374572	 0.150321
O	-0.8208131921	-3.4099522323	-1.9268459985	-0.430817
H	-0.1056919812	 1.7811605069	 0.5004330989	 0.12869
H	-0.6087625541	 1.3688433165	-1.1577469392	 0.098255
H	-1.6217044994	 0.9257497693	 0.2390144904	 0.128457
H	 0.5573690452	-0.3716188548	-1.975515822	 0.081141
H	 1.8376153147	-1.9008366959	-2.8567059923	 0.077201
H	 3.1777104353	-4.0131329385	-2.6565260712	 0.111185
H	 3.2180163404	-3.6301238792	-0.9187335002	 0.122571
H	 1.4189898682	-5.73607693	-2.0460011202	 0.104853
H	 1.0555392802	-4.8235286494	-0.5635613252	 0.114102
H	 0.4208380872	-3.9010464048	-3.4248910028	 0.093567
H	-0.7732537191	-3.1593528023	-0.9961730871	 0.296746
42.3796	81.435	94.5011	177.6453	201.7712	238.2006	308.1045	320.3586	388.5109	421.2739	452.6497	556.5483	613.193	691.0307	738.295	876.6643	913.6494	924.0903	959.3373	982.6105	1023.9424	1055.9729	1075.0973	1136.8557	1142.2363	1144.197	1159.686	1192.6541	1231.5314	1236.9207	1253.2679	1272.0082	1289.5488	1326.669	1360.8614	1411.8377	1433.6935	1451.4118	1469.6968	1481.3448	1489.3402	1505.5797	1775.9036	2970.2656	3001.2207	3041.1442	3059.5587	3065.8957	3070.6898	3078.7185	3079.2881	3122.1681	3139.9117	3789.3831
CN=COC1CCC1O	CN=CO[C@H]1CC[C@H]1O	
InChI=1S/C6H11NO2/c1-7-4-9-6-3-2-5(6)8/h4-6,8H,2-3H2,1H3	InChI=1S/C6H11NO2/c1-7-4-9-6-3-2-5(6)8/h4-6,8H,2-3H2,1H3/t5-,6+/m1/s1
