19
gdb 115418	2.92328	1.11184	0.93368	1.5414	76.86	-0.2595	0.0342	0.2937	1321.3076	0.157869	-422.992019	-422.982708	-422.981763	-423.027316	33.673	
C	-0.0512333218	 1.5024742818	-0.012850644	-0.383281
C	 0.1989696146	-0.0074717905	-0.041307018	-0.203605
C	 0.6330293853	-0.5155068081	-1.407432841	 0.113594
C	 0.8702570524	-2.0414224687	-1.5032068935	-0.114163
O	 0.1937954996	-2.4477965468	-2.6936298147	-0.246637
C	-0.230528756	-1.2700909576	-3.3535982338	-0.014111
O	-0.4199852599	-0.3005991927	-2.3552727456	-0.243463
C	 0.7528935599	-0.8373170153	-4.3673698257	 0.343655
C	 1.5448486304	-0.4849035913	-5.199535747	-0.455064
H	 0.8564942918	 2.0585234977	-0.27164671	 0.11563
H	-0.8285178678	 1.7778915891	-0.7303363795	 0.13912
H	-0.3711121251	 1.8280506021	 0.9812688784	 0.11349
H	 0.9789370804	-0.2745765685	 0.6831479581	 0.1013
H	-0.708188218	-0.5489392795	 0.2530543449	 0.108723
H	 1.5307957833	 0.0241171976	-1.7436806557	 0.083742
H	 1.9365433616	-2.2865838586	-1.5628564295	 0.110335
H	 0.4276111322	-2.5803854662	-0.6580238577	 0.109253
H	-1.1983990951	-1.4683929063	-3.8252143917	 0.120396
H	 2.2418570321	-0.1749631482	-5.9389523842	 0.201087
27.4005	89.9557	115.0571	168.847	213.7956	237.8221	271.7419	389.4336	423.0944	524.5215	571.1342	659.8299	667.7091	674.1643	777.4324	811.1816	856.2407	933.4788	955.2406	971.2815	987.4028	1015.3885	1042.0401	1099.3689	1116.9468	1143.6246	1179.1181	1223.8514	1298.9095	1311.8063	1329.4157	1359.3878	1375.0203	1383.212	1411.411	1417.4921	1475.2218	1498.4198	1508.1089	1524.6637	2232.1261	2993.175	3025.0622	3030.9022	3039.3016	3065.2934	3065.9093	3073.8607	3105.5372	3124.754	3500.43
CCC1COC(O1)C#C	CC[C@H]1CO[C@@H](O1)C#C	
InChI=1S/C7H10O2/c1-3-6-5-8-7(4-2)9-6/h2,6-7H,3,5H2,1H3	InChI=1S/C7H10O2/c1-3-6-5-8-7(4-2)9-6/h2,6-7H,3,5H2,1H3/t6-,7-/m0/s1
