15
gdb 27893	2.05295	1.82421	0.9717	1.8986	71.33	-0.2438	-0.0216	0.2222	1146.1582	0.114171	-454.039148	-454.031393	-454.030449	-454.071664	29.233	
C	-0.0896945943	 1.5187062366	 0.0342708524	-0.466061
C	-0.0001946953	 0.0198568742	-0.0237621416	 0.337597
C	-0.0674022333	-0.6709029126	-1.2264214173	-0.281645
C	 0.0281301667	-2.060967257	-1.1442167175	 0.445948
O	-0.0287587018	-2.7954150098	-2.2649323437	-0.40765
N	 0.1751468824	-2.7055990866	 0.0076111049	-0.45597
C	 0.2264855265	-1.9282459411	 1.0975712536	 0.442071
O	 0.3747160841	-2.5587970384	 2.2721809401	-0.391067
N	 0.1484180247	-0.609744811	 1.1556708822	-0.355236
H	 0.811213785	 1.927718783	 0.5022037446	 0.148033
H	-0.2080511924	 1.9590070346	-0.9579010314	 0.122261
H	-0.9354832156	 1.8172798838	 0.6614893313	 0.148028
H	-0.1866474934	-0.1766998657	-2.1803912911	 0.109622
H	 0.0548857169	-3.7202668005	-1.9924880347	 0.301189
H	 0.4160327897	-3.5031834495	 2.0722389182	 0.302882
78.1759	182.9603	208.9205	235.2068	299.7278	353.1782	533.4872	544.6468	559.09	559.7071	571.9837	616.0931	643.473	733.8924	817.4479	849.7382	985.8785	1002.3186	1014.8312	1058.9241	1098.0903	1189.6458	1221.3354	1250.1757	1337.8028	1402.9963	1451.0347	1473.0509	1481.3725	1487.14	1518.6095	1615.9024	1669.3451	3045.594	3107.2159	3134.9388	3228.4837	3762.0116	3790.8772
CC1=CC(O)=NC(O)=N1	Cc1cc(O)nc(O)n1	
InChI=1S/C5H6N2O2/c1-3-2-4(8)7-5(9)6-3/h2H,1H3,(H2,6,7,8,9)	InChI=1S/C5H6N2O2/c1-3-2-4(8)7-5(9)6-3/h2H,1H3,(H2,6,7,8,9)
