22
gdb 13976	4.99028	1.08381	1.01036	0.254	82.63	-0.2416	0.0882	0.3298	1276.7016	0.200619	-313.051717	-313.043118	-313.042174	-313.085038	32.607	
C	-0.0162423041	 1.5985300952	-0.0959155577	-0.380386
C	-0.0309859344	 0.0687353693	-0.1446392753	-0.154541
C	-1.4112220296	-0.5313587552	 0.1669752586	-0.30627
C	-1.4246067615	-2.0350488377	 0.1356597882	 0.406474
C	-1.5829665443	-2.8276391468	-1.1353774293	-0.316515
C	-2.5866710711	-3.0225325249	-0.0298389053	-0.115921
C	-1.9989075156	-3.9378620136	 1.0488688428	-0.21803
C	-0.8046264895	-2.941408599	 1.2150626009	-0.283544
H	 0.978517456	 1.9969737022	-0.3191390673	 0.109731
H	-0.7163260218	 2.0247802283	-0.8234324188	 0.112021
H	-0.3073835159	 1.9666881417	 0.8943877442	 0.112346
H	 0.2916375306	-0.2752610592	-1.1353008851	 0.097942
H	 0.7035354619	-0.3281421445	 0.568107616	 0.097488
H	-1.7406328472	-0.1799598821	 1.1555827033	 0.088721
H	-2.1451998832	-0.14570354	-0.553799863	 0.089978
H	-1.9396145074	-2.2606635701	-1.9903862084	 0.103835
H	-0.886233363	-3.6242963222	-1.3913365996	 0.097203
H	-3.6406072366	-2.8159075163	-0.1790577803	 0.079026
H	-2.6143771988	-3.9976059511	 1.9493488441	 0.099906
H	-1.7521471058	-4.9565511893	 0.730139186	 0.092427
H	 0.1984140553	-3.3282873594	 1.005361924	 0.090528
H	-0.7944231239	-2.4732935754	 2.203329632	 0.097583
75.1661	90.5613	124.217	234.4586	244.013	310.5687	337.7151	388.5479	430.7651	674.8068	728.0615	745.1315	785.8301	837.1668	869.4429	888.5438	903.1895	932.4699	955.9097	970.8558	1012.6242	1025.4933	1047.0079	1058.8857	1082.9929	1109.0604	1134.1945	1159.2821	1221.3081	1226.46	1241.1527	1264.5466	1274.593	1309.0041	1314.812	1339.134	1383.9557	1408.6372	1411.936	1476.7346	1482.2393	1486.7845	1492.3702	1498.7084	1509.1925	1512.8242	2997.5784	3020.7353	3027.1697	3030.8665	3035.7646	3044.3711	3057.2566	3085.4812	3093.5838	3094.0175	3099.4858	3106.4652	3169.3301	3188.1366
CCCC12CC1CC2	CCC[C@]12C[C@H]1CC2	
InChI=1S/C8H14/c1-2-4-8-5-3-7(8)6-8/h7H,2-6H2,1H3	InChI=1S/C8H14/c1-2-4-8-5-3-7(8)6-8/h7H,2-6H2,1H3/t7-,8+/m1/s1
