17
gdb 54546	3.40528	1.40174	1.3421	2.5657	71.47	-0.2415	0.0266	0.2681	1004.4772	0.137643	-417.985788	-417.978152	-417.977208	-418.018329	29.511	
N	-0.0160997215	 1.2334288466	 0.4796404281	-0.530844
C	 0.0375564862	 0.0006898549	-0.0876720147	 0.269594
O	 1.0220868976	-0.4807142368	-0.6176264298	-0.375072
C	-1.2638485414	-0.7481727531	-0.0074160013	 0.266764
C	-2.1083587073	-1.0285844978	-1.2712101914	-0.270839
C	-3.2780817837	-0.9522061089	-0.3066344607	-0.04234
C	-2.8569027565	-1.5431010317	 1.0017522149	-0.042355
C	-1.4147395472	-2.0019808978	 0.883569543	-0.270852
N	-2.5190023836	-0.1122654632	 0.6836678754	-0.206545
H	 0.8074781795	 1.8118683822	 0.4802576604	 0.260685
H	-0.8709696392	 1.5559839645	 0.9035455425	 0.275224
H	-2.1002870942	-0.1736940331	-1.951645218	 0.119862
H	-1.9140011335	-1.9510762443	-1.824684601	 0.112885
H	-4.3173041546	-0.7416529532	-0.5323077334	 0.100582
H	-3.5734690717	-1.7851876035	 1.7783813122	 0.100581
H	-1.1840746854	-2.9757137213	 0.4434206092	 0.112889
H	-0.8827274634	-1.8825024537	 1.8304252146	 0.119779
44.0749	178.295	182.6956	298.6464	357.4859	380.573	432.8385	499.5518	630.5648	653.9095	732.9828	768.0781	774.274	808.3811	828.2039	908.7217	916.2639	994.7359	1005.1848	1021.8512	1032.7266	1068.1928	1093.2532	1095.1303	1105.1346	1161.2261	1184.8599	1205.3418	1243.999	1278.2411	1323.9128	1371.2957	1406.0675	1487.9893	1506.5385	1603.4113	1794.5269	3058.8877	3062.6154	3116.8856	3119.5024	3177.0859	3188.5794	3586.5129	3729.1322
NC(=O)C12CC3C(C1)N23	NC(=O)[C@@]12C[C@H]3[C@@H](C1)N23	
InChI=1S/C6H8N2O/c7-5(9)6-1-3-4(2-6)8(3)6/h3-4H,1-2H2,(H2,7,9)	InChI=1S/C6H8N2O/c7-5(9)6-1-3-4(2-6)8(3)6/h3-4H,1-2H2,(H2,7,9)/t3-,4+,6+,8?
