16
gdb 12494	3.42561	1.95142	1.39742	4.3235	60.9	-0.2545	0.0113	0.2658	879.1536	0.131789	-420.899405	-420.892205	-420.891261	-420.931315	26.464	
O	-0.0606620752	 1.0328634212	 1.6096535479	-0.31652
C	-0.0011937856	 1.4537520742	 0.4855301292	 0.376643
C	-1.2957201932	 1.5906008448	-0.3323771395	-0.221808
O	-1.1807516657	 1.7018754975	-1.7274823496	-0.226965
C	-0.8935673084	 3.0094485794	-2.1897670837	-0.07741
C	 0.4325641524	 3.5459890778	-1.6226898243	-0.258704
C	 1.4030233231	 2.4084758526	-1.3138972103	-0.044205
O	 1.1970204947	 1.8039233855	-0.024226141	-0.224889
H	-1.8639331012	 0.6809926497	-0.1241090987	 0.15392
H	-1.8624060597	 2.430407818	 0.1008411336	 0.124883
H	-0.8325582866	 2.9146777484	-3.277762223	 0.11816
H	-1.7242743136	 3.6930241261	-1.9567801599	 0.102688
H	 0.8892109448	 4.2285914728	-2.3476011316	 0.117681
H	 0.2771980139	 4.1265376414	-0.70649596	 0.123996
H	 1.3650571265	 1.6348470807	-2.087295255	 0.128348
H	 2.4259909237	 2.7860907899	-1.2532405442	 0.124181
71.2893	106.6511	257.8852	297.0291	345.1368	394.911	485.2925	545.828	581.0095	673.3162	747.9817	825.4635	896.4037	940.2502	979.163	1026.245	1050.8447	1095.443	1135.1466	1154.709	1232.2176	1255.9501	1283.3319	1297.1936	1329.6855	1368.7116	1379.6006	1409.2022	1430.1623	1462.3512	1479.1628	1503.1561	1505.6575	1831.622	2986.5106	2992.2366	3044.8544	3056.1932	3075.4084	3095.9174	3108.4991	3111.2675
O=C1COCCCO1	O=C1COCCCO1	
InChI=1S/C5H8O3/c6-5-4-7-2-1-3-8-5/h1-4H2	InChI=1S/C5H8O3/c6-5-4-7-2-1-3-8-5/h1-4H2
