19
gdb 37848	2.55042	2.54208	1.97095	1.2329	75.67	-0.2489	0.0836	0.3325	812.6477	0.164906	-385.872637	-385.867258	-385.866314	-385.901962	25.003	
C	-0.037169688	 1.5586166481	-0.001384489	-0.242572
C	 1.5079166171	 1.4562803035	 0.0017815435	-0.072469
C	 2.0401529466	 0.8999394105	 1.3724588981	-0.072469
C	 0.875635573	 0.6044708998	 2.3493786926	-0.242572
C	 0.5062634398	-0.5461135505	 1.381136076	-0.072469
C	-0.0259728522	 0.0102275806	 0.0104582547	-0.072469
C	 1.326930108	 0.1069416844	-0.7873644075	 0.105172
O	 2.2322122077	-0.8504899611	-0.3141736853	-0.237426
C	 2.0432004873	-0.6417683291	 1.0572596543	 0.105172
H	-0.5414053373	 2.0982981938	 0.8014970796	 0.099753
H	-0.4022519961	 1.9401253725	-0.9596185373	 0.095892
H	 2.1138147433	 2.2634374614	-0.409859339	 0.063011
H	 2.9435727285	 1.3961001868	 1.7270298161	 0.063011
H	 1.25133637	 0.211647069	 3.2988969158	 0.095892
H	 0.142327326	 1.3835993468	 2.5623261177	 0.099753
H	-0.0401007721	-1.4167146413	 1.7439078863	 0.063011
H	-0.8698575487	-0.5493783141	-0.392981055	 0.063011
H	 1.2973296525	 0.1318128156	-1.8751793277	 0.079385
H	 2.6685232544	-1.3014810976	 1.6560807558	 0.079385
391.2253	455.6681	458.7438	526.1128	605.4944	644.5447	700.6832	751.0164	774.2751	774.9034	844.3838	849.4862	871.9325	885.0189	928.1603	945.4314	960.864	993.583	999.9009	1042.904	1054.9385	1080.1197	1083.8297	1084.781	1101.075	1128.4871	1133.2919	1186.7916	1201.473	1217.175	1240.7421	1246.6374	1253.6025	1277.3887	1286.1829	1293.7804	1315.9505	1343.3659	1378.0074	1489.0326	1529.8158	3056.8073	3062.8796	3098.3727	3099.5568	3107.3099	3112.4017	3113.9004	3119.0484	3139.353	3144.9173
C1C2C3CC4C1C2OC34	C1[C@H]2[C@H]3C[C@H]4[C@@H]1[C@@H]2O[C@@H]34	
InChI=1S/C8H10O/c1-3-5-2-6-4(1)7(3)9-8(5)6/h3-8H,1-2H2	InChI=1S/C8H10O/c1-3-5-2-6-4(1)7(3)9-8(5)6/h3-8H,1-2H2/t3-,4+,5+,6-,7+,8-
