15
gdb 125264	7.30577	0.83315	0.7526	2.8187	72.67	-0.2581	-0.0195	0.2386	1451.6111	0.111792	-453.942554	-453.934056	-453.933112	-453.977007	29.415	
C	 0.0186162332	 1.4712848613	 0.0081949005	-0.489858
C	-0.098111791	-0.010082284	 0.0515471043	 0.467551
C	-1.1136639335	-0.8761665925	-0.2057308148	-0.477378
C	-0.522402229	-2.1441369067	 0.0364635671	 0.521551
O	-1.1922572963	-3.309828374	-0.0937801399	-0.223224
C	-0.4823088373	-4.4835356521	-0.0548797737	 0.109175
N	-1.1307804437	-5.5599509316	-0.0516107179	-0.42231
N	 0.7309049321	-2.0630268862	 0.4125297915	-0.246418
O	 1.0047959444	-0.6931994323	 0.4154299853	-0.220826
H	 0.7967647944	 1.7802028926	-0.6971036844	 0.155509
H	-0.9292450301	 1.9149464748	-0.3008939646	 0.146427
H	 0.2875771243	 1.8695573932	 0.9917951276	 0.156181
H	-2.1213923741	-0.6658226452	-0.5190094631	 0.133706
H	 0.5982694218	-4.3332807593	-0.0430351209	 0.14922
H	-0.4884112952	-6.3502457781	-0.045490837	 0.240694
45.8096	78.1836	90.9972	163.3701	211.7947	312.7158	388.6291	432.0035	507.3204	629.8903	677.9698	720.5121	804.5759	812.3196	840.2079	943.1515	999.3568	1025.7043	1033.9619	1055.6139	1065.3821	1073.2912	1173.1005	1262.3708	1297.5699	1404.557	1413.0994	1471.8997	1473.0789	1494.3928	1536.5508	1655.7358	1750.8902	3045.2557	3103.1732	3126.0918	3142.586	3289.8074	3517.8859
CC1=CC(OC=N)=NO1	Cc1cc(O[CH][NH])no1	
InChI=1S/C5H6N2O2/c1-4-2-5(7-9-4)8-3-6/h2-3,6H,1H3	InChI=1S/C5H6N2O2/c1-4-2-5(7-9-4)8-3-6/h2-3,6H,1H3
