17
gdb 46309	3.22321	1.29168	1.21148	4.2482	73.67	-0.2519	-0.0011	0.2508	1083.6961	0.137506	-421.864864	-421.857302	-421.856358	-421.897412	28.459	
O	-0.0764721969	 0.0842585697	-0.1695548178	-0.330936
C	-0.0573361213	 1.2525113797	 0.0483139219	 0.422
O	-1.0883051067	 2.0451191839	 0.4838653989	-0.245803
C	-0.2314369146	 3.2306058102	 0.5205710745	-0.128176
C	 0.9741797074	 2.3965329197	 0.0104546156	 0.102425
C	 2.2279405997	 2.2075688247	 0.9020077918	-0.30031
C	 3.4026507782	 2.8697524345	 0.1363712127	-0.265965
C	 2.8561297504	 3.0301804131	-1.2588521095	-0.069372
C	 1.5520050784	 2.7702334968	-1.3291635158	-0.120552
H	-0.6079497635	 4.0008038429	-0.1560693742	 0.123179
H	-0.1498098972	 3.6172071418	 1.5391869319	 0.122778
H	 2.0864384003	 2.6136858946	 1.9064989383	 0.108802
H	 2.4126784531	 1.1345160924	 1.0066212798	 0.136512
H	 3.67924504	 3.8447675545	 0.5598016825	 0.113429
H	 4.3097638733	 2.256310256	 0.1656208254	 0.117182
H	 3.4687345562	 3.3499353119	-2.0946306589	 0.105643
H	 0.9371741932	 2.8408254836	-2.2193197671	 0.109166
75.97	125.7012	160.193	231.5105	332.4173	386.4505	461.9536	612.9215	691.1456	718.7936	762.8547	789.5191	811.5908	848.6846	920.3803	922.4668	949.3093	967.8636	980.6215	1002.4633	1069.0871	1115.2553	1117.1287	1153.9394	1169.0801	1197.4193	1210.8355	1261.357	1312.6709	1320.3238	1344.9145	1385.5787	1478.9744	1496.2764	1514.8466	1683.0059	1932.376	3018.9515	3057.3723	3064.5519	3067.3061	3109.0226	3127.3652	3186.6364	3210.9331
O=C1OCC11CCC=C1	O=C1OC[C@]21CCC=C2	
InChI=1S/C7H8O2/c8-6-7(5-9-6)3-1-2-4-7/h1,3H,2,4-5H2	InChI=1S/C7H8O2/c8-6-7(5-9-6)3-1-2-4-7/h1,3H,2,4-5H2/t7-/m1/s1
