18
gdb 17587	2.70328	2.43667	1.81076	2.0603	71.61	-0.2339	0.0884	0.3223	830.6242	0.154129	-343.91726	-343.909686	-343.908742	-343.948513	29.558	
C	 0.0042655154	 1.5126534798	 0.0214858517	-0.486139
C	-0.0407308191	 0.0156334622	 0.056079559	 0.304956
N	 1.1546013483	-0.7673948013	-0.2860601801	-0.415094
C	 0.5589460077	-0.9705067371	 1.0416766771	 0.305001
C	 1.3762301488	-0.7435755342	 2.2765242167	-0.48616
C	-0.6992775476	-1.8173028439	 0.9372964423	-0.135048
N	-1.84057755	-0.9555498475	 1.3484284169	-0.333944
C	-1.2874394248	-0.8502076538	-0.0289699683	-0.135042
H	 0.9757593748	 1.8781169221	 0.3641095656	 0.129295
H	-0.1510147468	 1.8889934763	-0.9965613012	 0.117648
H	-0.7773018836	 1.9303941195	 0.6634581707	 0.132138
H	 0.9461250692	-1.5327377748	-0.9249370897	 0.218034
H	 2.0562082136	 0.1012759243	 2.1400942535	 0.129296
H	 0.7237005922	-0.5381321079	 3.1306217353	 0.132147
H	 1.9851036144	-1.6238307091	 2.5144021326	 0.117647
H	-0.7836611995	-2.8983674459	 0.9551203326	 0.091315
H	-2.6873032522	-1.526159937	 1.2929026268	 0.222642
H	-1.9098886509	-1.0465999917	-0.8950662817	 0.09131
181.5949	198.4564	202.2647	209.8898	235.2325	375.8229	455.6746	504.8228	606.403	610.1508	694.5987	774.1065	801.2891	832.6161	850.2361	894.3861	938.4087	968.6839	1040.0608	1054.151	1075.2912	1099.9408	1107.8238	1133.8005	1171.3851	1177.9437	1190.5568	1273.7711	1293.1206	1346.1751	1355.3379	1408.925	1415.4792	1466.1108	1483.4475	1490.1903	1492.9089	1498.9273	3030.9984	3032.2713	3094.0931	3095.1108	3121.2324	3122.9603	3168.2747	3181.4707	3437.0688	3461.1459
CC12NC1(C)C1NC21	C[C@@]12N[C@]1(C)[C@H]1N[C@@H]21	
InChI=1S/C6H10N2/c1-5-3-4(7-3)6(5,2)8-5/h3-4,7-8H,1-2H3	InChI=1S/C6H10N2/c1-5-3-4(7-3)6(5,2)8-5/h3-4,7-8H,1-2H3/t3-,4+,5+,6-
