17
gdb 127594	3.08206	1.34269	0.96753	1.6467	71.83	-0.2097	0.0364	0.2461	1187.3796	0.137184	-455.1614	-455.152632	-455.151688	-455.195411	31.655	
C	 0.296608628	 1.3144163512	 0.0420887622	-0.328625
N	 0.0023436449	-0.0981707101	-0.0385030028	-0.029855
N	-0.4785536077	-0.6467970956	-1.1908728015	-0.293271
C	-0.6355669623	-1.9348871236	-0.9084865061	-0.086187
C	-0.277160909	-2.2471611736	 0.4214134499	 0.007632
C	-0.2945397364	-3.5121002328	 1.216536347	-0.209361
O	 0.7810650173	-3.5286330426	 2.1799549452	-0.421637
C	 0.1250664832	-1.0236999187	 0.9363044251	 0.405655
O	 0.5947894512	-0.7019788122	 2.1560263553	-0.439344
H	 0.8683024736	 1.6149921569	-0.8382892822	 0.148883
H	-0.6240809677	 1.9049373883	 0.0855385094	 0.14266
H	 0.8828929012	 1.4964492694	 0.9437398741	 0.154561
H	-1.0070870062	-2.6042518634	-1.6721809597	 0.107664
H	-1.1987692291	-3.6091574898	 1.8289329219	 0.127815
H	-0.2494147401	-4.3963735134	 0.5672749782	 0.113909
H	 1.6046828243	-3.562666922	 1.679226602	 0.291262
H	 0.7583432448	-1.5552510081	 2.597124202	 0.308238
55.7915	98.072	135.8715	197.7979	250.5423	290.3475	309.6994	391.9592	446.6337	509.8872	630.7864	647.269	697.1045	707.9641	751.6433	811.8407	872.379	972.8079	1004.4594	1006.0743	1082.0039	1153.156	1178.106	1227.9167	1246.2085	1309.3032	1342.8543	1356.239	1393.9177	1426.4227	1449.0537	1474.848	1485.1118	1507.8992	1510.2905	1607.4852	1630.5364	3015.9382	3047.4146	3053.9648	3116.94	3156.5748	3229.9463	3631.1172	3794.8369
CN1N=CC(CO)=C1O	Cn1ncc(CO)c1O	
InChI=1S/C5H8N2O2/c1-7-5(9)4(3-8)2-6-7/h2,8-9H,3H2,1H3	InChI=1S/C5H8N2O2/c1-7-5(9)4(3-8)2-6-7/h2,8-9H,3H2,1H3
