16
gdb 14619	6.03589	0.7358	0.70866	4.8479	67.1	-0.2632	0.0152	0.2784	1521.9498	0.130369	-379.965521	-379.956587	-379.955643	-380.001573	29.836	
O	 0.4439221731	 0.7817054409	-1.5221829012	-0.318906
C	 0.2094694903	 1.4537201473	-0.5409938114	 0.154872
N	 1.0783730205	 1.6582879746	 0.4878486397	-0.276921
C	 2.4220557706	 1.108290188	 0.4880881205	-0.167877
C	 3.4760767801	 2.1066065276	-0.0094385986	-0.183405
C	 4.8816622131	 1.4749420719	-0.0238910122	-0.338154
C	 5.9128627457	 2.4170679838	-0.4513398648	 0.25848
N	 6.7159932582	 3.1771991378	-0.7864080005	-0.30009
H	-0.756301542	 1.9696461919	-0.3740006691	 0.081391
H	 0.7990797215	 2.2751565638	 1.2338310612	 0.251302
H	 2.6678045161	 0.7682078014	 1.5010476594	 0.111801
H	 2.3990521722	 0.2322865001	-0.1657979645	 0.151765
H	 3.2105389645	 2.4358307493	-1.0182834429	 0.144956
H	 3.4834056885	 2.9965607115	 0.6294225528	 0.117211
H	 5.1454394864	 1.1047540296	 0.9743699998	 0.151592
H	 4.9003436413	 0.6082395005	-0.6949499382	 0.161985
12.5717	82.4657	92.2741	113.5307	211.5825	270.9234	320.8667	397.1617	415.2815	514.0169	565.9808	722.1852	769.9073	874.2103	929.9394	997.9675	1029.218	1037.2696	1055.4041	1118.4648	1196.532	1227.0035	1277.8612	1310.6702	1339.9881	1369.3845	1411.0587	1429.6106	1468.4516	1473.4402	1498.9381	1531.3694	1806.4254	2364.5898	2944.1238	3035.4356	3036.0844	3051.2616	3072.1828	3096.9942	3115.8719	3637.0727
O=CNCCCC#N	O=CNCCCC#N	
InChI=1S/C5H8N2O/c6-3-1-2-4-7-5-8/h5H,1-2,4H2,(H,7,8)	InChI=1S/C5H8N2O/c6-3-1-2-4-7-5-8/h5H,1-2,4H2,(H,7,8)
