21
gdb 111988	4.10065	1.06821	0.94249	1.6769	83.87	-0.2404	0.0042	0.2446	1336.8474	0.181683	-387.091179	-387.082146	-387.081202	-387.12477	34.552	
C	-0.0812503008	 1.5462774014	-0.1257436086	-0.388359
C	 0.032440267	 0.0217438385	-0.0425938618	-0.170494
C	 0.7256526329	-0.4904407423	 1.2357190051	-0.068093
C	-0.0165107155	-0.1929824273	 2.5302565318	-0.082083
C	-0.2605129361	-1.2926333624	 3.2457589776	-0.13925
C	 0.2506791772	-2.5113970786	 2.5356371283	 0.38887
C	 0.6445708633	-3.7598041269	 3.2719504501	-0.494399
O	-0.4126856067	-2.7050299943	 1.2552252299	-0.30005
C	 0.8427212274	-2.014988059	 1.2814355659	-0.048673
H	 0.9031084555	 2.0244414229	-0.0640487938	 0.111637
H	-0.5385364403	 1.8515101796	-1.0720102568	 0.114914
H	-0.6984113639	 1.9530262825	 0.6818181029	 0.117705
H	-0.959000859	-0.4389763455	-0.1010432802	 0.11852
H	 0.5974240588	-0.3450483589	-0.9089211777	 0.095135
H	 1.7356776397	-0.0546080269	 1.2776477246	 0.07843
H	-0.3339157955	 0.8080143329	 2.8000152239	 0.10079
H	-0.7741345722	-1.3347614674	 4.1993139307	 0.09635
H	-0.2213931973	-4.200907345	 3.7780984647	 0.127764
H	 1.0473180864	-4.5029920398	 2.5796810118	 0.130824
H	 1.4008521774	-3.539602212	 4.0329316248	 0.124292
H	 1.6584266718	-2.5190995918	 0.7673114168	 0.086169
77.8573	124.7026	166.639	189.3998	243.3207	263.145	298.0938	363.9176	423.3883	517.018	549.1915	626.8739	714.8799	749.2109	764.9346	839.494	846.116	862.7936	919.0515	943.8261	955.9547	980.5028	1026.7797	1050.2693	1062.385	1097.458	1118.0508	1127.3486	1149.9395	1240.6027	1269.7106	1287.3267	1295.0707	1342.2711	1364.3642	1371.5352	1409.7535	1413.9054	1448.5673	1483.8317	1490.9254	1495.1441	1500.7191	1507.7194	1665.0748	2990.0512	3027.2432	3031.2162	3034.2437	3075.6089	3095.0222	3100.5016	3104.2159	3124.5687	3132.2409	3185.4986	3210.3202
CCC1C=CC2(C)OC12	CC[C@H]1C=C[C@@]2(C)O[C@@H]12	
InChI=1S/C8H12O/c1-3-6-4-5-8(2)7(6)9-8/h4-7H,3H2,1-2H3	InChI=1S/C8H12O/c1-3-6-4-5-8(2)7(6)9-8/h4-7H,3H2,1-2H3/t6-,7-,8+/m0/s1
