20
gdb 55818	3.5741	0.99894	0.92059	2.8989	79.58	-0.2355	-0.0082	0.2273	1346.2584	0.16951	-403.116693	-403.107657	-403.106712	-403.151923	33.257	
C	 0.7172843113	 0.3395714895	-0.3740332459	-0.461162
C	-0.5475104658	 0.5536545741	 0.4296892918	 0.376297
O	-0.6550028049	 1.4299062647	 1.2558547356	-0.295018
C	-1.7376772344	-0.3660780847	 0.1311896252	-0.255152
N	-1.3243679622	-1.684138791	-0.3194606144	-0.083204
C	-1.2066791441	-2.8279373234	 0.5642991606	-0.041637
C	-2.3065192188	-2.879362304	 1.6418374855	-0.246794
C	-3.3827853585	-2.8187294299	 0.5115006177	-0.245086
C	-2.2478503823	-2.7750519288	-0.5315554239	-0.037186
H	 1.1644720267	-0.62484264	-0.1130835461	 0.148166
H	 0.4906765826	 0.2872359739	-1.4436881682	 0.138984
H	 1.4214648509	 1.1463943162	-0.1675632587	 0.132258
H	-2.3889375702	-0.3443743278	 1.01355892	 0.118643
H	-2.2947892011	 0.1064869547	-0.6905642657	 0.127529
H	-0.2571432264	-3.351687832	 0.5993105637	 0.092861
H	-2.3171414147	-3.8369855822	 2.1660915374	 0.110515
H	-2.3030571134	-2.0782915829	 2.3867968553	 0.111699
H	-3.9661549061	-3.7394902903	 0.4488882929	 0.109424
H	-4.0731277386	-1.9702102123	 0.5133462485	 0.105112
H	-2.26085225	-3.2517594138	-1.5062441014	 0.093753
34.2751	47.4651	126.2062	146.2619	234.0609	284.6077	375.7767	438.8199	472.775	519.356	566.9067	737.8883	773.8817	791.5261	802.7882	835.8475	869.6803	916.521	947.7138	956.9888	984.1499	1008.2131	1036.5174	1072.7116	1090.8159	1104.7468	1133.6606	1217.4665	1220.2532	1226.2725	1249.4259	1264.4191	1279.8173	1287.2143	1346.5367	1381.2249	1389.4621	1451.5554	1457.0526	1467.659	1483.2857	1501.6196	1815.1049	3009.0918	3047.0532	3054.299	3057.8183	3064.6974	3106.5239	3109.0574	3123.4832	3155.1779	3159.2571	3171.1241
CC(=O)CN1C2CCC12	CC(=O)CN1[C@H]2CC[C@@H]12	
InChI=1S/C7H11NO/c1-5(9)4-8-6-2-3-7(6)8/h6-7H,2-4H2,1H3	InChI=1S/C7H11NO/c1-5(9)4-8-6-2-3-7(6)8/h6-7H,2-4H2,1H3/t6-,7+,8?
