18
gdb 27759	2.20495	1.78535	1.00717	1.6424	81.83	-0.1743	0.0516	0.2259	1167.8333	0.147993	-401.949816	-401.941051	-401.940106	-401.983683	32.002	
C	-0.1086243403	 1.5365140096	-0.0533280745	-0.495439
C	 0.0986255808	 0.0589499106	-0.0765036391	 0.260107
C	-0.0185869581	-0.8607529709	-1.1168067049	-0.356815
C	 0.2906312139	-2.1743824095	-0.6344110396	 0.149704
O	 0.2675537642	-3.3523140087	-1.3287120562	-0.449446
C	 0.626987537	-2.013906805	 0.6881581669	 0.244263
C	 0.8326005727	-2.4129997353	 2.1376024714	-0.375904
C	 0.6316570146	-0.8785499125	 2.4458801993	-0.171612
N	 0.52347924	-0.6771992302	 0.9899112328	-0.044546
H	 0.8205607112	 2.0851511864	 0.1456026649	 0.12696
H	-0.4914638847	 1.8743540882	-1.0193695353	 0.132036
H	-0.8330703782	 1.8398691196	 0.7131498503	 0.122284
H	-0.2654698915	-0.6079246734	-2.1393914373	 0.080742
H	-0.0329127798	-3.1668637722	-2.2227258211	 0.293727
H	 0.0664370551	-3.0596945836	 2.5740011151	 0.1218
H	 1.8183576244	-2.8050780222	 2.4041024012	 0.118865
H	-0.2864360356	-0.6425729625	 2.9923735972	 0.123433
H	 1.4770427144	-0.3600273885	 2.9073065289	 0.119841
59.4294	99.332	174.2946	191.5602	225.318	245.4205	287.4166	375.8134	582.0879	592.8631	615.233	643.9827	669.8471	723.5865	727.0403	807.4217	902.8769	944.4178	1004.9721	1049.4233	1059.3758	1090.17	1137.3562	1169.1591	1182.0057	1208.2408	1224.5641	1260.5218	1306.4721	1356.4265	1415.9322	1428.3511	1444.5846	1478.8391	1490.4505	1507.6223	1516.4941	1540.1127	1675.8275	3014.7711	3046.7325	3054.4687	3057.2315	3089.1998	3104.891	3118.4792	3216.3641	3844.3279
CC1=CC(O)=C2CCN12	Cc1cc(O)c2CCn12	
InChI=1S/C7H9NO/c1-5-4-7(9)6-2-3-8(5)6/h4,9H,2-3H2,1H3	InChI=1S/C7H9NO/c1-5-4-7(9)6-2-3-8(5)6/h4,9H,2-3H2,1H3
