19
gdb 41783	2.97009	1.57121	1.1509	0.7924	75.53	-0.2464	-0.0033	0.2431	1069.137	0.161507	-422.994761	-422.98726	-422.986316	-423.026754	29.396	
C	 0.1810235094	 1.5910521635	 0.2378659685	-0.095103
O	 1.4205720891	 1.5353202561	-0.4986837355	-0.294852
C	 1.1861700063	 0.1536877081	-0.8676742214	 0.094517
C	 2.368569592	-0.7240245369	-0.5810611252	-0.06897
C	 2.2571329236	-1.9773197818	-0.1444890422	-0.094742
C	 0.9093587183	-2.6271548501	 0.0972521886	-0.113932
O	 0.1925302024	-2.119564953	 1.2228854608	-0.260764
C	 0.1939245486	-0.7114496768	 1.3750491007	-0.066443
C	-0.0405681091	 0.0726037104	 0.0868453456	-0.098189
H	 0.3291412894	 1.9622579054	 1.2598790687	 0.105211
H	-0.5663836904	 2.2182446162	-0.2645305244	 0.100986
H	 0.9076681317	 0.0911782791	-1.9319908886	 0.085497
H	 3.3404258186	-0.2624457378	-0.7391545979	 0.107048
H	 3.1480424088	-2.5626001791	 0.0635292596	 0.098064
H	 0.2878430749	-2.5338677058	-0.8073087058	 0.097575
H	 1.0256460807	-3.695902947	 0.2940173809	 0.111432
H	-0.6067621945	-0.496477535	 2.0915589796	 0.107397
H	 1.1381917356	-0.3706848551	 1.8254263582	 0.100671
H	-0.9777693055	-0.2267498903	-0.3871216403	 0.084594
92.7259	175.6591	243.4671	298.031	308.9355	337.7638	400.6949	520.992	577.8615	717.3253	725.037	809.9156	844.0272	866.9101	916.096	960.6295	980.1642	991.7926	1012.1581	1034.9285	1038.1955	1075.4932	1090.6057	1139.8101	1142.642	1173.7829	1212.6457	1240.1236	1273.8243	1283.0374	1305.9141	1340.5317	1348.8501	1364.9603	1392.4763	1409.8626	1425.2723	1502.6891	1510.5655	1525.778	1711.5474	2964.8807	2972.9552	2994.628	3010.0641	3050.8011	3062.1645	3090.113	3090.4068	3155.1802	3178.3351
C1OC2C=CCOCC12	C1O[C@H]2C=CCOC[C@@H]12	
InChI=1S/C7H10O2/c1-2-7-6(5-9-7)4-8-3-1/h1-2,6-7H,3-5H2	InChI=1S/C7H10O2/c1-2-7-6(5-9-7)4-8-3-1/h1-2,6-7H,3-5H2/t6-,7-/m0/s1
