20
gdb 63922	2.93394	1.54493	1.53443	2.456	76.86	-0.2265	0.0735	0.3	989.816	0.171819	-403.108662	-403.10084	-403.099896	-403.140328	32.037	
C	-0.28101518	 1.5751984383	 0.0484899625	-0.447768
C	-0.011283107	 0.0715095489	-0.0496391135	 0.375529
O	-1.2485164296	-0.6386103459	 0.0828131832	-0.479071
C	 0.7580909419	-0.3758414314	-1.3347803153	-0.27968
C	 2.1277357113	-0.8473929426	-0.8296113621	-0.062341
C	 2.8445152013	 0.306013299	-0.0963075839	-0.153622
N	 2.2980968835	-0.1237165835	 1.237332905	-0.168592
C	 1.8700239813	-1.4215608956	 0.5901525225	-0.056351
C	 0.8557717874	-0.4785062468	 1.083560904	-0.024055
H	 0.639668193	 2.1625416423	 0.0121349017	 0.128088
H	-0.9175205248	 1.9056680866	-0.7820230626	 0.104036
H	-0.7971262024	 1.8019646005	 0.9858817589	 0.127215
H	-1.8643815747	-0.2752373927	-0.5626183568	 0.273493
H	 0.203540766	-1.2050958859	-1.7845627988	 0.10462
H	 0.849311616	 0.4241692803	-2.077987034	 0.091055
H	 2.7082833609	-1.4281596345	-1.5459433619	 0.071043
H	 3.9298175842	 0.1827175166	-0.0584512084	 0.109857
H	 2.6169787614	 1.3345660859	-0.3992622367	 0.092924
H	 2.1192536159	-2.3950429466	 0.9946647798	 0.093378
H	 0.3697640344	-0.6246450827	 2.0418837063	 0.100242
141.5706	212.1995	238.3366	244.934	350.4179	360.9688	393.9657	417.9847	520.9886	589.298	626.4867	770.7478	784.732	800.432	849.1622	875.1312	884.9363	923.9416	936.5725	945.1286	993.6314	1011.805	1038.7959	1047.7661	1061.02	1100.001	1139.6326	1163.5812	1188.5337	1207.3572	1214.686	1261.5056	1272.5969	1278.1028	1301.6904	1337.2414	1366.8111	1401.4531	1410.1767	1477.6173	1489.8482	1492.5813	1511.0455	3024.8318	3032.4427	3038.8817	3090.2762	3093.4159	3097.1688	3114.5887	3124.8847	3174.8696	3189.0238	3803.9684
CC1(O)CC2CN3C2C13	C[C@@]1(O)C[C@H]2CN3[C@H]2[C@H]13	
InChI=1S/C7H11NO/c1-7(9)2-4-3-8-5(4)6(7)8/h4-6,9H,2-3H2,1H3	InChI=1S/C7H11NO/c1-7(9)2-4-3-8-5(4)6(7)8/h4-6,9H,2-3H2,1H3/t4-,5+,6+,7+,8?/m0/s1
