22
gdb 119952	2.38245	1.04129	0.91465	1.5272	84.77	-0.2285	-0.034	0.1945	1440.1512	0.191973	-404.33127	-404.32088	-404.319935	-404.36704	37.264	
C	-1.9429488484	 1.3086459762	 1.9733948277	-0.382637
C	-1.809100297	-0.1959628157	 1.7265557983	-0.165917
C	-1.9753287008	-0.5737249233	 0.2480975844	-0.213845
C	-1.7456135531	-2.0512249523	 0.0105187469	-0.000414
C	-2.8656529815	-3.0897596241	 0.0476043007	-0.121463
C	-4.2659521836	-2.6806102067	 0.3107123045	 0.148711
O	-4.8330091272	-1.6998108026	-0.1224041571	-0.279993
N	-2.1225494199	-2.7608269299	-1.181969432	-0.11222
C	-2.7784479036	-2.0841694096	-2.2992504638	-0.329857
H	-1.8217405931	 1.5497136024	 3.0339368366	 0.112595
H	-1.185400121	 1.8702049243	 1.4153104991	 0.114047
H	-2.925649224	 1.6751355899	 1.6577342314	 0.122632
H	-0.8302615052	-0.5413303704	 2.0853659808	 0.09519
H	-2.5583222161	-0.7345821694	 2.3204508282	 0.101478
H	-2.9685076575	-0.277954403	-0.0969129813	 0.138518
H	-1.2441434862	-0.0152967889	-0.3532312122	 0.10032
H	-0.8075086287	-2.4145693498	 0.435079688	 0.09867
H	-2.6296180406	-4.0735300424	 0.4497758047	 0.095155
H	-4.8048807849	-3.3883619075	 0.9804686073	 0.080976
H	-3.5631327379	-1.3768393993	-2.0176643805	 0.150063
H	-2.0054313573	-1.5636028692	-2.872964252	 0.12348
H	-3.2195326026	-2.8486259687	-2.9457985196	 0.124512
60.2821	82.0779	116.8715	173.4846	176.9798	204.71	233.9372	254.9223	275.2873	333.4174	389.4889	456.2482	532.0308	680.4066	742.9832	771.5092	825.199	868.5833	907.8901	911.9759	974.4675	1006.3686	1050.0266	1069.7977	1091.4313	1121.92	1151.3353	1160.8439	1169.9089	1198.154	1266.0687	1299.3503	1327.9408	1348.5523	1381.6906	1386.655	1413.3694	1427.4048	1434.614	1454.4538	1478.6503	1486.5315	1492.2278	1500.6228	1509.7129	1518.3912	1786.3022	2874.5236	3012.012	3017.7428	3031.5379	3036.8832	3049.5073	3078.2263	3098.1484	3104.4583	3106.6558	3111.8239	3117.6545	3122.1581
CCCC1C(C=O)N1C	CCC[C@H]1[C@@H](C=O)N1C	
InChI=1S/C7H13NO/c1-3-4-6-7(5-9)8(6)2/h5-7H,3-4H2,1-2H3	InChI=1S/C7H13NO/c1-3-4-6-7(5-9)8(6)2/h5-7H,3-4H2,1-2H3/t6-,7+,8?/m0/s1
