17
gdb 27546	5.11888	0.99653	0.87003	0.8381	77.29	-0.1772	0.0447	0.2219	1310.2605	0.136907	-417.994441	-417.986245	-417.985301	-418.027466	31.068	
N	 0.017165488	 1.375388065	-0.3407230859	-0.594668
C	-0.0605798854	 0.0068763761	-0.1225580535	 0.413499
C	-1.0698440337	-0.9023065537	-0.232333514	-0.387178
C	-0.4640112653	-2.1824705053	 0.0346710394	 0.279304
C	 0.8530685445	-1.9508586626	 0.2817423099	-0.128155
O	 1.1066279073	-0.5933236436	 0.1922089453	-0.184259
N	-1.1586541267	-3.3998068135	 0.1053628333	-0.151429
C	-1.6487027012	-4.0036158928	-1.133846046	-0.225851
C	-0.5084902153	-4.6064909399	-0.3863164762	-0.227576
H	 0.7402328205	 1.813167414	 0.2162611995	 0.254786
H	-0.8686433283	 1.8434071073	-0.2084694245	 0.255178
H	-2.1043559015	-0.7090839929	-0.4644319855	 0.096143
H	 1.6860352897	-2.5678930184	 0.5660819673	 0.123747
H	-2.6392864301	-4.4450162588	-1.077292827	 0.117915
H	-1.4168096387	-3.4966461932	-2.067491893	 0.122184
H	 0.4797968168	-4.5008436369	-0.828576572	 0.11798
H	-0.6544198707	-5.4981612407	 0.2160750229	 0.118378
65.4401	137.928	179.4604	191.6627	267.4133	365.1685	409.7468	499.2123	551.0902	601.9464	648.4666	683.3318	706.0885	736.6775	764.885	823.459	891.9656	912.3396	964.2193	1006.7331	1037.6155	1084.7519	1112.2195	1129.5832	1145.2688	1161.5893	1173.9271	1189.5075	1244.7815	1293.3499	1379.1254	1459.22	1488.5456	1514.9635	1606.8703	1635.6026	1673.6982	3103.6636	3108.027	3187.6428	3201.8906	3263.9429	3299.3516	3545.8755	3646.8314
NC1=CC(=CO1)N1CC1	Nc1cc(co1)N1CC1	
InChI=1S/C6H8N2O/c7-6-3-5(4-9-6)8-1-2-8/h3-4H,1-2,7H2	InChI=1S/C6H8N2O/c7-6-3-5(4-9-6)8-1-2-8/h3-4H,1-2,7H2
