15
gdb 20922	3.34022	1.98428	1.3688	4.5833	62.93	-0.2321	0.0154	0.2475	891.8227	0.119514	-395.979275	-395.971585	-395.970641	-396.012103	27.407	
C	 0.0019233367	 1.5312841294	-0.0401283795	-0.383684
C	-0.0428968129	 0.0054699379	 0.0509226134	-0.143719
N	-1.3966064593	-0.5220812473	-0.0147938865	 0.008441
N	-2.077217537	-0.8650877857	 1.1151545064	-0.161722
N	-3.2577518429	-1.2667699404	 0.7527285121	-0.181951
C	-3.3727294618	-1.1900670897	-0.6027285423	-0.188876
C	-2.1805834494	-0.710645869	-1.0971611847	 0.367457
O	-1.6951326081	-0.4250559322	-2.3237875254	-0.429763
H	 1.0364077882	 1.8784028107	 0.038971051	 0.1245
H	-0.4030840718	 1.878042605	-0.9947874598	 0.136036
H	-0.5779921947	 1.9811036577	 0.7700869008	 0.143078
H	 0.5361195187	-0.4497573642	-0.7580420787	 0.131908
H	 0.3637373861	-0.3444429212	 1.0019653249	 0.145411
H	-4.2706511615	-1.4777989203	-1.1248625061	 0.114733
H	-2.3593653202	-0.6506272807	-2.9828192457	 0.318153
32.8608	128.3494	207.9494	265.1865	284.5885	304.21	412.9712	457.6837	663.8505	699.4321	714.7475	735.1903	782.9943	791.0747	974.0608	987.922	1046.9578	1102.7678	1120.9313	1166.9518	1227.7411	1284.0777	1305.2117	1355.0445	1371.5425	1390.1999	1409.6792	1475.0133	1491.559	1505.3573	1550.0678	1622.6825	3046.76	3066.2203	3114.2477	3123.0121	3137.6649	3264.9759	3838.8246
CCN1N=NC=C1O	CCn1nncc1O	
InChI=1S/C4H7N3O/c1-2-7-4(8)3-5-6-7/h3,8H,2H2,1H3	InChI=1S/C4H7N3O/c1-2-7-4(8)3-5-6-7/h3,8H,2H2,1H3
