18
gdb 28016	3.77197	0.93428	0.8008	2.5492	85.55	-0.1973	0.0434	0.2407	1445.7749	0.146981	-364.822563	-364.813324	-364.81238	-364.857471	34.025	
C	 0.078931107	 1.5021342825	 0.0161919595	-0.501696
C	 0.0265058874	 0.0101796856	-0.0148849211	 0.331249
C	 0.219953313	-0.8810384308	-1.0457850077	-0.322673
C	 0.0583874047	-2.2014764446	-0.5293196103	 0.299462
C	 0.1521209948	-3.4967994301	-1.2966805455	-0.471674
C	 1.4260142087	-3.6835812996	-1.991431305	 0.321838
C	 2.4688114764	-3.8300422668	-2.5708485832	-0.470682
C	-0.2293306453	-2.0738982662	 0.8083639968	-0.191003
N	-0.2482721308	-0.7328189362	 1.1099141065	-0.299551
H	 0.8473298557	 1.8760308341	 0.7046755949	 0.125813
H	 0.3150719424	 1.8850001357	-0.9791086635	 0.139108
H	-0.8770608855	 1.9454549984	 0.3226777707	 0.124691
H	 0.4646886174	-0.6189145242	-2.0643612968	 0.094297
H	-0.009709204	-4.3369673955	-0.6099353745	 0.128287
H	-0.6587795887	-3.5583123735	-2.0364712806	 0.134299
H	 3.3929542559	-3.9599800257	-3.076566049	 0.190617
H	-0.4195563639	-2.820883102	 1.5628009319	 0.112695
H	-0.4288818153	-0.3495135111	 2.0212540268	 0.254924
31.6454	89.4847	103.5054	197.3189	250.7391	308.2706	335.7014	375.5585	443.2192	463.2335	605.7631	612.573	630.9194	645.1432	667.8723	712.6823	762.7784	810.8763	930.8437	947.949	974.6122	997.5183	1014.4999	1062.8414	1136.637	1170.9159	1203.4794	1273.8664	1309.5132	1343.0032	1416.8722	1431.2865	1448.4132	1463.0962	1480.8748	1503.1899	1553.6889	1636.7812	2237.7264	3002.4268	3015.469	3045.2619	3058.9663	3123.8767	3243.0807	3256.6981	3508.2681	3678.396
CC1=CC(CC#C)=CN1	Cc1cc(CC#C)c[nH]1	
InChI=1S/C8H9N/c1-3-4-8-5-7(2)9-6-8/h1,5-6,9H,4H2,2H3	InChI=1S/C8H9N/c1-3-4-8-5-7(2)9-6-8/h1,5-6,9H,4H2,2H3
