20
gdb 17635	2.92197	1.51595	1.18704	2.5557	75.33	-0.2361	-0.0075	0.2286	1098.534	0.174814	-349.018237	-349.008857	-349.007913	-349.052947	33.718	
C	 0.3467820539	 1.8245668099	-0.0664643452	-0.39166
C	 0.0629680709	 0.3194112013	 0.0092921484	-0.101879
C	 0.6149976164	-0.4150306045	-1.2090305571	 0.049848
C	-0.0185471472	-1.6841928366	-1.7236827797	-0.276591
C	-0.1385551748	-0.4043463585	-2.5140538618	-0.280848
C	 0.7080268598	-0.2960426465	 1.2604125984	 0.396808
C	-0.0714222205	-1.3857070088	 1.9708371978	-0.485938
O	 1.8010535629	 0.0598808988	 1.6384727796	-0.314179
H	 1.4239050031	 2.0046289317	-0.0317454282	 0.139181
H	-0.0525714548	 2.2431580226	-0.9944468276	 0.112117
H	-0.1064272713	 2.357107627	 0.775573589	 0.111749
H	-1.0201163684	 0.1447413677	 0.0481855343	 0.067613
H	 1.6980805915	-0.3596293475	-1.2822695217	 0.099973
H	 0.6275783528	-2.4690984034	-2.1007180246	 0.116491
H	-0.9121466537	-2.0485352662	-1.2267359409	 0.109529
H	-1.1071303742	 0.0850734373	-2.5356368239	 0.112389
H	 0.4265301824	-0.3088760123	-3.4345514266	 0.115862
H	-1.0001605662	-0.9701790552	 2.3801020499	 0.138141
H	-0.3605516398	-2.1707442609	 1.2638739027	 0.142385
H	 0.5254869072	-1.8109564058	 2.7787047771	 0.13901
32.9511	92.2832	149.3879	157.3179	213.3165	237.3199	250.5625	334.1333	350.3457	460.9277	587.2081	601.6614	746.9565	793.8208	817.0375	833.9033	926.8699	940.7149	955.7022	986.648	1023.2473	1055.326	1076.6905	1085.4934	1114.1089	1146.8572	1174.9414	1199.2936	1204.0821	1226.2839	1297.4265	1353.2129	1379.0111	1398.2769	1405.8896	1461.571	1468.5525	1475.9238	1490.1746	1499.5748	1503.4016	1809.1823	3021.9071	3034.5048	3043.3741	3096.237	3110.5399	3126.9238	3130.6464	3132.0256	3144.1848	3150.1136	3205.6486	3220.8589
CC(C1CC1)C(C)=O	C[C@@H](C1CC1)C(=O)C	
InChI=1S/C7H12O/c1-5(6(2)8)7-3-4-7/h5,7H,3-4H2,1-2H3	InChI=1S/C7H12O/c1-5(6(2)8)7-3-4-7/h5,7H,3-4H2,1-2H3/t5-/m1/s1
