23
gdb 95292	2.07427	1.7746	1.35854	1.3516	84.5	-0.2454	0.0789	0.3243	1108.3783	0.206533	-388.29996	-388.291068	-388.290123	-388.333146	34.972	
C	-0.5849787604	 1.400877695	-0.0017948262	-0.418414
C	-0.011628058	-0.0052389301	-0.0092093263	 0.092064
O	 0.8676854115	-0.150983933	-1.1232885602	-0.267539
C	 1.5533063092	-1.3818163076	-0.9222964723	-0.097645
C	 1.8475519179	-1.4666445725	 0.5807050954	-0.075505
C	 3.0232616479	-0.592965931	 1.0912262582	-0.216365
C	 2.0200243987	 0.4903698382	 1.5686111113	-0.273921
C	 0.8224841347	-0.4489448426	 1.2094377077	 0.342825
C	-0.0113672871	-0.9205364273	 2.3898747645	-0.487274
H	 0.2009323269	 2.1537735261	 0.0989674195	 0.124437
H	-1.1200067264	 1.5933656808	-0.9357505177	 0.126157
H	-1.2906406671	 1.5205054937	 0.8262315602	 0.115345
H	-0.8452470813	-0.7259731154	-0.1154488842	 0.052429
H	 0.9172711606	-2.2266311522	-1.2349841488	 0.082915
H	 2.4488042558	-1.3739222549	-1.5510545567	 0.102436
H	 1.8228790577	-2.495066342	 0.9486095609	 0.062501
H	 3.5855505094	-1.0591876306	 1.9039302524	 0.096998
H	 3.7336858356	-0.273980806	 0.3232587029	 0.097597
H	 2.0842495259	 0.7599570232	 2.6260264365	 0.092569
H	 2.0572550353	 1.4076925529	 0.9779460481	 0.105225
H	-0.6094598189	-0.1011608781	 2.806868848	 0.116044
H	-0.7002174171	-1.7215022204	 2.0974840146	 0.112719
H	 0.6229066993	-1.3038461863	 3.1960458224	 0.114402
70.4612	171.0875	207.3009	224.8828	248.6716	260.0759	302.7471	354.264	405.7245	522.0833	568.934	598.5954	692.899	752.2173	806.2872	837.8016	874.5484	884.7653	911.1416	941.2032	981.2803	1007.0111	1021.59	1048.8055	1068.1472	1113.5102	1128.7071	1146.5544	1176.1911	1182.2841	1222.9244	1232.9891	1254.7557	1265.5827	1284.4667	1296.3319	1330.2214	1358.337	1387.1285	1393.4789	1410.7543	1414.166	1471.9556	1484.2312	1489.973	1492.7804	1496.2199	1502.1204	1508.1222	2911.8059	2963.8878	3018.9129	3046.0877	3053.1011	3063.2359	3077.5057	3079.6008	3082.0198	3091.8915	3100.2531	3115.8935	3120.9147	3126.2489
CC1OCC2CCC12C	C[C@H]1OC[C@H]2CC[C@@]12C	
InChI=1S/C8H14O/c1-6-8(2)4-3-7(8)5-9-6/h6-7H,3-5H2,1-2H3	InChI=1S/C8H14O/c1-6-8(2)4-3-7(8)5-9-6/h6-7H,3-5H2,1-2H3/t6-,7-,8+/m1/s1
