18
gdb 47916	2.26227	1.85507	1.27797	3.5868	69.72	-0.2448	0.0413	0.2861	1023.167	0.149351	-476.21812	-476.210328	-476.209384	-476.250424	30.037	
N	-0.2196965964	 1.3105469399	 0.2571447577	-0.542462
C	-0.0045411381	 0.0926935226	 0.0139336732	 0.470833
O	 1.2290999565	-0.4649373009	-0.0881129221	-0.251636
C	 1.3308328879	-1.6998522458	-0.803995469	-0.105211
C	 1.1651779565	-1.4981333907	-2.3154198397	-0.079453
O	 0.0224643358	-0.7591684993	-2.7008092976	-0.239607
C	-1.2457507888	-1.3334625226	-2.4263097664	-0.085366
C	-1.8759544701	-0.653386663	-1.2136232738	-0.080247
O	-1.0136604552	-0.8116429791	-0.0834240653	-0.251631
H	 0.6605246564	 1.8224845808	 0.2774532718	 0.227568
H	 2.3393765445	-2.0726307134	-0.6043706954	 0.118288
H	 0.609114148	-2.4187681763	-0.4116847194	 0.127272
H	 2.0108365419	-0.9202394597	-2.7001950795	 0.123968
H	 1.1808856577	-2.4897068882	-2.7979198529	 0.096437
H	-1.8831689213	-1.1772898758	-3.3059254337	 0.113161
H	-1.1622364653	-2.4159040638	-2.2571609196	 0.100884
H	-2.0334489918	 0.413416513	-1.3988366016	 0.14233
H	-2.8295531284	-1.1217767778	-0.9540072968	 0.11487
98.6341	146.4006	218.6582	273.0324	289.1475	359.2664	403.1292	493.4017	534.8011	590.554	604.596	741.031	808.9631	849.3464	858.7467	886.2658	918.4107	922.9186	1012.8933	1025.3146	1097.1518	1108.2495	1139.546	1165.0504	1176.3799	1273.0778	1283.3832	1293.1813	1314.6478	1315.868	1394.1751	1399.7537	1414.5398	1421.706	1480.1974	1482.5828	1491.4069	1496.6738	1761.0501	2973.5763	3007.0176	3052.1054	3064.9943	3071.179	3085.4796	3117.3002	3124.772	3516.9531
N=C1OCCOCCO1	[NH][C]1OCCOCCO1	
InChI=1S/C5H9NO3/c6-5-8-3-1-7-2-4-9-5/h6H,1-4H2	InChI=1S/C5H9NO3/c6-5-8-3-1-7-2-4-9-5/h6H,1-4H2
