13
gdb 35158	2.50853	1.33495	1.0144	2.8017	77.33	-0.2695	-0.0261	0.2434	1143.2707	0.086424	-378.372319	-378.363628	-378.362684	-378.405719	31.695	
C	-0.1459658065	-1.1904309582	-0.0304100513	-0.395733
C	-0.0604197053	 0.0064956892	 0.0184424347	 0.391327
C	 0.0150740717	 1.4368158599	 0.0346979804	-0.31037
N	 0.5331271825	 2.0939778882	 1.2374891335	-0.327324
C	 1.3650560319	 2.1590682359	 0.0137661711	-0.019335
C	 2.6058854712	 1.4340055902	 0.0201155161	 0.307778
C	 3.6447857263	 0.8338769927	-0.0041631772	-0.383515
C	 1.3786747131	 3.4099301392	-0.7182570435	 0.239826
N	 1.3658979575	 4.4192235909	-1.2824144315	-0.33223
H	-0.21443937	-2.2501205432	-0.0632587512	 0.211527
H	-0.7669618748	 1.9491111352	-0.521759491	 0.143681
H	 0.0650445505	 2.9863940671	 1.3835678865	 0.263039
H	 4.5639351919	 0.3010433028	-0.0151340766	 0.211328
96.7974	111.1183	133.8133	206.8905	229.4975	266.6063	410.0003	476.2223	483.5681	568.1256	588.8933	624.5463	637.959	645.7278	667.6174	674.8232	680.4134	785.7549	903.539	983.1487	1029.1481	1074.8536	1187.91	1225.6598	1329.8814	1418.8095	2248.5257	2254.5017	2353.3178	3135.7353	3500.1231	3500.7064	3501.692
C#CC1NC1(C#C)C#N	C#C[C@H]1N[C@]1(C#C)C#N	
InChI=1S/C7H4N2/c1-3-6-7(4-2,5-8)9-6/h1-2,6,9H	InChI=1S/C7H4N2/c1-3-6-7(4-2,5-8)9-6/h1-2,6,9H/t6-,7-/m1/s1
