18
gdb 67213	2.68096	1.71777	1.31813	2.255	71.32	-0.2131	0.0694	0.2825	1001.3375	0.146673	-438.998336	-438.990164	-438.989219	-439.030272	32.926	
C	 0.0212411732	 1.5645403106	-0.0061192438	-0.465345
C	 0.0633822723	 0.0463061107	 0.0149929178	 0.462292
O	-1.2354644347	-0.5128439316	 0.1507794735	-0.479837
C	 0.7690897312	-0.7223707373	-1.0965117961	-0.147251
C	 2.2583033801	-0.8355861802	-0.6737996796	-0.14889
N	 2.3876943705	-0.0560210443	 0.5780613	-0.31719
C	 1.0757220272	-0.6638448279	 0.9749039264	-0.210613
C	 1.2274181656	-1.8019028345	-0.1558990845	 0.358865
O	 1.0052036948	-3.1475481244	-0.2431074391	-0.443007
H	 1.0278517092	 1.9771356402	-0.0868197987	 0.143676
H	-0.5857593385	 1.912522487	-0.8478968445	 0.118058
H	-0.4303850575	 1.9504651622	 0.9175636217	 0.095846
H	-1.6462182255	-0.1055743816	 0.9213995684	 0.273218
H	 0.4693043427	-0.8255313909	-2.1317170587	 0.09417
H	 3.048246864	-0.9326624103	-1.4079794625	 0.098003
H	 3.1212458215	-0.4935130669	 1.1348029132	 0.212815
H	 0.8588213842	-0.7706923547	 2.0371991199	 0.06584
H	 1.7053161897	-3.6080430361	 0.2338330165	 0.28935
158.5327	203.6951	215.3572	292.8697	312.7025	339.5537	363.3952	391.4753	414.2265	518.5237	571.1	600.3624	647.6902	755.841	809.6891	856.702	869.6662	921.1582	930.2463	965.6987	983.7622	1014.4074	1034.0488	1059.238	1085.7467	1099.4604	1144.1738	1160.1411	1179.8293	1209.0058	1242.2952	1287.8546	1314.0039	1344.0464	1392.8865	1406.0884	1484.1017	1486.075	1499.0398	3019.5935	3089.9399	3127.7245	3144.8065	3195.833	3205.2805	3453.8086	3782.6132	3797.6015
CC1(O)C2C3NC1C23O	C[C@@]1(O)[C@H]2[C@H]3N[C@@H]1[C@@]23O	
InChI=1S/C6H9NO2/c1-5(8)2-3-6(2,9)4(5)7-3/h2-4,7-9H,1H3	InChI=1S/C6H9NO2/c1-5(8)2-3-6(2,9)4(5)7-3/h2-4,7-9H,1H3/t2-,3-,4+,5-,6-/m1/s1
