22
gdb 103735	2.62268	1.21433	0.96783	2.2756	84.54	-0.2471	-0.0335	0.2136	1318.8622	0.191351	-404.350381	-404.339741	-404.338796	-404.386055	38.735	
C	-0.0274950889	 1.4599090701	-0.3955673346	-0.382374
C	-0.0817097915	 0.0958977292	 0.3068471852	-0.220007
C	-1.4543123879	-0.56483188	 0.2131640539	 0.287036
C	-2.5368339103	 0.1661183425	 0.9887494593	-0.487859
N	-1.7747149916	-1.1332609636	-1.0964099986	-0.393358
C	-1.5344498594	-2.0786595622	 0.0076457488	 0.16754
C	-0.3145064134	-2.9794671795	-0.0747833667	-0.480359
C	-2.734742034	-2.7829702167	 0.5477040114	 0.105407
O	-3.8804878559	-2.5144408343	 0.2644947338	-0.274113
H	 0.9896481869	 1.8622640592	-0.3711960905	 0.113159
H	-0.3285011571	 1.358840461	-1.4426083533	 0.134813
H	-0.6830116313	 2.1962590482	 0.0785125635	 0.117192
H	 0.6749774691	-0.550339499	-0.1411380581	 0.102245
H	 0.1844918776	 0.2073932014	 1.36552741	 0.096195
H	-2.6762846332	 1.1694636399	 0.5734902126	 0.127085
H	-3.4970173654	-0.3470691765	 0.9451196419	 0.152479
H	-2.2493165299	 0.2843208232	 2.0392917388	 0.118236
H	-2.7837333308	-1.097420164	-1.2514229445	 0.239829
H	 0.4920377739	-2.5067301038	-0.6333529286	 0.144286
H	 0.0559979625	-3.241535999	 0.9223816055	 0.122605
H	-0.5640141414	-3.9111638192	-0.5947963684	 0.127766
H	-2.503571438	-3.6254740569	 1.2357648387	 0.082197
48.9366	93.9079	128.5423	163.2966	188.2706	230.7064	236.1063	276.3294	309.9437	323.8117	372.1252	392.8842	470.3435	512.8074	646.73	683.629	750.2396	785.7594	834.4784	913.9542	954.4224	997.5053	1009.0721	1039.0806	1046.6295	1082.6057	1112.6975	1118.9143	1144.2656	1184.6866	1257.6909	1298.4518	1343.9694	1362.6714	1392.6986	1405.4957	1412.1916	1420.1803	1436.2389	1474.7314	1486.2219	1497.4116	1498.694	1503.8037	1510.7514	1515.6069	1793.381	2893.0339	3033.1738	3036.5744	3040.4024	3043.1933	3092.1902	3095.3774	3101.5404	3112.8979	3122.8451	3153.6393	3156.9257	3448.6534
CCC1(C)NC1(C)C=O	CC[C@@]1(C)N[C@]1(C)C=O	
InChI=1S/C7H13NO/c1-4-6(2)7(3,5-9)8-6/h5,8H,4H2,1-3H3	InChI=1S/C7H13NO/c1-4-6(2)7(3,5-9)8-6/h5,8H,4H2,1-3H3/t6-,7-/m1/s1
