18
gdb 11893	4.83689	1.48068	1.26701	1.645	77.09	-0.2051	0.0227	0.2278	1011.5959	0.153129	-347.800196	-347.792429	-347.791485	-347.832245	29.504	
C	 0.031807211	 1.4975223294	-0.0104721669	-0.492748
C	-0.0156258427	 0.0054103676	-0.0010093416	 0.288376
C	-1.050733093	-0.8083128363	 0.2039277783	-0.282329
C	-0.6149598511	-2.2172915045	 0.117681518	 0.455339
C	-1.1333377082	-3.3282821467	 0.9939950589	-0.325094
C	-1.4281396661	-3.3283309359	-0.4949033151	-0.325094
O	 0.7735875995	-2.1942896505	-0.1572644029	-0.310979
C	 1.2109517806	-0.8417150758	-0.2438118017	-0.164596
H	 0.7278524547	 1.878550742	 0.7478461295	 0.1291
H	 0.3853824231	 1.8784909148	-0.9772002328	 0.129113
H	-0.9522544569	 1.931146906	 0.1848677154	 0.128187
H	-2.0740389413	-0.518288987	 0.4065302985	 0.100966
H	-0.3953702072	-4.036492208	 1.3539768677	 0.123549
H	-1.9385798352	-3.1130845451	 1.6886786536	 0.110426
H	-2.4373457548	-3.1131670424	-0.8303399954	 0.110426
H	-0.8830190969	-4.0365727679	-1.1088916523	 0.12355
H	 1.6560544486	-0.6539783167	-1.2349262648	 0.100905
H	 2.000039726	-0.6539801431	 0.5030282136	 0.100902
76.1441	158.0203	178.5475	236.2328	313.0813	361.8495	401.3659	499.7726	541.9182	623.02	762.4232	821.5821	835.5058	896.0869	898.1145	912.4859	916.2165	974.4188	1003.2974	1014.217	1049.6294	1060.5299	1091.7039	1093.7258	1157.2368	1190.7131	1199.4412	1244.9679	1307.3674	1383.6994	1392.4525	1417.167	1448.4371	1479.7071	1488.7883	1492.4341	1521.3473	1726.8556	2961.1237	2975.603	3017.3056	3061.6208	3114.5304	3128.1685	3130.931	3212.9855	3213.8721	3229.0805
CC1=CC2(CC2)OC1	CC1=CC2(CC2)OC1	
InChI=1S/C7H10O/c1-6-4-7(2-3-7)8-5-6/h4H,2-3,5H2,1H3	InChI=1S/C7H10O/c1-6-4-7(2-3-7)8-5-6/h4H,2-3,5H2,1H3
