21
gdb 103569	2.31776	1.23991	1.12363	4.2532	78.48	-0.2637	0.0158	0.2795	1254.1797	0.180511	-424.275437	-424.265485	-424.264541	-424.310092	36.707	
C	-0.1190879568	 1.5542450621	-0.4046367271	-0.396867
C	-0.1011644929	 0.0523628565	-0.0970118067	-0.216566
C	-1.4768281835	-0.5451639857	 0.189496256	 0.418977
C	-2.2093071695	 0.0971028538	 1.3557824956	-0.445861
O	-2.3175815544	-0.4577130226	-1.0377104848	-0.288631
C	-2.3772693149	-1.8179944096	-1.1615936989	 0.450745
O	-2.8914837807	-2.4481792346	-2.0312026093	-0.333904
C	-1.5926547286	-2.100268322	 0.1191627605	-0.251673
C	-0.3791151671	-3.0155424094	 0.0179481932	-0.420228
H	 0.8748641808	 1.8895985502	-0.7139858024	 0.11783
H	-0.8181474863	 1.7713070992	-1.2173109415	 0.141953
H	-0.4106279016	 2.1500703609	 0.4649062445	 0.119848
H	 0.3350369393	-0.47661853	-0.9504262537	 0.108341
H	 0.5490064814	-0.1515401716	 0.7632057467	 0.102813
H	-2.3670079972	 1.1649940553	 1.1871148229	 0.137073
H	-3.187875309	-0.3696814072	 1.4984648219	 0.127018
H	-1.6315654622	-0.0227634711	 2.27854181	 0.123338
H	-2.2701346588	-2.4723307679	 0.894918538	 0.108565
H	 0.3083939832	-2.7108269127	-0.7744091098	 0.131209
H	 0.1744067219	-3.0431260668	 0.9615646203	 0.123927
H	-0.7104887031	-4.0331228868	-0.2079085653	 0.142094
74.9463	100.2093	172.0046	191.7183	204.605	221.6041	232.7849	303.083	331.0695	348.5162	427.3118	470.6076	570.6743	634.3086	691.7699	763.8478	794.145	835.3669	849.3668	920.4284	1001.9134	1011.1452	1038.4047	1067.7414	1078.9553	1100.3026	1140.6619	1193.0422	1232.7862	1242.6794	1263.5118	1325.61	1365.0585	1381.8352	1409.8618	1412.8431	1417.3014	1471.4648	1486.9249	1493.0197	1496.8403	1500.9595	1506.4259	1513.145	1926.7689	3031.3959	3042.2855	3045.9908	3046.7296	3058.2196	3076.3035	3112.5231	3113.8778	3114.2833	3122.3005	3125.287	3128.2655
CCC1(C)OC(=O)C1C	CC[C@@]1(C)OC(=O)[C@H]1C	
InChI=1S/C7H12O2/c1-4-7(3)5(2)6(8)9-7/h5H,4H2,1-3H3	InChI=1S/C7H12O2/c1-4-7(3)5(2)6(8)9-7/h5H,4H2,1-3H3/t5-,7-/m1/s1
