20
gdb 57475	2.48272	1.41099	1.1155	3.7247	75.64	-0.246	-0.0287	0.2173	1170.4904	0.168589	-440.285783	-440.276209	-440.275265	-440.319878	36.261	
C	-0.11451051	 1.5384335099	 0.1216715033	-0.41057
C	-0.0029780182	 0.0172457673	 0.0312531153	 0.364125
C	 0.7224274081	-0.5683616286	 1.2529295639	-0.423104
O	-1.329433654	-0.4968218644	-0.0354901048	-0.474899
C	 0.7297814819	-0.3994514843	-1.260714456	-0.141761
N	 0.5224746472	-1.8420644599	-1.60006937	-0.341325
C	 0.0487850128	-1.5405285151	-2.9797158257	-0.28557
C	 0.0618299658	-0.0498471483	-2.6080400863	 0.407853
O	-0.2876675684	 0.956758827	-3.1445964387	-0.287259
H	 0.8757483757	 1.9988233426	 0.1948533329	 0.107186
H	-0.6214979187	 1.9413141052	-0.757323471	 0.148493
H	-0.6873833318	 1.8101968592	 1.0127501702	 0.122181
H	 0.1500700224	-0.3482421185	 2.1583586426	 0.125655
H	 0.8102616818	-1.6564338716	 1.1629581336	 0.111617
H	 1.7283133707	-0.1496815973	 1.3657397675	 0.106072
H	-1.2257013966	-1.4276902082	-0.2816741681	 0.279917
H	 1.7800636739	-0.0767622326	-1.2361083118	 0.09226
H	 1.3629005071	-2.4055611539	-1.5664935585	 0.231198
H	 0.7563038115	-1.7736623632	-3.7863058922	 0.1284
H	-0.9266094612	-1.9706646054	-3.2297396564	 0.13953
77.1222	106.6895	148.6731	207.4029	245.2052	268.9156	286.0959	334.6667	381.5432	438.8966	443.817	530.0923	546.014	593.3656	668.3681	727.8413	809.2078	856.6956	918.0668	934.5747	964.5938	994.4067	1008.3213	1019.3459	1023.6753	1084.9964	1104.1202	1149.435	1187.3163	1222.9696	1242.0012	1286.5246	1315.8744	1358.7001	1388.4172	1401.1123	1422.9758	1472.841	1479.2575	1487.8777	1498.9007	1508.3476	1913.5665	3012.7394	3022.7586	3030.0409	3046.5958	3078.8879	3099.5434	3112.871	3118.092	3139.8157	3558.2008	3723.7436
CC(C)(O)C1NCC1=O	CC(C)(O)[C@H]1NCC1=O	
InChI=1S/C6H11NO2/c1-6(2,9)5-4(8)3-7-5/h5,7,9H,3H2,1-2H3	InChI=1S/C6H11NO2/c1-6(2,9)5-4(8)3-7-5/h5,7,9H,3H2,1-2H3/t5-/m0/s1
