23
gdb 40178	3.12904	1.36005	1.15358	0.1275	88.38	-0.2553	0.0789	0.3342	1172.9774	0.208787	-351.149315	-351.141369	-351.140425	-351.181421	33.112	
C	 0.0392103321	 1.5360332316	 0.0000993759	-0.334522
C	 1.3264070346	 0.7420867275	 0.0336606227	-0.299446
C	-0.0076576074	 0.0323013825	 0.0127329447	 0.418261
C	-0.4382093606	-0.692615877	 1.2756655298	-0.298605
C	 0.2353686177	-2.0726019864	 1.3612189091	-0.212799
C	 0.1016063841	-2.8862484798	 0.0850619934	-0.001232
C	-1.231747029	-3.0960615087	-0.5839979544	-0.286943
C	-0.2035444646	-2.1936310854	-1.2284247846	-0.021804
C	-0.4350557675	-0.6797265567	-1.2647974846	-0.303587
H	-0.2555520846	 2.0693671851	 0.8983457855	 0.10506
H	-0.2189063105	 2.0480458804	-0.9218757211	 0.105015
H	 1.9370985078	 0.7204153612	-0.8630457285	 0.105422
H	 1.897896425	 0.7405797853	 0.956665191	 0.105086
H	-0.1781860123	-0.1029776936	 2.1619018194	 0.089444
H	-1.5319423964	-0.7971000101	 1.2871518045	 0.093975
H	 1.3035505379	-1.9197205998	 1.5620341448	 0.097044
H	-0.1640018385	-2.6366273929	 2.2136452204	 0.090147
H	 0.7868258044	-3.7278782204	 0.0284298818	 0.075846
H	-1.4357079316	-4.0609419782	-1.0358649034	 0.102128
H	-2.1069586862	-2.6210671521	-0.1500218931	 0.105047
H	 0.2904204406	-2.5978977391	-2.1064074538	 0.078218
H	-1.4989860477	-0.4753448971	-1.4493240125	 0.096417
H	 0.1051653526	-0.2495227663	-2.1149491871	 0.091829
89.5566	172.1561	276.4048	286.5957	319.8113	366.6179	395.8691	465.2423	507.3062	613.056	715.0885	748.4313	782.0834	801.1751	845.3698	853.7985	896.0237	913.8581	921.7298	951.3663	968.6699	993.3636	1000.591	1046.2433	1056.3031	1058.1134	1077.1554	1088.8199	1117.116	1119.1896	1139.4041	1186.2354	1196.8484	1227.3816	1234.1668	1256.7514	1312.7328	1324.7437	1358.0624	1370.7332	1377.304	1404.7526	1416.7635	1466.8921	1483.6424	1487.0146	1488.2429	1502.2291	1509.1475	3003.6399	3010.9944	3015.995	3048.4474	3057.6097	3062.1079	3119.6747	3120.3132	3124.5344	3133.4633	3149.1087	3196.3929	3203.5229	3211.1501
C1CC11CCC2CC2C1	C1CC21CC[C@H]1C[C@H]1C2	
InChI=1S/C9H14/c1-2-9(3-4-9)6-8-5-7(1)8/h7-8H,1-6H2	InChI=1S/C9H14/c1-2-9(3-4-9)6-8-5-7(1)8/h7-8H,1-6H2/t7-,8-/m0/s1
