25
gdb 63582	2.83507	1.2106	1.03771	0.1378	92.85	-0.2488	0.0837	0.3325	1319.9703	0.229541	-352.371171	-352.361556	-352.360612	-352.405639	37.727	
C	-0.119227057	 1.5131120177	 0.1006970916	-0.451384
C	-0.0246736513	-0.0016902326	 0.0448042491	 0.285954
C	-1.2690350601	-0.6534646743	-0.5311422874	-0.452274
C	 1.3139172977	-0.6259874515	-0.2807994376	-0.38512
C	 0.7604140405	-0.7278730798	 1.1255572647	 0.354226
C	 1.4424728157	 0.0346654068	 2.2709995716	-0.274455
C	 1.8985427103	-1.0706180756	 3.2362987519	-0.206379
C	 0.7360913994	-2.0735503975	 3.1824019243	-0.200204
C	 0.3258490896	-2.0972121566	 1.6922337353	-0.28469
H	 0.7971261136	 1.9714950685	 0.4804510078	 0.113344
H	-0.3061981166	 1.9244890609	-0.8984468828	 0.110068
H	-0.944956861	 1.8364081622	 0.7466799512	 0.109991
H	-1.4837693707	-0.2527635226	-1.5290810841	 0.110336
H	-1.1611348924	-1.7368406088	-0.6281721867	 0.11445
H	-2.1490982476	-0.4602220297	 0.0949917299	 0.109332
H	 1.3204699349	-1.5248805634	-0.8919121593	 0.09782
H	 2.1634830389	 0.0300984464	-0.4508339493	 0.098503
H	 2.26603069	 0.6690145058	 1.9313612437	 0.091627
H	 0.7215705965	 0.6885004242	 2.7803707511	 0.093927
H	 2.815971416	-1.5400748485	 2.8596847284	 0.096755
H	 2.1076383485	-0.7024734921	 4.2450241108	 0.088853
H	 0.997474198	-3.0643692278	 3.5646338612	 0.091139
H	-0.0948223873	-1.7010374909	 3.7938665693	 0.095482
H	-0.7456034866	-2.2830911325	 1.5757833573	 0.096242
H	 0.8447138511	-2.9076401884	 1.1675500981	 0.096455
32.7259	152.0809	176.1104	202.4057	225.8347	252.9932	298.7812	360.5846	402.2578	429.7443	438.3445	523.2674	557.2175	694.7209	713.9079	835.9376	865.6854	868.8949	907.1065	916.1692	928.8239	956.0851	969.6824	982.7355	985.5462	1033.426	1037.8274	1060.1041	1071.0704	1137.5554	1155.8481	1181.9076	1198.0556	1212.6995	1253.862	1259.7127	1297.5809	1314.0746	1334.4049	1342.9489	1348.5729	1397.708	1410.1376	1424.7075	1481.6643	1484.8573	1488.6055	1490.8927	1490.9815	1495.2069	1502.4146	1510.8079	1515.4947	3011.8772	3017.3331	3022.6046	3027.6645	3032.8085	3034.1408	3071.3315	3074.9275	3077.6224	3079.8977	3085.5014	3094.1252	3104.1015	3110.1162	3114.3553	3187.8102
CC1(C)CC11CCCC1	CC1(C)CC21CCCC2	
InChI=1S/C9H16/c1-8(2)7-9(8)5-3-4-6-9/h3-7H2,1-2H3	InChI=1S/C9H16/c1-8(2)7-9(8)5-3-4-6-9/h3-7H2,1-2H3
