18
gdb 35711	2.35177	1.4733	0.99966	2.7727	78.32	-0.2417	0.0227	0.2645	1194.5103	0.14617	-401.848101	-401.839364	-401.838419	-401.882601	31.972	
C	-0.075748905	-1.1832419691	-0.4230925405	-0.459752
C	-0.0034519496	-0.0169955318	-0.1421006722	 0.374825
C	 0.0360100702	 1.3985173384	 0.1788175005	-0.092051
O	-0.0697804879	 1.683841699	 1.5964769557	-0.27547
C	 1.2147967181	 2.3417056866	 1.6210668151	-0.086463
C	 1.4144822187	 2.1331651996	 0.1082213814	-0.017793
N	 2.5481106449	 1.3152939374	-0.2452779277	-0.047788
C	 2.93215502	 1.3116387203	-1.6541597324	-0.219974
C	 3.7582465718	 2.0320746672	-0.6483022764	-0.230197
H	-0.1265923474	-2.2169744061	-0.6610747484	 0.199069
H	-0.7567234951	 1.9204569125	-0.3735382068	 0.100395
H	 1.1357518761	 3.3804949784	 1.9613730337	 0.100781
H	 1.94259363	 1.8015594519	 2.2366661085	 0.115156
H	 1.3552794434	 3.0612591944	-0.4823103448	 0.06578
H	 3.2507364196	 0.351989503	-2.0484697089	 0.125848
H	 2.3485749354	 1.9180660228	-2.3450097402	 0.112524
H	 3.7278368213	 3.1204863815	-0.6646435122	 0.111979
H	 4.6928127853	 1.608084024	-0.2938327545	 0.123132
39.6776	75.4785	116.7539	199.5227	227.4904	293.4997	351.6407	431.9922	531.3622	580.8576	618.7957	675.0388	728.3918	812.1176	823.1505	888.3051	903.5321	933.0356	982.3447	1021.6132	1028.3363	1061.7653	1091.6229	1104.468	1119.0898	1120.9822	1164.106	1172.981	1200.9941	1244.3436	1271.0656	1325.7501	1343.5223	1357.9053	1393.5426	1491.1624	1515.0952	1518.7551	2235.8169	2963.2957	3012.5009	3027.4807	3077.9237	3096.2077	3102.0686	3183.9655	3198.5002	3503.2567
C#CC1OCC1N1CC1	C#C[C@H]1OC[C@H]1N1CC1	
InChI=1S/C7H9NO/c1-2-7-6(5-9-7)8-3-4-8/h1,6-7H,3-5H2	InChI=1S/C7H9NO/c1-2-7-6(5-9-7)8-3-4-8/h1,6-7H,3-5H2/t6-,7-/m1/s1
