17
gdb 83729	2.42834	1.80083	1.30587	4.187	66.87	-0.2344	-0.0266	0.2079	989.3677	0.136581	-458.965036	-458.95733	-458.956386	-458.997627	29.285	
O	 0.1044983509	 1.2948770044	 0.374513927	-0.418898
C	 0.0260572772	-0.0524468931	 0.0116736334	 0.037139
C	-1.3910956536	-0.6261396956	 0.0297030542	 0.081402
O	-2.2878775356	 0.2841549135	-0.654706422	-0.307234
C	-2.5782081978	-0.7031115885	-1.67527941	-0.078375
C	-1.5172736385	-1.6742648044	-1.1163453548	-0.089572
C	-0.1757731363	-1.6708809228	-1.8650974821	-0.340188
C	 0.5069314873	-0.3708718249	-1.4260677822	 0.336826
O	 1.2391299021	 0.3156337394	-2.0843108843	-0.290733
H	-0.5611131504	 1.7546395407	-0.1540096796	 0.295263
H	 0.6656299264	-0.6169389348	 0.7056714116	 0.110018
H	-1.7617554776	-0.8865054611	 1.0251700543	 0.085578
H	-3.6128841918	-1.0580947021	-1.6013666367	 0.111084
H	-2.4016731496	-0.314624188	-2.6851140286	 0.11597
H	-1.8759380584	-2.6695753613	-0.8576239325	 0.088179
H	 0.4511712564	-2.5130779235	-1.5449768352	 0.131315
H	-0.2632718808	-1.7224559679	-2.9528947223	 0.132227
74.8156	98.5317	215.2253	254.821	350.1396	396.1308	437.3928	493.8739	571.819	590.2879	711.7145	740.0594	840.4243	864.8412	880.8375	890.0307	938.9863	999.8904	1022.4182	1068.0185	1078.7488	1111.528	1147.2041	1163.6762	1167.4587	1224.3653	1244.3592	1261.5789	1280.2815	1302.627	1341.7506	1344.6474	1362.6693	1428.3222	1453.4215	1524.504	1862.8688	3016.172	3021.8788	3036.0556	3068.2767	3068.9533	3107.7174	3118.92	3773.9481
OC1C2OCC2CC1=O	O[C@H]1[C@H]2OC[C@H]2CC1=O	
InChI=1S/C6H8O3/c7-4-1-3-2-9-6(3)5(4)8/h3,5-6,8H,1-2H2	InChI=1S/C6H8O3/c7-4-1-3-2-9-6(3)5(4)8/h3,5-6,8H,1-2H2/t3-,5-,6+/m1/s1
