20
gdb 60238	3.05574	1.06243	0.82812	1.9558	77.59	-0.2562	0.0151	0.2713	1411.0117	0.169204	-440.278469	-440.2689	-440.267956	-440.313569	34.859	
C	 0.0141406369	 1.5615566814	 0.0910803201	-0.398221
C	-0.0178066721	 0.037880789	-0.0165400328	 0.136178
C	 0.688301147	-0.4784972693	-1.2646650352	-0.387645
O	 0.6388984507	-0.5859782176	 1.0993177531	-0.262009
C	-0.1096154712	-0.7303510656	 2.2606957261	 0.005838
C	 0.5268354547	-1.6754771163	 3.3001268334	-0.113767
O	 0.4825149704	-0.6149608665	 4.3047918881	-0.250305
C	 0.0109842024	 0.3033634533	 3.3914334319	 0.414871
N	-0.2221576219	 1.5286337892	 3.5108848827	-0.543114
H	 1.0494112803	 1.9178223847	 0.0739697692	 0.118161
H	-0.5174266623	 2.0082848824	-0.7558997647	 0.106307
H	-0.4458716643	 1.9071881447	 1.0196948454	 0.160879
H	-1.0660122159	-0.3033478375	-0.0270341929	 0.069249
H	 1.7431222941	-0.1867669672	-1.2500982498	 0.126286
H	 0.63408034	-1.5691253915	-1.3185130424	 0.116746
H	 0.2286072379	-0.05992635	-2.1647262751	 0.116095
H	-1.1612928831	-0.9630643639	 2.0395509945	 0.098601
H	-0.0534414103	-2.5446882727	 3.6157948966	 0.122014
H	 1.5556776158	-1.9515156607	 3.0597464527	 0.133308
H	 0.0016130709	 1.867701154	 4.448276909	 0.230527
41.1978	93.3376	121.9586	206.0026	218.5091	223.8372	271.1637	314.3238	389.0241	447.1696	454.4731	493.4322	672.7777	739.6071	813.0273	860.1841	868.0646	935.3074	941.4714	943.7466	960.0018	979.2068	1014.5737	1092.9692	1148.0287	1154.3925	1166.1541	1187.9036	1210.6362	1231.5103	1248.3044	1333.3587	1361.9623	1369.9169	1402.4664	1420.4458	1426.7147	1480.7172	1487.5209	1498.568	1507.6179	1512.2817	1821.4886	2967.8724	3003.5738	3035.4774	3043.095	3071.6934	3104.5197	3117.0684	3121.3315	3132.3377	3137.6572	3471.8899
CC(C)OC1COC1=N	CC(C)O[C@H]1CO[C]1[NH]	
InChI=1S/C6H11NO2/c1-4(2)9-5-3-8-6(5)7/h4-5,7H,3H2,1-2H3	InChI=1S/C6H11NO2/c1-4(2)9-5-3-8-6(5)7/h4-5,7H,3H2,1-2H3/t5-/m0/s1
