17
gdb 66776	2.47162	2.219	1.7862	0.706	69.34	-0.2266	0.0705	0.2971	843.9044	0.137475	-421.773083	-421.766404	-421.76546	-421.803807	27.54	
O	-0.0450602328	 1.4119750174	 0.054423288	-0.491019
C	-0.0173128979	 0.0317914552	 0.0254821191	 0.389953
C	-1.28849456	-0.8790114964	 0.0841929017	-0.169847
C	-0.4045141966	-1.8823720769	 0.7794721621	-0.070933
C	-0.4974920032	-1.8644463718	-0.7520122892	-0.098702
C	 0.5381065034	-0.8061275301	-1.1570882824	 0.036061
O	 1.9001719628	-1.1064117335	-0.9173821585	-0.287252
C	 2.0658754632	-1.2140142109	 0.5136395819	-0.097485
C	 0.6984629089	-0.8592020854	 1.1008221673	-0.138124
H	 0.8058350082	 1.7403611257	-0.2588109063	 0.288197
H	-2.344887977	-0.6707460411	 0.142303364	 0.101639
H	-0.6968442357	-2.7502050145	 1.3556373641	 0.090262
H	-0.858971478	-2.7117909483	-1.319033603	 0.090337
H	 0.42416112	-0.3897801747	-2.1590531057	 0.081544
H	 2.379923771	-2.2334141442	 0.7721376191	 0.102266
H	 2.8596081617	-0.523162348	 0.8286891596	 0.095144
H	 0.6905357619	-0.4708691625	 2.1193613283	 0.077962
164.0616	211.3636	252.4453	331.4887	423.2663	510.9901	617.4453	670.7204	692.9675	763.8328	799.2979	810.6158	836.3364	884.9159	904.5619	921.1698	950.0532	960.0001	988.2081	1011.1919	1029.0546	1043.186	1076.2902	1084.6513	1099.1735	1142.9	1170.4869	1185.8206	1223.5354	1257.259	1275.0811	1318.5271	1333.7445	1355.4139	1384.1058	1412.3065	1522.1038	3005.0867	3039.9583	3113.3429	3120.3682	3197.819	3206.224	3248.8998	3794.2094
OC12C3C4C3C1OCC24	O[C@@]12[C@@H]3[C@H]4[C@@H]3[C@@H]1OC[C@@H]24	
InChI=1S/C7H8O2/c8-7-2-1-9-6(7)4-3(2)5(4)7/h2-6,8H,1H2	InChI=1S/C7H8O2/c8-7-2-1-9-6(7)4-3(2)5(4)7/h2-6,8H,1H2/t2-,3-,4+,5-,6+,7+/m1/s1
