19
gdb 26261	2.56803	1.4841	1.02704	2.4136	78.18	-0.2175	0.021	0.2386	1186.1395	0.159915	-419.248007	-419.238829	-419.237884	-419.282071	33.722	
C	-0.0010687747	 1.5759720472	 0.6714787662	-0.386026
C	-0.2016332876	 0.3958343968	-0.2739192887	 0.004506
O	 0.7952405947	-0.6210238421	-0.0767602576	-0.428794
C	-1.586181864	-0.1836410983	-0.169279749	 0.322519
N	-2.4977620654	 0.149018791	 0.7248750973	-0.315046
C	-3.5864986837	-0.642508738	 0.4584944163	-0.107266
C	-3.3269472787	-1.4649698218	-0.6054715331	-0.130844
N	-2.0427111888	-1.1713972611	-1.0039034861	-0.030789
C	-1.3298982873	-1.7772307136	-2.1163734273	-0.358201
H	 1.0287733503	 1.9322733343	 0.5893150578	 0.114133
H	-0.6870252312	 2.3910864367	 0.4281861349	 0.130269
H	-0.2015070003	 1.2804507536	 1.7050766975	 0.129305
H	-0.0231680625	 0.7282601703	-1.3044382774	 0.094646
H	 0.6611142219	-0.9774743668	 0.8093392616	 0.282475
H	-4.4888303955	-0.5800620256	 1.0476528556	 0.105398
H	-3.9119300071	-2.2197933174	-1.1056576838	 0.123128
H	-1.442166327	-1.1864580552	-3.0324194123	 0.137879
H	-0.2723317097	-1.8549331396	-1.8622707952	 0.173895
H	-1.7291376433	-2.7772107305	-2.2973783664	 0.138812
57.242	132.6536	157.6868	201.6303	205.9593	229.9251	301.9141	346.4754	396.1912	446.1497	522.1778	622.5155	653.0037	721.5985	741.1144	770.6947	844.2909	894.3005	932.4527	1023.8183	1062.7273	1086.4154	1102.7388	1106.9676	1153.9929	1175.3707	1210.1982	1279.8602	1310.3892	1349.759	1392.0555	1405.5064	1418.4367	1441.394	1467.6709	1482.9358	1489.5411	1497.7975	1516.2765	1528.4361	1560.3619	3028.4849	3038.0919	3050.3635	3113.2948	3126.7705	3133.1743	3155.0902	3244.827	3271.4045	3792.4851
CC(O)C1=NC=CN1C	C[C@@H](O)c1nccn1C	
InChI=1S/C6H10N2O/c1-5(9)6-7-3-4-8(6)2/h3-5,9H,1-2H3	InChI=1S/C6H10N2O/c1-5(9)6-7-3-4-8(6)2/h3-5,9H,1-2H3/t5-/m1/s1
