17
gdb 37036	2.97077	1.84288	1.52023	2.241	71.36	-0.2293	0.0241	0.2534	907.1931	0.138854	-417.960478	-417.953705	-417.952761	-417.991461	27.509	
C	-0.0284627892	 1.3437737427	 0.0572271247	-0.383009
C	 1.3586101858	 0.7297617265	 0.0176873507	 0.210874
C	 2.267701734	 0.6752949846	 1.2158579489	-0.231538
N	 1.7659053822	-0.2141979601	 2.2743640896	-0.262748
C	 0.7110482097	-0.8909955438	 2.1397577252	 0.107051
O	-0.1875276581	-0.958735613	 1.0966961025	-0.264017
C	 0.1410905675	-0.1496375873	 0.0155222827	 0.359991
C	 0.5371924191	-0.6538705071	-1.366233531	-0.236347
N	 1.7385470992	 0.2488699032	-1.3219354558	-0.358309
H	-0.3409892093	 1.7328176809	 1.0212411336	 0.130086
H	-0.4172395286	 1.8814442776	-0.804022938	 0.108014
H	 3.2422734722	 0.2911409663	 0.8968060087	 0.133994
H	 2.4477999246	 1.6558801203	 1.6724850223	 0.113437
H	 0.3691194226	-1.5495853689	 2.9345978596	 0.127773
H	 0.8373293655	-1.7060312549	-1.374297681	 0.123349
H	-0.1784640244	-0.4754045679	-2.1771940779	 0.103723
H	 1.7337464671	 0.9762917409	-2.0326689847	 0.217677
111.0447	218.4618	346.093	357.4175	403.1289	506.8009	517.5332	545.6496	574.9424	713.9985	756.8679	834.5256	855.6333	898.5155	917.3166	935.8644	948.7983	957.5387	968.875	1017.5541	1036.7832	1057.3378	1110.1994	1144.9237	1167.0776	1227.7092	1260.8017	1299.6303	1318.9436	1360.1629	1374.8434	1389.6265	1419.746	1474.0697	1481.7774	1511.3919	1730.0708	3029.7545	3030.4979	3074.9129	3086.1489	3110.5398	3171.8802	3208.7049	3485.6186
C1C23CN=COC12CN3	C1[C@@]23CN=CO[C@@]12CN3	
InChI=1S/C6H8N2O/c1-5-2-7-4-9-6(1,5)3-8-5/h4,8H,1-3H2	InChI=1S/C6H8N2O/c1-5-2-7-4-9-6(1,5)3-8-5/h4,8H,1-3H2/t5-,6-/m1/s1
