21
gdb 59652	2.87124	1.14599	1.03607	1.7878	74.95	-0.2621	0.079	0.3411	1281.8439	0.181579	-461.375191	-461.365583	-461.364639	-461.410044	35.444	
C	 0.0252482104	 1.5644326814	-0.1292608874	-0.401789
C	 0.0388253235	 0.0478406067	 0.0743505795	 0.117279
O	 0.6478435631	-0.3124086742	 1.303588728	-0.436922
C	-1.3658751198	-0.5600717588	-0.0064322023	 0.086189
C	-1.4113542736	-2.1011954944	 0.1865672345	-0.130598
O	-2.1836672399	-2.2959729365	 1.3653469102	-0.250957
C	-2.9546016789	-1.1299025714	 1.5270392845	 0.227722
C	-3.3573898197	-0.951101877	 2.9718900471	-0.407811
O	-2.1240585034	-0.0640479736	 1.1008366332	-0.286367
H	 1.0378161066	 1.9612817708	-0.0224214483	 0.123331
H	-0.3493302607	 1.8267891745	-1.1247020071	 0.109089
H	-0.6187409635	 2.0440644227	 0.6140682787	 0.128742
H	 0.6504007152	-0.4177229697	-0.7091966199	 0.086754
H	-0.0048061587	-0.1104304377	 1.9863642179	 0.283163
H	-1.8482466883	-0.2680683907	-0.950183587	 0.074203
H	-1.8792011374	-2.5957838721	-0.6752981909	 0.094904
H	-0.4195062512	-2.5250402153	 0.3575489361	 0.130429
H	-3.8432382713	-1.1726743044	 0.8673144461	 0.060598
H	-2.4659759574	-0.9158378668	 3.6032245589	 0.128559
H	-3.9229824144	-0.0238888253	 3.091640833	 0.12981
H	-3.9830627507	-1.7892608883	 3.2879574753	 0.133668
50.5763	83.0108	137.3975	200.0659	225.1238	246.1789	269.9731	314.2327	364.0949	423.9897	486.7973	506.202	632.0858	702.972	732.1782	810.4488	867.0721	893.4486	917.3057	992.429	1009.6979	1039.1258	1068.7615	1072.0985	1120.9006	1133.2219	1143.93	1156.5398	1172.4622	1239.4094	1288.9923	1317.9011	1343.1353	1361.2975	1385.6499	1397.168	1400.0979	1404.1587	1429.8786	1444.9201	1484.3784	1486.3115	1492.4914	1498.8944	1515.2108	2912.8526	2995.1492	3015.5118	3032.7866	3038.1861	3055.163	3108.5166	3109.0501	3126.4207	3136.8645	3137.5672	3773.7876
CC(O)C1COC(C)O1	C[C@@H](O)[C@H]1CO[C@@H](C)O1	
InChI=1S/C6H12O3/c1-4(7)6-3-8-5(2)9-6/h4-7H,3H2,1-2H3	InChI=1S/C6H12O3/c1-4(7)6-3-8-5(2)9-6/h4-7H,3H2,1-2H3/t4-,5-,6-/m1/s1
