21
gdb 107213	3.66481	1.19695	1.07148	1.5125	81.38	-0.2408	0.0736	0.3144	1195.8563	0.183974	-387.064854	-387.056642	-387.055698	-387.097484	32.859	
O	-0.0576621544	 1.3555569151	 0.5051422948	-0.422714
C	-0.0211012046	 0.0258043121	-0.0044935044	-0.178378
C	-1.4261683167	-0.5050288989	-0.0493153345	 0.386235
C	-1.9994678526	-1.1431305754	 1.1918429033	-0.334648
C	-1.7193252927	-1.9963150325	-0.022460483	-0.102848
C	-2.8206723379	-2.2910110233	-1.0235330413	-0.033054
C	-4.2116588978	-1.7504034126	-0.7950874662	-0.298098
C	-3.2441453008	-0.9792083014	-1.6571062853	-0.02998
C	-2.4015268286	 0.1454319778	-1.0442793017	-0.305164
H	 0.8249076151	 1.7299016054	 0.4260890499	 0.284233
H	 0.4157347545	 0.0101520687	-1.0170565796	 0.080414
H	 0.6000726032	-0.6261003417	 0.6314297822	 0.07808
H	-1.3276717653	-1.2539537663	 2.0376304229	 0.106165
H	-3.0216368819	-0.9299151481	 1.4820822042	 0.110375
H	-0.9129885248	-2.7192331922	 0.0450554285	 0.077395
H	-2.7154421409	-3.194946576	-1.6127062195	 0.078913
H	-5.0253288831	-2.256970808	-1.3044908515	 0.105107
H	-4.4884224762	-1.3672381711	 0.1805755916	 0.110719
H	-3.4638760078	-0.9169780027	-2.7176993317	 0.079606
H	-3.0113418567	 0.9250431926	-0.5752659571	 0.108997
H	-1.824651	 0.6377666586	-1.8348195816	 0.098647
83.4239	133.8169	219.3804	263.3574	274.2485	355.9302	371.5168	420.2388	508.483	639.4622	672.2069	707.7246	783.0391	801.1763	837.6592	867.4045	904.926	935.4993	942.75	968.0357	982.8276	1023.8249	1046.5622	1053.4868	1062.5546	1071.3348	1084.3485	1094.0775	1107.8523	1130.667	1187.7803	1219.1604	1225.1091	1236.8885	1272.5048	1306.9864	1322.0407	1352.0766	1378.6518	1400.6968	1463.8281	1482.8001	1487.7516	1507.133	1519.6115	2953.1897	2982.6101	3041.268	3074.6929	3126.8508	3133.003	3155.7164	3158.7305	3174.1799	3207.0538	3214.6988	3822.3797
OCC12CC1C1CC1C2	OC[C@]12C[C@H]1[C@H]1C[C@H]1C2	
InChI=1S/C8H12O/c9-4-8-2-5-1-6(5)7(8)3-8/h5-7,9H,1-4H2	InChI=1S/C8H12O/c9-4-8-2-5-1-6(5)7(8)3-8/h5-7,9H,1-4H2/t5-,6-,7-,8-/m0/s1
