16
gdb 66045	2.35692	1.37028	1.11055	3.4312	76.11	-0.2688	0.003	0.2718	1137.1521	0.122295	-400.709872	-400.700938	-400.699994	-400.743417	33.204	
O	-0.0514198351	 1.4478957337	 0.0292206329	-0.448405
C	 0.0231949807	 0.0429243187	-0.0039510972	 0.262264
C	 0.2279935249	-0.5976444585	 1.4050894972	-0.279385
C	-1.3117831567	-0.6791138043	 1.5571095103	-0.241662
C	-1.4385007327	-0.544217371	 0.0059762167	-0.219845
C	-2.5062523443	 0.241035662	-0.5674658967	 0.345763
C	-3.4115364573	 0.8819026119	-1.0297536588	-0.43696
C	 0.9134247077	-0.4194294692	-1.0760285678	 0.23
N	 1.6351764824	-0.7890056385	-1.9001672207	-0.33348
H	 0.8347628745	 1.7958797908	 0.182587744	 0.295201
H	 0.6997404758	-1.5806505472	 1.3405380031	 0.128413
H	 0.7800913135	 0.0246516438	 2.1117908337	 0.116092
H	-1.7286219081	-1.5842565349	 1.9989946851	 0.118064
H	-1.722569666	 0.1964546783	 2.0602616488	 0.134659
H	-1.4075529785	-1.5377577558	-0.4519455638	 0.127882
H	-4.2041112609	 1.4549874702	-1.4434295167	 0.201399
82.015	131.2353	144.8842	198.2329	226.4473	304.2337	340.4918	383.7887	453.5426	498.9984	544.0592	597.7105	621.5206	627.6169	654.7382	732.5807	784.7723	920.857	941.3179	964.1956	972.2845	1079.4005	1092.2011	1131.6829	1156.0736	1214.2994	1254.7034	1265.8675	1286.1249	1334.5728	1369.0932	1470.5234	1491.8535	2241.2569	2347.7976	3063.0768	3074.4831	3093.1664	3130.9891	3155.4808	3503.2414	3799.9696
OC1(CCC1C#C)C#N	O[C@]1(CC[C@H]1C#C)C#N	
InChI=1S/C7H7NO/c1-2-6-3-4-7(6,9)5-8/h1,6,9H,3-4H2	InChI=1S/C7H7NO/c1-2-6-3-4-7(6,9)5-8/h1,6,9H,3-4H2/t6-,7-/m1/s1
