17
gdb 28460	3.14091	1.41337	0.98369	1.6708	82.86	-0.1999	-0.0204	0.1795	1177.711	0.138513	-414.261292	-414.25299	-414.252046	-414.293884	32.038	
C	 0.0266496583	 1.4897183113	 0.0382538617	-0.472042
C	-0.0085744667	-0.0125211016	-0.0095878402	 0.300508
C	-0.1758282821	-0.7185411949	-1.1891691736	-0.098275
N	-0.173919227	-2.0634741392	-1.2327262322	-0.310568
C	-0.025369033	-2.7027826313	-0.0897720004	 0.309509
N	-0.0475403719	-4.0976735222	-0.0704397014	-0.582784
C	 0.1003524513	-1.9891384886	 1.135252402	 0.307128
N	 0.2575426738	-2.6986750232	 2.3222296337	-0.581154
N	 0.1192402192	-0.6707808246	 1.1629335798	-0.366238
H	 0.9882888663	 1.8443625424	 0.4250144047	 0.133163
H	-0.1256971076	 1.9220527238	-0.9540001173	 0.11948
H	-0.7488319174	 1.8753446904	 0.7084247569	 0.132693
H	-0.304676216	-0.2034432606	-2.1365977696	 0.097947
H	 0.0026861842	-4.4798207905	-1.0066646212	 0.252172
H	 0.6535012974	-4.5037511721	 0.5379880401	 0.252228
H	-0.3323215891	-3.5191557035	 2.3878247604	 0.253881
H	 0.1724650803	-2.0988631757	 3.1328973567	 0.252351
99.6684	134.3737	228.2105	284.8908	298.8721	308.3752	381.825	477.7919	497.9994	503.8945	507.8818	591.4463	628.5996	707.2836	739.1442	752.3398	805.4257	842.0564	901.8896	995.3329	1013.4529	1059.5663	1102.4308	1132.9842	1251.1077	1283.4743	1330.3651	1367.0624	1411.3854	1460.2298	1475.3218	1494.4023	1500.7816	1582.7515	1630.6146	1637.0843	1648.5942	3034.8555	3091.1245	3120.2805	3167.6842	3522.9778	3529.6315	3628.05	3636.8382
CC1=CN=C(N)C(N)=N1	Cc1cnc(N)c(N)n1	
InChI=1S/C5H8N4/c1-3-2-8-4(6)5(7)9-3/h2H,1H3,(H2,6,8)(H2,7,9)	InChI=1S/C5H8N4/c1-3-2-8-4(6)5(7)9-3/h2H,1H3,(H2,6,8)(H2,7,9)
