14
gdb 47269	2.37018	1.8	1.07864	5.3771	64.75	-0.2575	-0.1143	0.1432	1042.0826	0.100589	-473.845036	-473.837268	-473.836324	-473.878297	28.132	
N	-0.0306555379	 1.1651849586	 0.548451644	-0.45918
C	 0.0322209054	 0.0442967189	-0.0312730573	 0.291625
O	 1.2128102715	-0.5909155172	-0.2826681112	-0.246921
C	 1.1999752848	-1.7362501872	-1.1447690823	-0.112702
C	 0.2212957069	-2.7911242276	-0.639034324	-0.334019
C	-1.1831756124	-2.2195776181	-0.6182204926	 0.323388
O	-2.188214515	-2.8609074444	-0.7631787371	-0.259498
C	-1.263065178	-0.6767761287	-0.401683902	 0.223595
O	-2.3093502957	-0.0993856808	-0.5038690228	-0.23426
H	 0.9098127455	 1.509466327	 0.7584784219	 0.236564
H	 0.9526187866	-1.4256818458	-2.168795027	 0.129708
H	 2.22562762	-2.1081868494	-1.1437727422	 0.141933
H	 0.2375816892	-3.6977727614	-1.2497143704	 0.146342
H	 0.4961857191	-3.0724359739	 0.386361913	 0.153425
41.3126	85.1589	224.4366	328.8548	339.2244	349.3129	421.8947	455.4467	508.9351	573.6527	616.4248	648.4579	793.5939	890.2101	914.0875	926.606	974.5941	1049.5581	1061.2348	1131.4858	1172.6104	1219.863	1268.0049	1312.4244	1341.0351	1415.0227	1439.6026	1514.741	1721.7283	1819.5703	1845.1193	3021.8653	3036.1525	3109.2426	3122.5148	3459.4005
N=C1OCCC(=O)C1=O	[NH][C]1OCCC(=O)C1=O	
InChI=1S/C5H5NO3/c6-5-4(8)3(7)1-2-9-5/h6H,1-2H2	InChI=1S/C5H5NO3/c6-5-4(8)3(7)1-2-9-5/h6H,1-2H2
