17
gdb 8598	4.54736	1.85782	1.72979	0.5738	69.43	-0.2245	0.032	0.2565	819.0777	0.142112	-363.684288	-363.677599	-363.676655	-363.714681	27.018	
C	-0.1390452309	 1.6214962916	-0.1096387555	-0.407651
C	 0.0058988499	 0.1268232216	 0.0780891994	 0.076557
O	 0.8730168237	-0.5174968791	-0.9656558268	-0.367778
C	 1.7704363174	-0.853034919	 0.107292308	 0.364017
C	 2.5312116972	-1.8616135635	 1.0354486869	-0.241884
N	 2.2399670849	-0.6200731518	 1.9418314096	-0.170013
C	 2.6901472482	 0.2117948026	 0.742394785	-0.211761
C	 0.8090300592	-0.6565669611	 1.2076843306	-0.074903
H	 0.8180077581	 2.1409767133	-0.1584449754	 0.132945
H	-0.6729813182	 1.8185887176	-1.04485759	 0.134632
H	-0.7270727419	 2.0419596112	 0.7127261362	 0.128999
H	-0.9818616941	-0.3440517709	 0.0352067095	 0.105105
H	 2.0017860858	-2.7656679279	 1.3403632072	 0.117642
H	 3.6040782724	-2.0267453061	 0.9025445897	 0.113141
H	 3.7630653411	 0.1508117431	 0.5461019534	 0.102276
H	 2.3550099927	 1.2458814311	 0.7931683186	 0.109198
H	 0.2297191846	-1.4964120029	 1.5897960336	 0.089478
171.455	212.9573	234.6984	383.828	424.8999	466.818	513.7489	575.9767	680.0887	715.9691	784.3816	812.9771	842.675	857.469	907.4442	980.8582	991.2853	1028.6951	1040.4113	1056.097	1079.1009	1121.2813	1133.3507	1156.9396	1176.1733	1181.1219	1235.2753	1252.5695	1298.7925	1346.231	1380.4265	1413.6315	1479.2298	1493.1192	1505.2303	1544.0132	3043.3576	3050.9415	3059.707	3076.5672	3107.4153	3108.5079	3143.1135	3145.2808	3165.6998
CC1OC23CN(C2)C13	C[C@H]1O[C@@]23CN(C2)[C@@H]13	
InChI=1S/C6H9NO/c1-4-5-6(8-4)2-7(5)3-6/h4-5H,2-3H2,1H3	InChI=1S/C6H9NO/c1-4-5-6(8-4)2-7(5)3-6/h4-5H,2-3H2,1H3/t4-,5+/m1/s1
