25
gdb 92326	1.91945	1.83467	1.17524	0.1779	91.35	-0.2712	0.071	0.3422	1200.5774	0.231249	-352.368695	-352.359807	-352.358863	-352.40181	35.939	
C	-0.4020895672	 2.2350394368	-0.0153922636	-0.413327
C	 0.3591840715	 0.9411018573	-0.277986732	 0.054026
C	 1.7858606703	 1.0623181167	-0.8825821239	-0.251053
C	 2.3208083025	 0.0180933969	 0.1362763505	 0.008957
C	 3.3529332646	 0.543252307	 1.147718688	-0.223074
C	 2.5196735886	 1.3573388725	 2.155812917	-0.221109
C	 1.2242858536	 0.533654957	 2.2968087866	 0.0561
C	 0.0931056649	 1.2041681915	 3.0791549429	-0.419144
C	 0.9272449733	 0.0216411379	 0.8664248165	-0.055608
H	 0.1839010576	 2.94424688	 0.5774141362	 0.11587
H	-0.6370942179	 2.7262618757	-0.9673274228	 0.108275
H	-1.3483495849	 2.0591868249	 0.5065097241	 0.113321
H	-0.2618144435	 0.3122610163	-0.925775355	 0.068017
H	 1.8820719032	 0.7974542081	-1.9389066935	 0.090515
H	 2.2280081554	 2.055773088	-0.7451727533	 0.088985
H	 2.6209379453	-0.9272850284	-0.3205319487	 0.057108
H	 3.8348912821	-0.2955541286	 1.6647881489	 0.091074
H	 4.147018618	 1.1272714034	 0.6701954489	 0.089683
H	 3.0307509361	 1.5046557484	 3.1126224491	 0.088809
H	 2.295764762	 2.3555059022	 1.7577088771	 0.095345
H	 1.501210673	-0.3724787696	 2.857543757	 0.069676
H	-0.1766644746	 2.1800510645	 2.6694601948	 0.116669
H	-0.8094883737	 0.5831490827	 3.0841173461	 0.108077
H	 0.3900632021	 1.3579282769	 4.1226058104	 0.106989
H	 0.4022453876	-0.9362338082	 0.9170651487	 0.055818
69.2325	180.5584	211.4705	242.7411	269.3783	280.1152	329.5565	364.4581	389.2364	499.9311	563.7598	597.7025	684.877	736.0287	814.2179	834.259	870.6687	899.6903	910.435	925.1954	950.7584	962.2898	968.1865	1015.3329	1049.7163	1074.2244	1091.4935	1110.0237	1135.4504	1166.8395	1176.5041	1196.948	1208.8256	1235.4267	1262.5223	1270.366	1286.3713	1307.2164	1322.1903	1335.7156	1346.122	1359.6555	1376.9149	1388.8408	1406.126	1413.8793	1484.5955	1486.5147	1490.0215	1493.5977	1503.0159	1507.4727	1510.989	2976.066	3024.3027	3025.5593	3027.6399	3028.2539	3033.4315	3037.0212	3058.8611	3071.038	3076.211	3080.9151	3085.3848	3088.5519	3095.414	3104.9096	3125.3161
CC1CC2CCC(C)C12	C[C@H]1C[C@H]2CC[C@@H](C)[C@@H]12	
InChI=1S/C9H16/c1-6-3-4-8-5-7(2)9(6)8/h6-9H,3-5H2,1-2H3	InChI=1S/C9H16/c1-6-3-4-8-5-7(2)9(6)8/h6-9H,3-5H2,1-2H3/t6-,7+,8-,9+/m1/s1
