20
gdb 89133	2.15587	1.6489	1.15127	1.5191	86.19	-0.2235	0.0309	0.2545	1156.1426	0.168926	-365.941269	-365.931971	-365.931027	-365.974598	35.798	
C	-0.5771473069	 1.3906623977	 0.0577334285	-0.418086
C	 0.004639438	-0.0091162032	-0.0172323006	 0.100756
C	 1.0759524796	-0.4176119556	-1.0658578969	-0.352405
C	 1.8705319918	-0.9868209187	 0.1151794703	 0.347183
C	 2.4941445618	-2.3504028895	 0.1596887008	-0.49252
C	 2.2279445729	 0.102509951	 1.0618369866	-0.247228
C	 2.5756702306	 1.4386323955	 0.6644810223	 0.344581
C	 2.9588206979	 2.5382593341	 0.3588597534	-0.448146
N	 0.8570642346	-0.4990496506	 1.1356776794	-0.213457
H	 0.1914690678	 2.1634860941	 0.0560976826	 0.13968
H	-1.2399101628	 1.5615325316	-0.7981437114	 0.111997
H	-1.1733023167	 1.4978540585	 0.970176884	 0.124116
H	-0.8218294709	-0.7259551123	-0.0590277279	 0.08819
H	 0.7327409758	-1.1710038307	-1.7775185336	 0.104417
H	 1.5715814981	 0.3902023092	-1.6108830752	 0.114937
H	 3.3891320233	-2.3888244734	-0.4721615128	 0.126665
H	 2.7845816102	-2.6135422261	 1.1807458486	 0.13038
H	 1.7950718583	-3.1123804907	-0.202001277	 0.123924
H	 2.7904063001	-0.2319488383	 1.9316389534	 0.117183
H	 3.2754972163	 3.5158080875	 0.0906113253	 0.197832
131.479	150.6232	168.9153	191.1698	210.6736	231.017	315.4898	368.0281	387.6261	428.0596	542.0745	569.994	598.4938	635.062	654.5732	705.27	765.674	835.0519	863.3767	892.7018	942.594	970.5023	1035.9208	1046.9068	1059.1808	1119.2139	1135.2727	1147.1447	1199.793	1237.3181	1282.6171	1309.7186	1318.1093	1388.1309	1407.3864	1410.6161	1436.6164	1481.6037	1489.3599	1492.2343	1493.3964	1504.2222	2224.1977	3028.6414	3036.4485	3046.6179	3062.8487	3090.506	3097.2594	3112.8259	3119.2223	3124.5015	3153.1274	3500.5699
CC1CC2(C)C(C#C)N12	C[C@H]1C[C@@]2(C)[C@@H](C#C)N12	
InChI=1S/C8H11N/c1-4-7-8(3)5-6(2)9(7)8/h1,6-7H,5H2,2-3H3	InChI=1S/C8H11N/c1-4-7-8(3)5-6(2)9(7)8/h1,6-7H,5H2,2-3H3/t6-,7+,8-,9?/m0/s1
