18
gdb 46409	3.92719	0.80447	0.70392	5.4508	77.33	-0.2556	-0.0355	0.2201	1558.8295	0.146911	-401.978256	-401.969211	-401.968267	-402.013138	32.275	
O	 0.1491811298	 0.026576393	-0.0756973431	-0.295301
C	 0.0233595675	 1.2153514678	 0.0107507452	 0.394871
C	-1.1559616538	 2.1513078672	 0.3077057909	-0.331444
C	-0.1087996419	 3.2588452354	 0.6393917684	-0.264438
C	 1.0339230482	 2.3802734222	 0.0338940377	-0.096332
C	 2.3310859135	 2.1756803422	 0.8108084756	-0.213578
C	 3.2358294024	 1.1218497774	 0.1354538962	-0.34452
C	 4.4765151145	 0.902421174	 0.8740797003	 0.25712
N	 5.4528928356	 0.7456886316	 1.4720616712	-0.305757
H	-1.7413691334	 2.3602626826	-0.5936788755	 0.138284
H	-1.8390324616	 1.8273756586	 1.0963134697	 0.136721
H	-0.2657981777	 4.2292652456	 0.1682049653	 0.116083
H	 0.0135002389	 3.4036641659	 1.7154070003	 0.120414
H	 1.2527069976	 2.6871896442	-0.9978386875	 0.105856
H	 2.8701947963	 3.1252995211	 0.8966636459	 0.125797
H	 2.1031854904	 1.8485901401	 1.8313939313	 0.125016
H	 2.6934119172	 0.1749144525	 0.0482486197	 0.183522
H	 3.4899546866	 1.4374602186	-0.8835122316	 0.147686
59.7876	76.6736	109.1143	133.4211	191.4716	274.0449	341.1709	403.7693	435.271	540.8686	547.2094	687.2382	736.309	758.8999	786.7161	906.275	931.4449	938.8322	962.9641	1014.4457	1040.9513	1076.2132	1097.0275	1132.5051	1186.8667	1199.0615	1229.7273	1248.9546	1259.3205	1298.2718	1315.3598	1349.5281	1382.7579	1440.4049	1476.4254	1493.0734	1497.5727	1878.268	2362.6742	3022.9339	3038.9732	3048.8601	3060.4126	3078.0822	3079.1678	3100.7299	3117.0012	3139.3114
O=C1CCC1CCC#N	O=C1CC[C@H]1CCC#N	
InChI=1S/C7H9NO/c8-5-1-2-6-3-4-7(6)9/h6H,1-4H2	InChI=1S/C7H9NO/c8-5-1-2-6-3-4-7(6)9/h6H,1-4H2/t6-/m1/s1
