21
gdb 107796	2.53714	1.63323	1.29537	1.4907	81.1	-0.2263	0.0745	0.3008	1089.0992	0.181667	-387.03603	-387.027423	-387.026479	-387.069014	33.706	
C	-0.0982603508	 1.5269003038	-0.0126582449	-0.385099
C	-0.0459909305	-0.0066825795	-0.0155440869	-0.313624
C	 0.7351257266	-0.5762557861	-1.1647537062	 0.42345
O	 0.2226916237	-0.1872546259	-2.4850620459	-0.329335
C	 0.7381268752	-1.4290225426	-2.9586955164	 0.096777
C	 2.1127801463	-1.6598597682	-2.3056849508	-0.1353
C	 0.8156480297	-2.0845103864	-1.6277454035	-0.217667
C	 2.2921637632	-0.4751032726	-1.3543466027	-0.009764
C	 2.9140949841	 0.8159234278	-1.8672787604	-0.421927
H	 0.8934850166	 1.9641581583	 0.1344363717	 0.12129
H	-0.4928209099	 1.8983512125	-0.9620744385	 0.141084
H	-0.7453697772	 1.8878422677	 0.7920356396	 0.111527
H	 0.3938610055	-0.3782929494	 0.9184198139	 0.100428
H	-1.0653637959	-0.4079371773	-0.065345492	 0.109201
H	 0.4427099707	-1.7849886732	-3.9366997923	 0.105248
H	 2.871732844	-2.2915139882	-2.7507803427	 0.084846
H	 0.4611017125	-3.0210334029	-1.2205360943	 0.095688
H	 2.777436979	-0.8219090639	-0.4349768597	 0.070802
H	 2.3229595801	 1.21724725	-2.6939153777	 0.133015
H	 2.9754572916	 1.5771176089	-1.0825217985	 0.110993
H	 3.9326914756	 0.6343827571	-2.2283607618	 0.108365
78.1467	152.2344	194.1197	215.614	234.6617	273.0281	331.7538	367.8116	569.2567	574.765	651.9815	722.9894	759.1117	773.7616	779.2575	820.6227	882.557	887.3488	913.0497	928.2471	987.5465	1001.6361	1015.5682	1027.9082	1043.1093	1053.6766	1104.826	1125.3967	1131.4381	1153.5268	1180.5177	1209.0105	1266.7113	1304.9859	1316.8844	1358.3233	1377.0484	1397.2329	1403.6351	1411.9764	1475.5431	1487.992	1499.7031	1502.5129	1510.1159	3027.3474	3032.7399	3046.3026	3047.4636	3063.0474	3091.7118	3113.6099	3125.0266	3128.271	3190.3251	3202.0135	3217.7494
CCC12OC3C(C13)C2C	CC[C@]12O[C@H]3[C@H]([C@@H]13)[C@H]2C	
InChI=1S/C8H12O/c1-3-8-4(2)5-6(8)7(5)9-8/h4-7H,3H2,1-2H3	InChI=1S/C8H12O/c1-3-8-4(2)5-6(8)7(5)9-8/h4-7H,3H2,1-2H3/t4-,5+,6-,7+,8-/m1/s1
