24
gdb 103824	3.08066	0.87367	0.81827	1.6776	86.13	-0.2417	0.0618	0.3035	1565.8981	0.214917	-405.531388	-405.52014	-405.519196	-405.567946	41.097	
C	 0.1544758555	 0.8537305693	 1.5004529721	-0.387676
C	-0.4611853311	-0.5287627563	 1.7593327583	 0.026072
C	-1.0878836835	-0.6170963092	 3.1577850284	-0.38999
C	-1.4909665535	-0.8458001881	 0.6909648675	-0.043949
N	-1.0021712976	-1.2542347059	-0.6358271493	-0.374764
C	-1.8043742757	-2.2050137948	 0.1570265387	 0.307268
C	-1.0720532444	-3.4518734128	 0.611699389	-0.466021
C	-3.2379698421	-2.4431213613	-0.2890735325	-0.143035
O	-3.3378974292	-3.1680381788	-1.5080889087	-0.416102
H	 0.9316174915	 1.083728395	 2.2366183004	 0.107607
H	 0.6021910531	 0.8946232551	 0.5033873122	 0.12798
H	-0.6061138908	 1.641706313	 1.5641354292	 0.105926
H	 0.3430956865	-1.2691674316	 1.6881767736	 0.076395
H	-1.4924995729	-1.6152900171	 3.3543854493	 0.111641
H	-0.3493665388	-0.3932094426	 3.9343193437	 0.112599
H	-1.9087649526	 0.1020391868	 3.2665734015	 0.110861
H	-2.3374119778	-0.1546735303	 0.7077160993	 0.068502
H	-1.567272667	-0.8538791028	-1.3811523563	 0.230235
H	-1.06099815	-4.203353784	-0.1871432182	 0.108344
H	-0.0309774057	-3.2369469733	 0.85491677	 0.136521
H	-1.5535103778	-3.8977392419	 1.4896324124	 0.113909
H	-3.8012482376	-2.941849458	 0.5163085614	 0.089397
H	-3.7280001969	-1.4830380099	-0.4838795706	 0.101865
H	-3.0205749513	-4.0627455108	-1.3524630314	 0.286416
50.4532	64.1581	122.7387	140.2902	190.3535	223.7055	249.3294	263.9126	273.3899	289.7636	370.8007	386.39	401.1664	404.4685	492.7628	620.7498	727.9671	806.6512	864.6087	907.272	927.534	939.4947	958.1969	964.7499	986.4045	1060.9453	1071.4785	1080.1736	1105.1161	1130.4691	1153.0248	1190.9853	1201.3659	1248.7613	1288.7519	1323.1332	1340.173	1362.8614	1382.0488	1395.2426	1414.6364	1416.3057	1425.789	1464.2538	1487.2286	1489.4758	1490.7686	1494.0284	1503.276	1505.54	1515.004	2973.9301	3023.4011	3026.1624	3027.2856	3043.5428	3064.5113	3073.2217	3081.2626	3087.5705	3095.3741	3101.979	3112.6567	3141.3686	3491.7707	3825.4319
CC(C)C1NC1(C)CO	CC(C)[C@H]1N[C@]1(C)CO	
InChI=1S/C7H15NO/c1-5(2)6-7(3,4-9)8-6/h5-6,8-9H,4H2,1-3H3	InChI=1S/C7H15NO/c1-5(2)6-7(3,4-9)8-6/h5-6,8-9H,4H2,1-3H3/t6-,7-/m1/s1
