14
gdb 131158	3.49984	1.17837	0.88632	3.1289	69.15	-0.226	0.0006	0.2266	1210.5678	0.100931	-432.830702	-432.822513	-432.821569	-432.86492	29.705	
O	-1.1539935162	 1.0789493605	 0.2984267171	-0.432845
C	-0.3967338742	-0.0222447104	 0.1184554471	 0.287956
C	 0.3090213713	-0.3659942977	-1.0143495596	 0.264331
C	 0.4815119297	 0.2989897251	-2.3490199301	-0.470787
C	 1.3414659204	-0.4607163184	-3.2514708414	 0.272387
C	 2.0537302464	-1.1123816724	-3.9671560383	-0.42109
N	 0.8772131219	-1.5455710729	-0.6499041909	-0.222242
N	 0.5571049927	-1.9068503231	 0.5949807935	-0.128932
N	-0.2286442467	-0.9673321921	 1.0689774759	-0.282711
H	-1.5118518852	 1.0281705942	 1.1938765202	 0.308891
H	-0.5011361342	 0.4477643221	-2.8162011535	 0.165231
H	 0.895618203	 1.3062842783	-2.2079892022	 0.165209
H	 2.679573137	-1.6663677816	-4.6229195509	 0.209262
H	 1.4804355842	-2.1264866218	-1.2128884669	 0.285342
16.8558	114.0042	224.1429	228.2965	319.2648	338.8804	376.559	402.4373	533.1223	598.253	629.8764	661.9586	679.3529	703.1943	740.4871	796.6814	951.4494	961.1712	1015.8756	1122.8348	1153.2932	1216.8388	1229.0465	1251.6975	1350.7641	1372.7746	1394.9828	1468.1738	1540.237	1677.1787	2241.6472	3016.8976	3038.4491	3502.247	3640.2664	3794.5108
OC1=C(CC#C)NN=N1	Oc1c(CC#C)[nH]nn1	
InChI=1S/C5H5N3O/c1-2-3-4-5(9)7-8-6-4/h1H,3H2,(H2,6,7,8,9)	InChI=1S/C5H5N3O/c1-2-3-4-5(9)7-8-6-4/h1H,3H2,(H2,6,7,8,9)
