17
gdb 70765	3.96757	1.30926	1.11462	1.9063	80.71	-0.2361	0.0324	0.2686	1104.3587	0.133697	-384.568951	-384.560981	-384.560036	-384.601029	31.444	
C	 0.0017231693	 1.4744615204	-0.0289680981	-0.524959
C	 0.0404623723	-0.0234867251	-0.087109304	 0.285041
C	 0.5552623722	-0.972982431	-1.1919460265	-0.362918
C	 0.0654080547	-1.9658558679	-0.1073961996	 0.222007
C	 0.0775493534	-3.3943918365	-0.1088300218	 0.082842
C	 0.0934992634	-4.5974625856	-0.122750967	-0.378405
C	 0.5040750677	-0.9951024544	 1.0518045835	 0.009444
O	-0.7842073226	-1.0101362979	 1.7267228368	-0.322756
C	-1.1123975508	-1.0081140351	 0.3097930011	 0.009443
H	 1.0075439687	 1.9007941685	-0.106808157	 0.124466
H	-0.6003529965	 1.8878626768	-0.8451156489	 0.124465
H	-0.4365714187	 1.8006281375	 0.9198507436	 0.13826
H	-0.0009647305	-0.9798714537	-2.1334952207	 0.106014
H	 1.6318472474	-0.966731229	-1.3839815541	 0.106014
H	 0.1042308548	-5.6591909306	-0.1275024483	 0.180271
H	 1.4154130999	-1.0078965264	 1.6498738229	 0.100385
H	-2.1597494347	-1.03668173	 0.008753538	 0.100386
129.5807	132.5261	227.1393	242.6007	292.9659	397.1121	417.2272	513.9203	522.8751	574.2482	624.55	635.3726	710.7873	711.5088	776.364	835.2046	862.4791	894.6352	908.3165	1010.3532	1012.3443	1040.8224	1063.6634	1102.3163	1103.7989	1149.245	1162.4008	1173.1424	1217.8102	1281.6153	1294.6009	1380.614	1414.0306	1489.7093	1489.8441	1515.8067	2232.3034	3031.0793	3051.6363	3096.7534	3105.5854	3109.7458	3119.436	3125.9466	3502.3274
CC12CC3(C#C)C1OC23	C[C@@]12C[C@@]3(C#C)[C@@H]1O[C@@H]23	
InChI=1S/C8H8O/c1-3-8-4-7(2)5(8)9-6(7)8/h1,5-6H,4H2,2H3	InChI=1S/C8H8O/c1-3-8-4-7(2)5(8)9-6(7)8/h1,5-6H,4H2,2H3/t5-,6+,7-,8+
