16
gdb 72315	2.58338	1.74472	1.10514	2.6237	74.58	-0.1903	0.0015	0.1918	1045.9867	0.1242	-434.008225	-433.999694	-433.99875	-434.041716	32.035	
N	-0.2640846557	 1.4124636473	-1.0051784939	-0.580782
C	-0.2280701811	 0.150905491	-0.4296650561	 0.258111
C	 1.0287397586	-0.6825794455	-0.7042759228	-0.253155
N	 0.7497328653	-2.1368863115	-0.6527219555	-0.29796
C	-0.0553358653	-2.337436621	 0.2957858752	 0.345222
N	-1.1529407074	-3.0539002451	 0.6982111357	-0.387383
C	-0.9102142687	-1.5362857243	 1.1391199818	-0.264926
C	-1.2067517635	-0.3069352315	 0.3889723494	 0.235462
O	-2.368081952	 0.4321019474	 0.5520993941	-0.468128
H	 0.1312712891	 1.4760807125	-1.9329208512	 0.246399
H	-1.1641205341	 1.8670882123	-0.937146981	 0.259679
H	 1.3950012277	-0.4508618271	-1.711741034	 0.108094
H	 1.8358068697	-0.3978920072	-0.0134116293	 0.127361
H	-1.8020306756	-3.2288300176	-0.0703241703	 0.253537
H	-0.8284261876	-1.5237343077	 2.2221634395	 0.124985
H	-2.7328650892	 0.2501571479	 1.4232506383	 0.293486
36.551	139.5241	186.9995	279.3309	288.9273	330.5213	375.9376	395.2961	452.0094	497.0465	543.0949	575.8415	665.4119	677.0612	735.1918	753.0467	873.8883	913.6269	984.2688	993.9124	1020.3318	1095.0187	1152.6137	1157.5358	1208.4847	1230.4119	1254.1775	1300.2112	1317.2385	1343.271	1371.8136	1482.2009	1637.5644	1714.7681	1851.957	2999.1618	3044.662	3144.2887	3461.5579	3549.2873	3652.9545	3830.3315
NC12CN=C3NC1C23O	NC1=C([C@@H]2[C]([N]C1)N2)O	
InChI=1S/C5H7N3O/c6-4-1-7-3-5(4,9)2(4)8-3/h2,9H,1,6H2,(H,7,8)	InChI=1S/C5H7N3O/c6-2-1-7-5-3(8-5)4(2)9/h3,9H,1,6H2,(H,7,8)/t3-/m1/s1
