15
gdb 42713	2.65595	2.05689	1.68419	3.0206	69.91	-0.2463	-0.0125	0.2338	845.1326	0.113245	-420.547505	-420.541054	-420.540109	-420.578065	26.198	
O	 0.1415779216	 0.0643134949	 0.2286683328	-0.305314
C	 0.043067478	 1.2345767188	 0.0919773729	 0.42312
C	-1.0673301212	 2.3252319987	-0.0836698834	-0.264209
C	-0.731283729	 3.0334328614	 1.2477135267	-0.089837
C	 0.6212916702	 3.1342765971	 1.3227481241	-0.22423
C	 1.0310512394	 2.5081784714	 0.0237592439	 0.140099
C	 1.9520950764	 2.3759045964	-1.1840150291	-0.198095
O	 0.7526636382	 2.4219157023	-2.0413793311	-0.310344
C	 0.0000592376	 3.0445591664	-0.9639600555	 0.150846
H	-2.1123175497	 2.1408767671	-0.3274416843	 0.090035
H	-1.4604179505	 3.2462424285	 2.0161494802	 0.121037
H	 1.2249619192	 3.458131231	 2.1581323168	 0.122706
H	 2.6083751663	 3.2314328225	-1.3826145283	 0.117823
H	 2.4952007278	 1.4354893887	-1.3035478255	 0.13528
H	-0.1330379443	 4.1206443647	-1.1086556803	 0.091083
159.6675	245.539	270.6532	398.427	423.6096	556.4754	592.1337	619.0233	667.5543	728.6184	798.957	814.1757	864.145	885.7331	899.0005	906.0387	931.8574	974.195	1006.8467	1021.2284	1071.0248	1117.8373	1142.931	1152.0771	1186.3546	1232.198	1248.7344	1306.4789	1323.9901	1357.2639	1507.8153	1530.9536	1930.1256	3033.2952	3078.2848	3110.6741	3137.4481	3227.7698	3249.5515
O=C1C2C=CC11COC21	O=C1[C@H]2C=C[C@]31CO[C@@H]23	
InChI=1S/C7H6O2/c8-5-4-1-2-7(5)3-9-6(4)7/h1-2,4,6H,3H2	InChI=1S/C7H6O2/c8-5-4-1-2-7(5)3-9-6(4)7/h1-2,4,6H,3H2/t4-,6+,7-/m1/s1
