17
gdb 34399	2.72133	1.57229	1.30181	0.8163	73.83	-0.2528	0.0291	0.2819	1021.2692	0.135822	-421.775427	-421.767684	-421.76674	-421.807629	30.007	
C	 0.0327848116	-1.2590599473	-0.3039594126	-0.385753
C	 0.0290229433	-0.0779657276	-0.0839843795	 0.250214
C	 0.0390417494	 1.3518250482	 0.1412842989	 0.157937
C	-0.3814207415	 2.2726404772	-1.0395595396	-0.120882
O	 0.837280172	 3.0364725729	-0.9371019495	-0.293472
C	 1.3788202508	 2.1590766501	 0.0726305018	 0.060962
C	 1.4952368307	 2.8154228559	 1.4388251205	-0.243441
C	 0.0300536643	 2.8600129591	 1.8960018799	-0.097832
O	-0.5660247291	 1.6642129423	 1.3846176992	-0.299397
H	 0.0336509821	-2.3048561811	-0.489586621	 0.196215
H	-0.4690949702	 1.7627245393	-2.0049272712	 0.112321
H	-1.2767243819	 2.8737943785	-0.8463830146	 0.113216
H	 2.2750225535	 1.6369920211	-0.2717606651	 0.089112
H	 2.0917373065	 2.1799238184	 2.1015103292	 0.115671
H	 1.9588315697	 3.8029752846	 1.3801533075	 0.12016
H	-0.1010067068	 2.8512206824	 2.9801640394	 0.116632
H	-0.4738139145	 3.7475826261	 1.4890728165	 0.108336
103.2893	148.3328	181.7024	224.242	352.7129	391.4039	495.5429	508.2949	572.1471	629.1059	641.9484	662.4863	667.5468	838.5162	886.5542	890.3471	909.9636	965.4661	1005.9131	1020.5207	1032.952	1056.7999	1097.5872	1130.3468	1149.3522	1170.9377	1218.4064	1261.7964	1277.2843	1314.7713	1336.3117	1354.842	1386.5527	1466.4318	1508.4437	1520.5386	2244.2512	3011.5464	3029.5193	3056.3204	3083.7949	3086.6092	3106.6952	3119.9827	3500.7146
C#CC12COC1CCO2	C#C[C@]12CO[C@H]1CCO2	
InChI=1S/C7H8O2/c1-2-7-5-8-6(7)3-4-9-7/h1,6H,3-5H2	InChI=1S/C7H8O2/c1-2-7-5-8-6(7)3-4-9-7/h1,6H,3-5H2/t6-,7-/m0/s1
