18
gdb 92757	3.39684	1.14244	0.9423	1.7725	74.2	-0.2223	-0.0258	0.1964	1264.2782	0.149067	-435.326654	-435.31776	-435.316816	-435.360449	33.044	
C	 0.1620151914	 1.4815592855	 0.1570886445	-0.395605
C	-0.0403776271	-0.0236609462	-0.0343666677	 0.022217
C	 0.7846704437	-0.6160618297	-1.2224803571	-0.180025
N	 1.9679671692	-1.2572629252	-0.6196286806	-0.330458
C	 1.7223213725	-1.3087502967	 0.638693468	 0.293595
N	 0.5194315278	-0.8138938066	 1.0725056698	-0.337188
C	 2.6701551566	-1.873445658	 1.6626873317	 0.350068
N	 3.7514556577	-2.4700324616	 1.1140655612	-0.525159
O	 2.4426040456	-1.7684643628	 2.8558345905	-0.375493
H	 1.2271599335	 1.7225892972	 0.237612152	 0.12978
H	-0.2510636788	 2.032612735	-0.6943802744	 0.121197
H	-0.3405976114	 1.8383195969	 1.0624141007	 0.117384
H	-1.1074774546	-0.2388255598	-0.1472053501	 0.086455
H	 0.208053185	-1.3722495188	-1.7703461401	 0.113821
H	 1.0840472846	 0.1513028615	-1.9438645676	 0.109263
H	 0.4554506925	-0.5128324863	 2.0344868119	 0.255632
H	 3.8600813998	-2.4481661807	 0.1122252061	 0.279497
H	 4.4776797219	-2.8277800338	 1.7104350911	 0.265018
68.7718	93.7933	181.5296	195.6284	249.4501	299.7941	338.9701	376.818	422.3293	493.9504	556.2825	580.5357	648.4953	665.7801	752.6674	818.3259	830.9135	920.8829	935.199	983.6528	1008.4042	1059.2419	1103.3488	1120.9229	1133.5459	1216.3852	1230.732	1285.3963	1317.832	1373.8679	1388.8355	1406.8079	1483.1551	1491.8852	1495.0644	1498.4923	1600.1912	1683.9909	1796.2047	3021.5842	3030.0941	3052.4731	3071.1987	3101.0851	3109.1351	3589.1367	3613.7572	3736.2546
CC1CN=C(N1)C(N)=O	C[C@H]1C[N][C](N1)C(=O)N	
InChI=1S/C5H9N3O/c1-3-2-7-5(8-3)4(6)9/h3H,2H2,1H3,(H2,6,9)(H,7,8)	InChI=1S/C5H9N3O/c1-3-2-7-5(8-3)4(6)9/h3H,2H2,1H3,(H2,6,9)(H,7,8)/t3-/m0/s1
