18
gdb 99404	1.90259	1.37142	0.93593	1.7581	76.99	-0.2347	-0.0187	0.216	1303.4346	0.145457	-435.26388	-435.253107	-435.252163	-435.30092	36.631	
C	 0.1690606981	 1.4541024325	-0.0834998113	-0.312572
N	 0.2452402689	 0.0035078685	-0.0708104825	-0.330098
C	 0.7002974048	-0.6452748805	 1.0534342863	 0.34524
N	 0.9297901327	-0.0072208794	 2.130572096	-0.300187
C	 1.2733316935	-0.7161153681	 3.3516843028	-0.338712
C	 0.7385044189	-2.1833145163	 0.9234749905	-0.106343
O	-0.4679201924	-2.7666298049	 1.3847121088	-0.401077
C	 1.0519882879	-2.6196325936	-0.4531139996	 0.270521
N	 1.2744102553	-2.9239551809	-1.54616506	-0.327376
H	 1.1521688653	 1.9246079322	 0.0449998604	 0.132197
H	-0.2660599422	 1.774229902	-1.0325808518	 0.122571
H	-0.4647724767	 1.7921709556	 0.7391322947	 0.149351
H	 0.4450901768	-0.4407840726	-0.9544811174	 0.263691
H	 1.136581355	-0.0401430569	 4.2002281298	 0.125583
H	 0.6565982589	-1.6062913761	 3.5319267341	 0.131452
H	 2.3296324931	-1.0225642847	 3.3585504515	 0.118867
H	 1.5248508232	-2.5679538889	 1.5777315511	 0.154906
H	-1.1977610812	-2.3165202279	 0.9417841766	 0.301986
31.5846	52.1718	121.6281	138.5717	150.3889	195.7517	219.4949	269.1548	281.5449	294.0806	380.2291	421.264	501.3099	537.5352	582.367	654.7261	736.5396	810.5746	963.1189	1042.22	1048.6496	1100.8635	1115.652	1148.4781	1153.9153	1204.5793	1250.5658	1298.4872	1325.7725	1417.1418	1438.6084	1454.2371	1473.8644	1492.2403	1504.3335	1516.3325	1544.999	1736.7485	2346.2686	2990.5546	3024.2003	3048.3042	3091.9141	3095.1446	3099.2039	3139.5403	3611.0111	3792.3488
CNC(=NC)C(O)C#N	CNC(=NC)[C@@H](O)C#N	
InChI=1S/C5H9N3O/c1-7-5(8-2)4(9)3-6/h4,9H,1-2H3,(H,7,8)	InChI=1S/C5H9N3O/c1-7-5(8-2)4(9)3-6/h4,9H,1-2H3,(H,7,8)/t4-/m0/s1
