18
gdb 93759	3.0837	1.29971	0.94527	5.559	77.84	-0.221	-0.035	0.1859	1220.2962	0.148501	-439.133092	-439.124552	-439.123607	-439.166127	32.496	
C	-0.1611111082	 1.4645702423	 0.0780121235	-0.489814
C	-0.0022200728	-0.0263727425	-0.0199583022	 0.385754
C	-0.0450718888	-0.6929494233	-1.2127993497	-0.299692
C	 0.0380296782	-2.1307255801	-1.2565747005	 0.347209
O	 0.1513661232	-2.8214095168	-2.2623689639	-0.392886
C	-0.0663809207	-2.8459138942	 0.102683885	 0.047106
O	 0.43481827	-4.1464648771	 0.0038540875	-0.441466
C	 0.6872846032	-2.0483464819	 1.1633290324	-0.203368
N	 0.1838910347	-0.6778160749	 1.1644000285	-0.350622
H	 0.7437370056	 1.9278522932	 0.4894419082	 0.138874
H	-0.3588662064	 1.9021854381	-0.9006189444	 0.149137
H	-0.9918262711	 1.7186458392	 0.7461111422	 0.145482
H	-0.1568421901	-0.1457799275	-2.1398783331	 0.097788
H	-1.1393892306	-2.8484957833	 0.3735168015	 0.088882
H	 0.4840467606	-4.3026636332	-0.9564903697	 0.291126
H	 0.5408602875	-2.4883092449	 2.1527763071	 0.123298
H	 1.7632670264	-2.0769797948	 0.9287679704	 0.115335
H	 0.4149425296	-0.1077996482	 1.9626391471	 0.247856
105.1842	117.4836	176.6468	224.3752	299.7609	325.3814	376.7073	414.3161	464.4742	503.3631	531.5095	574.1251	599.2611	684.3828	730.7242	778.2793	823.3079	930.2312	1016.3017	1050.1933	1063.2252	1075.6993	1115.0983	1160.6399	1191.9922	1225.7595	1235.858	1294.0888	1313.5609	1369.5798	1403.0878	1418.1912	1457.4987	1477.4082	1480.145	1497.9463	1550.7662	1643.0812	1741.583	2924.4233	2987.4918	3032.1569	3086.0223	3097.3478	3148.9857	3213.7922	3625.0314	3627.9369
CC1=CC(=O)C(O)CN1	CC1=CC(=O)[C@@H](O)CN1	
InChI=1S/C6H9NO2/c1-4-2-5(8)6(9)3-7-4/h2,6-7,9H,3H2,1H3	InChI=1S/C6H9NO2/c1-4-2-5(8)6(9)3-7-4/h2,6-7,9H,3H2,1H3/t6-/m0/s1
