19
gdb 72795	2.52614	1.75562	1.38752	3.765	75.45	-0.2235	0.0196	0.2431	1007.5732	0.161714	-419.1909	-419.183071	-419.182127	-419.222836	30.968	
C	 0.1498204317	 1.6119841785	 0.0351567091	-0.455553
C	-0.0479151914	 0.0932122483	 0.0499982244	 0.189338
C	 0.7536042402	-0.5966196616	-1.1055085356	-0.133114
O	 1.8031062845	-0.9649022604	-0.1389614746	-0.274755
C	 0.9542296586	-0.6521825403	 0.8915382042	 0.409184
N	 0.9136793673	-1.0898039568	 2.0671404623	-0.313323
C	-0.3910833728	-0.7368889208	 2.6700711271	-0.169286
C	-1.5297374513	-1.0221453451	 1.662736038	-0.168148
N	-1.4118000485	-0.286857674	 0.38218893	-0.366348
H	 1.1793091998	 1.8795168272	-0.2179213521	 0.137449
H	-0.5120739289	 2.0631464888	-0.7139416118	 0.124611
H	-0.0886627074	 2.0476861892	 1.0096642296	 0.12937
H	 0.2746454054	-1.4932530793	-1.5047552046	 0.126634
H	 1.1514862573	 0.0352689738	-1.9022667981	 0.113254
H	-0.5303397221	-1.352461376	 3.5638150723	 0.111495
H	-0.414474051	 0.3119761015	 2.9978672092	 0.100212
H	-1.5245490403	-2.1003003394	 1.4596102347	 0.118373
H	-2.5021313051	-0.783268578	 2.103800162	 0.102596
H	-2.0009820161	 0.5352148445	 0.4035054937	 0.218012
116.6641	193.224	228.7381	260.7797	316.5044	355.6232	375.5909	460.0957	505.4152	565.5427	668.01	685.7935	745.0825	771.832	863.4554	879.4363	927.0263	951.1161	954.4536	968.9914	1055.3811	1072.5538	1093.4192	1142.0653	1151.8824	1177.0713	1209.9507	1235.5142	1260.0138	1293.2635	1346.1823	1359.9994	1389.8293	1407.5926	1485.8141	1488.9649	1496.008	1499.7315	1501.9696	1512.7586	1808.8533	3006.0685	3027.2561	3029.1616	3065.1801	3077.7817	3085.5726	3099.6938	3119.9993	3136.672	3554.671
CC12COC1=NCCN2	C[C@@]12CO[C]1[N]CCN2	
InChI=1S/C6H10N2O/c1-6-4-9-5(6)7-2-3-8-6/h8H,2-4H2,1H3	InChI=1S/C6H10N2O/c1-6-4-9-5(6)7-2-3-8-6/h8H,2-4H2,1H3/t6-/m1/s1
