25
gdb 119037	1.8786	1.065	0.83272	1.4564	89.3	-0.2562	0.0796	0.3358	1561.156	0.227076	-389.481348	-389.47011	-389.469166	-389.517981	41.172	
C	 0.9181255703	 1.3999875582	 0.3786209623	-0.382083
C	 0.1590193588	 0.1116327787	 0.0333527458	-0.257285
C	 0.5304958668	-0.4821188387	-1.3220925286	 0.364879
C	 0.2845052048	 0.4084908442	-2.5340547929	-0.25442
C	-1.1847151502	 0.7475908829	-2.7703329685	-0.075459
O	-1.2630734251	 1.4969707387	-3.9752704098	-0.420341
C	 1.7537744932	-1.3744305078	-1.3825535329	-0.347512
C	 0.3789184484	-1.9758243655	-1.559764245	-0.033
C	-0.1974427556	-2.9518404626	-0.5557948372	-0.416985
H	 2.0008344682	 1.2400369835	 0.3375841144	 0.118172
H	 0.6775510123	 2.2149753651	-0.3108761134	 0.120066
H	 0.666093109	 1.7397425588	 1.3881140562	 0.108519
H	 0.3569211942	-0.6270697594	 0.8161865107	 0.092981
H	-0.9210450479	 0.3050343102	 0.0747873471	 0.093614
H	 0.848338493	 1.3450703413	-2.4501160697	 0.103481
H	 0.6576229182	-0.0911237782	-3.4353685047	 0.100313
H	-1.7716786182	-0.1826963479	-2.8388160119	 0.084642
H	-1.5864035951	 1.3244614527	-1.9227659401	 0.084812
H	-2.1826733319	 1.7374539391	-4.1197866354	 0.283842
H	 2.4133912619	-1.3035556447	-2.2414687952	 0.104837
H	 2.2680966704	-1.5795096023	-0.4477206005	 0.10183
H	 0.1247540173	-2.2293148785	-2.5872579013	 0.078895
H	 0.1217738471	-2.7355493363	 0.4670998452	 0.116399
H	-1.2935169526	-2.944839305	-0.5703059513	 0.113532
H	 0.1283848425	-3.9726089263	-0.7857510934	 0.116272
55.9439	84.4385	99.3155	142.0683	160.0794	211.6317	226.2426	263.3999	272.9252	294.7085	331.9613	388.763	447.1682	479.3204	526.7301	712.5359	764.4309	803.3724	805.1466	888.0962	906.7254	926.7986	979.9264	1016.8034	1036.1178	1041.0952	1057.2362	1064.551	1078.4548	1118.2502	1131.4872	1146.0095	1191.8588	1223.2122	1243.1834	1258.1437	1300.84	1317.5708	1332.5349	1348.6489	1382.0319	1409.1925	1411.4046	1431.6955	1458.3005	1482.9435	1488.8108	1493.8493	1497.021	1502.1632	1506.7765	1511.2502	1527.8862	2964.999	2992.606	3022.4952	3028.6584	3033.0225	3037.3742	3068.8653	3073.3997	3082.6887	3102.9536	3104.2418	3108.6368	3118.0494	3124.7902	3200.4513	3830.3634
CCC1(CCO)CC1C	CC[C@@]1(CCO)C[C@H]1C	
InChI=1S/C8H16O/c1-3-8(4-5-9)6-7(8)2/h7,9H,3-6H2,1-2H3	InChI=1S/C8H16O/c1-3-8(4-5-9)6-7(8)2/h7,9H,3-6H2,1-2H3/t7-,8-/m1/s1
