17
gdb 71505	3.08068	1.5862	1.41998	1.6354	73.75	-0.2433	0.0127	0.256	970.5511	0.137725	-417.960182	-417.953105	-417.952161	-417.99148	28.398	
C	 0.0270929462	 1.4956217246	-0.0796260695	-0.529305
C	-0.0034512547	-0.0008928556	-0.0143914557	 0.30998
N	 0.6412547327	-0.8988584025	-1.0461610797	-0.372684
C	 0.0187542651	-1.847362914	-0.0569825883	-0.060288
C	 0.5571197082	-0.9528549638	 1.0836361484	 0.081078
O	-0.3300567302	-0.9852654721	 2.2006390402	-0.263995
C	-1.5777433082	-0.9902248841	 1.5996114898	 0.431294
N	-2.6925686716	-1.0113384472	 2.1842297753	-0.556759
C	-1.2584422379	-0.9573444182	 0.1381996624	-0.188209
H	 1.0580193424	 1.8494252173	-0.1771065054	 0.139316
H	-0.5456160683	 1.8665754681	-0.9360363599	 0.129023
H	-0.4055150265	 1.925647553	 0.8291870738	 0.141213
H	 0.0768126938	-0.8882260687	-1.9001047204	 0.212978
H	 0.0722615277	-2.9310553677	-0.1591469957	 0.096798
H	 1.6001791817	-0.948707643	 1.387056966	 0.110896
H	-2.5679336871	-1.0265794749	 3.1986140901	 0.226021
H	-2.0679770231	-0.9519708912	-0.5879268413	 0.092643
135.1293	189.931	230.2151	305.053	369.9917	457.3636	511.7996	600.2439	619.3938	713.8138	731.0688	789.1186	830.3457	871.8926	896.0519	901.3143	925.2946	937.7811	1000.7892	1018.97	1029.8147	1077.537	1107.7098	1123.8759	1140.298	1168.797	1214.6143	1220.2102	1248.1045	1270.8967	1315.6184	1341.9542	1387.8233	1415.4368	1480.864	1488.5512	1802.9711	3036.4296	3105.6889	3115.3289	3122.4714	3160.1438	3176.0911	3401.9503	3465.6859
CC12NC3C1OC(=N)C23	C[C@@]12N[C@H]3[C@@H]1O[C]([NH])[C@@H]23	
InChI=1S/C6H8N2O/c1-6-2-3(8-6)4(6)9-5(2)7/h2-4,7-8H,1H3	InChI=1S/C6H8N2O/c1-6-2-3(8-6)4(6)9-5(2)7/h2-4,7-8H,1H3/t2-,3+,4-,6-/m0/s1
