17
gdb 127430	3.30458	1.22949	0.90626	1.3894	87.74	-0.2265	-0.0154	0.2111	1269.9141	0.13505	-380.874367	-380.865026	-380.864081	-380.910137	32.999	
C	-0.0165131892	 1.3640807898	-0.0213375802	-0.326776
N	 0.0057270619	-0.0816302123	 0.041864255	-0.050601
N	 0.0419265152	-0.7996959864	-1.0911566673	-0.310696
C	 0.0547419694	-2.0811544603	-0.7118531712	 0.364078
C	 0.0946468723	-3.1749731234	-1.7320897285	-0.49859
C	 0.0262194304	-2.1872106835	 0.6917168806	-0.420349
C	-0.0052177877	-0.8788180824	 1.1555901691	 0.274007
C	-0.0419278959	-0.3676266433	 2.4696240895	 0.262912
C	-0.0732821929	 0.0682071294	 3.5925160356	-0.448682
H	 0.8782420044	 1.7317363386	-0.5306320219	 0.148037
H	-0.8995638683	 1.7026260645	-0.5697308413	 0.148051
H	-0.0452846275	 1.7562843182	 0.9953488979	 0.153403
H	 0.9845330057	-3.8023035676	-1.611999941	 0.129731
H	-0.7785988422	-3.8311525138	-1.6500340236	 0.129731
H	 0.1092654381	-2.7451999802	-2.7357747469	 0.140074
H	 0.0277313548	-3.0781485621	 1.2980606173	 0.110021
H	-0.1008539485	 0.4448104548	 4.5850059769	 0.195648
14.9463	81.6962	131.0172	144.9777	177.757	273.0527	297.2573	390.7142	472.7182	535.5265	555.6577	565.2021	658.597	675.6701	677.8035	690.3542	799.0457	812.4534	993.2063	1029.6753	1065.6366	1080.837	1152.8033	1164.6065	1184.8972	1321.7711	1400.7929	1408.6583	1449.4249	1465.4333	1472.5987	1478.8873	1484.5032	1499.3101	1520.3835	1569.6209	2229.0261	3036.0774	3051.7592	3087.7726	3116.2632	3132.7453	3159.1401	3268.7993	3501.0705
CN1N=C(C)C=C1C#C	Cn1nc(C)cc1C#C	
InChI=1S/C7H8N2/c1-4-7-5-6(2)8-9(7)3/h1,5H,2-3H3	InChI=1S/C7H8N2/c1-4-7-5-6(2)8-9(7)3/h1,5H,2-3H3
