19
gdb 62760	3.56615	1.23342	1.18892	3.9697	75.18	-0.2248	0.055	0.2797	1124.1633	0.160063	-419.248322	-419.239614	-419.23867	-419.281175	33.535	
C	-0.0485026246	 1.5500383275	 0.0497379484	-0.478059
C	 0.0191640371	 0.0390519184	 0.0278546921	 0.272735
C	-1.2100506436	-0.643974501	-0.5422229506	-0.447081
C	 1.3322135534	-0.6939420244	-0.2430040603	-0.064226
N	 2.5856093819	-0.0268652107	-0.0511341884	-0.332147
C	 2.7132149614	 0.4753213033	 1.2409491451	 0.402699
O	 3.5489625026	 1.2547556777	 1.6393898484	-0.40715
N	 1.681976235	-0.0966577671	 1.9807760925	-0.332144
C	 0.7167589747	-0.7414737267	 1.1408780863	-0.064202
H	 0.8503168538	 2.0112644666	 0.4635302958	 0.144063
H	-0.1856189566	 1.9430297919	-0.9643445129	 0.11877
H	-0.9008141174	 1.8877311287	 0.6506879964	 0.118775
H	-1.3855088556	-0.3354991439	-1.5793161755	 0.119427
H	-1.1074299435	-1.7342747739	-0.5339618954	 0.115891
H	-2.1048405749	-0.3909632632	 0.0381614632	 0.11943
H	 1.3397709509	-1.5573382354	-0.9003908463	 0.101702
H	 3.0597659728	 0.4681797735	-0.7883722109	 0.254909
H	 1.4400633118	 0.3432523758	 2.8533441425	 0.254908
H	 0.256151611	-1.641039047	 1.5362159096	 0.101699
116.4218	139.0061	180.5655	212.2983	286.1532	286.1921	338.6354	394.5233	466.5866	486.354	512.7	513.6688	689.7763	737.4104	758.4498	784.4405	830.8381	872.467	955.3375	976.0937	990.4403	1026.417	1044.6083	1076.5216	1138.1893	1155.0929	1164.5394	1234.0145	1252.0631	1328.1952	1369.3063	1379.3717	1393.9761	1412.9905	1421.7583	1441.2247	1482.4102	1492.2709	1501.3176	1510.7983	1846.9411	3021.6068	3030.1702	3082.6132	3085.1123	3094.1271	3127.7814	3149.7003	3158.3139	3653.842	3655.6949
CC1(C)C2NC(=O)NC12	CC1(C)[C@H]2NC(=O)N[C@@H]12	
InChI=1S/C6H10N2O/c1-6(2)3-4(6)8-5(9)7-3/h3-4H,1-2H3,(H2,7,8,9)	InChI=1S/C6H10N2O/c1-6(2)3-4(6)8-5(9)7-3/h3-4H,1-2H3,(H2,7,8,9)/t3-,4+
