16
gdb 17473	4.23019	1.99423	1.68772	1.1059	62.91	-0.2544	0.0688	0.3233	786.0617	0.131187	-383.710213	-383.70372	-383.702776	-383.740362	26.494	
O	-0.0727411618	 1.38241992	-0.069178165	-0.464002
C	-0.0384640222	-0.0114466627	 0.017634504	 0.386077
C	-0.5027701428	-0.823854749	-1.1578054308	-0.345338
C	-1.339047766	-0.7789108405	 0.1121967722	-0.109373
C	-1.1220217784	-1.9003555694	 1.0995668596	 0.028599
O	-0.1199217414	-2.8537024214	 0.7106831555	-0.256084
C	 0.2495265126	-1.8202082347	 1.6340395624	 0.045912
C	 0.9585141996	-0.6249274058	 1.0161323135	-0.327075
H	 0.565903832	 1.6557247404	-0.7364631234	 0.283501
H	-0.8908219784	-0.2580545891	-1.9983380404	 0.108356
H	-0.0019021327	-1.7537161282	-1.397186255	 0.134769
H	-2.2916075348	-0.2643739457	 0.0993081737	 0.095307
H	-1.9595309642	-2.3104269489	 1.6561674952	 0.096247
H	 0.5331673664	-2.1705589198	 2.6235760062	 0.096865
H	 1.9151755969	-0.9031726839	 0.5605895801	 0.110036
H	 1.1591864952	 0.1205631288	 1.7931352723	 0.116202
197.4739	274.8881	283.7431	369.9278	404.1205	405.8908	536.635	626.2418	695.3683	717.7027	808.9907	830.8796	876.2271	894.8363	917.8078	939.5323	980.8809	994.502	1039.3649	1051.1463	1074.619	1089.2466	1108.7053	1179.6794	1235.12	1255.0512	1269.2263	1288.1093	1336.3609	1344.4251	1390.6152	1417.1775	1466.2337	1479.1973	3044.4348	3089.48	3136.966	3140.5866	3159.8939	3198.1279	3236.1829	3798.6585
OC12CC1C1OC1C2	O[C@]12C[C@H]1[C@H]1O[C@H]1C2	
InChI=1S/C6H8O2/c7-6-1-3(6)5-4(2-6)8-5/h3-5,7H,1-2H2	InChI=1S/C6H8O2/c7-6-1-3(6)5-4(2-6)8-5/h3-5,7H,1-2H2/t3-,4-,5+,6-/m0/s1
