17
gdb 49632	3.35774	1.58156	1.37232	3.7245	71.41	-0.2321	-0.0124	0.2196	951.6463	0.138537	-417.942973	-417.936251	-417.935307	-417.974466	26.725	
O	-0.4299458612	 0.618415886	 0.6954131184	-0.263184
C	 0.0435367586	 1.2188423016	-0.2359262534	 0.161502
C	 1.3199695534	 2.0320161541	-0.1444101523	-0.079108
C	 1.293821722	 3.2999286366	-1.014566979	-0.077791
N	 0.0064514296	 3.877197406	-0.4868693042	-0.328812
C	 0.82398328	 4.1830518846	 0.7156883449	 0.00189
C	 2.1573020772	 4.2687822206	-0.054679189	-0.024311
N	 2.8268982173	 3.5098557705	 1.0045775147	-0.310845
C	 1.5136839733	 2.8256122247	 1.1745802992	-0.022766
H	-0.417065765	 1.1719434857	-1.2466742775	 0.077223
H	 2.1738306812	 1.3684470569	-0.3317793501	 0.090607
H	 1.4193566967	 3.2267499718	-2.0936792931	 0.075096
H	-0.1923546391	 4.7570791629	-0.9620608861	 0.22202
H	 0.4634696929	 4.8813738067	 1.4668563894	 0.090816
H	 2.6192113658	 5.1670798842	-0.4658534796	 0.079715
H	 3.583049785	 2.8948631345	 0.7028937855	 0.21053
H	 1.3035723322	 2.3267075028	 2.1170766024	 0.097417
74.2621	179.5139	200.7891	404.5122	479.646	540.0793	645.017	688.1916	740.846	774.4026	802.7601	840.0554	856.9926	890.978	943.0714	950.0731	971.7003	991.0091	999.7779	1022.2259	1038.0892	1070.4765	1099.5391	1116.9989	1150.9245	1161.9988	1179.6394	1210.0172	1236.1012	1259.1482	1299.322	1304.8044	1335.8796	1349.3585	1358.1587	1424.3101	1820.4782	2890.9966	3034.6564	3111.3783	3133.3845	3153.5953	3162.3953	3445.2149	3467.9358
O=CC1C2NC3C2NC13	O=C[C@H]1[C@H]2N[C@@H]3[C@H]2N[C@H]13	
InChI=1S/C6H8N2O/c9-1-2-3-5-6(7-3)4(2)8-5/h1-8H	InChI=1S/C6H8N2O/c9-1-2-3-5-6(7-3)4(2)8-5/h1-8H/t3-,4-,5+,6+/m1/s1
