21
gdb 61664	4.19872	0.77825	0.68911	2.9417	83.99	-0.267	0.0293	0.2963	1635.0266	0.183506	-383.269789	-383.260194	-383.25925	-383.305003	35.217	
N	 0.0364025244	 1.5169066329	-0.03662441	-0.484895
C	 0.0076289999	 0.0536234881	-0.0970191255	-0.137988
C	-1.4271213029	-0.4875597776	 0.0638755713	-0.209818
C	-2.072422537	-0.1406321318	 1.4005362825	 0.066443
C	-2.6663274772	 1.2731640115	 1.6586545824	-0.198783
C	-3.8439334925	 0.5999345509	 2.4125530373	-0.218867
C	-3.479793564	-0.7314515197	 1.7017701965	-0.240787
C	 0.6187482107	-0.4818072878	-1.3355006077	 0.25218
N	 1.0982628711	-0.85713411	-2.3188052634	-0.324121
H	 0.9919365114	 1.8521384944	-0.1150255849	 0.244153
H	-0.470043596	 1.9025636037	-0.8290886107	 0.240419
H	 0.6087794416	-0.3186571483	 0.7420824857	 0.130754
H	-2.0438830965	-0.1114012897	-0.7633699822	 0.104893
H	-1.3906234421	-1.5775071928	-0.0528004129	 0.119365
H	-1.3849402228	-0.4031361424	 2.2144777863	 0.069034
H	-2.0457706564	 1.9941374956	 2.1923076516	 0.104381
H	-3.0021369376	 1.7343203958	 0.7239672421	 0.089927
H	-3.6594050709	 0.5462081227	 3.4895149793	 0.102103
H	-4.8475119432	 1.0008755947	 2.2538720937	 0.096496
H	-4.0566339343	-0.8636347886	 0.779900646	 0.098846
H	-3.5309509555	-1.6592619418	 2.2773180329	 0.096265
46.0442	87.9985	106.9529	169.2163	199.8498	249.2154	301.632	303.2589	374.8397	424.685	561.5998	585.4563	645.8228	766.3364	784.314	834.2863	879.2545	905.0585	932.5545	939.4116	949.8415	974.4037	980.8984	1048.5343	1091.6453	1125.0571	1139.7425	1194.0475	1203.4491	1246.0993	1256.1503	1258.6039	1269.6968	1284.478	1298.4865	1325.8124	1359.0189	1392.0922	1395.9945	1475.9843	1479.0104	1487.904	1510.7107	1663.0846	2342.1564	3017.0824	3025.7663	3037.1809	3043.9735	3054.2838	3057.9737	3066.6176	3096.246	3110.3974	3125.3992	3492.4285	3571.872
NC(CC1CCC1)C#N	N[C@@H](CC1CCC1)C#N	
InChI=1S/C7H12N2/c8-5-7(9)4-6-2-1-3-6/h6-7H,1-4,9H2	InChI=1S/C7H12N2/c8-5-7(9)4-6-2-1-3-6/h6-7H,1-4,9H2/t7-/m0/s1
