20
gdb 58048	2.11284	1.41753	0.93859	3.8824	79.11	-0.2797	0.0305	0.3102	1292.2627	0.169199	-403.145285	-403.135389	-403.134445	-403.180639	35.614	
C	 0.0947401183	 1.4541376608	 0.2047638335	-0.410679
C	 0.073923584	-0.0646827414	-0.0067776382	 0.044938
C	-1.3547329649	-0.6108874653	 0.1183432194	-0.414809
C	 0.7099395461	-0.4495824142	-1.3788788661	-0.186495
C	 2.0736031877	 0.0791817336	-1.4842013379	 0.299749
N	 3.148513944	 0.4952542362	-1.570098667	-0.346692
C	 0.6827791653	-1.9567027857	-1.6289698656	 0.071472
C	 1.8244025843	-2.7375062919	-2.11926149	-0.186874
O	 1.442383432	-2.7641569551	-0.7379268481	-0.231281
H	 1.1076311736	 1.8603199431	 0.141546212	 0.145131
H	-0.5221355311	 1.9636990197	-0.5453751205	 0.114349
H	-0.3087285389	 1.7049857583	 1.1902650986	 0.120245
H	 0.6948411069	-0.5377329498	 0.7626116885	 0.112643
H	-1.995416629	-0.2392116259	-0.6907849573	 0.114091
H	-1.3867166929	-1.7031445606	 0.1072191689	 0.132066
H	-1.7963881799	-0.2806447129	 1.0631683655	 0.123874
H	 0.1185868679	 0.0243395408	-2.175847641	 0.123869
H	-0.3162135216	-2.3371611345	-1.8401645556	 0.106957
H	 1.6387495388	-3.6583210244	-2.6697531999	 0.11972
H	 2.7688961594	-2.2413030109	-2.3279813691	 0.147726
54.1504	60.3456	146.7754	173.7243	189.6433	230.7865	247.8346	333.1875	351.3688	402.1745	422.6424	453.3534	550.8708	658.7979	780.6674	845.3277	888.393	907.598	936.1767	958.9001	971.2907	984.492	1082.9209	1090.3308	1139.5555	1150.6157	1171.4288	1178.7291	1188.0204	1264.428	1297.3934	1329.0797	1354.9305	1366.8316	1403.8189	1425.8319	1426.6437	1487.0395	1494.4925	1504.0513	1514.4489	1527.4674	2355.8636	3011.6368	3029.1103	3031.7802	3050.984	3095.7727	3096.512	3103.5571	3112.0859	3120.8786	3122.0566	3192.9712
CC(C)C(C#N)C1CO1	CC(C)[C@@H](C#N)[C@H]1CO1	
InChI=1S/C7H11NO/c1-5(2)6(3-8)7-4-9-7/h5-7H,4H2,1-2H3	InChI=1S/C7H11NO/c1-5(2)6(3-8)7-4-9-7/h5-7H,4H2,1-2H3/t6-,7-/m1/s1
