20
gdb 82384	2.22848	1.99505	1.3146	0.4414	77.62	-0.2195	0.069	0.2885	1020.3265	0.173273	-403.101183	-403.093351	-403.092407	-403.13326	31.485	
O	 0.4311200703	 0.787829378	 0.9116532592	-0.429075
C	 0.0353223618	-0.2484372748	 0.0090318811	 0.075109
C	-1.476704161	-0.2323094534	-0.0703849484	-0.028705
C	-2.2262091052	 0.9764353805	-0.5775457125	-0.293139
C	-2.1645698334	-0.2745847418	-1.4153200514	-0.031099
C	-1.3436025271	-0.4105394025	-2.690923049	-0.176578
N	 0.1054363606	-0.2065126411	-2.6244030451	-0.096448
C	 0.663512267	 1.067366057	-2.1896043801	-0.253808
C	 0.7745074852	-0.1427617412	-1.3239339681	-0.051555
H	 1.3923713203	 0.7712000454	 0.974158981	 0.279107
H	 0.3163509933	-1.2235711931	 0.437737503	 0.066783
H	-1.9491587559	-0.7712856039	 0.7442927765	 0.089864
H	-3.1694632279	 1.2087720281	-0.0947465031	 0.108857
H	-1.66395885	 1.8539302954	-0.8663381123	 0.124725
H	-3.0854177005	-0.8505010277	-1.4573644155	 0.08506
H	-1.4865922674	-1.4334064768	-3.0623933542	 0.108195
H	-1.732015172	 0.2573813113	-3.4689555339	 0.109153
H	 1.5264034567	 1.4069119638	-2.7587668125	 0.109097
H	 0.0076669417	 1.8671413226	-1.8635980202	 0.121309
H	 1.7334826936	-0.6624483257	-1.3158723445	 0.083147
89.0752	185.9788	239.2371	278.8148	305.7759	359.6198	423.3513	451.7083	492.7661	664.7456	679.2578	725.3467	773.0343	797.3184	843.3641	889.8386	911.4094	929.0273	984.8536	1001.9529	1039.5717	1054.5956	1058.7098	1086.8042	1109.338	1116.3467	1139.9547	1140.5508	1163.9191	1176.8449	1235.8656	1264.5779	1296.0008	1343.5157	1349.7497	1372.9299	1385.0745	1405.8038	1430.9602	1447.7163	1489.5522	1495.1055	1526.0738	2963.1194	3016.3736	3053.4639	3086.5466	3106.2651	3133.8624	3144.8861	3156.9313	3198.6281	3238.8336	3803.1229
OC1C2CC2CN2CC12	O[C@H]1[C@H]2C[C@H]2CN2C[C@@H]12	
InChI=1S/C7H11NO/c9-7-5-1-4(5)2-8-3-6(7)8/h4-7,9H,1-3H2	InChI=1S/C7H11NO/c9-7-5-1-4(5)2-8-3-6(7)8/h4-7,9H,1-3H2/t4-,5-,6-,7-,8?/m0/s1
