16
gdb 34092	3.50854	1.56112	1.33025	0.567	73.86	-0.2384	0.0251	0.2635	965.5893	0.124668	-400.657594	-400.65058	-400.649636	-400.688764	28.334	
C	 0.1269878672	-1.1606666773	-0.0192518185	-0.325249
C	 0.0758452305	 0.0394159717	-0.0145507398	 0.146828
C	-0.03638178	 1.4781119782	 0.001114116	 0.238178
C	-1.0247467318	 2.1650074347	 0.9943125864	-0.202911
N	-1.5301912107	 3.0859913938	-0.0781121698	-0.155302
C	-0.3340572598	 3.5916318859	-0.8186788089	-0.058664
C	 1.0370761402	 3.4911534937	-0.1695743276	-0.116994
O	 1.2470068187	 2.0957366761	 0.0749676532	-0.30262
C	-0.8279560736	 2.238323728	-1.1053003521	-0.102898
H	 0.1833038947	-2.2213218811	-0.0254013987	 0.192299
H	-1.8407370292	 1.5097217766	 1.3029479436	 0.128508
H	-0.5747816059	 2.6440353813	 1.8694561748	 0.110664
H	-0.5605867678	 4.4266174185	-1.4714334609	 0.112214
H	 1.8230911816	 3.8524193769	-0.8416511714	 0.118824
H	 1.0987190141	 4.0606851219	 0.7676304609	 0.110307
H	-1.2885973582	 1.855737561	-2.0067511173	 0.106814
146.6339	149.1538	264.8272	388.3283	415.2234	491.5617	508.8558	554.5653	632.4773	660.2118	674.1285	716.628	772.8793	793.4983	854.0442	926.6471	931.6667	974.2236	986.8376	1013.5249	1042.4685	1063.886	1087.8078	1103.4639	1169.77	1190.6234	1221.0899	1240.3483	1269.3167	1316.0861	1357.2369	1392.8908	1490.6947	1521.9337	2248.1368	3012.0015	3054.685	3065.2847	3127.6763	3185.909	3204.3665	3501.3169
C#CC12CN3C(CO1)C23	C#C[C@@]12CN3[C@@H](CO1)[C@@H]23	
InChI=1S/C7H7NO/c1-2-7-4-8-5(3-9-7)6(7)8/h1,5-6H,3-4H2	InChI=1S/C7H7NO/c1-2-7-4-8-5(3-9-7)6(7)8/h1,5-6H,3-4H2/t5-,6-,7-,8?/m0/s1
