18
gdb 12785	3.52133	1.61029	1.35489	0.8406	68.31	-0.2455	0.0848	0.3303	976.3702	0.152609	-384.89478	-384.886618	-384.885674	-384.927171	30.569	
C	 0.010578283	 1.3552499583	-0.1938282815	-0.235848
O	-0.0385888511	 0.0580701596	 0.356226245	-0.250535
C	-1.2688808806	-0.5879020391	 0.1497107732	 0.067541
C	-1.5893262864	-1.2092366038	-1.2608654002	-0.269046
C	-1.7577477127	-2.5708564577	-0.5784941367	-0.105241
C	-0.4542882476	-2.9499843626	 0.0864404322	-0.33686
C	-1.3693661518	-1.9728889322	 0.7701570612	 0.370596
O	-1.939176911	-2.2210988585	 2.0060190383	-0.463647
H	 0.9931385866	 1.7727713407	 0.0395341604	 0.125621
H	-0.1182347584	 1.3454775016	-1.2866983588	 0.107431
H	-0.764675875	 2.0086451856	 0.2367868393	 0.104251
H	-2.1007959388	 0.046325758	 0.4904133786	 0.073076
H	-2.5013114093	-0.8089303573	-1.7084185282	 0.103039
H	-0.772589223	-1.1499904781	-1.9872703199	 0.099446
H	-2.5252009065	-3.3023222206	-0.7953562831	 0.094975
H	-0.4521118586	-3.9311525637	 0.550488005	 0.111808
H	 0.4968952066	-2.6350002613	-0.3345509209	 0.114696
H	-1.2360117457	-2.2255824689	 2.6647683561	 0.288699
96.6623	139.5133	177.9086	228.9056	265.6194	305.1949	361.3716	417.4878	482.0524	534.0222	630.3153	726.013	823.4396	856.9176	890.7585	939.6185	990.6909	1008.7664	1030.5255	1035.0636	1077.9168	1096.9041	1141.2931	1179.0831	1185.4609	1193.7593	1222.8381	1234.7298	1250.0245	1310.174	1320.219	1376.4464	1416.3332	1473.1235	1481.8635	1487.4812	1504.6789	1511.0179	2973.5049	2996.6248	3021.123	3050.1916	3111.5674	3112.4689	3114.0546	3199.0392	3209.631	3795.2781
COC1CC2CC12O	CO[C@H]1C[C@H]2C[C@@]12O	
InChI=1S/C6H10O2/c1-8-5-2-4-3-6(4,5)7/h4-5,7H,2-3H2,1H3	InChI=1S/C6H10O2/c1-8-5-2-4-3-6(4,5)7/h4-5,7H,2-3H2,1H3/t4-,5-,6-/m0/s1
