21
gdb 70365	2.60545	1.6719	1.33056	1.5418	80.53	-0.235	0.0754	0.3104	1047.564	0.184538	-387.074245	-387.066553	-387.065608	-387.105903	32.022	
O	-0.3695405403	 1.2326046411	 0.2430101987	-0.477263
C	 0.0315547678	-0.0927811157	 0.0532179603	 0.41988
C	-0.3876205068	-1.0382003375	 1.1350707394	-0.32758
C	 1.0898235956	-0.7615170528	 0.9211407097	-0.10655
C	 1.8895111422	-1.7456251346	 0.0773612046	-0.253638
C	 1.2115366846	-1.7696911297	-1.3146990692	 0.006367
C	 0.0698711052	-2.7888354403	-1.6178013676	-0.234794
C	-0.9001078601	-1.6076317054	-1.9144787132	-0.22568
C	 0.1679294476	-0.6096644593	-1.3761789919	-0.093748
H	 0.2842461308	 1.8024633527	-0.1775890681	 0.27572
H	-0.8386440584	-0.5669063493	 2.0014381401	 0.119052
H	-0.8006613731	-2.0103535266	 0.8893492346	 0.111021
H	 1.5981130633	-0.1927746445	 1.6926092238	 0.081734
H	 2.9242701479	-1.3946923591	-0.0092018753	 0.094805
H	 1.9342062132	-2.7482378948	 0.5206503214	 0.097728
H	 1.9526464619	-1.7474432261	-2.1169689343	 0.067346
H	 0.2578657764	-3.467990102	-2.4530312242	 0.094262
H	-0.2152999033	-3.3966951941	-0.7545808165	 0.099784
H	-1.0979554051	-1.4812788898	-2.9818192526	 0.096751
H	-1.8573652263	-1.6107774499	-1.3876681304	 0.103391
H	 0.3981147068	 0.2325767278	-2.0368500094	 0.051411
134.5249	186.7143	249.6606	305.0567	338.7549	358.8944	429.4756	454.3486	584.5324	649.4612	673.2722	708.0494	768.2197	830.0719	844.809	862.3883	896.1205	929.6532	944.1151	957.9961	970.5712	1013.9073	1037.1711	1052.2647	1070.5237	1083.6973	1105.1475	1122.2943	1181.0119	1210.5676	1225.6192	1231.2447	1238.631	1257.8226	1269.4421	1275.3627	1303.3058	1335.7525	1340.2345	1352.9438	1417.118	1477.0533	1484.5798	1493.5626	1502.973	3023.647	3044.0411	3054.2157	3056.5932	3063.5971	3075.6827	3098.1516	3116.735	3135.8367	3165.4469	3221.6491	3788.4067
OC12CC1CC1CCC21	O[C@]12C[C@H]1C[C@H]1CC[C@@H]21	
InChI=1S/C8H12O/c9-8-4-6(8)3-5-1-2-7(5)8/h5-7,9H,1-4H2	InChI=1S/C8H12O/c9-8-4-6(8)3-5-1-2-7(5)8/h5-7,9H,1-4H2/t5-,6-,7-,8-/m1/s1
