19
gdb 86237	2.06146	1.62731	1.21304	4.2728	75.39	-0.2336	0.0341	0.2677	1111.0059	0.159664	-419.214378	-419.205229	-419.204285	-419.248636	33.475	
C	-0.2394916722	 1.4365920683	-0.0161941501	-0.335479
N	 0.0317513898	 0.0124349942	 0.0355818408	-0.044981
C	 0.5971475827	-0.571985218	-1.1808605636	-0.193178
C	 1.2210554827	-1.9233254716	-0.7388584934	 0.114865
O	 2.619830483	-1.9828079329	-0.970700387	-0.426678
C	 1.012527961	-1.9570964371	 0.7860943237	-0.220592
C	 0.8172342322	-0.476451501	 1.1613992301	-0.147606
C	 2.105455277	 0.2423934258	 1.3424825615	 0.280756
N	 3.0684840716	 0.8697414806	 1.4691579813	-0.33658
H	 0.6682252202	 2.0482233467	-0.1548591132	 0.123732
H	-0.9226733185	 1.6418583667	-0.8460541022	 0.124743
H	-0.729554276	 1.7543952502	 0.9096072803	 0.12479
H	-0.1892960417	-0.6843790581	-1.9357454578	 0.10633
H	 1.3973726822	 0.053351282	-1.6146925424	 0.096358
H	 0.718754173	-2.770451239	-1.2245043963	 0.075874
H	 2.7849451813	-1.8091695323	-1.9029248394	 0.285542
H	 0.0957630954	-2.4942613293	 1.0375737845	 0.116215
H	 1.8584058658	-2.4321543577	 1.2835191941	 0.136108
H	 0.2514325303	-0.3565167075	 2.0918711391	 0.119782
50.2776	100.0849	135.4601	212.1476	233.0327	278.2655	321.34	330.8877	429.6424	431.2722	470.2808	591.1517	615.5017	747.809	786.9403	859.5021	888.9309	951.2425	982.7977	999.3831	1049.3392	1069.1977	1121.3305	1152.3881	1179.4612	1212.3189	1223.0056	1240.3828	1255.1322	1298.9483	1331.0854	1356.1314	1362.7203	1369.9733	1423.3823	1458.7127	1472.8013	1486.301	1505.0909	1512.9636	2341.1018	2946.8948	2966.3691	3006.0802	3049.5168	3052.6214	3066.3534	3086.5621	3106.3271	3147.1331	3818.8666
CN1CC(O)CC1C#N	CN1C[C@@H](O)C[C@H]1C#N	
InChI=1S/C6H10N2O/c1-8-4-6(9)2-5(8)3-7/h5-6,9H,2,4H2,1H3	InChI=1S/C6H10N2O/c1-8-4-6(9)2-5(8)3-7/h5-6,9H,2,4H2,1H3/t5-,6-/m0/s1
