14
gdb 26021	5.12026	1.01618	0.85882	2.546	64.61	-0.2178	0.0179	0.2356	1250.3917	0.101406	-473.881473	-473.873551	-473.872607	-473.915295	28.833	
N	-2.371429664	 1.2126718828	-0.1694154866	-0.561188
C	-2.5274874474	-0.119604862	 0.0677311527	 0.47841
O	-3.5650766837	-0.6718061741	 0.3300820889	-0.373917
O	-1.3085421733	-0.7296516754	-0.0772076499	-0.290852
C	-1.1916812487	-2.0886970111	 0.0762768114	 0.310057
C	 0.0026611456	-2.6828927989	 0.3436319827	-0.107713
O	-0.1606130348	-4.0324983086	 0.3791339728	-0.141181
C	-1.4716926933	-4.2831455525	 0.133877289	 0.013531
C	-2.1652146945	-3.1322407593	-0.0642003192	-0.295745
H	-3.146675576	 1.8059718907	 0.0686514287	 0.274209
H	-1.4476770371	 1.6084937496	-0.1902193471	 0.269916
H	 0.9957014417	-2.3040674482	 0.5098392478	 0.138333
H	-1.7583421849	-5.3216246639	 0.1375349818	 0.138851
H	-3.2152578496	-3.019243279	-0.2605974029	 0.147288
27.043	81.5698	175.6374	290.1461	335.8893	372.8515	391.2176	517.8523	616.8817	619.3427	640.6941	714.8776	757.6866	767.641	776.8929	846.4637	882.8225	940.3083	1028.7836	1054.3273	1102.7957	1114.0586	1220.6845	1256.8975	1310.7901	1352.165	1411.2536	1535.7775	1609.3162	1645.0907	1852.2734	3277.6835	3292.8658	3316.6376	3621.3621	3753.5906
NC(=O)OC1=COC=C1	NC(=O)Oc1cocc1	
InChI=1S/C5H5NO3/c6-5(7)9-4-1-2-8-3-4/h1-3H,(H2,6,7)	InChI=1S/C5H5NO3/c6-5(7)9-4-1-2-8-3-4/h1-3H,(H2,6,7)
