14
gdb 133098	2.79004	1.38397	0.93041	3.3788	66.42	-0.2613	-0.0496	0.2117	1149.1929	0.101507	-478.027069	-478.019559	-478.018615	-478.059951	27.306	
O	 0.3587144677	 0.7989772811	-0.8707995606	-0.426046
C	-0.0572575491	 0.1712191302	 0.309862913	-0.114528
C	-1.4323217726	-0.4490254892	 0.2075367611	 0.337456
N	-1.9183337653	-1.0709236839	 1.2815294787	-0.286657
C	-3.1349364084	-1.6046033359	 1.1490366799	 0.024544
C	-3.8731426921	-1.5312151607	-0.0260424748	-0.290537
C	-3.2490724386	-0.855925971	-1.065053936	 0.359986
F	-3.8643216561	-0.7283623976	-2.2278464515	-0.053969
N	-2.0526202376	-0.3178385537	-0.9716479847	-0.361244
H	-0.3610246047	 0.6854176419	-1.5080176848	 0.295974
H	 0.6463531355	-0.6242093115	 0.6005429143	 0.124282
H	-0.0746967426	 0.8843741694	 1.1484887051	 0.124331
H	-3.5389723547	-2.1137344418	 2.0205005592	 0.13332
H	-4.8585474715	-1.9628155772	-0.1348659489	 0.133089
46.2387	179.2458	199.5475	222.4472	323.1385	427.0083	454.2043	476.5725	555.2513	633.6169	641.9518	766.5582	789.8296	854.8713	1000.5593	1003.2867	1018.6737	1038.8734	1094.9926	1127.2384	1247.4869	1263.2813	1282.4139	1318.1646	1354.3095	1420.2511	1453.9347	1497.1786	1503.8253	1606.8643	1637.7252	2989.0194	3005.2503	3167.3885	3232.31	3723.1205
OCC1=NC=CC(F)=N1	OCc1nccc(F)n1	
InChI=1S/C5H5FN2O/c6-4-1-2-7-5(3-9)8-4/h1-2,9H,3H2	InChI=1S/C5H5FN2O/c6-4-1-2-7-5(3-9)8-4/h1-2,9H,3H2
