21
gdb 103526	2.32272	1.41552	1.16796	2.4099	83.78	-0.2358	-0.0147	0.2211	1189.9588	0.181323	-387.131203	-387.121745	-387.120801	-387.165505	35.612	
C	 0.1417250587	 1.5722012771	 0.0430565552	-0.404664
C	-0.0203637871	 0.0492356902	 0.0146966225	-0.189006
C	-1.4851640067	-0.4648409852	 0.0158731438	 0.124276
C	-2.2384068571	-0.0268028994	 1.2880371768	-0.425595
C	-2.2388302861	-0.1337190242	-1.2533185826	-0.096693
C	-2.5925211075	-1.2088614853	-1.9591354893	-0.089854
C	-2.1529922182	-2.4939420307	-1.3133253156	-0.378161
C	-1.447374982	-2.012331422	-0.0372247805	 0.378696
O	-0.9389092765	-2.7159042637	 0.7969550153	-0.327261
H	 1.2020749821	 1.8401173331	 0.003524463	 0.118122
H	-0.3486027511	 2.0488390085	-0.8122457465	 0.116097
H	-0.2722850127	 2.011502616	 0.955215668	 0.121586
H	 0.4826639296	-0.3457645319	-0.8766613442	 0.096069
H	 0.4845670737	-0.3989156799	 0.8781345114	 0.116343
H	-2.3294218039	 1.061710393	 1.3403462192	 0.117218
H	-3.2498112636	-0.4442490857	 1.3068784739	 0.117054
H	-1.7078943653	-0.3779899943	 2.178199575	 0.133879
H	-2.4658844175	 0.8886596096	-1.5359802487	 0.098509
H	-3.1397915664	-1.1842930856	-2.8946478163	 0.100233
H	-2.980107271	-3.1682226617	-1.0557091406	 0.136405
H	-1.4607008814	-3.0870286579	-1.9250507199	 0.136746
52.2651	100.1565	170.3685	213.1599	225.0622	251.0452	280.3046	329.6395	342.5533	472.8041	536.2349	584.9599	602.851	674.8114	740.0243	758.7605	793.4092	862.482	914.7812	956.7843	972.0604	990.7804	1006.488	1015.8428	1063.7161	1086.9181	1131.4078	1136.1496	1179.4212	1215.6915	1230.8395	1282.5539	1319.2043	1365.353	1381.9666	1403.3878	1415.0785	1441.6423	1482.4475	1491.9216	1498.8881	1506.751	1511.8567	1678.3531	1843.324	3025.6102	3026.4049	3037.3272	3040.3417	3052.3139	3067.0532	3103.3884	3106.9507	3113.0683	3119.2721	3180.35	3204.9942
CCC1(C)C=CCC1=O	CC[C@@]1(C)C=CCC1=O	
InChI=1S/C8H12O/c1-3-8(2)6-4-5-7(8)9/h4,6H,3,5H2,1-2H3	InChI=1S/C8H12O/c1-3-8(2)6-4-5-7(8)9/h4,6H,3,5H2,1-2H3/t8-/m0/s1
