16
gdb 45011	2.46183	1.7946	1.17724	0.96	72.34	-0.2549	-0.0249	0.23	1020.2528	0.127084	-434.088082	-434.080818	-434.079874	-434.119924	28.248	
N	-0.2108582909	 1.043623183	-0.7696384515	-0.507184
C	-0.0766853625	-0.0249183401	-0.0938634545	 0.350293
C	-1.2753912035	-0.6227456121	 0.6228877176	-0.205125
N	-1.2988377509	-2.075932222	 0.7703971728	-0.101209
C	-0.9036462989	-2.8823144193	-0.3670998793	-0.24707
C	 0.0009140809	-2.7504803421	 0.8264789144	-0.132521
C	 1.2706052708	-1.9828571436	 0.6541923024	 0.423095
O	 2.3626578538	-2.4353978261	 0.9177496415	-0.356116
N	 1.1226313871	-0.7027167161	 0.1316542348	-0.379751
H	 0.6789822271	 1.3671650407	-1.1564008003	 0.21068
H	-1.3043789418	-0.1936636522	 1.6321056006	 0.141452
H	-2.1773468523	-0.2973913116	 0.1021068311	 0.150157
H	-1.4574243625	-3.8062534913	-0.5032190677	 0.136062
H	-0.5953276909	-2.3884260178	-1.2865740847	 0.135347
H	 0.0903041809	-3.5725212234	 1.5286695489	 0.126977
H	 1.9924643435	-0.2472096561	-0.115106536	 0.254914
102.0839	133.6501	251.246	352.8411	369.1405	466.8379	479.8679	509.3251	569.2875	616.4769	652.7068	747.2299	759.6384	867.5298	884.4818	899.0384	927.5014	995.8256	1037.6487	1046.935	1099.6143	1111.9339	1138.7899	1161.5848	1264.7067	1304.5787	1309.3052	1350.2667	1369.4198	1402.6508	1414.4648	1471.4352	1508.1991	1735.0199	1807.1507	3040.2713	3104.8485	3126.0645	3174.8525	3197.731	3440.7527	3580.3375
N=C1CN2CC2C(=O)N1	[NH][C]1CN2C[C@H]2C(=O)N1	
InChI=1S/C5H7N3O/c6-4-2-8-1-3(8)5(9)7-4/h3H,1-2H2,(H2,6,7,9)	InChI=1S/C5H7N3O/c6-4-2-8-1-3(8)5(9)7-4/h3H,1-2H2,(H2,6,7,9)/t3-,8?/m0/s1
