17
gdb 105682	1.80678	1.69047	1.31679	3.2414	64.28	-0.2443	-0.0355	0.2088	1063.9633	0.133225	-496.071788	-496.062344	-496.0614	-496.106501	33.379	
O	 0.5452189857	 0.6746848317	 0.7931839916	-0.418566
C	-0.0344688861	 0.2950535399	-0.436631293	-0.123703
C	-1.3845628346	-0.3897710229	-0.2142884616	 0.268927
O	-1.9256033555	-0.9417278914	-1.4478744196	-0.332178
C	-1.7673087542	-2.2956519571	-0.9530811718	-0.102337
C	-1.3300031429	-1.7842239152	 0.4370675521	-0.003728
O	-0.0399504936	-2.146335981	 0.8914811348	-0.431212
C	-2.4093225767	 0.5644291814	 0.3806380171	 0.137044
O	-2.9457150795	 0.4117986833	 1.4461409121	-0.247705
H	 0.7226761211	-0.150848021	 1.2622865841	 0.295216
H	-0.1817588369	 1.2067370623	-1.026867924	 0.116066
H	 0.6081323874	-0.3775813521	-1.0211378175	 0.107494
H	-2.7039430098	-2.8602547961	-1.0067455831	 0.113965
H	-0.9733087504	-2.8329542807	-1.4842319265	 0.113399
H	-2.0808127877	-1.8997336206	 1.2225401529	 0.11228
H	-0.1247945237	-2.8356270061	 1.5557713387	 0.301679
H	-2.6572485725	 1.4201512357	-0.2859248162	 0.093358
66.5302	86.1719	120.016	183.1481	196.0248	207.9478	282.2671	317.2048	400.6742	421.1962	505.3968	533.3261	599.4874	716.6822	777.5735	896.2313	909.9001	972.8953	1000.7193	1053.7981	1070.2062	1082.789	1117.1043	1143.2035	1162.6011	1169.5392	1236.3871	1291.2096	1312.1959	1332.08	1373.1235	1409.7667	1434.5852	1458.5853	1499.6686	1510.7429	1834.7391	2892.5497	3011.5554	3030.0484	3070.3297	3078.0525	3092.3128	3773.8042	3844.4339
OCC1(OCC1O)C=O	OC[C@]1(OC[C@H]1O)C=O	
InChI=1S/C5H8O4/c6-2-5(3-7)4(8)1-9-5/h2,4,7-8H,1,3H2	InChI=1S/C5H8O4/c6-2-5(3-7)4(8)1-9-5/h2,4,7-8H,1,3H2/t4-,5-/m1/s1
