21
gdb 89503	2.70868	1.4474	1.19681	1.695	84.89	-0.2321	-0.0011	0.231	1132.2955	0.182412	-387.072229	-387.063351	-387.062406	-387.105443	34.485	
C	-0.2234535433	 1.5920318635	-0.2446548909	-0.460787
C	-0.072013667	 0.0766786996	-0.0714152602	 0.303056
C	 1.1361229871	-0.5105109624	-0.896768589	-0.315269
C	 2.0084158498	-0.5588274801	 0.4208480751	 0.040033
O	 2.9790881156	 0.4615534818	 0.5583476461	-0.435507
C	 0.6832981166	-0.4027811291	 1.1516083883	 0.221568
C	-0.0846375671	-1.006825715	 2.0535671333	-0.229684
C	-1.5453426908	-0.9064972772	 1.6199270994	-0.244943
C	-1.4348172912	-0.6434261928	 0.0825806936	-0.290795
H	 0.740510025	 2.1110693573	-0.2055254791	 0.098559
H	-0.6723933994	 1.8240499938	-1.217441238	 0.118926
H	-0.8648456993	 2.0196197141	 0.5335778383	 0.118191
H	 0.9368286596	-1.510136403	-1.2911052495	 0.100827
H	 1.5470667123	 0.1246128043	-1.6869568996	 0.099792
H	 2.5404548969	-1.4967500627	 0.5997529215	 0.09211
H	 2.5268286054	 1.2895787519	 0.7452717262	 0.284977
H	 0.2417612979	-1.5815746392	 2.9134060037	 0.097396
H	-2.097274138	-1.8263376848	 1.8410223787	 0.104333
H	-2.0797245145	-0.098240544	 2.1388233415	 0.107016
H	-2.2805425195	-0.0717273404	-0.3125818162	 0.090726
H	-1.414585836	-1.6053504755	-0.4416231333	 0.099475
84.4959	133.1599	182.0801	229.3477	245.8196	272.873	344.0731	366.107	385.9429	471.3547	571.9179	672.6917	714.7233	770.5678	804.6943	827.5454	874.4006	888.8477	900.6539	929.3815	953.4703	969.313	983.2737	1034.2958	1059.5985	1114.1479	1132.5794	1159.3633	1191.8002	1207.5481	1213.4185	1252.6626	1255.9289	1286.5013	1305.7643	1309.122	1335.6325	1406.3722	1422.1978	1461.835	1480.9075	1488.5211	1495.6434	1498.3265	1714.6504	3007.9188	3020.9901	3037.9532	3052.3976	3064.9525	3077.974	3083.1485	3088.021	3094.5788	3118.5915	3191.3417	3828.2732
CC12CC(O)C1=CCC2	C[C@@]12C[C@@H](O)[C]1[CH]CC2	
InChI=1S/C8H12O/c1-8-4-2-3-6(8)7(9)5-8/h3,7,9H,2,4-5H2,1H3	InChI=1S/C8H12O/c1-8-4-2-3-6(8)7(9)5-8/h3,7,9H,2,4-5H2,1H3/t7-,8-/m1/s1
