18
gdb 116854	6.83531	0.49556	0.46609	1.8449	82.18	-0.2543	-0.0173	0.237	2287.2829	0.145504	-439.054711	-439.04409	-439.043146	-439.092367	35.709	
C	 0.0731161056	 1.3438007764	 0.0077148974	-0.232373
O	-0.0235791554	-0.0818782653	 0.001338078	-0.219377
C	-1.2735805543	-0.5827959164	 0.0113603438	 0.225302
N	-2.3001567241	 0.1729029198	 0.0254805108	-0.550403
C	-1.2731261573	-2.0180588619	 0.0040740514	 0.014639
C	-1.3159506306	-3.2228692552	-0.0015604834	 0.149896
C	-1.3883395196	-4.6755791903	-0.0081561221	-0.33695
C	-2.8293991101	-5.2000680793	 0.000430256	-0.064583
O	-2.7461450525	-6.6131858553	-0.0071243581	-0.412724
H	 1.1412895805	 1.5633968383	-0.0016134733	 0.127853
H	-0.4163178224	 1.7705404716	-0.8721750667	 0.138812
H	-0.3989785355	 1.7614335284	 0.9013366816	 0.138828
H	-3.1494804888	-0.3867234635	 0.0311825909	 0.229171
H	-0.8760911069	-5.0746467848	-0.8920942769	 0.148286
H	-0.8625592431	-5.0832466811	 0.8638395117	 0.148291
H	-3.3492996856	-4.8244891557	 0.8942783809	 0.101718
H	-3.3630469808	-4.8158225736	-0.8815521456	 0.10173
H	-3.6387462691	-6.9704629921	-0.0023502864	 0.291884
25.5814	60.2545	73.193	119.9549	155.95	177.5069	217.3563	240.3064	318.3337	335.4233	406.299	430.6098	544.3253	596.9028	731.3399	790.6544	818.3994	846.7262	960.6761	1002.1363	1084.7997	1085.1672	1105.651	1140.4756	1177.574	1217.3328	1221.8583	1239.7603	1304.1418	1329.8091	1382.4721	1457.0419	1470.4575	1475.7419	1477.4188	1498.0075	1528.4587	1680.0869	2357.1301	2984.8499	3016.4169	3034.1584	3045.1872	3072.0755	3116.9862	3151.8598	3526.4633	3835.7288
COC(=N)C#CCCO	CO[C]([NH])C#CCCO	
InChI=1S/C6H9NO2/c1-9-6(7)4-2-3-5-8/h7-8H,3,5H2,1H3	InChI=1S/C6H9NO2/c1-9-6(7)4-2-3-5-8/h7-8H,3,5H2,1H3
