16
gdb 30859	2.45216	1.39073	0.93293	2.5533	70.01	-0.1868	0.0363	0.2231	1228.9222	0.12473	-471.22873	-471.219773	-471.218829	-471.262429	32.91	
C	-0.4346127562	 1.2658197677	-0.0897376271	-0.32458
N	 0.4608800565	 0.1317910693	 0.1440088306	-0.385667
C	 0.7788777392	-0.6688252816	-0.9239773648	 0.19293
C	 0.5296287229	-1.9548138636	-1.270126989	 0.292818
O	-0.1587914684	-2.8737692484	-0.5675660351	-0.428332
N	 1.0883085067	-2.2796652189	-2.4933428846	-0.425932
C	 1.6577135963	-1.1675501005	-2.8676719822	 0.464241
N	 2.2972992424	-0.9379386343	-4.059111577	-0.58495
O	 1.5478737784	-0.1437048967	-2.0229568161	-0.223953
H	-0.0161999337	 2.0309286095	-0.7604598184	 0.110858
H	-1.3650818176	 0.8973917424	-0.5304730982	 0.133578
H	-0.6727136421	 1.7375977619	 0.8684737969	 0.116577
H	 1.2533602566	 0.3864950316	 0.721903155	 0.229312
H	-0.1533355862	-3.6778575617	-1.1002339692	 0.301188
H	 2.5992712211	-1.7834237014	-4.5196240394	 0.268505
H	 3.000116244	-0.214339735	-4.0303110116	 0.263408
78.9959	122.7207	155.06	227.9572	278.8604	295.5822	311.4852	347.9774	366.9286	455.9065	565.8491	588.8754	593.3217	649.9182	675.4617	728.7026	766.6546	826.7728	974.4646	1036.2435	1060.7446	1129.1815	1143.5423	1169.5279	1187.0368	1368.1335	1405.6707	1453.3981	1461.1388	1479.7382	1491.6765	1520.5515	1599.1808	1671.36	1782.264	2992.1726	3074.5013	3116.4133	3519.9565	3578.1417	3688.2986	3809.9015
CNC1=C(O)N=C(N)O1	CNc1c(O)nc(N)o1	
InChI=1S/C4H7N3O2/c1-6-3-2(8)7-4(5)9-3/h6,8H,1H3,(H2,5,7)	InChI=1S/C4H7N3O2/c1-6-3-2(8)7-4(5)9-3/h6,8H,1H3,(H2,5,7)
