15
gdb 132634	3.22797	1.32403	0.94197	4.6066	72.39	-0.2105	-0.0059	0.2046	1143.909	0.114908	-458.158242	-458.150665	-458.14972	-458.190003	29.827	
N	 0.0525401816	 1.4162971238	 0.0760208107	-0.61458
C	 0.0148411999	 0.0024078023	 0.0130615291	 0.195952
C	-1.1525180824	-0.7417553344	 0.0598492519	-0.064365
N	-1.2002475616	-2.0833965475	 0.0562810081	-0.34292
C	-0.0469164889	-2.6999663697	-0.0168478548	 0.342892
F	-0.0876991267	-4.0345701919	-0.0393510392	-0.083361
C	 1.201331363	-2.0899890636	-0.0654941203	-0.37155
C	 1.2431697976	-0.6981644667	-0.0362470021	 0.330682
N	 2.4207448994	 0.0286494014	-0.0952277613	-0.59874
H	 0.5223617676	 1.8199682739	-0.7293242763	 0.250033
H	-0.875624578	 1.8167479366	 0.1404427379	 0.246087
H	-2.111964395	-0.22916792	 0.1090657704	 0.097647
H	 2.1042637898	-2.6877928994	-0.10514638	 0.099368
H	 3.2585118224	-0.4876270272	 0.1303186354	 0.252924
H	 2.3673756312	 0.9162820924	 0.3890677306	 0.259929
150.6072	224.4095	226.6474	304.0732	347.6292	389.4914	454.5657	467.8669	476.9738	543.272	580.9036	651.7754	700.3361	753.231	773.8957	794.1986	839.0975	857.5551	930.3933	996.9364	1105.978	1137.8025	1203.3448	1279.3309	1323.3103	1339.4921	1392.8708	1461.0454	1540.459	1617.9888	1632.3335	1654.4386	1669.5886	3136.3568	3198.104	3495.1068	3539.1286	3596.4876	3651.7288
NC1=CN=C(F)C=C1N	Nc1cnc(F)cc1N	
InChI=1S/C5H6FN3/c6-5-1-3(7)4(8)2-9-5/h1-2H,8H2,(H2,7,9)	InChI=1S/C5H6FN3/c6-5-1-3(7)4(8)2-9-5/h1-2H,8H2,(H2,7,9)
