17
gdb 84142	2.58156	1.41918	1.05166	1.3529	75.55	-0.2265	0.0229	0.2494	1157.7193	0.135634	-417.998532	-417.989691	-417.988747	-418.032293	33.306	
C	-0.0099238823	 1.5477879929	-0.1332332062	-0.390453
C	 0.0650195463	 0.028828118	-0.0257860887	 0.021029
N	 0.7380703203	-0.5731192472	-1.1785916009	-0.349103
C	 1.5543344966	-1.4337609576	-0.7173198707	 0.46893
N	 2.3175325367	-2.3142861831	-1.4320832302	-0.579037
O	 1.6808833304	-1.582694081	 0.6341036227	-0.250705
C	 0.8668879613	-0.5320870819	 1.2153077737	-0.106523
C	 1.7206746458	 0.4210582013	 1.9138748139	 0.367507
C	 2.411361231	 1.205160351	 2.5074250261	-0.485735
H	 0.9898320868	 1.9837373817	-0.1997490282	 0.126723
H	-0.565281351	 1.8162182183	-1.0355746592	 0.124591
H	-0.5201728525	 1.9822472397	 0.7320222815	 0.111906
H	-0.9595899386	-0.3643259231	 0.0337563466	 0.084185
H	 2.4042200909	-2.0802866177	-2.4087052373	 0.268813
H	 3.1741726721	-2.6034149055	-0.9854006351	 0.264183
H	 0.1961298902	-1.0101893171	 1.9348082018	 0.118827
H	 3.022968596	 1.8986677314	 3.03019491	 0.204861
42.526	144.4732	156.4368	241.2401	254.0719	302.7393	368.2704	419.446	456.2229	489.6302	549.6994	572.7271	620.5426	673.7863	685.0201	731.1366	749.9467	829.2071	912.7398	947.7961	970.4698	1030.1767	1069.1544	1116.4568	1136.5891	1187.3312	1272.9322	1300.1999	1346.893	1378.3517	1410.32	1421.2594	1485.0334	1495.0891	1617.8502	1765.0056	2235.625	2994.1709	3045.8512	3067.3589	3118.7952	3130.9506	3501.4243	3588.6675	3702.8312
CC1N=C(N)OC1C#C	C[C@H]1[N][C](N)O[C@H]1C#C	
InChI=1S/C6H8N2O/c1-3-5-4(2)8-6(7)9-5/h1,4-5H,2H3,(H2,7,8)	InChI=1S/C6H8N2O/c1-3-5-4(2)8-6(7)9-5/h1,4-5H,2H3,(H2,7,8)/t4-,5+/m1/s1
