16
gdb 51983	3.79845	0.85643	0.73238	4.9378	70.11	-0.2313	-0.0252	0.2061	1468.1034	0.123099	-471.244123	-471.234709	-471.233765	-471.279768	32.627	
N	-0.6085127617	 0.7824636735	 0.6645093303	-0.563141
C	-0.1693920715	-0.3197600838	 0.1861667693	 0.471652
N	-1.0116642847	-1.2718744168	-0.2934247322	-0.322434
C	-2.4256235062	-0.9942505042	-0.3782115224	-0.246117
C	-3.0887900947	-0.8640291773	 0.9929987353	 0.18569
O	-4.1948317093	-0.4242328174	 1.1502682236	-0.243478
N	 1.2108197506	-0.6592251696	 0.1214709606	-0.37255
C	 1.801675263	-1.769371168	-0.4191030716	 0.179663
O	 1.2320874465	-2.6985565967	-0.9536116438	-0.319225
H	 0.1307351872	 1.3925875265	 1.0005571612	 0.210247
H	-0.5977027855	-2.0810406425	-0.7344243029	 0.281968
H	-2.6356871635	-0.0783460698	-0.9422534619	 0.151516
H	-2.9053433496	-1.8297527932	-0.8994471958	 0.136207
H	-2.4738299075	-1.2527660552	 1.8347426816	 0.083193
H	 1.830195452	 0.0282013434	 0.5228673622	 0.26076
H	 2.9010033749	-1.730178679	-0.3143921635	 0.106047
35.5224	66.4085	109.885	151.5773	197.9373	248.8876	275.0744	364.2789	405.9046	480.9402	494.8015	598.0955	644.1831	708.9387	728.1286	751.7339	858.2888	902.4861	1028.6425	1033.0099	1065.3676	1115.4694	1164.08	1199.878	1282.3077	1314.8651	1338.4909	1405.7026	1440.3638	1441.9484	1482.1134	1580.0691	1737.1069	1799.449	1845.3497	2891.0244	2974.7021	3041.4693	3092.3399	3533.6768	3574.2124	3629.3978
N=C(NCC=O)NC=O	N=C(NCC=O)NC=O	
InChI=1S/C4H7N3O2/c5-4(7-3-9)6-1-2-8/h2-3H,1H2,(H3,5,6,7,9)	InChI=1S/C4H7N3O2/c5-4(7-3-9)6-1-2-8/h2-3H,1H2,(H3,5,6,7,9)
