23
gdb 109303	2.17241	1.35788	1.03787	1.4403	87.54	-0.223	0.0367	0.2597	1288.711	0.204728	-388.307555	-388.29748	-388.296536	-388.342131	38.135	
C	-0.0517419651	 1.5557733417	-0.0229428946	-0.437304
C	-0.000192749	 0.01965619	 0.0262794821	 0.210081
C	-1.4392155065	-0.5408858616	 0.0771887053	-0.420847
C	 0.7790467239	-0.567341388	-1.1884810853	-0.241152
C	 1.5586796301	-1.7891419003	-0.6485107283	-0.264146
C	 1.6420950291	-1.5009200902	 0.829688491	-0.169224
C	 0.8182094095	-0.5212639172	 1.2008277294	 0.300659
C	 0.6312936745	-0.0094654231	 2.594684578	-0.187043
O	 1.3967637201	-0.7871897614	 3.4998114544	-0.41493
H	 0.9548467531	 1.9866722643	-0.0055177714	 0.112304
H	-0.5460564088	 1.8947593922	-0.9403619404	 0.110883
H	-0.6132283229	 1.9716857168	 0.8213533063	 0.107166
H	-2.0227571354	-0.1833042409	-0.7788017881	 0.108098
H	-1.4369781647	-1.6351159279	 0.0544035298	 0.116859
H	-1.9630905638	-0.2274484908	 0.986645921	 0.107657
H	 0.115731337	-0.8123973115	-2.0236306768	 0.088572
H	 1.4913214457	 0.1819785547	-1.5504958487	 0.094392
H	 1.0281530567	-2.7341205957	-0.835100763	 0.101774
H	 2.5420996277	-1.8974907282	-1.1202950518	 0.098392
H	 2.2728856496	-2.0558432908	 1.5127509402	 0.103225
H	 0.92817211	 1.0529548272	 2.6382211734	 0.095413
H	-0.4412999361	-0.0356513686	 2.8577999415	 0.091867
H	 1.3162376955	-0.3917560607	 4.3721278459	 0.287303
76.1301	97.7691	184.3689	201.8082	239.2846	246.8389	260.5241	270.1462	310.795	334.7122	362.6661	489.8276	565.8594	571.5144	681.4116	731.6833	809.4321	851.7862	900.0606	928.2363	938.1321	964.3934	993.3744	1022.3171	1033.2855	1050.0053	1063.5813	1123.4906	1133.1887	1208.8164	1218.345	1227.6269	1247.4504	1256.6058	1260.1303	1314.4938	1322.0676	1353.2055	1395.0207	1417.8608	1464.6473	1480.4754	1484.1764	1491.2037	1499.8931	1503.03	1507.6379	1510.1029	1722.7536	2940.378	2953.9605	3000.9535	3020.6542	3025.7725	3037.2161	3051.957	3083.1891	3087.1622	3091.319	3096.0133	3102.3361	3214.8969	3837.144
CC1(C)CCC=C1CO	CC1(C)CCC=C1CO	
InChI=1S/C8H14O/c1-8(2)5-3-4-7(8)6-9/h4,9H,3,5-6H2,1-2H3	InChI=1S/C8H14O/c1-8(2)5-3-4-7(8)6-9/h4,9H,3,5-6H2,1-2H3
