13
gdb 19103	5.27701	2.25779	2.16639	3.8886	59.22	-0.2425	-0.0149	0.2276	648.4417	0.097219	-361.379276	-361.374131	-361.373187	-361.408392	20.977	
O	 0.012155282	-0.0086511142	 0.2024235965	-0.299651
C	-0.0539453263	 1.1694198356	 0.0803296138	 0.439849
C	-1.1250386483	 2.2544009151	-0.0632396564	-0.215098
C	-0.7747556093	 3.2349655226	 1.0829457362	-0.080108
C	 0.0414452005	 4.1658014737	 0.2086171859	-0.114465
C	 0.7717669385	 3.1352892254	 1.0109090796	-0.038734
N	 1.016997033	 2.1892421793	-0.1244469291	-0.214452
C	-0.0325033866	 3.0526440581	-0.8658303608	-0.002961
H	-2.1575655461	 2.0806091139	-0.353646196	 0.096155
H	-1.3187445077	 3.4311919552	 1.9954113766	 0.10851
H	 0.1247070986	 5.2417511644	 0.1679685036	 0.108328
H	 1.4345689738	 3.215765416	 1.8608615578	 0.111357
H	 0.0361357978	 3.1205647449	-1.9476714179	 0.101271
148.8934	392.4549	600.4954	616.8495	724.5907	738.8325	769.5343	788.3561	827.9276	840.3145	841.9975	897.6113	915.2125	942.582	971.8109	1011.7403	1021.6355	1036.2459	1054.5383	1069.6957	1136.4967	1167.7412	1181.799	1199.377	1245.2919	1258.3077	1351.2743	1930.8912	3156.7233	3164.2785	3215.1459	3220.933	3234.6581
O=C1C2C3C4C3N1C24	O=C1[C@H]2[C@@H]3[C@H]4[C@@H]3N1[C@@H]24	
InChI=1S/C6H5NO/c8-6-3-1-2-4(1)7(6)5(2)3/h1-5H	InChI=1S/C6H5NO/c8-6-3-1-2-4(1)7(6)5(2)3/h1-5H/t1-,2-,3-,4+,5+/m0/s1
