15
gdb 35637	3.34047	1.46415	1.14102	2.7229	69.65	-0.2596	-0.0068	0.2528	1025.511	0.114413	-416.807616	-416.80035	-416.799406	-416.839851	27.253	
N	 0.0846662728	-1.1505053743	 0.0586925963	-0.310006
C	 0.0354439551	 0.0018138449	 0.0065059306	 0.288183
C	 0.0134155025	 1.4698498382	-0.104586703	-0.037482
O	-0.8622592228	 1.9517188712	 0.9270384217	-0.242372
C	-0.6613721701	 3.219328527	 1.3929083767	 0.121581
N	 0.3681956167	 3.9427733765	 1.3016001309	-0.244545
C	 1.5185251935	 3.3963161527	 0.6509858648	-0.002359
C	 2.1620602369	 2.1558057194	 1.2394155742	-0.29399
C	 1.4084584239	 2.0676680276	-0.0573990086	-0.064261
H	-0.4424898242	 1.7235633826	-1.0713333173	 0.143103
H	-1.55200079	 3.5584409353	 1.915465408	 0.140957
H	 2.1749947764	 4.1511566968	 0.2335891423	 0.110795
H	 3.2416539641	 2.0681200367	 1.2017666185	 0.130626
H	 1.7034090085	 1.7446899732	 2.1322887321	 0.14319
H	 1.9723402567	 1.9133804923	-0.9714370971	 0.11658
60.2808	143.2208	213.6823	292.4398	343.1996	444.9933	512.0947	569.5879	587.2193	655.348	776.9471	814.3396	851.2337	858.6059	933.1621	936.9341	996.9556	1010.5769	1051.7867	1057.6786	1092.0257	1125.1514	1151.8148	1173.8571	1218.3341	1329.7988	1351.4941	1368.1344	1399.384	1410.5727	1483.0489	1728.2422	2368.6136	3017.8937	3140.3644	3165.1741	3175.4039	3180.9026	3231.2072
N#CC1OC=NC2CC12	N#C[C@H]1OC=N[C@H]2C[C@@H]12	
InChI=1S/C6H6N2O/c7-2-6-4-1-5(4)8-3-9-6/h3-6H,1H2	InChI=1S/C6H6N2O/c7-2-6-4-1-5(4)8-3-9-6/h3-6H,1H2/t4-,5+,6-/m1/s1
