17
gdb 103581	2.80176	1.30092	1.13152	3.8761	70.83	-0.2737	-0.0498	0.2239	1124.6351	0.135349	-459.014109	-459.005687	-459.004743	-459.047062	31.836	
C	-0.0519821709	 1.575168526	 0.0165255621	-0.418326
C	-0.0269398541	 0.0468185175	 0.0735212285	 0.265511
C	-1.4492424648	-0.5538412818	 0.0196181622	-0.073022
O	-2.133243785	-0.1689103678	-1.1499471265	-0.41372
O	 0.6629993883	-0.4529461603	-1.0953196324	-0.267325
C	 1.7372798319	-1.2315850008	-0.7270901339	 0.407081
O	 2.447138534	-1.7705853807	-1.5266273792	-0.341782
C	 1.7877409135	-1.2338800739	 0.7555543402	-0.237842
C	 0.7793394136	-0.4991997197	 1.2200054003	-0.104021
H	 0.9616366144	 1.9700678414	-0.0822472746	 0.131445
H	-0.6533037928	 1.8984666359	-0.8351341737	 0.148769
H	-0.4997881952	 1.9793640101	 0.9296804735	 0.1212
H	-1.3677378696	-1.6473843144	 0.105943835	 0.100293
H	-2.0364514738	-0.1869389244	 0.8678802455	 0.113414
H	-1.6004006941	-0.4735660029	-1.8945228771	 0.298508
H	 2.5513417739	-1.7674170592	 1.3020751692	 0.138998
H	 0.5299469506	-0.2938788549	 2.2535893409	 0.130819
96.8018	134.5686	182.9884	232.5447	261.1292	315.4514	357.7099	421.6075	460.9169	514.5961	533.5576	636.9234	722.4668	737.9472	836.5946	842.0908	894.949	926.0635	961.875	973.2704	978.717	1073.1402	1089.9121	1116.3897	1161.2048	1195.0226	1244.0889	1266.319	1353.5447	1386.2467	1405.7995	1426.766	1481.9401	1493.9075	1497.4468	1660.2646	1872.6169	2997.422	3049.8518	3081.6084	3124.5458	3147.0106	3214.8016	3255.6451	3793.056
CC1(CO)OC(=O)C=C1	C[C@@]1(CO)OC(=O)C=C1	
InChI=1S/C6H8O3/c1-6(4-7)3-2-5(8)9-6/h2-3,7H,4H2,1H3	InChI=1S/C6H8O3/c1-6(4-7)3-2-5(8)9-6/h2-3,7H,4H2,1H3/t6-/m1/s1
