22
gdb 83420	2.85149	1.34451	1.12767	1.0949	86.71	-0.2083	0.0883	0.2966	1199.9211	0.194417	-367.151764	-367.143028	-367.142084	-367.18492	34.178	
C	-0.0818802085	 1.5155477641	 0.0380910952	-0.423756
C	 0.1386660869	 0.0162915747	 0.0426346272	-0.0366
C	 1.4470299388	-0.6874273454	-0.2748618605	-0.146498
C	 2.636188185	 0.0608258473	 0.335499151	-0.223979
C	 1.9747007195	-0.0357359236	 1.7479301624	-0.287993
C	 0.7869135893	-0.7790857564	 1.1310859416	 0.363843
N	 0.1081295561	-1.8049067267	 1.8530734157	-0.149082
C	-0.4394986602	-2.9309210915	 1.1084209054	-0.229025
C	 0.767761804	-3.1054648384	 1.9626531138	-0.22748
H	 0.7631390431	 2.0643953099	 0.4618861054	 0.119164
H	-0.2336194985	 1.8831865915	-0.9828944647	 0.114012
H	-0.9702872301	 1.7789444021	 0.6224743018	 0.119217
H	-0.701364019	-0.5322255193	-0.3827504776	 0.080702
H	 1.5125345144	-1.4100072829	-1.0810074834	 0.077101
H	 3.5676564044	-0.5068064058	 0.2780223708	 0.098871
H	 2.8265432655	 1.0684566819	-0.0487395199	 0.095151
H	 2.5457874647	-0.676420103	 2.4240231351	 0.103422
H	 1.7474306016	 0.8999180878	 2.2683001563	 0.096182
H	-1.4110103068	-3.2876268352	 1.4380832642	 0.116544
H	-0.2831995213	-2.9602984742	 0.0315989354	 0.113252
H	 1.7167879712	-3.2369504499	 1.4464400942	 0.11157
H	 0.6950363896	-3.5915379869	 2.9309965605	 0.115383
92.6886	148.8829	162.6423	199.0861	230.7885	260.7382	312.4072	444.5054	500.9168	525.5738	580.9304	714.5298	753.2368	795.1276	823.069	855.6762	897.6474	914.0041	926.5823	952.2832	980.8184	987.4174	1028.3468	1047.1482	1068.8258	1105.2958	1117.0883	1123.7133	1132.3035	1153.6497	1172.2335	1183.3291	1211.3058	1219.5838	1238.4465	1247.4269	1293.992	1324.5768	1353.6403	1411.6083	1462.7188	1478.1408	1486.2033	1498.728	1504.4605	1512.6722	1514.2177	3031.9565	3043.2124	3053.6878	3089.5487	3092.5482	3097.3065	3101.6793	3104.2165	3112.1468	3121.3494	3166.2965	3180.2714	3195.6275
CC1C2CCC12N1CC1	C[C@H]1[C@H]2CC[C@@]12N1CC1	
InChI=1S/C8H13N/c1-6-7-2-3-8(6,7)9-4-5-9/h6-7H,2-5H2,1H3	InChI=1S/C8H13N/c1-6-7-2-3-8(6,7)9-4-5-9/h6-7H,2-5H2,1H3/t6-,7+,8+/m0/s1
