19
gdb 62624	2.33614	1.85082	1.61355	1.7856	73.91	-0.2467	0.0703	0.317	951.9914	0.158586	-422.978794	-422.970794	-422.96985	-423.010448	33.092	
C	 0.0096129692	 1.6187098011	 0.0198549937	-0.449325
C	 0.1033133139	 0.105334253	 0.0455220494	 0.360805
O	-1.2042298208	-0.3730682737	 0.3849537788	-0.500111
C	 0.7399227396	-0.6798223468	-1.0960652257	-0.134617
C	 2.2353658051	-0.8201790477	-0.7769715682	-0.070998
C	 2.5217933234	-0.1201826083	 0.558023813	-0.294076
C	 1.1299808837	-0.6147893859	 0.9793438984	 0.368272
O	 0.805581558	-0.7483529082	 2.3054323153	-0.479907
C	 1.2381800464	-1.7613082668	-0.1575501195	-0.212052
H	 0.9583747382	 2.0713113818	-0.2743196478	 0.12215
H	-0.7592515105	 1.9323007043	-0.6922142488	 0.123493
H	-0.2694455791	 2.0001941276	 1.0072935524	 0.12555
H	-1.2469214537	-1.2989104554	 0.1162499567	 0.282491
H	 0.3653809999	-0.790580914	-2.1067749696	 0.087557
H	 2.9410399423	-1.0452644712	-1.5655113295	 0.092212
H	 3.3094924086	-0.6459343334	 1.1047162567	 0.10889
H	 2.7118972666	 0.9581149955	 0.5840846001	 0.092856
H	-0.1635285106	-0.7501963148	 2.3364531313	 0.283291
H	 1.16573949	-2.8391822371	-0.1723249167	 0.093519
173.8689	186.5173	250.3782	267.5317	329.8608	367.0544	394.7582	449.8808	487.693	547.2004	576.9475	637.8268	681.7099	738.7805	792.7084	807.2231	812.9569	894.6931	918.8906	946.3896	965.9069	993.9293	1008.3143	1025.1551	1045.2927	1088.6982	1101.8783	1139.9692	1145.1844	1181.4862	1187.3954	1242.9742	1274.1453	1337.8083	1349.4325	1385.1519	1414.4051	1424.9466	1483.9387	1490.5946	1515.1165	3042.1718	3047.4102	3101.2602	3111.9692	3137.6479	3184.3965	3202.855	3223.4422	3710.062	3785.4537
CC1(O)C2C3CC1(O)C23	C[C@@]1(O)[C@H]2[C@H]3C[C@]1(O)[C@@H]23	
InChI=1S/C7H10O2/c1-6(8)4-3-2-7(6,9)5(3)4/h3-5,8-9H,2H2,1H3	InChI=1S/C7H10O2/c1-6(8)4-3-2-7(6,9)5(3)4/h3-5,8-9H,2H2,1H3/t3-,4+,5-,6-,7+/m1/s1
