21
gdb 86437	2.18855	1.47092	0.93928	1.0552	87.88	-0.216	-0.0249	0.1911	1284.0524	0.183389	-387.101881	-387.092955	-387.092011	-387.135493	34.696	
C	 0.2250133463	 1.5891680824	 0.0360742586	-0.39778
C	-0.0293440563	 0.070002813	-0.0547699672	-0.041706
C	 0.5510717011	-0.4761825713	-1.3655766259	-0.195299
C	 0.3591507395	-1.984879402	-1.5724851253	 0.069201
O	 0.4318909168	-2.2149834112	-2.9782141111	-0.441396
C	 1.3843677117	-2.8061035052	-0.8316306897	-0.124723
C	 1.720244291	-2.6556990138	 0.4548419576	-0.067112
C	 1.1757729183	-1.6988355523	 1.4154031883	-0.09918
C	 0.437865513	-0.5951289723	 1.2161675509	-0.048042
H	 1.2982891614	 1.8018616101	 0.0847913954	 0.121989
H	-0.1842040576	 2.1053622247	-0.837897362	 0.114754
H	-0.2419189814	 2.0154419044	 0.9295745439	 0.111789
H	-1.1231735789	-0.0598334307	-0.0924688627	 0.087404
H	 0.0577814016	 0.030167824	-2.2016273604	 0.10739
H	 1.6185514892	-0.2396555082	-1.4332267515	 0.105869
H	-0.6469454086	-2.2544350161	-1.2029967129	 0.077096
H	 0.3020793935	-3.1562853366	-3.1315416132	 0.280022
H	 1.8882312863	-3.5671917116	-1.423825655	 0.084045
H	 2.4644581774	-3.3360309309	 0.8626729095	 0.087242
H	 1.4084191887	-1.9353305401	 2.4521818151	 0.083615
H	 0.1281109472	-0.0594636261	 2.1133679674	 0.084822
51.2572	148.5872	220.8596	255.54	266.6741	290.1326	338.1364	372.1055	393.3583	427.3723	486.4405	584.9117	634.4466	703.3867	785.1916	818.8185	850.3151	901.9948	928.6306	968.5599	990.7444	1007.191	1013.3653	1028.5874	1072.7647	1093.3571	1101.2148	1153.2246	1210.3008	1242.0485	1265.9997	1289.3445	1311.6388	1340.1461	1344.0626	1385.3721	1404.8035	1408.9821	1429.0185	1456.1302	1489.8145	1497.0538	1501.2001	1680.5319	1711.6563	2927.3921	2968.6582	3031.128	3043.5162	3087.6402	3102.2263	3106.0607	3117.7008	3135.0642	3145.3353	3162.6053	3815.8462
CC1CC(O)C=CC=C1	C[C@H]1C[C@@H](O)C=CC=C1	
InChI=1S/C8H12O/c1-7-4-2-3-5-8(9)6-7/h2-5,7-9H,6H2,1H3	InChI=1S/C8H12O/c1-7-4-2-3-5-8(9)6-7/h2-5,7-9H,6H2,1H3/t7-,8+/m1/s1
