21
gdb 122752	6.64098	0.3792	0.36913	1.9247	85.94	-0.2418	0.0369	0.2786	2866.4004	0.179612	-424.185047	-424.173418	-424.172474	-424.225057	38.918	
O	-0.0036662177	 1.4062746619	-0.207821689	-0.421405
C	 0.0441252923	-0.0119865012	-0.253389102	-0.080617
C	-1.3556795111	-0.538046284	 0.0347546684	-0.161749
C	-1.4316774069	-2.0662657939	 0.0174072999	-0.176344
C	-2.8544353456	-2.5857063565	 0.3067127843	-0.360111
C	-2.952574253	-4.0404468464	 0.2938568239	 0.017225
C	-3.0056843338	-5.2429720575	 0.2708143262	 0.152819
C	-3.0815848691	-6.6977300584	 0.2703209854	-0.216306
O	-3.1701014225	-7.175235659	-1.0682895664	-0.410053
H	 0.8772299537	 1.7430221287	-0.3950523645	 0.285366
H	 0.3786505575	-0.3685892747	-1.2415245052	 0.085635
H	 0.7518241252	-0.411440811	 0.4918570922	 0.084272
H	-1.6761297148	-0.1529451336	 1.0109544977	 0.10502
H	-2.0441200541	-0.1154621988	-0.7077087209	 0.106247
H	-1.1073816594	-2.4507626606	-0.9568840613	 0.110903
H	-0.7433833252	-2.4877962807	 0.7598383709	 0.106009
H	-3.1889082134	-2.206272154	 1.2817074113	 0.127785
H	-3.5513763548	-2.1669809044	-0.4315442005	 0.131097
H	-2.1923739039	-7.1065055683	 0.7782310355	 0.112534
H	-3.9566198539	-7.0134149333	 0.8622033545	 0.11386
H	-3.2234757894	-8.1354934043	-1.0254429702	 0.287814
10.9323	47.2349	63.1284	99.0212	123.7824	152.5973	172.5806	229.8797	262.8475	274.7793	325.7485	357.2517	424.1053	508.0441	575.4617	740.5091	776.1483	796.0775	923.7791	991.1847	1028.4343	1038.8125	1045.8811	1056.1359	1087.0928	1125.9143	1153.6498	1204.7227	1224.8443	1246.7297	1257.1504	1279.5932	1288.7688	1316.5886	1323.7475	1349.577	1392.4878	1459.8733	1464.1026	1470.5686	1489.8574	1504.0796	1504.4307	1529.316	2372.2773	2957.5267	2958.6526	2975.4381	2982.6692	3011.5216	3023.9442	3034.9245	3038.0417	3057.9816	3083.059	3816.3155	3830.6163
OCCCCC#CCO	OCCCCC#CCO	
InChI=1S/C7H12O2/c8-6-4-2-1-3-5-7-9/h8-9H,1-2,4,6-7H2	InChI=1S/C7H12O2/c8-6-4-2-1-3-5-7-9/h8-9H,1-2,4,6-7H2
