17
gdb 6197	3.71002	1.68131	1.5636	2.3576	65.66	-0.2649	0.0249	0.2899	900.7322	0.141126	-401.030547	-401.022569	-401.021625	-401.062703	29.857	
C	-0.1214727992	 1.6346773284	 0.26868699	-0.414571
C	 0.0733457812	 0.1495771772	 0.0204771334	 0.431734
C	-1.2347266035	-0.6104748398	-0.1936739107	-0.411069
O	 0.9540196402	-0.0189290555	-1.0801262068	-0.281489
C	 1.8029049587	-1.1160118553	-0.794692323	-0.179354
C	 1.7697581209	-1.2276316605	 0.714282438	 0.373151
N	 2.5365167709	-1.9331654319	 1.4230585097	-0.539964
O	 0.7631481122	-0.4259818287	 1.1547489809	-0.257275
H	 0.8462629005	 2.1072149029	 0.4480524424	 0.133063
H	-0.5842002455	 2.0965816476	-0.6070841503	 0.132699
H	-0.7672550618	 1.7958994382	 1.1352483933	 0.129272
H	-1.7641370465	-0.2017603996	-1.0581767589	 0.130762
H	-1.0371119111	-1.670518351	-0.3748681943	 0.125407
H	-1.8751782997	-0.52464434	 0.6878998743	 0.130244
H	 1.4486677763	-2.0486363592	-1.2571583348	 0.126222
H	 2.8085918889	-0.9063623002	-1.1652928298	 0.145356
H	 2.2994150776	-1.8490964026	 2.4124836166	 0.225811
88.6161	135.8712	194.6942	240.2313	311.0757	334.2108	362.551	475.52	497.8554	532.2744	623.5085	674.3403	814.0327	857.3847	889.4588	910.0839	925.7373	976.7609	1002.6968	1034.9885	1072.0617	1120.5184	1166.1088	1210.1455	1233.0023	1275.7147	1339.8271	1355.0059	1403.1306	1416.1213	1472.598	1475.9925	1494.5117	1495.8863	1508.1146	1794.2361	3005.0613	3048.4513	3056.8201	3105.4652	3125.9197	3129.0045	3137.0924	3142.7981	3481.5087
CC1(C)OCC(=N)O1	CC1(C)OC[C]([NH])O1	
InChI=1S/C5H9NO2/c1-5(2)7-3-4(6)8-5/h6H,3H2,1-2H3	InChI=1S/C5H9NO2/c1-5(2)7-3-4(6)8-5/h6H,3H2,1-2H3
