14
gdb 133012	2.76558	1.4472	0.95569	1.2651	72.04	-0.229	-0.0667	0.1623	1138.8178	0.099831	-477.982934	-477.975048	-477.974104	-478.016272	28.087	
C	-0.013115151	 1.4461741261	-0.1353028736	-0.328557
N	 0.0044580456	-0.0052417907	-0.1687169442	-0.296815
C	-1.0352428013	-0.6499608868	 0.1329342424	 0.375358
O	-2.2258443367	 0.0168520031	 0.5055607082	-0.241776
C	-3.2991996883	-0.7101724869	 0.815724085	 0.349238
F	-4.3109501796	 0.0609691057	 1.1362941145	-0.031927
C	-3.331799373	-2.0513624564	 0.7995629614	-0.243661
N	-2.1970204094	-2.7657022413	 0.4429134545	-0.215715
C	-1.1362391886	-2.1066911849	 0.1352314975	-0.037346
H	 0.9696497951	 1.8224572683	-0.4252158665	 0.129634
H	-0.7631786565	 1.8595481405	-0.8226124079	 0.130793
H	-0.2523149708	 1.8268109718	 0.8665799747	 0.130799
H	-4.2275454339	-2.5964531011	 1.0595763956	 0.135548
H	-0.2334071716	-2.6398396774	-0.1478600115	 0.144428
52.5861	113.0446	180.6046	194.8067	249.8727	392.74	465.7037	494.3796	524.7012	604.5628	663.2741	724.3917	730.8487	828.768	890.6505	935.4124	1019.7434	1043.6251	1106.1747	1107.3775	1155.1386	1206.9766	1295.9231	1365.0331	1399.6628	1437.8528	1483.5192	1498.6615	1601.9413	1694.8202	1757.893	3005.6288	3056.5519	3119.8162	3181.9349	3235.9546
CN=C1OC(F)=CN=C1	C[N]C1=C[N]C=C(O1)F	
InChI=1S/C5H5FN2O/c1-7-5-3-8-2-4(6)9-5/h2-3H,1H3	InChI=1S/C5H5FN2O/c1-7-5-3-8-2-4(6)9-5/h2-3H,1H3
