21
gdb 43625	5.1835	0.80445	0.72817	2.9582	83.73	-0.239	-0.0163	0.2227	1559.4133	0.18216	-387.091142	-387.082401	-387.081457	-387.125599	33.047	
O	 0.0041098549	 0.0130554096	-0.3341563407	-0.289775
C	-0.0114945789	 1.1785349095	-0.0643416102	 0.404065
C	-1.1312736321	 2.1869091336	 0.2368280186	-0.364873
C	-0.0346524925	 3.1635134741	 0.7788916701	 0.00556
C	 1.0817991584	 2.2210794244	 0.2171831857	-0.364891
C	-0.0612103897	 4.5906840197	 0.2764105878	 0.049174
C	-1.1556374762	 5.564915739	 0.8039610548	-0.233218
C	-0.0891498768	 6.6928823679	 0.8196153186	-0.209344
C	 1.0114655834	 5.5986297728	 0.7849534938	-0.233234
H	-1.6072962559	 2.5453498332	-0.6835926886	 0.127063
H	-1.9137292604	 1.8484119131	 0.9206160176	 0.12718
H	-0.0248230882	 3.1574060646	 1.8741565005	 0.073687
H	 1.8862491311	 1.9070309913	 0.8869763321	 0.127183
H	 1.530248996	 2.5937734183	-0.7113815081	 0.127061
H	-0.0708014153	 4.5882897886	-0.8218236788	 0.063717
H	-2.0502448761	 5.7096144311	 0.1933581148	 0.096431
H	-1.4684846008	 5.2936618891	 1.8179668539	 0.0982
H	-0.106359983	 7.2783844311	-0.1040804058	 0.103293
H	-0.0924615276	 7.3829798916	 1.6661600883	 0.098091
H	 1.3503457017	 5.3375180554	 1.7932393759	 0.0982
H	 1.890287898	 5.7709212621	 0.1587873697	 0.096431
43.7409	71.2391	132.128	148.5012	293.8783	333.9497	381.8591	417.0017	497.3787	603.9246	662.0109	683.8475	736.9518	783.8356	841.5262	897.7764	922.4954	934.1838	935.6336	953.6285	987.6809	996.155	1011.5857	1055.595	1108.9289	1114.1003	1150.4052	1190.7173	1200.7088	1214.2084	1236.2871	1252.8418	1256.3952	1261.0568	1266.7131	1278.4837	1291.139	1322.5229	1405.1879	1425.9437	1446.8413	1478.2577	1486.4881	1510.541	1893.	3012.1738	3043.0918	3044.1375	3045.003	3049.2157	3052.1166	3059.7072	3096.792	3100.9362	3109.9509	3110.4041	3118.3338
O=C1CC(C1)C1CCC1	O=C1CC(C1)C1CCC1	
InChI=1S/C8H12O/c9-8-4-7(5-8)6-2-1-3-6/h6-7H,1-5H2	InChI=1S/C8H12O/c9-8-4-7(5-8)6-2-1-3-6/h6-7H,1-5H2
