19
gdb 116312	2.57453	1.17937	0.88046	1.4518	67.23	-0.2584	0.0774	0.3358	1306.2808	0.159381	-497.283069	-497.273904	-497.272959	-497.317627	33.149	
O	-0.1644383467	 1.5763669692	-0.0890029323	-0.421215
C	 0.0520181164	 0.1867989728	 0.0518632221	-0.086123
C	-1.2656021685	-0.5728568403	 0.0303309968	 0.048834
O	-1.8664759554	-0.3795209865	-1.2548432112	-0.262371
C	-2.8571657307	-1.3677055812	-1.3334182058	 0.021984
O	-2.3572050297	-2.5160757716	-0.6671994129	-0.290885
C	-1.2432924441	-2.1091216636	 0.1512074617	 0.078409
C	 0.0001053085	-2.8190956847	-0.384831896	-0.06689
O	-0.2026875951	-4.2163573242	-0.4082925486	-0.426158
H	-0.6705588658	 1.6953094629	-0.9007432769	 0.294645
H	 0.7168374136	-0.1989494496	-0.7341115066	 0.102784
H	 0.5468080422	 0.0405218507	 1.0175109289	 0.118094
H	-1.9246453952	-0.1501914115	 0.8049381535	 0.08655
H	-3.7868430244	-1.0349618086	-0.8401022049	 0.093914
H	-3.0497186343	-1.5971654743	-2.3861701043	 0.120496
H	-1.4344713474	-2.4387420661	 1.1784938335	 0.094397
H	 0.239047315	-2.428936321	-1.3864463021	 0.094107
H	 0.8598086126	-2.6323356302	 0.2681331335	 0.108778
H	-1.0423397211	-4.3510115922	-0.8648843984	 0.290652
64.5432	104.9506	138.8934	151.4757	195.8752	240.5388	323.2601	395.9666	410.8577	466.4457	492.9516	510.0739	739.8934	764.9725	823.8501	858.2934	950.5557	1014.6039	1035.1081	1063.6929	1084.5089	1093.5317	1117.1694	1124.1171	1132.8323	1172.7027	1215.8905	1222.2891	1255.9069	1297.0965	1320.5325	1352.03	1363.8615	1396.5522	1408.7111	1428.6721	1440.6206	1445.8084	1495.4171	1503.2364	1545.8065	2953.0237	2979.8998	2984.1977	3009.0036	3049.4174	3071.7205	3076.1311	3083.0538	3784.7359	3805.0943	64.5431	104.9508	138.8934	151.4756	195.8752	240.5388	323.2601	395.9666	410.8579	466.4459	492.9516	510.0739	739.8934	764.9725	823.8501	858.2934	950.5558	1014.6039	1035.1081	1063.6929	1084.509	1093.5317	1117.1694	1124.1171	1132.8323	1172.7027	1215.8905	1222.2892	1255.9069	1297.0967	1320.5328	1352.0301	1363.8617	1396.5523	1408.711	1428.6721	1440.6205	1445.8085	1495.4169	1503.2365	1545.8064	2953.0237	2979.8998	2984.1977	3009.0036	3049.4174	3071.7205	3076.1311	3083.0538	3784.736	3805.0944
OCC1OCOC1CO	OC[C@H]1OCO[C@H]1CO	
InChI=1S/C5H10O4/c6-1-4-5(2-7)9-3-8-4/h4-7H,1-3H2	InChI=1S/C5H10O4/c6-1-4-5(2-7)9-3-8-4/h4-7H,1-3H2/t4-,5+
