17
gdb 12508	3.53773	1.9368	1.30658	1.4408	72.13	-0.2353	0.0152	0.2504	940.918	0.142421	-363.86946	-363.861654	-363.86071	-363.902044	28.488	
C	-0.380741139	 1.501455834	 0.0874121603	-0.434467
C	 0.0131116152	 0.0505915552	 0.0035002033	 0.377403
N	-0.0426608705	-0.5680175297	-1.0945366298	-0.291934
C	 0.1497334008	-1.980084607	-1.3276019533	-0.206041
C	 0.8558763196	-2.8962731807	-0.3670638165	-0.036803
C	 1.4211352536	-2.6067214022	 0.7989307038	-0.089472
C	 1.4734841958	-1.255684236	 1.4462827039	-0.138213
O	 0.3437299443	-0.4048594859	 1.2546582963	-0.256802
H	 0.4728740482	 2.1095607231	 0.406179635	 0.129187
H	-0.7433530745	 1.8501925959	-0.8784142325	 0.137704
H	-1.1609611827	 1.6288902383	 0.8451074755	 0.137386
H	-0.8515743572	-2.3977388646	-1.5233525846	 0.128767
H	 0.6605847476	-2.0780661398	-2.2982028483	 0.12269
H	 0.9086247472	-3.9244865396	-0.7239277412	 0.090413
H	 1.9286978749	-3.3946891159	 1.3507591049	 0.092329
H	 1.5453595575	-1.3680939707	 2.5324150304	 0.12099
H	 2.3773068494	-0.7166745043	 1.1224152528	 0.116864
47.2805	141.4345	167.4747	237.3694	297.3512	360.2011	393.2491	440.8487	601.8141	652.3362	715.1049	754.6137	821.589	894.4173	914.8031	969.2496	1005.0897	1016.3071	1040.6931	1066.4903	1102.5024	1144.1576	1215.3677	1249.8568	1286.3233	1293.6447	1384.6417	1401.9574	1412.6233	1424.075	1453.4727	1474.0447	1478.9981	1489.5159	1755.7666	1786.4024	2979.9801	2986.6021	2992.3848	3042.3414	3075.9265	3097.8207	3126.4285	3157.858	3165.2516
CC1=NCC=CCO1	CC1=NCC=CCO1	
InChI=1S/C6H9NO/c1-6-7-4-2-3-5-8-6/h2-3H,4-5H2,1H3	InChI=1S/C6H9NO/c1-6-7-4-2-3-5-8-6/h2-3H,4-5H2,1H3
