18
gdb 16504	3.58543	2.28018	1.93496	1.1941	70.5	-0.2426	0.084	0.3266	769.9832	0.156123	-347.758812	-347.752525	-347.751581	-347.788621	26.934	
O	-0.0958603724	 1.3282424989	 0.1151885954	-0.472673
C	 0.0267466133	-0.0577648078	 0.0082525078	 0.421339
C	-0.3745526325	-0.7636137945	-1.2638216065	-0.379235
C	-1.1978663398	-0.9336878206	 0.0047077102	-0.079438
C	-0.794769202	-1.9680890725	 1.0769421803	-0.033873
C	 0.6897713865	-2.2902119645	 0.7528829142	-0.235197
C	 0.8807295284	-0.7835911736	 1.0719420039	-0.09209
C	-0.2129690552	-1.0069764126	 2.1752946463	-0.213972
H	 0.6727524181	 1.7267931112	-0.3070944756	 0.280657
H	-0.8327912172	-0.1097805837	-1.9995589504	 0.110537
H	 0.2007546172	-1.5739596274	-1.6959854027	 0.108719
H	-2.1905252998	-0.5003024634	 0.038593649	 0.094553
H	-1.5107743632	-2.7558536909	 1.3126178494	 0.059369
H	 1.1394739902	-2.9203278306	 1.5233728285	 0.096672
H	 0.961179601	-2.6775991	-0.2298576649	 0.091579
H	 1.8606010978	-0.3579201128	 1.2941170408	 0.053131
H	-0.8141800956	-0.1409324827	 2.4625990463	 0.102745
H	 0.1606339952	-1.5317134524	 3.0590437979	 0.087176
219.5993	300.0196	328.2939	396.5226	469.8425	512.1698	539.2488	596.8587	703.5786	780.7818	836.2661	839.4144	861.2077	891.82	906.998	940.3278	974.3272	991.3345	1018.173	1023.9942	1047.7631	1060.64	1075.5693	1091.0038	1104.7015	1127.0486	1211.8658	1223.9409	1231.8196	1242.1038	1252.4778	1285.472	1308.8941	1324.9173	1399.1233	1478.5295	1496.4088	1531.8457	3054.9568	3072.536	3101.3348	3109.6569	3118.8742	3122.4905	3133.429	3183.3228	3213.579	3794.9766
OC12CC1C1CC2C1	O[C@]12C[C@H]1[C@H]1C[C@@H]2C1	
InChI=1S/C7H10O/c8-7-3-6(7)4-1-5(7)2-4/h4-6,8H,1-3H2	InChI=1S/C7H10O/c8-7-3-6(7)4-1-5(7)2-4/h4-6,8H,1-3H2/t4-,5+,6-,7-/m0/s1
