14
gdb 25110	3.65941	1.35979	0.9914	1.8543	78.7	-0.2716	-0.0778	0.1938	1104.3975	0.10313	-432.884683	-432.877373	-432.876429	-432.917501	26.926	
N	 0.0400452289	 0.8496778984	-1.2544177315	-0.478338
C	 0.0197145499	 0.0919212854	-0.2388172328	 0.372976
O	 1.2400514335	-0.2656487329	 0.3294254002	-0.241853
C	 1.4951121145	-1.0525131576	 1.4054376915	 0.138267
N	 0.7873191615	-1.7007656607	 2.2248414652	-0.335943
C	-0.6115050065	-1.8175441106	 2.2800070316	 0.328118
N	-1.1528295512	-2.5292962193	 3.1969698142	-0.467699
C	-1.5269145457	-1.1646085704	 1.3366298635	-0.083789
C	-1.2559698392	-0.3730644493	 0.2931199045	-0.123557
H	 1.0006176397	 1.0888856946	-1.506049645	 0.236623
H	 2.5777255848	-1.079095738	 1.5201952482	 0.144474
H	-0.4114991625	-2.9241478902	 3.781733807	 0.231688
H	-2.5664597215	-1.3843157781	 1.5561109313	 0.136831
H	-2.0796740861	 0.0185946988	-0.2928637081	 0.142201
40.6385	88.9142	286.6149	333.4718	393.8265	399.9079	406.5094	541.1105	600.6055	703.8856	759.9318	797.3805	840.8098	857.3987	872.4215	917.4434	958.9458	990.5147	1010.9198	1041.1815	1112.4438	1176.5246	1237.0188	1322.1521	1385.7086	1421.7166	1462.1596	1651.635	1692.2286	1734.4671	1738.9304	3155.3914	3190.6672	3209.1899	3452.894	3483.063
N=C1OC=NC(=N)C=C1	[NH]C1=CC=C(N=CO1)[NH]	
InChI=1S/C5H5N3O/c6-4-1-2-5(7)9-3-8-4/h1-3,6-7H	InChI=1S/C5H5N3O/c6-4-1-2-5(7)9-3-8-4/h1-3,6-7H
