13
gdb 130378	7.02212	0.86402	0.77661	6.7425	69.28	-0.2274	-0.0366	0.1908	1369.7138	0.089554	-486.062055	-486.054134	-486.05319	-486.094963	28.322	
N	 0.1023474729	 1.3539928015	-0.0026502388	-0.480576
C	 0.1203505906	 0.017443373	 0.0984852027	 0.146967
N	 1.1782716412	-0.6672359626	-0.1782664893	-0.351534
C	 1.0601140682	-2.0194644318	-0.1808349506	 0.4851
N	 0.0250755585	-2.7397038387	-0.4612050973	-0.228829
O	 0.494748453	-4.0837779677	-0.3247720951	-0.248455
C	 1.8153745424	-4.0509703319	 0.0104623593	 0.507909
N	 2.6107671617	-4.9987792451	 0.2164205135	-0.582855
O	 2.1826635379	-2.7339124274	 0.1004865781	-0.203873
H	 0.9346717716	 1.8397291663	-0.2975412198	 0.283221
H	-0.6946876504	 1.8876847453	 0.2930678297	 0.282096
H	-0.8174300416	-0.4377215427	 0.4287683774	 0.151402
H	 2.139561974	-5.8921950582	 0.0977574504	 0.239426
80.123	134.7747	151.5628	209.8096	270.2798	362.2223	381.4102	439.3472	556.1055	640.138	706.6489	732.8284	758.0796	781.8683	801.9471	914.1814	957.0768	1003.6383	1037.7487	1046.4682	1121.0818	1269.9748	1321.3321	1351.5058	1466.5095	1622.1776	1651.8068	1723.1762	1814.4643	3102.2693	3542.7268	3607.9484	3748.5995
NC=NC1=NOC(=N)O1	NC=NC1=NO[C@H]([NH])O1	
InChI=1S/C3H4N4O2/c4-1-6-3-7-9-2(5)8-3/h1,5H,(H2,4,6,7)	InChI=1S/C3H5N4O2/c4-1-6-3-7-9-2(5)8-3/h1-2,5H,(H2,4,6,7)/t2-/m1/s1
