21
gdb 91660	2.5724	1.69548	1.35052	1.5306	82.49	-0.2318	0.0957	0.3276	1054.0013	0.183591	-387.054242	-387.046395	-387.045451	-387.086057	32.143	
C	-0.1637688666	 1.4988355081	-0.0567280772	-0.416305
C	 0.0413012997	-0.001697543	 0.0649041485	 0.160727
O	 0.9099961584	-0.4965268816	-0.9936577198	-0.300981
C	 1.9165848931	-1.2041976114	-0.2498555901	 0.02276
C	 1.0955394319	-1.9907782566	 0.8049058269	-0.24023
C	 0.8074419476	-0.5326108661	 1.2973741125	-0.175284
C	 2.2684925031	-0.2411793177	 0.8883127049	 0.448478
C	 3.4878524713	-0.2719237977	 1.7494985681	-0.362499
C	 3.138836475	 0.9670488334	 0.9389336759	-0.364647
H	 0.777405889	 2.0434028576	 0.0394267321	 0.128689
H	-0.5955896252	 1.7362869859	-1.0337453247	 0.125012
H	-0.8574867678	 1.8522545186	 0.7142660327	 0.107171
H	-0.9318061609	-0.5052799912	-0.0222261784	 0.068383
H	 2.6437512909	-1.6465702323	-0.9297298874	 0.076262
H	 0.2538761697	-2.5807420001	 0.4334801956	 0.09488
H	 1.7101174624	-2.5620872225	 1.5007780442	 0.10425
H	 0.4063006462	-0.3055698227	 2.2849958167	 0.068714
H	 3.3661420262	-0.2219638985	 2.8274075029	 0.111522
H	 4.3366774985	-0.8679920959	 1.427883011	 0.112565
H	 3.7471221572	 1.2000551042	 0.0704904401	 0.117512
H	 2.7927565001	 1.8395049894	 1.4839576056	 0.113021
163.3345	181.9435	210.09	240.4772	290.7286	319.9296	442.7827	490.7186	548.3223	633.5427	679.2501	778.1382	805.7451	826.745	844.9845	870.2548	906.4467	933.5457	949.7149	968.6873	986.3765	1019.329	1038.024	1051.2148	1063.9626	1080.5225	1097.2977	1105.9865	1122.5002	1151.4347	1183.3009	1201.9962	1220.7887	1248.2302	1259.2825	1285.9422	1329.8775	1395.0232	1406.955	1412.5986	1465.4236	1483.39	1490.9178	1497.6529	1513.8744	2997.2311	3040.5159	3069.0978	3104.4595	3117.3904	3119.9586	3123.7579	3131.6705	3138.1013	3143.9952	3194.2936	3209.5623
CC1OC2CC1C21CC1	C[C@H]1O[C@@H]2C[C@H]1C12CC1	
InChI=1S/C8H12O/c1-5-6-4-7(9-5)8(6)2-3-8/h5-7H,2-4H2,1H3	InChI=1S/C8H12O/c1-5-6-4-7(9-5)8(6)2-3-8/h5-7H,2-4H2,1H3/t5-,6-,7-/m1/s1
