17
gdb 67928	2.08295	1.48801	1.03019	3.713	75.46	-0.2515	-0.0386	0.2128	1177.7838	0.133883	-421.829899	-421.82139	-421.820445	-421.863262	31.597	
C	-0.0207925996	 1.5322975387	 0.0477291153	-0.492778
C	-0.012350565	 0.0314799837	 0.0293283849	 0.316526
C	-1.2837925861	-0.8380529985	-0.0465540961	-0.423135
C	-0.6188319691	-1.7721838277	 0.9995193794	 0.420267
O	-1.0314092908	-2.6782253391	 1.6644162651	-0.309882
C	 0.6353161491	-0.9449231013	 1.040189914	-0.240912
C	 1.2013235253	-0.7580746152	-0.380071949	-0.157803
C	 1.2292627732	-1.859817381	-1.3824181831	 0.149517
O	 2.1102543053	-1.9850187808	-2.1958653822	-0.257568
H	 0.9606863724	 1.933099087	 0.3176461579	 0.131873
H	-0.2855641388	 1.9322227606	-0.9373368915	 0.138557
H	-0.7542630635	 1.9087803408	 0.7688782724	 0.131755
H	-2.1491848314	-0.3457812575	 0.4091644796	 0.137204
H	-1.5820712177	-1.249367631	-1.0136519264	 0.127891
H	 1.2752631865	-0.7709559796	 1.8971227664	 0.120224
H	 2.1190756865	-0.1752458941	-0.3912431737	 0.118565
H	 0.3882770038	-2.584107605	-1.3325361232	 0.0897
83.1673	110.2756	175.8832	208.6027	262.6638	299.243	370.232	427.9897	457.1131	485.3532	588.4838	602.8236	657.8039	767.2505	831.8658	922.0596	952.6208	961.6316	995.2613	1028.0443	1043.5741	1080.0585	1097.3375	1125.6251	1145.7042	1202.3237	1218.4014	1272.0603	1295.7607	1400.2989	1423.2292	1461.7838	1472.2447	1483.9765	1494.8253	1817.9306	1884.7271	2904.0906	3031.3362	3059.6383	3094.3369	3109.5989	3113.8338	3152.9696	3193.7384
CC12CC(=O)C1C2C=O	C[C@]12CC(=O)[C@H]1[C@H]2C=O	
InChI=1S/C7H8O2/c1-7-2-5(9)6(7)4(7)3-8/h3-4,6H,2H2,1H3	InChI=1S/C7H8O2/c1-7-2-5(9)6(7)4(7)3-8/h3-4,6H,2H2,1H3/t4-,6-,7-/m1/s1
