18
gdb 70120	2.48966	1.53022	1.15674	3.6968	77.73	-0.2326	-0.0259	0.2067	1098.5733	0.147378	-401.94102	-401.93276	-401.931816	-401.974129	31.32	
C	-0.0385668183	 1.5060387861	 0.0491339238	-0.493399
C	 0.1005655485	 0.0062649591	 0.0242018633	 0.293394
N	-0.7702387255	-0.8350871928	 0.8775349123	-0.362911
C	 0.7035913946	-0.8034877857	 1.1227858735	-0.136381
C	 1.4105730565	-1.9439007438	 0.4780243113	-0.048221
C	 1.2617105392	-1.9020249299	-0.8482273487	-0.106713
C	 0.458068845	-0.6927684267	-1.3027757784	-0.159533
C	-0.7796728372	-1.105754695	-2.0908006047	 0.147493
O	-0.9036332819	-0.9554642111	-3.2796074225	-0.258333
H	 0.8489306779	 1.9913113625	-0.3705743221	 0.131939
H	-0.9043896244	 1.8347168383	-0.5372409582	 0.13449
H	-0.1684867427	 1.8704455314	 1.0736187094	 0.116736
H	-1.2287212638	-0.2266348745	 1.5555355414	 0.226184
H	 1.0629194582	-0.3558355461	 2.0434639023	 0.092988
H	 1.9503953025	-2.7040209834	 1.0294034237	 0.107797
H	 1.6330346061	-2.6350473108	-1.5547957305	 0.113706
H	 1.0500144776	-0.0438477869	-1.9591624709	 0.094891
H	-1.5692904122	-1.5721846209	-1.4676966651	 0.105873
57.6541	129.9509	203.3862	224.1401	275.9736	299.3373	404.723	447.6332	491.5549	560.173	593.2508	729.2789	763.4229	822.4916	847.3866	908.475	928.8285	937.4043	967.1709	976.6184	1035.6889	1054.2925	1075.7217	1090.1815	1118.3235	1125.2083	1172.1907	1242.4779	1255.5347	1279.7265	1346.7178	1367.757	1400.5696	1417.7918	1433.3753	1484.4001	1498.9673	1656.9999	1820.2914	2937.5327	3026.1948	3042.3987	3090.6983	3100.8516	3167.6321	3196.3542	3220.4169	3464.5118
CC12NC1C=CC2C=O	C[C@]12N[C@H]1C=C[C@H]2C=O	
InChI=1S/C7H9NO/c1-7-5(4-9)2-3-6(7)8-7/h2-6,8H,1H3	InChI=1S/C7H9NO/c1-7-5(4-9)2-3-6(7)8-7/h2-6,8H,1H3/t5-,6-,7+/m0/s1
