16
gdb 42414	4.45968	0.79638	0.74121	1.2744	73.75	-0.2579	-0.05	0.2079	1486.5447	0.124575	-434.049206	-434.040293	-434.039349	-434.08492	30.815	
N	-0.018766357	 1.4129195944	-0.0564354861	-0.521924
C	 0.0106332436	 0.1352031828	 0.0088141137	 0.303491
N	-1.1176583124	-0.6352774254	 0.0707978753	-0.328078
C	-2.4400293242	-0.0746232649	 0.0026594376	 0.007644
C	-3.2456580767	-0.1595230408	-1.3208529712	-0.086045
O	-4.3540171884	-0.7768913654	-0.6348192255	-0.264768
C	-3.5883873726	-0.9326746939	 0.5729408838	-0.103351
C	 1.2451786395	-0.635850491	 0.0457617493	 0.22317
N	 2.2457048486	-1.215139025	 0.0643314594	-0.316116
H	 0.9186443143	 1.8050737809	-0.0425300101	 0.244056
H	-1.0112275513	-1.6305145063	-0.0446591769	 0.263605
H	-2.3926044133	 0.9361867933	 0.4044830126	 0.140706
H	-3.5249998511	 0.7871749488	-1.7941088526	 0.121453
H	-2.7964405786	-0.8255666874	-2.0706194648	 0.098881
H	-3.3099281774	-1.9816997474	 0.7573145619	 0.096319
H	-4.109970413	-0.5449532227	 1.4541727836	 0.120957
23.0333	64.7031	84.7644	145.0303	232.9986	306.5678	365.5432	401.0569	409.0426	488.7729	605.7188	723.6005	766.4689	818.8082	881.2231	891.8749	904.1506	997.7174	1028.8669	1038.1181	1103.6925	1147.3836	1152.3558	1165.9786	1204.1428	1260.766	1301.4665	1309.9818	1360.73	1408.8952	1507.1589	1533.3537	1557.5058	1683.8992	2348.6043	2985.5815	3008.3762	3068.6703	3077.746	3139.107	3539.6685	3639.1247
N=C(NC1COC1)C#N	N=C(NC1COC1)C#N	
InChI=1S/C5H7N3O/c6-1-5(7)8-4-2-9-3-4/h4H,2-3H2,(H2,7,8)	InChI=1S/C5H7N3O/c6-1-5(7)8-4-2-9-3-4/h4H,2-3H2,(H2,7,8)
