16
gdb 51445	3.25618	1.08311	0.89168	1.241	70.78	-0.2495	-0.0405	0.209	1258.1058	0.122578	-437.85744	-437.849197	-437.848253	-437.891475	29.57	
O	-0.6227405653	 0.4455708814	 0.5259300076	-0.231382
C	 0.0720923421	 0.8829650629	-0.3515843408	 0.1731
C	 1.2543913245	 1.8083990622	-0.1308483363	-0.310919
C	 1.227159568	 3.0048963127	-1.0719180403	-0.102609
N	 0.1600448948	 4.0611783795	-0.8821756955	-0.117862
C	 0.4588161629	 4.7320474309	 0.3769366477	-0.240997
C	 1.2427859829	 5.1398538579	-0.8272612755	-0.157566
C	 2.3118509578	 4.112801655	-1.0637037327	 0.399119
O	 3.4747825393	 4.1428612897	-1.3380047989	-0.304043
H	-0.1096766549	 0.6206884607	-1.4199918674	 0.080006
H	 1.2904042449	 2.0853780174	 0.924932372	 0.129257
H	 2.1683889333	 1.2401822996	-0.3571777372	 0.148352
H	 1.1471592014	 2.6529227065	-2.1090063541	 0.125321
H	-0.3189878002	 5.41788701	 0.6977233322	 0.14542
H	 0.9474650552	 4.1962866519	 1.1857861924	 0.133835
H	 1.1450645132	 6.1124755517	-1.2944661531	 0.130966
48.0243	80.3188	145.6979	168.713	264.793	294.8191	452.0107	493.5969	542.5378	638.2371	673.1005	738.7484	771.6549	814.0517	863.4128	923.4226	962.7462	1032.5756	1057.3748	1067.4279	1103.1446	1104.6884	1127.9122	1149.3668	1204.6683	1216.1186	1226.1466	1279.5696	1308.6363	1374.2289	1425.705	1449.6701	1505.096	1841.0657	1897.2051	2862.5826	3023.4946	3033.6285	3111.5815	3123.0745	3195.0821	3209.7428
O=CCC1N2CC2C1=O	O=CC[C@H]1N2C[C@H]2C1=O	
InChI=1S/C6H7NO2/c8-2-1-4-6(9)5-3-7(4)5/h2,4-5H,1,3H2	InChI=1S/C6H7NO2/c8-2-1-4-6(9)5-3-7(4)5/h2,4-5H,1,3H2/t4-,5+,7?/m1/s1
