16
gdb 70657	2.46632	1.63137	1.21371	3.7935	68.56	-0.2814	0.0086	0.2899	1029.4415	0.124559	-437.878112	-437.870251	-437.869307	-437.910448	29.958	
O	 0.1881795756	 1.2471234984	-0.0429896838	-0.465783
C	-0.0160240971	-0.1218728187	-0.0367233265	 0.378339
C	-0.5902841968	-0.8607820651	-1.2134203844	-0.350997
C	-1.390590733	-0.7192918276	 0.067222943	-0.114279
C	-1.2801840636	-1.860255156	 1.056944849	-0.097528
O	 0.1209849387	-2.1602604877	 1.1453178399	-0.263515
C	 0.8427808215	-0.9607110963	 0.9201274717	-0.069612
C	 2.171956715	-1.2871817081	 0.3869697468	 0.262195
N	 3.2218739359	-1.480194436	-0.0542211656	-0.317417
H	 0.9096086778	 1.4443815308	-0.6515535894	 0.299399
H	-0.9092013677	-0.2449468885	-2.0465298258	 0.12628
H	-0.183304989	-1.8318851482	-1.4775611541	 0.139056
H	-2.2630132128	-0.0779937686	 0.0808201739	 0.113601
H	-1.6756236551	-1.5581244714	 2.0379423845	 0.109394
H	-1.7771985137	-2.7840188954	 0.7473066751	 0.124527
H	 0.9770855144	-0.3778654714	 1.8457383157	 0.126338
101.6341	131.7684	238.1299	265.3907	333.8694	341.7585	377.8231	436.9241	510.8236	547.2304	606.1194	681.2478	745.9479	852.083	893.6138	937.1888	968.7977	979.6996	993.3587	1048.6508	1060.7918	1085.3506	1103.9163	1126.4754	1222.0264	1233.4557	1270.2827	1299.1973	1339.3511	1364.7776	1375.5236	1413.0049	1485.5197	1516.5884	2363.7745	2982.098	3000.4944	3087.3086	3133.0173	3198.318	3228.6463	3793.0139
OC12CC1COC2C#N	O[C@]12C[C@H]1CO[C@H]2C#N	
InChI=1S/C6H7NO2/c7-2-5-6(8)1-4(6)3-9-5/h4-5,8H,1,3H2	InChI=1S/C6H7NO2/c7-2-5-6(8)1-4(6)3-9-5/h4-5,8H,1,3H2/t4-,5-,6+/m0/s1
