23
gdb 103328	3.28066	1.14602	1.01537	1.2288	86.74	-0.2608	0.0742	0.335	1295.6758	0.205294	-388.226961	-388.217388	-388.216444	-388.260985	37.02	
C	-0.1706087542	 1.5855076836	 0.5777600637	-0.448107
C	 0.043205985	 0.0956508239	 0.340075379	 0.061499
C	 1.2799340333	-0.4560734064	-0.4469296286	-0.122012
C	 2.1305117247	-0.12480318	 0.8178162006	-0.25118
C	 0.8382020806	-0.8083876847	 1.3478916232	-0.082825
C	 0.9771418112	-1.8687184112	 0.187110563	 0.399169
C	-0.2612202729	-2.6683454086	-0.2475385305	-0.488391
C	 2.1321063262	-2.8732652459	 0.2617380714	-0.170706
O	 1.9160415088	-3.6918367865	 1.4102346341	-0.421708
H	 0.7189131251	 2.1259697197	 0.9078093271	 0.11678
H	-0.5236481165	 2.0652629081	-0.3423933308	 0.114426
H	-0.9464940051	 1.7358625387	 1.3371827273	 0.115589
H	-0.9082401312	-0.3243069875	 0.0152254681	 0.060736
H	 1.5371639587	-0.2514643256	-1.4899356664	 0.057114
H	 3.0767868622	-0.642117467	 0.9596070811	 0.091837
H	 2.2575257187	 0.9304113822	 1.0540389526	 0.089742
H	 0.5840093168	-1.0191842401	 2.3881120913	 0.068905
H	-1.2133394015	-2.1596765605	-0.098998808	 0.115122
H	-0.1897348004	-2.935396606	-1.3088624631	 0.107839
H	-0.2940443268	-3.5983735224	 0.3264928585	 0.134032
H	 2.1190852801	-3.4807562267	-0.6577702531	 0.079426
H	 3.1163226921	-2.3961824896	 0.3108198635	 0.087156
H	 2.5603864254	-4.4053920274	 1.3949468362	 0.285558
77.86	128.8037	154.2466	165.1658	250.2795	256.3467	280.6953	301.2627	420.084	434.1962	469.7609	547.7467	584.8389	682.8655	752.7655	791.8528	806.6164	865.8973	895.3491	948.053	959.9858	1003.4461	1019.4683	1028.0461	1051.585	1059.3248	1084.6125	1093.8355	1123.4889	1129.0155	1151.6079	1185.6879	1200.346	1217.805	1223.8923	1242.9967	1260.0805	1265.5642	1318.435	1398.6376	1410.2368	1434.6147	1450.6188	1490.1152	1494.9531	1497.1888	1519.6223	1520.8713	1560.9838	2970.2039	3031.5855	3035.1054	3046.1944	3068.6732	3084.4696	3094.4674	3097.2387	3104.474	3114.2233	3125.2595	3143.6995	3156.8741	3829.528
CC1C2CC1C2(C)CO	C[C@H]1[C@H]2C[C@@H]1[C@]2(C)CO	
InChI=1S/C8H14O/c1-5-6-3-7(5)8(6,2)4-9/h5-7,9H,3-4H2,1-2H3	InChI=1S/C8H14O/c1-5-6-3-7(5)8(6,2)4-9/h5-7,9H,3-4H2,1-2H3/t5-,6+,7-,8+
