19
gdb 122725	8.89508	0.4329	0.4171	1.5339	96.31	-0.2435	-0.022	0.2215	2564.7658	0.155443	-385.827119	-385.816353	-385.815409	-385.864322	37.082	
C	 0.0141688537	 1.5201781979	 0.0096128353	-0.384169
C	-0.0174385508	-0.0102318632	 0.0019181284	-0.18509
C	-1.4361608451	-0.560536842	 0.0127065105	-0.018498
O	-1.3706180213	-1.9748809672	 0.0046786433	-0.246577
C	-2.6482401928	-2.5751356518	 0.0137918848	-0.23717
C	-2.522348739	-4.024684494	 0.004755969	 0.310846
C	-2.4536998313	-5.2319426493	-0.0023154141	-0.161099
C	-2.3679956102	-6.5897765457	-0.0103369759	 0.290057
C	-2.2934263131	-7.7948496164	-0.0176285224	-0.555125
H	 1.0432105794	 1.8902381305	 0.0016231176	 0.120127
H	-0.494333215	 1.9354939268	-0.8674950396	 0.117151
H	-0.4772818571	 1.92625042	 0.9006577071	 0.117151
H	 0.4982472197	-0.3982047318	-0.8836424513	 0.111498
H	 0.5151687487	-0.4073872164	 0.873279265	 0.111498
H	-1.9800402731	-0.2085013544	 0.9068579719	 0.085899
H	-1.997120296	-0.1992361751	-0.8670823173	 0.085899
H	-3.2203269437	-2.2621913631	 0.9055207421	 0.122548
H	-3.2373908586	-2.2527153492	-0.8633198692	 0.122541
H	-2.2254505043	-8.8542901956	-0.0245146253	 0.192512
38.9159	52.7846	91.3933	129.8584	151.0157	162.2002	223.0831	235.0317	350.3126	358.2255	382.4825	508.9094	532.9617	554.4765	587.9974	609.9221	763.5603	765.5023	902.3219	915.1966	1007.1539	1023.3113	1054.0248	1134.8969	1148.7004	1185.8235	1191.1026	1246.8722	1268.96	1316.9685	1332.4141	1387.5283	1412.4204	1449.4985	1490.1803	1493.8156	1498.884	1507.4601	1528.4225	2184.9644	2369.806	2937.9785	2948.6658	2956.9419	2971.6579	3032.0624	3042.974	3075.133	3101.3762	3109.6388	3505.8107
CCCOCC#CC#C	CCCOCC#CC#C	
InChI=1S/C8H10O/c1-3-5-6-8-9-7-4-2/h1H,4,7-8H2,2H3	InChI=1S/C8H10O/c1-3-5-6-8-9-7-4-2/h1H,4,7-8H2,2H3
