18
gdb 40994	3.92576	1.57015	1.49836	0.496	76.39	-0.2141	0.0686	0.2827	936.1907	0.149486	-401.815858	-401.809564	-401.80862	-401.846107	27.016	
C	-0.0252676749	 1.5140155516	-0.2082770541	-0.185017
C	 1.5111062898	 1.4135890298	 0.1479423311	-0.342383
C	 1.062095281	 0.1166703651	 0.8400107792	 0.274924
C	 0.9746770898	-1.4164766116	 1.1610461321	-0.152822
C	 1.3553775445	-1.6335117625	 2.6104555266	-0.108199
O	 0.7829114772	-0.463470522	 3.2293844394	-0.287458
C	 0.1721432164	 0.2013006302	 2.1455313371	 0.100393
C	-0.5061286058	-0.7845438418	 1.1776820187	-0.073836
N	-0.1124675487	 0.0009785058	-0.0591663834	-0.152303
H	-0.586621382	 2.1195021006	 0.511086512	 0.107496
H	-0.2821100006	 1.8293995097	-1.2212650827	 0.109905
H	 2.1233048555	 1.2535304296	-0.7423474868	 0.120311
H	 1.9467204881	 2.194000932	 0.7746216809	 0.109002
H	 1.2329606786	-2.142524318	 0.3933405799	 0.092732
H	 0.916968705	-2.5403197144	 3.0453952454	 0.106844
H	 2.4389899823	-1.6529180524	 2.7775495441	 0.110259
H	-0.3014649785	 1.1190891743	 2.484899654	 0.089044
H	-1.4412582178	-1.341479266	 1.2806233965	 0.081106
241.4858	263.3579	287.7219	374.9497	489.0157	538.689	643.714	669.6924	711.0097	723.7312	810.6222	836.5716	857.9627	895.0027	903.1658	947.565	960.1895	979.0691	990.0444	1013.7412	1039.4224	1085.1989	1091.1791	1129.1632	1140.6915	1163.1536	1167.3651	1188.7884	1197.3567	1215.718	1218.9166	1235.1501	1267.6515	1280.2632	1335.3241	1391.4698	1474.4264	1506.7834	1519.6549	3020.3569	3044.8173	3058.2983	3071.0469	3075.6225	3110.5262	3135.5738	3155.6725	3160.0047
C1CC23C4COC2C4N13	C1C[C@@]23[C@H]4CO[C@@H]2[C@H]4N13	
InChI=1S/C7H9NO/c1-2-8-5-4-3-9-6(5)7(1,4)8/h4-6H,1-3H2	InChI=1S/C7H9NO/c1-2-8-5-4-3-9-6(5)7(1,4)8/h4-6H,1-3H2/t4-,5-,6+,7+/m0/s1
