19
gdb 92730	2.34909	1.41411	1.10872	1.4959	78.16	-0.2327	-0.0199	0.2128	1178.0483	0.158602	-423.061809	-423.05284	-423.051896	-423.095558	33.676	
C	-0.0601889713	 1.5328772505	 0.0721216598	-0.473974
C	-0.0165054174	 0.0343220376	-0.0435307599	 0.316531
C	-0.0130060152	-0.6004183794	-1.2171679931	-0.139775
C	 0.0351176869	-2.0961680819	-1.3887254209	-0.272601
C	 0.4669767407	-2.8305728878	-0.1173686653	 0.016538
O	 1.8803882581	-2.6632699879	 0.0106784784	-0.4322
C	-0.2163756001	-2.2118935392	 1.1044532987	 0.357229
O	-0.8801277472	-2.8639502628	 1.8759772805	-0.31786
C	 0.0321585393	-0.7224795916	 1.2685537344	-0.383746
H	 0.8121293889	 1.9119228001	 0.6205429921	 0.124716
H	-0.0792188507	 2.012470398	-0.9099367844	 0.12266
H	-0.9452946517	 1.8620999445	 0.6315256741	 0.125212
H	-0.0532939226	-0.014600915	-2.132769462	 0.081726
H	-0.9474325131	-2.4740424729	-1.7043755025	 0.119673
H	 0.7380007265	-2.3687075092	-2.1855309971	 0.121301
H	 0.194615183	-3.892097442	-0.1676304604	 0.083174
H	 2.1748077282	-3.2072438655	 0.7490728848	 0.292278
H	 1.0253086196	-0.5920356147	 1.7242956971	 0.135175
H	-0.694154352	-0.3314371907	 1.9891115456	 0.123944
74.862	85.895	183.8354	224.3975	257.7808	310.6894	333.391	358.0091	419.5169	466.3072	494.0838	525.682	622.6896	680.9237	796.2271	832.6298	897.8729	913.3946	942.5876	962.9125	1017.6631	1061.7639	1068.1629	1087.8074	1155.8882	1176.9043	1209.8965	1220.1709	1256.9763	1309.1358	1338.964	1367.4947	1376.7497	1407.0473	1415.146	1439.6965	1464.1411	1478.4337	1491.2138	1746.8025	1821.1951	3003.6055	3010.9787	3015.1277	3034.0025	3052.5643	3060.6595	3072.2066	3112.8993	3150.3693	3810.7979
CC1=CCC(O)C(=O)C1	CC1=CC[C@@H](O)C(=O)C1	
InChI=1S/C7H10O2/c1-5-2-3-6(8)7(9)4-5/h2,6,8H,3-4H2,1H3	InChI=1S/C7H10O2/c1-5-2-3-6(8)7(9)4-5/h2,6,8H,3-4H2,1H3/t6-/m1/s1
