16
gdb 53758	7.09481	0.49246	0.46445	3.0137	81.81	-0.2673	-0.06	0.2073	2216.6969	0.121523	-400.757754	-400.747601	-400.746657	-400.795092	33.601	
C	-0.0004288159	 1.5106432879	-0.0120890835	-0.4786
C	-0.0136249643	-0.0013251536	 0.0647579035	 0.252435
O	-0.0343499282	-0.6133421877	 1.1106704325	-0.271951
C	 0.0002563724	-0.6935891995	-1.2138497402	 0.098613
C	 0.0117698897	-1.2701858855	-2.2742033245	 0.007592
C	 0.0248851005	-2.0105477231	-3.5256907533	-0.360202
C	 0.009043442	-3.5440838047	-3.292595127	-0.325575
C	 0.0223082208	-4.2828825478	-4.5524879617	 0.25681
N	 0.0331615607	-4.8456384595	-5.5614202373	-0.295542
H	 0.8908071729	 1.8516729229	-0.5499292539	 0.148605
H	-0.8693152282	 1.8656850469	-0.5767605769	 0.148601
H	-0.0124616016	 1.9280195602	 0.9956595154	 0.146806
H	-0.8401847037	-1.7257206988	-4.1356222739	 0.164042
H	 0.9125782432	-1.73977406	-4.1089336973	 0.164043
H	 0.8769801283	-3.8377376596	-2.6942351841	 0.172163
H	-0.8813031387	-3.8236472681	-2.7210103476	 0.172162
35.1446	53.623	56.5058	119.0114	147.3491	159.107	189.4214	370.9082	396.429	407.3054	450.6032	525.2347	601.7681	611.9274	688.8433	763.8718	949.3902	963.0183	1004.1474	1028.5762	1043.5777	1058.2695	1199.7652	1245.1718	1288.5398	1309.3377	1373.1712	1382.5413	1460.016	1462.6346	1468.0889	1472.9886	1771.5263	2334.7462	2365.6045	3039.7717	3040.8926	3064.6787	3073.4733	3103.8282	3107.9989	3153.7297
CC(=O)C#CCCC#N	CC(=O)C#CCCC#N	
InChI=1S/C7H7NO/c1-7(9)5-3-2-4-6-8/h2,4H2,1H3	InChI=1S/C7H7NO/c1-7(9)5-3-2-4-6-8/h2,4H2,1H3
