17
gdb 26775	3.64048	1.08206	0.8406	2.4101	91.41	-0.1774	0.0095	0.1869	1340.1983	0.135481	-380.88291	-380.873483	-380.872539	-380.916949	34.826	
C	-0.0850032877	 1.5574061406	-0.0082280568	-0.517602
C	-0.0475415601	 0.0590706617	 0.0204785079	 0.260653
C	 0.0214083829	-0.7832600293	-1.0796808147	 0.206014
N	 0.0099821457	-0.5255598113	-2.4607193406	-0.620253
N	 0.0486341392	-2.0742217636	-0.6340487769	-0.354075
C	-0.0027146531	-2.0975594498	 0.7530397101	 0.182069
C	-0.0708302358	-0.778537882	 1.1672576034	-0.355098
C	 0.025297907	-3.3014192367	 1.4773543248	 0.259845
C	 0.0456284749	-4.3444520439	 2.0839548605	-0.46181
H	 0.3558723097	 1.9527474668	-0.9308128283	 0.105233
H	-1.105165358	 1.9564182719	 0.0603512471	 0.1273
H	 0.4817401976	 1.9824682724	 0.8262992129	 0.128927
H	-0.2041194724	 0.4454212858	-2.6481961801	 0.248936
H	 0.89200484	-0.7491190141	-2.9124023369	 0.246035
H	 0.009910143	-2.8872779703	-1.2243492441	 0.26316
H	-0.1069277152	-0.4566350503	 2.1969162455	 0.097172
H	 0.0657278324	-5.2550688177	 2.6285670361	 0.183494
83.2407	118.9118	139.0445	155.3249	227.5145	264.1593	300.2704	396.131	441.7721	454.3196	490.701	527.0172	573.0577	637.7177	662.3186	671.7992	675.7071	768.813	819.3752	822.7502	993.6331	1015.7767	1060.7176	1122.718	1168.5181	1216.7862	1246.888	1357.0129	1396.1722	1418.4877	1486.0396	1499.0789	1509.787	1532.2291	1626.2596	1659.8793	2217.849	3015.6888	3065.5393	3092.8694	3248.964	3495.5444	3504.9423	3608.966	3678.8845
CC1=C(N)NC(=C1)C#C	Cc1c(N)[nH]c(c1)C#C	
InChI=1S/C7H8N2/c1-3-6-4-5(2)7(8)9-6/h1,4,9H,8H2,2H3	InChI=1S/C7H8N2/c1-3-6-4-5(2)7(8)9-6/h1,4,9H,8H2,2H3
