23
gdb 77527	2.21385	1.58024	1.40568	1.5664	85.07	-0.2362	0.0834	0.3196	1125.9911	0.204866	-388.299756	-388.290449	-388.289505	-388.332787	36.885	
C	-0.1937294168	 1.6595207868	-0.0262107646	-0.442797
C	 0.0215271029	 0.1552036617	 0.0136482813	-0.046323
C	 1.1701044859	-0.5713206581	-0.74234889	 0.408298
C	 1.0879894039	-1.0011120367	-2.1805548307	-0.499714
C	 2.4541450358	 0.1273725254	-0.2323740857	-0.256811
C	 2.1094198866	 0.1183248021	 1.2857051944	-0.256817
C	 0.7328909906	-0.5828613123	 1.1831783352	 0.408303
C	 0.0388819736	-1.0288162099	 2.439911665	-0.499715
O	 1.0413704204	-1.6588618884	 0.2343351537	-0.367564
H	 0.7174598649	 2.2260703104	 0.1841239591	 0.118908
H	-0.5576940822	 1.9727293054	-1.0111646155	 0.118522
H	-0.948221416	 1.9624117116	 0.7084332376	 0.118522
H	-0.9107597811	-0.3763557216	-0.201214957	 0.074569
H	 1.1436978848	-0.1309036716	-2.843266388	 0.118645
H	 1.9190906235	-1.6692341134	-2.4302989359	 0.125958
H	 0.1512221242	-1.5294735202	-2.3790248567	 0.123515
H	 3.337304106	-0.4705996225	-0.4695395761	 0.100706
H	 2.5956916545	 1.129173744	-0.6481609127	 0.092485
H	 2.805098224	-0.4845476638	 1.8742302939	 0.100701
H	 2.0549094365	 1.1149817215	 1.7331723918	 0.092489
H	-0.1992222552	-0.1663822886	 3.0716284211	 0.118645
H	-0.8904172546	-1.5569080534	 2.2083702548	 0.123513
H	 0.6823549377	-1.7019624885	 3.0163707151	 0.125961
165.3187	186.3531	189.5774	207.7844	209.1564	251.8404	281.0951	287.1269	355.8361	462.2327	510.3779	578.7509	605.7747	606.7175	746.096	748.5975	795.2919	837.9923	870.7221	887.3627	888.7024	959.4615	985.1521	1030.3025	1046.2591	1092.3385	1113.9971	1135.8292	1140.6692	1182.3474	1203.9924	1233.0251	1241.0225	1247.9244	1264.1026	1333.9677	1337.2746	1397.449	1407.7742	1410.0853	1433.2824	1473.7335	1480.8186	1481.6936	1494.0891	1494.8318	1496.5239	1501.3857	1505.4885	3031.3514	3034.6491	3035.0478	3055.4275	3061.274	3065.027	3088.8027	3097.4414	3101.9687	3103.0368	3110.4183	3113.3297	3113.743	3116.8473
CC1C2(C)CCC1(C)O2	C[C@H]1[C@@]2(C)CC[C@]1(C)O2	
InChI=1S/C8H14O/c1-6-7(2)4-5-8(6,3)9-7/h6H,4-5H2,1-3H3	InChI=1S/C8H14O/c1-6-7(2)4-5-8(6,3)9-7/h6H,4-5H2,1-3H3/t6-,7+,8-
