21
gdb 107474	2.22864	1.56254	1.28933	2.0128	78.26	-0.2278	0.0747	0.3025	1124.2086	0.179245	-424.179486	-424.169758	-424.168814	-424.213533	36.62	
C	-0.4681528749	 1.3322763627	-0.0989916823	-0.255446
O	 0.1374902566	 0.0651540378	 0.1126302017	-0.276981
C	 0.7087149744	-0.4733269715	-1.0164393788	 0.324431
C	-0.1006961453	-1.0644420393	-2.1553738262	-0.372768
C	 0.8857309403	-1.9118503721	-1.3933259813	 0.012629
O	 2.2119253207	-1.7032422112	-1.8770954729	-0.337223
C	 2.1932247881	-0.30202751	-1.4171103282	 0.336962
C	 2.5640826033	 0.6583742303	-2.5353339485	-0.438053
C	 3.1001094691	-0.1612720739	-0.2023534349	-0.416489
H	 0.2692278835	 2.0935143735	-0.3887148699	 0.112648
H	-1.2413290085	 1.2795711903	-0.8770241799	 0.115256
H	-0.9268224227	 1.6262169688	 0.8474949301	 0.12958
H	-1.139364194	-1.2393839149	-1.8891768219	 0.117577
H	 0.0811445613	-0.8202372825	-3.1976520333	 0.113049
H	 0.6575052842	-2.8432152504	-0.8893526379	 0.111405
H	 1.8822635082	 0.5717899919	-3.3842494617	 0.119603
H	 2.5430526089	 1.69265548	-2.1759637808	 0.11536
H	 3.5773551262	 0.4459228054	-2.8919595518	 0.126761
H	 4.1375711988	-0.3551260449	-0.4909790384	 0.119615
H	 3.0396002856	 0.848953673	 0.2152272218	 0.113959
H	 2.8142550161	-0.870522433	 0.5775872953	 0.128127
84.7133	136.3225	161.281	189.1269	213.649	225.5976	269.6325	301.7419	353.9147	418.3129	458.0679	470.8784	503.2513	645.3738	672.4169	817.8684	854.0549	884.0783	937.043	948.6584	989.4201	997.367	1012.7736	1018.5402	1057.9752	1072.7625	1081.9045	1148.3751	1179.2279	1199.6915	1233.8999	1235.1112	1262.9879	1307.6631	1377.8691	1402.9769	1415.1956	1463.0915	1471.5311	1479.1564	1486.5916	1493.8079	1496.758	1502.8699	1507.8913	2997.4692	3036.9531	3043.0433	3053.6584	3102.3879	3111.9674	3115.9516	3124.7629	3125.7034	3129.7024	3187.1248	3209.3371
COC12CC1OC2(C)C	CO[C@]12C[C@H]1OC2(C)C	
InChI=1S/C7H12O2/c1-6(2)7(8-3)4-5(7)9-6/h5H,4H2,1-3H3	InChI=1S/C7H12O2/c1-6(2)7(8-3)4-5(7)9-6/h5H,4H2,1-3H3/t5-,7-/m1/s1
