17
gdb 55880	2.89743	1.00745	0.81099	1.5682	75.96	-0.2546	0.0113	0.2659	1398.4385	0.134783	-418.043822	-418.034265	-418.033321	-418.080576	33.191	
C	-0.080630806	 1.4711811349	-0.0184189254	-0.491961
C	 0.0530920433	-0.0401949026	 0.0360504894	 0.41109
O	 1.1236509798	-0.6130867359	-0.0316640991	-0.364464
N	-1.1368462644	-0.7180025545	 0.1552788108	-0.336591
C	-1.1833857355	-2.1390967859	 0.0750483695	 0.078745
C	-2.0666452407	-2.9485982793	 0.9696026886	-0.31186
C	-2.412828657	-2.8278159608	-0.5165021644	-0.210499
C	-3.5246000676	-2.0041650087	-0.8897626651	 0.284172
N	-4.3900919339	-1.2865483912	-1.1668165763	-0.341732
H	 0.7641388684	 1.9161917949	 0.5093113998	 0.156238
H	-0.0312186075	 1.7963094459	-1.0627978842	 0.157093
H	-1.0163862356	 1.8361390067	 0.4129100701	 0.124353
H	-2.003905174	-0.2047444927	 0.1062460775	 0.262426
H	-0.2166173131	-2.5415545682	-0.2002536414	 0.154271
H	-1.7179782114	-3.9150349555	 1.3147340832	 0.141587
H	-2.7109641632	-2.4180160643	 1.6612118948	 0.143549
H	-2.2472091016	-3.6902445928	-1.1520927478	 0.143583
18.4079	48.2812	80.4812	122.0537	197.5111	215.197	340.8032	401.9223	436.6202	458.0388	560.21	594.9886	626.5431	646.9779	766.9835	805.5961	879.3516	929.2029	968.5348	1002.5874	1039.6427	1051.9072	1071.0883	1118.2016	1134.5693	1181.7907	1235.4501	1273.7179	1352.401	1385.2041	1399.6692	1467.3047	1479.052	1487.7267	1545.3003	1787.2409	2345.5091	3049.5385	3117.9909	3143.8484	3149.821	3178.1232	3208.2804	3238.5361	3620.6513
CC(=O)NC1CC1C#N	CC(=O)N[C@H]1C[C@H]1C#N	
InChI=1S/C6H8N2O/c1-4(9)8-6-2-5(6)3-7/h5-6H,2H2,1H3,(H,8,9)	InChI=1S/C6H8N2O/c1-4(9)8-6-2-5(6)3-7/h5-6H,2H2,1H3,(H,8,9)/t5-,6-/m0/s1
