13
gdb 131090	5.76741	0.79741	0.71947	2.7796	61.41	-0.3006	-0.0606	0.24	1432.1624	0.088369	-489.851765	-489.84394	-489.842996	-489.886548	26.177	
O	 0.0272610151	 0.0657901473	 0.3877377936	-0.256574
C	 0.1384141992	 1.1951096222	 0.0281747634	 0.179442
O	 0.8913951696	 2.0995689623	 0.697651027	-0.178525
C	 0.9339581797	 3.4376116311	 0.1981304149	-0.195029
C	 2.3592856322	 3.8790754707	 0.1033229441	 0.331707
N	 2.7276277284	 5.0954436824	 0.4027584832	-0.142895
O	 4.0705094906	 5.1450891019	 0.1727929932	-0.141167
N	 4.5471088384	 3.9414071322	-0.2620271085	-0.050533
C	 3.5113663047	 3.1519345571	-0.3119761716	-0.099154
H	-0.3436045621	 1.6233277023	-0.8726154029	 0.088487
H	 0.4507255587	 3.4868924907	-0.7871498717	 0.138581
H	 0.3877378841	 4.0960952208	 0.8785300008	 0.160661
H	 3.6059080412	 2.1216531292	-0.6160185855	 0.164999
28.2921	44.131	124.4838	196.5267	280.8708	351.2139	379.3688	643.7322	654.8038	707.0546	745.1429	894.339	895.7946	940.2901	992.6348	1026.9681	1040.7927	1062.7758	1069.5151	1170.6446	1206.4517	1282.5675	1384.5548	1430.1566	1432.6499	1470.4486	1495.2567	1615.5038	1879.6818	2947.4547	3017.8725	3099.5107	3278.0118
O=COCC1=NON=C1	O=COCc1nonc1	
InChI=1S/C4H4N2O3/c7-3-8-2-4-1-5-9-6-4/h1,3H,2H2	InChI=1S/C4H4N2O3/c7-3-8-2-4-1-5-9-6-4/h1,3H,2H2
