18
gdb 72458	2.72374	1.96385	1.55479	1.9098	70.65	-0.2505	0.0186	0.2691	915.1557	0.15	-439.117685	-439.110584	-439.10964	-439.14876	28.848	
C	-0.0825804493	 1.4897729771	 0.0611546345	-0.452819
C	 0.0460307356	-0.0114442726	-0.0351552233	 0.480805
C	 0.7761001133	-0.6182725335	-1.2364636307	-0.290045
C	 0.870734132	-2.0506662769	-0.6900233697	-0.024668
C	 1.3645375595	-1.7598491956	 0.7317055986	-0.077268
O	 0.7235209866	-0.5139155598	 1.0864592178	-0.284767
N	-0.471135183	-2.6535941467	-0.6430933575	-0.27121
C	-1.4080591104	-1.8537592683	-0.3422938273	 0.119354
O	-1.3209384617	-0.5365863477	-0.0415790798	-0.263186
H	 0.9100451669	 1.9451250862	 0.0759554949	 0.127333
H	-0.6466489699	 1.8781773574	-0.78969192	 0.129671
H	-0.6074617387	 1.7547080117	 0.9820476736	 0.141926
H	 0.2136599682	-0.5400450079	-2.167998151	 0.119167
H	 1.7590911493	-0.1542977781	-1.3578907182	 0.109386
H	 1.5416229332	-2.7084594903	-1.2445059739	 0.084542
H	 1.0667810172	-2.5321698773	 1.4451950216	 0.12295
H	 2.453893779	-1.6288998092	 0.77092213	 0.101565
H	-2.4425586978	-2.1893155485	-0.3035943698	 0.127265
159.5987	215.3303	280.8153	322.2476	333.2401	447.1707	457.8831	499.324	599.1684	633.3807	733.1611	770.8741	833.5855	853.1014	900.2458	916.7918	940.5421	952.1927	973.3258	996.6761	1044.72	1066.7366	1135.6965	1146.8969	1177.6764	1205.1712	1233.6279	1236.8803	1291.1054	1329.6155	1356.2702	1380.3037	1394.122	1420.0042	1481.562	1484.2967	1489.076	1518.1792	1707.4922	3019.9177	3058.6347	3067.2613	3099.9625	3102.5634	3132.1752	3139.0118	3141.7908	3163.2025
CC12CC(CO1)N=CO2	C[C@@]12C[C@@H](CO1)N=CO2	
InChI=1S/C6H9NO2/c1-6-2-5(3-8-6)7-4-9-6/h4-5H,2-3H2,1H3	InChI=1S/C6H9NO2/c1-6-2-5(3-8-6)7-4-9-6/h4-5H,2-3H2,1H3/t5-,6+/m0/s1
