17
gdb 17700	5.08682	2.03295	1.99137	1.7237	70.96	-0.221	0.0877	0.3087	757.8946	0.143772	-326.646202	-326.640117	-326.639173	-326.67594	25.111	
C	-0.1169371472	 1.5065666137	-0.044875068	-0.526436
C	 0.1061762388	 0.0341745257	 0.016582559	 0.36343
C	 0.3981257845	-1.0034382866	-1.0033621847	-0.105344
C	 1.2401568686	-1.8849510883	-0.062219185	-0.065546
C	 0.28659215	-3.0053307328	 0.4214992266	-0.239726
C	-0.567214312	-1.8279323592	 0.918228063	 0.014295
C	 0.6985529735	-0.9328550914	 1.0826684607	-0.133555
N	-0.939060965	-0.9913982394	-0.2999741623	-0.193183
H	 0.833378921	 2.051934799	-0.0605718059	 0.120459
H	-0.6755821291	 1.7636095992	-0.9503715185	 0.133427
H	-0.6942247137	 1.8567028875	 0.8184643266	 0.123868
H	 0.3921078298	-0.9554792311	-2.0856793547	 0.090423
H	 2.2951329213	-2.0405998023	-0.2790367373	 0.071805
H	-0.1434227787	-3.6903837544	-0.3146701437	 0.102408
H	 0.7138001878	-3.5655957926	 1.2593181322	 0.100795
H	-1.3835358392	-1.9278798989	 1.6320383912	 0.073127
H	 1.2311656496	-0.7117508981	 2.0043568509	 0.069753
200.9236	229.2808	256.3444	426.8203	564.7085	580.649	711.8144	748.1866	785.132	816.6205	819.3914	866.0437	874.2494	910.8591	928.0934	943.1974	991.2525	1021.6027	1038.5189	1055.4735	1071.9693	1095.5088	1096.2615	1150.6969	1169.7035	1206.9431	1211.5038	1242.8843	1267.3991	1273.8446	1280.5107	1399.8541	1450.8223	1480.2038	1482.89	1491.013	3025.8583	3048.6722	3087.6913	3105.8446	3108.2856	3124.6671	3134.9208	3148.0384	3183.369
CC12C3C4CC(C14)N23	C[C@@]12[C@H]3[C@@H]4C[C@@H]([C@H]14)N23	
InChI=1S/C7H9N/c1-7-5-3-2-4(5)8(7)6(3)7/h3-6H,2H2,1H3	InChI=1S/C7H9N/c1-7-5-3-2-4(5)8(7)6(3)7/h3-6H,2H2,1H3/t3-,4+,5-,6-,7+,8?/m1/s1
