18
gdb 37607	2.80201	1.99656	1.47284	2.0664	82.7	-0.1997	-0.0294	0.1702	920.5644	0.149062	-364.700956	-364.69389	-364.692946	-364.731768	29.5	
C	-0.052338725	 0.9773379855	-0.5595376205	-0.210674
N	 1.3250808532	 1.1632538999	 0.0793010834	-0.168002
C	 0.7201691861	 0.4070706146	 1.2168346877	-0.068966
C	 1.7231530301	-0.9937766779	-0.9081079648	 0.227972
C	 0.7294930642	-1.8326684676	-1.0888636628	-0.231206
C	-0.0992726514	-2.3792110406	 0.0814034631	-0.21921
C	-1.1309781997	-1.292824933	 0.5697791615	-0.31117
C	-0.3868988056	 0.0145222297	 0.5791472111	 0.170772
C	 2.2513544293	 0.119079636	-0.4571407995	-0.190692
H	-0.5960424789	 1.9252449295	-0.509919515	 0.112581
H	-0.035353885	 0.6171880663	-1.5874970788	 0.115489
H	 1.247980744	 0.1632008581	 2.1304538801	 0.106953
H	 0.3373093855	-2.0085932108	-2.0907947483	 0.111705
H	-0.6210605887	-3.2980504535	-0.2043799379	 0.10288
H	 0.5620984867	-2.6155881535	 0.9191840004	 0.117665
H	-1.9878444701	-1.2494206041	-0.1108946573	 0.108295
H	-1.5147381563	-1.57917325	 1.5552154339	 0.112152
H	 3.3029265816	 0.3145869414	-0.2871792963	 0.113455
186.0275	242.4064	280.9786	323.8333	357.8013	453.5071	480.4159	531.5584	588.0954	647.2798	709.7738	774.7626	796.7966	820.0095	843.7258	864.9312	890.4127	913.1708	926.8243	953.1958	979.7756	1019.6099	1053.5501	1124.0395	1129.0657	1154.1585	1193.8537	1208.8566	1235.3482	1280.4437	1300.7508	1318.7931	1337.1787	1415.8322	1474.5215	1483.874	1492.9119	1680.6456	1967.291	3036.2823	3050.6317	3061.7441	3078.7568	3102.6478	3119.2265	3137.4341	3198.3006	3209.7426
C1N2C3C4=CCCC13C24	C1N2[CH][C]1CC[CH][C][CH]2	
InChI=1S/C8H9N/c1-2-5-6-8(3-1)4-9(6)7(5)8/h2,6-7H,1,3-4H2	InChI=1S/C8H9N/c1-2-4-8-6-9(7-8)5-3-1/h1,5-6H,2,4,7H2
