20
gdb 57788	3.51302	0.70615	0.62121	2.8477	86.86	-0.2411	0.0271	0.2682	1835.4657	0.168763	-403.094146	-403.083628	-403.082684	-403.131359	37.361	
C	-0.0321734414	 1.6345539845	 0.2286929783	-0.383235
C	-0.0023454847	 0.1430877357	-0.1362915869	-0.021265
O	 0.8618720452	-0.5897272624	 0.7318305846	-0.414362
C	-1.3515612387	-0.4293911484	-0.1742153873	 0.108688
C	-2.4620067864	-0.8998637699	-0.1730226499	 0.09392
C	-3.7881433347	-1.4517697408	-0.1479453991	-0.257675
N	-4.1897148802	-2.3367162266	-1.2730700473	-0.31958
C	-4.0526725781	-2.9142010888	 0.0660250589	 0.020071
C	-2.9465712824	-3.917527105	 0.2688335993	-0.397331
H	 0.9895264261	 2.0222720496	 0.2547634659	 0.124688
H	-0.6137604688	 2.2033245428	-0.5026275509	 0.124987
H	-0.4889684075	 1.7786612714	 1.2132494223	 0.11467
H	 0.4548107504	 0.0343524225	-1.1274705532	 0.119875
H	 0.4151426451	-0.6655099236	 1.5823060938	 0.280625
H	-4.5493180553	-0.7759678965	 0.2376265852	 0.104287
H	-5.1677241152	-2.1687724629	-1.4954708407	 0.233893
H	-4.9735962911	-3.1292231341	 0.6078283118	 0.086398
H	-2.0447965343	-3.6073126659	-0.2629132023	 0.144813
H	-2.7064321568	-4.0188486529	 1.3325122765	 0.11584
H	-3.2487595411	-4.9005548385	-0.1071265291	 0.12069
17.6302	66.9589	98.3384	150.0509	173.2806	212.9321	249.5816	284.5218	322.9335	379.6187	396.8788	478.367	541.0405	551.9305	613.273	723.5966	773.8168	840.7907	887.5549	920.4787	977.7846	1001.3445	1020.9187	1055.7952	1083.5413	1095.9694	1138.1519	1161.8069	1208.5056	1247.8823	1264.675	1280.8473	1337.8692	1392.9232	1397.8417	1416.8955	1421.8954	1452.6763	1487.1769	1487.2853	1491.0956	1495.285	2353.815	3036.1606	3038.9484	3040.0599	3100.9045	3102.546	3113.7767	3120.0512	3126.7412	3138.2133	3500.3542	3805.098
CC(O)C#CC1NC1C	C[C@@H](O)C#C[C@H]1N[C@H]1C	
InChI=1S/C7H11NO/c1-5(9)3-4-7-6(2)8-7/h5-9H,1-2H3	InChI=1S/C7H11NO/c1-5(9)3-4-7-6(2)8-7/h5-9H,1-2H3/t5-,6+,7-/m1/s1
