15
gdb 44669	3.14029	1.83567	1.60417	4.4698	67.95	-0.253	-0.0183	0.2347	856.6604	0.11562	-420.657308	-420.651315	-420.65037	-420.687604	24.745	
O	-0.0207733165	 0.0081162765	-0.3189919586	-0.343901
C	 0.0087596607	 1.1663312885	-0.0197919257	 0.447601
O	-1.125890903	 1.8875694489	 0.2373992966	-0.231501
C	-0.7700173454	 3.2008708567	 0.7592829025	 0.008685
C	-0.6258229754	 3.0088955595	 2.2592430216	-0.080978
C	 0.6463186665	 2.7270792963	 2.5512206517	-0.079128
C	 1.51617696	 2.8847378843	 1.3493200368	-0.078009
C	 0.6710044791	 3.4690966923	 0.2635305377	-0.09247
C	 1.1964582994	 2.0827565663	 0.0526104681	-0.216794
H	-1.5341101171	 3.8963332605	 0.4156326404	 0.099189
H	-1.4788661291	 2.9128238124	 2.9181099417	 0.117481
H	 1.0238194534	 2.4010362849	 3.5126204827	 0.113818
H	 2.5592601138	 3.1571522611	 1.4584942403	 0.105197
H	 0.9323744469	 4.3297525723	-0.3375379466	 0.107643
H	 2.0280020569	 1.8472432895	-0.5988418092	 0.123165
136.7965	265.9767	395.7159	456.2682	543.0061	629.5102	656.8529	715.8546	760.8725	777.4451	805.6271	830.0615	835.9495	891.0441	921.9299	948.0264	960.2002	979.4699	998.0413	1022.6746	1036.6743	1091.2106	1107.8369	1132.2018	1179.9185	1279.2991	1283.2748	1316.7424	1337.8335	1367.0496	1390.6356	1657.1971	1876.7175	3130.5684	3184.3638	3199.7261	3205.9609	3209.9781	3232.6437
O=C1OC2C=CC3C2C13	O=C1O[C@H]2C=C[C@@H]3[C@H]2[C@H]13	
InChI=1S/C7H6O2/c8-7-6-3-1-2-4(9-7)5(3)6/h1-6H	InChI=1S/C7H6O2/c8-7-6-3-1-2-4(9-7)5(3)6/h1-6H/t3-,4+,5-,6-/m1/s1
