17
gdb 32201	2.50873	1.53097	0.96211	4.0924	76.81	-0.2419	-0.0279	0.2139	1179.8346	0.136911	-418.060245	-418.051728	-418.050784	-418.093793	30.761	
C	-0.0287126623	 1.500936338	-0.0182136411	-0.493661
C	-0.0082393929	-0.0034404526	 0.0159700603	 0.264332
N	-0.0228140762	-0.6363567407	-1.1623681244	-0.298516
C	-0.0048142321	-1.9695619144	-1.1326450342	 0.062923
N	 0.0263236015	-2.7483314104	-0.0544410782	-0.260764
C	 0.0407452104	-2.1063507614	 1.1188855193	-0.036989
C	 0.0246011036	-0.719160637	 1.2228659586	 0.182491
C	 0.0410080523	-0.0188124905	 2.5571702471	-0.182358
O	 0.0781761164	-0.9812633913	 3.5929357693	-0.414279
H	 0.8572551419	 1.9225627445	 0.4714911909	 0.134496
H	-0.0553448751	 1.8402982408	-1.0539164691	 0.147876
H	-0.9033930275	 1.899641736	 0.5094642855	 0.134369
H	-0.0168818151	-2.4724912377	-2.0971454033	 0.114511
H	 0.066294054	-2.7160280305	 2.0155255144	 0.137032
H	 0.9141721118	 0.6538451825	 2.6060674253	 0.106445
H	-0.8510094603	 0.624925589	 2.6427385239	 0.106529
H	 0.0897570097	-0.5181899343	 4.4348872757	 0.295563
66.764	129.4315	156.0939	210.747	218.7988	265.2734	324.735	431.0406	479.5974	539.8411	542.2571	626.8625	774.2764	776.445	877.2394	943.5536	993.8516	1009.3435	1042.2368	1070.1454	1083.1202	1155.5248	1193.73	1212.2722	1259.617	1260.4611	1282.4352	1328.9921	1403.8301	1432.1728	1456.293	1467.8604	1485.8431	1488.5336	1509.5832	1596.3182	1620.1718	2951.108	2968.2144	3028.9727	3078.958	3150.7199	3159.6079	3199.1031	3844.8377
CC1=NC=NC=C1CO	Cc1ncncc1CO	
InChI=1S/C6H8N2O/c1-5-6(3-9)2-7-4-8-5/h2,4,9H,3H2,1H3	InChI=1S/C6H8N2O/c1-5-6(3-9)2-7-4-8-5/h2,4,9H,3H2,1H3
