16
gdb 14643	4.27599	0.83588	0.72694	4.6336	74.13	-0.2516	0.0154	0.267	1509.0758	0.129389	-342.759208	-342.749783	-342.748839	-342.795558	31.158	
C	-0.3701476255	 1.0024536129	 0.6134245049	-0.497116
C	-0.1027698985	-0.355074887	 0.1598094018	 0.037365
C	 0.1372821665	-1.4733170091	-0.2203894695	 0.084067
C	 0.3671937157	-2.8456202671	-0.6886421107	-0.317424
N	-0.8366661793	-3.6775577989	-0.8187188392	-0.276853
C	-1.5513585651	-3.8345315745	 0.4467144556	-0.262531
C	-2.7657178548	-4.6321760638	 0.2636236893	 0.258799
N	-3.7367361044	-5.241011316	 0.1205575678	-0.299406
H	 0.3430642429	 1.7107112122	 0.1779652753	 0.154188
H	-1.3757865717	 1.3265448053	 0.3243504531	 0.152772
H	-0.2951481286	 1.0824396861	 1.7032709079	 0.151573
H	 0.8586287387	-2.8294247897	-1.6677826285	 0.141283
H	 1.0583037115	-3.3607483282	-0.0087292348	 0.137923
H	-1.4606856746	-3.2546514409	-1.4993318143	 0.236968
H	-0.8968401605	-4.3583336187	 1.1549019971	 0.154505
H	-1.8327461323	-2.8798241726	 0.9223072843	 0.143887
22.916	46.6007	85.2429	144.0909	169.9225	223.4727	287.9584	372.4303	386.1553	394.3193	509.5358	589.4264	729.0127	812.0786	904.0847	968.6127	997.553	1051.9077	1053.8887	1101.8336	1123.1629	1154.1815	1228.0751	1299.3182	1356.8539	1384.5209	1415.162	1465.9296	1476.9157	1478.3124	1492.2234	1501.9629	2360.9894	2368.7051	2968.7076	3024.7028	3029.4103	3047.1957	3065.2813	3091.3545	3091.8206	3519.2147
CC#CCNCC#N	CC#CCNCC#N	
InChI=1S/C6H8N2/c1-2-3-5-8-6-4-7/h8H,5-6H2,1H3	InChI=1S/C6H8N2/c1-2-3-5-8-6-4-7/h8H,5-6H2,1H3
