20
gdb 18639	2.58766	2.16095	1.688	1.3682	73.8	-0.2499	0.0721	0.322	893.8986	0.178415	-349.002132	-348.994069	-348.993125	-349.034441	30.881	
C	-0.301664722	 1.5117078382	-0.0217296046	-0.412164
C	 0.0190618975	 0.0331637269	 0.064481383	 0.006882
C	 1.3279452998	-0.6215685181	-0.3118577884	-0.065434
C	 2.6025178328	 0.2170958172	-0.378467766	-0.220156
C	 2.7367831027	 0.9118151975	 0.9981527471	-0.267694
C	 1.8177723298	 0.1362072249	 1.9824366597	 0.129401
O	 1.1049030587	 0.9809873167	 2.8825546413	-0.437441
C	 0.849142666	-0.6560485635	 1.1270778645	-0.060862
H	 0.5684033627	 2.1553968298	 0.1086082054	 0.11843
H	-0.735758344	 1.7437862845	-1.0010950162	 0.107053
H	-1.0303790366	 1.793293303	 0.7447266298	 0.126932
H	-0.837843782	-0.5766897609	-0.2165809942	 0.081358
H	 1.287977624	-1.5103418055	-0.9333792296	 0.075478
H	 3.452819721	-0.4508775497	-0.5541221917	 0.09939
H	 2.5973379185	 0.9384457844	-1.2036353683	 0.099065
H	 3.7751357581	 0.9307113682	 1.3437458886	 0.090682
H	 2.3985649553	 1.9503569663	 0.9629498708	 0.111733
H	 2.421449074	-0.5829029166	 2.5587137913	 0.061719
H	 1.7471585092	 1.4098315853	 3.4571071927	 0.278389
H	 0.4420683545	-1.5609968786	 1.5651478949	 0.07724
92.3399	109.7049	169.8628	237.4173	287.1731	320.7493	411.2374	464.1369	541.7211	639.6708	696.0444	742.4368	759.4203	823.2783	869.5144	913.125	957.5049	975.6193	997.1775	1026.2656	1059.3008	1083.0731	1097.807	1105.592	1141.5281	1144.0515	1197.1154	1235.1693	1240.8507	1249.0995	1291.821	1329.6837	1349.2429	1353.2426	1376.6285	1421.0226	1429.5107	1451.0545	1482.3538	1494.0402	1501.8006	1511.2168	2963.9788	3033.6515	3037.2662	3055.0353	3064.0617	3094.445	3099.3059	3111.9243	3145.1476	3152.2515	3165.7036	3812.973
CC1C2CCC(O)C12	C[C@H]1[C@H]2CC[C@@H](O)[C@@H]12	
InChI=1S/C7H12O/c1-4-5-2-3-6(8)7(4)5/h4-8H,2-3H2,1H3	InChI=1S/C7H12O/c1-4-5-2-3-6(8)7(4)5/h4-8H,2-3H2,1H3/t4-,5+,6+,7-/m0/s1
