15
gdb 9438	2.84296	1.78128	1.6635	3.5279	68.16	-0.2434	0.022	0.2654	875.4331	0.117317	-362.651403	-362.643203	-362.642258	-362.683802	29.913	
C	-0.0534370366	 1.5380483916	 0.0179564403	-0.442444
C	-0.0502825557	 0.005001068	-0.0134678543	-0.030182
C	 0.7532367042	-0.6444040843	-1.2001163251	-0.194818
N	 1.7134361518	-1.1243282165	-0.2068129746	-0.323666
C	 1.0814761587	-0.6149356724	 0.894492134	 0.407423
O	 1.3248678906	-0.6207373208	 2.0677166112	-0.354527
C	-1.3659718858	-0.5610725789	 0.2096208131	 0.306724
C	-2.4577371133	-1.0274242541	 0.3992235498	-0.469578
H	 0.9512660943	 1.9271498821	-0.1736588904	 0.12315
H	-0.7375239205	 1.9403798229	-0.7342936052	 0.130015
H	-0.3760521237	 1.8879621061	 1.0015293763	 0.150099
H	 0.218710853	-1.4358915939	-1.731105043	 0.126642
H	 1.1638357574	 0.0782096238	-1.9125923139	 0.115583
H	 2.5714106994	-1.6478999591	-0.295844549	 0.255677
H	-3.4199838337	-1.4404587144	 0.5759886607	 0.199902
97.837	128.219	178.8837	210.3075	236.6762	304.5889	391.2048	449.3692	525.6623	573.29	620.7111	641.0873	658.0058	732.659	773.558	861.6802	942.7048	976.6738	1006.2552	1121.0048	1152.0149	1162.1313	1195.5277	1258.7338	1293.6033	1389.0408	1411.3492	1487.6419	1494.949	1525.1618	1905.0276	2234.9316	3041.8399	3046.4865	3103.8545	3116.6734	3130.0258	3502.129	3614.5167
CC1(CNC1=O)C#C	C[C@]1(CNC1=O)C#C	
InChI=1S/C6H7NO/c1-3-6(2)4-7-5(6)8/h1H,4H2,2H3,(H,7,8)	InChI=1S/C6H7NO/c1-3-6(2)4-7-5(6)8/h1H,4H2,2H3,(H,7,8)/t6-/m1/s1
