22
gdb 100550	2.74288	0.98578	0.87195	2.7622	84.23	-0.2421	0.0063	0.2484	1476.1986	0.192427	-404.357327	-404.346837	-404.345893	-404.393981	37.203	
C	-0.2615358876	 1.385254627	 0.4451865221	-0.394156
C	-0.3710666495	-0.1265802158	 0.2289512288	-0.164027
C	-1.6342650082	-0.5659528229	-0.5552979614	-0.06253
C	-1.6530119908	-0.0563438032	-2.0000404036	-0.39271
C	-1.6910317913	-2.0909425685	-0.531552427	 0.358177
O	-1.1812750064	-2.7934630941	-1.3766906201	-0.344736
N	-2.2732994759	-2.6255868565	 0.6255754096	-0.077785
C	-3.7022504277	-2.6104197311	 0.8984024342	-0.233494
C	-2.9727288757	-3.8877893849	 0.6068706994	-0.219201
H	 0.614263246	 1.6231607083	 1.0570460337	 0.11593
H	-0.1590273544	 1.9299112084	-0.4979098891	 0.121478
H	-1.1445366561	 1.7766775595	 0.9631501471	 0.112756
H	 0.513265341	-0.4950028595	-0.3053274114	 0.111634
H	-0.3790720055	-0.6302695688	 1.2018597529	 0.110683
H	-2.508229151	-0.1825448866	-0.0132452623	 0.075014
H	-2.5651983288	-0.3699285306	-2.5168525678	 0.112202
H	-1.6081771772	 1.0350676884	-2.0340284627	 0.11089
H	-0.804560219	-0.4632276393	-2.5558773642	 0.13817
H	-3.9931212652	-2.362199068	 1.9155936135	 0.126682
H	-4.3626236977	-2.224490075	 0.1250655514	 0.129656
H	-3.1182469994	-4.3503043305	-0.3655130097	 0.139187
H	-2.7410533798	-4.5718846363	 1.4180081964	 0.126179
29.613	76.3766	88.3724	161.9573	173.8632	194.8045	231.6669	247.9907	299.984	336.0315	362.3096	481.636	608.0019	731.6625	771.4966	788.8801	817.1885	849.3267	922.5404	964.5266	973.3622	997.3634	1037.7963	1044.5453	1104.9311	1111.3086	1125.0013	1131.0381	1140.6614	1173.5855	1177.6982	1196.9756	1284.8993	1316.9113	1355.5575	1366.6849	1397.754	1406.9561	1413.5538	1486.2394	1490.2014	1496.342	1497.3749	1505.4081	1509.5686	1523.2563	1784.5	3022.3931	3032.1745	3035.4144	3047.4133	3071.3019	3099.2011	3103.449	3108.063	3114.3402	3117.1476	3131.0146	3188.1486	3207.8783
CCC(C)C(=O)N1CC1	CC[C@@H](C)C(=O)N1CC1	
InChI=1S/C7H13NO/c1-3-6(2)7(9)8-4-5-8/h6H,3-5H2,1-2H3	InChI=1S/C7H13NO/c1-3-6(2)7(9)8-4-5-8/h6H,3-5H2,1-2H3/t6-/m1/s1
