14
gdb 16098	4.80941	1.7195	1.47149	1.9325	69.33	-0.2485	-0.0121	0.2365	850.0053	0.106456	-345.354598	-345.347915	-345.346971	-345.38516	26.208	
C	-0.0008220535	-1.2127209775	-0.110665473	-0.385592
C	 0.0397608122	-0.0152994386	-0.0133580833	 0.218117
C	 0.0461471057	 1.4096764183	 0.1319562305	 0.253408
O	 0.3837388778	 2.1910771764	-1.0514910323	-0.292714
C	 1.2538212369	 2.2733454896	 0.0716179302	-0.033361
C	 1.0169781115	 3.4788453461	 0.9723087302	-0.296647
C	-0.4019666852	 3.268389443	 1.4617211449	-0.074995
C	-0.9256040201	 2.1215807993	 1.0250134061	-0.159868
H	-0.0257554415	-2.2703309614	-0.2037712788	 0.194378
H	 2.2511240881	 1.8689125479	-0.07752377	 0.10816
H	 1.7371517908	 3.5036587379	 1.7997416721	 0.119068
H	 1.1302952507	 4.4195701908	 0.4200568293	 0.131312
H	-0.9213451975	 4.0017760119	 2.0677010402	 0.10788
H	-1.9144990958	 1.7363462863	 1.2349519438	 0.110855
148.8486	154.2445	300.1279	366.6449	482.5369	504.4056	530.2821	590.3224	616.6319	665.3851	711.9401	742.604	793.4133	861.4809	908.7255	931.9399	955.2553	985.2315	995.5452	1059.1559	1134.7388	1184.5248	1203.2139	1283.8537	1308.2965	1344.61	1414.5857	1457.5407	1662.9842	2243.5151	3031.4573	3066.9392	3156.1068	3198.3304	3231.0452	3502.3676
C#CC12OC1CC=C2	C#C[C@]12O[C@H]1CC=C2	
InChI=1S/C7H6O/c1-2-7-5-3-4-6(7)8-7/h1,3,5-6H,4H2	InChI=1S/C7H6O/c1-2-7-5-3-4-6(7)8-7/h1,3,5-6H,4H2/t6-,7+/m0/s1
