20
gdb 90735	2.58715	1.55375	1.31406	3.1693	79.04	-0.2527	0.0261	0.2788	1068.7135	0.173161	-403.163858	-403.155862	-403.154917	-403.196685	31.176	
C	-0.6187354575	 1.3948181207	-0.0542977424	-0.413955
C	-0.0839200269	-0.0326982601	-0.0307836407	 0.019997
C	 1.0671998853	-0.3470328355	-1.0365905627	-0.239916
C	 2.0438365834	-0.5764814071	 0.1535176437	-0.106234
C	 0.8639539257	-0.4410607279	 1.1537990291	-0.053419
C	 1.3256338192	 0.6287117431	 2.1415314297	-0.108639
O	 2.4029306101	 1.3360051384	 1.5007189866	-0.24282
C	 2.9251458889	 0.6120367612	 0.4612983958	 0.402286
N	 3.9765926223	 0.924265066	-0.1648041445	-0.542334
H	 0.1853790419	 2.1304134355	 0.0517192714	 0.132746
H	-1.1253183508	 1.592861687	-1.0049095583	 0.118514
H	-1.3441670899	 1.5685546836	 0.7483768922	 0.113513
H	-0.9218779276	-0.7290594769	-0.1268700756	 0.074017
H	 0.8983187898	-1.2509260644	-1.6256210617	 0.104862
H	 1.3504182298	 0.4612795113	-1.7149960842	 0.116916
H	 2.6285200531	-1.4961514049	 0.1329029107	 0.099536
H	 0.55160917	-1.3527863546	 1.6644118805	 0.077844
H	 0.5567889791	 1.3609277289	 2.4012885398	 0.118269
H	 1.7059672191	 0.1819479969	 3.0685188493	 0.109435
H	 4.3892549352	 1.7720117486	 0.2285385514	 0.219383
54.2534	129.422	226.1607	259.5554	271.387	346.4165	410.7831	474.3845	572.8445	668.7082	708.0611	761.9461	768.8902	797.4671	869.2868	893.2628	901.3939	928.2457	965.064	989.6709	1019.1659	1019.7946	1068.2671	1108.2619	1113.8789	1128.346	1170.1006	1206.7604	1222.2861	1251.2252	1264.7939	1272.8396	1285.7651	1319.9608	1330.3281	1364.4986	1403.0488	1415.2219	1487.6361	1497.9084	1500.025	1521.899	1769.6739	3026.8165	3028.3431	3053.2724	3067.2918	3091.7094	3095.5917	3099.13	3104.526	3111.0943	3123.0968	3469.0444
CC1CC2C1COC2=N	C[C@H]1C[C@@H]2[C@H]1CO[C]2[NH]	
InChI=1S/C7H11NO/c1-4-2-5-6(4)3-9-7(5)8/h4-6,8H,2-3H2,1H3	InChI=1S/C7H11NO/c1-4-2-5-6(4)3-9-7(5)8/h4-6,8H,2-3H2,1H3/t4-,5+,6-/m0/s1
