18
gdb 35320	4.33859	1.01103	0.91476	4.4243	83.58	-0.2449	-0.0001	0.2448	1287.1044	0.1489	-364.827591	-364.819613	-364.818668	-364.860568	30.698	
N	-0.0986952169	-1.167348912	-0.1347518355	-0.328299
C	-0.0640261592	-0.012189936	-0.1070051082	 0.264337
C	-0.0174744684	 1.450240034	-0.0714099513	-0.189142
C	-0.6819294586	 2.0555305015	 1.2077234883	-0.319026
C	 0.2231790502	 3.2331069609	 1.5924058045	 0.340506
C	-0.3121652823	 4.6424592556	 1.7738936576	-0.310475
C	 0.1744356468	 3.8604094561	 2.9643214059	-0.315183
C	 1.4965870847	 2.9961247815	 0.8671192082	-0.130808
C	 1.3959596139	 2.0179975114	-0.0301049311	-0.09184
H	-0.5297870855	 1.8048584388	-0.9771090086	 0.131754
H	-1.7196073237	 2.3451506452	 1.0284005519	 0.116375
H	-0.6784269674	 1.3040508695	 2.0025248401	 0.132114
H	 0.2933321659	 5.4684435662	 1.4161514359	 0.117943
H	-1.3811407784	 4.7901369645	 1.6595474143	 0.118638
H	-0.5643421043	 3.4782824489	 3.6615748555	 0.11921
H	 1.1116792034	 4.1524771236	 3.426518526	 0.118178
H	 2.3863872185	 3.5897285726	 1.04696467	 0.107561
H	 2.1729153112	 1.6690959379	-0.6978095636	 0.118154
47.8461	140.1374	186.5421	272.1923	301.9426	336.6893	446.995	479.3103	562.4383	590.997	679.7963	772.3616	780.4129	818.3313	849.2833	867.8839	928.5122	938.3422	969.1382	983.8064	1010.591	1029.3206	1055.1229	1063.3257	1081.7093	1129.9175	1186.5256	1192.0875	1266.1888	1275.2184	1291.8036	1316.933	1336.7155	1404.8164	1467.7263	1488.829	1500.7375	1679.0793	2355.8229	3004.6224	3061.5803	3111.2158	3125.5362	3129.3138	3190.469	3205.0523	3220.5218	3225.9387
N#CC1CC2(CC2)C=C1	N#C[C@H]1CC2(CC2)C=C1	
InChI=1S/C8H9N/c9-6-7-1-2-8(5-7)3-4-8/h1-2,7H,3-5H2	InChI=1S/C8H9N/c9-6-7-1-2-8(5-7)3-4-8/h1-2,7H,3-5H2/t7-/m1/s1
