17
gdb 29941	3.31273	1.34977	0.96539	4.6681	81.25	-0.1996	-0.0129	0.1866	1183.0054	0.137863	-418.085317	-418.076974	-418.076029	-418.118131	31.835	
C	 0.0137429193	 1.4580802658	 0.0016129826	-0.330264
N	 0.0019072655	 0.0009068335	-0.0302222303	-0.137464
C	-0.1089182937	-0.6860022952	-1.1953001191	 0.055338
C	-0.1210959412	-2.0435639147	-1.2448394157	-0.267111
C	-0.0125995011	-2.776422823	-0.021461942	 0.369196
N	-0.0811967008	-4.1556929055	-0.0660532865	-0.581928
C	 0.1047585605	-2.0866026001	 1.1624030204	-0.35976
C	 0.1151641867	-0.6540538284	 1.2320538867	 0.437005
O	 0.2150973868	 0.0315136104	 2.2426523997	-0.429413
H	 0.9430854954	 1.8176592141	 0.4498169455	 0.152459
H	-0.0809235689	 1.8396806807	-1.0162225901	 0.119194
H	-0.8103068624	 1.8275909188	 0.6165288216	 0.153396
H	-0.1880898658	-0.0829351288	-2.0925889941	 0.125555
H	-0.2239306275	-2.5515413604	-2.1949752699	 0.093126
H	 0.1971525117	-4.5919044201	-0.9311156907	 0.252153
H	 0.2496254724	-4.6453716286	 0.7510098963	 0.255873
H	 0.192602193	-2.6040644585	 2.1106605454	 0.092644
88.2491	123.195	188.4836	272.5099	322.0613	349.49	374.4019	430.4817	445.1773	515.0038	533.3	619.0934	689.5699	731.1183	748.5609	761.898	783.8823	849.0699	922.3122	961.4683	1060.1684	1106.3301	1154.3846	1167.642	1209.1188	1247.4087	1277.2366	1352.9892	1408.4559	1454.1777	1464.7797	1505.9766	1539.2696	1574.3297	1653.0592	1682.7942	1755.2167	3054.6323	3121.4223	3145.6728	3191.4255	3196.4397	3214.183	3581.441	3687.0375
CN1C=CC(N)=CC1=O	Cn1ccc(N)cc1=O	
InChI=1S/C6H8N2O/c1-8-3-2-5(7)4-6(8)9/h2-4H,7H2,1H3	InChI=1S/C6H8N2O/c1-8-3-2-5(7)4-6(8)9/h2-4H,7H2,1H3
