14
gdb 123684	4.11862	1.59441	1.24807	4.9599	66.22	-0.245	-0.007	0.238	931.1732	0.104373	-432.83802	-432.831975	-432.83103	-432.868421	24.082	
C	-0.0610708004	 1.5535939334	-0.0079741774	-0.392839
C	 1.450259611	 1.8856477574	-0.0287234137	 0.0616
O	 2.1738480879	 1.4485257942	 1.1161539838	-0.246563
C	 2.2599048083	 0.6428312755	-0.08408455	-0.11753
C	 1.266815139	-0.4566647748	-0.0808903771	 0.319148
C	-0.0038069029	 0.0547768781	-0.0052588242	 0.342938
N	-0.7853650145	-1.0351255532	 0.0771635595	-0.324778
N	-0.0276307994	-2.1720494662	 0.0265283071	-0.122094
N	 1.2238854019	-1.8103178513	-0.0618681283	-0.295013
H	-0.5438937044	 1.9777079788	 0.878738021	 0.143219
H	-0.564511928	 1.9630156409	-0.8914211911	 0.129593
H	 1.7760451107	 2.828957528	-0.4591857552	 0.106183
H	 3.2416499625	 0.5751828206	-0.5385928291	 0.115077
H	-1.7864401618	-1.1274426914	 0.1415478946	 0.281061
162.099	236.4671	357.388	428.2589	462.249	572.3676	611.3384	704.8307	726.7431	753.3691	784.8964	855.6132	859.8898	888.3888	981.0706	993.0383	1033.3694	1035.4427	1093.8324	1176.3922	1191.355	1217.8846	1245.1857	1278.0564	1289.9075	1370.1039	1372.9994	1430.1809	1465.2972	1515.8847	1596.3731	3041.7853	3083.7927	3149.7885	3189.103	3659.8651
C1C2OC2C2=C1NN=N2	C1[C@H]2O[C@H]2c2c1[nH]nn2	
InChI=1S/C5H5N3O/c1-2-4(7-8-6-2)5-3(1)9-5/h3,5H,1H2,(H,6,7,8)	InChI=1S/C5H5N3O/c1-2-4(7-8-6-2)5-3(1)9-5/h3,5H,1H2,(H,6,7,8)/t3-,5-/m1/s1
