14
gdb 130999	7.29204	0.74943	0.68247	3.5511	64.8	-0.2657	-0.0383	0.2275	1514.9293	0.099401	-473.80891	-473.800853	-473.799909	-473.843226	27.677	
O	-0.2033281771	 0.1931672036	 0.5408762547	-0.23166
C	 0.0531970275	 1.1094588763	-0.1919597535	 0.140194
C	 1.3653791796	 1.8680446518	-0.1384183859	-0.161471
O	 1.3114647842	 2.8761600161	-1.147216734	-0.271722
C	 2.3909925329	 3.6577170408	-1.2559272576	 0.492771
N	 3.449998569	 3.5236027088	-0.4900355589	-0.230026
O	 4.3302517068	 4.5167703988	-0.9233951321	-0.182885
C	 3.7583263883	 5.1982684423	-1.9269731162	 0.104262
C	 2.5232159511	 4.7159340764	-2.2015154307	-0.372312
H	-0.6518147415	 1.4746987529	-0.9705163819	 0.100416
H	 1.5061363987	 2.3141316105	 0.8538090531	 0.159895
H	 2.2062908407	 1.1852828643	-0.3117240686	 0.15993
H	 4.3499039225	 5.9976997937	-2.3460433995	 0.159064
H	 1.8129965672	 5.0399953238	-2.9419234587	 0.133546
48.9279	59.2959	119.3085	132.169	303.5128	340.3323	389.9152	574.8109	597.0102	716.8641	733.4608	756.3602	791.0126	876.8806	913.6375	951.2637	1019.4074	1054.1456	1065.0621	1100.829	1107.8234	1167.91	1232.1342	1320.5977	1343.9846	1408.4089	1457.1127	1469.8258	1533.4004	1625.5424	1848.6283	2902.2536	3033.6604	3074.9378	3264.0872	3297.5465
O=CCOC1=NOC=C1	O=CCOc1nocc1	
InChI=1S/C5H5NO3/c7-2-4-8-5-1-3-9-6-5/h1-3H,4H2	InChI=1S/C5H5NO3/c7-2-4-8-5-1-3-9-6-5/h1-3H,4H2
