24
gdb 121877	3.08709	0.73844	0.65392	3.3876	87.84	-0.2301	0.037	0.2671	1855.6109	0.215282	-405.590899	-405.579264	-405.57832	-405.62906	40.41	
C	-0.4013557966	 1.8275369235	-0.1025999441	-0.380034
C	-0.2075210567	 0.3101710147	-0.0371757055	-0.160813
C	-1.5286045666	-0.4645670936	-0.079099696	-0.166809
C	-1.3214737742	-1.9822636242	 0.0032183413	-0.172779
N	-2.5675218986	-2.744567021	-0.0621713485	-0.069791
C	-3.0358167577	-3.1127652942	-1.3834568132	-0.344062
C	-3.2312521693	-2.9905966259	 1.1129873898	 0.398918
C	-4.5241762525	-3.7946818055	 1.0488066971	-0.499675
O	-2.799127059	-2.5863318865	 2.1820396704	-0.383932
H	 0.5570956071	 2.354841901	-0.0676143413	 0.111205
H	-0.9103469086	 2.1223905064	-1.0271202256	 0.111263
H	-1.0089685146	 2.1835308336	 0.7364663128	 0.118524
H	 0.4331631603	-0.0137975692	-0.8687585549	 0.090711
H	 0.3333888216	 0.0492334508	 0.8817209396	 0.103674
H	-2.1648305413	-0.1616846022	 0.7602101514	 0.120767
H	-2.0728347276	-0.2120425428	-0.9994286041	 0.086329
H	-0.6774443	-2.3230969448	-0.8169392875	 0.090656
H	-0.8332907541	-2.2312091675	 0.9476923911	 0.136265
H	-3.9838576473	-3.6440318462	-1.3290154895	 0.138037
H	-3.1845447669	-2.2255795264	-2.0129004576	 0.12762
H	-2.3093973439	-3.7628350335	-1.8890861823	 0.126034
H	-4.3797293619	-4.7750303623	 0.5842862597	 0.134465
H	-4.8648363074	-3.9330698188	 2.0742571526	 0.147427
H	-5.303186964	-3.2692620454	 0.4867672745	 0.135998
44.1422	66.8445	81.6912	93.1542	118.3115	132.1417	195.679	229.9007	243.0539	300.9148	342.0383	403.4344	426.3119	516.161	590.9071	604.6902	737.6868	750.5344	792.7022	908.5238	934.9625	973.2293	1010.9985	1038.7918	1048.4707	1062.4064	1115.366	1128.4197	1155.5416	1196.7071	1239.7456	1287.0165	1295.2239	1329.4091	1341.1869	1384.2181	1386.7803	1406.9918	1414.1875	1440.2401	1462.1327	1472.7226	1478.0322	1486.1349	1493.3503	1496.5963	1498.9993	1500.6664	1511.6887	1530.9631	1748.8999	3006.8002	3010.4842	3015.7853	3029.6338	3029.7762	3043.0505	3043.378	3048.1374	3073.5164	3096.9431	3102.2009	3106.1697	3114.7474	3160.1895	3168.2559
CCCCN(C)C(C)=O	CCCCN(C)C(=O)C	
InChI=1S/C7H15NO/c1-4-5-6-8(3)7(2)9/h4-6H2,1-3H3	InChI=1S/C7H15NO/c1-4-5-6-8(3)7(2)9/h4-6H2,1-3H3
