17
gdb 56827	2.53361	1.22564	0.96057	2.582	70.51	-0.2381	0.0344	0.2725	1231.5532	0.132594	-458.882495	-458.872712	-458.871768	-458.917517	35.884	
O	 0.6916603812	 0.2774008708	-0.9764618318	-0.417712
C	-0.2335584205	 0.0042909151	 0.073812968	-0.064327
C	-1.3208469698	-0.8666272343	-0.3865901757	 0.31772
C	-2.16873857	-1.618502701	-0.7876801661	-0.452472
C	 0.4437443675	-0.6003017948	 1.2943959945	-0.111313
C	 1.2613557528	 0.2489394129	 2.2359005087	-0.006533
O	 1.2606955418	 1.6324507861	 1.9823345609	-0.414059
C	-0.0624994348	-0.3134043946	 2.7009563351	 0.096217
O	-1.0997560197	 0.5968693303	 2.8931793497	-0.426929
H	 0.9404073815	-0.5673993258	-1.3674816389	 0.280892
H	-0.6471685263	 0.9791188087	 0.3429918214	 0.122312
H	-2.9380422913	-2.2613286526	-1.1380932295	 0.19781
H	 0.8269644664	-1.6040122613	 1.1282508392	 0.093046
H	 2.2025390597	-0.1493629367	 2.6081710983	 0.097139
H	 1.6127266056	 2.0749653862	 2.7625002041	 0.299678
H	-0.093470298	-1.1287467781	 3.417238564	 0.103099
H	-0.728494466	 1.4693119891	 2.6978781481	 0.285433
39.4901	96.9215	155.7339	178.658	222.7592	257.1073	281.2074	299.9221	322.6864	485.7421	503.4535	551.7998	571.9437	616.5008	637.4895	668.3797	679.4983	776.0194	801.8985	904.8934	977.8737	1039.8835	1047.7852	1064.3419	1114.8578	1125.4272	1155.509	1223.0662	1242.9482	1263.1959	1297.5646	1326.5847	1388.3267	1412.0718	1412.8504	1469.5927	2233.2596	3091.1081	3123.0527	3139.8991	3157.2957	3504.1629	3726.7648	3805.6775	3806.8359
OC(C#C)C1C(O)C1O	O[C@@H](C#C)[C@H]1[C@@H](O)[C@H]1O	
InChI=1S/C6H8O3/c1-2-3(7)4-5(8)6(4)9/h1,3-9H	InChI=1S/C6H8O3/c1-2-3(7)4-5(8)6(4)9/h1,3-9H/t3-,4-,5+,6-/m0/s1
