19
gdb 53297	3.06117	0.77753	0.66132	0.7142	92.22	-0.2309	0.0448	0.2757	1721.1864	0.156385	-348.687596	-348.677306	-348.676362	-348.724479	36.398	
C	 0.0657477098	 1.5155024227	 0.1337710806	-0.498376
C	 0.040292787	 0.0599256191	 0.1053528136	 0.053313
C	 0.0257012222	-1.1456271852	 0.0865964136	 0.090975
C	 0.0200329608	-2.5802357351	 0.0519641364	-0.211767
C	-0.6288193171	-3.380394463	 1.1755705193	-0.27935
C	-1.2692933741	-3.3614280199	-0.179108119	 0.008942
C	-2.5804467898	-2.6262128006	-0.407553346	-0.384063
C	-3.7456205666	-3.435006514	-0.0631670306	 0.306709
C	-4.693697407	-4.1178882291	 0.2189849798	-0.447014
H	 1.0944280248	 1.892258245	 0.1596748301	 0.148665
H	-0.4207201421	 1.945046741	-0.7493135467	 0.146177
H	-0.4493595026	 1.9064596567	 1.0184363968	 0.147151
H	 0.9093266909	-3.0251642939	-0.3861627436	 0.109233
H	-0.1271608452	-4.282259711	 1.5074672926	 0.117472
H	-1.1054338692	-2.8103184555	 1.96525775	 0.126628
H	-1.1581574121	-4.2614134244	-0.7763038246	 0.1
H	-2.5817839495	-1.6987502004	 0.1767836896	 0.139401
H	-2.6478522424	-2.316030599	-1.458636954	 0.133029
H	-5.5368508878	-4.7121799336	 0.4697968921	 0.192877
33.5261	54.438	69.1187	126.1723	149.2164	231.3039	287.1997	336.6342	355.7147	372.6408	474.5801	519.3611	581.2813	614.7554	636.8856	700.3624	804.6774	856.6213	880.8281	925.5078	967.001	994.5482	1050.3033	1053.5192	1063.0762	1066.5635	1120.8228	1148.6713	1181.2972	1238.2419	1251.5383	1322.1938	1382.213	1412.5233	1417.8991	1466.9569	1477.6204	1479.9052	1489.8972	2238.6205	2364.5058	3023.2088	3024.2864	3062.4965	3083.0552	3085.3749	3136.7374	3138.8973	3156.6207	3228.2202	3507.396
CC#CC1CC1CC#C	CC#C[C@H]1C[C@H]1CC#C	
InChI=1S/C9H10/c1-3-5-8-7-9(8)6-4-2/h1,8-9H,5,7H2,2H3	InChI=1S/C9H10/c1-3-5-8-7-9(8)6-4-2/h1,8-9H,5,7H2,2H3/t8-,9+/m1/s1
