16
gdb 67422	2.81318	1.52582	1.28307	1.136	77.55	-0.2137	0.041	0.2546	1016.7481	0.123896	-400.639484	-400.631789	-400.630845	-400.671296	30.668	
O	-0.2300108955	 1.3795159565	-0.0032851558	-0.444017
C	-0.0370788254	 0.0327651734	 0.018170665	 0.336224
C	 0.061309335	-1.033253451	-1.0147736441	-0.172461
N	 1.2943615774	-1.5754091649	-0.4698389674	-0.297704
C	 0.9230172395	-0.950828072	 0.834379262	-0.127886
C	-0.3508359977	-1.6895093828	 1.332074505	-0.301361
C	-1.066537091	-1.0799642052	 0.12452031	 0.179484
C	-2.4460627934	-1.0587889297	-0.1932788833	 0.111329
C	-3.6204707638	-1.0508764725	-0.4614658623	-0.387273
H	 0.467415165	 1.7833439806	-0.5337210624	 0.298984
H	-0.2167094149	-1.0462401768	-2.0605597677	 0.112105
H	 1.3196292233	-2.5956746423	-0.4256520123	 0.214119
H	 1.7349584706	-0.6910373426	 1.5104072691	 0.086062
H	-0.2918936523	-2.7812541058	 1.4104403235	 0.094194
H	-0.7312461391	-1.2669079882	 2.2648386039	 0.120268
H	-4.6563806578	-1.0351880567	-0.691984193	 0.177934
120.172	152.9284	247.2418	317.285	337.2708	432.7396	455.4863	495.8326	549.7086	557.2142	575.9713	645.5048	649.8242	705.8671	801.2994	825.3632	921.4828	929.7367	956.1072	1004.5389	1014.6972	1057.0067	1078.4844	1109.6039	1127.3881	1165.9503	1218.8168	1233.4379	1269.4664	1303.2973	1336.5564	1352.751	1480.0315	1509.5566	2227.4701	3037.8634	3113.3346	3140.6132	3210.2577	3429.6897	3504.6555	3781.7651
OC12C3NC1CC23C#C	O[C@@]12[C@H]3N[C@@H]1C[C@@]23C#C	
InChI=1S/C7H7NO/c1-2-6-3-4-7(6,9)5(6)8-4/h1,4-5,8-9H,3H2	InChI=1S/C7H7NO/c1-2-6-3-4-7(6,9)5(6)8-4/h1,4-5,8-9H,3H2/t4-,5+,6-,7-/m1/s1
