16
gdb 124336	4.16843	1.14181	0.90633	3.2471	75.24	-0.2722	-0.0534	0.2188	1259.3433	0.123796	-434.107629	-434.098975	-434.098031	-434.14168	30.302	
C	-0.0991044761	 1.4629388087	-0.0052052944	-0.483447
C	 0.0349649099	-0.0390679626	 0.0250488609	 0.443777
O	 1.0656871177	-0.6487652521	 0.058565533	-0.27549
N	-1.2155946193	-0.7400176088	 0.0113855382	 0.031869
N	-2.3981179619	-0.1011987986	-0.0255455515	-0.210347
C	-3.2793923962	-1.0830364936	-0.0260473772	-0.119336
C	-2.5949931575	-2.3288102708	 0.0115677138	 0.317541
C	-3.1436516757	-3.7171867529	 0.025665864	-0.496234
N	-1.2951796354	-2.0805969044	 0.0346186665	-0.251109
H	 0.9040873002	 1.8874547142	 0.0069409842	 0.148269
H	-0.6388278863	 1.7847842794	-0.8991654073	 0.161748
H	-0.6732752647	 1.8167343523	 0.8546185552	 0.161747
H	-4.339246271	-0.8797541662	-0.0523513689	 0.133988
H	-3.7496832033	-3.9116337356	-0.8654166479	 0.140597
H	-2.3266613423	-4.4399365669	 0.0551683767	 0.155798
H	-3.7850683381	-3.8797418622	 0.8981858948	 0.14063
74.4693	86.8893	131.1805	137.2796	186.1322	300.5958	331.8202	403.5125	532.7303	578.8547	620.2092	680.8981	693.1957	712.2886	888.0421	946.6075	989.6615	997.4543	1057.1442	1061.1058	1067.8349	1158.7653	1193.5744	1279.201	1323.4735	1393.3404	1401.6846	1413.1546	1445.1304	1461.2124	1468.9599	1483.2053	1490.4253	1585.9577	1854.5994	3042.3262	3065.0402	3096.3282	3132.8863	3143.6246	3171.9927	3257.2063
CC(=O)N1N=CC(C)=N1	CC(=O)n1ncc(C)n1	
InChI=1S/C5H7N3O/c1-4-3-6-8(7-4)5(2)9/h3H,1-2H3	InChI=1S/C5H7N3O/c1-4-3-6-8(7-4)5(2)9/h3H,1-2H3
