17
gdb 69116	2.66419	1.64236	1.24446	2.0419	69.62	-0.2404	-0.032	0.2084	1021.9048	0.134287	-458.955714	-458.9475	-458.946556	-458.988205	30.985	
C	-0.1401556111	 1.5201803491	 0.2151614423	-0.472814
C	 0.1240758301	 0.0517520034	 0.0756236338	 0.370284
C	-0.669431111	-1.0065404782	 0.7870211486	-0.408828
C	 0.8104098987	-0.8463676474	 1.1145136272	 0.25799
O	 1.7317336105	-1.6377009409	 0.4142966097	-0.299011
C	 1.3986466633	-1.5282068914	-0.960689402	-0.005612
O	 0.7289851961	-0.2970794878	-1.1447338139	-0.282737
C	 1.2788122066	-0.3451875513	 2.4174154517	 0.089376
O	 0.5742642123	 0.2522496396	 3.1993486994	-0.278539
H	 0.7477483737	 2.0942722514	-0.0637352996	 0.13324
H	-0.9667391282	 1.8238403663	-0.4350235622	 0.13379
H	-0.4049238916	 1.75388277	 1.2486857735	 0.154995
H	-1.3342667548	-0.6582797859	 1.5703410553	 0.150033
H	-0.9835625935	-1.9046949483	 0.2675932867	 0.130564
H	 2.3138718402	-1.5342880053	-1.5596804573	 0.130416
H	 0.750240355	-2.3677381352	-1.2571620343	 0.10242
H	 2.3532763638	-0.5422996183	 2.6151544513	 0.094434
127.8789	170.9064	209.3761	213.406	226.0195	286.9334	359.2978	408.285	463.5242	519.8574	638.913	703.6444	732.6016	748.7361	824.9313	921.8135	944.5982	960.5549	993.129	1046.8913	1062.278	1091.3673	1111.0297	1155.532	1167.4121	1227.3186	1252.8405	1287.0635	1366.5561	1409.5519	1424.2799	1439.5647	1461.9627	1486.3025	1500.1162	1551.6835	1797.6514	2918.4236	2975.4019	3045.6864	3086.1703	3112.7963	3137.7841	3140.2041	3234.7491
CC12CC1(OCO2)C=O	C[C@]12C[C@]1(OCO2)C=O	
InChI=1S/C6H8O3/c1-5-2-6(5,3-7)9-4-8-5/h3H,2,4H2,1H3	InChI=1S/C6H8O3/c1-5-2-6(5,3-7)9-4-8-5/h3H,2,4H2,1H3/t5-,6-/m0/s1
