17
gdb 17734	6.05464	1.74988	1.66639	1.6335	73.38	-0.2327	0.0929	0.3256	825.9673	0.143131	-326.605349	-326.599218	-326.598273	-326.635214	25.371	
C	 0.0056377761	 1.5502317892	-0.0077746452	-0.360753
C	 1.334584043	 0.793917213	-0.0238405077	-0.360758
C	 0.0424424662	 0.0670309632	 0.0849115299	 0.445214
C	-0.5336775339	-0.965210984	 1.0236527791	-0.18076
C	-1.7175599361	-1.1627674603	 0.0237311554	 0.008613
C	-1.5213992006	-2.6770811538	-0.0872934744	-0.26441
C	-0.1174005453	-2.0734797369	 0.004384805	 0.008611
N	-0.515823036	-0.8922769164	-0.9329737134	-0.209904
H	-0.2447360427	 2.1258640601	 0.877723046	 0.112315
H	-0.3280018033	 1.9894967289	-0.9423263383	 0.121996
H	 1.8654822169	 0.741173662	-0.9688383871	 0.121995
H	 1.973423271	 0.863483426	 0.8509117877	 0.112315
H	-0.5488854601	-1.0151644201	 2.1172415716	 0.066895
H	-2.6246386562	-0.5619432081	-0.0546457241	 0.084842
H	-1.8564891886	-3.2837948991	 0.7576246995	 0.099018
H	-1.7903266976	-3.1292416255	-1.0454541086	 0.109929
H	 0.8607493221	-2.5456151653	-0.0967851553	 0.084842
171.8536	245.8797	262.2416	450.6983	503.4589	579.7829	705.0037	764.4076	814.7392	820.6856	843.9515	854.5834	876.15	897.6429	920.9257	964.7048	1010.0188	1024.6805	1024.9309	1036.9443	1046.7783	1074.6893	1114.4059	1122.6812	1148.3932	1170.2959	1182.6408	1184.0326	1227.3941	1230.1532	1244.0989	1311.2306	1413.2612	1451.5759	1494.4156	1515.201	3050.8444	3058.1621	3105.1545	3111.2325	3123.4844	3124.3576	3126.9793	3204.5593	3218.0889
C1CC11C2C3CC2N13	C1CC21[C@H]1[C@@H]3C[C@H]1N23	
InChI=1S/C7H9N/c1-2-7(1)6-4-3-5(6)8(4)7/h4-6H,1-3H2	InChI=1S/C7H9N/c1-2-7(1)6-4-3-5(6)8(4)7/h4-6H,1-3H2/t4-,5+,6-
