22
gdb 60426	3.37222	0.72186	0.67751	5.3741	79.28	-0.2475	0.0215	0.269	1749.2149	0.193204	-441.523465	-441.513011	-441.512067	-441.560049	37.665	
C	-0.27678178	 1.3563291708	 0.7382108054	-0.389774
C	-0.1130916463	 0.0191875208	 0.0039510572	 0.012459
C	 0.9796465915	-0.8406122448	 0.6522010888	-0.379533
C	-1.4620946094	-0.7084299688	-0.0640055557	-0.127688
N	-1.3953771871	-1.9393188256	-0.8612290248	-0.325191
H	-1.0233991503	-1.7309963829	-1.7809474597	 0.231254
H	-1.0256710906	-3.3940875317	 0.3663306011	 0.306382
C	-2.6684055841	-2.6487013505	-0.9709695125	-0.30913
C	-2.8526927845	-3.6515359493	 0.1801343704	 0.420989
O	-1.7048880311	-3.948029074	 0.8086967412	-0.363109
O	-3.9097861504	-4.1415058708	 0.4678664243	-0.330554
H	 0.6660400112	 1.9113319727	 0.7536376073	 0.117523
H	-1.031837196	 1.9891793465	 0.2603932404	 0.114284
H	-0.5838231843	 1.1962984958	 1.7783868646	 0.120609
H	 0.1933422897	 0.2395971099	-1.0306517307	 0.070844
H	 1.129211531	-1.7778647632	 0.1099803717	 0.117386
H	 1.9347511685	-0.3063402036	 0.6718236501	 0.11505
H	 0.7166488578	-1.0881464663	 1.6876429906	 0.1198
H	-1.780132797	-0.985543516	 0.9500998347	 0.118806
H	-2.2301941612	-0.0204166128	-0.4568155253	 0.092452
H	-3.5485899014	-1.9920071469	-0.992376692	 0.128637
H	-2.6789138359	-3.2322729091	-1.8978389672	 0.138505
49.6886	55.7275	74.4171	146.47	188.456	230.3151	259.4093	302.6726	310.6305	380.3724	418.3609	441.5283	549.0402	563.5374	666.5785	766.9223	828.9597	849.4194	871.2035	927.4998	933.5883	942.6155	972.2454	985.7217	1057.4879	1137.0904	1148.1995	1170.8318	1198.4145	1214.8143	1261.0113	1279.1831	1331.5892	1354.084	1371.3466	1393.5628	1401.4044	1415.7306	1428.4838	1469.1647	1480.5053	1489.9374	1490.9815	1505.7257	1512.1042	1515.5275	1880.1288	2956.7961	2981.3265	3019.5583	3029.359	3032.8057	3039.3939	3080.613	3094.8953	3099.037	3107.2963	3115.2513	3492.8096	3534.8571
CC(C)C[NH2+]CC([O-])=O	CC(C)CNCC(=O)O	
InChI=1S/C6H13NO2/c1-5(2)3-7-4-6(8)9/h5,7H,3-4H2,1-2H3,(H,8,9)	InChI=1S/C6H13NO2/c1-5(2)3-7-4-6(8)9/h5,7H,3-4H2,1-2H3,(H,8,9)
