14
gdb 64628	2.96708	1.45582	1.36124	2.6686	66.19	-0.2762	-0.0414	0.2347	967.4187	0.100217	-436.662958	-436.655324	-436.654379	-436.695023	28.748	
O	-0.0877496661	 1.4468146918	-0.0289444756	-0.440196
C	 0.0011572394	 0.0371945365	 0.0235460584	 0.207067
C	 0.6392769959	-0.5089776448	 1.3049954349	-0.145797
C	-0.1757075894	-1.3353663581	 1.9584583252	-0.072361
C	-1.4937566241	-1.4327368285	 1.2553397895	-0.008743
O	-2.1719644605	-0.1548523981	 1.2007263761	-0.240678
C	-1.4179999559	-0.5671644096	 0.0742671635	 0.016032
C	 0.7214321039	-0.4797871592	-1.1620480562	 0.22639
N	 1.3008644021	-0.8679092592	-2.0839851399	-0.328676
H	 0.8041058143	 1.8110133784	-0.0664696129	 0.297235
H	 1.6279182532	-0.1908873616	 1.6142250274	 0.122304
H	 0.0413213872	-1.8325531119	 2.8954817234	 0.12515
H	-2.1362541184	-2.3037108864	 1.3239507001	 0.116285
H	-1.9603414316	-0.7252896593	-0.8521135036	 0.125987
114.0128	143.4904	207.8962	254.6526	275.4522	404.5707	462.689	497.6152	525.435	581.8784	654.0634	747.634	775.8427	829.4511	848.8321	875.7717	957.4509	984.4082	1033.2447	1045.0927	1094.6515	1109.5755	1120.9667	1146.664	1254.147	1293.335	1350.1181	1378.9962	1417.9436	1669.3051	2347.7127	3171.3635	3184.7711	3200.3796	3225.7178	3805.2368
OC1(C=CC2OC12)C#N	O[C@]1(C=C[C@H]2O[C@@H]12)C#N	
InChI=1S/C6H5NO2/c7-3-6(8)2-1-4-5(6)9-4/h1-2,4-5,8H	InChI=1S/C6H5NO2/c7-3-6(8)2-1-4-5(6)9-4/h1-2,4-5,8H/t4-,5-,6-/m1/s1
