14
gdb 20311	5.98925	1.38883	1.13522	2.5495	68.13	-0.2351	0.026	0.2612	985.6551	0.10846	-341.572035	-341.564836	-341.563892	-341.604843	26.227	
C	-0.2386320695	-0.864724467	-1.0032462854	-0.424956
C	-0.0811107339	 0.0718602655	-0.2667720959	 0.282345
C	 0.1421778242	 1.2153664427	 0.6130451736	-0.478036
C	 1.4683455925	 1.8950571284	 0.3850526138	 0.392318
C	 2.053667758	 2.9897645282	 0.9933441196	-0.308619
C	 3.2961983623	 3.1360254139	 0.3421436723	-0.002937
N	 3.4790022383	 2.2115690489	-0.597436322	-0.234781
N	 2.3543100608	 1.4735610124	-0.5482443498	-0.235839
H	-0.4021083185	-1.6968483151	-1.6429459994	 0.207205
H	-0.6700026168	 1.941174361	 0.4760214809	 0.158516
H	 0.0738183826	 0.8863591335	 1.6581714592	 0.158519
H	 1.640713242	 3.5897476494	 1.7883597372	 0.100147
H	 4.062799265	 3.876075786	 0.5200345055	 0.110873
H	 2.233563733	 0.6907156221	-1.1707839296	 0.275245
17.6573	127.1856	237.4651	317.0275	320.9447	473.8136	568.4973	624.2209	651.3574	664.2792	701.4308	722.4221	796.415	894.0993	940.1612	950.724	960.6026	1037.2458	1063.0435	1135.1178	1217.2139	1236.4982	1285.7086	1312.099	1371.5179	1441.505	1465.0513	1509.0775	1596.1127	2240.3862	3019.4421	3042.8932	3242.8128	3265.599	3503.1444	3655.8363
C#CCC1=CC=NN1	C#CCc1ccn[nH]1	
InChI=1S/C6H6N2/c1-2-3-6-4-5-7-8-6/h1,4-5H,3H2,(H,7,8)	InChI=1S/C6H6N2/c1-2-3-6-4-5-7-8-6/h1,4-5H,3H2,(H,7,8)
