23
gdb 58495	2.28672	1.13245	0.96804	3.3674	87.52	-0.2423	-0.0165	0.2258	1372.6446	0.202892	-388.302459	-388.29187	-388.290926	-388.337887	39.274	
C	-0.3415750945	 1.4639357126	 0.0802012389	-0.401369
C	 0.1089185548	 0.0039037685	-0.0931798152	-0.03293
C	 0.9723662325	-0.164842785	-1.3523381291	-0.402086
C	 0.8001723959	-0.5262003493	 1.1698955976	 0.365214
C	 2.0648817844	 0.1993750305	 1.6024624309	-0.468164
C	-0.0566249639	-1.0970086648	 2.2522336942	-0.351377
C	 0.8221133929	-2.042721029	 1.4367521818	-0.145777
C	 0.1870153576	-3.029577171	 0.5376775711	 0.155102
O	 0.6643271112	-4.1063382199	 0.2685776017	-0.27805
H	 0.5115052117	 2.1467970207	 0.1470528469	 0.118826
H	-0.9452803434	 1.7804047176	-0.7762404382	 0.114675
H	-0.946268787	 1.5898943518	 0.9840792954	 0.115071
H	-0.8017528045	-0.589013781	-0.2390564968	 0.073418
H	 1.8800171137	 0.4457943261	-1.3023246851	 0.117893
H	 1.2773552294	-1.2063047085	-1.4948981522	 0.126756
H	 0.4177776085	 0.1481379288	-2.2427338774	 0.11463
H	 1.8625224255	 1.2522945169	 1.8230799547	 0.124381
H	 2.4806829645	-0.2509816115	 2.5084581965	 0.119251
H	 2.8386756152	 0.1599666689	 0.8295413801	 0.127224
H	 0.2172154381	-0.9437994525	 3.2905257779	 0.121218
H	-1.1270802912	-1.1591668966	 2.0773329551	 0.118134
H	 1.7205709677	-2.4255105273	 1.9100080773	 0.100898
H	-0.800702159	-2.728032626	 0.1203222238	 0.067062
58.6285	90.5662	136.0986	197.2219	215.1991	232.9282	247.0178	269.9575	292.7955	338.552	379.4169	401.4229	455.0632	488.7138	573.6144	660.5548	824.4835	860.3018	880.8536	928.4905	934.9693	941.0931	966.7565	1018.931	1035.4648	1053.0202	1075.0703	1109.0088	1113.9291	1144.0891	1189.0305	1191.5526	1250.2219	1307.4669	1344.9667	1350.0179	1390.672	1399.4185	1415.7726	1425.5397	1452.5312	1481.7004	1486.746	1488.3388	1499.5253	1504.2117	1508.0187	1512.4983	1807.3013	2864.3495	3028.2112	3032.2096	3035.2801	3040.2452	3097.0897	3103.3691	3104.3478	3106.461	3107.4706	3110.1588	3123.4617	3167.229	3209.7205
CC(C)C1(C)CC1C=O	CC(C)[C@@]1(C)C[C@H]1C=O	
InChI=1S/C8H14O/c1-6(2)8(3)4-7(8)5-9/h5-7H,4H2,1-3H3	InChI=1S/C8H14O/c1-6(2)8(3)4-7(8)5-9/h5-7H,4H2,1-3H3/t7-,8+/m0/s1
