19
gdb 32918	4.06772	0.88625	0.74658	2.0274	81.95	-0.1736	0.0407	0.2143	1541.6697	0.159598	-419.228749	-419.219274	-419.218329	-419.263976	34.446	
C	 0.037260004	 1.3594895675	 0.2374578382	-0.393725
C	-0.18224885	-0.0843752488	-0.1996146945	-0.121065
N	 0.9054857712	-0.5218630416	-1.0803495159	-0.402831
C	 0.9263179964	-1.839125012	-1.5079557721	 0.423533
C	 1.2468550691	-2.4257961279	-2.6981030929	-0.297421
C	 1.2047803651	-3.8414980129	-2.4590712234	-0.171018
C	 0.8440576792	-4.0249347032	-1.1665526787	 0.277984
N	 0.6128977254	-5.1713042954	-0.4077192405	-0.602026
O	 0.6712425496	-2.7781767254	-0.5635824677	-0.206791
H	 0.9968198704	 1.4672678761	 0.7510323534	 0.130642
H	 0.0349975719	 2.0393478474	-0.6227200714	 0.11307
H	-0.760140452	 1.6809082234	 0.9135059095	 0.120618
H	-0.1855105979	-0.7453709816	 0.6708340112	 0.129402
H	-1.1678783004	-0.1886468745	-0.6831801305	 0.092597
H	 1.047478435	 0.1093393549	-1.8582243342	 0.233965
H	 1.486513943	-1.9194159254	-3.6195585222	 0.088596
H	 1.4091947744	-4.6319498705	-3.1638327277	 0.103511
H	 1.1407203264	-5.1701406202	 0.4596160281	 0.24093
H	-0.367693391	-5.2946690296	-0.1720080988	 0.240028
48.373	62.1527	115.6223	149.3531	223.2293	255.0086	316.021	346.7585	373.8852	480.8727	606.6582	626.9958	671.9981	699.4676	743.171	757.8865	791.9904	815.7344	839.2253	918.7925	964.9608	1005.3343	1030.1035	1072.3541	1134.7245	1161.8106	1174.7846	1218.8265	1252.2667	1291.097	1307.6767	1367.7433	1398.0789	1414.4028	1477.8856	1495.42	1500.1506	1522.8432	1634.9254	1657.2608	1694.7441	2962.8748	3033.6258	3086.0389	3107.2827	3122.4213	3250.9524	3266.1802	3483.3811	3548.0148	3574.1816
CCNC1=CC=C(N)O1	CCNc1ccc(N)o1	
InChI=1S/C6H10N2O/c1-2-8-6-4-3-5(7)9-6/h3-4,8H,2,7H2,1H3	InChI=1S/C6H10N2O/c1-2-8-6-4-3-5(7)9-6/h3-4,8H,2,7H2,1H3
