20
gdb 80462	2.55676	1.48335	1.22361	2.8513	79.52	-0.2272	-0.0222	0.205	1118.0056	0.170971	-403.15083	-403.142067	-403.141123	-403.18422	33.124	
C	-0.6565081813	 1.2009785606	 0.0510144185	-0.402029
C	 0.1913724237	-0.0744259027	-0.001732877	-0.102993
C	 1.1510918989	-0.1677039691	-1.212965524	-0.263203
C	 2.5095302538	-0.6175402525	-0.6737068509	-0.033368
C	 2.4690344175	-0.6378044278	 0.8352022125	-0.155691
N	 2.6183402942	-1.862005367	 0.0441751225	-0.084087
C	 1.6303624365	-2.929923949	-0.0119265273	-0.325183
C	 1.0945927182	-0.1875851895	 1.2415796448	 0.414733
O	 0.7646841776	 0.115412196	 2.3629558122	-0.335974
H	-0.0247591251	 2.0941118648	-0.0010229653	 0.11968
H	-1.3635325562	 1.2360367642	-0.7830027612	 0.114089
H	-1.2139376176	 1.2392128774	 0.9900566771	 0.14095
H	-0.4929656648	-0.9327668806	 0.0228745836	 0.107122
H	 0.7824870336	-0.8399085184	-1.995166477	 0.110113
H	 1.2682371415	 0.8181738212	-1.6756195418	 0.112196
H	 3.4045630869	-0.3074499762	-1.2077643968	 0.099092
H	 3.2971781655	-0.3880002234	 1.4917482921	 0.105557
H	 0.600164968	-2.6276737816	-0.2421032038	 0.109942
H	 1.9481211853	-3.6403901084	-0.7817749263	 0.130832
H	 1.6274328637	-3.4531048778	 0.948391738	 0.138221
75.3807	125.187	164.9466	215.993	232.0644	265.7867	353.7647	390.4107	442.5895	461.667	613.5065	668.3232	717.8164	735.8555	769.982	829.6186	885.8158	937.309	944.5218	1015.9852	1022.8775	1079.8015	1100.3713	1110.0109	1121.911	1159.1125	1174.254	1201.7828	1222.8649	1273.9853	1285.0175	1315.2515	1321.4795	1344.3911	1395.1253	1407.5637	1457.5558	1483.9543	1493.1459	1495.3069	1498.7754	1507.183	1820.5478	3010.9408	3018.8194	3037.7594	3043.1088	3077.1541	3079.469	3106.2355	3112.517	3128.0571	3135.0517	3159.5961
CC1CC2C(N2C)C1=O	C[C@H]1C[C@H]2[C@H](N2C)C1=O	
InChI=1S/C7H11NO/c1-4-3-5-6(7(4)9)8(5)2/h4-6H,3H2,1-2H3	InChI=1S/C7H11NO/c1-4-3-5-6(7(4)9)8(5)2/h4-6H,3H2,1-2H3/t4-,5-,6-,8?/m0/s1
