21
gdb 63756	3.06538	1.31789	1.18201	1.499	85.11	-0.2222	0.0238	0.246	1150.3221	0.182603	-387.08053	-387.072025	-387.071081	-387.11303	34.212	
C	-0.1538985745	 1.548739102	-0.1400280123	-0.448109
C	-0.0346944934	 0.035014619	-0.0383503997	 0.379899
O	-1.2728002978	-0.6034659871	-0.2769223865	-0.478855
C	 1.2138512743	-0.5484983449	-0.836595748	-0.393925
C	 1.9092171297	-0.576178442	 0.5000438987	 0.325619
C	 2.9731355445	-0.1879326854	 1.1941705044	-0.24755
C	 2.5624094502	 0.0699935768	 2.6428680078	-0.23563
C	 1.0085475611	 0.2634041447	 2.5574721561	-0.255111
C	 0.6279693345	-0.5099928799	 1.2810487019	-0.057591
H	 0.7999555002	 2.039148118	 0.0740293799	 0.126411
H	-0.4546526794	 1.8413254289	-1.1540056018	 0.103551
H	-0.906286984	 1.923013285	 0.5607607854	 0.125274
H	-1.6394055974	-0.2552202502	-1.0972367555	 0.27394
H	 0.9609598117	-1.5428021834	-1.2185314968	 0.112158
H	 1.6517305296	 0.0530622874	-1.6381847968	 0.100856
H	 3.9754062966	-0.0075053497	 0.8223261448	 0.088297
H	 2.8221851562	-0.7728963435	 3.299249681	 0.103836
H	 3.0653771044	 0.9487819481	 3.0620756392	 0.098065
H	 0.4904955507	-0.0876805573	 3.4539934285	 0.095215
H	 0.7839047237	 1.3298319268	 2.4483417129	 0.100347
H	 0.1826503291	-1.4910564832	 1.4854670168	 0.083304
97.7018	198.1565	236.6026	268.4216	281.8123	299.5598	344.7513	374.5337	399.754	507.582	591.6695	633.7267	662.6038	764.7767	803.1345	829.4842	855.7506	891.7707	897.3146	935.5722	953.8577	970.9834	1014.7546	1053.6011	1064.6811	1095.7794	1124.6492	1137.5289	1170.8247	1192.065	1204.6825	1219.6645	1252.1254	1277.5526	1307.8446	1329.6604	1345.259	1369.4935	1406.7878	1468.5442	1481.0696	1492.1217	1494.8828	1501.0686	1740.4457	3004.5036	3023.7372	3033.376	3044.547	3045.2807	3059.1263	3090.4003	3097.5891	3101.3048	3118.1377	3193.2872	3797.3385
CC1(O)CC2=CCCC12	C[C@@]1(O)C[C]2[CH]CC[C@@H]12	
InChI=1S/C8H12O/c1-8(9)5-6-3-2-4-7(6)8/h3,7,9H,2,4-5H2,1H3	InChI=1S/C8H12O/c1-8(9)5-6-3-2-4-7(6)8/h3,7,9H,2,4-5H2,1H3/t7-,8-/m1/s1
