21
gdb 76118	2.95511	1.28609	1.08201	0.9495	88.58	-0.2482	0.05	0.2983	1212.2545	0.180631	-349.903157	-349.893677	-349.892733	-349.936829	36.531	
C	-0.1932311416	 1.5782502818	 0.1075261822	-0.415545
C	 0.0320360233	 0.0747076382	 0.0465360688	-0.047544
C	 1.145238053	-0.5183625236	-0.9214320909	-0.208946
C	 1.9782540897	 0.4022875387	-1.6739770028	 0.350248
C	 2.6634435757	 1.1804527683	-2.2848514474	-0.482229
C	 1.7734303424	-1.2263764749	 0.2951846264	-0.104829
C	 2.1505421735	-0.2187924909	 1.3440816997	-0.338306
C	 0.7098547064	-0.6434572594	 1.2285773146	 0.363474
C	-0.0440981958	-1.2924928338	 2.3546027748	-0.50076
H	 0.7316819326	 2.1211080575	 0.318533907	 0.125091
H	-0.5832895775	 1.9539797562	-0.8439858148	 0.119727
H	-0.9190979892	 1.8262024062	 0.8899023066	 0.110877
H	-0.9147115889	-0.4241177093	-0.186587785	 0.073251
H	 0.6903909556	-1.2388273859	-1.6074043602	 0.099837
H	 3.2726994318	 1.8573718716	-2.8306423589	 0.192161
H	 2.1959847977	-2.2239667778	 0.2690777523	 0.086687
H	 2.6750819133	-0.6270375033	 2.2026279641	 0.107795
H	 2.4856462933	 0.773283849	 1.0540965296	 0.117093
H	-0.4869826176	-0.5442529601	 3.0234193414	 0.120581
H	-0.8587801278	-1.9229879422	 1.9790186015	 0.113821
H	 0.6143728499	-1.923434576	 2.9608347807	 0.117514
94.6202	130.4753	179.5259	192.2282	195.0592	243.8527	291.6035	335.7757	391.7574	469.1519	524.2202	579.2092	617.9987	626.9412	658.5168	689.2374	768.3721	815.8095	891.8487	910.4907	949.8799	975.1542	986.9205	1021.7235	1063.5778	1073.1894	1102.481	1107.6186	1116.2197	1138.259	1188.4548	1243.8509	1258.7473	1297.1809	1330.6081	1362.0854	1400.5407	1410.9963	1426.614	1485.0251	1490.0102	1490.7362	1497.1743	1503.7068	2226.4921	3017.2263	3034.4177	3040.9273	3062.7163	3074.3142	3092.2663	3098.0864	3114.7416	3118.8808	3176.5565	3199.7116	3504.018
CC1C(C#C)C2CC12C	C[C@H]1[C@@H](C#C)[C@H]2C[C@@]12C	
InChI=1S/C9H12/c1-4-7-6(2)9(3)5-8(7)9/h1,6-8H,5H2,2-3H3	InChI=1S/C9H12/c1-4-7-6(2)9(3)5-8(7)9/h1,6-8H,5H2,2-3H3/t6-,7+,8+,9-/m0/s1
