17
gdb 43769	3.91442	1.10074	0.9962	3.4306	73.59	-0.2413	-0.0264	0.2149	1206.0484	0.134714	-421.786544	-421.778645	-421.777701	-421.819533	30.115	
O	 0.1174870145	 0.0052551429	 0.0117189729	-0.297686
C	 0.0519384445	 1.1949193766	 0.0909216808	 0.434308
C	-1.1358670927	 2.1978556158	 0.2291709425	-0.431352
C	-0.1052106184	 3.3047992541	-0.0786860089	 0.444332
O	 0.8432051677	 3.2269567792	 0.9860833019	-0.283698
C	 1.0321527443	 2.3358540384	-0.1382867694	-0.191025
C	-0.2898408875	 4.5926535807	-0.7777733627	-0.112753
C	-1.3420068643	 4.7535571961	-1.8502366336	-0.277282
C	-1.5236723884	 5.4300146385	-0.5193666699	-0.264673
H	-1.8793698037	 2.0069169523	-0.550071488	 0.134279
H	-1.6211205139	 2.2731833074	 1.2040270884	 0.1357
H	 1.987096432	 2.3669633483	-0.6500234505	 0.11917
H	 0.6404203471	 5.1330563513	-0.9205574387	 0.099791
H	-1.0858182898	 5.3594032674	-2.7116497663	 0.123455
H	-1.976487205	 3.9049269967	-2.079982272	 0.120307
H	-2.2722388346	 5.0269689377	 0.1539682017	 0.123437
H	-1.3993157918	 6.5048864567	-0.4577559982	 0.123691
65.7381	95.9876	167.6428	231.3515	358.8652	416.8397	460.966	481.9704	570.4489	599.1593	683.9193	766.4921	782.0082	829.0844	857.1317	897.7303	923.559	959.9957	988.5266	1001.2233	1032.2595	1055.8869	1069.0783	1084.4431	1122.6681	1131.7798	1188.2277	1198.8122	1211.7311	1221.0259	1265.0968	1334.0724	1436.7874	1468.9069	1474.3822	1509.0201	1899.3773	3069.115	3131.8954	3139.1607	3143.1808	3161.8871	3193.6639	3218.4041	3233.0436
O=C1CC2(OC12)C1CC1	O=C1C[C@]2(O[C@@H]12)C1CC1	
InChI=1S/C7H8O2/c8-5-3-7(4-1-2-4)6(5)9-7/h4,6H,1-3H2	InChI=1S/C7H8O2/c8-5-3-7(4-1-2-4)6(5)9-7/h4,6H,1-3H2/t6-,7-/m0/s1
