20
gdb 13407	5.7303	1.03154	0.92566	1.0283	71.97	-0.2524	0.0911	0.3435	1308.9181	0.177132	-386.150315	-386.141541	-386.140597	-386.184922	30.774	
C	-0.096511181	 1.5471849887	 0.0634023213	-0.381158
C	-0.0011015733	 0.0221869775	-0.0254916121	-0.16683
C	 0.6364618266	-0.4555512187	-1.3341259034	-0.199049
C	 0.7338843199	-1.9655239144	-1.4244840476	 0.220541
O	-0.5586275453	-2.5562655944	-1.4086853271	-0.267804
C	-0.5276307217	-3.6990111573	-2.2574488994	-0.086863
C	 0.8974910323	-3.6869955849	-2.850678848	-0.112222
O	 1.3261872294	-2.3521011828	-2.6430478278	-0.249249
H	 0.8940303298	 2.0124126068	 0.0053624254	 0.112579
H	-0.6997467287	 1.9540337355	-0.7557330932	 0.115518
H	-0.5578179778	 1.8622626396	 1.0044922657	 0.111506
H	 0.5817116932	-0.3590479564	 0.8236260815	 0.093207
H	-0.9988384519	-0.4210524674	 0.0637690282	 0.117831
H	 0.0553133463	-0.1083685629	-2.1960419729	 0.105802
H	 1.6492704836	-0.047537548	-1.437069699	 0.103628
H	 1.3240009905	-2.3753141264	-0.580239595	 0.054649
H	-0.7297046697	-4.6128595325	-1.6854808677	 0.10249
H	-1.3003587023	-3.5900415295	-3.0271619851	 0.109395
H	 1.5526305914	-4.3957273325	-2.3216622013	 0.098014
H	 0.9331103387	-3.9033546901	-3.9204715926	 0.118013
42.3045	83.0963	93.0297	126.7548	214.2297	249.204	315.411	381.1457	525.7016	697.1959	721.8898	750.4812	836.1409	872.7496	908.6687	934.7663	953.9623	993.0499	1045.9535	1059.0528	1080.2429	1126.9748	1147.1845	1161.5786	1182.262	1225.7358	1245.277	1259.23	1295.4064	1324.103	1342.1206	1376.5709	1384.3904	1402.7637	1412.5019	1439.0579	1475.8668	1493.9057	1499.4804	1510.9226	1515.2252	1533.3881	2899.1778	2989.1861	3020.5551	3022.9003	3028.3719	3035.7871	3060.0072	3063.5877	3083.2246	3099.8261	3102.3487	3107.9635
CCCC1OCCO1	CCCC1OCCO1	
InChI=1S/C6H12O2/c1-2-3-6-7-4-5-8-6/h6H,2-5H2,1H3	InChI=1S/C6H12O2/c1-2-3-6-7-4-5-8-6/h6H,2-5H2,1H3
