19
gdb 70100	2.45435	1.89752	1.33124	1.8956	80.52	-0.2323	0.0037	0.2359	1013.9646	0.159174	-385.870655	-385.862813	-385.861869	-385.902447	31.722	
C	-0.0912186597	 1.506485461	 0.0683364771	-0.501726
C	 0.1095186125	 0.0195209835	-0.0327387696	 0.313659
O	-0.4976240192	-0.7672508786	 1.0063024607	-0.303956
C	 0.9470932445	-0.7898911029	 0.877089514	-0.077037
C	 1.4548464692	-1.9563020336	 0.0956476063	-0.114029
C	 0.9586274967	-1.915542502	-1.1458533265	-0.150551
C	 0.120527312	-0.7047496288	-1.368572901	 0.305124
C	-1.0969994544	-0.7330570464	-2.2700726608	-0.300752
C	 0.1253696725	 0.0216170437	-2.7013049824	-0.320716
H	 0.6840456614	 2.0520473947	-0.4782802536	 0.125769
H	-1.0653271259	 1.8025540581	-0.3389389263	 0.124678
H	-0.0626943504	 1.8125335815	 1.1166139274	 0.132283
H	 1.4871977538	-0.3766446202	 1.724535065	 0.089436
H	 2.0940707193	-2.7271634028	 0.5061937676	 0.101592
H	 1.103453474	-2.6662209585	-1.9155210126	 0.100736
H	-1.3339280186	-1.6685999763	-2.7648095694	 0.11883
H	-1.9652197986	-0.1683602823	-1.9470100009	 0.123024
H	 0.090110817	 1.1053175857	-2.6883341094	 0.118296
H	 0.7407630439	-0.3939249258	-3.4920667455	 0.115342
129.2245	208.2536	224.1695	254.9183	287.4314	357.2752	422.4831	467.7118	545.6444	600.5142	635.216	742.5348	764.3213	779.4505	833.2242	853.5643	909.7244	915.7474	938.1937	956.4912	970.9006	989.5857	1005.7069	1058.6376	1066.7838	1080.7607	1104.6563	1128.586	1183.2903	1192.0654	1274.889	1293.2362	1344.1071	1391.6875	1404.3603	1436.4293	1466.3635	1486.7196	1496.4827	1501.754	1649.0205	3032.5877	3095.2934	3127.3481	3131.9108	3135.1614	3152.0897	3184.9746	3210.6777	3221.7656	3225.5866
CC12OC1C=CC21CC1	C[C@]12O[C@H]1C=CC12CC1	
InChI=1S/C8H10O/c1-7-6(9-7)2-3-8(7)4-5-8/h2-3,6H,4-5H2,1H3	InChI=1S/C8H10O/c1-7-6(9-7)2-3-8(7)4-5-8/h2-3,6H,4-5H2,1H3/t6-,7-/m0/s1
