18
gdb 42477	4.25511	0.73103	0.64664	3.7883	81.95	-0.2542	-0.0229	0.2313	1701.8092	0.146298	-401.927287	-401.917732	-401.916788	-401.963335	34.246	
O	-0.0594470676	 0.1753190629	-0.9422971735	-0.360519
C	 0.0188290678	 1.1270371426	-0.1859862437	 0.290682
N	 1.1686732907	 1.5400175135	 0.4190362337	-0.318444
C	 2.4588711888	 0.9083221518	 0.187057618	-0.186806
C	 3.5185350485	 1.9163428055	-0.1943943041	 0.021589
C	 4.2381597494	 2.7001935347	 0.8795075302	-0.267307
C	 4.9657777823	 1.6297475379	 0.105005577	-0.267559
C	-1.1394365679	 1.9453829136	 0.1601459704	 0.213639
C	-2.1132560542	 2.5982815274	 0.4266298943	-0.405869
H	 1.1288063607	 2.3534349255	 1.0127880988	 0.254787
H	 2.7773795083	 0.3606553329	 1.085529907	 0.104442
H	 2.3003060518	 0.172055944	-0.604459946	 0.152639
H	 3.3105844218	 2.4480538918	-1.1186599383	 0.095499
H	 4.4849855486	 3.7375306823	 0.6838211126	 0.117474
H	 3.9921335255	 2.4900840731	 1.9160280172	 0.110903
H	 5.2035203724	 0.7053568106	 0.6210951241	 0.116897
H	 5.7084508502	 1.9333570595	-0.6236340894	 0.11933
H	-2.982748447	 3.1660774606	 0.6523649418	 0.208622
28.6754	67.0702	70.5792	158.6176	227.4267	243.1482	295.306	364.3865	418.0613	497.7268	558.6238	602.6847	656.6272	674.746	763.8757	777.0089	802.5766	835.4438	893.1184	912.5898	958.9567	1046.5269	1059.3938	1080.7763	1090.0513	1141.0876	1180.9366	1198.5192	1225.7972	1233.6478	1287.1458	1354.8973	1424.249	1469.9416	1494.5944	1508.502	1533.503	1757.7437	2226.128	3003.9707	3110.3452	3128.4046	3136.8904	3150.0433	3209.6121	3225.3343	3496.5628	3635.6959
O=C(NCC1CC1)C#C	O=C(NCC1CC1)C#C	
InChI=1S/C7H9NO/c1-2-7(9)8-5-6-3-4-6/h1,6H,3-5H2,(H,8,9)	InChI=1S/C7H9NO/c1-2-7(9)8-5-6-3-4-6/h1,6H,3-5H2,(H,8,9)
