17
gdb 43986	3.23474	1.55309	1.31342	3.2681	72.28	-0.2437	-0.0211	0.2226	994.5127	0.1368	-421.811393	-421.804235	-421.803291	-421.842935	28.453	
O	-0.057673848	-0.0130124934	-0.3196220167	-0.299642
C	-0.0325337808	 1.1798007894	-0.2614243086	 0.363299
C	-1.1429446943	 2.2822920634	-0.3853537831	-0.421929
C	-0.118949435	 3.2158946507	 0.2819419458	 0.325195
C	-0.0103020333	 4.0528859752	 1.5306375851	-0.315067
C	 1.4530346021	 3.7843441418	 2.0051147812	-0.210473
C	 1.8366580575	 2.3493622914	 1.5151830577	-0.323694
C	 0.9618813073	 2.1863840565	 0.3036622878	 0.186434
O	 0.9778022629	 3.301041717	-0.6139745729	-0.288201
H	-1.4760227363	 2.5765176687	-1.3815894259	 0.135007
H	-2.0028889628	 2.009048908	 0.2332241892	 0.134097
H	-0.20295036	 5.1184763313	 1.3744878407	 0.118799
H	-0.7409439704	 3.6901007275	 2.2630340607	 0.114292
H	 2.1198646622	 4.5118822542	 1.5384533684	 0.128954
H	 1.5578177294	 3.890018411	 3.087585184	 0.108414
H	 2.9074900244	 2.2556937876	 1.3167087624	 0.122801
H	 1.5676723052	 1.5848395699	 2.2525751241	 0.121714
93.6479	201.7276	238.9497	304.7127	386.9836	454.9994	534.1912	574.0695	592.353	655.7722	687.8707	739.7271	828.9581	849.6297	861.5912	878.8464	914.8855	965.3941	982.7054	1023.7281	1036.2443	1098.2596	1166.191	1186.6988	1200.6787	1205.0796	1241.3774	1247.1736	1326.5428	1335.5824	1352.0696	1391.3468	1450.0455	1482.7791	1484.1839	1499.5909	1885.1261	3044.1834	3052.2241	3070.4236	3075.2639	3088.4101	3097.9745	3125.648	3134.4331
O=C1CC23CCCC12O3	O=C1C[C@@]23CCC[C@@]12O3	
InChI=1S/C7H8O2/c8-5-4-6-2-1-3-7(5,6)9-6/h1-4H2	InChI=1S/C7H8O2/c8-5-4-6-2-1-3-7(5,6)9-6/h1-4H2/t6-,7+/m0/s1
