17
gdb 77039	3.16635	0.91204	0.80497	2.4506	76.73	-0.2472	-0.0265	0.2207	1417.1545	0.132863	-421.777074	-421.767575	-421.766631	-421.812056	34.299	
O	-0.1690297441	 1.3287564608	 0.1735313833	-0.407261
C	-0.1276700821	-0.0555011607	 0.0241453983	 0.081118
C	-1.4361351687	-0.7477683472	-0.0694082665	-0.051328
C	-2.7498416586	 0.023274112	 0.0269884495	-0.383134
C	-3.3102250424	-0.0443024917	 1.3727979647	 0.299975
C	-3.7609517	-0.1221786329	 2.4838507771	-0.436704
C	-0.5394431185	-0.6839979563	-1.3187851722	-0.194629
C	-0.8758353502	 0.1812550244	-2.4698345905	 0.159738
O	-0.6651209213	-0.1259895778	-3.6200899386	-0.277093
H	 0.6285905326	 1.7035689456	-0.2148022625	 0.29997
H	 0.6827461119	-0.554362255	 0.5538927823	 0.106742
H	-1.4810502261	-1.7350619083	 0.3787161024	 0.118286
H	-2.590387034	 1.0706486351	-0.2451448728	 0.155296
H	-3.4717367029	-0.3874352089	-0.6897504632	 0.139988
H	-4.1645830845	-0.1769527399	 3.4643339416	 0.197685
H	-0.0472921766	-1.6071300007	-1.6067217362	 0.109714
H	-1.3300613446	 1.1620815914	-2.2176994368	 0.081637
48.989	83.4521	120.8621	190.6632	207.7894	239.5604	338.034	347.2694	395.6271	432.4177	478.2592	563.2111	600.8358	618.8729	648.2715	770.2713	851.5538	897.121	936.3086	971.3122	1009.2721	1017.9956	1054.9027	1126.085	1147.6104	1182.9847	1230.8052	1247.5621	1288.0126	1315.827	1334.2757	1393.4419	1444.5695	1461.3006	1477.7928	1804.2077	2241.7862	2911.8608	3033.1715	3089.8611	3111.1604	3162.8038	3174.6264	3507.1303	3810.3639
OC1C(CC#C)C1C=O	O[C@H]1[C@@H](CC#C)[C@H]1C=O	
InChI=1S/C7H8O2/c1-2-3-5-6(4-8)7(5)9/h1,4-7,9H,3H2	InChI=1S/C7H8O2/c1-2-3-5-6(4-8)7(5)9/h1,4-7,9H,3H2/t5-,6+,7-/m0/s1
