16
gdb 69211	2.67633	1.66053	1.19385	2.9978	70.96	-0.2739	-0.0233	0.2506	1031.33	0.124829	-437.937242	-437.929523	-437.928579	-437.969368	29.485	
C	-0.0402740304	 1.5408279387	-0.0003144683	-0.477246
C	 0.0477466663	 0.0366210672	 0.015082847	 0.252223
C	-0.8146007433	-0.805792819	 0.9227477792	-0.321923
C	 0.6907204445	-0.8002623189	 1.1077967429	-0.243419
C	 1.3873507317	-1.9198404083	 0.4171535379	 0.443082
O	 2.1216199862	-2.7539323799	 0.845378635	-0.31922
O	 1.0553362729	-1.8689506565	-0.9379416953	-0.232566
C	 0.4138341331	-0.6750929087	-1.2457175284	 0.371563
N	 0.2068044559	-0.2641570327	-2.4156094859	-0.531926
H	 0.9070743987	 1.9868024791	-0.3161799863	 0.136763
H	-0.8117019745	 1.8643623669	-0.7039209617	 0.153331
H	-0.2914580938	 1.9252550928	 0.9921736812	 0.119668
H	-1.3819907461	-0.2689178575	 1.6746041152	 0.136979
H	-1.2953426185	-1.6993101158	 0.5405250991	 0.14443
H	 1.1324686492	-0.3971652687	 2.0085965568	 0.129778
H	 0.5654029581	-0.9231576387	-3.1080451084	 0.23848
133.103	145.8528	182.7018	253.7386	301.7119	344.1881	398.7049	529.1207	549.1616	633.1001	694.8496	741.3326	769.6476	809.1679	863.488	892.8981	908.3382	948.5669	983.1376	1010.9745	1031.5219	1081.4552	1089.8649	1118.0965	1151.6127	1237.9905	1282.3616	1345.0891	1397.6218	1423.118	1482.0166	1491.8285	1499.5481	1787.9347	1915.3352	3046.9866	3118.2828	3124.8219	3139.4698	3218.0022	3231.1287	3485.6479
CC12CC1C(=O)OC2=N	C[C@]12C[C@H]1C(=O)O[C]2[NH]	
InChI=1S/C6H7NO2/c1-6-2-3(6)4(8)9-5(6)7/h3,7H,2H2,1H3	InChI=1S/C6H7NO2/c1-6-2-3(6)4(8)9-5(6)7/h3,7H,2H2,1H3/t3-,6-/m0/s1
