14
gdb 124259	4.49861	1.04754	0.85415	1.3169	67.34	-0.2671	-0.073	0.1941	1261.0641	0.099742	-473.8412	-473.833084	-473.832139	-473.874473	29.173	
C	-0.0011796337	 1.495221276	-0.1190355227	-0.488107
C	-8.51*^-7	-0.0086137317	 0.034611503	 0.3019
O	 0.0160485462	-0.5737987654	 1.1067810543	-0.292095
C	-0.0201388319	-0.816886057	-1.2102572566	 0.366797
C	-0.0241597623	-2.1654434064	-1.4003568282	-0.418364
C	-0.0463456761	-2.2852346587	-2.8135193255	 0.476084
O	-0.0579014976	-3.4365636822	-3.4961371099	-0.414285
N	-0.0549012872	-1.1167585737	-3.419912144	-0.242362
O	-0.0382161241	-0.1761017057	-2.3974162579	-0.21901
H	 0.8689409501	 1.8188697189	-0.6997581521	 0.155639
H	-0.8866780418	 1.820285697	-0.6751558579	 0.155629
H	 0.0131602282	 1.9555195363	 0.8687838151	 0.146667
H	-0.0130981449	-2.9405141451	-0.6545476052	 0.155402
H	-0.0724713039	-3.2241408522	-4.4394313523	 0.316105
70.9039	120.2011	150.8349	159.5167	335.1843	352.2061	416.569	454.6787	505.6317	548.7351	613.4686	683.4	718.7582	735.7981	851.1023	937.1337	972.3017	1002.5074	1043.4311	1045.5871	1095.2965	1217.6581	1242.3956	1305.2487	1387.6766	1458.8946	1468.9956	1503.5351	1557.0545	1644.2091	1788.2657	3046.0851	3108.1278	3162.8457	3300.7721	3776.7331
CC(=O)C1=CC(O)=NO1	CC(=O)c1cc(O)no1	
InChI=1S/C5H5NO3/c1-3(7)4-2-5(8)6-9-4/h2H,1H3,(H,6,8)	InChI=1S/C5H5NO3/c1-3(7)4-2-5(8)6-9-4/h2H,1H3,(H,6,8)
