17
gdb 74724	2.487	1.78016	1.2284	1.9685	79.67	-0.2307	0.0031	0.2338	1036.9382	0.13437	-384.612288	-384.60423	-384.603286	-384.644575	31.591	
C	-0.0783668963	 1.4552594131	 0.0339119363	-0.515147
C	-0.0293090917	-0.0278511731	-0.0304358506	 0.329111
C	-0.0031783677	-0.9103054659	-1.0318112995	-0.215347
C	 0.0522741544	-2.2482905651	-0.2783404214	-0.000866
C	-1.0551632611	-2.0559948881	 0.7944808526	-0.256852
C	 0.0169311828	-0.9866650192	 1.2020197478	 0.253438
O	 1.0388833377	-1.9586707025	 0.7728269118	-0.314532
C	 0.1532191391	-0.4447263263	 2.5273824656	 0.039655
C	 0.2421364625	 0.0265525419	 3.6295297012	-0.324199
H	 0.788533196	 1.8541642134	 0.5743421462	 0.142489
H	-0.0957109804	 1.8958980647	-0.9663522714	 0.127712
H	-0.9662591611	 1.8006032331	 0.5778942295	 0.134684
H	-0.0167209532	-0.756277592	-2.1008374023	 0.109556
H	 0.225325761	-3.1796031525	-0.813570028	 0.085992
H	-2.0410973965	-1.707071522	 0.4824606987	 0.101133
H	-1.1075769089	-2.876396051	 1.5131514841	 0.116319
H	 0.3270083834	 0.4344876215	 4.6065457494	 0.186853
128.5963	136.5452	169.0438	203.8825	296.4584	472.4057	481.8192	510.7681	530.2213	568.4743	605.611	629.1022	661.9445	683.818	775.6094	804.9748	840.8192	897.3024	916.0054	934.4319	975.6382	1005.5974	1048.3841	1067.9229	1099.5512	1160.3996	1214.3694	1227.3719	1251.4674	1286.8576	1296.9803	1413.756	1474.2507	1480.8955	1484.4104	1692.9214	2241.9434	3022.934	3068.948	3070.9011	3114.6387	3144.4478	3148.6228	3239.7237	3500.787
CC1=CC2CC1(O2)C#C	CC1=C[C@@H]2C[C@]1(O2)C#C	
InChI=1S/C8H8O/c1-3-8-5-7(9-8)4-6(8)2/h1,4,7H,5H2,2H3	InChI=1S/C8H8O/c1-3-8-5-7(9-8)4-6(8)2/h1,4,7H,5H2,2H3/t7-,8-/m1/s1
