23
gdb 72486	2.41582	1.75398	1.44584	1.3115	83.6	-0.237	0.0762	0.3132	1055.4879	0.209144	-388.331485	-388.323609	-388.322665	-388.363118	33.056	
C	-0.0672875846	 1.4993371863	 0.0284191808	-0.455843
C	 0.0552853824	-0.0155224635	-0.0211176436	 0.393897
C	 0.6978207163	-0.5523958991	-1.3303680004	-0.258337
C	-0.1018426614	-1.8467825577	-1.6310009801	-0.228291
C	-1.0927889571	-1.928794347	-0.4448908526	 0.096587
C	-0.539076679	-2.7108815517	 0.7551730702	-0.200447
C	 0.8100987361	-2.1196536041	 1.2015990199	-0.221019
C	 0.7564164859	-0.5812004879	 1.232516853	-0.215102
O	-1.2743718797	-0.5648716704	-0.05968277	-0.289815
H	 0.9218592324	 1.9672790335	-0.0026361835	 0.111936
H	-0.6499631987	 1.8598503669	-0.8242607078	 0.117805
H	-0.5695987467	 1.8190557518	 0.9463401165	 0.119027
H	 0.5746150234	 0.179131351	-2.1330130271	 0.097872
H	 1.7700665228	-0.7329470207	-1.2150981119	 0.09784
H	-0.6488342447	-1.7565148996	-2.5724246197	 0.102283
H	 0.5320764158	-2.7349007933	-1.7042600099	 0.097848
H	-2.0726292862	-2.3150044111	-0.7393391145	 0.069057
H	-1.2709975023	-2.6361210637	 1.5679597374	 0.09992
H	-0.4350582475	-3.7738610714	 0.5076459858	 0.088329
H	 1.0948014686	-2.509878614	 2.1844313009	 0.09373
H	 1.5967307872	-2.4438488611	 0.5091745837	 0.098309
H	 1.7662109952	-0.1639381498	 1.3257969155	 0.08734
H	 0.185399182	-0.2456097638	 2.1065454174	 0.097072
159.6166	214.4289	261.1493	268.983	306.0578	376.9354	394.6743	461.1995	468.1935	569.3034	600.0294	730.0426	785.9556	804.7892	835.1748	866.5158	868.6335	883.3948	924.765	935.3463	975.0153	987.586	1014.1348	1044.7306	1058.0526	1080.0749	1122.744	1143.971	1167.478	1221.3317	1227.4373	1248.7611	1270.437	1279.2396	1283.7995	1324.9789	1344.1357	1364.265	1368.3738	1380.2882	1390.4428	1408.7599	1471.4874	1479.5281	1485.1127	1488.2975	1495.3509	1498.2045	1515.2907	3024.3718	3027.8007	3030.4166	3037.9243	3054.2867	3061.4322	3062.6736	3068.4358	3073.5104	3079.3893	3091.3305	3110.9067	3111.5166	3115.3221
CC12CCC(CCC1)O2	C[C@@]12CC[C@@H](CCC1)O2	
InChI=1S/C8H14O/c1-8-5-2-3-7(9-8)4-6-8/h7H,2-6H2,1H3	InChI=1S/C8H14O/c1-8-5-2-3-7(9-8)4-6-8/h7H,2-6H2,1H3/t7-,8+/m1/s1
