16
gdb 74235	2.62825	1.29721	0.94437	5.673	76.27	-0.2649	-0.0434	0.2215	1226.5714	0.123335	-400.798635	-400.790096	-400.789152	-400.832669	30.857	
C	-0.0567921225	 1.5114198736	 0.0522800047	-0.486634
C	-0.0023640534	 0.0183274477	 0.0100126457	 0.310779
C	 0.0131050644	-0.7460251537	-1.0857296308	-0.171309
C	 0.0593927096	-2.2262898306	-0.781545973	-0.304057
C	 1.204102904	-2.9225465675	-1.3647933908	 0.283909
N	 2.1184247457	-3.4521554215	-1.8330344367	-0.319629
C	 0.0908281133	-2.2515968893	 0.7864346503	 0.399966
O	 0.1296139214	-3.2412765201	 1.4562953985	-0.277081
C	 0.0391633927	-0.8030179921	 1.2742259263	-0.417635
H	 0.811766991	 1.9191433536	 0.583986015	 0.138753
H	-0.0772031279	 1.9412325363	-0.9522101154	 0.134799
H	-0.9454251394	 1.8580430858	 0.5940984774	 0.135516
H	-0.0030340528	-0.3754293199	-2.1034757222	 0.119307
H	-0.8503143602	-2.7530482636	-1.1035031442	 0.155616
H	 0.9131836892	-0.589487381	 1.9037659495	 0.151683
H	-0.8388146149	-0.6591278875	 1.9176713157	 0.146018
38.9908	112.729	140.5049	189.2014	281.6458	297.2356	416.261	427.1023	472.2243	518.8165	541.4508	610.1555	690.3337	768.8487	833.0483	889.5264	942.0238	971.1566	1004.5925	1048.1378	1071.3505	1107.9435	1159.5741	1183.6175	1219.7853	1266.9664	1300.6375	1349.9194	1417.5476	1438.668	1477.9422	1485.39	1715.4555	1872.7256	2357.2461	3013.4768	3023.1264	3026.9806	3054.2674	3073.2556	3120.2521	3207.5557
CC1=CC(C#N)C(=O)C1	CC1=C[C@@H](C#N)C(=O)C1	
InChI=1S/C7H7NO/c1-5-2-6(4-8)7(9)3-5/h2,6H,3H2,1H3	InChI=1S/C7H7NO/c1-5-2-6(4-8)7(9)3-5/h2,6H,3H2,1H3/t6-/m0/s1
