21
gdb 97803	3.73309	0.63954	0.57851	1.9955	90.42	-0.2429	0.0309	0.2738	2017.736	0.180046	-387.054138	-387.043515	-387.04257	-387.091556	37.162	
C	-0.0279989485	 1.6562155721	-0.1632725838	-0.365197
C	 0.0129907622	 0.1207621038	-0.0568040298	-0.31927
C	-1.3123162276	-0.4849814928	 0.0087910078	 0.122305
C	-2.415419822	-0.9692731091	 0.0529251991	 0.068669
C	-3.7458862971	-1.5095247399	 0.1270581368	-0.171716
O	-4.2032481157	-2.3322825368	-0.9648637502	-0.249098
C	-4.0213451634	-2.9533910273	 0.3075287673	 0.09371
C	-2.9403909598	-3.9992922318	 0.4142918869	-0.219827
C	-3.3312748987	-5.3010703168	-0.2956725157	-0.376037
H	 0.9871050292	 2.0611706821	-0.2114046384	 0.116055
H	-0.5678633274	 1.9687005215	-1.0610275029	 0.131895
H	-0.5325021995	 2.0925821551	 0.7029944855	 0.12867
H	 0.5533042454	-0.2934287073	-0.9177234999	 0.134742
H	 0.5911272399	-0.1716325729	 0.8293718987	 0.130831
H	-4.5022604345	-0.8109407342	 0.4862836476	 0.108038
H	-4.9612408501	-3.2045245965	 0.8067575465	 0.087335
H	-2.0155824427	-3.5969092942	-0.0097361211	 0.116662
H	-2.7491695924	-4.1917075191	 1.4780209447	 0.099972
H	-2.5351407008	-6.0467630725	-0.2140966139	 0.113732
H	-4.2405223282	-5.734102593	 0.1358077596	 0.113547
H	-3.5191005584	-5.1163743505	-1.3574447549	 0.134982
28.0215	60.9553	78.9147	121.0127	142.5659	209.1542	230.04	235.7745	325.6306	365.641	448.9455	496.194	539.0246	581.1388	727.5466	764.0489	785.2716	832.5618	859.6238	932.5903	965.5672	1013.4211	1053.4002	1078.6625	1093.5613	1103.9164	1133.5193	1178.0703	1190.5736	1286.0957	1286.4837	1290.4689	1341.9284	1350.1335	1392.8924	1408.3417	1410.1196	1463.1688	1472.7843	1476.4641	1494.9845	1499.0263	1505.4608	1508.7987	2361.0732	3020.4204	3029.8851	3036.0936	3045.6712	3048.1284	3068.3166	3087.2472	3101.5634	3107.8483	3117.4514	3119.3029	3125.5364
CCC#CC1OC1CC	CCC#C[C@H]1O[C@H]1CC	
InChI=1S/C8H12O/c1-3-5-6-8-7(4-2)9-8/h7-8H,3-4H2,1-2H3	InChI=1S/C8H12O/c1-3-5-6-8-7(4-2)9-8/h7-8H,3-4H2,1-2H3/t7-,8+/m0/s1
