18
gdb 107162	4.58678	0.99382	0.94592	1.9921	72.6	-0.2448	0.0651	0.3099	1273.7499	0.147044	-439.005539	-438.997192	-438.996248	-439.038757	31.756	
O	 0.0731053855	 1.3627406013	-0.3588819889	-0.412733
C	 0.0802806459	 0.0034397422	 0.0490871632	-0.182645
C	-1.3037870002	-0.5131119013	 0.2750591645	 0.400554
C	-2.3035720744	-0.1754672373	 1.4009903318	-0.39259
C	-2.8893911421	-1.5978105186	 1.1916079338	 0.361389
C	-3.3217566638	-2.5348842191	 2.2495182478	-0.313008
N	-4.2676516646	-2.058107771	 1.2168469032	-0.359387
C	-1.9139029519	-1.8405170773	 0.0567563659	-0.124552
O	-2.1010007918	-0.7787635816	-0.8940082896	-0.294216
H	-0.4406148759	 1.4074096329	-1.1731467729	 0.294382
H	 0.5852750577	-0.6414383403	-0.6854029983	 0.100544
H	 0.6534887382	-0.0307425646	 0.9813872984	 0.114686
H	-1.8427244854	-0.0368855758	 2.3823994288	 0.11386
H	-2.9640682156	 0.6651562477	 1.1755666696	 0.116346
H	-3.0777193175	-3.5923400931	 2.1868503993	 0.121772
H	-3.4051855127	-2.1490637055	 3.2628138862	 0.114435
H	-4.8730680293	-1.3348107326	 1.5975295457	 0.235219
H	-1.4976663919	-2.771663396	-0.3110745086	 0.105944
70.873	96.3918	176.8518	264.5605	286.5351	350.8734	380.8027	411.1588	436.772	507.4958	632.0812	716.3995	777.3396	842.8999	875.1465	894.267	915.0258	943.768	963.1637	981.5586	999.8094	1006.2949	1060.9872	1087.881	1125.5792	1135.1936	1184.4122	1207.6958	1218.0418	1252.4877	1264.082	1295.247	1368.1084	1415.5327	1425.8112	1452.8314	1476.6866	1487.9253	1518.3691	2997.4787	3062.6374	3079.3459	3101.2412	3121.1467	3184.8583	3186.1736	3499.6061	3805.5068
OCC12CC3(CN3)C1O2	OC[C@]12C[C@]3(CN3)[C@H]1O2	
InChI=1S/C6H9NO2/c8-3-6-1-5(2-7-5)4(6)9-6/h4,7-8H,1-3H2	InChI=1S/C6H9NO2/c8-3-6-1-5(2-7-5)4(6)9-6/h4,7-8H,1-3H2/t4-,5+,6-/m1/s1
