19
gdb 38317	3.49269	1.6801	1.47594	1.2932	73.68	-0.2578	0.0934	0.3512	939.6739	0.163386	-423.017253	-423.010864	-423.00992	-423.047859	26.743	
C	-0.0792298994	 1.6131238205	 0.068403396	-0.223599
C	 1.4653458332	 1.4509312338	 0.0266405894	-0.054531
C	 1.2497371768	 0.1604003389	 0.8795960492	-0.237652
C	-0.060086345	 0.0599762347	 0.0347477697	-0.054531
C	 0.5368555144	-0.2332992051	-1.3484882566	 0.10312
O	-0.2927550865	 0.149537466	-2.4378228085	-0.26836
C	 0.5154197942	 0.9414696896	-3.2788704967	 0.011866
O	 1.3832164478	 1.6777673369	-2.4467302442	-0.26836
C	 1.6944181956	 0.8222187489	-1.3546414516	 0.103119
H	-0.4237148529	 1.9965238886	 1.0309730102	 0.096238
H	-0.5644243425	 2.1404376681	-0.7533022438	 0.111659
H	 2.1456445779	 2.2453098333	 0.3317771095	 0.06875
H	 1.9854237663	-0.6469095137	 0.7942891126	 0.092132
H	 1.0570880659	 0.3778068504	 1.9319298097	 0.104541
H	-0.9119047389	-0.5426941546	 0.3480300936	 0.06875
H	 0.8686445573	-1.2719781145	-1.4641917352	 0.072419
H	 1.0932300323	 0.3037518443	-3.9732476902	 0.083186
H	-0.1182360149	 1.6331049131	-3.8414566435	 0.118835
H	 2.6974751584	 0.3956328307	-1.4739150595	 0.072418
168.4008	191.1695	323.2231	388.4345	456.4984	558.0029	583.7718	725.7424	788.8136	823.6481	851.0775	853.5323	862.3074	884.877	948.0109	956.817	991.7984	1017.3048	1028.2618	1032.346	1066.7478	1077.5712	1082.3067	1106.0495	1114.1915	1117.8249	1185.2945	1223.4683	1233.6454	1237.2452	1244.2611	1247.7509	1294.5036	1309.1443	1337.8203	1359.4787	1365.033	1429.1599	1482.6749	1517.2922	1539.2573	2931.7036	3024.6744	3037.2138	3046.5006	3078.307	3088.0277	3116.9001	3121.5758	3126.566	3142.1035
C1C2CC1C1OCOC21	C1[C@H]2C[C@@H]1[C@H]1OCO[C@@H]21	
InChI=1S/C7H10O2/c1-4-2-5(1)7-6(4)8-3-9-7/h4-7H,1-3H2	InChI=1S/C7H10O2/c1-4-2-5(1)7-6(4)8-3-9-7/h4-7H,1-3H2/t4-,5+,6-,7+
