16
gdb 27974	3.61768	1.21482	0.91461	6.7039	77.11	-0.1934	-0.0101	0.1833	1226.7413	0.123927	-434.115329	-434.106471	-434.105527	-434.149167	31.73	
C	 0.0180877765	 1.5054532246	-0.006802671	-0.499413
C	-0.0425770938	 0.0195179712	-0.0067610371	 0.321599
C	-1.0852104824	-0.8203912452	 0.0739299482	-0.203411
N	-0.6023704228	-2.1480785072	 0.0310666269	-0.112242
C	-1.4338354438	-3.2597556713	 0.0941956098	 0.171766
O	-1.0968989027	-4.4109968507	 0.0639593447	-0.270838
C	 0.8139547632	-2.1303237416	-0.0826120186	 0.456757
N	 1.5615688029	-3.1566667253	-0.1464817935	-0.554184
N	 1.1097505705	-0.7681126101	-0.1012935636	-0.42507
H	 0.6131732421	 1.8835465632	 0.8333095446	 0.139374
H	 0.4719539	 1.8892574521	-0.9285298104	 0.139323
H	-0.9864952317	 1.9253721974	 0.0750477139	 0.145457
H	-2.1386706979	-0.6177525729	 0.1596334556	 0.147338
H	-2.4899284222	-2.9320443972	 0.1794838588	 0.0786
H	 2.5402874339	-2.8857082227	-0.2241623445	 0.207287
H	 2.0486512582	-0.4203001541	-0.1777693539	 0.257657
70.1389	100.0732	172.3885	205.9791	224.02	236.1516	285.4705	344.243	462.7463	504.5416	608.4616	616.8954	693.0392	736.4649	749.1383	795.3399	815.0294	997.3035	1017.7235	1018.6694	1067.1457	1072.1345	1178.9047	1244.0384	1253.84	1296.2185	1406.9016	1426.0146	1430.8018	1455.644	1475.0206	1497.2204	1718.8474	1744.1809	1846.7161	2923.9723	3024.2223	3071.8162	3130.6179	3287.0035	3500.9015	3691.7018
CC1=CN(C=O)C(=N)N1	CC1=CN(C=O)[C@@H]([NH])N1	
InChI=1S/C5H7N3O/c1-4-2-8(3-9)5(6)7-4/h2-3H,1H3,(H2,6,7)	InChI=1S/C5H8N3O/c1-4-2-8(3-9)5(6)7-4/h2-3,5-7H,1H3/t5-/m0/s1
