21
gdb 88384	2.13045	1.44862	1.13039	4.0826	82.84	-0.2329	0.0355	0.2683	1203.2606	0.180682	-383.251124	-383.240978	-383.240033	-383.285845	37.566	
C	 1.6864207882	 0.8937382339	-1.0039486365	-0.335018
N	 0.9094725365	-0.1690905294	-0.3836470573	-0.083439
C	 1.5871868388	-1.2980194372	 0.2298804545	-0.262192
C	 0.7971587748	-0.3374454501	 1.0590746788	 0.006142
C	 1.4139533204	 0.5540082713	 2.1637051966	 0.05315
C	 0.8623018796	 0.0456122848	 3.5203659236	-0.407145
C	 2.9577521244	 0.5669150478	 2.2378693471	-0.42504
C	 0.9367763629	 1.9371013973	 1.9705865573	 0.287313
N	 0.5643531108	 3.0224408328	 1.8287038219	-0.35161
H	 2.6937252899	 1.0394406034	-0.5873479065	 0.103634
H	 1.7999646685	 0.6538788901	-2.0657883889	 0.127432
H	 1.141012922	 1.8370962801	-0.9227755342	 0.153579
H	 1.1928354077	-2.2860202268	 0.0024437765	 0.117458
H	 2.6723079675	-1.2563583689	 0.3099367178	 0.108973
H	-0.2102089665	-0.6400259325	 1.3421498106	 0.101587
H	 1.1667969298	-0.9949252688	 3.6672892307	 0.128671
H	 1.253937234	 0.6446207758	 4.3461956115	 0.133209
H	-0.2289003747	 0.095413568	 3.5470047463	 0.138936
H	 3.420733798	 0.932598358	 1.3210563035	 0.140752
H	 3.2809625615	 1.2161795117	 3.0563886081	 0.135244
H	 3.3253759662	-0.4431571714	 2.4362597584	 0.128366
52.9654	130.0053	183.0046	189.1297	222.5865	231.5583	258.2316	276.2615	307.726	351.8646	375.8065	449.181	477.3826	576.9155	623.2082	673.3927	762.8567	843.1454	909.2456	939.7881	946.039	1019.5317	1032.4966	1046.1403	1098.9654	1133.4213	1138.1482	1155.1268	1174.5461	1203.6769	1226.1852	1238.3821	1371.0589	1394.6481	1398.0466	1429.4915	1451.6441	1481.1475	1484.3264	1490.8785	1494.5647	1506.9676	1508.4799	1520.0697	2348.8165	2995.0602	3044.8993	3053.1824	3075.9918	3090.9314	3105.1007	3120.1274	3123.0947	3124.9892	3130.8155	3148.5202	3170.5519
CN1CC1C(C)(C)C#N	CN1C[C@H]1C(C)(C)C#N	
InChI=1S/C7H12N2/c1-7(2,5-8)6-4-9(6)3/h6H,4H2,1-3H3	InChI=1S/C7H12N2/c1-7(2,5-8)6-4-9(6)3/h6H,4H2,1-3H3/t6-,9?/m0/s1
