13
gdb 48230	2.7916	1.37979	0.92339	0.8235	70.58	-0.2668	-0.0734	0.1934	1160.1416	0.086795	-452.744615	-452.735663	-452.734719	-452.779498	30.515	
N	 0.0273981279	 1.3099178581	 0.0086464374	-0.466196
C	-0.0210777601	 0.0451828975	 0.002269546	 0.117302
N	-1.257477492	-0.6466977908	 0.0105380973	-0.200345
C	-2.4583310333	 0.1035758368	 0.0263111451	 0.173925
O	-3.5611033584	-0.3692745547	 0.0346134492	-0.275737
C	-1.1881815942	-2.0654106934	 0.0022105385	 0.336343
O	-0.1150771074	-2.6302402236	-0.0109827695	-0.328208
C	-2.4193254338	-2.8111686177	 0.0097358985	 0.213703
C	-3.3202673332	-3.6073110537	 0.0138194848	-0.356829
H	 0.9953837322	 1.6250319906	 0.0009157796	 0.246002
H	 0.8174637484	-0.6491131458	-0.0096457361	 0.162003
H	-2.2336642542	 1.1779058713	 0.0298241474	 0.157309
H	-4.1522158118	-4.2690620546	 0.0180705919	 0.220727
27.6983	91.0909	163.3905	173.8355	221.4403	249.2635	292.1844	299.919	447.844	468.4271	625.0715	647.1959	699.3575	724.3196	767.9141	789.8606	841.0144	1056.3642	1070.9175	1096.4333	1145.0379	1250.4067	1330.9255	1406.1848	1437.2469	1727.2835	1755.194	1835.4753	2225.3177	3069.8092	3153.4762	3495.5157	3513.2293
N=CN(C=O)C(=O)C#C	N=CN(C=O)C(=O)C#C	
InChI=1S/C5H4N2O2/c1-2-5(9)7(3-6)4-8/h1,3-4,6H	InChI=1S/C5H4N2O2/c1-2-5(9)7(3-6)4-8/h1,3-4,6H
