15
gdb 124674	3.71128	1.00249	0.98249	1.8106	67.09	-0.2718	-0.0639	0.2079	1222.0652	0.111059	-453.914674	-453.906336	-453.905391	-453.949253	28.834	
C	 0.0508015477	 1.453423741	-0.1980374276	-0.403229
C	-0.0344070724	-0.0500248905	 0.0814413601	-0.187069
C	 0.3559826443	-0.8871300625	-1.1420234503	 0.140959
O	 0.6725432873	-0.4213626681	-2.2031018198	-0.2262
C	 0.7907903826	-0.4880679025	 1.2572574862	 0.323427
N	 0.3074148477	-1.2418322106	 2.2110692134	-0.149358
O	 1.3345998452	-1.454280851	 3.0843908501	-0.144236
N	 2.4759471719	-0.8282679646	 2.6724864934	-0.053221
C	 2.1631858349	-0.2340586701	 1.5556052156	-0.105734
H	 1.0738009452	 1.7524341916	-0.4415185425	 0.134814
H	-0.5733606344	 1.7100354515	-1.0563547009	 0.143625
H	-0.2847421131	 2.0265578693	 0.6694760573	 0.131354
H	-1.069137017	-0.3394511649	 0.3118921062	 0.133897
H	 0.3172428142	-1.985240987	-0.9718345914	 0.102345
H	 2.894453486	 0.3418247684	 1.0101501904	 0.158626
31.4143	68.3909	140.8355	191.0801	233.8692	258.5223	380.4544	413.4865	605.0877	653.2864	701.7828	735.4361	854.5309	894.5662	899.1101	935.9814	940.5418	1015.6002	1042.2938	1052.2852	1098.0557	1136.294	1207.9464	1280.9514	1320.7941	1405.2982	1417.2017	1426.4127	1458.8732	1491.2384	1494.2172	1602.8343	1835.798	2900.6196	3027.3617	3056.7306	3128.9867	3139.5496	3271.7127
CC(C=O)C1=NON=C1	C[C@@H](C=O)c1nonc1	
InChI=1S/C5H6N2O2/c1-4(3-8)5-2-6-9-7-5/h2-4H,1H3	InChI=1S/C5H6N2O2/c1-4(3-8)5-2-6-9-7-5/h2-4H,1H3/t4-/m0/s1
