23
gdb 93892	2.58527	1.42464	1.13151	1.3868	84.69	-0.2524	0.0721	0.3245	1193.052	0.207648	-388.297054	-388.288313	-388.287369	-388.329957	35.252	
C	-0.1011332004	 1.5625452987	 0.0355424409	-0.395525
C	 0.0344466304	 0.0352842816	 0.0078184619	 0.023801
C	 0.6568425912	-0.4640636108	-1.3073750029	-0.204275
C	 0.8745141958	-1.9783554187	-1.2685108338	-0.230592
C	 1.920858568	-2.3848840073	-0.2179266225	 0.105136
O	 3.2443033774	-2.0689643482	-0.6604852239	-0.433645
C	 1.6964020969	-1.6946231792	 1.1256590151	-0.052847
C	 2.2794872487	-0.320294056	 1.3577604939	-0.275921
C	 0.789617114	-0.4813950883	 1.2255452779	-0.007826
H	 0.8831589883	 2.040811724	-0.0118304709	 0.116009
H	-0.693277547	 1.9225993557	-0.8131244538	 0.104833
H	-0.5911311216	 1.9018220185	 0.9544917061	 0.107208
H	-0.9786271917	-0.3921548877	 0.0581868065	 0.06571
H	-0.0003938089	-0.1930983273	-2.1412139311	 0.087578
H	 1.6152382329	 0.0363898163	-1.4932076069	 0.104828
H	-0.0738622083	-2.4801501108	-1.0335505673	 0.09258
H	 1.1892303541	-2.3552943086	-2.2508212765	 0.075653
H	 1.8444271706	-3.4706999059	-0.0562264929	 0.058826
H	 3.3823244826	-2.5180794302	-1.5011565454	 0.275826
H	 1.7023385978	-2.3633182785	 1.9799823049	 0.079111
H	 2.6911291966	-0.1008962018	 2.3367451524	 0.102414
H	 2.8363945684	 0.1143704026	 0.536384307	 0.127141
H	 0.2273238342	-0.395175788	 2.1523452313	 0.073978
77.9892	191.0148	221.513	246.2998	281.0515	315.7234	321.949	364.8401	437.586	477.5737	517.4789	582.6185	689.6088	729.9423	775.0623	835.6946	852.2771	888.1026	928.1364	940.0059	968.826	994.9236	1029.5976	1039.3337	1057.09	1082.0723	1090.7232	1118.0897	1130.2962	1149.0924	1174.2817	1208.6137	1219.5276	1245.2908	1265.0655	1331.8206	1348.0352	1355.9371	1373.8385	1388.0126	1390.5766	1405.602	1420.8633	1432.4128	1480.504	1490.4417	1494.0048	1499.8859	1504.8969	2972.5216	2982.4379	3010.5156	3024.8955	3030.1076	3047.2575	3069.0318	3093.0187	3098.2327	3127.0484	3140.0484	3154.6638	3226.6603	3806.4913
CC1CCC(O)C2CC12	C[C@H]1CC[C@@H](O)[C@H]2C[C@@H]12	
InChI=1S/C8H14O/c1-5-2-3-8(9)7-4-6(5)7/h5-9H,2-4H2,1H3	InChI=1S/C8H14O/c1-5-2-3-8(9)7-4-6(5)7/h5-9H,2-4H2,1H3/t5-,6-,7-,8+/m0/s1
