23
gdb 81009	2.43271	1.46551	1.21377	1.4909	84.92	-0.2417	0.0707	0.3123	1173.4769	0.206076	-388.288376	-388.279244	-388.278299	-388.321315	36.428	
C	-0.1476352379	 1.5301255648	 0.0037140639	-0.419127
C	 0.0637177821	 0.0173956022	 0.0497176991	 0.046106
C	 1.0049236197	-0.5652888782	-1.0669643625	-0.275464
C	 2.029440483	-1.3216047199	-0.1965985934	 0.321761
C	 3.1575503356	-2.0624868174	-0.8711429806	-0.499801
C	 1.0900213038	-1.991858651	 0.8608074713	-0.312186
C	 0.8233763327	-0.516884448	 1.2838842988	-0.072269
C	 2.3108550643	-0.2400989532	 0.9054199751	 0.152358
O	 3.2950069585	-0.5475867454	 1.8665907799	-0.458949
H	 0.7971425832	 2.0798345538	 0.0649099765	 0.118789
H	-0.6393991961	 1.8260158407	-0.9292805088	 0.113718
H	-0.7809037354	 1.8642722143	 0.8329689241	 0.112099
H	-0.9188541667	-0.4657206718	-0.0022340867	 0.068085
H	 0.4790110781	-1.2279753978	-1.7613518124	 0.092605
H	 1.4810910256	 0.2253018029	-1.658229923	 0.092931
H	 3.7006673076	-1.4080910671	-1.5629530788	 0.114863
H	 3.8768073633	-2.4292083648	-0.1314518737	 0.114708
H	 2.7896095514	-2.9204030218	-1.4454631128	 0.111438
H	 0.2408127329	-2.5771329597	 0.4940901102	 0.089903
H	 1.6280993519	-2.5871716891	 1.6044137816	 0.080119
H	 0.4318845479	-0.2534494683	 2.2682154965	 0.055995
H	 2.5672100289	 0.7611906151	 0.5483172092	 0.071981
H	 3.0405668952	-1.3483517301	 2.3353438466	 0.280337
163.2937	193.5225	199.7412	202.6796	217.1759	225.572	317.4019	345.1576	400.9673	436.4176	473.7653	559.8027	588.853	656.8173	793.3199	824.3766	845.9715	878.923	911.5862	928.7109	941.0177	953.5178	1005.6722	1030.3052	1034.4266	1062.2106	1095.0223	1133.8658	1151.5175	1172.9052	1190.0896	1217.8447	1231.2029	1232.8211	1260.4128	1267.8667	1300.4467	1319.6879	1346.0689	1379.7002	1410.2179	1411.2275	1443.7106	1488.2969	1493.6167	1496.5161	1497.8571	1500.8124	1522.3088	3023.0221	3025.5814	3028.7467	3035.845	3045.9523	3070.1911	3079.5004	3085.7377	3092.6675	3093.1243	3096.9036	3099.6959	3102.3242	3822.2015
CC1CC2(C)CC1C2O	C[C@H]1C[C@]2(C)C[C@H]1[C@H]2O	
InChI=1S/C8H14O/c1-5-3-8(2)4-6(5)7(8)9/h5-7,9H,3-4H2,1-2H3	InChI=1S/C8H14O/c1-5-3-8(2)4-6(5)7(8)9/h5-7,9H,3-4H2,1-2H3/t5-,6+,7+,8+/m0/s1
