18
gdb 51169	4.32508	1.02257	0.93925	2.3786	74.17	-0.2624	0.0172	0.2796	1267.3824	0.148122	-439.065584	-439.057461	-439.056517	-439.098775	30.403	
N	-0.1133302479	 1.2914640011	-0.1162092503	-0.438027
C	-0.1346581881	 0.0396463484	-0.2605874385	 0.104458
O	-1.0945327442	-0.6893914359	 0.3591357484	-0.231389
C	-1.0071540221	-2.0796753271	 0.223075982	 0.400454
C	-1.2380675761	-2.7580313835	-1.1002455131	-0.345507
C	-2.2454265282	-2.9044170519	 0.0232839295	-0.1311
C	-2.078049592	-4.1058679136	 0.9329875123	-0.092548
O	-0.6811706204	-4.1617415695	 1.2338979306	-0.254358
C	-0.1744271623	-2.835200319	 1.249789285	-0.144536
H	 0.6554417427	 1.6894095952	-0.6516815067	 0.231669
H	 0.550689014	-0.5703459297	-0.8621040837	 0.095572
H	-1.5370494785	-2.1237136484	-1.927092818	 0.12677
H	-0.6140418785	-3.6061599916	-1.3646381328	 0.130137
H	-3.2120395201	-2.4261857041	-0.0733866513	 0.11231
H	-2.677461707	-3.9740652393	 1.8474593703	 0.102559
H	-2.3457492297	-5.063649531	 0.4763363609	 0.114764
H	 0.8952097114	-2.8903123931	 1.0214862876	 0.109515
H	-0.3028359732	-2.348147677	 2.2297598679	 0.109256
66.9402	119.2154	140.6335	242.9868	284.0929	351.7896	373.3419	424.6633	498.8452	664.7719	699.9223	753.2934	823.5303	859.0057	910.4622	929.8787	939.0304	975.8046	1025.4212	1036.279	1049.877	1072.3187	1099.9071	1105.5157	1118.4795	1122.9497	1214.9374	1248.748	1260.5456	1283.4601	1287.4954	1350.9787	1367.0493	1409.2324	1415.0515	1478.8145	1509.1638	1521.5982	1746.7352	2981.9247	2987.1752	3044.1925	3070.0254	3078.3628	3130.4018	3198.9705	3225.0431	3518.9936
N=COC12CC1COC2	[NH][CH]O[C@]12C[C@H]1COC2	
InChI=1S/C6H9NO2/c7-4-9-6-1-5(6)2-8-3-6/h4-5,7H,1-3H2	InChI=1S/C6H9NO2/c7-4-9-6-1-5(6)2-8-3-6/h4-5,7H,1-3H2/t5-,6-/m0/s1
