21
gdb 60302	5.76888	0.4621	0.44099	4.2457	92.37	-0.2617	-0.0563	0.2054	2451.2276	0.179055	-387.082388	-387.071189	-387.070245	-387.121527	38.109	
C	 0.1332019852	 1.5587490013	 0.0237577382	-0.386325
C	 0.0165196901	 0.0277397135	 0.0351744643	 0.04311
C	 0.7502876979	-0.559948274	 1.2484391545	-0.396297
C	-1.4445957017	-0.4546966728	 0.0167160051	-0.162932
C	-2.2167437817	-0.0776203365	-1.2653120598	-0.381246
C	-3.5671567852	-0.6168119644	-1.3031072552	 0.06746
C	-4.6876280661	-1.069222328	-1.3273788479	 0.069305
C	-6.0183585382	-1.6155971603	-1.3208497312	 0.015793
O	-6.7577492711	-1.6433066289	-2.2786581755	-0.231175
H	 1.1827867047	 1.8680258719	 0.0558455739	 0.116336
H	-0.3094805783	 2.0047658466	-0.8719927932	 0.114641
H	-0.3671200014	 1.9943422765	 0.8971236643	 0.115603
H	 0.5055454245	-0.3569598868	-0.8721225257	 0.074565
H	 0.3009652731	-0.2091220783	 2.1851967168	 0.115279
H	 0.7103274679	-1.6541274779	 1.249177699	 0.113274
H	 1.8034760069	-0.2614434983	 1.2547311167	 0.113884
H	-1.4651236026	-1.5453795329	 0.1214706878	 0.107994
H	-1.9784095551	-0.0508249298	 0.8862530312	 0.107382
H	-2.2796691516	 1.0127104096	-1.3696037605	 0.146555
H	-1.6675777704	-0.431477061	-2.1485616431	 0.141781
H	-6.3334832768	-2.0263455496	-0.3393724798	 0.095013
12.6596	46.006	61.5309	99.1864	161.9186	185.3139	216.0144	230.3851	249.6064	344.1239	391.2446	413.6546	429.0648	507.3162	601.1141	754.7019	816.5055	849.1856	927.996	934.1456	962.721	976.267	1022.6896	1026.4377	1130.3457	1140.2981	1161.9224	1193.7039	1230.3799	1280.6317	1313.32	1349.1113	1371.0845	1385.7909	1402.4057	1423.5471	1423.9014	1458.4403	1484.541	1489.9184	1497.5792	1506.0062	1510.9339	1766.0246	2328.6234	2911.4812	2993.6167	3017.8039	3024.3311	3028.0762	3033.5138	3050.48	3076.5773	3090.3083	3096.504	3101.2699	3103.8635
CC(C)CCC#CC=O	CC(C)CCC#CC=O	
InChI=1S/C8H12O/c1-8(2)6-4-3-5-7-9/h7-8H,4,6H2,1-2H3	InChI=1S/C8H12O/c1-8(2)6-4-3-5-7-9/h7-8H,4,6H2,1-2H3
