19
gdb 65385	3.37673	0.94522	0.90098	2.4153	79.85	-0.2416	-0.0289	0.2127	1373.107	0.157373	-423.009352	-423.000296	-422.999352	-423.04372	33.91	
O	 0.0194495405	 1.3877460707	 0.0477326157	-0.468818
C	-0.0054794953	 0.0026380189	 0.0165709928	 0.347422
C	-0.4792970251	-0.7269272111	 1.2573324386	-0.359808
C	-1.3678145359	-0.715955591	 0.047113293	-0.095585
C	-2.6075812928	 0.1138775823	-0.0079583277	 0.030302
C	-3.4996339575	 0.0617358582	-1.2231103236	-0.268909
C	-3.9628700638	-0.5483277516	 0.0761006587	-0.276635
C	 1.0405672774	-0.5937349084	-0.8306133717	 0.097048
O	 1.7979199308	 0.0894582071	-1.4860300644	-0.295754
H	 0.6785156445	 1.6368535099	-0.6199238225	 0.296876
H	 0.0172381708	-1.6472923913	 1.5471916908	 0.120564
H	-0.7433095901	-0.0691749105	 2.0784342527	 0.138807
H	-1.4196581107	-1.646892274	-0.513991915	 0.089197
H	-2.5092758914	 1.0827622785	 0.4690033632	 0.104304
H	-3.9613329469	 0.9836033277	-1.558145114	 0.11717
H	-3.221953871	-0.6117228854	-2.0276668443	 0.111107
H	-3.9951652388	-1.6307837191	 0.1445460856	 0.110983
H	-4.7435636377	-0.04613408	 0.636676315	 0.11521
H	 1.0800955229	-1.702377411	-0.850861513	 0.08652
51.6281	83.3548	137.7575	197.955	275.7596	298.3196	349.0791	352.8589	404.9341	450.09	533.6321	632.0031	736.1643	791.5241	812.4083	829.0265	858.1844	906.1217	920.8159	941.6228	991.5798	1029.7669	1050.3616	1060.3839	1075.5942	1079.3817	1092.5433	1134.1156	1197.3616	1201.8244	1223.2815	1237.3195	1306.7235	1345.0528	1383.0331	1433.4951	1455.2599	1470.3484	1491.3961	1508.9807	1783.7154	2922.5579	3123.5634	3129.1202	3129.8578	3134.9111	3173.8419	3208.3401	3223.1246	3224.0746	3694.7844
OC1(CC1C1CC1)C=O	O[C@]1(C[C@H]1C1CC1)C=O	
InChI=1S/C7H10O2/c8-4-7(9)3-6(7)5-1-2-5/h4-6,9H,1-3H2	InChI=1S/C7H10O2/c8-4-7(9)3-6(7)5-1-2-5/h4-6,9H,1-3H2/t6-,7+/m0/s1
