20
gdb 95541	2.45268	1.43735	0.97509	3.0115	82.84	-0.2232	-0.0294	0.1938	1227.9889	0.170861	-403.1564	-403.147544	-403.1466	-403.190271	32.991	
C	-0.2091531757	 1.5360163073	 0.0995038951	-0.329204
N	-0.06999646	 0.0886168083	 0.0725577069	-0.089024
C	-1.3355620042	-0.5898274598	-0.1868339009	-0.14058
C	-1.1060905271	-2.0787730309	-0.4480374728	-0.262736
C	-0.234786927	-2.6657116727	 0.6260999768	-0.065882
C	 0.5196659732	-1.9024743498	 1.4124249554	-0.079979
C	 0.6403364816	-0.4069157184	 1.2429212021	-0.065631
C	 2.1382341003	-0.1222715132	 1.0684099771	 0.150196
O	 2.8909143598	 0.1494655412	 1.9653253739	-0.250867
H	 0.7705212384	 2.0069743937	 0.2318899176	 0.127737
H	-0.6241328091	 1.8858260898	-0.8506212602	 0.121407
H	-0.8653233743	 1.8938719236	 0.9150097434	 0.100055
H	-2.0455838466	-0.4710321982	 0.6542859121	 0.083155
H	-1.7965888084	-0.1176917668	-1.0607748193	 0.100511
H	-2.0702430051	-2.6001974184	-0.4816400455	 0.105859
H	-0.6427327965	-2.2212929013	-1.433525566	 0.119356
H	-0.2561150706	-3.7421926939	 0.7737676685	 0.096369
H	 1.1186042658	-2.3262900461	 2.2127508153	 0.11042
H	 0.3282112945	 0.0887933443	 2.1822276105	 0.08135
H	 2.4725399612	-0.2275774986	 0.0122984698	 0.087488
68.4227	80.5611	178.6348	229.7072	243.2095	280.2283	331.3643	377.3231	435.3148	477.2642	505.6299	573.0415	704.0557	753.3549	833.9497	898.4947	918.536	992.9536	1004.3824	1024.2719	1056.2151	1059.6093	1084.9704	1094.0372	1148.1086	1170.3872	1187.256	1237.109	1248.8833	1292.4689	1317.9152	1332.1565	1368.6153	1383.0968	1394.8341	1417.9678	1466.184	1470.8498	1487.7811	1501.5726	1511.3741	1721.0107	1832.5736	2890.7616	2914.1907	2918.5117	2936.4011	3018.9643	3056.5995	3059.3401	3062.9588	3103.7997	3158.0534	3184.2494
CN1CCC=CC1C=O	CN1CCC=C[C@H]1C=O	
InChI=1S/C7H11NO/c1-8-5-3-2-4-7(8)6-9/h2,4,6-7H,3,5H2,1H3	InChI=1S/C7H11NO/c1-8-5-3-2-4-7(8)6-9/h2,4,6-7H,3,5H2,1H3/t7-/m0/s1
