16
gdb 94078	4.72283	1.00237	0.86389	5.1521	65.69	-0.2769	0.0123	0.2892	1265.9232	0.124518	-475.016368	-475.008171	-475.007226	-475.049204	30.294	
O	-0.0847923344	 1.4110871215	 0.049549552	-0.421887
C	 0.0218206849	 0.0012908468	 0.0042809631	 0.086748
C	 0.7473002459	-0.5517588803	 1.2397656688	-0.117638
O	 0.6505150739	-1.9744808302	 1.2772575065	-0.240953
C	-0.692231398	-2.3767732635	 1.2660031907	 0.083517
O	-1.3720110412	-1.9788836289	 0.1080922493	-0.24355
C	-1.4024106941	-0.5576643437	-0.0050674966	-0.09618
C	-0.725727613	-3.8492920228	 1.3306275796	 0.291299
N	-0.7743997462	-4.9979013521	 1.4213837352	-0.307081
H	 0.7706154878	 1.7930589044	-0.1692351482	 0.295758
H	 0.5395234162	-0.3452741618	-0.9009099312	 0.094454
H	 1.81467547	-0.3164795482	 1.2287493896	 0.117825
H	 0.299754532	-0.1073935345	 2.143039773	 0.109001
H	-1.2072706832	-1.9665595349	 2.1569772152	 0.104371
H	-1.9695765613	-0.1132381623	 0.8281615219	 0.111227
H	-1.9173538993	-0.3272464096	-0.9387851491	 0.13309
87.4531	153.4106	218.0529	239.5742	248.4083	325.6874	355.9703	420.4166	455.7273	458.4187	571.0414	609.9711	655.8305	894.4977	912.9855	966.0224	1006.4465	1027.5578	1063.8861	1087.252	1113.1474	1140.7154	1169.885	1233.7538	1243.1591	1299.3832	1345.92	1359.8807	1387.0406	1396.2769	1408.5302	1445.6835	1493.7616	1505.3744	2386.656	2917.3277	2987.0827	2992.327	3018.068	3099.7511	3125.065	3829.6082
OC1COC(OC1)C#N	O[C@H]1CO[C@@H](OC1)C#N	
InChI=1S/C5H7NO3/c6-1-5-8-2-4(7)3-9-5/h4-5,7H,2-3H2	InChI=1S/C5H7NO3/c6-1-5-8-2-4(7)3-9-5/h4-5,7H,2-3H2/t4-,5-
