17
gdb 112996	3.47955	1.07688	0.87691	4.2131	72.61	-0.2636	-0.0362	0.2273	1285.0641	0.136374	-455.15969	-455.150967	-455.150023	-455.193695	31.216	
O	-0.3618457157	 1.6217434829	-0.0845701424	-0.418527
C	-0.0509617963	 0.2681873621	-0.3122751612	-0.065788
C	-1.2782212612	-0.6109959551	-0.057966307	-0.124514
C	-1.0872039754	-2.1545627961	 0.0987646367	-0.218665
N	-1.5511394496	-2.0075373836	 1.4956448814	-0.105433
C	-1.6639208767	-2.8636893232	 2.5571611082	 0.138773
O	-2.0028573841	-2.5164238135	 3.6661478907	-0.299043
C	-1.6949018175	-0.6065960499	 1.405628859	 0.415546
N	-1.9571374657	 0.3271157697	 2.2106386318	-0.558326
H	-0.7635523375	 1.6789066182	 0.7955289582	 0.30396
H	 0.2766388944	 0.1822580525	-1.3540591733	 0.111708
H	 0.7810649637	-0.079318578	 0.3246161495	 0.087074
H	-2.0866268472	-0.3324797878	-0.7375389698	 0.119579
H	-1.7372270741	-2.778156045	-0.5189505891	 0.132939
H	-0.0523995065	-2.5010675726	 0.0221246006	 0.131386
H	-1.4149460543	-3.9082383227	 2.2878219523	 0.094829
H	-2.1307387363	-0.0263303979	 3.1523334645	 0.254504
60.4738	121.7016	142.0867	189.6845	211.4729	238.6866	323.763	383.9128	462.476	528.9598	549.0279	672.7789	779.5184	784.9666	869.1885	913.0941	943.6455	1005.2355	1031.3485	1056.2485	1089.1025	1126.5113	1152.3381	1170.1367	1200.2748	1253.6052	1259.1892	1280.745	1346.7976	1384.4587	1399.891	1430.3302	1459.3873	1510.5141	1514.1798	1753.7347	1817.8888	2951.2239	2954.1577	3057.0648	3064.7171	3096.6152	3115.9146	3490.8967	3713.2201
OCC1CN(C=O)C1=N	OC[C@H]1CN(C=O)[C]1[NH]	
InChI=1S/C5H8N2O2/c6-5-4(2-8)1-7(5)3-9/h3-4,6,8H,1-2H2	InChI=1S/C5H8N2O2/c6-5-4(2-8)1-7(5)3-9/h3-4,6,8H,1-2H2/t4-/m1/s1
