20
gdb 95584	2.3298	1.58971	1.14126	2.0106	75.59	-0.2434	0.0148	0.2581	1122.9526	0.171502	-440.288785	-440.279829	-440.278885	-440.322325	33.899	
C	-0.161456351	 1.6557430794	 0.0983891008	-0.413435
C	-0.0045820318	 0.1383441837	 0.0285581421	 0.135004
O	 0.5145217607	-0.2676236821	-1.25058657	-0.249337
C	 1.7518731845	 0.1142466801	-1.6800222456	 0.114874
N	 2.8784718475	 0.119752152	-1.1152052481	-0.241277
C	 3.1304735916	-0.3900395362	 0.2235103111	-0.155277
C	 2.1967477692	 0.048153605	 1.3575414773	-0.246921
C	 0.7707476921	-0.4753986704	 1.204323356	 0.106719
O	-0.0296650108	-0.1970372663	 2.3486099104	-0.440012
H	 0.7926647569	 2.1701899137	-0.0447344344	 0.128771
H	-0.849635632	 1.9931860447	-0.680844284	 0.122813
H	-0.5649659205	 1.9345845017	 1.0741397359	 0.141736
H	-0.9987647097	-0.3166774555	 0.0498641651	 0.104077
H	 1.6948116246	 0.4027048456	-2.7311565043	 0.114361
H	 3.1276851298	-1.4897123396	 0.1690021638	 0.111697
H	 4.1535553136	-0.1031504197	 0.4870103781	 0.108116
H	 2.6110438417	-0.3444987797	 2.2968513127	 0.087011
H	 2.1925170756	 1.1390800428	 1.4523958643	 0.115166
H	 0.8159996182	-1.5627018543	 1.0241714532	 0.070574
H	 0.4295971898	-0.534021835	 3.1238290158	 0.285341
69.3241	115.4983	225.3768	240.4229	250.4852	282.9484	306.0786	355.2091	382.1225	405.4547	528.8342	569.6495	582.4143	755.3688	815.2366	851.4407	858.947	921.6339	974.8261	997.4391	1033.9713	1046.4693	1065.2851	1108.6928	1137.6151	1147.5633	1167.3199	1214.0323	1255.4194	1284.1195	1342.9998	1359.5133	1379.1466	1386.1489	1399.5536	1420.3357	1432.7594	1440.7848	1480.1631	1490.7986	1494.3251	1508.9887	1749.9656	2959.8044	2992.2413	3012.5101	3053.5904	3061.4708	3073.1105	3080.7312	3120.1385	3125.2294	3140.9753	3826.1531
CC1OC=NCCC1O	C[C@H]1OC=NCC[C@H]1O	
InChI=1S/C6H11NO2/c1-5-6(8)2-3-7-4-9-5/h4-6,8H,2-3H2,1H3	InChI=1S/C6H11NO2/c1-5-6(8)2-3-7-4-9-5/h4-6,8H,2-3H2,1H3/t5-,6-/m1/s1
