16
gdb 30413	2.91923	1.38297	0.94398	2.1261	78.	-0.2208	-0.0239	0.1969	1188.4146	0.126572	-434.141067	-434.133033	-434.132089	-434.17378	30.067	
C	 0.0341685867	 1.4219215672	 0.0073512884	-0.345323
N	 0.0679073613	-0.0274739047	 0.0028347131	-0.310504
C	-1.0389838618	-0.666716782	 0.0088444995	 0.416888
N	-2.3133451679	-0.0628040057	 0.0198213261	-0.45213
C	-3.5475062435	-0.6881977569	 0.0267269381	 0.482278
O	-4.6014073539	-0.0893410923	 0.0362516408	-0.394893
N	-3.4626536858	-2.0716163643	 0.0219671484	-0.383733
C	-2.264904787	-2.7598754609	 0.0113724114	 0.027568
C	-1.0855711455	-2.1197365113	 0.0048483744	-0.19759
H	 1.0569277386	 1.8061889256	 0.000596992	 0.129173
H	-0.4769262905	 1.8397251656	-0.8760056559	 0.113025
H	-0.4631966878	 1.8343949354	 0.9009818523	 0.113057
H	-2.3761857799	 0.9437682484	 0.023430215	 0.265918
H	-4.3467174397	-2.5532340323	 0.026955471	 0.272641
H	-2.3515531722	-3.8392466464	 0.0087925695	 0.138422
H	-0.1454911111	-2.6504617755	-0.0034506542	 0.125202
110.7538	138.1828	162.3235	209.5111	247.5946	424.09	434.8595	507.7056	524.2443	556.7886	573.7917	615.3087	721.0345	758.3442	766.3797	807.6906	955.9192	972.3475	982.0898	1046.9333	1084.7291	1103.6015	1170.7782	1201.7688	1255.9073	1381.6211	1413.5046	1422.2642	1442.3036	1485.054	1499.2226	1509.3041	1688.227	1728.1402	1829.2488	2954.669	2998.2537	3101.6165	3213.4715	3255.858	3640.4717	3662.9143
CN=C1NC(=O)NC=C1	C[N]C1=C[CH]NC(=O)N1	
InChI=1S/C5H7N3O/c1-6-4-2-3-7-5(9)8-4/h2-3H,1H3,(H2,6,7,8,9)	InChI=1S/C5H7N3O/c1-6-4-2-3-7-5(9)8-4/h2-3H,1H3,(H2,6,7,8,9)
