17
gdb 33803	3.55184	1.49249	1.33482	0.7913	82.41	-0.2282	-0.0096	0.2186	992.5411	0.136912	-347.507143	-347.500133	-347.499189	-347.53808	29.676	
C	 0.0172889597	-1.190144821	-0.0133825414	-0.327249
C	 0.0044191067	 0.0120810217	-0.0038833753	 0.028814
C	-0.0095019357	 1.4590846354	 0.0048901693	 0.184343
C	-0.6564206543	 2.1873013219	 1.2369138937	-0.221224
C	-0.3544061908	 3.5928313964	 0.6401088387	-0.144945
C	 1.1629137559	 3.4250107523	 0.4221288959	-0.090092
C	 1.3726065724	 2.1670134489	 0.0434606207	-0.110661
C	-1.0428310455	 3.410761481	-0.7276858595	-0.090096
C	-0.8397653807	 2.1527019674	-1.1097459208	-0.110659
H	 0.026674789	-2.2517515532	-0.0180273011	 0.178724
H	-1.7227019388	 1.971911656	 1.336845105	 0.103791
H	-0.1255774113	 1.9822295149	 2.1693756708	 0.10379
H	-0.6613898348	 4.4634756566	 1.2182240089	 0.065214
H	 1.8875905534	 4.2224693194	 0.5151169538	 0.104135
H	 2.2930135839	 1.678592352	-0.243238859	 0.110992
H	-1.5421081185	 4.2003135835	-1.27273073	 0.104135
H	-1.1268492605	 1.6564679367	-2.0258443397	 0.110989
146.4645	156.8051	414.7008	437.5508	481.102	487.7899	531.6984	543.5976	567.3592	629.3553	631.2479	686.7864	720.3419	762.0441	787.9664	810.9848	903.9865	905.3978	917.8859	920.9295	943.6105	946.9275	1036.394	1064.4601	1071.917	1087.8151	1149.8643	1203.625	1240.8928	1254.8472	1270.337	1281.5888	1343.0536	1493.6304	1616.9307	1661.0265	2240.8691	3065.542	3123.4765	3130.6268	3215.4316	3216.8473	3244.0965	3246.0695	3503.4224
C#CC12CC(C=C1)C=C2	C#C[C@@]12C[C@@H](C=C1)C=C2	
InChI=1S/C9H8/c1-2-9-5-3-8(7-9)4-6-9/h1,3-6,8H,7H2	InChI=1S/C9H8/c1-2-9-5-3-8(7-9)4-6-9/h1,3-6,8H,7H2/t8-,9+
