15
gdb 14084	3.81018	1.68226	1.41954	4.9153	62.51	-0.2525	-0.0031	0.2494	898.7029	0.118414	-399.783864	-399.776532	-399.775587	-399.81549	26.741	
C	-0.1308299707	 1.4345381283	-0.1036885162	-0.321208
N	 0.0798893479	-0.0057215405	-0.0181611629	-0.110613
C	 1.4427947176	-0.4938604315	-0.1638421457	-0.299151
C	 0.757855016	-0.5053951038	 1.1567765581	 0.125683
C	 1.1357603393	 0.1721130873	 2.4749736111	-0.153
O	 0.6991270876	-1.0284424767	 3.1865602017	-0.251458
C	 0.3127234965	-1.6659978138	 2.0213232155	 0.434356
O	-0.1643866951	-2.7452467983	 1.9028901686	-0.327644
H	 0.7066009923	 2.028965172	 0.2970491758	 0.104629
H	-0.2717462375	 1.7043964204	-1.1538977305	 0.139312
H	-1.0405416824	 1.7000333906	 0.4426611034	 0.137381
H	 1.5619833892	-1.4193075406	-0.7197203793	 0.14343
H	 2.244503755	 0.2352214338	-0.2838225173	 0.11836
H	 2.1966094293	 0.3631000432	 2.6497032191	 0.130225
H	 0.5337850751	 1.0368536696	 2.7647976986	 0.129697
133.4101	142.0672	201.2107	224.557	274.8826	363.3879	423.1415	549.9673	631.2991	691.8803	782.5119	826.2333	878.4233	920.945	962.2432	1047.0162	1066.63	1072.5921	1117.9186	1134.7327	1151.6159	1163.9321	1203.369	1224.3123	1317.9849	1428.7405	1450.9693	1491.2965	1495.3786	1507.7037	1513.9451	1949.1482	2970.7325	3066.1124	3079.9641	3086.5841	3117.9245	3124.9623	3188.0846
CN1CC11COC1=O	CN1C[C@]21COC2=O	
InChI=1S/C5H7NO2/c1-6-2-5(6)3-8-4(5)7/h2-3H2,1H3	InChI=1S/C5H7NO2/c1-6-2-5(6)3-8-4(5)7/h2-3H2,1H3/t5-,6?/m0/s1
