18
gdb 29541	3.02039	1.73929	1.11899	1.8394	86.	-0.196	0.0051	0.2011	1072.0464	0.149878	-364.868479	-364.861038	-364.860094	-364.900069	29.683	
C	-0.0228207871	 1.5066379441	 0.0953483371	-0.496537
C	-0.0096636778	 0.0217979152	-0.0240215194	 0.368779
C	-0.0252559657	-0.7741856411	-1.1037406419	-0.220142
C	-0.0002173875	-2.23632073	-0.6916145269	-0.412938
C	 0.0322405128	-2.1266054347	 0.8079534597	 0.34797
C	 0.0660928765	-2.843052295	 1.9793482914	-0.329355
C	 0.079532354	-1.889333848	 3.0452506677	-0.143915
C	 0.0538308784	-0.6241852442	 2.4961647723	-0.145392
N	 0.0250995005	-0.7849118061	 1.1338471245	-0.043273
H	 0.868690685	 1.8693730813	 0.6203498326	 0.139801
H	-0.0518585574	 1.9682829404	-0.8933710984	 0.137098
H	-0.895384923	 1.8502574283	 0.6632634637	 0.139765
H	-0.0519498673	-0.4309999502	-2.1275638253	 0.100303
H	-0.8812244905	-2.7792483645	-1.0591282113	 0.129893
H	 0.8749677882	-2.7602374378	-1.0985265885	 0.129887
H	 0.0798637499	-3.9174975974	 2.0791821749	 0.091953
H	 0.105439761	-2.1125945079	 4.1012638592	 0.091802
H	 0.05370642	 0.3513460676	 2.9539456685	 0.114301
153.4932	174.6	210.5773	247.677	273.413	497.5142	528.9301	599.0782	607.8026	672.0177	675.0056	686.4805	742.7947	757.2207	769.0136	824.3241	919.8762	951.0121	953.0083	1005.139	1035.3988	1060.1117	1069.2055	1129.0902	1139.374	1167.0939	1231.4185	1267.2522	1286.4417	1338.898	1413.9669	1420.4397	1444.4884	1462.3446	1474.9273	1490.9822	1503.0035	1596.6222	1705.1009	3016.7724	3029.4562	3036.914	3079.4889	3133.9809	3238.7643	3242.5618	3253.3189	3272.3022
CC1=CCC2=CC=CN12	CC1=CCc2cccn12	
InChI=1S/C8H9N/c1-7-4-5-8-3-2-6-9(7)8/h2-4,6H,5H2,1H3	InChI=1S/C8H9N/c1-7-4-5-8-3-2-6-9(7)8/h2-4,6H,5H2,1H3
