20
gdb 70021	3.20062	1.52481	1.31942	0.6774	77.47	-0.2306	0.0747	0.3052	1046.6884	0.172612	-403.108182	-403.100338	-403.099394	-403.140411	30.812	
C	 0.0422101617	 1.5256029733	 0.0682426254	-0.501445
C	-0.0712215607	 0.036808329	-0.0704700986	 0.338642
C	-1.0068933806	-0.793102388	 0.7099973524	-0.298325
N	 0.4334447732	-0.9401525347	 1.0023311422	-0.188071
C	 1.0399131369	-1.7807280337	-0.1048742377	 0.00667
C	 0.4048798542	-3.1164688942	-0.5101055772	-0.264911
C	-0.4972872491	-2.7719730703	-1.7252543851	-0.080856
O	-0.1833934763	-1.4425291913	-2.1539353586	-0.266893
C	 0.6037927482	-0.782407906	-1.1886469613	 0.036404
H	 1.0640765175	 1.8675298091	-0.1295950592	 0.121276
H	-0.624397321	 2.0305249554	-0.6409582583	 0.127101
H	-0.2311103344	 1.8447877397	 1.0782134636	 0.128386
H	-1.5357460156	-0.294900999	 1.5178383939	 0.119199
H	-1.5667709256	-1.6063926557	 0.2616820043	 0.114952
H	 2.1116154287	-1.8587991768	 0.0770182239	 0.087375
H	 1.1867202545	-3.8234761104	-0.7991126535	 0.113016
H	-0.1612010232	-3.5710139848	 0.3074124643	 0.119282
H	-0.3251383813	-3.444906328	-2.5727094987	 0.103574
H	-1.5630915356	-2.8364278786	-1.4686741873	 0.104199
H	 1.3927683185	-0.223926335	-1.7004445647	 0.080425
99.3683	162.243	177.2923	240.6211	262.2923	346.9414	465.1526	518.9552	599.4367	683.1429	712.9711	743.917	767.4314	822.3749	866.0279	912.6519	925.2158	936.3896	974.0224	988.6182	1026.068	1051.3818	1083.6092	1102.4496	1119.4899	1129.7734	1152.5316	1205.9176	1225.7021	1231.9041	1254.7378	1298.1155	1305.6361	1330.7769	1341.2969	1388.1546	1403.3014	1422.3792	1482.7899	1485.3748	1492.7289	1518.4168	1541.8427	3008.7227	3026.4666	3050.6194	3064.4513	3067.8687	3087.9066	3103.2909	3109.6266	3114.8162	3126.4433	3208.4693
CC12CN1C1CCOC21	C[C@]12CN1[C@H]1CCO[C@@H]21	
InChI=1S/C7H11NO/c1-7-4-8(7)5-2-3-9-6(5)7/h5-6H,2-4H2,1H3	InChI=1S/C7H11NO/c1-7-4-8(7)5-2-3-9-6(5)7/h5-6H,2-4H2,1H3/t5-,6+,7+,8?/m0/s1
