17
gdb 29485	3.21096	1.57992	1.07291	1.2264	82.63	-0.1892	-0.011	0.1782	1096.2705	0.137427	-384.729484	-384.722074	-384.72113	-384.761193	29.	
C	-0.0182579405	 1.5364633568	-0.0220698396	-0.501423
C	-0.0078404603	 0.0404061	 0.0301637716	 0.061146
C	-0.0298240022	-0.8129262366	-1.0410497958	-0.113536
O	-0.0113705515	-2.1337448069	-0.6549047013	-0.209054
C	 0.0226996054	-2.0966159871	 0.6928913794	 0.33349
C	 0.026798782	-0.8205839798	 1.1731785171	 0.156912
C	 0.0655644484	-0.8980984626	 2.6724086754	-0.419844
C	 0.080872173	-2.4042574402	 2.9135535522	-0.079939
C	 0.0559119597	-3.0877280199	 1.7475437765	-0.210562
H	 0.8751786287	 1.9602610955	 0.4509274197	 0.128608
H	-0.0522201463	 1.8969909719	-1.0538907071	 0.12488
H	-0.8857678026	 1.9497378551	 0.5052908466	 0.128519
H	-0.0582909019	-0.6435078224	-2.105120807	 0.130394
H	 0.9518763099	-0.4199417327	 3.1107201858	 0.129682
H	-0.8030828529	-0.4307565849	 3.1554542191	 0.129648
H	 0.1085933316	-2.8383928663	 3.903947812	 0.100959
H	 0.0595432897	-4.16127539	 1.6203574154	 0.11012
137.1388	162.4488	225.5574	229.1098	328.9701	434.8749	490.2755	591.6301	606.6533	646.7082	669.6536	699.7798	739.1445	770.9418	858.6956	922.5654	924.9196	933.8406	1006.7861	1033.2164	1062.385	1113.072	1119.1793	1130.8137	1181.1424	1243.2936	1254.9405	1316.491	1409.4255	1419.9903	1434.3355	1472.8008	1482.1068	1502.7011	1525.1268	1592.0673	1627.1278	3025.1155	3027.1841	3051.6847	3076.5983	3109.9676	3218.9887	3241.6086	3272.5102
CC1=COC2=C1CC=C2	Cc1coc2c1CC=C2	
InChI=1S/C8H8O/c1-6-5-9-8-4-2-3-7(6)8/h2,4-5H,3H2,1H3	InChI=1S/C8H8O/c1-6-5-9-8-4-2-3-7(6)8/h2,4-5H,3H2,1H3
