20
gdb 107102	3.11655	1.07088	0.92238	2.7175	79.7	-0.2428	-0.027	0.2158	1337.3811	0.169477	-403.118045	-403.108919	-403.107975	-403.152646	33.564	
C	 0.0669215825	 1.526312966	 0.0537104657	-0.380148
C	-0.0922070339	 0.0330089745	-0.264155478	-0.286226
C	-1.49592266	-0.452575821	-0.0361262652	 0.368729
C	-1.9726675832	-1.0126972852	 1.2468504685	-0.278969
N	-1.8493652806	-1.9331084042	 0.0950632775	-0.197755
C	-3.0620793673	-1.6585645522	-0.7589821968	-0.031431
C	-2.6844151102	-0.177725337	-0.96497459	-0.335088
C	-3.0087105075	-2.5417000417	-1.9872131158	 0.147313
O	-3.0638307335	-2.145814687	-3.1225261894	-0.237974
H	 1.0928896501	 1.8574228325	-0.1308656018	 0.118685
H	-0.5962987919	 2.1370688204	-0.5679813564	 0.122508
H	-0.1727443913	 1.7355760278	 1.1013725139	 0.118818
H	 0.1893769259	-0.1555160008	-1.3078225244	 0.107617
H	 0.5905723821	-0.5603870936	 0.3548263542	 0.108481
H	-1.231949259	-1.2063690535	 2.0172271918	 0.121739
H	-2.9661621629	-0.7751352761	 1.6237785291	 0.1092
H	-4.0054946091	-1.8709453063	-0.2348891576	 0.094258
H	-3.3989548281	 0.5826741824	-0.6406475171	 0.104687
H	-2.3995721712	 0.015318052	-2.0011143295	 0.134834
H	-2.9016635109	-3.6225477169	-1.7477208787	 0.090725
55.319	71.7843	125.8479	198.6601	214.3679	240.1739	352.5132	374.431	405.708	447.7561	640.4473	645.1301	729.9498	788.7086	802.248	845.921	865.7066	921.8149	948.5288	987.7671	1002.1267	1044.44	1062.5249	1080.8658	1106.0319	1126.712	1137.2488	1153.3133	1224.1942	1242.8837	1257.8279	1321.7398	1345.4509	1359.214	1395.3855	1409.9783	1412.4285	1481.7023	1489.7714	1498.7482	1508.0001	1511.9956	1832.3944	2897.2576	3003.4047	3026.9151	3035.6745	3065.7026	3066.8897	3095.8448	3104.2853	3111.06	3126.0422	3190.7871
CCC12CN1C(C2)C=O	CC[C@]12CN1[C@@H](C2)C=O	
InChI=1S/C7H11NO/c1-2-7-3-6(4-9)8(7)5-7/h4,6H,2-3,5H2,1H3	InChI=1S/C7H11NO/c1-2-7-3-6(4-9)8(7)5-7/h4,6H,2-3,5H2,1H3/t6-,7-,8?/m0/s1
