16
gdb 55503	3.48866	0.9634	0.88678	2.5894	67.93	-0.2578	-0.0769	0.1809	1358.8509	0.119982	-475.070598	-475.060551	-475.059606	-475.107382	33.736	
C	 0.5544329802	 0.9156413359	-0.0531715328	-0.477082
C	-0.5889826666	 0.0300527166	 0.3467430442	 0.388644
N	-1.2647970328	-0.0145416016	 1.4034792369	-0.42828
O	-1.0040487599	-0.8332152562	-0.6854086967	-0.216841
C	-0.2333352134	-1.8951108635	-0.9691107685	 0.356798
O	 0.7902895641	-2.1901553715	-0.4083157474	-0.344195
C	-0.8225079489	-2.7183251851	-2.1410568454	 0.289126
C	-0.1615890884	-4.0570562826	-2.3472718286	-0.474485
O	-1.7163113594	-2.2769395339	-2.8138804561	-0.257927
H	 0.7760582421	 1.6399124659	 0.7324772138	 0.134864
H	 1.4433099367	 0.307028509	-0.2412946968	 0.171103
H	 0.3089070543	 1.4489459164	-0.9770120975	 0.155623
H	-0.9341283748	 0.6843856368	 2.0683752653	 0.236298
H	-0.2835871314	-4.6744037784	-1.4505414345	 0.158935
H	-0.6042279485	-4.5542191498	-3.2102481858	 0.146075
H	 0.9160760067	-3.9276189579	-2.4843562303	 0.161346
33.563	57.776	73.6036	117.3503	141.172	169.1062	245.3707	320.6147	393.9268	445.994	490.0059	543.5126	569.69	613.4862	717.5727	809.2981	846.5164	943.2573	972.8704	1004.7704	1038.4486	1060.5839	1078.1767	1151.9682	1293.1799	1320.5411	1385.9434	1402.2278	1453.2463	1460.5188	1469.7947	1486.6151	1771.4002	1813.1679	1833.9802	3048.6042	3049.8428	3111.2204	3120.3044	3144.6789	3164.8551	3497.1748
CC(=N)OC(=O)C(C)=O	C[C]([NH])OC(=O)C(=O)C	
InChI=1S/C5H7NO3/c1-3(7)5(8)9-4(2)6/h6H,1-2H3	InChI=1S/C5H7NO3/c1-3(7)5(8)9-4(2)6/h6H,1-2H3
