18
gdb 98429	2.65929	1.29316	1.00647	3.2806	69.97	-0.2301	0.002	0.2321	1215.3052	0.146293	-476.231631	-476.222107	-476.221163	-476.265975	34.947	
C	-0.0055737387	 1.3245985262	 0.0116408902	-0.24458
O	 0.0432212526	-0.1091596869	 0.0456111435	-0.244082
C	 0.7367951339	-0.6387242213	 1.0673417305	 0.440307
O	 1.2951128478	 0.0437143081	 1.9090837253	-0.415736
C	 0.7157338267	-2.1255775352	 1.0645269448	 0.074061
N	-0.0179033686	-2.8581926166	 0.0710827424	-0.567611
C	 1.9981936371	-2.7900495324	 1.5908175505	-0.34098
C	 0.7990087237	-2.7636926532	 2.4714251906	 0.139213
O	 0.7301873883	-2.0152121143	 3.6279637334	-0.423911
H	 1.0013273443	 1.7414352054	-0.0660903098	 0.144913
H	-0.5947551737	 1.5785520188	-0.8693250749	 0.135759
H	-0.4788748375	 1.7142494164	 0.9159516708	 0.14592
H	-0.9903887131	-2.5654402393	 0.0626139399	 0.235476
H	 0.3472101596	-2.6602487285	-0.8566551922	 0.232335
H	 2.2680287921	-3.717701031	 1.1000866367	 0.129003
H	 2.8148527844	-2.12158763	 1.8396736798	 0.132422
H	 0.2214550577	-3.6778591162	 2.553840719	 0.124341
H	 1.1058769634	-1.14190127	 3.4270936495	 0.303148
65.4283	117.0991	160.3873	187.8687	200.1196	251.0532	300.1994	336.1022	349.0693	431.9741	480.603	503.7212	555.2139	579.5926	762.477	790.5438	831.0776	847.1853	891.0816	931.1801	997.3176	1023.6853	1058.3891	1114.8952	1158.8185	1178.6597	1202.9008	1224.8646	1269.9777	1287.4703	1340.7533	1366.1773	1441.9818	1473.1775	1481.4049	1483.716	1496.7995	1666.781	1750.3663	3055.4213	3132.2854	3140.9641	3162.42	3182.7129	3240.8176	3487.8359	3561.3985	3661.2313
COC(=O)C1(N)CC1O	COC(=O)[C@@]1(N)C[C@H]1O	
InChI=1S/C5H9NO3/c1-9-4(8)5(6)2-3(5)7/h3,7H,2,6H2,1H3	InChI=1S/C5H9NO3/c1-9-4(8)5(6)2-3(5)7/h3,7H,2,6H2,1H3/t3-,5-/m1/s1
