16
gdb 113034	4.0087	1.02623	0.87501	3.7587	71.68	-0.2832	-0.0194	0.2638	1294.2938	0.123661	-437.886971	-437.87847	-437.877526	-437.920894	30.178	
C	 0.1499191045	 1.3260643038	 0.2779374106	-0.245037
O	 0.1949017812	-0.0864347038	 0.1387304462	-0.236693
C	 0.4055523625	-0.5161009379	-1.1696081118	 0.180535
O	 1.7305082767	-0.2200784684	-1.6276797335	-0.274439
C	 2.4862919331	-1.4162637329	-1.7466151369	-0.054136
C	 1.4963353228	-2.5368935006	-1.5102715366	-0.093998
C	 0.3158060259	-2.0173561808	-1.2099933218	-0.107236
C	 3.1072387013	-1.4827919062	-3.0839236106	 0.269079
N	 3.609408881	-1.5617251359	-4.1209738545	-0.315952
H	 1.1135702246	 1.7826767479	 0.0251230179	 0.132624
H	-0.6298993512	 1.7640881398	-0.3623057016	 0.112071
H	-0.0878690463	 1.5335519348	 1.3228305347	 0.133137
H	-0.2879847801	 0.0053241911	-1.8487410819	 0.08777
H	 3.299458472	-1.4349160737	-1.0049357392	 0.141907
H	 1.7717131096	-3.5798459303	-1.5836217356	 0.138646
H	-0.5936156374	-2.547798207	-0.9646906555	 0.131721
60.4975	105.0564	127.6971	178.0164	214.5048	266.5513	368.9354	465.0266	487.4982	542.5369	594.9212	738.05	784.1319	829.2879	914.6544	936.9258	963.1039	991.8388	1006.8142	1044.5125	1074.6977	1122.4838	1150.4023	1178.6532	1219.1016	1270.4941	1329.7545	1340.7037	1377.8619	1403.502	1478.2522	1486.1189	1511.931	1697.1579	2362.6209	2979.2419	2993.8758	2998.2612	3071.294	3133.0101	3228.8657	3252.2225
COC1OC(C=C1)C#N	CO[C@H]1O[C@@H](C=C1)C#N	
InChI=1S/C6H7NO2/c1-8-6-3-2-5(4-7)9-6/h2-3,5-6H,1H3	InChI=1S/C6H7NO2/c1-8-6-3-2-5(4-7)9-6/h2-3,5-6H,1H3/t5-,6-/m0/s1
