16
gdb 128336	2.78774	1.57568	1.01304	3.0011	78.79	-0.2014	-0.0153	0.1861	1125.4958	0.127221	-430.267075	-430.258798	-430.257854	-430.300444	30.146	
C	-0.0041275337	 1.4129165689	 0.0414116465	-0.314336
N	 0.0600378243	-0.0238700535	-0.0807332671	-0.322414
C	 0.6490901583	-0.6590139996	-1.1078451312	 0.40953
N	 1.2088177004	 0.0195401316	-2.0750050658	-0.344955
N	 1.7677316137	-0.767094613	-3.050505745	-0.217314
C	 1.7535562654	-2.1069158079	-3.0353068619	 0.104679
N	 1.212734573	-2.8310322575	-2.1011423695	-0.348337
C	 0.6132333007	-2.1483857387	-1.0556751903	 0.298181
N	 0.030491876	-2.6874367602	-0.0477758503	-0.561424
H	 0.9988716546	 1.8548752021	 0.0751468874	 0.135458
H	-0.5333713448	 1.8614351211	-0.8078176165	 0.135487
H	-0.533287489	 1.666085089	 0.9615076837	 0.128426
H	-0.3386688411	-0.6462830712	 0.6077512941	 0.2718
H	 2.1998452725	-0.2513648402	-3.798977012	 0.276139
H	 2.2398483773	-2.5865170078	-3.8829644503	 0.130403
H	 0.0744407423	-3.7038783831	-0.1311069518	 0.218677
71.6583	97.0717	132.4851	197.4148	303.3152	368.9222	423.6567	492.8358	515.5318	524.9199	570.6758	607.897	610.4943	784.4695	816.4578	883.6204	948.7677	953.0955	1041.7269	1052.1504	1120.5156	1161.4802	1190.4116	1240.4819	1326.6702	1368.3786	1419.5116	1458.2469	1475.2372	1509.6254	1518.0576	1593.3015	1610.7145	1664.7996	1681.7399	3021.6861	3068.0631	3135.3232	3150.1783	3476.0375	3602.0641	3653.85
CNC1=NNC=NC1=N	CNC1=NNCN=C1[NH]	
InChI=1S/C4H7N5/c1-6-4-3(5)7-2-8-9-4/h2H,1H3,(H,6,9)(H2,5,7,8)	InChI=1S/C4H8N5/c1-6-4-3(5)7-2-8-9-4/h5,8H,2H2,1H3,(H,6,9)
