14
gdb 25041	5.75612	1.04625	0.88533	1.8823	88.16	-0.2064	-0.0604	0.1461	1225.8398	0.102468	-395.728418	-395.720932	-395.719988	-395.760401	28.782	
N	-0.1164282247	 1.262411195	-0.5045229398	-0.556977
C	 0.0164408006	 0.0723714681	-0.0493771959	 0.36142
N	-1.1313967793	-0.6561442229	 0.2729573046	-0.315918
C	-1.1040072228	-1.9199321316	 0.7602600336	-0.043181
C	 0.0905350074	-2.5550864013	 0.9631904182	 0.114903
N	 1.282177007	-1.9038813797	 0.6692478707	-0.272257
C	 1.237283445	-0.7009678821	 0.2060685797	-0.081505
C	 0.1473255683	-3.8798939751	 1.4730125537	 0.241407
C	 0.1855166795	-5.0030742399	 1.9055905469	-0.405976
H	 0.795973641	 1.6730321861	-0.6956154431	 0.220906
H	-2.0083488146	-0.1778204354	 0.1193076587	 0.27403
H	-2.0576880255	-2.3847033621	 0.9737495648	 0.14922
H	 2.18158417	-0.2055850313	-0.0188724671	 0.120027
H	 0.2279394582	-5.9931423178	 2.286592515	 0.193902
82.9368	148.8822	211.2678	399.3729	400.68	431.3289	447.052	521.7555	533.4924	556.5374	648.4187	675.5871	700.5554	742.5456	767.7894	798.4086	833.8466	905.6054	941.2752	983.739	1093.0668	1205.8858	1258.6173	1311.2769	1369.5899	1400.6088	1483.9216	1577.6036	1643.3851	1705.3989	2228.7665	3133.1233	3224.0338	3501.0978	3504.1201	3606.5003
N=C1NC=C(N=C1)C#C	[NH]c1[nH]cc(nc1)C#C	
InChI=1S/C6H5N3/c1-2-5-3-9-6(7)4-8-5/h1,3-4H,(H2,7,9)	InChI=1S/C6H10N3/c1-2-5-3-9-6(7)4-8-5/h1,5-9H,3-4H2
