17
gdb 117436	5.22889	0.62427	0.59148	4.257	72.29	-0.2681	0.0021	0.2702	1843.4608	0.133782	-455.163825	-455.15357	-455.152626	-455.201462	33.94	
C	-0.1003916684	 1.3753776178	 0.1096649492	-0.226932
O	-0.0152340464	-0.0310992452	 0.0628764038	-0.207707
C	-1.2654522612	-0.6473565868	 0.0312189857	-0.169465
C	-1.0760028025	-2.1618571306	 0.1351585753	 0.404974
O	-0.1362986484	-2.6839358658	 0.6911465279	-0.338213
N	-2.1006135163	-2.8810629323	-0.4332671215	-0.329274
C	-2.1622252563	-4.3210583714	-0.29449334	-0.281005
C	-3.377117408	-4.7655872382	 0.400461082	 0.25395
N	-4.3496353785	-5.1043126012	 0.9237727627	-0.297125
H	 0.9218831225	 1.7571569302	 0.1446683234	 0.13892
H	-0.6047922941	 1.7859231385	-0.7793488861	 0.106043
H	-0.6428152952	 1.7197277496	 1.003958147	 0.110598
H	-1.8951117137	-0.3342665719	 0.8843695107	 0.120884
H	-1.8231880311	-0.3904672549	-0.8874205755	 0.092229
H	-2.8655215046	-2.4044762659	-0.8828114912	 0.260977
H	-2.1123964542	-4.8230900441	-1.268186673	 0.160688
H	-1.2751995737	-4.6119380978	 0.2773898798	 0.200457
24.6562	52.3422	62.6384	82.8869	176.149	227.571	239.2841	293.9035	348.2633	371.7619	400.026	422.4842	592.8663	616.821	733.9255	900.9345	931.371	1001.0546	1025.5774	1047.6977	1103.4848	1176.6268	1183.0754	1207.6271	1239.0887	1265.2583	1269.6659	1369.7693	1420.6466	1470.0168	1474.0252	1486.6116	1492.9805	1517.8191	1528.6062	1810.8936	2364.2564	2935.0204	2959.4399	2973.0066	3018.6802	3037.8048	3096.9202	3125.8794	3644.0366
COCC(=O)NCC#N	COCC(=O)NCC#N	
InChI=1S/C5H8N2O2/c1-9-4-5(8)7-3-2-6/h3-4H2,1H3,(H,7,8)	InChI=1S/C5H8N2O2/c1-9-4-5(8)7-3-2-6/h3-4H2,1H3,(H,7,8)
