18
gdb 55000	2.75799	1.11801	1.01056	3.8318	74.59	-0.2398	-0.0373	0.2025	1258.2602	0.146655	-439.134439	-439.12517	-439.124225	-439.169124	33.979	
C	 0.806539026	-0.2432347214	-1.782893831	-0.481195
C	 0.2312039722	-1.5510539329	-1.2825260828	 0.394232
O	 0.7669084528	-2.6145833967	-1.5419522718	-0.337201
C	-1.0280857217	-1.4429018083	-0.491528465	-0.135328
C	-1.9777189841	-2.617160943	-0.425817522	-0.299248
C	-1.2874365756	-2.2033610719	 0.8341618931	-0.084289
C	-0.3160437546	-3.059777547	 1.6167937575	 0.370027
N	 0.4478455928	-3.9503358704	 0.927198137	-0.537139
O	-0.3018566862	-2.967952904	 2.8318125792	-0.371019
H	 1.724237839	-0.4277502105	-2.3414668131	 0.146274
H	 0.0793705045	 0.2689246896	-2.4233578213	 0.147028
H	 1.0102920087	 0.4244517987	-0.937951675	 0.151286
H	-1.4697932832	-0.4522066445	-0.4993544087	 0.101347
H	-3.0386984949	-2.4192701647	-0.5263552167	 0.130737
H	-1.626904955	-3.5232583354	-0.9075152538	 0.145978
H	-1.8719757852	-1.6178939816	 1.5341721932	 0.123947
H	 0.6142056869	-3.8218839221	-0.0640269897	 0.280804
H	 1.1401070277	-4.4397986241	 1.472446541	 0.253758
48.3484	78.9432	137.7026	188.2226	210.3656	270.8194	288.17	376.0243	457.6509	522.27	543.5519	593.1779	628.8875	662.9636	737.583	745.1972	794.1393	856.5067	916.2835	945.7158	972.0536	1045.7928	1054.9791	1082.0908	1130.8946	1144.6355	1168.6242	1190.2885	1223.7939	1355.1902	1379.5524	1396.4983	1423.6823	1462.5503	1473.3305	1479.5904	1637.4356	1768.7565	1786.5224	3036.3045	3096.476	3140.5686	3158.001	3166.3255	3188.0184	3233.8493	3500.9794	3674.7764
CC(=O)C1CC1C(N)=O	CC(=O)[C@H]1C[C@H]1C(=O)N	
InChI=1S/C6H9NO2/c1-3(8)4-2-5(4)6(7)9/h4-5H,2H2,1H3,(H2,7,9)	InChI=1S/C6H9NO2/c1-3(8)4-2-5(4)6(7)9/h4-5H,2H2,1H3,(H2,7,9)/t4-,5-/m1/s1
