21
gdb 81382	2.49486	1.57623	1.27384	1.3943	77.75	-0.2449	0.0777	0.3226	1086.1255	0.183682	-424.213029	-424.204672	-424.203727	-424.245576	33.124	
C	-0.3017478585	 1.544805191	 0.0539189982	-0.404766
C	 0.0754539945	 0.0636621082	 0.0059492642	 0.133075
O	 0.8126804544	-0.2427201932	-1.1852754906	-0.2821
C	 2.222670533	-0.3858804628	-1.0657928517	-0.077612
C	 2.6399787841	-0.8949324264	 0.3178301199	-0.083579
C	 1.5069335987	-1.7942058968	 0.8892310974	-0.238896
C	 0.8099264824	-0.4493200632	 1.2523980525	-0.045742
C	 2.222148083	 0.1738467447	 1.361691463	 0.152326
O	 2.7228630044	-0.0435374875	 2.6673282294	-0.455546
H	 0.5767930184	 2.1899189908	 0.1417623532	 0.118402
H	-0.8333409924	 1.820228922	-0.8609005873	 0.123314
H	-0.9578072365	 1.7456227811	 0.9079074622	 0.113322
H	-0.8515282091	-0.5189926945	-0.0905942691	 0.081689
H	 2.5166590395	-1.0975197987	-1.8460983589	 0.104884
H	 2.7325350593	 0.5689010839	-1.2799956084	 0.084283
H	 3.6763626555	-1.2466984485	 0.3180987185	 0.056508
H	 0.9894047174	-2.461332164	 0.1962468484	 0.100626
H	 1.8287711455	-2.3353459716	 1.7780224291	 0.110704
H	 0.1768741442	-0.3908302472	 2.1406216475	 0.073334
H	 2.3505157608	 1.2243402104	 1.0646287183	 0.056396
H	 3.6725065315	 0.1143103822	 2.6506269143	 0.27938
94.587	186.0073	209.3936	264.4505	294.9919	309.7704	350.2753	380.8196	447.5794	460.0268	562.1806	677.3326	770.8561	843.1824	859.0944	885.6965	903.0939	925.9064	943.8883	993.4773	1007.5427	1031.5279	1071.6412	1073.9528	1106.2468	1126.7044	1143.1359	1150.1811	1178.4038	1205.643	1250.0548	1253.3997	1294.3605	1303.722	1313.4891	1327.8746	1365.377	1383.8372	1403.3391	1410.4957	1424.9936	1478.3633	1486.0612	1497.8782	1515.6562	2956.8653	2995.4943	3002.7528	3039.8249	3047.684	3062.3688	3077.1213	3089.9301	3109.846	3121.1977	3148.1018	3809.3773
CC1OCC2CC1C2O	C[C@H]1OC[C@@H]2C[C@H]1[C@H]2O	
InChI=1S/C7H12O2/c1-4-6-2-5(3-9-4)7(6)8/h4-8H,2-3H2,1H3	InChI=1S/C7H12O2/c1-4-6-2-5(3-9-4)7(6)8/h4-8H,2-3H2,1H3/t4-,5+,6-,7+/m1/s1
