16
gdb 38671	3.09341	1.83835	1.32593	1.2051	68.9	-0.2428	0.0181	0.261	929.6774	0.126211	-437.850282	-437.843566	-437.842622	-437.881384	26.534	
C	-0.0187384867	 1.5476562011	-0.059915904	-0.252156
C	 1.5107862636	 1.551096433	 0.0819074611	-0.062543
O	 2.0698209808	 0.7839654889	-1.0115027619	-0.304387
C	 1.5585308363	 0.0825343947	 0.1084704065	 0.406434
C	 2.324269338	-0.9315448866	 0.8804095691	-0.195877
O	 1.5822364093	-1.2847570709	 2.0645934334	-0.22999
C	 0.2361702995	-1.0941744016	 2.0750872419	 0.136665
N	-0.543916433	-0.5658767795	 1.2276319761	-0.271661
C	 0.0350733089	-0.0240939755	 0.0117574763	-0.059132
H	-0.535784396	 1.9618773025	 0.8076045465	 0.123573
H	-0.4073902068	 1.9873165977	-0.9806119098	 0.115467
H	 2.1644183829	 2.2871752364	 0.5351855766	 0.110158
H	 2.4701731037	-1.8428662549	 0.2861012313	 0.128323
H	 3.3019317261	-0.5703261037	 1.2097054378	 0.134242
H	-0.159404586	-1.4901298447	 3.0087195351	 0.129723
H	-0.3638611604	-0.5491745169	-0.8610252758	 0.091161
128.3583	163.7641	300.34	359.9739	442.2423	480.3121	487.2135	550.6787	667.2008	746.1659	826.2719	837.5287	891.3413	911.8584	929.8411	967.0328	984.3624	1006.3078	1026.0319	1052.1538	1072.278	1148.3315	1167.6015	1192.1236	1211.6912	1247.2743	1271.8874	1285.6265	1319.6477	1379.0616	1415.3414	1458.3243	1493.5419	1507.7178	1711.7888	3026.399	3065.6048	3077.1576	3097.9409	3141.3642	3160.9952	3189.6693
C1C2OC22COC=NC12	C1[C@@H]2O[C@]32COC=N[C@@H]13	
InChI=1S/C6H7NO2/c1-4-6(5(1)9-6)2-8-3-7-4/h3-5H,1-2H2	InChI=1S/C6H7NO2/c1-4-6(5(1)9-6)2-8-3-7-4/h3-5H,1-2H2/t4-,5-,6+/m0/s1
