20
gdb 71306	2.52964	1.89743	1.39164	2.7155	77.04	-0.2195	0.0693	0.2887	989.399	0.173321	-403.112785	-403.105316	-403.104371	-403.144117	31.031	
O	-0.0739828247	 1.3350679601	 0.0859687047	-0.493895
C	 0.0396488547	-0.0672004823	-0.0137093484	 0.402868
C	 0.175250359	-0.6226539909	-1.465127223	-0.217321
N	-1.1488275044	-1.3333730461	-1.3904529849	-0.160477
C	-1.1943728279	-2.1697805426	-0.161002292	-0.000672
C	-0.0609054641	-2.9414961885	 0.4967385628	-0.228362
C	 1.2363514583	-2.1509900492	 0.7808757821	-0.227734
C	 0.9877386126	-0.6561981483	 1.0332230324	-0.265328
C	-1.3513248518	-0.7120035653	-0.019717273	-0.089816
H	 0.8136915089	 1.7092269021	 0.0747966854	 0.274518
H	 0.0830386842	 0.1917022677	-2.187053897	 0.111968
H	 1.0262103716	-1.2545885303	-1.7351706041	 0.090857
H	-2.1268722085	-2.7308061347	-0.1665032214	 0.096873
H	-0.4725828942	-3.3088367989	 1.4461740966	 0.109152
H	 0.1713859476	-3.8362172405	-0.0927041943	 0.107519
H	 1.7494962299	-2.5956577028	 1.6396124107	 0.097614
H	 1.9241925724	-2.2577386167	-0.0633980137	 0.108037
H	 1.9457343221	-0.1180888292	 1.0127168869	 0.082636
H	 0.550118079	-0.4866088533	 2.0250274027	 0.106132
H	-2.2621405345	-0.1959572303	 0.2650213275	 0.095432
149.3232	242.272	259.4909	314.6188	353.3764	382.3949	403.3284	502.5041	509.3848	618.2564	653.583	736.9439	774.6606	813.5503	848.2079	878.7536	915.7031	916.9852	966.429	992.6465	1001.4367	1034.8216	1064.5511	1088.74	1105.6462	1152.5284	1162.0971	1193.1438	1223.3957	1233.6687	1244.9972	1286.8098	1292.4869	1320.5542	1358.3465	1371.136	1378.6242	1407.7463	1434.6538	1479.8558	1482.3639	1486.4986	1513.7604	3007.2047	3018.6745	3040.3417	3052.1138	3053.9885	3057.0189	3084.8712	3114.0739	3127.4417	3169.9697	3803.2367
OC12CN3C(CCC1)C23	O[C@@]12CN3[C@@H](CCC1)[C@@H]23	
InChI=1S/C7H11NO/c9-7-3-1-2-5-6(7)8(5)4-7/h5-6,9H,1-4H2	InChI=1S/C7H11NO/c9-7-3-1-2-5-6(7)8(5)4-7/h5-6,9H,1-4H2/t5-,6-,7+,8?/m0/s1
