23
gdb 58478	2.12325	1.29759	1.05568	0.8069	92.48	-0.2375	0.0507	0.2882	1305.9362	0.202676	-351.124029	-351.113401	-351.112456	-351.158905	40.559	
C	-0.3630357741	 1.4327869621	 0.0681119796	-0.399974
C	 0.1398189289	-0.0091225701	-0.1016311495	-0.023608
C	 1.0484193464	-0.141667452	-1.333374403	-0.402096
C	 0.8085791364	-0.5312367277	 1.1724744553	 0.369073
C	 2.0874645385	 0.160154503	 1.6130842899	-0.471252
C	-0.0902351679	-1.0554848297	 2.2579996419	-0.338903
C	 0.7507036234	-2.037771835	 1.4493120042	-0.26009
C	 0.1290569766	-2.9609371699	 0.5464373187	 0.332317
C	-0.377224815	-3.7521394918	-0.2067874456	-0.459604
H	 0.4658162764	 2.1387830329	 0.1890401232	 0.1135
H	-0.9315858564	 1.7467404784	-0.8132690335	 0.110783
H	-1.0155037395	 1.5282539777	 0.9420457906	 0.112163
H	-0.73530569	-0.6458696333	-0.2775633686	 0.083995
H	 1.930150983	 0.5039851853	-1.2578627093	 0.110023
H	 1.3881316614	-1.1733430722	-1.4621132981	 0.125859
H	 0.5086006201	 0.1502952547	-2.2401236347	 0.108757
H	 1.9167035146	 1.2231647295	 1.8135977571	 0.120951
H	 2.4742650179	-0.2871265233	 2.5339866647	 0.113755
H	 2.8725183903	 0.0835107224	 0.8541333689	 0.123671
H	 0.1884853956	-0.9002559297	 3.2950735782	 0.111538
H	-1.1592157365	-1.0689426683	 2.075411756	 0.120652
H	 1.6194649631	-2.440856474	 1.9632436606	 0.106899
H	-0.8265611231	-4.4484190991	-0.8702043164	 0.191592
73.3162	115.7602	140.1714	209.3703	222.0332	244.3405	251.7679	275.2517	296.534	333.7262	389.6988	421.5332	483.0235	534.0856	572.4777	607.9357	645.5047	669.194	786.3651	850.3895	880.3524	927.1835	938.9231	943.7383	967.3448	1000.9094	1049.3902	1071.7677	1107.0401	1115.6396	1130.3036	1149.1639	1189.201	1263.3194	1308.5604	1346.2402	1369.5439	1395.783	1404.5706	1419.8941	1425.123	1481.6218	1485.622	1488.5497	1500.3311	1502.6172	1509.2112	1511.3776	2229.5111	3028.6011	3030.7068	3035.5289	3036.8341	3091.7502	3097.5778	3101.1606	3101.4863	3104.155	3113.1557	3129.5901	3136.014	3218.4442	3504.3704
CC(C)C1(C)CC1C#C	CC(C)[C@@]1(C)C[C@H]1C#C	
InChI=1S/C9H14/c1-5-8-6-9(8,4)7(2)3/h1,7-8H,6H2,2-4H3	InChI=1S/C9H14/c1-5-8-6-9(8,4)7(2)3/h1,7-8H,6H2,2-4H3/t8-,9-/m1/s1
