22
gdb 96160	2.55731	1.48084	1.02901	1.4805	82.37	-0.2256	0.0846	0.3102	1216.9981	0.196095	-404.321089	-404.312746	-404.311802	-404.353572	33.288	
C	 0.0041728125	 1.5675563161	-0.0583893134	-0.403362
C	-0.0118434278	 0.0349507295	 0.0326333722	 0.014073
C	 0.7109021809	-0.5461110678	-1.1971275919	-0.070484
O	 0.6693348577	-1.9532219894	-1.3501823285	-0.245366
C	 1.3829572563	-2.673612729	-0.3590625342	-0.110706
C	 0.545042972	-2.8999603094	 0.8810088108	 0.006675
C	 1.1155878779	-2.7279006715	 2.248473401	-0.265794
N	 0.1443837821	-1.7749715921	 1.7255062145	-0.076883
C	 0.607385137	-0.4360671667	 1.359897805	-0.165186
H	 1.0271547805	 1.9590031742	-0.0012488797	 0.115261
H	-0.4305573172	 1.9156976465	-1.0008333137	 0.11606
H	-0.5678379899	 2.0147113918	 0.7599396318	 0.11962
H	-1.0519536676	-0.3130991731	 0.0126845916	 0.094325
H	 0.2503604705	-0.1472757594	-2.1071247938	 0.104193
H	 1.7621741328	-0.2044558241	-1.1830693804	 0.079966
H	 1.6382926119	-3.6412589536	-0.8050683176	 0.107265
H	 2.3276379896	-2.1632817151	-0.1184781052	 0.086918
H	-0.2525434618	-3.6280135546	 0.7398840374	 0.093653
H	 0.7809845082	-3.3533177627	 3.0720012277	 0.115339
H	 2.1561572677	-2.4099830935	 2.3166483897	 0.10579
H	 1.7072697102	-0.3612186978	 1.2947697472	 0.078917
H	 0.3022599266	 0.2369119017	 2.1700818494	 0.099724
127.496	173.9793	208.691	256.4667	293.907	346.9816	359.81	379.359	440.5323	451.2204	535.3477	585.8691	784.6653	802.4522	852.9824	908.635	922.3438	940.0243	963.0489	978.8812	1003.8785	1051.5391	1083.2755	1098.4507	1117.9257	1135.482	1146.3501	1164.4163	1182.9486	1188.7901	1252.4799	1283.7022	1311.9026	1329.2376	1336.7465	1354.9817	1375.3394	1393.5086	1405.7094	1423.6651	1436.602	1484.8086	1489.2473	1497.9447	1501.4995	1503.218	1521.5196	2936.401	2943.139	2993.8918	3026.8319	3038.217	3043.0375	3063.7188	3069.5771	3084.3438	3093.3226	3107.5107	3115.2053	3172.7035
CC1COCC2CN2C1	C[C@H]1COC[C@H]2CN2C1	
InChI=1S/C7H13NO/c1-6-2-8-3-7(8)5-9-4-6/h6-7H,2-5H2,1H3	InChI=1S/C7H13NO/c1-6-2-8-3-7(8)5-9-4-6/h6-7H,2-5H2,1H3/t6-,7-,8?/m1/s1
