19
gdb 99078	3.3763	0.7681	0.68755	2.1001	73.03	-0.2626	-0.0332	0.2294	1637.1702	0.155035	-460.192567	-460.182125	-460.181181	-460.229665	36.008	
C	-0.121394895	 1.7237286756	-0.3074925894	-0.415922
C	 0.0256194516	 0.2361142012	 0.0557124285	-0.07346
C	-1.3092185218	-0.5035500445	 0.1534755887	-0.313889
C	-2.0750618352	-0.211188218	 1.4250379163	 0.348579
O	-1.5744535571	 0.3215730435	 2.39534963	-0.326412
C	-3.5394150709	-0.6250957046	 1.4865839584	-0.12591
O	-4.0893330192	-0.3798608641	 2.7451077468	-0.419154
C	 0.9788170982	-0.4537816509	-0.90008036	 0.151834
O	 0.7820040572	-1.5162251927	-1.4329679428	-0.248404
H	 0.8564539585	 2.2096038419	-0.3863833387	 0.126327
H	-0.6381621547	 1.8482969497	-1.2653456519	 0.125806
H	-0.6918558458	 2.2459540668	 0.4640157093	 0.144939
H	 0.5134460645	 0.1919394082	 1.0415196563	 0.129337
H	-1.9473081712	-0.2901707194	-0.7131473254	 0.126015
H	-1.1317900421	-1.5866324857	 0.1108666114	 0.157511
H	-4.0751673879	-0.0722602424	 0.6950617386	 0.115275
H	-3.6148837965	-1.6912530583	 1.2175467283	 0.119724
H	-3.3812512731	 0.0528293838	 3.2486791656	 0.294234
H	 1.9244629104	 0.1082109998	-1.0785963802	 0.083569
32.4617	50.5665	105.1244	118.6221	133.5794	225.1126	233.8389	285.6206	351.5276	390.9981	400.4175	421.1323	483.366	621.0341	727.8015	794.73	824.46	885.7605	918.6992	942.2637	979.6607	1052.6947	1110.4082	1121.8373	1150.9213	1166.423	1229.0779	1264.5586	1287.6457	1314.2714	1319.1924	1387.663	1403.015	1426.6396	1446.9117	1452.7725	1491.351	1497.7611	1506.1306	1787.5191	1827.1237	2870.8058	2962.2027	2990.4122	3006.9193	3033.5083	3037.2519	3064.622	3103.1667	3126.3282	3686.6512
CC(CC(=O)CO)C=O	C[C@@H](CC(=O)CO)C=O	
InChI=1S/C6H10O3/c1-5(3-7)2-6(9)4-8/h3,5,8H,2,4H2,1H3	InChI=1S/C6H10O3/c1-5(3-7)2-6(9)4-8/h3,5,8H,2,4H2,1H3/t5-/m0/s1
