21
gdb 63491	2.93365	1.01399	0.87629	1.9967	80.1	-0.2409	-0.0233	0.2175	1398.2569	0.178097	-424.224522	-424.213855	-424.212911	-424.260538	38.739	
C	 0.0266078765	 1.4826200643	-0.2479184386	-0.43908
C	-0.0230110789	-0.0156371639	-0.0058848217	 0.282761
C	-1.2440683856	-0.680145057	-0.6165258278	-0.455628
C	 1.2932808037	-0.779072571	-0.0147253741	-0.397717
C	 0.5706321607	-0.5370015187	 1.2907723793	 0.340666
O	 1.0998514081	 0.4414896876	 2.1580564874	-0.465153
C	-0.0644694177	-1.6899945819	 2.0619324465	-0.329015
C	 0.9686836785	-2.5016578901	 2.8132266529	 0.1621
O	 1.0783952299	-3.6992999124	 2.7511428422	-0.239477
H	 0.870836822	 1.9453821668	 0.2636633848	 0.125216
H	 0.1060977562	 1.6912922504	-1.320779153	 0.111583
H	-0.8875708394	 1.9647150606	 0.1173095758	 0.115794
H	-1.3082427005	-0.4326676654	-1.682200737	 0.119532
H	-1.2188615539	-1.7696389492	-0.5404546725	 0.119124
H	-2.1675189452	-0.3284606833	-0.14176554	 0.119084
H	 1.3047356546	-1.7873614721	-0.4175227335	 0.118827
H	 2.2045086921	-0.2150173087	-0.1906612171	 0.108739
H	 2.0285508861	 0.2414815394	 2.311234214	 0.286778
H	-0.7554405215	-1.2579818028	 2.7994110471	 0.128784
H	-0.6234958168	-2.3711140104	 1.4191773572	 0.120504
H	 1.6540608212	-1.8998772223	 3.4540098882	 0.066578
50.1504	58.6143	133.9109	176.0003	180.633	219.2609	248.273	288.6598	306.5666	369.0632	385.7176	410.2315	454.6659	504.5368	541.4064	686.4336	727.6978	837.7869	892.4868	908.6777	921.5387	972.1356	977.5737	1030.3461	1039.8636	1051.2976	1072.7714	1152.8102	1168.1003	1181.2397	1258.8548	1294.3613	1304.3621	1323.7586	1388.9133	1407.3116	1422.4326	1428.6126	1446.9469	1480.085	1487.0995	1489.6427	1504.4995	1512.8922	1833.2361	2861.7172	3021.9142	3027.1249	3032.3736	3083.5068	3086.6902	3113.2567	3118.2268	3134.1236	3143.8604	3205.3496	3816.0579
CC1(C)CC1(O)CC=O	CC1(C)C[C@]1(O)CC=O	
InChI=1S/C7H12O2/c1-6(2)5-7(6,9)3-4-8/h4,9H,3,5H2,1-2H3	InChI=1S/C7H12O2/c1-6(2)5-7(6,9)3-4-8/h4,9H,3,5H2,1-2H3/t7-/m1/s1
