19
gdb 52332	3.98149	0.88605	0.76206	5.4237	72.88	-0.2649	0.0161	0.2809	1476.0508	0.159607	-460.190797	-460.18184	-460.180896	-460.226234	31.395	
O	 0.3920572278	 0.2655283937	 0.661188518	-0.278619
C	 0.4837337302	 1.45564966	 0.6527916298	 0.180064
O	 0.6756917562	 2.1554837193	-0.4868785755	-0.183686
C	 0.8504059171	 3.5691195456	-0.3691706218	-0.120652
C	 2.3087850799	 3.9392570625	-0.1678871289	 0.143267
C	 2.5837712611	 5.4632954025	-0.1707302501	-0.255555
C	 3.5779537886	 5.6610145137	 1.0040720949	-0.216169
C	 3.8743745308	 4.2205575519	 1.460634429	-0.078221
O	 2.7160144728	 3.475506649	 1.1125833933	-0.260353
H	 0.4096469877	 2.100825551	 1.5460765403	 0.087743
H	 0.4746387084	 3.9975317308	-1.3016712355	 0.126609
H	 0.2555572141	 3.9641398183	 0.4644635454	 0.116238
H	 2.9089339767	 3.4423223881	-0.9469426346	 0.083748
H	 2.9944352324	 5.787882758	-1.1293262132	 0.113579
H	 1.6611247316	 6.0275688711	-0.0030173546	 0.107943
H	 4.4838682649	 6.193695153	 0.7059105969	 0.109269
H	 3.1105602845	 6.2286071921	 1.8123985656	 0.113944
H	 4.7582711673	 3.8179868942	 0.9406545411	 0.096284
H	 4.0303235579	 4.1159621352	 2.5366795499	 0.114566
38.6246	67.1527	81.4403	153.2609	202.779	226.1686	349.1063	377.7909	462.9234	638.2796	649.0099	682.5357	811.6955	859.6907	890.9562	923.2051	964.136	1001.3808	1031.965	1044.5306	1059.7942	1098.2801	1124.1436	1130.5679	1171.9968	1218.8301	1242.6482	1259.2397	1293.3475	1312.8862	1319.3385	1348.7333	1365.8138	1403.9003	1417.74	1432.4521	1486.4208	1489.4088	1505.6137	1521.1918	1867.0201	2975.1703	2981.5441	2985.4686	3030.7423	3055.3358	3070.8934	3098.1679	3105.365	3108.6171	3122.0216
O=COCC1CCCO1	O=COC[C@H]1CCCO1	
InChI=1S/C6H10O3/c7-5-8-4-6-2-1-3-9-6/h5-6H,1-4H2	InChI=1S/C6H10O3/c7-5-8-4-6-2-1-3-9-6/h5-6H,1-4H2/t6-/m1/s1
