18
gdb 17173	3.93248	1.83179	1.56578	1.2549	71.61	-0.2219	0.0654	0.2873	883.2566	0.154952	-343.871731	-343.864657	-343.863713	-343.903051	27.623	
C	-0.0608363094	 1.5398189603	 0.0053339994	-0.387942
C	 0.0961419511	 0.0149079078	-0.0424878261	-0.323648
C	 0.7827204849	-0.4720495917	-1.2840180502	 0.394394
N	 2.2085731961	-0.1528042294	-1.65418061	-0.386678
C	 1.7298976402	-1.0199474167	-2.7784170032	-0.040654
C	 0.9185950398	-1.934440955	-1.8116886431	-0.064868
N	-0.3795844642	-1.8510603186	-2.5591248593	-0.352857
C	 0.2506427561	-0.505985741	-2.7643757969	-0.082301
H	 0.9128040263	 2.0404617473	-0.0169241037	 0.121277
H	-0.6475854419	 1.9046819072	-0.8443613925	 0.11767
H	-0.5713191087	 1.8511267154	 0.9212847972	 0.117536
H	 0.6669481347	-0.3288227124	 0.8287842504	 0.110059
H	-0.8859225551	-0.470279762	 0.0042889593	 0.122712
H	 2.280569874	 0.8185399815	-1.9701698543	 0.2052
H	 2.3544111123	-1.3046156686	-3.6277215905	 0.078295
H	 1.2525458702	-2.8168668586	-1.2653828549	 0.086946
H	-0.3230676665	-2.4012421993	-3.4204370652	 0.20796
H	-0.2096508498	 0.2937652137	-3.3494490564	 0.076901
84.2318	173.0859	198.2484	287.2594	367.5932	488.2933	531.0257	635.2417	731.02	767.9817	794.2886	831.6732	855.2752	890.4353	900.212	924.2856	955.992	990.4765	1017.6278	1071.0255	1092.1138	1096.3787	1103.2662	1152.7545	1157.6381	1196.917	1210.1725	1250.3434	1263.4834	1292.2046	1296.4149	1316.2393	1344.3831	1406.792	1413.1825	1472.4549	1501.1449	1506.6283	3030.991	3035.4647	3069.7466	3085.1749	3098.0684	3104.7578	3108.9912	3120.578	3394.5088	3399.9442
CCC12NC3C1NC23	CC[C@@]12N[C@H]3[C@@H]1N[C@@H]23	
InChI=1S/C6H10N2/c1-2-6-4-3(8-6)5(6)7-4/h3-5,7-8H,2H2,1H3	InChI=1S/C6H10N2/c1-2-6-4-3(8-6)5(6)7-4/h3-5,7-8H,2H2,1H3/t3-,4-,5+,6+
