13
gdb 20708	5.46922	1.49036	1.17976	2.517	63.28	-0.2809	-0.0604	0.2205	953.1919	0.096346	-394.826265	-394.819268	-394.818324	-394.857854	24.42	
C	-0.0306967523	 1.4600190099	-0.0027686209	-0.481253
C	 0.0082132959	-0.0280617737	 0.0015124901	 0.370092
N	-0.0313355992	-0.7470430536	-1.1006812587	-0.260304
N	 0.0270220431	-2.0278190023	-0.6267705945	-0.021599
C	 0.013473422	-3.1698473147	-1.4444874074	 0.192403
O	-0.0499140078	-3.1574611449	-2.6372475922	-0.244229
C	 0.0985223932	-1.9966533383	 0.7405236364	 0.032624
N	 0.0892684545	-0.7666933036	 1.1708856946	-0.304117
H	 0.8662844242	 1.8662623359	 0.4748257267	 0.148421
H	-0.094156814	 1.8325550053	-1.0257501557	 0.151381
H	-0.8925688941	 1.8205287367	 0.5672488865	 0.14842
H	 0.070027304	-4.0834873524	-0.824765183	 0.107386
H	 0.1536263004	-2.8928176341	 1.3415430583	 0.160775
109.1044	131.7626	190.6273	214.1707	344.2856	372.7722	516.9933	646.3584	680.8924	713.3225	829.6315	871.3613	973.2048	1015.8452	1021.7069	1049.7563	1070.1524	1214.7764	1288.0469	1329.4359	1394.2898	1412.1815	1451.7425	1475.4689	1475.5056	1508.5516	1594.5721	1856.5442	2973.934	3050.2339	3107.5064	3154.1368	3252.2337
CC1=NN(C=O)C=N1	Cc1nn(C=O)cn1	
InChI=1S/C4H5N3O/c1-4-5-2-7(3-8)6-4/h2-3H,1H3	InChI=1S/C4H5N3O/c1-4-5-2-7(3-8)6-4/h2-3H,1H3
