21
gdb 96603	2.51292	1.37603	0.9989	0.9012	74.81	-0.2509	0.0782	0.329	1220.5914	0.184092	-461.3544	-461.3457	-461.344756	-461.387498	33.641	
O	-0.2377767346	 1.5868450028	 0.4549475548	-0.446496
C	-0.0195941096	 0.2064869665	 0.1504063137	 0.148612
C	 0.6681477249	-0.4776623302	 1.3453345847	-0.236177
C	 0.7817985625	-1.9993758744	 1.2332059974	-0.094454
O	 1.1255590677	-2.3565087979	-0.1072857992	-0.242098
C	 0.2066217989	-3.2213836826	-0.7224446673	-0.002849
O	-1.1220744446	-2.7976696468	-0.6309606143	-0.230616
C	-1.4162069106	-1.531922301	-1.2198973487	-0.083698
C	-1.3953892141	-0.3497714844	-0.2428779534	-0.199705
H	 0.6009821454	 1.9613954174	 0.7432568284	 0.276688
H	 0.6425641826	 0.1212762639	-0.7236503003	 0.075197
H	 1.6710883351	-0.0413816878	 1.4475192941	 0.090675
H	 0.1161975813	-0.2225441428	 2.2581632475	 0.105932
H	 1.5563821891	-2.3810402341	 1.9102204259	 0.099402
H	-0.1687466875	-2.4656968154	 1.507552439	 0.118846
H	 0.5415032812	-3.2895997606	-1.7675727512	 0.099057
H	 0.2135253543	-4.2182952012	-0.2588818617	 0.097753
H	-0.7395413525	-1.3410363964	-2.0658843963	 0.097
H	-2.4303959529	-1.6296800662	-1.6212554323	 0.107346
H	-1.9819984002	-0.6068921711	 0.6472844512	 0.104905
H	-1.9213682363	 0.4774287522	-0.7333961918	 0.114679
110.495	138.6545	196.5719	229.6223	287.3283	306.1298	339.7457	353.7721	413.1302	427.7757	522.2391	554.0626	632.6714	760.3429	824.4515	879.3478	896.4264	944.8983	1017.0343	1022.756	1035.9713	1068.4504	1080.1284	1099.9556	1137.5655	1155.9029	1185.9699	1220.4795	1262.3314	1272.9857	1295.2446	1306.7984	1324.2202	1346.8244	1367.936	1392.9488	1404.5237	1421.6084	1441.6228	1453.6724	1471.1697	1484.9965	1492.1089	1508.7203	1514.3373	2988.1814	2990.2835	3000.838	3011.1714	3025.7803	3035.0709	3037.0762	3061.4225	3071.3403	3079.6595	3090.4612	3811.9887
OC1CCOCOCC1	OC1CCOCOCC1	
InChI=1S/C6H12O3/c7-6-1-3-8-5-9-4-2-6/h6-7H,1-5H2	InChI=1S/C6H12O3/c7-6-1-3-8-5-9-4-2-6/h6-7H,1-5H2
