19
gdb 65485	2.89497	1.22515	1.01346	1.2444	81.5	-0.2567	0.0485	0.3052	1226.758	0.156634	-385.827217	-385.818219	-385.817274	-385.860813	34.727	
C	-0.5078425806	 1.6586932057	-0.0771079242	-0.450339
C	 0.0917823147	 0.252990002	 0.0230670243	 0.112651
C	 1.3707893839	-0.0182531965	-0.8607534324	-0.352095
C	 2.0324615694	-0.6269397409	 0.373382046	 0.485101
C	 2.7540165721	-1.892574738	 0.4969535652	-0.260205
O	 3.4217651217	-0.6264099429	 0.6286476895	-0.272514
C	 0.9737876017	-0.0336289266	 1.299975759	-0.352095
C	-0.9271412841	-0.7691049088	-0.1714204604	 0.326555
C	-1.7729967604	-1.608948439	-0.3327706317	-0.495387
H	 0.2689414396	 2.415444655	 0.0710054037	 0.114735
H	-0.962709437	 1.8183312857	-1.0594175486	 0.128372
H	-1.282583131	 1.805942022	 0.6814538621	 0.128373
H	 1.2391132519	-0.6515598448	-1.7393412037	 0.115781
H	 1.8526596704	 0.9194168663	-1.153738712	 0.113155
H	 2.6741473044	-2.4746045886	 1.4141927119	 0.116888
H	 3.0068654743	-2.4617214386	-0.3966935622	 0.116888
H	 1.3176860636	 0.8986916192	 1.7579906859	 0.113155
H	 0.5400114369	-0.6786329731	 2.0655729793	 0.115782
H	-2.5204519815	-2.3495165681	-0.4754597017	 0.195198
51.6123	165.146	172.3542	227.527	264.0515	308.9141	328.2354	396.9921	409.9851	443.1261	552.7974	574.1801	616.1666	629.9603	677.4287	806.8582	839.9783	870.6716	899.508	905.6015	914.1365	966.8373	991.5458	1071.62	1119.2702	1128.4139	1134.6433	1158.8775	1185.7682	1204.3451	1238.1712	1267.2788	1295.6141	1409.1574	1438.5268	1463.7782	1486.0623	1488.9006	1496.8451	1539.3367	2230.1309	3034.4127	3058.1617	3063.256	3080.9846	3108.6794	3111.8123	3127.7508	3128.2632	3168.8934	3501.8167
CC1(CC2(CO2)C1)C#C	C[C@]1(C[C@]2(CO2)C1)C#C	
InChI=1S/C8H10O/c1-3-7(2)4-8(5-7)6-9-8/h1H,4-6H2,2H3	InChI=1S/C8H10O/c1-3-7(2)4-8(5-7)6-9-8/h1H,4-6H2,2H3/t7-,8-
