21
gdb 30836	2.49748	1.24546	0.88668	1.1227	88.97	-0.1765	0.0543	0.2308	1387.2547	0.182258	-383.310875	-383.300553	-383.299609	-383.346453	37.099	
C	 0.2999515257	 1.0235294579	 0.4666328673	-0.323768
N	-0.257713081	 0.2481054938	-0.6486888932	-0.39182
C	-1.2900106695	-0.6511367273	-0.3129062467	 0.176215
C	-1.2994503149	-1.9756027052	 0.0768549454	 0.251157
C	-0.1028186226	-2.8556231982	 0.2764298126	-0.510226
C	-2.6719667712	-2.3383502462	 0.2471073322	-0.325261
C	-3.4546225055	-1.2397280384	-0.0250278853	 0.318269
C	-4.9359366497	-1.0581028614	 0.0070340431	-0.503019
N	-2.599467751	-0.2183263103	-0.3660350876	-0.321071
H	 1.0721501237	 1.6984918967	 0.0845019179	 0.114223
H	-0.49026184	 1.6352414684	 0.9117974437	 0.123675
H	 0.7351415006	 0.4045789735	 1.2662443337	 0.108318
H	 0.4822355128	-0.2328417106	-1.1445136427	 0.229552
H	-0.0668147514	-3.2719639959	 1.2902289168	 0.122217
H	-0.0953199166	-3.7061842465	-0.4165578756	 0.120628
H	 0.8286004729	-2.3009702381	 0.1209270988	 0.102782
H	-3.0439523578	-3.3066893768	 0.5507465172	 0.079839
H	-5.2462301758	-0.2928959935	 0.7303493682	 0.122199
H	-5.3420887768	-0.7638884921	-0.9695475396	 0.121403
H	-5.4175536158	-1.9961219275	 0.2932896306	 0.134172
H	-2.8652606259	 0.6936938376	-0.6961475167	 0.250516
55.8298	107.9733	110.9759	132.8064	176.9717	196.7202	244.4392	273.2688	280.5762	405.4394	464.6654	477.663	581.5925	626.2936	651.4301	677.0456	730.289	790.9797	813.0535	983.7417	1002.0114	1021.1769	1036.5648	1059.6527	1062.9951	1135.12	1160.9511	1170.6566	1192.9705	1247.8286	1321.4789	1411.6405	1416.8188	1430.3767	1445.3879	1454.5143	1479.6541	1482.8892	1487.4053	1497.3627	1499.2151	1506.1099	1515.4833	1563.8615	1650.6747	2984.4766	3010.7149	3016.1818	3052.2002	3062.7614	3071.4115	3088.2337	3109.479	3118.7731	3228.4029	3552.7837	3672.2494
CNC1=C(C)C=C(C)N1	CNc1c(C)cc(C)[nH]1	
InChI=1S/C7H12N2/c1-5-4-6(2)9-7(5)8-3/h4,8-9H,1-3H3	InChI=1S/C7H12N2/c1-5-4-6(2)9-7(5)8-3/h4,8-9H,1-3H3
