12
gdb 28410	3.23486	1.47333	1.01228	2.5293	63.36	-0.2202	-0.0631	0.1571	1047.5537	0.077323	-509.814604	-509.807313	-509.806368	-509.8464	27.472	
O	 0.0580266812	 1.3241696426	 0.0079064931	-0.397995
C	-0.0577049021	-0.0081886422	 0.0012200331	 0.444476
C	-1.2234387117	-0.6894615471	 0.0039958103	-0.19459
N	-1.2160953507	-2.064447964	-0.0036289795	-0.316573
C	-0.0960868105	-2.6953502888	-0.0133782711	 0.273244
O	-0.0403966652	-4.0386387542	-0.0210955188	-0.388306
C	 1.2268557893	-2.0467682554	-0.0172173303	 0.375967
O	 2.3081687865	-2.5537412341	-0.0260445023	-0.306247
O	 1.1290166398	-0.6488310662	-0.008954552	-0.248107
H	 0.9977696705	 1.5482431482	 0.0039905865	 0.317726
H	-2.1744042373	-0.1773521773	 0.0121514236	 0.133562
H	-0.95700199	-4.3492919813	-0.0176642825	 0.306842
106.6464	177.5187	309.0427	323.1459	345.1041	403.7842	437.0227	490.698	525.4573	549.1276	608.1083	671.7599	715.8446	786.3558	793.9036	825.6267	1015.8536	1046.4601	1139.5505	1214.2502	1280.7374	1314.4839	1423.4564	1438.0466	1625.071	1706.351	1866.1149	3236.8794	3767.6431	3796.6592
OC1=CN=C(O)C(=O)O1	Oc1cnc(O)c(=O)o1	
InChI=1S/C4H3NO4/c6-2-1-5-3(7)4(8)9-2/h1,6H,(H,5,7)	InChI=1S/C4H3NO4/c6-2-1-5-3(7)4(8)9-2/h1,6H,(H,5,7)
