18
gdb 74860	2.25925	1.84032	1.15612	1.6667	83.12	-0.2204	0.011	0.2314	1083.1939	0.146987	-364.758892	-364.750576	-364.749632	-364.791511	32.261	
C	 0.0719193089	 1.4672530828	 0.0376181621	-0.494182
C	 0.0142902969	-0.0228912746	-0.0255811273	 0.317966
C	-0.1012543435	-0.8171789717	-1.0908741582	-0.199278
C	-0.0556997347	-2.2518561709	-0.7004654519	-0.060064
C	 1.2083209904	-2.7062683388	-0.052973339	-0.236264
N	 0.0645118039	-2.3060249019	 0.7769660089	-0.102624
C	 0.094428768	-0.8884080984	 1.2404162982	-0.254231
C	 1.2534864242	-0.5896136455	 2.0779343055	 0.364773
C	 2.2101066878	-0.3222394159	 2.7549729295	-0.482501
H	 1.0117783841	 1.8029736949	 0.4909228201	 0.142618
H	-0.0122650313	 1.9136326943	-0.9563690056	 0.125845
H	-0.7364677665	 1.8678973065	 0.663095981	 0.12826
H	-0.2044412199	-0.4828465957	-2.1164936725	 0.100627
H	-0.727003219	-2.9668672118	-1.1692175271	 0.095939
H	 1.4447983708	-3.7650788112	 0.009138836	 0.116118
H	 2.0660482393	-2.0416993775	-0.1140422103	 0.122329
H	-0.8093907803	-0.7298622472	 1.8486982545	 0.115269
H	 3.0504080308	-0.0970896476	 3.364184396	 0.199399
107.1801	134.8311	180.2806	193.9161	304.5163	343.0953	396.7757	470.3839	501.9787	564.3521	619.7503	634.7483	657.5361	715.9376	781.6175	830.0542	840.9363	888.7683	932.2152	991.169	1008.7643	1043.9925	1060.9143	1070.2874	1087.7812	1110.4414	1156.7701	1207.2106	1250.3009	1274.0405	1306.3819	1324.7835	1362.7544	1414.1919	1476.7202	1488.1393	1496.4633	1717.7316	2234.3515	2978.8752	3021.1142	3072.5693	3106.2551	3117.5118	3139.6244	3197.0159	3202.3086	3502.3063
CC1=CC2CN2C1C#C	CC1=C[C@H]2CN2[C@H]1C#C	
InChI=1S/C8H9N/c1-3-8-6(2)4-7-5-9(7)8/h1,4,7-8H,5H2,2H3	InChI=1S/C8H9N/c1-3-8-6(2)4-7-5-9(7)8/h1,4,7-8H,5H2,2H3/t7-,8-,9?/m0/s1
