18
gdb 51005	3.86666	0.97084	0.86733	2.0165	71.99	-0.2544	-0.0316	0.2229	1334.2418	0.145814	-439.03766	-439.028646	-439.027702	-439.072601	32.18	
O	-0.0206830776	-0.1123628328	 0.0574115163	-0.240431
C	 0.0607220899	 1.0869703142	-0.0168006721	 0.142735
C	 1.3639360161	 1.8373854088	-0.2096852532	-0.353798
C	 1.3259153884	 2.9089758006	-1.2927541292	 0.342447
C	 0.4326197908	 2.7736076132	-2.4536147698	-0.21948
O	 0.1092308491	 3.6638493601	-1.3739127835	-0.267046
C	 2.581547003	 3.7303767127	-1.3951579753	-0.052029
C	 2.5573105149	 5.0898036588	-1.9794134693	-0.247357
N	 2.7412656626	 4.9110284265	-0.5254983217	-0.325622
H	-0.8355817459	 1.7362242871	 0.0719481953	 0.102453
H	 1.6010602648	 2.3286634425	 0.7460046586	 0.139764
H	 2.1606294693	 1.115086689	-0.4118259453	 0.134136
H	 0.6951094966	 3.2606114415	-3.3901368854	 0.125085
H	-0.2158917636	 1.9029222464	-2.5442918977	 0.130912
H	 3.4888264289	 3.136252699	-1.4876641993	 0.09763
H	 3.4280377219	 5.4619481249	-2.510872994	 0.121428
H	 1.6006788615	 5.4699444582	-2.3237741288	 0.128666
H	 1.8493004593	 5.1019541291	-0.0708779158	 0.240506
51.9709	64.2427	89.7174	165.9833	227.0859	255.4347	342.0281	382.2858	453.2378	492.4522	595.7119	682.5189	798.9936	817.5232	856.8282	895.1982	915.1542	937.7915	979.5049	1018.8099	1057.8919	1085.9924	1111.8109	1128.9996	1144.0573	1168.2589	1174.8879	1197.2665	1234.8829	1275.413	1303.8984	1323.4625	1390.8534	1422.3121	1427.5415	1454.3739	1497.0024	1525.1109	1831.0835	2916.6201	3011.3945	3088.9524	3094.4331	3119.0826	3126.7374	3181.5658	3210.3668	3478.0882
O=CCC1(CO1)C1CN1	O=CC[C@]1(CO1)[C@H]1CN1	
InChI=1S/C6H9NO2/c8-2-1-6(4-9-6)5-3-7-5/h2,5,7H,1,3-4H2	InChI=1S/C6H9NO2/c8-2-1-6(4-9-6)5-3-7-5/h2,5,7H,1,3-4H2/t5-,6+/m1/s1
