19
gdb 74451	2.77663	1.41463	1.16782	2.7102	77.69	-0.2416	0.0091	0.2508	1128.5357	0.15896	-423.02582	-423.017493	-423.016549	-423.058407	32.406	
C	-0.1081666433	 1.5200280863	 0.0148188967	-0.487933
C	-0.0113680881	 0.0283894349	-0.0354923748	 0.334813
C	-0.0988499872	-0.7482991726	-1.1213624477	-0.29185
C	 0.0489430014	-2.212247129	-0.817017022	 0.333283
O	-0.955401082	-3.0384452077	-1.3510122746	-0.473676
C	 1.460996498	-2.805669466	-0.9809754195	-0.106122
O	 1.7660478825	-2.5422473749	 0.4050001647	-0.296835
C	 0.3892181719	-2.2141781756	 0.7083005627	 0.059413
C	 0.220501994	-0.785492803	 1.22709567	-0.328612
H	 0.8212126168	 1.9597780884	 0.3978459393	 0.13406
H	-0.3083548358	 1.949510378	-0.9702032172	 0.125784
H	-0.9052713208	 1.8382500671	 0.6988890112	 0.127377
H	-0.2507902754	-0.3890834476	-2.1347314066	 0.090996
H	-1.7910082882	-2.5627684996	-1.2925952768	 0.276524
H	 1.4364149958	-3.8804806409	-1.2029862429	 0.104053
H	 2.1516502193	-2.2979822962	-1.6628622759	 0.101284
H	-0.086863142	-2.9896778609	 1.317961238	 0.073235
H	 1.1273938588	-0.4716969651	 1.7579531548	 0.123616
H	-0.6142380457	-0.6781614656	 1.9335648806	 0.10059
119.9898	139.977	183.6146	276.4675	282.681	324.4733	369.4741	394.4785	442.8092	484.4195	567.1696	653.0856	698.6323	834.9306	859.4	876.6388	882.5771	945.0177	992.753	1001.8177	1015.4832	1026.0979	1037.5742	1078.5516	1137.8101	1146.4587	1167.7631	1197.919	1208.9801	1260.8422	1292.0007	1320.7744	1346.3454	1365.9355	1385.718	1412.2412	1462.3294	1478.248	1485.8142	1512.7403	1707.4112	3011.943	3014.7506	3020.0812	3051.3425	3060.8847	3067.0532	3073.9005	3114.1113	3178.492	3805.4604
CC1=CC2(O)COC2C1	CC1=C[C@@]2(O)CO[C@H]2C1	
InChI=1S/C7H10O2/c1-5-2-6-7(8,3-5)4-9-6/h3,6,8H,2,4H2,1H3	InChI=1S/C7H10O2/c1-5-2-6-7(8,3-5)4-9-6/h3,6,8H,2,4H2,1H3/t6-,7+/m0/s1
