17
gdb 33049	4.07245	0.96454	0.88872	3.5198	72.64	-0.1925	0.0383	0.2308	1343.0114	0.135436	-455.155056	-455.146236	-455.145292	-455.189517	32.226	
C	-0.6772738463	 0.9155319159	 0.8052962784	-0.382825
C	 0.1751337153	 0.119582182	-0.1696467165	-0.076578
O	-0.6327157194	-0.6810170416	-1.0663465116	-0.279225
C	-1.1533794114	-1.7990502982	-0.5392705855	 0.356296
C	-2.4164222659	-2.1312675288	-0.2509190482	-0.156804
O	-2.4534289265	-3.44746301	 0.202808132	-0.216353
C	-1.1684567937	-3.9500926217	 0.1820946577	 0.477807
N	-0.7982081887	-5.1267476281	 0.4660801344	-0.600134
N	-0.3497673449	-2.904581341	-0.2132821637	-0.402129
H	-0.0354857007	 1.5187776209	 1.4551300645	 0.124912
H	-1.3547153647	 1.5848859611	 0.2676724837	 0.131462
H	-1.2731360412	 0.2502289893	 1.4365959314	 0.136512
H	 0.7434784368	 0.7772482613	-0.831262248	 0.121755
H	 0.8813941875	-0.5305747298	 0.3603629725	 0.1149
H	-3.3457557647	-1.594991918	-0.2996283191	 0.149943
H	-1.5986850787	-5.7023395512	 0.7143298284	 0.225081
H	 0.5617760073	-3.0808630518	-0.6008737403	 0.275378
40.189	76.7691	132.779	195.4417	248.1844	313.3966	378.673	411.472	465.2493	515.942	597.8054	650.1269	708.7218	719.9947	755.5192	760.7711	816.9853	880.9522	920.3248	1008.9091	1045.2357	1064.8034	1093.8301	1107.2721	1189.0012	1221.9108	1257.0264	1323.4631	1352.8181	1388.5848	1404.2405	1429.2322	1483.1014	1493.8312	1510.5513	1733.8729	1795.1869	3039.3905	3043.7489	3103.3925	3117.4516	3129.8199	3312.0668	3538.5577	3672.812
CCOC1=COC(=N)N1	CCOC1=CO[C@H]([NH])N1	
InChI=1S/C5H8N2O2/c1-2-8-4-3-9-5(6)7-4/h3H,2H2,1H3,(H2,6,7)	InChI=1S/C5H9N2O2/c1-2-8-4-3-9-5(6)7-4/h3,5-7H,2H2,1H3/t5-/m1/s1
