17
gdb 10636	2.5414	1.92891	1.37578	4.5923	69.79	-0.2478	0.0224	0.2702	956.4035	0.141929	-360.012074	-360.003368	-360.002424	-360.045062	31.397	
C	-0.2054189243	 1.4656684098	 0.0922765119	-0.314799
N	 0.03536759	 0.0273076372	 0.0900248346	-0.092736
C	 1.3643348501	-0.467603341	-0.1995923431	-0.280894
C	 0.7977730088	-0.5761366714	 1.1882001856	 0.172995
C	 1.3990015319	 0.2357771552	 2.3292280091	-0.242327
N	 0.3519573532	 0.6349455177	 3.2713769886	-0.510347
C	 0.2700680381	-1.8566545893	 1.6289629742	 0.276324
N	-0.1237669159	-2.8690785644	 2.0255813944	-0.348995
H	 0.6889676719	 2.073296894	 0.2941701275	 0.102532
H	-0.5870792969	 1.7440876141	-0.894332675	 0.130995
H	-0.9591460301	 1.6985336442	 0.8468350532	 0.153725
H	 1.4278135791	-1.3455918056	-0.8359923989	 0.136618
H	 2.1732683294	 0.2533861936	-0.3222014833	 0.11628
H	 2.2118752087	-0.3637045681	 2.772193144	 0.107036
H	 1.8601420246	 1.1396817402	 1.9220855681	 0.111753
H	-0.0589940363	-0.1918205871	 3.6976174895	 0.246796
H	 0.7591818676	 1.1742101111	 4.0290371195	 0.235044
98.7709	138.3843	157.1411	175.0252	239.9745	252.234	315.8038	371.1501	397.9184	487.4751	571.0136	581.5089	687.0207	805.5836	850.9669	884.3114	915.2872	1032.4823	1059.896	1076.9942	1105.9395	1127.8587	1150.2084	1185.7074	1204.2535	1268.2208	1309.6747	1369.8504	1425.65	1450.3845	1483.1247	1493.5495	1505.5517	1519.7195	1660.2497	2350.9709	2961.4559	2994.4472	3080.1966	3085.0969	3088.1714	3137.7712	3183.9385	3489.2873	3569.3218
CN1CC1(CN)C#N	CN1C[C@]1(CN)C#N	
InChI=1S/C5H9N3/c1-8-4-5(8,2-6)3-7/h2,4,6H2,1H3	InChI=1S/C5H9N3/c1-8-4-5(8,2-6)3-7/h2,4,6H2,1H3/t5-,8?/m0/s1
