21
gdb 81549	3.85947	1.21136	1.06228	1.523	82.42	-0.2489	0.0734	0.3223	1192.4508	0.183429	-387.022645	-387.014617	-387.013673	-387.055011	32.453	
O	 0.0311193801	 1.3997648324	-0.3852794867	-0.453945
C	 0.0127067087	 0.0371711296	-0.0648352654	 0.188748
C	-0.0140176178	-0.4614380498	 1.4156697039	-0.175611
C	-1.5213666642	-0.0616983545	 1.4567272134	-0.266233
C	-1.3250860981	-0.7590581496	 0.0759741979	-0.16532
C	-0.4832430132	-1.8250941486	 0.8395314524	 0.446358
C	 0.4088201987	-2.8693362718	 0.1187279408	-0.319352
C	-0.5142372662	-3.9877600081	 0.6751734806	-0.218307
C	-1.1432935108	-2.9626714925	 1.6594661508	-0.314081
H	-0.6144835841	 1.8630869727	 0.1576101377	 0.281418
H	 0.7699429524	-0.4212344516	-0.7030274087	 0.083887
H	 0.7386952373	-0.299863436	 2.1901978798	 0.065502
H	-2.1469673745	-0.5804988261	 2.185299817	 0.101734
H	-1.7678760051	 1.0048195174	 1.459804237	 0.073593
H	-2.0805119706	-0.9394331121	-0.6915896565	 0.068721
H	 0.4950932081	-2.7960064823	-0.9685684866	 0.101272
H	 1.4185849723	-2.9125938684	 0.5397064071	 0.101765
H	-1.2331243248	-4.3382810973	-0.0699111121	 0.103156
H	-0.0245299687	-4.8583844174	 1.1165227582	 0.097417
H	-0.7252753986	-3.0435770152	 2.6681003854	 0.100483
H	-2.2334516009	-2.960887751	 1.7399778841	 0.098795
83.8175	188.6184	201.3655	234.6366	302.7025	369.5622	409.2607	439.7765	535.6166	640.7523	697.4983	739.5167	779.0905	825.6781	860.9394	867.6086	890.5935	897.1095	947.6611	960.8714	1002.5999	1027.6379	1039.3554	1057.5006	1074.7491	1083.553	1132.9391	1145.559	1158.2507	1179.1254	1193.8222	1211.2987	1222.0549	1245.7722	1255.7373	1267.1135	1275.6644	1279.2574	1287.0652	1325.1767	1461.8707	1472.7728	1481.3955	1504.7486	1536.2883	3043.5297	3044.877	3048.155	3062.9173	3088.2125	3089.9867	3091.5101	3095.501	3106.3088	3114.5131	3118.935	3817.3911
OC1C2CC1C21CCC1	O[C@H]1[C@H]2C[C@@H]1C12CCC1	
InChI=1S/C8H12O/c9-7-5-4-6(7)8(5)2-1-3-8/h5-7,9H,1-4H2	InChI=1S/C8H12O/c9-7-5-4-6(7)8(5)2-1-3-8/h5-7,9H,1-4H2/t5-,6+,7+
