17
gdb 33425	2.68616	1.08319	0.81616	4.395	78.71	-0.2405	0.0017	0.2422	1376.6079	0.134416	-380.806612	-380.797295	-380.79635	-380.841504	33.813	
C	 0.569561341	-0.5130848103	 0.7059627658	-0.448305
C	 0.2068474243	 0.5536399456	 0.2896671093	 0.350468
C	-0.2074294286	 1.8648618073	-0.2420937197	-0.294185
N	 0.8699411675	 2.8161095974	-0.5264475132	-0.282214
C	 1.482413559	 3.4064716431	 0.6376132784	 0.062876
C	 2.5218026448	 2.707982349	 1.4912425955	-0.269841
C	 2.91381342	 3.842235455	 0.5696348497	-0.294164
C	-1.0139702573	 1.6715196796	-1.4662452328	 0.299939
N	-1.6418057503	 1.518758831	-2.4229187259	-0.316362
H	 0.8839791838	-1.4575544779	 1.0776600512	 0.212279
H	-0.8648167801	 2.3459431459	 0.495064149	 0.160718
H	 1.5581520579	 2.3890644394	-1.1366796848	 0.235057
H	 0.7969083394	 4.0729711758	 1.1558427735	 0.102751
H	 2.5153730745	 2.8852189415	 2.5612657851	 0.11614
H	 2.8152140575	 1.7055177889	 1.2036432098	 0.123083
H	 3.4744917681	 3.5913154089	-0.3256929516	 0.118135
H	 3.1786337685	 4.8028898899	 0.9959871906	 0.123627
45.8394	93.8153	127.5912	134.3103	204.7458	251.2511	354.4426	382.3808	409.8032	508.1124	579.8868	597.8384	652.4778	668.9863	696.8129	761.847	812.3989	851.8298	904.2333	962.8867	983.1169	1024.2196	1053.918	1076.4503	1103.3998	1127.7382	1193.1561	1199.6703	1249.9395	1299.512	1307.1966	1391.2545	1465.9427	1491.4173	1511.4288	2233.9776	2369.4873	3024.7261	3131.2656	3133.3994	3141.6619	3213.3245	3233.1602	3499.3631	3541.7009
C#CC(NC1CC1)C#N	C#C[C@@H](NC1CC1)C#N	
InChI=1S/C7H8N2/c1-2-6(5-8)9-7-3-4-7/h1,6-7,9H,3-4H2	InChI=1S/C7H8N2/c1-2-6(5-8)9-7-3-4-7/h1,6-7,9H,3-4H2/t6-/m1/s1
