19
gdb 63883	2.69535	1.58465	1.33078	2.6348	74.58	-0.2488	-0.0138	0.235	1036.2439	0.158558	-423.023131	-423.014903	-423.013959	-423.055424	32.353	
C	-0.041027288	 1.5423248984	 0.0251990305	-0.456617
C	 0.0160227585	 0.0114400581	 0.0115042371	 0.317301
C	-1.3855874616	-0.5966300379	-0.0919157475	-0.45056
C	 0.9864062085	-0.5652609127	-1.0947399331	-0.284446
C	 1.9886148564	-1.2927800902	-0.1838549411	-0.043582
O	 1.1171897792	-1.9197722543	 0.8177214591	-0.295029
C	 0.7733606048	-0.5589021259	 1.241999051	-0.081434
C	 2.2534304508	-0.2504558012	 0.927576363	 0.455303
O	 3.1746630485	 0.3246253577	 1.4142047536	-0.320578
H	 0.9571020527	 1.9869843094	 0.0965320885	 0.129441
H	-0.5114736727	 1.9199651063	-0.888559637	 0.121692
H	-0.6296010578	 1.9063949968	 0.8747275568	 0.119499
H	-1.8465361242	-0.339123945	-1.0520821921	 0.115192
H	-1.339726114	-1.6861804278	-0.0171644896	 0.133006
H	-2.0398983433	-0.2224572254	 0.7035595699	 0.112373
H	 0.47905207	-1.2638199183	-1.7646134135	 0.114644
H	 1.4593932599	 0.2157555716	-1.6973293467	 0.112442
H	 2.7450788652	-1.9533469338	-0.6027843811	 0.103224
H	 0.3224611671	-0.4921273557	 2.2309794223	 0.098128
123.7308	159.1734	230.2828	253.4966	259.7229	327.9018	363.3652	423.945	460.0282	518.7113	580.1261	641.5264	753.2024	775.8705	858.102	871.2713	889.933	937.0688	944.0634	960.0815	964.3251	1032.1361	1034.6375	1058.8459	1076.1852	1155.2637	1198.9558	1207.1694	1236.5862	1261.0163	1265.8408	1293.2805	1326.5331	1400.216	1423.4468	1486.2303	1487.8069	1489.4196	1503.8166	1512.4886	1922.4838	3026.4938	3030.4377	3060.1333	3090.108	3096.5949	3102.1509	3110.4496	3118.7646	3143.369	3152.0243
CC1(C)CC2OC1C2=O	CC1(C)C[C@@H]2O[C@H]1C2=O	
InChI=1S/C7H10O2/c1-7(2)3-4-5(8)6(7)9-4/h4,6H,3H2,1-2H3	InChI=1S/C7H10O2/c1-7(2)3-4-5(8)6(7)9-4/h4,6H,3H2,1-2H3/t4-,6-/m0/s1
