12
gdb 129082	3.70656	1.30806	0.96685	2.3169	75.96	-0.268	-0.0771	0.1908	1109.0988	0.077115	-431.60482	-431.597481	-431.596537	-431.637041	26.899	
N	-0.120006214	 1.3119427504	 0.0079843881	-0.513888
C	-0.0146478632	 0.0408616495	 0.0009972583	 0.3128
C	-1.2270929128	-0.7831410384	 0.0030078741	 0.054018
N	-1.2583378105	-2.0619627537	-0.0033416042	-0.074297
O	-0.000860022	-2.7030129097	-0.0130734018	-0.255579
C	 1.1256344852	-1.9419887916	-0.0149954842	 0.263718
N	 1.1969992572	-0.6623591126	-0.0088108787	-0.360941
C	 2.2926157317	-2.7621664523	-0.025089707	 0.266515
C	 3.270910884	-3.4592539611	-0.0336037717	-0.312851
H	 0.8152831104	 1.7270638721	 0.0052903935	 0.233478
H	-2.1978380228	-0.2964334876	 0.0104744636	 0.165577
H	 4.1423729868	-4.068301355	-0.0411355599	 0.221449
93.6245	130.1329	146.6813	341.815	395.737	405.0561	505.7645	527.1138	555.6232	682.7117	685.9619	710.11	730.7574	768.6557	876.324	930.9025	952.247	972.5831	972.6206	1143.0173	1218.5821	1292.5893	1393.3011	1631.7932	1676.5057	1717.2059	2247.359	3194.2849	3455.114	3495.3662
N=C1C=NOC(=N1)C#C	[NH]C1=N[C](ON=C1)C#C	
InChI=1S/C5H3N3O/c1-2-5-8-4(6)3-7-9-5/h1,3,6H	InChI=1S/C5H3N3O/c1-2-5-8-4(6)3-7-9-5/h1,3,6H
