17
gdb 14011	4.02663	1.3554	1.22561	3.4489	70.26	-0.2453	-0.0265	0.2188	1028.3427	0.141883	-363.834472	-363.826834	-363.82589	-363.866868	28.275	
O	-0.3991158277	 0.5923274746	 0.8032979808	-0.262876
C	 0.2118882355	 0.903225347	-0.1891121401	 0.180635
C	 1.3873308944	 1.8127937305	-0.193635062	-0.199154
N	 2.2815631618	 1.6746446559	-1.3731537259	-0.382826
C	 1.5229650794	 2.8913834299	-1.2274891683	 0.363792
C	 0.4692209751	 3.4201086966	-2.211462515	-0.288945
C	 0.7363153223	 4.8455074456	-1.6425174302	-0.205897
C	 2.0225382387	 4.3142702485	-0.9414353112	-0.303898
H	-0.0667484924	 0.5278942036	-1.1986155714	 0.083345
H	 1.8164313312	 2.0113436801	 0.7857427715	 0.103071
H	 3.2500738144	 1.8058186383	-1.0897765724	 0.240182
H	 0.8033611758	 3.3058425801	-3.2466935087	 0.115556
H	-0.5475881308	 3.0319029363	-2.1263794556	 0.112778
H	 0.8739279027	 5.6458787369	-2.370939114	 0.10721
H	-0.0257932084	 5.1527679963	-0.9233298397	 0.1153
H	 2.1806627343	 4.5915318947	 0.1036369825	 0.111278
H	 2.9313194237	 4.5443809952	-1.5079158902	 0.110449
72.4966	116.3043	159.6627	230.7009	353.5103	385.5989	426.7806	504.7644	553.3984	703.574	781.944	805.4196	884.4475	931.3836	937.5831	945.8243	981.5532	1000.6505	1018.2342	1060.3639	1083.638	1134.4861	1189.2904	1207.6423	1217.5549	1250.4792	1253.2222	1271.5677	1284.9458	1326.7071	1394.0915	1457.2859	1471.2339	1480.9468	1507.648	1820.4331	2893.4574	3046.8371	3063.0993	3077.194	3101.9594	3114.9607	3135.146	3145.3534	3496.1483
O=CC1NC11CCC1	O=C[C@H]1NC21CCC2	
InChI=1S/C6H9NO/c8-4-5-6(7-5)2-1-3-6/h4-5,7H,1-3H2	InChI=1S/C6H9NO/c8-4-5-6(7-5)2-1-3-6/h4-5,7H,1-3H2/t5-/m1/s1
