18
gdb 53358	3.16913	0.89693	0.82231	3.952	80.95	-0.2386	0.0279	0.2665	1474.5006	0.148052	-401.97625	-401.967014	-401.96607	-402.012133	32.694	
C	-0.250703691	 1.3248437073	 0.3442225063	-0.496799
C	-0.0634272414	-0.1057917486	 0.1505051231	 0.020451
C	 0.0893901081	-1.2898910027	-0.0089622729	 0.133011
C	 0.2685978526	-2.7310286968	-0.2126813323	-0.188743
C	 0.8858601937	-3.4614373503	 1.0192321261	-0.220004
C	-0.3335227858	-3.9363148078	 1.8200472931	-0.324816
C	-1.4552648843	-4.0501953767	 0.7834617536	 0.408554
O	-2.543786829	-4.5579816517	 0.9259712827	-0.374242
N	-0.9954977786	-3.4483126143	-0.3657216421	-0.279638
H	 0.4930156285	 1.9021451155	-0.2157330917	 0.151291
H	-1.2423892813	 1.6427934483	 0.0044036618	 0.153468
H	-0.1587157303	 1.5991553497	 1.4007208568	 0.151774
H	 0.8959840099	-2.8886231365	-1.0975557799	 0.110405
H	 1.462128831	-4.3190150858	 0.6608745018	 0.114994
H	 1.5563392398	-2.8056497219	 1.5747943235	 0.119583
H	-0.1892887446	-4.8865014505	 2.3365489802	 0.131112
H	-0.6487302452	-3.1995417108	 2.5669232118	 0.137549
H	-1.6526479223	-3.2107778263	-1.0933444319	 0.252051
26.3406	55.8207	89.4541	156.9944	179.5693	304.9166	330.5207	440.958	457.5003	506.899	526.6132	596.0106	657.2842	706.5196	790.9027	822.2386	890.3469	921.6562	998.3557	1041.5288	1052.6646	1054.0848	1084.412	1134.4667	1180.6254	1210.8065	1242.6609	1285.4698	1297.8445	1353.9548	1380.0008	1414.6269	1417.5624	1465.2826	1477.1153	1478.0048	1494.3171	1834.1776	2366.7937	3029.4139	3031.5458	3060.4878	3069.2599	3091.5361	3091.6394	3122.9503	3135.3482	3629.8132
CC#CC1CCC(=O)N1	CC#C[C@H]1CCC(=O)N1	
InChI=1S/C7H9NO/c1-2-3-6-4-5-7(9)8-6/h6H,4-5H2,1H3,(H,8,9)	InChI=1S/C7H9NO/c1-2-3-6-4-5-7(9)8-6/h6H,4-5H2,1H3,(H,8,9)/t6-/m0/s1
