18
gdb 61991	4.12064	0.77454	0.75609	4.433	73.46	-0.287	-0.0003	0.2867	1541.3186	0.145053	-439.143175	-439.13282	-439.131875	-439.180571	34.954	
C	 0.4299267252	 1.4386495232	-0.4499149769	-0.39023
C	 0.2061653768	-0.0442967479	-0.1007655062	-0.14413
C	 0.7133074689	-1.0056936261	-1.1950997719	-0.087809
O	-0.0621936187	-0.8263752161	-2.3857801038	-0.249198
C	 0.5580558191	-0.2739730077	-3.4642406446	 0.433337
C	-0.3921263978	-0.2176195679	-4.6337961619	-0.479696
O	 1.7003180549	 0.101499579	-3.4659796189	-0.342198
C	 0.8566047464	-0.3910501311	 1.1664628021	 0.262053
N	 1.3802429567	-0.6699400377	 2.1581722692	-0.314877
H	 1.4909886913	 1.645803487	-0.6086048908	 0.151152
H	-0.1126303311	 1.6874182221	-1.3644489957	 0.132476
H	 0.0645651974	 2.0824804623	 0.3532647164	 0.138413
H	-0.8688236748	-0.2235620732	 0.02637972	 0.13666
H	 1.7677696375	-0.8264203165	-1.4117975564	 0.158102
H	 0.5709211742	-2.0425686283	-0.8813963832	 0.134131
H	-1.3188101351	 0.286351822	-4.3471617065	 0.150938
H	 0.0829214264	 0.3058460437	-5.4622631221	 0.153675
H	-0.6572777772	-1.2335441169	-4.9413409089	 0.157201
31.9338	49.4951	61.7502	87.2665	163.9771	206.8653	246.059	272.0538	341.9493	358.3852	474.5205	539.0162	563.2582	602.325	651.1155	822.1505	852.5755	926.3275	941.1651	996.0942	1063.2618	1071.1711	1082.9622	1119.8518	1176.4599	1241.0761	1285.296	1314.4585	1350.5318	1391.7599	1405.3064	1422.9044	1468.1606	1475.3697	1487.153	1494.0048	1501.6542	1834.7822	2359.5888	3038.3028	3057.3944	3058.222	3074.0401	3123.4314	3135.6442	3137.8383	3139.9776	3171.8166
CC(COC(C)=O)C#N	C[C@@H](COC(=O)C)C#N	
InChI=1S/C6H9NO2/c1-5(3-7)4-9-6(2)8/h5H,4H2,1-2H3	InChI=1S/C6H9NO2/c1-5(3-7)4-9-6(2)8/h5H,4H2,1-2H3/t5-/m1/s1
