17
gdb 43876	4.84018	1.10992	1.0643	4.31	72.32	-0.2676	0.0136	0.2811	1145.2483	0.1363	-421.826561	-421.819278	-421.818334	-421.858465	28.68	
O	 0.1772772118	 0.2220092424	-0.8017088028	-0.317576
C	-0.0158054047	 1.2059717759	-0.164068388	 0.433661
C	-1.2012730378	 2.0290527365	 0.3340226917	-0.499788
C	-0.1134456747	 2.9251463413	 0.9508447549	 0.449254
C	 0.1371722586	 4.4227305596	 0.6272109379	-0.311825
C	 0.2981783726	 4.6915727708	 2.1311714002	-0.037307
C	-0.9472623418	 4.2703678789	 2.8508157323	-0.284071
C	 0.0425215466	 3.2114742288	 2.4348887776	-0.114494
O	 0.9215411848	 2.0334073896	 0.4029583458	-0.275811
H	-1.8049596789	 2.4724591875	-0.4600376494	 0.142413
H	-1.8487891503	 1.5073291796	 1.0412853486	 0.14475
H	 1.0662957012	 4.5250808179	 0.0633049323	 0.133244
H	-0.6625076975	 4.9663865475	 0.113614299	 0.102037
H	 1.027951556	 5.3564309559	 2.5740948373	 0.097712
H	-0.9713792527	 4.4731484271	 3.9165188416	 0.122338
H	-1.9179345242	 4.3451403661	 2.3646357471	 0.111056
H	 0.5240244507	 2.5472784647	 3.1414260939	 0.104407
91.8968	121.626	247.2473	364.6751	387.7079	412.8032	473.5072	522.4073	565.3275	744.6476	784.7313	793.8046	835.3577	851.9345	883.5944	933.4279	960.4541	973.7765	975.0978	1027.0324	1055.5491	1075.2994	1078.4919	1091.0359	1140.3298	1142.0814	1193.1423	1202.0023	1231.3748	1249.5676	1276.3244	1319.7489	1361.5434	1451.2863	1472.891	1494.535	1940.4997	3049.4332	3084.8701	3105.3404	3123.0255	3141.6645	3193.1342	3195.9839	3208.5139
O=C1CC2(CC3CC23)O1	O=C1C[C@]2(C[C@H]3C[C@@H]23)O1	
InChI=1S/C7H8O2/c8-6-3-7(9-6)2-4-1-5(4)7/h4-5H,1-3H2	InChI=1S/C7H8O2/c8-6-3-7(9-6)2-4-1-5(4)7/h4-5H,1-3H2/t4-,5-,7+/m1/s1
