23
gdb 86303	1.87573	1.68355	1.10233	1.9912	85.09	-0.2399	0.0683	0.3082	1228.8563	0.205084	-388.265578	-388.256088	-388.255144	-388.300079	35.833	
C	-0.5673326048	 0.9065643758	-1.636945238	-0.420218
C	 0.3423874686	-0.1772138055	-1.0794383	-0.019754
C	 1.8742344869	-0.0760395423	-1.3089273128	-0.256543
C	 2.0917022105	-0.6491513579	 0.1171539542	-0.019754
C	 3.2375091948	-0.1199222671	 0.9656954398	-0.420218
C	 0.6167422778	-0.2767622089	 0.4502521429	 0.274164
C	 0.2786240526	 0.8928636087	 1.4058530101	-0.130054
O	-0.5251649663	 0.0379735464	 2.2437620944	-0.27615
C	-0.2593926355	-1.103490738	 1.4050235642	-0.141441
H	-0.2235915689	 1.9070200187	-1.3526608743	 0.114142
H	-0.5889662716	 0.8659092988	-2.7315084196	 0.115822
H	-1.5975365038	 0.793255222	-1.2807169662	 0.119723
H	-0.0120420546	-1.1584374406	-1.420717716	 0.070907
H	 2.305921668	-0.6185169647	-2.1539706497	 0.093864
H	 2.1965087747	 0.9703570619	-1.3673634672	 0.094393
H	 2.1567707166	-1.7435490038	 0.0628260175	 0.070907
H	 3.232972359	 0.9744934265	 1.0117470372	 0.114142
H	 3.1886401616	-0.4979809457	 1.9931880127	 0.119723
H	 4.2016484578	-0.4265230916	 0.545432476	 0.115822
H	 1.1233771024	 1.3234058551	 1.9579653634	 0.096702
H	-0.3126935656	 1.710829682	 0.9756467282	 0.096702
H	-1.178495518	-1.5158248817	 0.9648401263	 0.093559
H	 0.2610708377	-1.9042020381	 1.9495508968	 0.09356
58.6781	73.9113	193.607	206.9127	223.2121	236.8277	264.9222	300.5332	409.5078	471.7717	476.9009	486.9187	633.7229	767.4188	849.7665	866.4212	874.406	909.0965	947.7902	957.1696	962.2848	993.8637	1041.3519	1041.8387	1088.8873	1116.1458	1151.1307	1155.6109	1162.1235	1178.25	1195.7486	1200.1997	1253.8527	1262.2566	1265.8294	1305.2113	1309.3303	1354.424	1378.567	1390.7758	1410.0525	1413.8146	1489.538	1493.2515	1494.6045	1496.5098	1497.5923	1508.1122	1531.5369	2986.2485	3011.5616	3015.5627	3019.98	3024.6925	3026.3419	3027.9904	3037.7934	3049.7521	3091.5954	3091.752	3092.6192	3094.2933	3099.1801
CC1CC(C)C11COC1	C[C@H]1C[C@@H](C)C21COC2	
InChI=1S/C8H14O/c1-6-3-7(2)8(6)4-9-5-8/h6-7H,3-5H2,1-2H3	InChI=1S/C8H14O/c1-6-3-7(2)8(6)4-9-5-8/h6-7H,3-5H2,1-2H3/t6-,7+
