17
gdb 29720	2.43096	1.62328	0.98767	1.2935	71.98	-0.1759	0.0641	0.24	1157.6874	0.137347	-451.358331	-451.348852	-451.347908	-451.392318	34.287	
C	-0.021605449	 1.481234147	-0.0001084752	-0.34631
N	 0.0354197193	 0.0352028235	 0.0216814403	-0.086183
C	 0.0557603448	-0.812354404	-1.0418403115	 0.414377
O	 0.0735046028	-0.2978177706	-2.2894352165	-0.434196
N	 0.0611335877	-2.0735229097	-0.7160359826	-0.417955
C	 0.0595739518	-2.0698059675	 0.6792282892	 0.145692
N	 0.0359422327	-3.2311663199	 1.4912866736	-0.605717
C	 0.0451921727	-0.7888292195	 1.1514821182	 0.229295
N	-0.0710989018	-0.2519015265	 2.4441227232	-0.612795
H	 0.9781587616	 1.9301088642	-0.0328520366	 0.131108
H	-0.5772485105	 1.8091676941	-0.8802797539	 0.152724
H	-0.5322073148	 1.8191884946	 0.9041162597	 0.155485
H	 0.0701606758	-1.0559259413	-2.8867253235	 0.309475
H	 0.8827879602	-3.7785725686	 1.3570928971	 0.234343
H	-0.730548981	-3.837898288	 1.2109337474	 0.236027
H	-0.3255315997	-1.007237161	 3.0731492223	 0.25562
H	 0.8059508374	 0.1372678632	 2.7828453487	 0.23901
101.7757	113.5268	146.5242	203.397	249.4202	265.7491	275.5064	281.5694	325.4157	367.5908	408.1262	586.485	623.2905	634.8442	673.5008	713.0097	751.7033	854.5676	893.4319	932.3385	1053.7942	1155.8097	1171.5467	1205.2348	1223.8538	1243.4069	1269.7937	1358.9975	1427.3848	1448.7131	1493.3524	1515.1189	1578.6966	1606.5617	1638.8847	1658.0776	1705.7227	3031.5111	3106.9171	3148.551	3466.9328	3472.5778	3529.8082	3566.4609	3808.9169
CN1C(O)=NC(N)=C1N	Cn1c(O)nc(N)c1N	
InChI=1S/C4H8N4O/c1-8-3(6)2(5)7-4(8)9/h5-6H2,1H3,(H,7,9)	InChI=1S/C4H8N4O/c1-8-3(6)2(5)7-4(8)9/h5-6H2,1H3,(H,7,9)
