20
gdb 120511	3.81735	0.73576	0.65765	0.9093	79.23	-0.2488	0.0307	0.2795	1725.7557	0.169451	-440.278246	-440.268173	-440.267229	-440.314409	35.233	
C	 0.4371441535	 1.5166090949	 0.2719404304	-0.338689
N	 0.4232166969	 0.0604819983	 0.2542655961	-0.3243
C	 0.4567256424	-0.5370260911	-0.8422381506	 0.466194
C	 0.4665092152	-1.9877314513	-1.2700243368	-0.407852
C	 0.5317250144	-1.4030259644	-2.69859877	 0.130953
C	-0.6339774741	-1.6551347392	-3.6321828183	-0.219621
C	-0.5874125749	-0.7860514511	-4.8933286489	-0.064981
O	-1.6534250479	-1.0651776821	-5.7855036172	-0.416665
O	 0.5085955211	-0.0421723961	-2.1401681989	-0.281169
H	 1.2972396725	 1.8587258988	 0.8580190771	 0.127361
H	 0.4831892524	 1.9778552968	-0.7215501237	 0.123952
H	-0.4610806457	 1.8771573642	 0.7854677239	 0.126197
H	 1.3359896309	-2.5590767628	-0.9412068761	 0.135886
H	-0.4441708435	-2.5418316251	-1.0325609722	 0.133065
H	 1.4895730558	-1.5630727653	-3.2056122917	 0.093437
H	-0.6333250556	-2.7122600419	-3.9253461484	 0.114797
H	-1.5709016142	-1.4695870944	-3.0896019037	 0.09546
H	-0.5608776237	 0.2755685933	-4.6090199259	 0.110681
H	 0.330980145	-0.9945387705	-5.4539069631	 0.112063
H	-2.4699734303	-0.7672194708	-5.3724493918	 0.283232
53.7606	81.4767	94.0247	113.9033	145.5718	218.0677	235.1384	292.2802	333.8299	381.0412	488.1704	529.4769	562.5114	709.7529	791.5149	840.9099	910.4127	940.3635	980.7657	1031.4396	1049.2722	1072.9542	1079.0741	1104.8463	1114.1132	1131.0556	1136.2044	1184.8881	1213.8829	1245.5472	1265.5772	1317.8742	1331.4669	1385.9755	1415.3562	1422.5474	1440.5209	1468.2976	1474.109	1495.3223	1497.8642	1513.3178	1850.3146	3006.2401	3016.7182	3017.9287	3049.4761	3058.6727	3080.8284	3081.8198	3081.9174	3086.4803	3136.5873	3818.8827
CN=C1CC(CCO)O1	CN=C1C[C@@H](CCO)O1	
InChI=1S/C6H11NO2/c1-7-6-4-5(9-6)2-3-8/h5,8H,2-4H2,1H3	InChI=1S/C6H11NO2/c1-7-6-4-5(9-6)2-3-8/h5,8H,2-4H2,1H3/t5-/m1/s1
