19
gdb 39241	2.96141	1.69466	1.24991	0.8828	74.6	-0.2259	0.0765	0.3024	1022.5894	0.160824	-422.975996	-422.968742	-422.967798	-423.007373	29.79	
C	-0.0298514525	 1.4904011083	 0.0475438026	-0.334633
C	 1.3164174821	 0.7847270715	 0.0211127977	-0.051019
C	 2.1434819032	 0.7408883884	 1.2868400779	-0.10651
O	 2.8016199501	-0.5076144159	 1.4655079248	-0.258629
C	 2.0160509335	-1.6437963057	 1.6756316981	 0.11403
C	 1.1216838693	-1.851841926	 2.8800776251	-0.354279
C	 0.5173792461	-1.7608928942	 1.4999503055	 0.053414
O	-0.2756188721	-0.6292963513	 1.26055594	-0.254215
C	 0.0343368557	-0.0026662726	 0.0466402965	 0.122076
H	-0.3259881133	 1.9648079573	 0.9770038264	 0.126145
H	-0.3716656483	 1.9931759279	-0.8497135652	 0.117234
H	 1.8796399888	 0.7998918341	-0.9068788564	 0.091935
H	 2.9504431533	 1.4785353308	 1.2518726597	 0.110468
H	 1.5137295726	 0.9791401758	 2.1533862762	 0.101403
H	 2.5807183519	-2.5146090243	 1.3543010544	 0.102903
H	 1.147307523	-2.7997375889	 3.4064050476	 0.113836
H	 0.9301225925	-0.987884535	 3.5076501011	 0.129098
H	 0.1439885676	-2.6674036917	 1.0219506725	 0.089638
H	-0.2745617735	-0.5490730586	-0.8436164242	 0.087108
127.657	213.7332	273.3959	327.9449	361.5795	392.4234	451.8657	473.0744	629.6561	709.4813	745.1498	779.5511	796.1504	829.186	834.619	883.4049	964.0334	972.3358	1010.9927	1033.5416	1045.5721	1058.6655	1076.2876	1104.9526	1125.3163	1134.8385	1161.4848	1171.0826	1174.7719	1180.472	1220.9561	1275.7867	1305.5959	1344.0419	1377.4491	1395.0551	1414.5803	1427.5784	1475.2168	1481.9228	1497.9751	3023.1051	3086.1952	3088.0322	3108.2933	3133.8575	3138.6573	3146.3745	3158.6348	3223.6966	3227.4886
C1C2COC3CC3OC12	C1[C@H]2CO[C@H]3C[C@H]3O[C@@H]12	
InChI=1S/C7H10O2/c1-4-3-8-6-2-7(6)9-5(1)4/h4-7H,1-3H2	InChI=1S/C7H10O2/c1-4-3-8-6-2-7(6)9-5(1)4/h4-7H,1-3H2/t4-,5-,6-,7+/m0/s1
