17
gdb 131808	5.65528	0.67884	0.64998	3.0836	70.47	-0.276	-0.0225	0.2536	1683.7413	0.136169	-455.143799	-455.134951	-455.134006	-455.179451	30.381	
O	-0.0709449575	 1.4143254785	 0.2218736051	-0.418539
C	 0.0112216293	 0.0162569344	 0.0090513104	-0.074271
C	-1.4069750094	-0.538610229	 0.0565681119	-0.173947
C	-1.4366885279	-2.062040872	-0.167165661	-0.324376
C	-2.816404925	-2.6200293504	-0.119210934	 0.431499
N	-3.5295276373	-3.1104164162	-1.0917887776	-0.312466
C	-4.6973614376	-3.4370733021	-0.4476452455	 0.037321
N	-4.7249020604	-3.1761755838	 0.8293536491	-0.11326
O	-3.4575110524	-2.6238385548	 1.0588512531	-0.197428
H	 0.8179933603	 1.77927654	 0.1876507769	 0.289097
H	 0.4689483683	-0.2163208188	-0.9667821379	 0.089353
H	 0.6270188084	-0.4733249053	 0.7819488975	 0.088434
H	-1.8519224554	-0.2943724831	 1.0264024684	 0.131002
H	-2.0092429618	-0.0376094809	-0.7086959863	 0.125502
H	-1.0193224118	-2.3186600867	-1.1442028217	 0.141273
H	-0.8288919555	-2.5601869416	 0.5976226522	 0.134032
H	-5.5467645444	-3.8820051781	-0.9453826506	 0.146776
26.1311	75.9731	91.3198	118.5994	246.2038	253.4224	314.0873	346.3831	463.135	657.5272	711.8	757.0916	790.3655	867.2902	919.7019	931.8875	980.4274	1016.4838	1023.1413	1035.9432	1087.0216	1094.2272	1188.4891	1206.9508	1233.4802	1255.5369	1289.4713	1303.8615	1314.7031	1348.5244	1374.541	1466.5105	1473.9461	1500.1698	1518.4543	1528.8125	1622.4822	2956.7677	2982.7826	3040.8041	3055.216	3093.0045	3115.2294	3261.2349	3832.2197
OCCCC1=NC=NO1	OCCCc1ncno1	
InChI=1S/C5H8N2O2/c8-3-1-2-5-6-4-7-9-5/h4,8H,1-3H2	InChI=1S/C5H8N2O2/c8-3-1-2-5-6-4-7-9-5/h4,8H,1-3H2
