13
gdb 131555	2.13594	1.77325	1.06414	3.2742	66.66	-0.254	-0.0784	0.1756	1051.0199	0.08906	-489.889633	-489.881773	-489.880829	-489.922702	27.853	
O	 0.3721537298	 1.3128763653	 0.0273981704	-0.414683
C	 0.1006253043	-0.0699619956	-0.1065146235	-0.003377
C	-1.4106275036	-0.4210744173	-0.1794797376	-0.110069
O	-1.7355592334	-0.7117020644	-1.5462343621	-0.232559
C	-0.6089687931	-0.981385188	-2.279896531	 0.416251
C	 0.5314387866	-0.6763815086	-1.4110903924	 0.097605
N	 1.7593047426	-0.8441743586	-1.7966879533	 0.141214
N	 2.8268179027	-0.9963449743	-2.1374845206	-0.208459
O	-0.6394692347	-1.3694304855	-3.4126471308	-0.360371
H	 0.0538302023	 1.7630270465	-0.7644439181	 0.288175
H	 0.5672893056	-0.5276975862	 0.7691751154	 0.119682
H	-1.6439869036	-1.2993883438	 0.4313490341	 0.129777
H	-2.0170057854	 0.4242898007	 0.1521349695	 0.136814
76.8191	124.482	147.29	171.9271	334.7029	369.5183	439.9319	460.032	544.1157	569.7394	645.4611	717.7513	731.7491	777.5394	881.9573	1009.6451	1050.2733	1077.9425	1097.5384	1204.804	1238.2056	1258.524	1289.1942	1372.0757	1416.0004	1435.7753	1508.4196	1862.2813	2230.7187	3050.5992	3087.8199	3120.6201	3789.3265
OC1COC2=C1N=NO2	O[C@H]1COC(=O)[C]1[N][N]	
InChI=1S/C4H4N2O3/c7-2-1-8-4-3(2)5-6-9-4/h2,7H,1H2	InChI=1S/C4H4N2O3/c5-6-3-2(7)1-9-4(3)8/h2,7H,1H2/t2-/m0/s1
