17
gdb 11800	3.45746	1.75022	1.32593	2.4809	68.72	-0.2382	-0.0236	0.2146	940.8477	0.141082	-363.843376	-363.835499	-363.834555	-363.87576	29.386	
C	-0.4554608196	 1.3656985895	-0.0103613499	-0.408729
C	 0.046972891	-0.072312608	-0.004264532	-0.181225
C	 1.3360487079	-0.3864412237	-0.7957998774	 0.397876
O	 1.728210832	-0.0567040815	-1.8771929884	-0.296955
C	 1.9471937038	-1.1764125094	 0.3747487453	-0.416456
C	 0.7737465523	-0.6641901709	 1.2269203453	 0.335641
C	 0.816468014	-0.0974107976	 2.5908179273	-0.299681
N	 0.1877525597	-1.4120339947	 2.3305393291	-0.362943
H	 0.324055777	 2.057465276	 0.322675903	 0.12564
H	-0.752941456	 1.6559105777	-1.0222155987	 0.139606
H	-1.3236635939	 1.489599817	 0.6455481458	 0.117096
H	-0.7459151523	-0.7563857467	-0.3408480485	 0.105937
H	 1.9269349643	-2.2595556486	 0.2124349562	 0.140518
H	 2.9587242835	-0.8825283981	 0.6674842661	 0.133583
H	 1.7355029257	-0.1390088059	 3.1697613375	 0.122829
H	 0.1764893306	 0.7515710598	 2.8180282192	 0.116004
H	-0.8255010899	-1.3146155349	 2.3243527499	 0.231259
56.2625	182.9107	197.4631	207.7286	286.1349	325.5869	413.5751	487.4584	514.8331	564.0046	727.2444	750.495	806.6528	867.7715	903.9931	933.6015	967.2885	1001.4569	1034.5137	1057.9499	1075.9165	1120.6397	1134.058	1158.2577	1188.6724	1227.4036	1263.1794	1288.9603	1330.6371	1401.2355	1411.6281	1438.5516	1492.5222	1495.8824	1514.5833	1894.2595	3006.6238	3036.3949	3053.5166	3103.8292	3104.007	3110.1726	3116.3512	3188.4475	3485.1815
CC1C(=O)CC11CN1	C[C@H]1C(=O)C[C@]21CN2	
InChI=1S/C6H9NO/c1-4-5(8)2-6(4)3-7-6/h4,7H,2-3H2,1H3	InChI=1S/C6H9NO/c1-4-5(8)2-6(4)3-7-6/h4,7H,2-3H2,1H3/t4-,6+/m0/s1
