18
gdb 125962	3.02775	1.617	1.10863	5.3837	77.24	-0.2455	0.0099	0.2554	1083.4776	0.151272	-398.146104	-398.138708	-398.137764	-398.178055	28.348	
C	-0.096025988	 1.5902364224	-0.0567717231	-0.398285
C	 0.013296262	 0.0655253268	 0.0199963985	-0.135189
C	 0.7976909866	-0.5722287316	-1.1752167014	-0.226247
C	 1.5131021812	-1.824008227	-0.6074613921	-0.184797
N	 1.5917799896	-1.4760084441	 0.8038200482	 0.061424
N	 2.2846057101	-2.0058752757	 1.8188121427	-0.178187
N	 1.9409678565	-1.3264374558	 2.8864483302	-0.192555
C	 1.0233021639	-0.3724754182	 2.5463342973	-0.226212
C	 0.7885197402	-0.4628087685	 1.1933523223	 0.367161
H	 0.8960499023	 2.0525334462	-0.0654630992	 0.127495
H	-0.6251230807	 1.8948654496	-0.9652576255	 0.120671
H	-0.6466902682	 1.9884671625	 0.8006173604	 0.127902
H	-1.0020176413	-0.3536498817	 0.0465824648	 0.101748
H	 0.1496918581	-0.8139488808	-2.0201708569	 0.116683
H	 1.5475063755	 0.1441941826	-1.5257754242	 0.122511
H	 0.9266740367	-2.7401896877	-0.7364066459	 0.133483
H	 2.5083602103	-1.9892166258	-1.0242117765	 0.143104
H	 0.6125630051	 0.2964718467	 3.2845511603	 0.119292
110.6846	161.5502	213.7355	228.9379	276.4765	432.3259	471.8325	564.1816	639.238	705.7836	720.2033	759.0398	829.7666	840.0342	918.2738	961.6135	981.1425	1005.0383	1045.4104	1109.0144	1127.483	1140.6221	1144.0015	1202.44	1218.6967	1260.5051	1283.1396	1306.9065	1318.8036	1337.8564	1350.1139	1371.5724	1414.0209	1477.6969	1491.7189	1495.3719	1501.8183	1523.8159	1579.5384	3006.2536	3037.47	3050.1135	3058.6681	3109.1232	3110.5474	3113.2602	3122.4142	3272.4326
CC1CCN2N=NC=C12	C[C@H]1CCn2nncc12	
InChI=1S/C6H9N3/c1-5-2-3-9-6(5)4-7-8-9/h4-5H,2-3H2,1H3	InChI=1S/C6H9N3/c1-5-2-3-9-6(5)4-7-8-9/h4-5H,2-3H2,1H3/t5-/m0/s1
