17
gdb 73354	2.58462	2.063	1.65468	1.9457	71.15	-0.2229	0.002	0.2249	872.7463	0.1377	-421.809238	-421.802568	-421.801624	-421.839745	28.195	
O	 0.0927465559	 1.4039281275	-0.1327089103	-0.498305
C	 0.0449303076	 0.002614852	-0.0137545425	 0.356899
C	 0.659382096	-0.6573543482	-1.2662786193	-0.093781
O	 0.1698115807	-2.0016597192	-1.2305489251	-0.258434
C	-1.1045551168	-1.9741246491	-0.6397919607	 0.100268
C	-1.2298354863	-1.8574100593	 0.8951299606	-0.141077
C	 0.0241789581	-1.6467741827	 1.6698308303	-0.052263
C	 0.7148848129	-0.6004462809	 1.2119870351	-0.19062
C	-1.3697200468	-0.6529600137	-0.0189533384	-0.200518
H	-0.1466996549	 1.7781442363	 0.7214656626	 0.278763
H	 0.3236845295	-0.131275678	-2.1731062203	 0.098844
H	 1.7512261469	-0.6954784572	-1.2512748334	 0.111805
H	-1.8512892903	-2.5495960464	-1.177859929	 0.101488
H	-2.0928176793	-2.3300834822	 1.3524258427	 0.086553
H	 0.3398815189	-2.3129374341	 2.4641746775	 0.104998
H	 1.7009102578	-0.2853024078	 1.5341609664	 0.100961
H	-2.26302209	-0.0544617871	-0.147952486	 0.09442
222.1566	281.3907	309.7873	318.9379	392.7558	439.4336	560.8801	603.9986	667.0297	711.4591	742.989	768.3324	802.5716	808.8685	819.0748	930.6845	945.4121	967.4234	993.2408	1000.6098	1035.9595	1056.946	1069.472	1089.5216	1103.3271	1147.8423	1175.1614	1191.1455	1231.9287	1259.3401	1304.3225	1355.4877	1368.1499	1379.7252	1394.3667	1509.5024	1658.5889	2991.6586	3104.2234	3155.8617	3165.7417	3189.0326	3189.9456	3214.0594	3814.8198
OC12COC3C(C=C1)C23	O[C@@]12CO[C@H]3[C@@H](C=C1)[C@@H]23	
InChI=1S/C7H8O2/c8-7-2-1-4-5(7)6(4)9-3-7/h1-2,4-6,8H,3H2	InChI=1S/C7H8O2/c8-7-2-1-4-5(7)6(4)9-3-7/h1-2,4-6,8H,3H2/t4-,5+,6-,7+/m0/s1
