18
gdb 93143	2.37411	1.92683	1.41544	2.1169	71.68	-0.2423	0.0081	0.2504	964.2728	0.149109	-439.064489	-439.05682	-439.055875	-439.09634	30.378	
O	 0.1933437783	 1.4513961486	 0.0874194129	-0.435552
C	 0.0273768297	 0.0477629972	-0.0175614828	 0.069154
C	 0.6983168446	-0.69984329	 1.1495421178	-0.161347
N	 0.2412340239	-0.4195651088	 2.500920934	-0.22662
C	-0.8203032627	 0.1630202239	 2.8341987649	 0.088032
O	-1.8499852738	 0.6869019767	 2.0765161477	-0.247141
C	-2.3442288799	-0.08610561	 0.9954968405	 0.09397
C	-2.5337601456	 0.6113193046	-0.3166589248	-0.324747
C	-1.4268867089	-0.4010507333	-0.1450200955	-0.057397
H	-0.210578102	 1.739240678	 0.9144415525	 0.294112
H	 0.5593100518	-0.2249185068	-0.9368998267	 0.092291
H	 0.6083379187	-1.7818441685	 0.9803682877	 0.113508
H	 1.7723057778	-0.4786663159	 1.1360126898	 0.121421
H	-1.0052536051	 0.3830057837	 3.88598505	 0.125525
H	-3.0819498565	-0.8147494764	 1.3206419288	 0.104254
H	-3.403189536	 0.3527678932	-0.9099773153	 0.118693
H	-2.2230411321	 1.6478657312	-0.3726004879	 0.137116
H	-1.5479014622	-1.3753658075	-0.6101514636	 0.094728
113.1396	170.8972	235.3556	296.9028	338.8195	386.113	401.4552	471.8701	479.0091	546.512	722.5521	765.8943	802.2757	807.6952	859.9714	872.0971	937.705	960.2753	991.4566	1012.6238	1050.5996	1058.3603	1083.1929	1089.7864	1129.3739	1146.6939	1167.1588	1228.3122	1255.4338	1298.5158	1333.0771	1358.5224	1394.6418	1400.8807	1420.1002	1438.4548	1463.5316	1484.6106	1763.4534	3016.0519	3040.9442	3055.6031	3134.1596	3137.8442	3143.4153	3151.6295	3237.1683	3797.3311
OC1CN=COC2CC12	O[C@H]1CN=CO[C@H]2C[C@@H]12	
InChI=1S/C6H9NO2/c8-5-2-7-3-9-6-1-4(5)6/h3-6,8H,1-2H2	InChI=1S/C6H9NO2/c8-5-2-7-3-9-6-1-4(5)6/h3-6,8H,1-2H2/t4-,5-,6-/m0/s1
