20
gdb 108588	2.62098	1.37119	1.20761	1.4081	74.7	-0.2263	0.0709	0.2973	1129.4621	0.171167	-440.24908	-440.240115	-440.239171	-440.282961	33.355	
C	-0.3039612341	 1.4452848034	 0.1545810078	-0.335351
N	 0.0339799083	 0.0238911923	 0.1975500779	-0.142407
C	 1.3158655828	-0.481877012	-0.2766284901	-0.116275
C	 2.4920937709	 0.4699093424	-0.3838411569	-0.107722
O	 2.5571169857	 1.1734759897	 0.8530487879	-0.256484
C	 1.9308914236	 0.3988795453	 1.8733400658	-0.142106
C	 0.9638626274	-0.545488375	 1.1746910686	 0.274231
C	 0.4738561691	-1.7736276688	 1.8991450938	-0.144618
O	-0.421304344	-1.4360903703	 2.9498459231	-0.420007
H	 0.5221271848	 2.1283391574	 0.3837144812	 0.137775
H	-0.6845357381	 1.6763180068	-0.8454594343	 0.123245
H	-1.1165988767	 1.6295261357	 0.8645925317	 0.117513
H	 1.2842938063	-1.3425599673	-0.9406031042	 0.093129
H	 3.4116780322	-0.1081652558	-0.5706499958	 0.100062
H	 2.3939467247	 1.2159740783	-1.1808861554	 0.112209
H	 2.6697489565	-0.1901254741	 2.4396330023	 0.098921
H	 1.4497572068	 1.0943862976	 2.5688318302	 0.117299
H	 0.0051958655	-2.4548737718	 1.1754373458	 0.095484
H	 1.3091855667	-2.3011493442	 2.372777477	 0.10687
H	-1.1797512384	-1.0098574193	 2.5351576436	 0.288233
52.4514	144.4309	150.8207	215.5083	224.4388	262.3674	309.9047	331.9392	419.5756	471.7981	512.0297	648.8146	715.3353	768.7226	796.6075	891.0253	929.652	944.5556	990.0585	1000.9688	1049.225	1071.3189	1108.6201	1113.4044	1142.0041	1160.4583	1178.9668	1195.7615	1226.3066	1242.6518	1285.464	1300.6179	1354.911	1367.4013	1390.6418	1416.6779	1436.4378	1471.0706	1491.8232	1493.2444	1506.7615	1520.3301	1521.5529	2974.7124	2982.4652	3006.695	3020.5669	3055.0667	3069.2151	3073.5846	3087.6195	3098.262	3136.2091	3802.7524
CN1C2COCC12CO	CN1[C@H]2COC[C@@]12CO	
InChI=1S/C6H11NO2/c1-7-5-2-9-4-6(5,7)3-8/h5,8H,2-4H2,1H3	InChI=1S/C6H11NO2/c1-7-5-2-9-4-6(5,7)3-8/h5,8H,2-4H2,1H3/t5-,6+,7?/m0/s1
