20
gdb 80244	2.37236	1.61921	1.26394	3.1707	80.55	-0.2504	0.0335	0.2839	1100.8797	0.171988	-403.148834	-403.140558	-403.139614	-403.181268	32.501	
C	-0.2058635313	 1.5837048989	 1.0110102521	-0.433133
C	-0.0996266638	 0.1127116107	 0.646711263	 0.015728
C	 0.9417100122	-0.3757857241	-0.3925093239	 0.060673
O	 2.1979304811	 0.1210628877	 0.1646303999	-0.264765
C	 2.0676627294	-0.2307173239	 1.4974307413	 0.444847
N	 2.9026008139	-0.0256622828	 2.4173922708	-0.584396
C	 0.7181342246	-0.8976449855	 1.5409935008	-0.155002
C	 0.8666465229	-1.7900017518	 0.2429878078	 0.030416
C	-0.2704253778	-2.7317937036	-0.1256137967	-0.443673
H	 0.7730848199	 2.031753834	 1.1959021201	 0.140468
H	-0.6876565163	 2.1451501454	 0.2032287942	 0.117192
H	-0.8132503161	 1.7142383836	 1.9126473397	 0.123201
H	-1.086726915	-0.2958787122	 0.4273525448	 0.083659
H	 0.9120719833	-0.1633090264	-1.4602435231	 0.084444
H	 3.7316169854	 0.446197258	 2.0498269318	 0.220929
H	 0.3773755713	-1.2732850618	 2.5024509866	 0.090059
H	 1.8194499663	-2.3245239335	 0.1807388782	 0.091257
H	-1.2599334288	-2.2725640044	-0.0638766214	 0.124111
H	-0.1397744278	-3.1031268169	-1.1479729203	 0.124747
H	-0.2683388535	-3.6007568514	 0.5404913344	 0.129239
146.1216	175.1233	181.1714	222.0293	234.8065	287.7929	343.9257	438.6489	505.2547	575.1857	656.2862	698.9725	745.8175	809.5865	831.8509	849.7724	890.7392	898.547	931.3726	973.335	1027.9191	1044.3799	1056.8478	1072.3713	1080.6763	1111.4186	1123.5613	1170.2474	1191.2259	1232.5691	1244.5797	1257.9253	1280.4542	1343.9168	1386.801	1399.5554	1415.4229	1423.0944	1492.8049	1495.4727	1498.057	1501.9232	1805.8963	3037.687	3038.5643	3061.9257	3096.9086	3098.1765	3099.4842	3120.845	3130.286	3135.3196	3159.0115	3462.1313
CC1C2OC(=N)C1C2C	C[C@H]1[C@H]2O[C]([NH])[C@@H]1[C@H]2C	
InChI=1S/C7H11NO/c1-3-5-4(2)6(3)9-7(5)8/h3-6,8H,1-2H3	InChI=1S/C7H11NO/c1-3-5-4(2)6(3)9-7(5)8/h3-6,8H,1-2H3/t3-,4-,5-,6+/m1/s1
