18
gdb 74027	2.83008	1.52858	1.04478	4.4959	82.23	-0.215	-0.0169	0.1982	1133.8833	0.148881	-401.959952	-401.951785	-401.950841	-401.993188	30.631	
C	-0.1291931279	 1.49450666	 0.024257702	-0.517133
C	-0.0727223991	 0.0058191674	 0.1625083552	 0.024422
C	-1.0414948806	-0.9282762022	 0.229973997	 0.298638
N	-2.356051055	-1.240506257	-0.0758743187	-0.378595
C	-1.9118654029	-2.603813563	-0.5385790956	-0.204815
C	-0.5944853138	-2.3553939072	 0.2799810352	-0.069602
C	 0.8644464811	-2.2714073738	-0.1660315943	-0.37566
C	 1.1980290295	-0.7536621769	 0.0369969425	 0.334881
O	 2.3119529705	-0.2845328834	-0.0423818191	-0.346428
H	 0.8280060323	 1.8561926405	-0.3614609803	 0.149415
H	-0.9267055968	 1.8178744373	-0.6550067927	 0.110035
H	-0.3032049293	 1.9890360012	 0.9870291724	 0.132141
H	-2.9233365806	-0.6316084929	-0.6536721889	 0.244736
H	-2.5644359615	-3.4191776682	-0.2187205076	 0.119821
H	-1.7494995739	-2.6458997603	-1.6209349912	 0.118978
H	-0.6970302334	-2.7954931502	 1.275482931	 0.109072
H	 1.55700805	-2.9097027005	 0.3867939279	 0.121349
H	 0.9925651416	-2.4885755706	-1.2321541346	 0.128743
54.0496	116.7609	158.7722	234.6567	265.9758	337.5438	411.4989	532.8878	557.2628	588.3155	627.4784	653.2271	719.81	787.7331	853.053	895.0973	926.4553	961.1272	1036.224	1039.2991	1057.5537	1090.3566	1119.2538	1134.051	1184.9015	1189.8469	1205.6983	1250.0849	1266.8487	1332.9678	1344.1584	1368.1354	1408.8709	1463.2261	1480.2016	1498.9782	1507.9876	1722.9183	1805.1079	3023.2026	3043.1376	3056.6509	3070.4853	3072.8326	3112.0766	3114.4924	3116.4063	3553.3481
CC1=C2NCC2CC1=O	C[C]1[C]2NC[C@H]2CC1=O	
InChI=1S/C7H9NO/c1-4-6(9)2-5-3-8-7(4)5/h5,8H,2-3H2,1H3	InChI=1S/C7H9NO/c1-4-6(9)2-5-3-8-7(4)5/h5,8H,2-3H2,1H3/t5-/m1/s1
