21
gdb 65250	3.3727	1.16793	1.13	1.3997	84.35	-0.2313	0.0169	0.2482	1208.842	0.182213	-387.083292	-387.074475	-387.073531	-387.117003	33.671	
C	-0.2235082041	 1.4602236715	 0.34905017	-0.472797
C	-0.0180237154	-0.0152263686	 0.0710072606	 0.378402
C	 1.3427438832	-0.4933845965	-0.3822894974	-0.312958
C	 0.8562891401	-0.8082736363	 1.01102875	-0.306191
C	-1.2163771311	-0.7422976707	-0.522217428	 0.027657
O	-2.342786834	-0.6568115972	 0.3624428885	-0.280476
C	-3.5003135671	-0.2169907105	-0.340736549	-0.116595
C	-3.0163372572	 0.1144640966	-1.7247466127	-0.100175
C	-1.7276955294	-0.1854688679	-1.8278230072	-0.093426
H	 0.6730273356	 1.9029179621	 0.7934583834	 0.107716
H	-0.4529509475	 2.0138364956	-0.5680224162	 0.113326
H	-1.0551831045	 1.6037399893	 1.0455648549	 0.128723
H	 1.394800129	-1.3069066383	-1.0993685261	 0.106256
H	 2.1252707119	 0.2484366746	-0.4999563312	 0.108672
H	 1.3117107014	-0.2826515857	 1.8433412508	 0.109088
H	 0.5723822583	-1.8313382108	 1.2344274121	 0.113297
H	-0.9373982702	-1.8046046835	-0.6427685507	 0.069708
H	-4.265459665	-1.011210114	-0.3510473594	 0.102064
H	-3.941373776	 0.6481340695	 0.1771447615	 0.105822
H	-3.6580175823	 0.5195840089	-2.4970825182	 0.105233
H	-1.0974604059	-0.0757894583	-2.7010157758	 0.106656
65.2173	87.7248	174.9805	196.1357	239.8017	302.4732	325.8664	365.9928	469.3006	493.5238	690.8966	761.7465	782.5136	791.0972	814.4338	872.947	903.4969	917.1943	948.1217	956.3469	960.9224	966.7278	1037.2326	1046.7033	1047.3205	1072.0403	1076.7287	1104.399	1123.417	1126.2047	1187.6961	1198.5295	1278.2476	1304.7296	1328.3151	1355.0056	1380.2753	1390.8945	1421.1309	1468.4422	1483.327	1500.7227	1510.9069	1519.4568	1691.1802	2930.9082	2963.9715	2995.9394	3032.1521	3096.4753	3108.6056	3125.0421	3131.4015	3203.0631	3205.5993	3218.2292	3230.5627
CC1(CC1)C1OCC=C1	CC1(CC1)[C@H]1OCC=C1	
InChI=1S/C8H12O/c1-8(4-5-8)7-3-2-6-9-7/h2-3,7H,4-6H2,1H3	InChI=1S/C8H12O/c1-8(4-5-8)7-3-2-6-9-7/h2-3,7H,4-6H2,1H3/t7-/m0/s1
