15
gdb 42760	2.70978	1.57508	1.28889	4.4242	70.72	-0.239	-0.0379	0.2011	988.0364	0.114627	-416.80259	-416.795311	-416.794367	-416.83441	27.708	
O	 0.0015002109	-0.0160964319	-0.0332172355	-0.290573
C	-0.0418113035	 1.1703596764	-0.0227026168	 0.420635
C	-1.0736805342	 2.3119832656	 0.0591416565	-0.142206
C	-0.0406005636	 3.0050965139	 0.9855583157	-0.257543
C	 1.0146981865	 2.3460081909	 0.0234867636	 0.05016
C	 0.6556296906	 3.042417378	-1.3115766984	-0.213077
N	-0.8459633555	 3.0290380841	-1.2185714804	-0.302508
C	 2.3963477378	 2.1619869404	 0.3655822946	 0.177381
N	 3.5076349547	 2.0022831721	 0.6434818752	-0.33417
H	-2.1190531561	 2.1726321515	 0.3213639683	 0.107605
H	-0.0645392846	 4.0954988551	 0.9862601414	 0.13709
H	-0.0087968699	 2.5953094204	 1.9951850636	 0.141919
H	 1.0348451535	 4.0675210318	-1.3565579753	 0.133344
H	 1.0362188144	 2.4900533967	-2.1752398949	 0.133161
H	-1.240687071	 2.4999245648	-1.9904202575	 0.238781
128.7622	141.6972	176.3517	271.1429	390.4491	444.1118	494.5561	537.1359	565.8964	664.8833	709.5166	775.5301	811.9633	848.2752	879.085	951.1049	974.129	1003.6525	1022.8427	1052.9602	1093.4951	1137.0495	1164.7252	1197.2186	1223.6074	1249.4542	1277.3642	1358.9711	1407.9542	1482.1713	1525.6765	1918.9862	2353.1482	3049.1221	3089.5737	3096.0961	3164.2001	3165.7465	3516.6493
O=C1C2CC1(CN2)C#N	O=C1[C@H]2C[C@@]1(CN2)C#N	
InChI=1S/C6H6N2O/c7-2-6-1-4(5(6)9)8-3-6/h4,8H,1,3H2	InChI=1S/C6H6N2O/c7-2-6-1-4(5(6)9)8-3-6/h4,8H,1,3H2/t4-,6+/m1/s1
