17
gdb 124993	3.13742	0.99466	0.79473	3.5589	71.71	-0.2575	-0.032	0.2256	1404.6849	0.134262	-455.128892	-455.11955	-455.118606	-455.164455	32.207	
C	-0.3049660642	 1.5271578354	 0.304508477	-0.495998
C	-0.0243920721	 0.0844716101	 0.0544014969	 0.154614
C	 0.1538816628	-0.6174466035	-1.1020350367	 0.328582
C	 0.150822206	-0.2481689334	-2.5434082153	-0.301318
C	 1.5031894583	-0.4898174175	-3.2235003869	-0.068779
O	 1.3586563448	-0.081624925	-4.5712875041	-0.416653
O	 0.3803358791	-1.8985256627	-0.7831917323	-0.222678
N	 0.3361711669	-1.9808179819	 0.6424728551	-0.01884
N	 0.1017304756	-0.8283386586	 1.0830405425	-0.164302
H	 0.4904217945	 1.986235515	 0.9002407971	 0.14748
H	-0.3858450491	 2.0782007018	-0.6354228713	 0.132954
H	-1.2419239736	 1.6554360943	 0.8555211068	 0.148962
H	-0.6111076977	-0.827899468	-3.0767061614	 0.142728
H	-0.1150135271	 0.807365462	-2.6474440602	 0.130558
H	 2.2843656753	 0.0870153829	-2.704232208	 0.097224
H	 1.7670607857	-1.5540008786	-3.1429402226	 0.113089
H	 2.1848163049	-0.2563612422	-5.0312731565	 0.292377
43.1266	80.1186	85.0484	119.774	246.5887	248.6603	257.6247	345.1388	350.6762	431.3828	654.6773	671.0202	685.5247	711.1379	798.425	804.5331	987.4435	1004.3243	1024.2705	1056.733	1068.9393	1087.2458	1184.4141	1210.3722	1240.9608	1256.6046	1310.8392	1332.9545	1388.3786	1422.4069	1457.3095	1466.9605	1476.6377	1481.2195	1493.5686	1529.7716	1658.8438	2979.9179	3020.4246	3043.8631	3050.1172	3100.8573	3104.8595	3127.0688	3833.5431
CC1=C(CCO)ON=N1	Cc1c(CCO)onn1	
InChI=1S/C5H8N2O2/c1-4-5(2-3-8)9-7-6-4/h8H,2-3H2,1H3	InChI=1S/C5H8N2O2/c1-4-5(2-3-8)9-7-6-4/h8H,2-3H2,1H3
