23
gdb 103283	2.29416	1.34057	1.15329	1.424	85.66	-0.2465	0.0718	0.3183	1237.2282	0.204966	-388.264374	-388.25469	-388.253746	-388.298294	37.569	
C	-0.4348343164	 1.4137178208	 0.1418005099	-0.381033
C	 0.2235247205	 0.0465797774	-0.0879995155	-0.26102
C	 0.8151272633	-0.5653593994	 1.1788672835	 0.357555
C	 2.0697500505	 0.1448040718	 1.674514808	-0.461232
C	-0.0331097177	-1.1223072792	 2.292150689	-0.093165
C	-1.2945346102	-1.8201083551	 1.7692040737	-0.306362
C	-0.3688474293	-2.8274859638	 0.99920073	 0.10327
O	-0.5072711301	-2.9963774605	-0.3983598296	-0.426013
C	 0.8633550531	-2.0547654443	 1.4463242258	-0.12461
H	 0.2776020154	 2.15845592	 0.5109122024	 0.11223
H	-0.8608594546	 1.8021083453	-0.7887743857	 0.108023
H	-1.2446953954	 1.3422887345	 0.8762383179	 0.114376
H	-0.4951253661	-0.6401797496	-0.536709239	 0.119437
H	 1.0297890237	 0.1480365609	-0.8265436339	 0.088478
H	 1.8702910356	 1.1958005353	 1.9075318665	 0.117121
H	 2.463168243	-0.3235815011	 2.5823240784	 0.110444
H	 2.8586433965	 0.1161638659	 0.9142250243	 0.115275
H	 0.1155716462	-0.8219532614	 3.3227997583	 0.079248
H	-1.8860405548	-2.3056930916	 2.5489173929	 0.096684
H	-1.9604721892	-1.2131766026	 1.149064198	 0.09964
H	-0.393024584	-3.8032871107	 1.5033452076	 0.07375
H	-1.2907433168	-3.5321401721	-0.5593909812	 0.281677
H	 1.7991590168	-2.5294999403	 1.720416359	 0.076225
85.2278	144.8245	171.7759	200.0285	220.3837	265.0608	286.3577	291.7966	364.6711	393.3196	433.9079	488.2219	589.407	654.4426	704.8202	786.6521	818.2761	841.5216	870.1469	910.0504	976.7727	1000.0717	1011.6489	1014.7088	1025.0933	1049.6923	1065.4698	1075.3365	1105.845	1133.4352	1157.4365	1194.5608	1227.4753	1248.5631	1267.9609	1293.9282	1319.783	1328.5908	1367.8059	1406.4043	1416.4806	1424.9915	1427.6819	1480.3968	1490.9093	1498.7981	1504.1953	1506.6903	1516.3977	3000.6058	3024.0022	3028.2906	3032.9805	3055.8357	3089.6545	3094.5192	3099.1016	3100.5473	3107.1587	3125.7261	3164.181	3178.0001	3811.271
CCC1(C)C2CC(O)C12	CC[C@@]1(C)[C@H]2C[C@@H](O)[C@@H]12	
InChI=1S/C8H14O/c1-3-8(2)5-4-6(9)7(5)8/h5-7,9H,3-4H2,1-2H3	InChI=1S/C8H14O/c1-3-8(2)5-4-6(9)7(5)8/h5-7,9H,3-4H2,1-2H3/t5-,6+,7-,8-/m0/s1
