19
gdb 90536	4.50902	1.00884	0.92669	1.8689	81.8	-0.2474	0.0473	0.2947	1283.651	0.158581	-385.824728	-385.81614	-385.815195	-385.858208	33.231	
O	-0.1148700452	 1.5141379848	 0.4639386138	-0.427607
C	 0.0586354187	 0.1560561502	 0.1287862376	 0.130586
C	 0.3228964119	-0.8749701527	 1.2730112034	-0.29008
C	-0.8745675939	-1.7272757307	 0.7645008511	-0.020694
C	-2.1974739714	-1.4848743928	 1.5593080521	-0.179847
C	-2.4672600192	-0.2212414351	 0.661547878	-0.244808
C	-1.2487657521	-0.5729979186	-0.2334108695	-0.034694
C	-3.1849014293	-2.5384063091	 1.4293453255	 0.300147
C	-3.9990491232	-3.4144350637	 1.2967637984	-0.451086
H	 0.7405090804	 1.8777765017	 0.7133756684	 0.284386
H	 0.7996216303	 0.0419437308	-0.6754494671	 0.066376
H	 1.2985694901	-1.3653982097	 1.2420198685	 0.097318
H	 0.172192335	-0.4560635625	 2.272756957	 0.099841
H	-0.6624655596	-2.7493603509	 0.4551372564	 0.077377
H	-2.0354292177	-1.2619431532	 2.6198068749	 0.096708
H	-3.4282565229	-0.2536133573	 0.1482085491	 0.113902
H	-2.3726633191	 0.73169282	 1.1840386652	 0.123184
H	-1.4583027371	-0.7283007607	-1.291647071	 0.068012
H	-4.7202391359	-4.1864500604	 1.1928321982	 0.19098
46.6639	129.0063	154.8565	254.9297	259.9428	335.1822	386.4319	437.9026	508.3879	538.1565	613.4173	619.3843	650.0897	743.2402	779.21	820.3245	855.2885	875.9922	910.4741	973.7484	984.9378	1023.944	1051.6774	1083.4041	1095.007	1126.3316	1139.9335	1186.905	1205.2232	1210.7095	1239.1465	1250.8128	1261.5695	1277.1118	1319.7563	1329.4159	1348.2229	1420.454	1473.0078	1483.9479	2229.7295	2989.9886	3037.1874	3051.4532	3087.3453	3104.0311	3107.7082	3126.4065	3146.5334	3505.3283	3818.9698
OC1CC2C(CC12)C#C	O[C@H]1C[C@H]2[C@@H](C[C@@H]12)C#C	
InChI=1S/C8H10O/c1-2-5-3-7-6(5)4-8(7)9/h1,5-9H,3-4H2	InChI=1S/C8H10O/c1-2-5-3-7-6(5)4-8(7)9/h1,5-9H,3-4H2/t5-,6+,7-,8+/m1/s1
