15
gdb 26724	3.31226	1.21311	0.89136	4.6117	72.51	-0.1926	-0.0268	0.1658	1209.4257	0.11291	-453.981573	-453.972901	-453.971956	-454.014671	31.855	
N	 0.030000458	 1.4241215854	-0.1417414745	-0.61964
C	 0.0446462556	 0.0235799763	-0.0435676141	 0.048746
C	-1.0617029468	-0.7877619339	-0.031428498	 0.270231
O	-2.3894692744	-0.4757168365	 0.0132388011	-0.438438
N	-0.6357709836	-2.1091402221	-0.0018747761	-0.293115
C	 0.7161860949	-2.1549028779	 0.0096107316	-0.144785
C	 1.1916468613	-0.8478525227	-0.027090294	 0.14071
C	 2.5950834735	-0.4804133246	-0.0541101912	 0.065152
O	 3.5246635329	-1.2636400141	-0.0297351001	-0.301257
H	 0.7748998698	 1.8625834654	 0.3844858149	 0.249109
H	-0.8569593046	 1.8030409454	 0.1693011603	 0.245075
H	-2.7081754477	-0.2910271099	-0.8789409922	 0.30661
H	-1.2604906353	-2.8957787	 0.0533057746	 0.270643
H	 1.2673458843	-3.0792954788	 0.0456321997	 0.153941
H	 2.7894506921	 0.6160665681	-0.1058738522	 0.047019
114.6731	165.7038	178.263	196.3907	256.0201	297.1677	309.6616	334.0585	398.5589	483.6434	515.9104	639.5032	667.2013	689.035	761.0673	763.0144	785.6725	835.3506	979.2502	1037.9468	1106.3558	1199.2664	1217.0552	1242.6045	1283.6229	1375.849	1421.4163	1467.2472	1501.76	1537.7932	1648.6887	1675.0646	1773.1535	2852.8648	3283.8713	3526.6085	3616.0946	3672.6463	3751.5407
NC1=C(O)NC=C1C=O	Nc1c(O)[nH]cc1C=O	
InChI=1S/C5H6N2O2/c6-4-3(2-8)1-7-5(4)9/h1-2,7,9H,6H2	InChI=1S/C5H6N2O2/c6-4-3(2-8)1-7-5(4)9/h1-2,7,9H,6H2
