14
gdb 69229	2.78636	1.68655	1.19046	2.6634	63.84	-0.2837	-0.0467	0.237	997.2298	0.100248	-473.851799	-473.844247	-473.843303	-473.883865	28.132	
C	-0.0920024551	 1.5407196643	 0.0237553091	-0.491009
C	 0.1291542843	 0.0605676335	 0.0061246543	 0.336464
O	-0.7069983372	-0.7716992559	 0.8332766709	-0.267666
C	 0.70625212	-0.7760824355	 1.0728450536	-0.219348
C	 1.3511239752	-1.9562067613	 0.3964850903	 0.470936
O	 2.0308400276	-2.8227738432	 0.8448418335	-0.308243
O	 1.0364406306	-1.8840299196	-0.9560842	-0.233822
C	 0.438071589	-0.6695209078	-1.2684229226	 0.401821
N	 0.2163881561	-0.2547836716	-2.4315325758	-0.520374
H	 0.7967788278	 2.0647629766	-0.3378122007	 0.145006
H	-0.9248875431	 1.7992835204	-0.6349394925	 0.162145
H	-0.3212926853	 1.8740486827	 1.0379517715	 0.139976
H	 1.0576901407	-0.4288264291	 2.0373046552	 0.13851
H	 0.5189851194	-0.9301023835	-3.1357173567	 0.245603
133.9704	146.181	177.8289	253.6543	310.0134	351.8891	417.5885	536.108	560.7462	635.001	698.3579	740.1834	764.7447	826.5836	884.9075	906.9495	924.5621	1010.9493	1022.9456	1063.8191	1097.6652	1135.7495	1237.7323	1263.956	1345.9673	1407.4464	1449.6008	1477.1906	1492.2021	1798.2416	1922.436	3056.6007	3129.1505	3142.9327	3198.0311	3482.0013
CC12OC1C(=O)OC2=N	C[C@]12O[C@H]1C(=O)O[C]2[NH]	
InChI=1S/C5H5NO3/c1-5-2(9-5)3(7)8-4(5)6/h2,6H,1H3	InChI=1S/C5H5NO3/c1-5-2(9-5)3(7)8-4(5)6/h2,6H,1H3/t2-,5-/m0/s1
