13
gdb 12181	3.33317	1.63585	1.22735	3.3966	56.64	-0.2573	-0.0443	0.213	930.6262	0.093908	-435.750324	-435.742512	-435.741568	-435.783072	27.091	
O	 0.2178595432	 1.3779049577	 0.271142221	-0.40739
C	 0.0721014922	 0.018924898	 0.0385792139	-0.021548
C	-1.3813629436	-0.6327019863	-0.0337997248	-0.089951
N	-1.0189205845	-1.1165847633	-1.3572938818	-0.317937
C	 0.2398365615	-0.5614266198	-1.4022505437	 0.379209
O	 1.0985752565	-0.5321929028	-2.2382057911	-0.342044
C	-1.6749667561	-1.6886358001	 0.9978887435	 0.141387
O	-1.6008499037	-2.8723508215	 0.7864795764	-0.243723
H	-0.0871577381	 1.8656702148	-0.5021416291	 0.300644
H	 0.7092022877	-0.507040349	 0.7552896765	 0.137172
H	-2.1668321777	 0.1343383061	-0.0219908186	 0.105263
H	-1.4204931314	-1.8719383175	-1.8928739873	 0.268045
H	-1.960343066	-1.2863223064	 1.9952768651	 0.090873
73.3521	94.1359	188.4785	236.7502	272.0589	321.0432	344.43	432.9942	523.9232	681.469	711.091	777.3276	845.79	885.6064	931.8141	1044.9305	1095.6127	1136.5548	1150.1932	1202.9253	1240.004	1302.5983	1352.2924	1376.5774	1415.6335	1426.4597	1824.9541	1903.3569	2891.2825	3026.8343	3085.2308	3621.6068	3803.7309
OC1C(NC1=O)C=O	O[C@H]1[C@@H](NC1=O)C=O	
InChI=1S/C4H5NO3/c6-1-2-3(7)4(8)5-2/h1-3,7H,(H,5,8)	InChI=1S/C4H5NO3/c6-1-2-3(7)4(8)5-2/h1-3,7H,(H,5,8)/t2-,3-/m0/s1
