16
gdb 102015	2.01773	1.4702	0.91446	8.4062	75.08	-0.2123	-0.0852	0.1271	1234.3429	0.122104	-475.005966	-474.996597	-474.995652	-475.040588	32.406	
C	-0.0803575999	 0.7861788638	-0.4787918636	-0.343155
N	-0.4378560262	-0.1831511134	 0.6068525321	-0.292994
H	-1.2201457121	 0.196830938	 1.1436043566	 0.29177
H	-0.7360772094	-1.0770245557	 0.1552772948	 0.319763
C	 0.6745149206	-0.5358699314	 1.5266897705	-0.090278
C	 0.923456024	 0.4398789511	 2.5433872805	 0.106228
O	 1.7751442065	 0.4325396517	 3.4089316162	-0.293782
C	 1.3071200119	-1.7960326545	 1.3480429169	 0.22964
O	 2.2626394204	-2.2485421373	 1.9774822302	-0.349574
C	 0.740996955	-2.7668869826	 0.3049093789	 0.093846
O	-0.2572834115	-2.622049327	-0.3821030703	-0.311939
H	 0.7032574319	 0.330898087	-1.0835069199	 0.17841
H	-0.9627246969	 0.9939742128	-1.0897480676	 0.14912
H	 0.2946855747	 1.7008719747	-0.0210828578	 0.178802
H	 0.1828059292	 1.2940286696	 2.4911722339	-0.003595
H	 1.3456613717	-3.6922631868	 0.2557955984	 0.13774
73.3514	108.5378	147.2315	167.4959	192.0403	205.0781	258.9013	312.3839	381.4142	412.6117	458.7022	570.6899	604.2284	652.1906	748.983	867.7891	966.689	1004.2389	1025.1808	1061.7205	1127.4045	1150.5274	1193.466	1351.2103	1374.1624	1430.6152	1444.9055	1459.5761	1486.329	1495.4332	1515.6237	1610.3429	1679.6343	1748.9029	1781.5903	2668.3128	2975.2231	3039.2867	3064.5704	3159.7212	3184.5138	3436.7764
C[NH2+][C-](C=O)C(=O)C=O	C[NH2][C](C=O)C(=O)C=O	
InChI=1S/C5H7NO3/c1-6-4(2-7)5(9)3-8/h2-3H,6H2,1H3	InChI=1S/C5H7NO3/c1-6-4(2-7)5(9)3-8/h2-3H,6H2,1H3
