20
gdb 89304	1.98819	1.84616	1.13677	1.522	75.5	-0.2223	0.0643	0.2866	1125.3158	0.170167	-440.239067	-440.230301	-440.229357	-440.272222	34.193	
C	 0.0271104776	 1.5121922609	 0.1676068534	-0.329444
N	 0.1759720639	 0.0698120937	 0.1605001378	-0.092461
C	-1.0642842253	-0.7456251256	 0.2490551614	-0.213443
C	-0.4171486986	-1.6397866599	 1.3204533941	 0.406321
O	-1.2924188934	-1.9624594027	 2.3549677411	-0.474857
C	 0.5745706966	-2.710561959	 0.7948459844	-0.354567
C	 1.759135937	-1.6803977161	 0.8908996394	 0.165113
O	 2.4577483575	-1.3739014694	-0.2774683147	-0.435172
C	 0.7550435935	-0.5849801241	 1.3602165435	-0.127436
H	 1.0133383891	 1.9844128357	 0.2125145104	 0.128318
H	-0.4598764076	 1.8361186609	-0.7583079119	 0.124316
H	-0.5740328856	 1.8823469042	 1.0170823747	 0.101218
H	-1.9065511957	-0.1896133605	 0.6838681998	 0.105147
H	-1.3800532437	-1.2088978848	-0.6922242144	 0.103471
H	-0.8596741641	-2.5929124363	 2.9397827805	 0.280362
H	 0.6827901554	-3.5631247192	 1.4745239523	 0.090737
H	 0.3776817221	-3.0928507073	-0.2102671008	 0.107219
H	 2.4864527838	-1.9601398228	 1.6585845235	 0.081214
H	 1.8464688265	-0.7922809371	-0.7631822417	 0.272301
H	 0.9974692011	 0.0729972996	 2.1984389271	 0.061643
71.7767	153.6865	217.1685	252.4073	285.9003	292.356	338.2628	377.1279	398.6934	434.3034	549.4271	604.5537	623.3327	681.2544	751.8669	818.0468	908.8524	917.1333	940.1593	967.042	995.1281	1013.3461	1076.5396	1096.2936	1114.5562	1139.6098	1155.3882	1162.5908	1183.416	1224.201	1230.6941	1263.0055	1282.1521	1306.7774	1327.4184	1348.9766	1400.9586	1446.943	1459.7472	1467.1908	1487.9958	1502.0076	1510.586	2949.0821	3005.944	3038.9692	3061.536	3062.8871	3066.9213	3081.9333	3103.9559	3104.3577	3626.4857	3813.9175
CN1CC2(O)CC(O)C12	CN1C[C@@]2(O)C[C@@H](O)[C@@H]12	
InChI=1S/C6H11NO2/c1-7-3-6(9)2-4(8)5(6)7/h4-5,8-9H,2-3H2,1H3	InChI=1S/C6H11NO2/c1-7-3-6(9)2-4(8)5(6)7/h4-5,8-9H,2-3H2,1H3/t4-,5-,6+/m1/s1
