20
gdb 124544	2.49584	1.28449	1.04663	0.4995	80.72	-0.246	0.0043	0.2504	1256.4096	0.171391	-399.3563	-399.346664	-399.34572	-399.392091	34.543	
C	-0.0277869283	 1.5797299992	 0.0212543844	-0.379329
C	-0.0049989147	 0.0407758252	 0.0432313299	-0.084031
C	 0.7725810653	-0.4849809865	 1.2634155068	-0.379239
C	-1.397919721	-0.5262459835	-0.0006662461	 0.26606
N	-2.2933222567	-0.2804667027	 0.9605120182	-0.27459
N	-3.3665618725	-0.9462828664	 0.559451222	-0.083958
N	-3.2597447244	-1.61008323	-0.5834807206	-0.262408
C	-2.0047844709	-1.3602931062	-0.9690758028	 0.221904
C	-1.4460373659	-1.9249156384	-2.2353828381	-0.506229
H	 0.9908457456	 1.9811707525	 0.022595456	 0.107614
H	-0.5428350701	 1.9572661882	-0.8673659425	 0.112911
H	-0.551105728	 1.9657629034	 0.9010833957	 0.133057
H	 0.5094914312	-0.3045998969	-0.8621164563	 0.07678
H	 0.2802017226	-0.1768523366	 2.1906263842	 0.132779
H	 0.8267600489	-1.5779318772	 1.2599666759	 0.112887
H	 1.7944956218	-0.0919797064	 1.2690062098	 0.107766
H	-4.2195462115	-0.9475094107	 1.0939459075	 0.288288
H	-1.1246858571	-1.1345186771	-2.9223050328	 0.132721
H	-0.5760334898	-2.562292793	-2.043773116	 0.132744
H	-2.2054791344	-2.5264847169	-2.7386666054	 0.144273
17.5389	78.4344	149.9334	167.9364	230.8334	252.6095	268.3584	282.4676	370.6403	433.0901	492.6787	504.0797	626.2905	720.7733	721.856	775.219	891.1423	931.7318	965.6411	983.5736	1024.2581	1069.1692	1094.119	1126.4067	1139.515	1194.7038	1203.2919	1253.8368	1339.0569	1341.1808	1388.5458	1395.9349	1413.3481	1416.8978	1452.9235	1484.5431	1485.3733	1486.4068	1490.7894	1499.4754	1505.3924	1531.9134	1560.673	3027.7338	3033.1927	3036.7349	3037.2434	3087.5173	3103.0356	3106.4762	3112.7791	3117.6189	3134.1577	3672.7714
CC(C)C1=NNN=C1C	CC(C)c1n[nH]nc1C	
InChI=1S/C6H11N3/c1-4(2)6-5(3)7-9-8-6/h4H,1-3H3,(H,7,8,9)	InChI=1S/C6H11N3/c1-4(2)6-5(3)7-9-8-6/h4H,1-3H3,(H,7,8,9)
