19
gdb 94213	3.26169	1.08804	0.98436	2.7502	75.49	-0.2431	0.0214	0.2645	1243.6768	0.158505	-419.198666	-419.189248	-419.188304	-419.23297	34.889	
C	-0.3458789487	 1.6668246374	 0.269541847	-0.438746
C	-0.0044411635	 0.1898950174	 0.1484639551	 0.264542
C	-1.2494674446	-0.6424348964	-0.2671867895	-0.390372
C	-1.6796885045	-0.3485437794	-1.6319316424	 0.265518
N	-1.979210985	-0.1057215096	-2.7218793126	-0.313011
N	 1.2041635909	-0.1002218484	-0.6592734825	-0.344335
C	 1.6614724542	-1.1319382055	 0.2955953431	-0.2158
C	 0.7178042629	-0.5099936667	 1.3592987827	 0.110085
O	 1.3260851947	 0.3400077705	 2.2942230385	-0.429523
H	 0.5294462607	 2.240129367	 0.5799839809	 0.114521
H	-0.6820795027	 2.062774774	-0.694317491	 0.14022
H	-1.1408428438	 1.8289158889	 1.0048041877	 0.120924
H	-1.0286880972	-1.7140186147	-0.2027101674	 0.147609
H	-2.0800120369	-0.4462555605	 0.4205814848	 0.154005
H	 1.0557268794	-0.3803189083	-1.6234760229	 0.228802
H	 1.4013088353	-2.1682431378	 0.0382131878	 0.098115
H	 2.7304719124	-1.0930250784	 0.532823824	 0.105877
H	 0.1004422105	-1.2010070413	 1.937566663	 0.089102
H	 1.9596009158	 0.8957221217	 1.8263064335	 0.292465
61.8868	101.9743	137.1777	185.8848	232.2356	299.7533	333.9954	372.1015	376.5315	400.4778	440.8356	457.9182	590.0341	666.7652	737.8137	844.9604	854.1986	907.9412	934.0289	959.6651	961.5237	996.7573	1049.2479	1113.1334	1147.7134	1161.7463	1163.207	1184.2403	1233.9235	1285.3438	1299.6653	1320.3902	1331.592	1377.1094	1417.2109	1442.4453	1459.4341	1484.3624	1493.1363	1519.9074	2355.5048	3000.0794	3039.3552	3042.6157	3059.6621	3080.355	3091.0014	3108.9488	3132.1794	3524.1013	3803.5194
CC1(CC#N)NCC1O	C[C@@]1(CC#N)NC[C@H]1O	
InChI=1S/C6H10N2O/c1-6(2-3-7)5(9)4-8-6/h5,8-9H,2,4H2,1H3	InChI=1S/C6H10N2O/c1-6(2-3-7)5(9)4-8-6/h5,8-9H,2,4H2,1H3/t5-,6+/m1/s1
