21
gdb 59115	2.31249	1.36091	1.0967	2.9703	74.39	-0.2498	0.0529	0.3027	1207.1168	0.181993	-461.347273	-461.33789	-461.336945	-461.381189	36.415	
C	-0.2389177199	 1.7416190642	 0.4212291091	-0.409435
C	-0.0456705066	 0.2658493528	 0.0908546931	 0.107403
O	 0.7399603124	-0.3992179756	 1.1013377128	-0.440007
C	-1.3608746119	-0.4742233906	-0.1547222354	-0.071061
C	-1.8843126174	-0.6429443393	-1.6296624681	 0.123785
O	-0.8640233448	-0.6393360144	-2.6034622643	-0.435557
C	-2.3570375594	-2.0686471217	-1.2323293074	-0.25934
C	-1.3517578585	-2.0319032843	-0.0616236739	 0.086023
O	-0.1131060767	-2.5730901431	-0.5035507332	-0.445801
H	 0.7262962042	 2.2345152037	 0.5656203922	 0.125553
H	-0.7702156979	 2.2491312487	-0.3903969656	 0.13127
H	-0.8317114206	 1.8659378506	 1.3364475825	 0.104617
H	 0.5660532687	 0.1843315276	-0.8112370245	 0.102584
H	 0.268914678	-0.3249907001	 1.9390562884	 0.281825
H	-2.1631778326	-0.0736107417	 0.4774849968	 0.063951
H	-2.6405568932	 0.0682013129	-1.9700661132	 0.079383
H	-0.2601440544	-1.3573282139	-2.3655444007	 0.288068
H	-3.3924242039	-2.0820902353	-0.8819855823	 0.102201
H	-2.208463223	-2.8566674076	-1.9741274181	 0.1108
H	-1.6603373129	-2.4829969295	 0.8903216627	 0.058431
H	 0.5536676804	-2.2043423034	 0.0959765991	 0.295306
62.9286	142.4664	166.8205	211.1503	249.6572	303.0391	322.9215	366.9479	374.4406	436.5795	451.4765	523.0984	576.8993	590.0545	690.0553	770.8615	842.7242	874.5975	886.1741	905.3801	914.0023	981.6228	1003.0602	1019.9756	1058.7218	1087.3061	1125.3281	1148.6244	1176.5548	1195.1194	1210.741	1253.4128	1258.3291	1276.7776	1315.8431	1330.7967	1350.6543	1394.5642	1402.9819	1420.4177	1430.1729	1455.5168	1468.2085	1489.9335	1494.2805	3007.5386	3022.374	3031.1091	3063.9766	3079.1875	3083.6672	3099.661	3118.7098	3125.4192	3708.3059	3738.0314	3796.4284
CC(O)C1C(O)CC1O	C[C@@H](O)[C@H]1[C@@H](O)C[C@H]1O	
InChI=1S/C6H12O3/c1-3(7)6-4(8)2-5(6)9/h3-9H,2H2,1H3	InChI=1S/C6H12O3/c1-3(7)6-4(8)2-5(6)9/h3-9H,2H2,1H3/t3-,4-,5+,6-/m1/s1
