19
gdb 32231	2.45576	1.54524	0.96124	3.6381	87.82	-0.2008	-0.0069	0.194	1227.9963	0.161256	-382.131619	-382.123012	-382.122068	-382.164598	32.643	
C	-0.0535071394	 1.4437529107	 0.0320574912	-0.325345
N	 0.1340660258	 0.0063442131	 0.05468145	-0.374671
C	 0.6482664035	-0.6763192988	-1.0390298709	 0.235475
C	 1.251088578	-0.0123012304	-2.1197096663	-0.071387
N	 1.7991100494	-0.6278466755	-3.1684588732	-0.273913
C	 1.7617983219	-1.9592978543	-3.1926834199	-0.020179
C	 1.1824864569	-2.7145640955	-2.1757938337	-0.185193
C	 0.6140089718	-2.0878558344	-1.0745179335	 0.240737
C	-0.0071640135	-2.8702822181	 0.0510805479	-0.520004
H	 0.9119605902	 1.9572170308	-0.028738373	 0.139937
H	-0.6745715345	 1.791859401	-0.8078320129	 0.120852
H	-0.5314605538	 1.7488019182	 0.9655632221	 0.124666
H	-0.5743906193	-0.495428567	 0.5650866219	 0.237284
H	 1.2947009903	 1.0725983253	-2.1331042671	 0.094455
H	 2.2101538034	-2.4445481176	-4.0556722951	 0.096792
H	 1.1776494105	-3.7986196511	-2.2400580209	 0.08639
H	 0.4515569438	-2.6163119643	 1.0146101649	 0.137404
H	-1.0833846442	-2.6679147011	 0.1455572029	 0.12631
H	 0.1079729991	-3.9448593409	-0.1073048545	 0.130391
104.892	159.7966	192.341	211.4217	235.258	294.607	306.5943	415.5561	459.6217	498.2879	527.6916	590.4183	631.7513	763.6406	779.9645	845.4554	848.4491	922.9048	960.4524	1002.2322	1059.8363	1070.6748	1110.1732	1142.8582	1156.7911	1209.8852	1238.6353	1295.5059	1320.2908	1353.4963	1409.6284	1448.029	1469.5597	1475.2699	1482.6897	1485.9786	1503.3579	1525.2531	1548.579	1607.9281	1634.2342	2984.0994	3007.3043	3058.675	3065.8125	3119.3818	3120.9206	3154.7061	3167.3984	3177.4381	3627.2597
CNC1=CN=CC=C1C	CNc1cnccc1C	
InChI=1S/C7H10N2/c1-6-3-4-9-5-7(6)8-2/h3-5,8H,1-2H3	InChI=1S/C7H10N2/c1-6-3-4-9-5-7(6)8-2/h3-5,8H,1-2H3
