23
gdb 58695	2.02908	1.38991	1.19562	0.5846	91.06	-0.2529	0.0542	0.3071	1243.8844	0.20379	-351.122046	-351.111879	-351.110935	-351.156475	39.001	
C	 0.100218375	 1.500046742	 0.1704315273	-0.400517
C	-0.0662525522	-0.0119880193	-0.0255579619	-0.02779
C	-1.5460533081	-0.413093776	-0.066410556	-0.400521
C	 0.6997920229	-0.5170574311	-1.2701305342	 0.135027
C	 2.2700877087	-0.4374286491	-1.2049601971	-0.256159
C	 2.3480894476	-1.871629659	-1.7849314554	-0.216876
C	 0.8596959172	-2.0764997278	-1.4079562255	-0.256171
C	 0.1906941904	 0.0735754537	-2.5019005274	 0.344626
C	-0.2226599097	 0.5559023714	-3.5243851511	-0.500137
H	 1.1558366839	 1.7829791074	 0.2374118368	 0.112711
H	-0.3423915939	 2.0517441644	-0.6650533878	 0.128098
H	-0.3928860436	 1.826945991	 1.0915201105	 0.108355
H	 0.3994931163	-0.518832823	 0.8313656347	 0.065465
H	-2.0546695519	 0.061651824	-0.9115349384	 0.1281
H	-1.6662732833	-1.496615373	-0.1683499911	 0.112709
H	-2.0554856632	-0.104899078	 0.8522372353	 0.108357
H	 2.7476357585	 0.3678287687	-1.7652037159	 0.107111
H	 2.6040643978	-0.3952707124	-0.1637489741	 0.099121
H	 2.4926871334	-1.8619356038	-2.8678531793	 0.114148
H	 3.0765886357	-2.553445318	-1.3412393132	 0.096999
H	 0.7442753391	-2.556620962	-0.4314321292	 0.099121
H	 0.2131748265	-2.5775526078	-2.1299819224	 0.107112
H	-0.5871792969	 0.9814740379	-4.4263155146	 0.191108
92.0779	113.8607	151.4899	184.4583	196.5207	225.8129	249.7586	306.7231	321.6129	407.0914	448.943	498.9516	558.6093	608.8855	628.6328	632.0105	684.1969	796.1411	858.7857	875.7139	911.7349	933.0052	948.1924	959.9574	970.1612	1007.0343	1066.5117	1080.3243	1102.8719	1148.098	1203.9243	1211.8555	1214.6741	1257.593	1279.0593	1281.162	1293.7444	1353.8578	1364.1877	1400.7193	1420.8273	1472.826	1482.756	1487.7886	1492.4898	1501.578	1503.6977	1512.6105	2221.2633	3001.6522	3031.8363	3035.7258	3053.1187	3057.1926	3068.0705	3099.2467	3101.7885	3105.6226	3110.1677	3110.4515	3121.8941	3130.6183	3501.2789
CC(C)C1(CCC1)C#C	CC(C)C1(CCC1)C#C	
InChI=1S/C9H14/c1-4-9(8(2)3)6-5-7-9/h1,8H,5-7H2,2-3H3	InChI=1S/C9H14/c1-4-9(8(2)3)6-5-7-9/h1,8H,5-7H2,2-3H3
