16
gdb 79372	3.34562	1.37194	1.11101	4.7892	73.85	-0.2584	-0.0103	0.2481	1089.5567	0.123646	-400.664991	-400.657487	-400.656543	-400.696964	28.891	
C	-0.1129145895	 1.6372288382	-0.0014174585	-0.419416
C	-0.0456423816	 0.1178858568	-0.0010397299	-0.026434
C	 1.1435346628	-0.5764909933	-0.7073849459	-0.141815
C	 2.0936810344	-0.3773980665	 0.5188346799	 0.049948
O	 2.4874068214	-1.7831058496	 0.6005420083	-0.349922
C	 1.0759098374	-1.8145194307	 0.2537285581	 0.413535
C	 0.3955146014	-3.0685795513	 0.0733817298	 0.169604
N	-0.1807470056	-4.0591454628	-0.0786025008	-0.343135
C	 0.6847717509	-0.5963567543	 1.1615365833	-0.14182
H	 0.8549535802	 2.0886736563	 0.2411565928	 0.117755
H	-0.4201550055	 2.0143199855	-0.9823873426	 0.127786
H	-0.8415461376	 1.9960938677	 0.7328891625	 0.127786
H	-1.0193635876	-0.320105697	-0.2447135683	 0.093987
H	 1.4275445463	-0.6073948234	-1.7588220751	 0.103212
H	 2.850369079	 0.3779956641	 0.7126073542	 0.115717
H	 0.4498564135	-0.6497352198	 2.2241286223	 0.103213
114.6592	160.6107	206.8853	234.8861	283.9003	436.2708	492.3876	540.3077	579.6185	614.017	740.7407	753.1659	805.6134	838.0617	852.3894	902.1763	920.4308	996.5947	1032.3213	1049.5554	1069.743	1085.076	1122.7352	1136.3853	1166.4962	1168.44	1243.7599	1245.0161	1263.8196	1338.4203	1398.9785	1417.0412	1491.8772	1498.9798	2355.5541	3033.0955	3053.2146	3101.4474	3102.6645	3130.7896	3131.1725	3164.8124
CC1C2C3OC2(C#N)C13	C[C@H]1[C@H]2[C@@H]3O[C@@]2(C#N)[C@H]13	
InChI=1S/C7H7NO/c1-3-4-6-5(3)7(4,2-8)9-6/h3-6H,1H3	InChI=1S/C7H7NO/c1-3-4-6-5(3)7(4,2-8)9-6/h3-6H,1H3/t3-,4-,5+,6-,7+
