21
gdb 38976	2.87283	1.69001	1.23973	1.3359	82.59	-0.2378	0.0949	0.3327	1063.428	0.185388	-387.073656	-387.066321	-387.065377	-387.105082	30.492	
C	 0.0427234668	 1.4734407659	 0.1111649149	-0.351227
C	 1.3624231475	 0.7628244008	-0.0398366048	-0.10246
C	 1.7294437679	 0.0999087192	 1.293736511	-0.252099
C	 0.4090024661	-0.7203623465	 1.2242205786	 0.069335
O	 0.7193628226	-2.0886975552	 1.033358032	-0.263787
C	-0.2423397729	-2.7748717244	 0.2456082328	-0.068392
C	-0.2770046776	-2.2308062476	-1.1847089393	-0.201819
C	-0.6942607254	-0.7495660223	-1.1773770256	-0.326791
C	 0.0399962962	-0.0128365725	-0.090813254	 0.367095
H	-0.238549544	 1.9112454227	 1.0679297197	 0.101266
H	-0.2822471932	 2.0510067449	-0.7498181145	 0.108125
H	 2.0502778551	 1.001376967	-0.8429365455	 0.081899
H	 2.5808908045	-0.5795447209	 1.2362673042	 0.116087
H	 1.854054515	 0.7736778989	 2.1475693281	 0.091699
H	-0.3068471672	-0.6090994044	 2.0548746295	 0.053281
H	 0.0553533646	-3.8273920585	 0.2607648213	 0.104589
H	-1.2437859127	-2.7031475152	 0.7053914208	 0.081801
H	 0.7244999678	-2.3402297271	-1.6167228947	 0.105464
H	-0.9672557731	-2.8246590594	-1.794331642	 0.091108
H	-0.5245285948	-0.2823648122	-2.1545981046	 0.096402
H	-1.775748153	-0.6864032731	-0.9862298579	 0.098425
144.8292	156.2704	299.8973	340.2136	381.946	407.6428	456.9693	460.8734	570.3201	616.7284	751.9474	801.1602	852.4568	869.2026	883.55	905.099	919.0707	950.6025	954.6113	1009.473	1019.399	1034.0824	1035.2443	1082.2475	1094.7728	1110.5595	1135.3134	1186.1853	1203.5214	1222.9658	1246.3814	1259.9435	1276.0232	1302.7263	1316.9728	1344.7533	1355.0709	1371.5271	1408.9088	1413.7958	1472.4742	1473.9865	1484.4489	1499.6726	1501.0205	2952.8573	2964.1278	2998.1219	3032.8357	3050.2357	3053.2084	3079.7996	3083.6171	3091.6699	3127.9083	3171.785	3184.8937
C1C2CC3OCCCC123	C1[C@H]2C[C@@H]3OCCC[C@]123	
InChI=1S/C8H12O/c1-2-8-5-6(8)4-7(8)9-3-1/h6-7H,1-5H2	InChI=1S/C8H12O/c1-2-8-5-6(8)4-7(8)9-3-1/h6-7H,1-5H2/t6-,7+,8+/m1/s1
