15
gdb 14930	4.7456	1.54047	1.23489	5.6296	61.79	-0.288	0.0139	0.3019	942.9625	0.120373	-399.803871	-399.796991	-399.796046	-399.835015	25.678	
N	-0.0481855324	-1.1167419583	-0.1151437656	-0.308523
C	-0.0123314832	 0.0321888435	-0.0217570264	 0.292736
C	 0.0039173425	 1.5055096707	 0.0475318223	 0.083351
O	-0.6750576784	 1.8910609534	 1.2099314866	-0.24286
C	-0.7179015769	 3.3152127661	 1.3226897714	-0.082208
C	 0.6985970995	 3.8920178506	 1.2941653519	-0.210139
C	 1.4238828207	 3.3509369801	 0.0608044492	-0.082207
O	 1.3397784912	 1.9246681229	 0.0228328375	-0.24286
H	-0.5255221741	 1.9082120831	-0.8396716301	 0.098943
H	-1.319412313	 3.7311308878	 0.4973856227	 0.100224
H	-1.2332592491	 3.5268360734	 2.2614954494	 0.127977
H	 0.666375185	 4.9865286658	 1.2704570812	 0.109668
H	 1.2353491583	 3.5829042286	 2.1964407459	 0.127697
H	 0.983164989	 3.7695419016	-0.859232369	 0.100224
H	 2.4892655209	 3.5889235506	 0.0682812828	 0.127977
120.0325	165.1168	256.038	289.8566	384.4739	444.3454	458.5672	554.7025	572.6552	649.5376	863.811	899.4649	916.7597	944.657	968.3377	1040.8094	1058.5171	1063.6875	1149.8313	1173.0195	1239.1226	1261.0156	1304.2643	1367.7047	1372.7438	1405.983	1406.5536	1415.9905	1469.3483	1495.6771	1504.8231	2385.7346	2904.8994	2972.5416	2978.8653	3050.824	3100.3696	3111.9078	3114.8802
N#CC1OCCCO1	N#CC1OCCCO1	
InChI=1S/C5H7NO2/c6-4-5-7-2-1-3-8-5/h5H,1-3H2	InChI=1S/C5H7NO2/c6-4-5-7-2-1-3-8-5/h5H,1-3H2
