13
gdb 14568	19.79787	0.61219	0.59821	3.2293	81.07	-0.2582	-0.0295	0.2287	1702.2589	0.093792	-324.289967	-324.281529	-324.280585	-324.323466	29.09	
C	 0.0447600706	-3.7772230715	-0.0187428639	-0.541744
C	 0.0252528476	-2.5701561587	-0.011951873	 0.288628
C	 0.0041506672	-1.2096072648	-0.0042438437	-0.195263
C	-0.0187888376	-0.0000168253	 0.0025890013	 0.340819
C	-0.0198068936	 1.4528452244	 0.010384325	-0.387702
C	 1.4214550493	 2.0300916527	-0.0009088902	-0.326917
C	 1.4211479933	 3.4906552656	 0.0071108891	 0.257828
N	 1.3987733817	 4.6457809366	 0.0133963153	-0.296436
H	 0.0605539699	-4.838987992	-0.0248043999	 0.197073
H	-0.5665589862	 1.8342571257	-0.8599741766	 0.162337
H	-0.5490058531	 1.8248468404	 0.8955363379	 0.162331
H	 1.9736440827	 1.6668811731	 0.8713945501	 0.169518
H	 1.9560402382	 1.6763906238	-0.8879758814	 0.169526
54.7852	66.817	159.8106	172.1686	233.4859	346.7239	402.1896	441.5363	510.3494	543.2126	544.4013	599.3679	607.935	745.2359	767.5526	951.9885	1003.3585	1031.8669	1182.3751	1199.5095	1288.1637	1307.3325	1371.071	1466.4636	1475.955	2185.1023	2364.7986	2368.3791	3036.0973	3062.7872	3069.0671	3106.0973	3503.7511
C#CC#CCCC#N	C#CC#CCCC#N	
InChI=1S/C7H5N/c1-2-3-4-5-6-7-8/h1H,5-6H2	InChI=1S/C7H5N/c1-2-3-4-5-6-7-8/h1H,5-6H2
