19
gdb 90037	2.68831	1.51981	1.17482	2.7833	71.2	-0.2438	0.0462	0.29	1081.3369	0.158676	-460.124281	-460.115858	-460.114914	-460.157057	32.957	
O	-0.8312331277	 1.0862680361	 1.0332446522	-0.451473
C	-0.1502903796	 0.167308589	 0.2050964986	 0.143792
C	 0.5925115683	-0.9502965076	 0.9883684585	-0.330341
C	-0.6751738166	-1.8201433448	 0.7985410301	 0.434953
C	-1.0627052055	-0.9454511638	-0.4045489982	-0.324165
O	-0.5597277872	-3.2503542205	 0.7090594968	-0.321418
C	-1.1519160088	-3.4255009688	 2.0153470314	-0.122206
C	-1.6340256274	-1.960403419	 1.9958260821	-0.010656
O	-1.351818314	-1.0962656678	 3.0761531822	-0.421609
H	-1.067038418	 0.6350607688	 1.8558401774	 0.288199
H	 0.4339381523	 0.7561881652	-0.5044676085	 0.080982
H	 1.4185136981	-1.3764575719	 0.4124068156	 0.112057
H	 0.925004719	-0.7160873445	 2.0014502804	 0.114056
H	-2.119303451	-0.70526597	-0.5492822878	 0.097444
H	-0.6424983819	-1.3490431614	-1.3306411592	 0.111014
H	-1.9091289406	-4.2162450873	 2.0232829998	 0.104787
H	-0.3996708883	-3.6190387546	 2.7913668168	 0.105755
H	-2.6821713977	-1.8753110949	 1.6848058547	 0.090346
H	-2.0794630735	-1.1273379022	 3.7049141574	 0.298483
96.3553	125.1558	206.9449	248.1619	316.095	349.9103	383.105	420.6981	443.3827	480.9871	514.6173	541.4252	738.4847	805.2974	820.4241	849.6757	908.6119	938.2581	951.1578	986.088	1002.9153	1028.2089	1059.9615	1097.8495	1130.5415	1143.1148	1167.1757	1180.5304	1197.5997	1227.2938	1242.1694	1266.8338	1286.1195	1325.2924	1333.1525	1346.412	1437.5344	1450.5753	1462.7586	1481.8685	1515.0878	3015.3262	3029.9599	3054.0633	3066.2783	3079.3428	3092.6999	3115.8543	3130.2917	3731.6139	3827.5118
OC1CC2(C1)OCC2O	O[C@H]1C[C@@]2(C1)OC[C@H]2O	
InChI=1S/C6H10O3/c7-4-1-6(2-4)5(8)3-9-6/h4-5,7-8H,1-3H2	InChI=1S/C6H10O3/c7-4-1-6(2-4)5(8)3-9-6/h4-5,7-8H,1-3H2/t4-,5-,6-/m1/s1
