19
gdb 95325	2.6475	1.74316	1.51558	1.5086	69.07	-0.2366	0.0694	0.306	950.8169	0.162285	-460.16343	-460.156176	-460.155232	-460.19477	29.613	
O	 0.0733975988	 1.4270024719	-0.2027290595	-0.441902
C	 0.0482675668	 0.0179244779	-0.013987611	 0.116719
C	 0.7905746481	-0.4274317044	 1.2530236774	-0.12524
O	 0.0136575029	-0.2334407317	 2.4372696644	-0.287355
C	-1.3171544785	-0.7492944075	 2.3415754938	 0.097022
C	-1.3765820638	-2.1476157536	 1.711683639	-0.106166
O	-1.3768350462	-1.9310734404	 0.2920376516	-0.280839
C	-1.40407618	-0.5134247198	 0.0535164802	 0.074762
C	-2.0962340632	 0.0562064874	 1.2934771574	-0.245764
H	-0.0477960236	 1.8398639755	 0.6590609201	 0.28783
H	 0.5501319195	-0.4127180137	-0.8866949779	 0.092599
H	 1.0884354847	-1.4792267727	 1.1531454031	 0.108681
H	 1.6973389642	 0.1696965603	 1.3834218948	 0.114491
H	-1.7271852075	-0.7158945304	 3.3524497665	 0.086216
H	-0.5232763999	-2.7718512273	 1.9979475507	 0.113268
H	-2.2978813513	-2.667178545	 2.0052838406	 0.103009
H	-1.9286300712	-0.3367802863	-0.8873598675	 0.084797
H	-3.1613630859	-0.1934861628	 1.2981740611	 0.106862
H	-1.9852048238	 1.1338594127	 1.4185120853	 0.101009
135.2001	222.21	264.5924	319.6585	389.3573	402.1762	456.4788	463.4855	494.4533	655.4544	765.7435	807.3212	818.2491	864.148	891.1142	925.168	929.3683	937.3584	968.8521	1024.232	1053.5851	1081.0519	1096.7261	1105.8101	1125.7058	1168.642	1219.8372	1230.8729	1260.7533	1283.4456	1304.9524	1309.4202	1337.9171	1357.4225	1364.3148	1382.3627	1401.8373	1425.1399	1488.3676	1502.1865	1524.3342	3018.5341	3021.8133	3062.9674	3065.5119	3069.1822	3094.8218	3097.6653	3105.5389	3131.2435	3808.2872
OC1COC2COC1C2	O[C@H]1CO[C@@H]2CO[C@H]1C2	
InChI=1S/C6H10O3/c7-5-3-8-4-1-6(5)9-2-4/h4-7H,1-3H2	InChI=1S/C6H10O3/c7-5-3-8-4-1-6(5)9-2-4/h4-7H,1-3H2/t4-,5-,6-/m0/s1
