21
gdb 92224	2.76703	1.64996	1.31273	1.4287	80.34	-0.2275	0.0759	0.3034	1051.9002	0.184382	-387.067296	-387.059627	-387.058683	-387.099074	31.44	
C	-0.1443816235	 1.5819242976	-0.1055956009	-0.411823
C	 0.0078922234	 0.0708261977	-0.0019311411	 0.035249
C	 0.9676557928	-0.6879666976	-0.9707560941	-0.285943
C	 1.445387585	-1.563124631	 0.225130652	 0.125952
O	 2.8340482071	-1.6255754562	 0.5192755065	-0.267088
C	 3.1582966315	-0.6571654066	 1.4836064126	 0.103301
C	 3.0312167212	 0.7896904905	 1.1051151209	-0.326117
C	 1.9236773781	 0.1051944014	 1.9002000356	-0.085273
C	 0.7511856133	-0.578897268	 1.2131734647	-0.074059
H	 0.8146207164	 2.0993320912	-0.0243328595	 0.122895
H	-0.5947355846	 1.8595799576	-1.0654073738	 0.11289
H	-0.7959137902	 1.9659112755	 0.6875963037	 0.112158
H	-0.9879560849	-0.3822084203	-0.0655058271	 0.072531
H	 0.4998848982	-1.2195100866	-1.8034559129	 0.094875
H	 1.7718463418	-0.0663200505	-1.3711001053	 0.107455
H	 1.0593287802	-2.5860766154	 0.1939317983	 0.079489
H	 3.9253075094	-0.9958310546	 2.1713708575	 0.096157
H	 3.6354146354	 1.5048933802	 1.6546130388	 0.111929
H	 2.8907529325	 1.0401995699	 0.0616801735	 0.118829
H	 1.7901205205	 0.4218191299	 2.9278437077	 0.089697
H	 0.0978569662	-1.0151827447	 1.973122973	 0.066895
132.4128	179.7618	200.2173	253.4961	340.7045	381.4049	440.3737	528.0689	595.5192	677.4693	723.1158	742.4474	792.4061	807.225	853.611	898.5806	911.4311	930.6893	938.126	971.4016	994.2335	1035.2034	1050.8863	1059.8661	1095.6646	1106.1018	1131.7563	1136.8428	1160.3082	1175.0402	1204.1992	1225.1768	1248.1532	1262.6629	1279.1532	1325.4247	1342.7648	1357.6603	1378.5223	1392.9634	1412.8073	1469.5472	1493.2569	1496.7936	1501.1074	3028.4056	3033.902	3057.7626	3064.2997	3073.6117	3087.7866	3118.4077	3121.9047	3136.9407	3167.7946	3178.0048	3230.7587
CC1CC2OC3CC3C12	C[C@H]1C[C@H]2O[C@H]3C[C@H]3[C@@H]12	
InChI=1S/C8H12O/c1-4-2-7-8(4)5-3-6(5)9-7/h4-8H,2-3H2,1H3	InChI=1S/C8H12O/c1-4-2-7-8(4)5-3-6(5)9-7/h4-8H,2-3H2,1H3/t4-,5+,6-,7+,8+/m0/s1
