20
gdb 83422	3.05893	1.28983	1.13686	2.4937	79.65	-0.2271	0.0637	0.2908	1170.1987	0.171431	-403.077952	-403.069466	-403.068522	-403.111179	32.381	
C	 0.044147298	 1.5958865126	 0.2600741427	-0.422172
C	 0.0598376195	 0.0952049071	 0.0734987976	-0.072969
C	 1.2604597997	-0.7141803118	-0.3983486684	-0.210649
C	 2.5264870546	-0.2102945029	 0.2789283217	-0.100057
O	 1.9023380521	-0.2732457043	 1.5930889492	-0.328845
C	 0.7228870384	-0.8642139708	 1.0190931201	 0.457728
C	 0.090907774	-1.9572286702	 1.7951309818	-0.108337
C	 0.9259803134	-2.8703346936	 2.6142110707	-0.242043
N	 0.0735187149	-1.8596090424	 3.2674299832	-0.328743
H	 0.9104896108	 1.9283486887	 0.8367298015	 0.13443
H	 0.0458673658	 2.1180765107	-0.7026100652	 0.116101
H	-0.8524071021	 1.9047037071	 0.8074632102	 0.122391
H	-0.8610559212	-0.32091419	-0.3328455011	 0.091619
H	 1.2241350926	-1.3958781433	-1.2377305868	 0.099737
H	 3.3622746994	-0.915781582	 0.2219626118	 0.113001
H	 2.8782349095	 0.7995863904	 0.039175871	 0.107933
H	-0.8359559252	-2.3308398272	 1.3655899719	 0.090173
H	 0.6124963239	-3.8996053991	 2.7639919139	 0.114019
H	 1.9988896984	-2.7050340651	 2.6062526828	 0.120032
H	 0.6600431535	-1.073921004	 3.5440727614	 0.246651
72.0279	142.1366	168.1197	187.9048	255.1773	271.3224	361.0596	388.8654	505.7176	582.1822	682.4075	749.0355	798.701	835.9266	859.5345	912.7129	936.4102	963.8984	970.0926	978.0762	987.4266	998.1366	1049.3357	1089.8254	1099.7944	1118.4137	1134.7777	1147.9882	1165.1798	1173.4266	1213.778	1264.1251	1273.7108	1302.9364	1312.2907	1343.1067	1395.5779	1414.1879	1482.5337	1493.1757	1501.1147	1514.2897	1522.6141	3030.1465	3037.4292	3078.3958	3096.1224	3114.5753	3116.7246	3129.8665	3134.5514	3198.633	3205.8966	3488.293
CC1C2COC12C1CN1	C[C@H]1[C@H]2CO[C@@]12[C@H]1CN1	
InChI=1S/C7H11NO/c1-4-5-3-9-7(4,5)6-2-8-6/h4-6,8H,2-3H2,1H3	InChI=1S/C7H11NO/c1-4-5-3-9-7(4,5)6-2-8-6/h4-6,8H,2-3H2,1H3/t4-,5+,6+,7-/m0/s1
