13
gdb 19582	3.65087	2.48934	2.08507	4.1059	56.64	-0.2483	-0.0038	0.2445	673.7487	0.096761	-398.533544	-398.527978	-398.527034	-398.563026	22.424	
O	 0.0057563564	-0.0362273792	 0.1101496178	-0.313527
C	-0.0140640149	 1.1340181574	-0.0771442573	 0.462988
C	-1.0398561378	 2.3061830538	 0.0016144775	-0.054294
O	-0.0280187702	 2.9028420019	 0.884798813	-0.289297
C	 0.978089605	 2.3362095627	-0.0243243386	-0.054294
C	 0.6846891618	 3.0586440661	-1.3469821154	-0.049163
N	-0.0583338456	 2.1946460945	-2.2933262564	-0.325674
C	-0.8021630484	 3.0365211395	-1.3278693253	-0.049163
H	-2.0330057441	 2.2486543673	 0.4402517036	 0.10437
H	 1.9834550594	 2.3084181184	 0.3886237928	 0.10437
H	 1.2770131756	 3.8931442279	-1.6998669599	 0.111633
H	-0.0766270445	 2.6282932041	-3.2144039344	 0.240418
H	-1.4279217027	 3.8528973857	-1.6650960575	 0.111633
179.561	335.6838	379.6703	474.1163	558.6265	635.5752	695.4553	779.2319	806.0654	843.0064	859.6798	866.4762	901.7038	910.696	926.7374	988.1599	1041.0576	1057.6786	1101.1146	1118.4259	1173.5271	1183.22	1229.3258	1248.8979	1302.9631	1332.8594	1386.6375	1938.9011	3162.2254	3164.6242	3193.6721	3203.3442	3494.2623
O=C1C2OC1C1NC21	O=C1[C@H]2O[C@@H]1[C@H]1N[C@@H]21	
InChI=1S/C5H5NO2/c7-3-4-1-2(6-1)5(3)8-4/h1-2,4-6H	InChI=1S/C5H5NO2/c7-3-4-1-2(6-1)5(3)8-4/h1-2,4-6H/t1-,2+,4+,5-
