18
gdb 47366	2.82205	1.23123	0.90549	3.6534	79.05	-0.2401	0.0231	0.2631	1264.7161	0.148742	-401.964478	-401.956018	-401.955074	-401.997851	32.219	
O	-0.0029910669	-0.0908561181	 0.126048104	-0.372334
C	-0.0347391876	 1.1231818556	 0.0614491998	 0.393989
C	-1.3437026688	 1.9046621755	 0.0927123354	-0.296771
C	-1.1922965748	 3.3845394541	 0.4601263723	-0.235298
C	-0.057314392	 4.0115588717	-0.3506924428	-0.194287
C	 1.2713728771	 3.3102511204	-0.0175867404	-0.139556
N	 1.1134370524	 1.8563668979	-0.1012103337	-0.311041
C	 2.3576960633	 3.749368428	-0.8937022477	 0.310849
C	 3.255454615	 4.1126635602	-1.6045299563	-0.431752
H	-1.7809087381	 1.810436682	-0.9098821328	 0.132611
H	-2.0151725957	 1.3740354648	 0.7717471086	 0.130784
H	-2.1309442086	 3.9175822599	 0.2794009411	 0.105266
H	-0.9756626225	 3.4859902647	 1.5315314724	 0.107377
H	-0.2545058622	 3.9092973904	-1.4236888757	 0.118034
H	 0.0520413091	 5.0782022521	-0.1369112698	 0.115003
H	 1.5426595749	 3.5896113681	 1.014281471	 0.113225
H	 1.9576059202	 1.3011202528	-0.1070886386	 0.250179
H	 4.0482562052	 4.4328777897	-2.2348212368	 0.203723
77.3845	97.5992	147.3499	222.127	308.8017	403.0588	412.9191	453.929	507.2178	526.7367	565.411	630.1283	648.2642	663.1566	670.9718	778.1134	869.9746	894.6407	918.393	960.4943	1039.6112	1066.5042	1090.378	1143.2677	1163.7478	1213.4502	1273.5587	1314.7337	1333.6439	1353.9832	1361.487	1379.4395	1393.7051	1455.7148	1471.8212	1488.827	1498.6309	1789.7923	2241.1467	2954.2568	3025.3723	3036.8255	3048.7556	3079.2668	3101.7963	3108.025	3502.1338	3603.7285
O=C1CCCC(N1)C#C	O=C1CCC[C@@H](N1)C#C	
InChI=1S/C7H9NO/c1-2-6-4-3-5-7(9)8-6/h1,6H,3-5H2,(H,8,9)	InChI=1S/C7H9NO/c1-2-6-4-3-5-7(9)8-6/h1,6H,3-5H2,(H,8,9)/t6-/m0/s1
