18
gdb 36716	5.36833	0.72886	0.6873	1.6299	78.73	-0.251	0.0164	0.2674	1606.5645	0.147601	-401.930523	-401.921677	-401.920733	-401.9652	31.869	
C	 0.0152037888	-1.2170984797	-0.0722232675	-0.439159
C	-0.0124878848	-0.0157987344	-0.0358504532	 0.292306
C	-0.0116087977	 1.4407069157	 0.008882053	-0.35441
C	 1.4098476751	 2.0355557188	 0.005873745	-0.18728
C	 1.4026103436	 3.5659707283	 0.0572236154	 0.007568
C	 2.8215715055	 4.1988204924	 0.0295648582	-0.128742
O	 2.7955700267	 5.0854276965	-1.1166008914	-0.219782
C	 1.5685844367	 4.9244543812	-1.663026421	 0.125484
N	 0.7286828487	 4.1435827377	-1.1264255352	-0.271148
H	 0.0232977791	-2.2780964779	-0.1067925661	 0.191869
H	-0.5643582056	 1.8461346001	-0.8455418939	 0.157469
H	-0.5468852496	 1.779622992	 0.9060705845	 0.125674
H	 1.9708235853	 1.6479972548	 0.8645475442	 0.10886
H	 1.939021752	 1.7078537528	-0.8962792018	 0.114444
H	 0.8504444642	 3.8849164133	 0.9505922154	 0.08969
H	 3.0573839799	 4.7941534957	 0.914650836	 0.123038
H	 3.6159055412	 3.4622940969	-0.1288291723	 0.119825
H	 1.4004301709	 5.5109574659	-2.5597683693	 0.144296
53.3047	78.4574	105.56	130.5459	226.1613	337.3661	348.8129	380.3256	499.9774	597.0134	613.3566	635.9463	723.7491	773.2803	853.71	880.7205	946.0022	951.9719	964.1404	966.848	1017.1044	1067.7944	1069.4154	1121.6317	1138.5985	1192.9436	1228.9276	1273.9414	1300.5103	1316.3916	1330.0094	1356.9226	1383.0325	1391.5951	1473.5986	1489.1694	1518.916	1707.1107	2238.8384	3016.911	3020.2779	3034.7368	3051.9393	3067.2436	3086.4132	3105.6082	3214.6083	3507.8856
C#CCCC1COC=N1	C#CCC[C@H]1COC=N1	
InChI=1S/C7H9NO/c1-2-3-4-7-5-9-6-8-7/h1,6-7H,3-5H2	InChI=1S/C7H9NO/c1-2-3-4-7-5-9-6-8-7/h1,6-7H,3-5H2/t7-/m0/s1
