19
gdb 105919	3.2412	1.58945	1.36695	1.7172	77.07	-0.2395	0.0836	0.3231	1009.3166	0.159832	-385.810299	-385.802977	-385.802032	-385.842274	29.335	
C	 0.0090549525	 1.4806229996	 0.2380468427	-0.370758
C	-0.0926355764	-0.002556004	-0.1440775716	-0.327445
C	-1.4982850075	-0.5255321649	-0.0827414857	 0.383099
C	-2.2264277258	-0.9178348975	 1.2073661834	-0.143351
C	-2.037745122	-1.9289160842	 0.0954181197	-0.200102
C	-3.3890123253	-1.4256196517	-0.4960535567	-0.096608
C	-3.6720658752	-0.5557566939	 0.7730321531	 0.076082
O	-3.6109569795	 0.6781038319	 0.0209410003	-0.295302
C	-2.7526116428	-0.0544098416	-0.8838689757	 0.006431
H	 1.0408223751	 1.8366635975	 0.1595586888	 0.108609
H	-0.6111769148	 2.1005704441	-0.4172299685	 0.124819
H	-0.3335055329	 1.6459676114	 1.2641061761	 0.121906
H	 0.3081961737	-0.1490945039	-1.1561028838	 0.098904
H	 0.543072139	-0.6025521177	 0.5196379888	 0.099508
H	-1.758293531	-0.8643681843	 2.1812031065	 0.088404
H	-1.5422666281	-2.8890017721	 0.0875757427	 0.091089
H	-4.1328044387	-1.9673963249	-1.0744198717	 0.078834
H	-4.5144271864	-0.6246681741	 1.4595592049	 0.079861
H	-2.6608126838	 0.3857449003	-1.8764539032	 0.07602
76.5195	129.7466	190.1574	305.6856	360.3996	518.9986	562.998	643.5538	750.7823	772.3611	776.749	810.7228	835.4582	837.4323	858.6832	878.1236	887.8056	920.6247	932.8693	950.3249	986.7251	998.7744	1038.7157	1071.5854	1092.7318	1105.63	1146.245	1158.7205	1176.6441	1197.6555	1217.3796	1255.4278	1272.3709	1307.8643	1314.1217	1352.5236	1410.7301	1426.926	1481.2219	1496.4148	1503.8517	3012.6352	3037.5527	3044.2297	3106.8723	3110.5591	3124.4852	3132.5371	3153.9948	3202.4186	3220.4696
CCC12C3C1C1C3OC21	CC[C@]12[C@@H]3[C@H]1[C@H]1[C@@H]3O[C@@H]21	
InChI=1S/C8H10O/c1-2-8-4-3-6(5(4)8)9-7(3)8/h3-7H,2H2,1H3	InChI=1S/C8H10O/c1-2-8-4-3-6(5(4)8)9-7(3)8/h3-7H,2H2,1H3/t3-,4+,5+,6-,7+,8+/m0/s1
