19
gdb 57324	1.79871	1.63214	1.07089	4.5091	79.46	-0.3313	-0.0089	0.3225	1197.0545	0.15674	-382.105873	-382.095679	-382.094734	-382.14054	37.138	
C	-0.0190246067	 1.5368035029	 0.0118383314	-0.427279
C	-0.003219372	-0.0001771095	 0.0579595566	 0.230548
C	 0.7157310127	-0.4912848981	 1.3242506708	-0.424601
C	-1.4429931252	-0.5386101676	 0.0154022655	-0.42729
C	 0.7506744163	-0.5197168527	-1.2286970373	-0.295492
C	 2.1244144696	-0.0046523717	-1.3189373879	 0.308155
N	 3.1928409061	 0.4290030162	-1.3800781056	-0.317907
C	 0.7629016622	-1.9869529803	-1.3162203808	 0.308148
N	 0.7415573981	-3.1399562839	-1.3750227868	-0.317902
H	 0.991807847	 1.9537178565	 0.0283816376	 0.146518
H	-0.5273698472	 1.9059838887	-0.8857228296	 0.11829
H	-0.5570682464	 1.9250626133	 0.8814740268	 0.127474
H	 0.1896798374	-0.1287261596	 2.2121668281	 0.125014
H	 0.741211355	-1.5841495548	 1.3715089442	 0.141504
H	 1.7446776708	-0.1218081333	 1.3689090814	 0.141525
H	-1.971859167	-0.1991135169	-0.8820200988	 0.11829
H	-1.4681910372	-1.6317197153	 0.0343543976	 0.146554
H	-1.9974115543	-0.1744522504	 0.8851781023	 0.127459
H	 0.2051328706	-0.1462571334	-2.1054357054	 0.170993
67.7137	138.553	152.3858	164.9673	215.0927	263.9899	264.6021	304.0809	318.5924	376.4517	391.3032	401.3797	404.3744	515.6702	566.7994	592.8081	765.6259	855.6493	940.3597	944.7529	963.4198	971.8309	1005.7558	1049.7243	1074.577	1185.095	1237.2089	1251.4776	1302.8223	1318.2123	1407.3374	1407.6026	1438.219	1479.7019	1486.2455	1487.3657	1505.8301	1506.3379	1518.3341	2364.1607	2369.7405	3033.1216	3033.1988	3036.4408	3043.2142	3101.9849	3106.6564	3113.2042	3115.7102	3119.7294	3121.4438
CC(C)(C)C(C#N)C#N	CC(C)(C)C(C#N)C#N	
InChI=1S/C7H10N2/c1-7(2,3)6(4-8)5-9/h6H,1-3H3	InChI=1S/C7H10N2/c1-7(2,3)6(4-8)5-9/h6H,1-3H3
