21
gdb 96399	1.99615	1.67892	1.18865	1.3732	83.96	-0.243	0.0527	0.2958	1155.8956	0.182725	-387.074696	-387.065769	-387.064825	-387.107825	34.9	
C	-0.0381980876	 1.5211180159	-0.0948025322	-0.411836
C	 0.0505356447	 0.0064544669	-0.0037825404	 0.141091
O	 0.6484614461	-0.4586808167	-1.2016186174	-0.253013
C	 0.6633542514	-1.8730377843	-1.3063261466	-0.064461
C	 1.4485950136	-2.5193578827	-0.1643643752	-0.200602
C	 0.8897781514	-2.0546765896	 1.1853135233	-0.223645
C	 0.8263008533	-0.5071183531	 1.2426327708	-0.18318
C	 2.1608656344	 0.0777272544	 1.3506956522	 0.367021
C	 3.2649663132	 0.5429266243	 1.4548478072	-0.497893
H	 0.9611937019	 1.9567097896	-0.1678739725	 0.140175
H	-0.6112249678	 1.8080478803	-0.9801920895	 0.12122
H	-0.5336551104	 1.9308901063	 0.7908953036	 0.11074
H	-0.9682730474	-0.4154198194	 0.0763707362	 0.059685
H	-0.372124174	-2.2579643559	-1.3135364937	 0.080584
H	 1.1114034378	-2.1001580728	-2.2779953729	 0.10556
H	 1.3964791056	-3.6105003169	-0.2500051585	 0.093478
H	 2.5021141184	-2.2304635484	-0.245699164	 0.119952
H	-0.1291672717	-2.4414725867	 1.3169489639	 0.094136
H	 1.4913097381	-2.4366191588	 2.0149721298	 0.107112
H	 0.2492460531	-0.2128925808	 2.129641036	 0.098936
H	 4.2369401559	 0.9609336884	 1.5438410596	 0.19494
99.8441	143.8586	173.9621	222.6003	265.6567	305.6505	337.6497	377.0876	423.3054	449.7775	551.0067	606.3574	621.9563	631.8471	682.2419	776.466	850.5365	857.7836	881.8596	941.3377	961.1788	979.2723	1045.5221	1069.626	1099.5612	1117.3707	1148.2425	1168.7851	1215.1436	1241.3033	1288.8788	1300.1402	1325.4495	1359.6003	1372.3457	1382.3356	1395.916	1414.303	1418.3219	1476.15	1483.1771	1488.3927	1498.5534	1503.173	2230.1203	2930.6236	2949.0317	3013.1308	3027.8596	3040.192	3047.569	3081.5741	3084.0608	3091.3548	3119.7207	3133.6363	3504.3942
CC1OCCCC1C#C	C[C@H]1OCCC[C@H]1C#C	
InChI=1S/C8H12O/c1-3-8-5-4-6-9-7(8)2/h1,7-8H,4-6H2,2H3	InChI=1S/C8H12O/c1-3-8-5-4-6-9-7(8)2/h1,7-8H,4-6H2,2H3/t7-,8-/m1/s1
