19
gdb 101175	2.58342	1.07168	0.90211	4.1873	67.89	-0.2431	0.0439	0.287	1329.5435	0.157255	-497.255266	-497.245383	-497.244439	-497.290361	36.565	
O	-0.0088257563	 1.3878416446	 0.1247439287	-0.426427
C	-0.1133639749	-0.0044204278	 0.3261810509	-0.061502
C	-1.472854333	-0.5220001817	-0.1527235017	 0.093755
O	-1.711313367	-0.057787454	-1.4889253911	-0.446574
C	-1.5769833817	-2.0261115459	-0.0432119265	-0.137159
C	-1.8108754627	-2.7014285393	 1.3015909245	 0.090976
O	-2.0330837319	-1.9255718265	 2.4384088155	-0.425739
C	-2.8885302195	-2.7185606911	 0.2447118263	 0.006199
O	-3.9844251725	-1.8743185303	 0.4945197058	-0.417413
H	-0.4266994943	 1.5507984333	-0.7313640528	 0.282384
H	 0.689089568	-0.5514126769	-0.2049462895	 0.061624
H	-0.0007382861	-0.2043786805	 1.3961034932	 0.125331
H	-2.2537930442	-0.0404989457	 0.4393343137	 0.104348
H	-1.1407598867	-0.5623117581	-2.0805949693	 0.277406
H	-0.913978722	-2.5642794342	-0.7195594405	 0.083246
H	-1.2581589962	-3.6069471703	 1.5318033112	 0.105463
H	-2.8870742015	-1.4900497594	 2.3048312637	 0.287579
H	-3.1260788474	-3.6335426383	-0.2935806849	 0.096698
H	-4.67092792	-2.4013351677	 0.9183406427	 0.299804
48.1988	107.3087	120.3983	185.1742	236.5218	257.9844	287.2905	302.0031	335.7916	425.3741	468.6899	508.4568	522.2115	573.1541	644.4975	669.4578	777.2933	801.5688	871.8498	954.0384	1034.0232	1046.823	1063.2106	1085.3351	1106.8851	1116.5478	1122.5895	1155.1856	1208.281	1225.3063	1244.0701	1287.0093	1294.4669	1323.7434	1375.0967	1381.8259	1410.9998	1431.9058	1442.8523	1472.9061	1508.648	2921.5048	3086.2374	3101.2222	3113.5308	3124.7092	3158.9287	3733.7246	3758.9245	3789.2161	3804.1942
OCC(O)C1C(O)C1O	OC[C@@H](O)[C@H]1[C@@H](O)[C@H]1O	
InChI=1S/C5H10O4/c6-1-2(7)3-4(8)5(3)9/h2-9H,1H2	InChI=1S/C5H10O4/c6-1-2(7)3-4(8)5(3)9/h2-9H,1H2/t2-,3-,4+,5-/m1/s1
