17
gdb 50179	2.33917	1.44133	1.0747	3.0949	78.65	-0.2354	-0.0226	0.2128	1141.1359	0.134512	-384.629134	-384.620718	-384.619774	-384.662749	31.442	
O	 0.3026570103	-0.1947253242	-0.458567482	-0.25855
C	 0.1358949551	 0.9433594213	-0.0918716196	 0.136563
C	 1.247051165	 1.9635731231	-0.0363468051	-0.07283
C	 1.1419824079	 3.2850626495	-0.8894044414	-0.279739
C	 1.4606866608	 4.1000456208	 0.3704511572	-0.064491
C	 0.3757908329	 3.910283333	 1.4065649719	-0.192755
C	-1.022218188	 3.8098662978	 1.0909707701	 0.318864
C	-2.1992183837	 3.7797214768	 0.8413372058	-0.444616
C	 1.4345319029	 2.8336951152	 1.2203073339	-0.110296
H	-0.8632342188	 1.3043856134	 0.2241360302	 0.097022
H	 2.1772254955	 1.4431115206	-0.2759850858	 0.100608
H	 1.9135079242	 3.3296114754	-1.6583933852	 0.120632
H	 0.1699368417	 3.4952272189	-1.3437231811	 0.122718
H	 2.1325613921	 4.9478516815	 0.4205801175	 0.100735
H	 0.5694070164	 4.4831713612	 2.3112923185	 0.12218
H	-3.2374512928	 3.7360730331	 0.6221482312	 0.201464
H	 2.0608691384	 2.5569056628	 2.0601934138	 0.102489
49.8719	116.6335	138.3002	196.0974	274.2791	360.9884	378.1955	450.0689	545.1758	598.6339	602.1014	658.7823	745.9634	762.302	788.3068	847.3426	882.7234	950.984	976.1922	989.1607	1001.9102	1053.2967	1072.09	1083.9901	1123.1253	1171.2696	1184.1632	1241.4134	1259.257	1290.3793	1306.5004	1337.7969	1415.3728	1432.3383	1484.8035	1815.3291	2230.1417	2942.1311	3068.2495	3085.3883	3129.6609	3132.8432	3177.3386	3191.6879	3501.5027
O=CC1CC2C(C#C)C12	O=C[C@H]1C[C@H]2[C@@H](C#C)[C@@H]12	
InChI=1S/C8H8O/c1-2-6-7-3-5(4-9)8(6)7/h1,4-8H,3H2	InChI=1S/C8H8O/c1-2-6-7-3-5(4-9)8(6)7/h1,4-8H,3H2/t5-,6-,7+,8-/m1/s1
