14
gdb 133278	5.19695	1.02857	0.8632	0.8799	72.01	-0.218	-0.0871	0.1309	1241.0071	0.100812	-474.144224	-474.136292	-474.135348	-474.177538	28.355	
C	 0.0793213763	 1.435501549	 0.0646232837	-0.327836
N	-0.0090831607	-0.0078057281	 0.1517901291	-0.336278
C	-1.1374901761	-0.5819247878	 0.0703325637	 0.481682
N	-1.160998416	-1.9893283863	 0.1616226861	-0.279733
N	-2.2395677649	-2.7697370789	 0.1000010144	-0.198929
C	-3.354815576	-2.155277151	-0.0590258111	 0.28907
F	-4.4685554462	-2.8728701671	-0.1286419685	-0.059438
C	-3.4376470376	-0.7230989395	-0.163827254	-0.088735
N	-2.3921084406	 0.026324234	-0.103377805	-0.277248
H	 0.737324774	 1.7078460246	-0.7696563074	 0.120723
H	-0.8856372682	 1.9360320343	-0.0713573414	 0.127985
H	 0.5519931556	 1.8245793265	 0.97477252	 0.120723
H	-0.2777728237	-2.4621134405	 0.2868892245	 0.283089
H	-4.414556296	-0.2587325593	-0.298405724	 0.144923
46.2148	98.2399	210.122	218.4929	330.3543	373.3749	398.1907	443.0023	479.5042	594.1232	638.753	657.376	773.9869	784.5016	816.3662	972.8407	996.8752	1066.9618	1135.7047	1143.2067	1215.442	1296.432	1305.268	1431.5999	1439.1251	1461.5293	1495.6717	1496.1961	1585.7244	1686.2676	1748.0505	3011.1741	3061.9733	3086.4696	3134.1301	3618.0533
CN=C1NN=C(F)C=N1	C[N]C1=NCC(=NN1)F	
InChI=1S/C4H5FN4/c1-6-4-7-2-3(5)8-9-4/h2H,1H3,(H,6,7,9)	InChI=1S/C4H6FN4/c1-6-4-7-2-3(5)8-9-4/h2H2,1H3,(H,7,9)
