22
gdb 87714	2.34237	1.29301	1.15245	1.4758	82.26	-0.2373	0.0617	0.299	1230.5245	0.193291	-404.319293	-404.3096	-404.308656	-404.353514	36.991	
C	-0.1872338559	 1.5316046973	 0.5938823054	-0.39291
C	-0.1745844434	 0.0273691241	 0.4800966518	-0.077669
N	 0.9259121842	-0.5705243931	-0.3039038022	-0.402452
C	 0.8527534364	-0.8258606101	 1.1294756899	 0.321141
C	 1.8999300166	-0.4514503694	 2.1837109079	-0.320566
C	 1.3073196521	-1.5655655216	 3.104588968	-0.022434
C	 0.3685718514	-1.0475352104	 4.1899490074	-0.413798
C	 0.5728473359	-2.1512683061	 1.8480319731	 0.052455
O	-0.7423981736	-2.6396321798	 1.9435767274	-0.42558
H	 0.8301853053	 1.9184501791	 0.6918436942	 0.129139
H	-0.6343644961	 1.9843435795	-0.297494177	 0.122101
H	-0.7686918389	 1.8570020571	 1.4642264458	 0.109973
H	-1.154532573	-0.4365096777	 0.364058681	 0.083207
H	 0.593264577	-1.3834664309	-0.8192165065	 0.230424
H	 2.9187453839	-0.6636801355	 1.8488824811	 0.108679
H	 1.8648508351	 0.5680935429	 2.5770404924	 0.101129
H	 2.0438012011	-2.2424869056	 3.5451942074	 0.070407
H	-0.347419823	-0.3171882247	 3.792338987	 0.109244
H	-0.1990102191	-1.8645684302	 4.6475261643	 0.124512
H	 0.9319699789	-0.5437007307	 4.981594784	 0.121362
H	 1.1534483988	-2.9688460414	 1.4062533952	 0.090605
H	-1.2866389737	-1.9493844627	 2.3371981125	 0.281033
61.2943	140.14	178.708	201.1533	232.2985	237.3955	248.1162	332.4573	347.5339	412.9484	454.4113	493.6234	551.0723	610.9733	750.6721	797.8443	812.6646	844.502	893.3728	907.1698	956.5565	1020.6533	1027.3629	1056.9944	1065.8002	1082.9733	1100.1788	1114.5369	1147.7059	1179.7886	1200.7846	1233.9477	1249.6192	1276.6215	1282.7744	1301.5201	1345.1267	1365.03	1404.7481	1411.0363	1432.3126	1468.616	1483.9608	1490.7284	1498.8759	1503.0427	1503.5649	3021.2731	3031.5616	3047.0234	3054.9352	3067.4996	3089.4564	3092.7256	3098.7784	3103.5348	3107.651	3124.98	3479.2856	3813.0045
CC1NC11CC(C)C1O	C[C@H]1N[C@]21C[C@@H](C)[C@H]2O	
InChI=1S/C7H13NO/c1-4-3-7(6(4)9)5(2)8-7/h4-6,8-9H,3H2,1-2H3	InChI=1S/C7H13NO/c1-4-3-7(6(4)9)5(2)8-7/h4-6,8-9H,3H2,1-2H3/t4-,5-,6-,7+/m1/s1
