21
gdb 37797	2.35011	2.09038	1.62738	1.3851	80.14	-0.2294	0.0751	0.3045	944.4674	0.187426	-387.094169	-387.087402	-387.086458	-387.124864	29.062	
C	 0.0024169931	 1.5169289238	-0.0129268303	-0.222957
C	 1.4521240697	 1.9805003378	 0.0531082265	-0.081615
C	 2.2912713703	 0.7640992833	 0.4488640865	-0.097447
C	 1.3253593331	-0.3617163252	 0.7917480008	-0.240272
C	 0.041976498	-0.0375269917	-0.00724627	-0.016927
C	 0.0814881925	-0.6589123949	-1.4184355769	-0.213268
C	 1.4410162115	-0.5320015882	-2.1091494095	-0.068073
O	 1.9227038989	 0.7991525785	-2.1471389922	-0.254225
C	 2.3809140997	 1.352417856	-0.9458547703	 0.107541
H	-0.530976248	 1.8778168349	 0.8737527299	 0.094366
H	-0.5246916614	 1.9078880329	-0.8901195087	 0.101257
H	 1.6623682868	 2.978888799	 0.4220686291	 0.075201
H	 3.1760267928	 0.8704805358	 1.068780166	 0.079349
H	 1.7127714255	-1.3642431783	 0.5800082003	 0.095762
H	 1.1232649828	-0.3213539502	 1.8691429023	 0.095802
H	-0.8438307808	-0.4267980249	 0.503452432	 0.069746
H	-0.1631187427	-1.7275640433	-1.3550292871	 0.089695
H	-0.6903173809	-0.1939735957	-2.043050842	 0.099511
H	 2.1815855973	-1.1850279648	-1.6263567506	 0.094579
H	 1.3616246511	-0.8464643062	-3.154713661	 0.100858
H	 3.3036007407	 1.8976943916	-1.129561565	 0.091119
163.781	271.3292	304.245	366.8571	389.1345	488.2608	496.0057	621.1864	689.4228	728.4244	755.4752	774.71	796.3366	862.0779	890.4578	901.5597	907.1897	978.4679	1008.5409	1033.7556	1035.7418	1040.9436	1065.2513	1080.0646	1111.9371	1129.2993	1141.7791	1192.2731	1207.1278	1219.7072	1243.7498	1279.4776	1296.2869	1314.1196	1323.4321	1349.7805	1359.5846	1370.4314	1393.0675	1414.2813	1435.4177	1476.3514	1486.576	1497.6688	1512.0697	3005.1944	3018.7542	3026.1861	3033.1722	3059.1244	3061.1416	3065.7766	3074.8468	3078.9011	3129.6348	3150.739	3163.3505
C1C2C3CC1CCOC23	C1[C@H]2[C@H]3C[C@@H]1CCO[C@@H]23	
InChI=1S/C8H12O/c1-2-9-8-6-3-5(1)4-7(6)8/h5-8H,1-4H2	InChI=1S/C8H12O/c1-2-9-8-6-3-5(1)4-7(6)8/h5-8H,1-4H2/t5-,6+,7-,8+
