21
gdb 117918	3.04	0.78201	0.71069	1.2543	80.2	-0.2473	-0.0934	0.1539	1683.2986	0.178853	-424.256472	-424.245519	-424.244575	-424.293741	37.761	
C	-0.0577301739	 1.5858456296	-0.0779472686	-0.379695
C	-0.0918251337	 0.0576178822	-0.1756071072	-0.183438
C	-1.4540137175	-0.524884643	 0.2174324907	-0.164918
C	-1.5589881688	-2.0491654058	 0.0574279543	-0.093604
C	-0.6543188047	-2.8352831851	 1.0362934058	-0.410545
C	-2.9857985	-2.5195783524	 0.2541537919	 0.28052
O	-3.8487716616	-1.909299839	 0.8434448591	-0.285344
C	-3.379454766	-3.883758944	-0.3406936758	 0.09583
O	-2.6512527346	-4.56239841	-1.0159441077	-0.223081
H	 0.9230811134	 1.9808144494	-0.3599710743	 0.112689
H	-0.8039097696	 2.0416418376	-0.7379181262	 0.116389
H	-0.2717950602	 1.9214668985	 0.9427403225	 0.116982
H	 0.1527582807	-0.2491504507	-1.2015112056	 0.096123
H	 0.6961267721	-0.3597538328	 0.4626490775	 0.099947
H	-1.6918598372	-0.2570824742	 1.253983533	 0.108832
H	-2.2340766413	-0.0540576561	-0.3937770007	 0.101356
H	-1.2682920159	-2.3453398464	-0.9590836657	 0.10542
H	 0.3948258854	-2.5804977197	 0.8700814765	 0.1327
H	-0.9052074254	-2.5926467152	 2.074207816	 0.128038
H	-0.7600826473	-3.9135841102	 0.8940380673	 0.137604
H	-4.4260965739	-4.1645279127	-0.0951373328	 0.108193
42.7428	63.4976	98.4764	120.6789	122.8766	200.3193	208.2897	245.9704	254.6112	314.1514	330.5002	436.2432	513.0762	598.8863	649.1368	740.8958	775.6398	855.9286	884.14	932.8377	978.9453	1014.2198	1030.6923	1064.1711	1113.2914	1126.4144	1150.2023	1202.1772	1270.093	1302.2033	1319.5555	1336.2044	1363.1385	1372.6234	1402.0372	1405.6707	1414.339	1479.2643	1493.2498	1498.7836	1499.6609	1506.0828	1512.122	1797.3048	1822.9693	2918.5114	3016.3587	3027.3155	3030.533	3032.3663	3044.6566	3048.5292	3072.5984	3099.3087	3104.2215	3119.0496	3129.5376
CCCC(C)C(=O)C=O	CCC[C@@H](C)C(=O)C=O	
InChI=1S/C7H12O2/c1-3-4-6(2)7(9)5-8/h5-6H,3-4H2,1-2H3	InChI=1S/C7H12O2/c1-3-4-6(2)7(9)5-8/h5-6H,3-4H2,1-2H3/t6-/m1/s1
