17
gdb 67304	3.18017	1.58227	1.3197	0.7304	72.19	-0.2348	0.0719	0.3067	988.6801	0.134791	-421.706281	-421.698961	-421.698016	-421.737683	29.712	
O	-0.1368963813	 1.3367181412	-0.0132748203	-0.469247
C	-0.0570438597	-0.0287729938	-0.0112311118	 0.275147
C	 0.8825292317	-0.9986821101	-0.8334553524	 0.015309
O	 1.947550844	-0.9933380442	 0.1637484999	-0.343376
C	 0.7230473574	-1.0053314212	 0.9569489898	 0.015306
C	-0.0538394441	-1.9460129077	-0.0180649213	-0.215553
C	-1.2342122238	-0.9779661654	-0.1196191583	 0.357401
C	-2.577597436	-0.9564821503	 0.5265632505	-0.347124
C	-2.4422120914	-0.9508375532	-0.9929499446	-0.34712
H	 0.758077667	 1.6895746512	 0.0677501311	 0.297506
H	 1.1453102132	-1.0148996632	-1.890516284	 0.098988
H	 0.7948749684	-1.0295123198	 2.0436645036	 0.098988
H	-0.032498686	-3.0324417296	-0.0201982937	 0.092833
H	-2.9442590903	-1.8625351191	 0.9984589819	 0.112837
H	-2.9026777277	-0.0385454592	 1.0057268307	 0.122633
H	-2.6780598035	-0.02917731	-1.5152532362	 0.122633
H	-2.7190781978	-1.8531456254	-1.5289005149	 0.112837
157.4536	182.8516	221.9482	292.4782	333.7142	399.3673	503.0635	576.3361	587.3798	692.5013	747.4214	778.937	811.9423	837.6314	878.9756	885.6836	899.666	929.8767	934.7347	985.664	989.8933	1024.3559	1052.2337	1075.6197	1078.9863	1124.5248	1137.7229	1160.5418	1179.9027	1184.7013	1222.5214	1269.3804	1331.7709	1364.0546	1459.6172	1465.3434	1534.7575	3123.4592	3125.5418	3126.6049	3130.4768	3164.1973	3202.3741	3216.2002	3783.9155
OC12C3OC1C3C21CC1	O[C@@]12[C@H]3O[C@@H]1[C@H]3C12CC1	
InChI=1S/C7H8O2/c8-7-4-3(5(7)9-4)6(7)1-2-6/h3-5,8H,1-2H2	InChI=1S/C7H8O2/c8-7-4-3(5(7)9-4)6(7)1-2-6/h3-5,8H,1-2H2/t3-,4-,5+,7-
