17
gdb 75965	2.14998	1.96449	1.06519	2.4888	72.01	-0.2534	-0.0179	0.2355	1088.4208	0.137493	-455.185472	-455.177207	-455.176263	-455.218635	30.362	
C	-0.047465729	 1.449591005	 0.1495655019	-0.339685
N	-0.0076847927	-0.0103069975	 0.0383333308	-0.136962
C	-1.2219128608	-0.6976579389	-0.0060117233	 0.347049
N	-2.3080845669	-0.0340945809	 0.0456997476	-0.508073
C	-1.1144790299	-2.2046334055	-0.1678915421	-0.183368
O	 0.0370426639	-2.7362366629	 0.4435178607	-0.228854
C	 1.2018827996	-2.1651759803	-0.1054735103	-0.196921
C	 1.2251388891	-0.6410979971	-0.0683685361	 0.393299
O	 2.2724749804	-0.0347067487	-0.1393289635	-0.355732
H	 0.9805979761	 1.8028904738	 0.1788744665	 0.162804
H	-0.5758763282	 1.8751763887	-0.7063408492	 0.146101
H	-0.5861271074	 1.7352574173	 1.0550479391	 0.148131
H	-3.1120219689	-0.65998703	 0.0153049722	 0.223108
H	-1.9792139312	-2.6763901387	 0.3037404308	 0.134799
H	-1.1354523266	-2.4489013629	-1.2450078451	 0.11778
H	 2.0545889999	-2.5190572668	 0.4758942485	 0.15339
H	 1.3495433325	-2.4809019944	-1.1528874987	 0.123135
87.6502	104.7917	140.8581	213.2465	303.592	351.0777	379.013	460.2773	469.0207	545.4344	573.2487	623.9078	656.298	756.0591	856.3305	956.2913	995.563	1010.6699	1025.0975	1091.6424	1133.3667	1159.4643	1173.971	1229.1369	1252.2526	1315.3425	1358.869	1368.2882	1399.2875	1415.0869	1466.472	1468.6336	1483.0349	1489.9964	1507.7452	1702.569	1795.4399	2952.7146	2966.0487	3068.1136	3108.3707	3127.3187	3131.8297	3189.8287	3489.2706
CN1C(=N)COCC1=O	CN1[C]([NH])COCC1=O	
InChI=1S/C5H8N2O2/c1-7-4(6)2-9-3-5(7)8/h6H,2-3H2,1H3	InChI=1S/C5H8N2O2/c1-7-4(6)2-9-3-5(7)8/h6H,2-3H2,1H3
