13
gdb 48347	2.67412	1.33328	1.0433	1.4715	59.75	-0.279	-0.0731	0.206	1096.2183	0.085613	-493.728912	-493.720548	-493.719603	-493.762908	28.674	
O	-0.9714026593	 0.8086689262	 0.3346715527	-0.226327
C	 0.0426919674	 0.8122333541	-0.3068124565	 0.128821
C	 1.2109307845	 1.7553415469	-0.0159864535	 0.221291
C	 1.1697654917	 2.4809951091	 1.3429131867	-0.469283
C	 2.3720474285	 1.5982092384	 1.6696853364	 0.451908
O	 3.1208965947	 1.4106540157	 2.5652241207	-0.286319
O	 2.3784435019	 0.9770922563	 0.4268038689	-0.283998
C	 1.5697901084	 2.6054720612	-1.2196295572	 0.110507
O	 0.8096509604	 2.7963444487	-2.1310515023	-0.224525
H	 0.2216519855	 0.1103801793	-1.1444119088	 0.122159
H	 1.3850378469	 3.5509229011	 1.3397354037	 0.159557
H	 0.2662231814	 2.276233817	 1.9187786772	 0.185537
H	 2.593107178	 3.0371439862	-1.1836616979	 0.110672
64.7821	94.1967	97.9103	198.8353	239.7347	293.451	347.9317	434.0169	508.2396	525.53	598.7151	734.8267	783.6665	885.7032	912.4742	955.6319	989.0814	1019.9763	1081.9101	1129.459	1191.7923	1228.5873	1255.3027	1400.7532	1414.5479	1445.4338	1823.3055	1844.4779	1964.2262	2912.1543	2952.8647	3093.78	3156.6651
O=CC1(CC(=O)O1)C=O	O=CC1(CC(=O)O1)C=O	
InChI=1S/C5H4O4/c6-2-5(3-7)1-4(8)9-5/h2-3H,1H2	InChI=1S/C5H4O4/c6-2-5(3-7)1-4(8)9-5/h2-3H,1H2
