18
gdb 54210	2.56395	1.4231	1.30518	2.2683	71.46	-0.2444	-0.0247	0.2197	1072.4801	0.146003	-439.125239	-439.116151	-439.115206	-439.160294	32.736	
C	 0.072436804	 1.5033901687	 0.1391922452	-0.479414
C	 0.063022532	 0.0219945944	-0.1606276721	 0.339127
O	 1.03613988	-0.5759561942	-0.5584628138	-0.310473
C	-1.2489783562	-0.7579013141	 0.0323060287	 0.261176
C	-1.7999912399	-1.1658937617	-1.3329411199	-0.43342
C	-1.0739379085	-1.9560783209	 1.0202138189	-0.222291
N	-1.9496342027	-1.6497600497	 2.1587821238	-0.255427
C	-2.5139325465	-0.5527757325	 1.8787725168	 0.104897
O	-2.2328646624	 0.077309812	 0.7091145821	-0.255158
H	 1.0454417087	 1.9181754455	-0.1255580472	 0.141216
H	-0.725550389	 2.0149610879	-0.4081226194	 0.148766
H	-0.1301408755	 1.6720695507	 1.2020027029	 0.150878
H	-1.0570041537	-1.7752430387	-1.8533112566	 0.150242
H	-2.7169180705	-1.7479209381	-1.2051360808	 0.130157
H	-2.0277101542	-0.2900418032	-1.9476729849	 0.12897
H	-1.377392313	-2.9031838343	 0.561229173	 0.121564
H	-0.0368047719	-2.0708901615	 1.3461705454	 0.137083
H	-3.2350603106	-0.0354118506	 2.501935258	 0.142106
21.2208	70.7268	157.728	215.9033	232.0765	254.8835	306.0362	351.143	452.9215	483.9078	532.264	592.707	628.5793	773.6657	854.9035	867.2383	939.841	951.8556	980.1462	984.6349	997.563	1022.905	1106.9905	1136.9351	1158.8343	1184.3139	1205.4398	1291.2777	1314.4214	1337.7211	1383.8135	1399.8979	1453.6182	1468.1631	1486.0643	1493.8232	1506.6858	1711.6188	1807.2442	3043.5854	3046.6832	3048.0208	3094.2178	3108.1827	3118.4179	3135.0673	3158.0691	3215.8636
CC(=O)C1(C)CN=CO1	CC(=O)[C@@]1(C)CN=CO1	
InChI=1S/C6H9NO2/c1-5(8)6(2)3-7-4-9-6/h4H,3H2,1-2H3	InChI=1S/C6H9NO2/c1-5(8)6(2)3-7-4-9-6/h4H,3H2,1-2H3/t6-/m1/s1
