17
gdb 77263	2.20039	1.31458	1.02917	4.9218	75.65	-0.2717	0.0032	0.2749	1217.8448	0.134632	-418.002223	-417.992867	-417.991923	-418.037161	32.709	
C	-0.1141396096	 1.5663470331	 0.1040389755	-0.409745
C	-0.0275524324	 0.0590523029	 0.0313509014	-0.068075
C	 0.4047044347	-0.6304292137	-1.2182078569	 0.093031
O	 0.712761979	 0.1860142041	-2.302963717	-0.183699
C	 1.6649452806	-0.2736623652	-3.1613522512	 0.137127
N	 1.8545628234	 0.3326582259	-4.2465135109	-0.428399
C	 1.3303791205	-0.656169517	 0.004858122	-0.244923
C	 2.5470454489	 0.1002766468	-0.006968095	 0.306594
N	 3.5400105	 0.6945076281	-0.0164798198	-0.340595
H	 0.651515353	 2.0423531106	-0.5100021292	 0.161717
H	-1.0915309398	 1.9028567387	-0.2542969866	 0.13392
H	 0.0086025455	 1.9063987514	 1.1363086725	 0.132429
H	-0.7783299143	-0.4727437047	 0.6084286279	 0.112299
H	-0.0590467768	-1.5771131828	-1.4864086395	 0.120309
H	 2.1920114434	-1.1605325259	-2.7897425655	 0.101627
H	 2.6083591468	-0.1097310653	-4.7682377711	 0.2382
H	 1.403997897	-1.600929387	 0.5334612937	 0.138183
62.5999	103.0708	116.1467	130.6692	164.3862	185.6546	273.3843	362.9642	389.7322	512.0285	584.0105	626.2791	699.4281	739.2673	793.5983	828.0372	896.6868	958.7315	976.1545	1035.6679	1043.7442	1069.9775	1099.9473	1135.6106	1151.5128	1191.144	1253.4101	1277.8069	1359.2208	1368.9679	1412.7429	1424.6025	1433.3939	1490.245	1500.4279	1752.9401	2352.2317	3051.0826	3051.4938	3114.96	3129.3211	3143.0493	3158.6057	3169.0798	3522.5591
CC1C(OC=N)C1C#N	C[C@H]1[C@@H](O[CH][NH])[C@H]1C#N	
InChI=1S/C6H8N2O/c1-4-5(2-7)6(4)9-3-8/h3-6,8H,1H3	InChI=1S/C6H8N2O/c1-4-5(2-7)6(4)9-3-8/h3-6,8H,1H3/t4-,5+,6-/m1/s1
