17
gdb 30076	3.0342	1.29443	1.00479	2.2162	76.34	-0.2215	-0.0345	0.187	1170.6027	0.136442	-418.055961	-418.047319	-418.046375	-418.0901	30.53	
C	 0.0341022363	 1.4499414962	 0.1524810679	-0.36479
N	 0.0400136704	-0.0029944092	 0.0818513265	-0.021547
C	 0.0027379268	-0.753593113	-1.0726594775	-0.125282
C	-0.052753248	-2.0610097246	-0.6692405171	-0.100556
N	-0.0574762357	-2.1390272038	 0.701197822	-0.304824
C	-0.013232306	-0.8917533883	 1.1255520983	 0.306462
C	 0.0333023965	-0.4771761232	 2.5662068069	-0.379124
C	 1.4568584614	-0.084347167	 2.9358247683	 0.148194
O	 1.8267231329	 1.0527815869	 3.0886852272	-0.238669
H	 0.5407286944	 1.7823803218	 1.0594880498	 0.176428
H	 0.5681688277	 1.8536815182	-0.7100832191	 0.146435
H	-0.9885866802	 1.8430198395	 0.1473580957	 0.14199
H	 0.0182382152	-0.2884225771	-2.0447977362	 0.125811
H	-0.0866299655	-2.946679486	-1.2851310032	 0.109567
H	-0.6321823774	 0.3633617107	 2.7826788516	 0.12659
H	-0.2695694869	-1.3461196357	 3.1566219285	 0.149965
H	 2.1637073779	-0.9383013653	 3.0133103005	 0.103351
64.4368	84.6211	120.851	156.5328	206.7028	276.3944	342.5589	412.8344	491.109	635.9563	655.0087	711.7451	725.9401	748.8048	850.9617	881.9647	931.7554	1000.5874	1054.253	1068.7033	1109.0515	1152.3788	1156.9838	1196.246	1236.9124	1290.3681	1309.5675	1390.5952	1416.4617	1442.0145	1458.3932	1474.1146	1502.4633	1512.5385	1526.9853	1558.273	1818.6396	2907.7968	3039.103	3059.1285	3114.8045	3122.5218	3152.1869	3247.7159	3274.0736
CN1C=CN=C1CC=O	Cn1ccnc1CC=O	
InChI=1S/C6H8N2O/c1-8-4-3-7-6(8)2-5-9/h3-5H,2H2,1H3	InChI=1S/C6H8N2O/c1-8-4-3-7-6(8)2-5-9/h3-5H,2H2,1H3
