16
gdb 106344	4.68908	0.99122	0.94717	3.5923	71.01	-0.2706	-0.011	0.2596	1231.7581	0.123374	-437.822094	-437.813902	-437.812957	-437.855065	30.687	
O	-0.1191977102	 1.3998885695	 0.0708756927	-0.408959
C	-0.0524438472	-0.0111617549	 0.0536924676	-0.19374
C	-1.4138754331	-0.6136552778	-0.115117577	 0.363886
C	-2.5136970653	-0.2904545705	-1.160991877	-0.278994
C	-3.1296148876	-1.1256271007	-0.0096597353	 0.316703
C	-1.9071962147	-2.0825362203	-0.0522879284	-0.301326
O	-2.4066133478	-0.2812783143	 0.964314562	-0.369016
C	-4.5147870548	-1.4420294462	 0.2410071867	 0.181351
N	-5.6245532874	-1.7148605628	 0.411625672	-0.340111
H	-0.7508922825	 1.6434555714	 0.7578359105	 0.2994
H	 0.5833914549	-0.2932787113	-0.7922147763	 0.125778
H	 0.4057697564	-0.4167587012	 0.9694102038	 0.109354
H	-2.8341932317	 0.7495099904	-1.193251087	 0.132731
H	-2.4421666444	-0.7580281225	-2.1447478682	 0.115285
H	-1.7833588872	-2.7079402739	-0.938297175	 0.117389
H	-1.7079112975	-2.6045178948	 0.8833004788	 0.130268
86.2977	115.2902	154.7645	204.5983	302.5775	385.1842	418.3982	500.7868	517.2152	540.7886	556.8531	612.7902	672.0011	717.2061	830.0269	918.9915	951.7666	968.5884	1028.9991	1059.6867	1084.2397	1101.7524	1123.2119	1132.308	1145.47	1166.1281	1232.3907	1249.4834	1355.94	1383.9978	1436.1149	1466.3137	1487.4884	1517.4606	2361.3963	2988.4951	3076.605	3078.8761	3085.5649	3165.5299	3174.9679	3798.3193
OCC12CC(C1)(O2)C#N	OC[C@@]12C[C@@](C1)(O2)C#N	
InChI=1S/C6H7NO2/c7-3-5-1-6(2-5,4-8)9-5/h8H,1-2,4H2	InChI=1S/C6H7NO2/c7-3-5-1-6(2-5,4-8)9-5/h8H,1-2,4H2/t5-,6+
