20
gdb 119031	1.8253	1.2043	0.83491	4.4624	79.04	-0.2723	0.0313	0.3036	1421.6444	0.169828	-403.14644	-403.136497	-403.135553	-403.182221	35.793	
O	-2.8774804169	 0.625960165	-2.1524780555	-0.415787
C	-2.4776448234	-0.700796181	-1.8503834691	-0.075967
C	-1.9316381684	-0.6936013809	-0.4238695047	-0.267102
C	-1.5883682912	-2.0688688577	 0.1235545501	 0.369752
C	-0.4670978366	-2.8200069365	-0.596891935	-0.423557
C	 0.811636619	-2.1055906131	-0.5597271944	 0.272831
N	 1.8133011835	-1.5302715285	-0.5271707119	-0.312318
C	-1.695132302	-2.2841715962	 1.6127241086	-0.305819
C	-2.7037610281	-2.919548596	 0.6860479757	-0.318988
H	-3.1558459775	 0.6569678859	-3.0722638292	 0.287797
H	-3.3255766363	-1.4020092722	-1.9204818634	 0.086452
H	-1.7060607015	-1.0486417039	-2.555584134	 0.087995
H	-1.0509206951	-0.0416865401	-0.3864348557	 0.130993
H	-2.6896710504	-0.2318423319	 0.218006513	 0.109784
H	-0.3216145727	-3.8043791128	-0.138761155	 0.146906
H	-0.7268399101	-3.0022083743	-1.6463245724	 0.150014
H	-0.965203804	-2.9277911437	 2.0922440576	 0.119246
H	-2.0136505448	-1.4460842098	 2.2224351515	 0.123085
H	-3.7081578921	-2.5106065604	 0.6645583564	 0.121462
H	-2.6627023813	-3.9943290521	 0.5428309273	 0.113222
42.2593	79.5663	109.1988	145.1102	176.2657	255.9802	300.0856	325.2026	349.4655	399.021	410.452	445.4773	567.2499	758.1831	784.1275	800.8845	884.9744	908.034	930.9463	964.5447	975.7166	1003.5766	1032.7955	1058.6214	1083.3305	1088.1789	1106.0454	1187.1574	1210.888	1218.4592	1251.3194	1299.4369	1317.3899	1322.7298	1351.0306	1391.044	1458.3908	1468.118	1473.8702	1487.361	1509.333	1528.4389	2360.4734	2962.1609	2988.7593	3039.7221	3041.6301	3078.6237	3084.1985	3130.465	3135.7273	3209.1519	3223.3897	3831.3551
OCCC1(CC#N)CC1	OCCC1(CC#N)CC1	
InChI=1S/C7H11NO/c8-5-3-7(1-2-7)4-6-9/h9H,1-4,6H2	InChI=1S/C7H11NO/c8-5-3-7(1-2-7)4-6-9/h9H,1-4,6H2
