17
gdb 47771	2.02375	1.66914	1.23643	3.8548	72.58	-0.2336	-0.0447	0.1889	1066.569	0.138042	-418.03755	-418.029437	-418.028493	-418.07058	30.17	
O	 0.0265995849	-0.0391278389	-0.144230784	-0.294377
C	-0.0223043782	 1.156708122	-0.0176442802	 0.391621
C	-1.3082422559	 1.9733815994	 0.0295455038	-0.26968
N	-1.3331244942	 3.0081105831	-1.0132303373	-0.281457
C	-0.1585602706	 3.8801581398	-0.9776139974	-0.171504
C	 1.1741138273	 3.1228412599	-1.0862358124	-0.230432
C	 1.2711581916	 2.0184212569	 0.0045730656	-0.23224
C	 1.4481456015	 2.6050284011	 1.3330834044	 0.266232
N	 1.5687709747	 3.0762587402	 2.3822634418	-0.323319
H	-2.1603883282	 1.3004746205	-0.0870721254	 0.134037
H	-1.3872073361	 2.465213355	 1.0081013247	 0.147421
H	-1.4032376611	 2.5632714098	-1.9240114577	 0.226255
H	-0.241831745	 4.6073800927	-1.7910067823	 0.117395
H	-0.1857996752	 4.4463254979	-0.0379902433	 0.135665
H	 1.2392037193	 2.6300882952	-2.0635682505	 0.115131
H	 2.0286017795	 3.8029733571	-1.0045708601	 0.126086
H	 2.1099275757	 1.3442866382	-0.1917362597	 0.143166
77.637	120.3748	137.8334	225.7439	319.7722	374.2288	405.6691	453.9597	489.3469	550.3654	601.3996	705.2973	752.3874	797.2388	858.2658	869.3601	949.4673	961.0025	1009.2311	1038.0949	1095.049	1124.9398	1162.9535	1192.9046	1228.0165	1286.3423	1300.4944	1335.2736	1341.5383	1371.5598	1387.919	1458.5303	1477.969	1484.3648	1493.5051	1833.3958	2349.0677	3028.7698	3033.0855	3036.0321	3077.1325	3082.6114	3090.719	3117.7219	3506.8325
O=C1CNCCC1C#N	O=C1CNCC[C@H]1C#N	
InChI=1S/C6H8N2O/c7-3-5-1-2-8-4-6(5)9/h5,8H,1-2,4H2	InChI=1S/C6H8N2O/c7-3-5-1-2-8-4-6(5)9/h5,8H,1-2,4H2/t5-/m0/s1
