18
gdb 7190	5.88576	0.75833	0.70459	3.1943	65.51	-0.2447	-0.0218	0.2229	1540.2312	0.150495	-422.07473	-422.064899	-422.063955	-422.110402	33.554	
O	-0.1136649797	 1.4794006978	-0.0717519683	-0.421892
C	 0.0182655893	 0.0661893097	-0.0886282362	-0.077586
C	-1.3813290825	-0.5255937527	 0.0292614094	-0.188689
C	-1.3859820974	-2.0554933007	 0.0560414617	 0.100614
O	-0.6005625343	-2.5745469477	 1.1289721532	-0.427981
C	-2.8168395555	-2.6241677608	 0.0979886718	-0.294738
C	-2.8479509076	-4.1361347173	 0.0078671151	 0.154038
O	-3.6150626515	-4.7578894532	-0.6826482468	-0.242357
H	 0.7667666372	 1.8635115342	-0.1147198925	 0.287651
H	 0.487252268	-0.2817746586	-1.0238061273	 0.087656
H	 0.6419835408	-0.2943200522	 0.7413813879	 0.097753
H	-1.8540968302	-0.1399620953	 0.943686643	 0.098101
H	-1.9907496416	-0.169227993	-0.8090258179	 0.114343
H	-0.8843785033	-2.429276871	-0.8462243324	 0.101837
H	-0.950334165	-2.2112062265	 1.9511430374	 0.280561
H	-3.2752608305	-2.3351984912	 1.0568209475	 0.11272
H	-3.4401970386	-2.2128516577	-0.701315853	 0.124811
H	-2.0921903378	-4.6487287439	 0.6403947875	 0.093157
53.9491	70.0903	98.5557	126.6907	133.2607	250.5488	269.2522	317.6365	330.5248	383.8251	435.661	509.0911	568.9812	792.5582	815.0042	880.7119	967.6235	1000.9456	1041.016	1064.9768	1087.3594	1105.2429	1129.7811	1197.4643	1210.2335	1238.4207	1282.5424	1299.203	1330.5417	1349.2152	1382.9564	1415.1602	1422.7415	1450.492	1462.1785	1486.0667	1530.9603	1830.6303	2911.3535	2967.0147	2998.314	3012.9287	3019.0165	3035.015	3074.8295	3098.8898	3788.6962	3831.4617
OCCC(O)CC=O	OCC[C@@H](O)CC=O	
InChI=1S/C5H10O3/c6-3-1-5(8)2-4-7/h3,5,7-8H,1-2,4H2	InChI=1S/C5H10O3/c6-3-1-5(8)2-4-7/h3,5,7-8H,1-2,4H2/t5-/m0/s1
