17
gdb 83320	2.27058	1.76107	1.45352	1.6391	67.62	-0.231	-0.0352	0.1958	974.9127	0.135342	-458.946014	-458.937909	-458.936965	-458.978329	31.032	
C	-0.0072040065	 1.5520345523	 0.0045117796	-0.511207
C	 0.0162247722	 0.0480423673	 0.0512759902	 0.095616
C	 0.4993518911	-0.7420300933	-1.1772914812	-0.131743
O	 0.4078571749	-2.1201699305	-0.6961098457	-0.298014
C	-0.1525596442	-1.9554837677	 0.6215103509	-0.09392
C	 0.7419900279	-0.8106600629	 1.1833157843	 0.13032
O	 2.1225270991	-0.9873252777	 1.1165046186	-0.448427
C	-1.1944337058	-0.8354358124	 0.4175628757	 0.419835
O	-2.3586572694	-0.6650659406	 0.6186507975	-0.311427
H	 1.0068883574	 1.9536376189	-0.0941808309	 0.133858
H	-0.5984413657	 1.9130652211	-0.8436405256	 0.132205
H	-0.449996898	 1.9637008774	 0.9161574054	 0.134864
H	-0.1403944004	-0.6108340624	-2.0564778054	 0.122587
H	 1.5369745953	-0.5161774833	-1.4463223836	 0.113412
H	-0.3218400902	-2.9179669608	 1.0962108661	 0.104563
H	 0.46868236	-0.477897368	 2.1872197485	 0.108304
H	 2.2824998022	-1.6536033273	 0.4344162656	 0.299174
137.1372	163.525	189.1298	245.2116	255.1299	292.7335	339.0487	478.6791	512.3733	561.5604	618.1507	684.4933	741.1148	765.0386	810.1713	842.0977	900.4736	932.8814	978.2407	1002.9174	1054.2523	1103.0955	1130.4244	1168.818	1181.8769	1207.6949	1214.5304	1253.9221	1295.7087	1309.9211	1394.6164	1414.563	1431.2639	1490.2839	1491.4053	1523.6763	1908.8162	3031.6032	3035.545	3078.447	3097.349	3100.057	3110.4247	3171.7207	3757.9658
CC12COC(C1O)C2=O	C[C@@]12CO[C@@H]([C@H]1O)C2=O	
InChI=1S/C6H8O3/c1-6-2-9-3(4(6)7)5(6)8/h3-4,7H,2H2,1H3	InChI=1S/C6H8O3/c1-6-2-9-3(4(6)7)5(6)8/h3-4,7H,2H2,1H3/t3-,4+,6+/m0/s1
