19
gdb 111362	2.12041	1.6447	1.11345	3.8608	78.64	-0.2547	0.008	0.2627	1146.7032	0.159809	-382.03959	-382.030956	-382.030011	-382.072983	32.282	
C	 0.0745889935	 1.5470944754	-0.0203710087	-0.389635
C	 0.050972877	 0.0206558688	-0.156268589	-0.20814
C	-1.3406239146	-0.5742267375	 0.0309196772	 0.001383
C	-1.5387254538	-2.086741155	-0.0550087799	-0.045677
C	-0.961067385	-2.8034967706	 1.0960358483	-0.248797
N	-2.279535071	-2.1611253546	 1.2766681085	-0.132745
C	-2.0070422348	-0.682279562	 1.45320314	-0.14208
C	-1.2054894649	-0.3305560087	 2.6192634718	 0.310036
N	-0.5486394801	-0.0543200117	 3.5303924809	-0.340559
H	 1.0826953943	 1.9384240999	-0.1834549327	 0.122204
H	-0.5903694313	 2.0199748491	-0.7517210884	 0.114113
H	-0.2433471612	 1.8624124787	 0.9783013048	 0.135947
H	 0.4091201454	-0.2695948157	-1.1524770021	 0.103216
H	 0.7488318801	-0.4233955059	 0.5621099221	 0.114871
H	-2.0459948933	-0.0634831249	-0.6313473437	 0.094708
H	-1.9151786916	-2.608292776	-0.9288334969	 0.104689
H	-1.0361034401	-3.8860153531	 1.0928599618	 0.133846
H	-0.1007945896	-2.413080682	 1.6326688383	 0.138963
H	-2.9601964591	-0.1533062542	 1.5107528378	 0.133658
97.8597	114.5731	141.0983	190.5568	213.4377	274.5823	371.8623	398.2739	472.9725	561.5889	605.9887	701.0984	752.5064	783.7856	809.2811	814.3048	937.0075	955.7159	992.9077	1007.5377	1024.3991	1059.9709	1083.7483	1108.4284	1119.5429	1151.7656	1165.3426	1209.1234	1231.5349	1271.1902	1297.7974	1336.7659	1345.6402	1373.6417	1400.4314	1416.4726	1484.8849	1501.2343	1504.0461	1507.9733	2346.5796	3027.3387	3036.0177	3057.2715	3073.5146	3095.4362	3105.6404	3114.4132	3122.4288	3167.4564	3211.254
CCC1C2CN2C1C#N	CC[C@H]1[C@H]2CN2[C@H]1C#N	
InChI=1S/C7H10N2/c1-2-5-6(3-8)9-4-7(5)9/h5-7H,2,4H2,1H3	InChI=1S/C7H10N2/c1-2-5-6(3-8)9-4-7(5)9/h5-7H,2,4H2,1H3/t5-,6+,7-,9?/m1/s1
