20
gdb 93272	2.26511	1.63796	1.20875	3.5833	74.65	-0.2463	0.0279	0.2742	1105.6986	0.170831	-440.342344	-440.333062	-440.332118	-440.37571	35.611	
C	-0.8443848169	 1.1410502362	-0.0449659171	-0.427511
C	 0.1006478074	-0.0554447832	-0.0497640533	 0.001499
C	 1.2998192735	 0.0803399308	-1.020202907	-0.189716
N	 2.2801877225	-0.8372376951	-0.4555955461	-0.321285
C	 2.0136238755	-1.2155844251	 0.8199238019	 0.383268
O	 2.6088095806	-2.0268641896	 1.5027092114	-0.410757
C	 0.7738571673	-0.432158507	 1.2895161411	 0.277255
C	 1.230003727	 0.7651490178	 2.137623204	-0.431454
O	-0.0519072064	-1.2861212821	 2.0555072628	-0.487039
H	-0.3288791642	 2.067853988	 0.2255795735	 0.119437
H	-1.2911596574	 1.2865777201	-1.0343443722	 0.114901
H	-1.6591312686	 0.9847134475	 0.6679502064	 0.136837
H	-0.4601525082	-0.9501801436	-0.3436309361	 0.098079
H	 1.0349798403	-0.20356012	-2.0435448406	 0.11704
H	 1.6803597412	 1.1116003852	-1.0478084109	 0.107802
H	 3.0802338951	-1.1899018629	-0.9566012828	 0.254677
H	 1.8199312557	 1.4847065523	 1.5593328942	 0.111681
H	 0.358591714	 1.2782928562	 2.5520642321	 0.127389
H	 1.847047373	 0.4063698879	 2.9663052769	 0.130434
H	 0.5523803887	-1.9136343935	 2.4799419919	 0.287463
87.3478	171.5587	217.9148	228.9199	252.7179	271.8766	275.8077	301.3011	383.0244	424.2882	476.4266	507.3993	546.2361	591.9189	679.2649	716.5309	762.3195	851.1534	906.0952	954.8031	962.1005	1028.814	1056.4166	1085.6787	1128.6209	1152.7927	1175.9793	1212.6811	1239.2879	1279.3834	1327.9047	1349.5559	1370.5125	1400.1045	1409.2201	1415.1248	1451.385	1486.1737	1492.9044	1500.6186	1504.9886	1532.4045	1822.1744	2999.4808	3034.5755	3037.6459	3043.7717	3071.2394	3100.0926	3108.3222	3114.6299	3125.2391	3638.5883	3720.7908
CC1CNC(=O)C1(C)O	C[C@H]1CNC(=O)[C@]1(C)O	
InChI=1S/C6H11NO2/c1-4-3-7-5(8)6(4,2)9/h4,9H,3H2,1-2H3,(H,7,8)	InChI=1S/C6H11NO2/c1-4-3-7-5(8)6(4,2)9/h4,9H,3H2,1-2H3,(H,7,8)/t4-,6+/m0/s1
