15
gdb 75687	2.96991	1.27075	1.08144	1.1479	68.01	-0.2487	-0.0575	0.1912	1105.189	0.110371	-457.754075	-457.745673	-457.744729	-457.787437	30.274	
O	 0.0901904132	 1.5434743946	 0.0210319815	-0.426224
C	 0.0221122171	 0.1402807513	 0.0091368121	-0.108272
C	 0.1829338652	-0.6463107307	 1.3481622869	 0.39854
O	 1.11957318	-0.8219304195	 2.0738455642	-0.311209
C	-1.2047587531	-1.2073148541	 1.269028501	-0.216302
C	-2.1908768754	-0.0775141669	 1.109336954	-0.319908
C	-1.3901366259	-0.4295239869	-0.1017046069	 0.254831
C	-1.9996260559	-1.0375201615	-1.3026821737	 0.059071
O	-3.105348643	-1.5227860779	-1.3271166334	-0.262636
H	 0.961767427	 1.7941548222	 0.3478007294	 0.301199
H	 0.6952162229	-0.3040107612	-0.7433505918	 0.100338
H	-1.5285259289	-2.2150376895	 1.4978443965	 0.138427
H	-3.2263678845	-0.3974485254	 1.0692714969	 0.159433
H	-2.0095517349	 0.8791476797	 1.5856085673	 0.149249
H	-1.3470324839	-1.0375094443	-2.2031984141	 0.083463
78.0421	116.1999	173.0327	203.1409	224.211	292.7673	311.6919	407.0059	487.3184	560.7862	664.059	689.0894	727.9235	779.4994	836.355	938.0704	965.3177	977.3411	1044.6117	1059.921	1102.1336	1109.3298	1135.0927	1153.9852	1235.6276	1245.376	1297.0949	1358.2686	1414.751	1437.2403	1478.9868	1803.4458	1886.1481	2891.8953	2971.9978	3142.041	3204.3877	3236.4798	3806.4532
OC1C(=O)C2CC12C=O	O[C@H]1C(=O)[C@H]2C[C@@]12C=O	
InChI=1S/C6H6O3/c7-2-6-1-3(6)4(8)5(6)9/h2-3,5,9H,1H2	InChI=1S/C6H6O3/c7-2-6-1-3(6)4(8)5(6)9/h2-3,5,9H,1H2/t3-,5+,6+/m1/s1
