21
gdb 70419	2.76144	1.51167	1.29643	1.3216	82.26	-0.2345	0.0834	0.3179	1091.6456	0.182375	-387.051798	-387.04328	-387.042336	-387.084872	33.065	
C	 0.0562540872	 1.515503431	-0.1425767936	-0.503586
C	 0.0796892632	 0.0201146156	-0.0183389946	 0.304905
C	-0.8908401918	-0.7764779833	 0.8177876277	-0.332687
C	 0.5801072123	-0.8974159575	 1.104013628	-0.099614
C	 1.2158614514	-1.8425363056	 0.0793035561	-0.303988
C	 0.7000826103	-0.9189875835	-1.0623040923	 0.40398
C	-0.0392017804	-1.3906187292	-2.3329962259	-0.358816
C	 1.1019488233	-0.6896736425	-3.090811924	-0.07686
O	 1.7519993115	-0.3212201389	-1.8558586614	-0.31874
H	 1.0218464028	 1.8869834619	-0.4978614984	 0.135288
H	-0.7116338118	 1.8482743957	-0.8523511812	 0.113091
H	-0.1630321439	 1.9862554626	 0.8213191489	 0.11424
H	-1.4661371391	-0.1892733391	 1.5274600521	 0.109258
H	-1.4390466555	-1.6175819032	 0.3961223713	 0.100902
H	 1.0039709075	-0.6273583089	 2.0639134851	 0.08399
H	 2.3080764639	-1.8238466281	 0.0851708647	 0.117328
H	 0.86908027	-2.8824265058	 0.0847791203	 0.088215
H	-0.0856138411	-2.473716884	-2.4616844357	 0.109511
H	-1.0368360018	-0.9691707303	-2.4719950027	 0.110136
H	 1.7385458836	-1.3344815855	-3.7079471918	 0.102224
H	 0.8134855785	 0.1904634384	-3.6783127027	 0.101221
76.8133	119.7015	181.756	200.8124	239.1308	319.191	403.4705	427.1381	461.2356	517.7866	637.3283	774.3355	780.3433	829.2666	856.6345	864.9904	883.7315	913.7737	961.7657	973.0745	983.0689	1019.7757	1025.1491	1041.4067	1085.9799	1109.8502	1135.8667	1145.5893	1157.9156	1168.274	1208.6226	1216.6637	1244.3954	1260.1502	1272.9078	1326.6559	1353.2428	1385.7221	1417.9874	1471.8819	1480.6757	1486.4123	1500.9817	1503.5427	1531.566	3017.7586	3021.976	3033.7312	3057.6028	3072.8416	3082.0274	3094.9661	3110.2325	3111.2187	3126.805	3177.858	3189.6273
CC12CC1CC21CCO1	C[C@]12C[C@H]1C[C@]12CCO1	
InChI=1S/C8H12O/c1-7-4-6(7)5-8(7)2-3-9-8/h6H,2-5H2,1H3	InChI=1S/C8H12O/c1-7-4-6(7)5-8(7)2-3-9-8/h6H,2-5H2,1H3/t6-,7-,8-/m0/s1
