17
gdb 60764	4.43197	0.86047	0.7239	0.5277	78.83	-0.2538	-0.0202	0.2336	1500.8901	0.136712	-451.372987	-451.36354	-451.362596	-451.407831	33.151	
C	-0.5646542475	 1.3018249901	-0.0836491966	-0.376048
N	-0.013115454	-0.0402818763	 0.0786308959	-0.171364
C	 0.3242037945	-0.4878284822	 1.3559669381	 0.107134
N	 0.1625613787	 0.2453026373	 2.381105908	-0.482418
C	 0.1996162528	-0.9154743155	-0.987942187	 0.570813
O	 0.6591431918	-2.0330920484	-0.8515386177	-0.402582
N	-0.156689429	-0.4064040958	-2.2244925729	-0.382772
C	-0.0166843679	-1.1317769654	-3.3980944694	 0.106944
N	-0.3613090518	-0.6114510532	-4.5038293227	-0.470144
H	 0.0796214667	 1.9228927988	-0.7149652108	 0.140516
H	-1.5737410236	 1.2684636251	-0.507918785	 0.140513
H	-0.6160166054	 1.7458398372	 0.9096140821	 0.190636
H	 0.7218429778	-1.5014990885	 1.3273818272	 0.150028
H	 0.4639509953	-0.2515490408	 3.2163855451	 0.234113
H	-0.5371133125	 0.5214419029	-2.3286862838	 0.265012
H	 0.3985420727	-2.1251298123	-3.222285399	 0.145227
H	-0.1983651387	-1.2649899532	-5.2673411415	 0.234391
54.5251	109.6862	150.1225	155.064	179.4798	215.4658	290.0113	309.5715	356.9427	418.3516	492.8465	582.1278	596.8086	754.4979	763.227	827.1779	830.5617	897.9463	1025.9315	1080.8153	1088.2735	1100.0902	1152.2048	1160.0637	1185.9583	1302.7471	1313.8654	1363.4527	1392.4166	1404.2398	1451.9572	1509.9153	1511.6965	1514.2242	1716.6296	1729.1561	1790.734	3030.1275	3091.4256	3133.8397	3149.6952	3161.2866	3510.534	3516.4467	3637.6672
CN(C=N)C(=O)NC=N	CN(C=N)C(=O)NC=N	
InChI=1S/C4H8N4O/c1-8(3-6)4(9)7-2-5/h2-3,6H,1H3,(H2,5,7,9)	InChI=1S/C4H8N4O/c1-8(3-6)4(9)7-2-5/h2-3,6H,1H3,(H2,5,7,9)
