20
gdb 98583	2.99115	0.90331	0.83509	4.3457	78.25	-0.2439	-0.0255	0.2184	1485.276	0.167942	-440.271309	-440.261109	-440.260165	-440.306825	36.516	
C	 0.3267520723	 1.9241160233	-0.0849286369	-0.42077
C	-0.1271069933	 0.4854400127	-0.197062482	 0.006798
C	 0.502630718	-0.4389945259	-1.2148552104	-0.13279
N	 0.665915932	-0.6554540738	 0.2219758148	-0.09513
C	 1.9951136405	-0.4716536134	 0.7908530042	-0.319006
C	-0.2934855252	-1.4274690513	-1.9939014778	 0.356446
O	-0.2675844934	-1.4478286595	-3.2098472217	-0.34331
C	-1.1523698409	-2.440313818	-1.2497958575	-0.137081
O	-1.8713621898	-3.2331470193	-2.1478700856	-0.425168
H	 1.3690552009	 2.0636416904	-0.3789582107	 0.128748
H	-0.2889601193	 2.5556086899	-0.732805212	 0.13749
H	 0.2084078466	 2.2872130355	 0.9418191846	 0.131845
H	-1.1900751144	 0.3478225579	-0.0011524305	 0.102438
H	 1.3311915061	-0.0083386435	-1.77722585	 0.099646
H	 2.591707267	 0.3188760592	 0.313701703	 0.110222
H	 1.8984007768	-0.2379100145	 1.8554405364	 0.131427
H	 2.5449732062	-1.412703654	 0.698389306	 0.135384
H	-0.4818881352	-3.0386120375	-0.6122713028	 0.124626
H	-1.8265981231	-1.9129492548	-0.5573116349	 0.117259
H	-1.5779492419	-2.9418461433	-3.0268743362	 0.290927
62.3031	87.4843	130.5155	168.2147	172.82	186.1965	257.1297	311.0036	319.6216	343.219	434.9919	465.7591	514.5274	565.9806	674.5332	759.1394	793.9644	816.5912	958.7886	990.1874	1030.9365	1052.9901	1094.8649	1123.0324	1129.4276	1152.3009	1167.1071	1189.2795	1227.157	1234.8346	1279.0484	1318.3263	1372.2997	1408.8753	1428.6593	1455.9108	1459.9786	1479.3814	1486.5357	1487.2327	1499.7712	1508.0244	1777.056	2987.8078	2999.1412	3002.2836	3041.3516	3079.3269	3102.1072	3103.2381	3111.5961	3112.8804	3131.9702	3670.4924
CC1C(N1C)C(=O)CO	C[C@H]1[C@@H](N1C)C(=O)CO	
InChI=1S/C6H11NO2/c1-4-6(7(4)2)5(9)3-8/h4,6,8H,3H2,1-2H3	InChI=1S/C6H11NO2/c1-4-6(7(4)2)5(9)3-8/h4,6,8H,3H2,1-2H3/t4-,6+,7?/m0/s1
