20
gdb 14192	3.48324	2.20921	2.02591	0.0653	78.04	-0.2656	0.0967	0.3624	804.4636	0.179698	-311.84647	-311.840008	-311.839064	-311.876445	27.616	
C	-0.0317732084	 1.4980837439	 0.0735546144	-0.504109
C	 0.0316432822	-0.0105627904	 0.0350103289	 0.342163
C	 0.9100672783	-0.7796411298	-0.9960117462	-0.272628
C	 0.825588165	-1.9162616821	 0.0300227036	-0.02401
C	-0.6946426104	-2.1381797443	 0.4521614108	-0.039166
C	-0.2990946499	-1.7396979331	 1.8994715115	-0.238349
C	 0.7430428236	-0.8695715488	 1.1839818836	-0.057269
C	-1.2874486459	-0.81355232	-0.0702115996	-0.23948
H	 0.9679301082	 1.9394473214	 0.1505497165	 0.1107
H	-0.5016648417	 1.8979053115	-0.833194145	 0.113471
H	-0.6183285438	 1.8485962309	 0.930784685	 0.112796
H	 0.5134665679	-0.9173764653	-2.0082502597	 0.082848
H	 1.9286403528	-0.3811051144	-1.0514243096	 0.089272
H	 1.4901637663	-2.7795237085	 0.0499706119	 0.06089
H	-1.2261406798	-3.0651040516	 0.236578079	 0.056732
H	-1.0640500385	-1.2750387154	 2.5313961685	 0.083777
H	 0.1830735407	-2.5563610627	 2.4458959193	 0.092579
H	 1.6194959184	-0.4321241093	 1.6632978641	 0.057583
H	-2.0892125298	-0.4345770555	 0.5722266874	 0.085727
H	-1.6609323352	-0.8592903164	-1.0979690246	 0.086475
210.2053	241.1976	287.0149	409.4243	436.1873	482.3018	585.3978	647.2924	701.8343	799.5078	821.0893	837.9151	854.107	880.8499	928.5894	938.2697	967.8409	980.965	994.1165	1009.3375	1022.6513	1049.1712	1070.8248	1083.2289	1142.7694	1158.1854	1186.2071	1197.6296	1214.393	1233.9982	1240.8551	1263.1101	1271.6852	1282.6533	1306.6768	1353.5367	1413.1505	1484.7049	1490.87	1493.6517	1497.9585	1516.9389	3018.8519	3029.4627	3032.6902	3041.904	3080.9088	3081.8351	3086.7619	3088.9968	3090.7705	3105.9833	3109.4733	3122.2877
CC12CC3C(CC13)C2	C[C@@]12C[C@@H]3[C@@H](C[C@H]13)C2	
InChI=1S/C8H12/c1-8-3-5-2-7(8)6(5)4-8/h5-7H,2-4H2,1H3	InChI=1S/C8H12/c1-8-3-5-2-7(8)6(5)4-8/h5-7H,2-4H2,1H3/t5-,6+,7-,8+/m0/s1
