14
gdb 16713	3.08044	2.28132	1.80991	3.736	56.92	-0.2501	-0.0161	0.234	756.1214	0.107337	-419.653378	-419.646771	-419.645827	-419.684133	25.184	
O	-0.0951477047	 1.4138935461	 0.012186616	-0.429926
C	-0.004323987	 0.0047219239	 0.0245180465	 0.107798
C	 0.4897567597	-0.612570213	 1.3840555965	-0.26397
C	-0.8131761507	-1.3146181717	 1.7937686833	-0.042851
O	-1.2325267189	-1.9285207123	 0.5255034437	-0.295932
C	-1.4343274446	-0.5701433338	 0.0255131382	-0.053581
C	-1.9071804425	-0.2662483149	 1.4688187694	 0.45647
O	-2.8068599657	 0.2784635055	 2.0203149669	-0.304831
H	 0.7937146207	 1.7800360799	-0.0221952019	 0.292947
H	 0.5709720317	-0.3728107205	-0.8290752185	 0.085384
H	 1.2985474793	-1.33485608	 1.2534753486	 0.117093
H	 0.8040322404	 0.1668918099	 2.0836511136	 0.116526
H	-0.8406350634	-1.9817067723	 2.6526033865	 0.106266
H	-2.0516195044	-0.4901681968	-0.8656158188	 0.108607
119.0797	173.9898	269.7675	356.5373	420.8086	454.0864	510.2956	623.9632	688.7074	761.9693	840.9146	874.5658	878.5181	920.3641	950.082	991.7593	1043.6741	1056.6127	1074.0178	1138.6154	1166.1584	1212.3725	1217.0732	1252.9207	1277.1479	1311.7012	1337.4161	1416.4429	1470.6064	1933.8695	3032.1663	3065.8818	3121.8654	3155.5324	3167.9812	3828.187
OC1CC2OC1C2=O	O[C@H]1C[C@@H]2O[C@H]1C2=O	
InChI=1S/C5H6O3/c6-2-1-3-4(7)5(2)8-3/h2-3,5-6H,1H2	InChI=1S/C5H6O3/c6-2-1-3-4(7)5(2)8-3/h2-3,5-6H,1H2/t2-,3-,5+/m0/s1
