17
gdb 64569	2.13286	1.5821	1.45562	3.1223	73.54	-0.2456	-0.0471	0.1986	1025.0845	0.133835	-421.82671	-421.818096	-421.817152	-421.860043	31.617	
C	 0.1127854936	 1.7406113753	 0.17623157	-0.467916
C	 0.0449075969	 0.2203190633	 0.0240389477	 0.053689
C	-1.3314897867	-0.2860754938	 0.4180362563	 0.125573
O	-1.9668612505	-1.0973364024	-0.2050230146	-0.248798
C	 0.5744160642	-0.4770502118	-1.2406671658	-0.06147
C	 2.0295648747	-0.2446556802	-1.4130421315	-0.316063
C	 1.5903554281	-1.3116777031	-0.4145831197	-0.161705
C	 1.0903367113	-0.6542247594	 0.8270976742	 0.384451
O	 1.2596058911	-0.812726151	 2.0011744302	-0.315335
H	 1.108710605	 2.1251333151	-0.055590966	 0.130697
H	-0.6042358699	 2.2387024261	-0.4849775924	 0.132548
H	-0.1187001089	 2.0267794188	 1.2071985018	 0.141784
H	-1.7196106364	 0.1547459569	 1.3617454229	 0.094262
H	-0.0708168544	-0.8604234673	-2.0177849854	 0.127086
H	 2.4741089043	-0.6567527967	-2.3131258142	 0.134446
H	 2.5064674644	 0.6664182829	-1.0666060882	 0.126673
H	 1.9032085433	-2.3432042329	-0.5128488952	 0.120078
87.4415	121.7105	163.9272	194.2295	221.0433	235.1071	303.7745	412.5928	491.2591	584.4601	619.3356	698.5425	737.4568	784.7339	808.8231	892.7643	933.2826	938.3433	958.3058	994.3468	1023.0988	1057.2228	1082.2695	1105.1434	1146.2697	1164.8127	1187.312	1230.7885	1296.4337	1325.8805	1404.7775	1423.6395	1486.2858	1496.7031	1504.9413	1812.1767	1878.0275	2900.4394	3038.2113	3105.3057	3120.101	3130.3366	3202.1709	3211.4504	3231.3728
CC1(C=O)C2CC2C1=O	C[C@@]1(C=O)[C@H]2C[C@H]2C1=O	
InChI=1S/C7H8O2/c1-7(3-8)5-2-4(5)6(7)9/h3-5H,2H2,1H3	InChI=1S/C7H8O2/c1-7(3-8)5-2-4(5)6(7)9/h3-5H,2H2,1H3/t4-,5+,7-/m1/s1
