23
gdb 89468	2.07014	1.56778	1.43831	1.5724	85.22	-0.2325	0.0809	0.3134	1135.2528	0.20395	-388.282232	-388.272579	-388.271635	-388.316059	37.342	
C	-0.6053495007	 1.2897548817	-0.0394511583	-0.415592
C	 0.1389207498	-0.0304163861	-0.039098853	 0.122769
O	 1.3417648036	-0.0036577707	-0.8502994852	-0.360314
C	 2.1384766156	-0.5999662886	 0.20466937	 0.428808
C	 2.8656983966	-1.838849817	-0.249964335	-0.477502
C	 2.881852459	 0.4900227851	 1.0160673083	-0.264913
C	 1.6713764365	 0.5749672442	 1.9959909916	-0.287898
C	 0.9243748315	-0.5334527818	 1.1979647989	 0.223904
C	 0.3506182359	-1.6995045441	 1.9712594742	-0.500392
H	 0.0301759321	 2.1143094503	 0.2938011961	 0.121399
H	-0.9500334294	 1.5211431748	-1.0524821451	 0.125936
H	-1.4844689241	 1.2366734995	 0.6125481093	 0.113342
H	-0.5351538373	-0.8204371139	-0.4072105263	 0.064416
H	 3.5934649231	-1.5820726646	-1.0285030013	 0.127515
H	 3.4077842101	-2.3048929498	 0.5793569927	 0.112529
H	 2.1701013509	-2.5721001359	-0.6695082767	 0.119578
H	 3.8060337554	 0.1456133596	 1.4888953766	 0.09414
H	 3.0949440462	 1.3871508503	 0.4311036477	 0.105503
H	 1.9196493513	 0.2522400311	 3.0105491202	 0.098055
H	 1.170762905	 1.5430708686	 2.0682489636	 0.09882
H	-0.5208923291	-1.3871126619	 2.5604736791	 0.118684
H	 0.0261522946	-2.5063048256	 1.3047374721	 0.116875
H	 1.0832842633	-2.1159476253	 2.6713653106	 0.11434
68.4331	180.2996	193.9575	205.1049	212.1797	226.4519	275.4926	307.5273	344.511	405.6314	450.2074	514.391	593.2213	637.4888	685.1261	740.0065	805.6895	865.1082	885.7309	908.6088	936.143	952.785	957.7722	1017.1255	1050.5492	1089.5837	1115.8032	1147.2426	1184.1265	1192.5389	1214.5646	1218.1957	1233.2633	1265.002	1276.7515	1317.2359	1345.4368	1394.0538	1405.5603	1409.9205	1412.1542	1465.0759	1479.6987	1482.7528	1483.4464	1487.0324	1493.9891	1495.4207	1507.0701	2964.763	3017.4961	3029.2316	3035.3413	3054.8722	3064.0849	3078.259	3090.8074	3096.1694	3102.1907	3103.6062	3108.6923	3118.7909	3123.7475
CC1OC2(C)CCC12C	C[C@H]1O[C@@]2(C)CC[C@@]12C	
InChI=1S/C8H14O/c1-6-7(2)4-5-8(7,3)9-6/h6H,4-5H2,1-3H3	InChI=1S/C8H14O/c1-6-7(2)4-5-8(7,3)9-6/h6H,4-5H2,1-3H3/t6-,7+,8+/m1/s1
