17
gdb 64997	3.77592	0.91425	0.79749	3.6812	70.42	-0.2467	-0.0319	0.2148	1408.5362	0.13192	-458.970222	-458.960694	-458.95975	-459.00591	33.822	
O	-0.1393094845	 1.3749828498	-0.1771428616	-0.453369
C	-0.0228638582	-0.0046992647	 0.0220596565	 0.275759
C	-0.5116310235	-0.6089040025	 1.3281034393	-0.301969
C	-1.3287754036	-0.7733566554	 0.0853134229	-0.268281
C	 1.1183117552	-0.6937243972	-0.6654697933	 0.310536
O	 1.2940768867	-1.8901575976	-0.5604384501	-0.324767
C	 2.0420250851	 0.1798390102	-1.5059647662	-0.40057
C	 3.041044092	-0.6410945187	-2.2971573957	 0.173641
O	 4.2212114431	-0.4100396308	-2.3276305201	-0.240138
H	 0.4256716037	 1.8265691819	 0.4593199408	 0.29083
H	 0.0366274805	-1.4681218683	 1.6960582804	 0.1448
H	-0.8574464953	 0.0986621844	 2.0733319389	 0.123206
H	-2.2201422303	-0.167346846	-0.0237888797	 0.134342
H	-1.3417899589	-1.7460083948	-0.3913316354	 0.142782
H	 1.4294717909	 0.7812677204	-2.1915676966	 0.15834
H	 2.5795730743	 0.8938584386	-0.8719970025	 0.139248
H	 2.5970233228	-1.4774799693	-2.8754072777	 0.09561
37.8705	60.2136	76.7179	169.4691	251.4119	280.8631	295.8105	322.7748	403.1493	427.0025	479.1487	564.2923	606.2996	729.971	782.1401	800.829	860.7319	884.9431	948.7974	997.5709	1025.6835	1045.0605	1061.7912	1088.0036	1093.5911	1187.4592	1205.9244	1265.2857	1273.0712	1346.5915	1353.437	1414.235	1429.2391	1437.9279	1471.7242	1777.2829	1838.3771	2921.9751	3033.4779	3081.5444	3140.	3148.3432	3235.5882	3251.4671	3799.124
OC1(CC1)C(=O)CC=O	OC1(CC1)C(=O)CC=O	
InChI=1S/C6H8O3/c7-4-1-5(8)6(9)2-3-6/h4,9H,1-3H2	InChI=1S/C6H8O3/c7-4-1-5(8)6(9)2-3-6/h4,9H,1-3H2
