15
gdb 125390	3.33245	1.63662	1.10511	2.9214	73.4	-0.2147	-0.0018	0.2129	1034.0333	0.115774	-416.829951	-416.822907	-416.821963	-416.861323	27.076	
C	-0.0173470047	 1.5424378857	 0.001390897	-0.510154
C	-0.007748028	 0.0469552446	 0.0244151846	 0.080076
C	-0.0343630176	-0.7984495881	-1.0494515514	-0.089812
O	-0.0164113009	-2.1306910387	-0.7128849769	-0.21484
C	 0.0236720318	-2.1388871775	 0.6465375463	 0.269645
C	 0.0306440324	-0.851151036	 1.1457251194	 0.268047
N	 0.0710715219	-0.9878206805	 2.4962582773	-0.363295
N	 0.0899392464	-2.2955155104	 2.8704725897	-0.219115
C	 0.0611671479	-3.013094473	 1.7444165761	-0.150991
H	 0.876998582	 1.9582328895	 0.4798137188	 0.132698
H	-0.0499254648	 1.9166195471	-1.0251792768	 0.132917
H	-0.8867694136	 1.9477019405	 0.5319484438	 0.132694
H	-0.0667804573	-0.5951090606	-2.1084214438	 0.137904
H	 0.0881122716	-0.2857379698	 3.2139749379	 0.271973
H	 0.069010013	-4.0902382227	 1.7914685579	 0.122252
151.5276	179.218	232.3577	264.4341	373.258	423.154	516.487	596.8779	601.1328	666.6185	686.0149	749.0688	762.6923	798.0879	856.292	971.8764	1011.2485	1065.4333	1080.2107	1088.5078	1129.3677	1234.5004	1246.7017	1296.9973	1345.1399	1411.8222	1422.4278	1480.3342	1481.8971	1496.2948	1542.4329	1588.2706	1627.4845	3027.2281	3076.547	3114.8839	3264.0555	3265.2784	3692.5595
CC1=COC2=C1NN=C2	Cc1coc2c1[nH]nc2	
InChI=1S/C6H6N2O/c1-4-3-9-5-2-7-8-6(4)5/h2-3H,1H3,(H,7,8)	InChI=1S/C6H6N2O/c1-4-3-9-5-2-7-8-6(4)5/h2-3H,1H3,(H,7,8)
