16
gdb 80350	2.23569	1.52221	1.33409	1.4182	70.49	-0.227	0.0236	0.2506	1036.5419	0.122469	-437.782048	-437.773513	-437.772569	-437.814846	32.909	
O	 0.2143115416	 1.2881547669	 0.0568728764	-0.43207
C	-0.0052067225	-0.0793157981	-0.0071319494	 0.073342
C	-0.4675645166	-0.8753876949	 1.1785640804	-0.151034
N	-1.3457871469	 0.037360036	 1.9495077601	-0.353023
C	-2.3786001245	-0.0165414193	 0.8439915951	-0.247693
C	-2.9504499113	 1.2521477049	 0.4240826114	 0.341249
C	-3.4494354402	 2.2864940616	 0.0683294592	-0.440546
C	-1.3627732608	-0.7495259135	-0.0588805145	 0.298105
O	-1.7375184789	-1.6935013794	-0.988889151	-0.451261
H	-0.1885706219	 1.5793950945	 0.8896832921	 0.299397
H	 0.7256339488	-0.5868707491	-0.6319538743	 0.109702
H	 0.055360043	-1.7062893399	 1.6359027493	 0.106301
H	-1.7007154148	-0.390991274	 2.7972632051	 0.2348
H	-3.1781340728	-0.7232437023	 1.0943079977	 0.116329
H	-3.8726363344	 3.207297058	-0.249409046	 0.200245
H	-1.6924105677	-1.2925861914	-1.8646586317	 0.296158
103.5362	126.9365	207.3429	242.7234	283.2514	326.0037	331.1301	443.834	480.0412	512.5323	562.0503	617.1891	633.7465	656.1755	667.5976	782.1224	824.5951	844.7195	913.8299	929.6336	982.9464	1009.3073	1062.3961	1090.2263	1130.1595	1165.5199	1221.9347	1231.4361	1289.786	1323.1385	1354.1666	1363.4977	1406.4734	1487.7292	2233.5573	3041.6107	3153.04	3190.884	3502.2031	3537.2399	3704.7597	3786.7934
OC1C2NC(C#C)C12O	O[C@H]1[C@H]2N[C@@H](C#C)[C@@]12O	
InChI=1S/C6H7NO2/c1-2-3-6(9)4(7-3)5(6)8/h1,3-5,7-9H	InChI=1S/C6H7NO2/c1-2-3-6(9)4(7-3)5(6)8/h1,3-5,7-9H/t3-,4+,5-,6-/m0/s1
