14
gdb 128607	2.27295	1.59427	0.94267	3.8677	73.27	-0.2392	-0.0352	0.204	1169.7627	0.099526	-436.625439	-436.617294	-436.61635	-436.658477	29.585	
C	-0.0461238363	 1.3288098231	 0.0682063188	-0.259222
O	-0.0005901571	-0.0891351453	 0.007566762	-0.252885
C	 0.6154107823	-0.5947800638	-1.0722624874	 0.157559
C	 1.2172993698	-0.0082291008	-2.1426780392	-0.08833
O	 1.6928947853	-0.9677750998	-2.968424809	-0.160579
N	 1.4107892413	-2.2107639206	-2.4532352362	-0.199875
C	 0.7661903949	-1.9998285278	-1.3183249405	 0.163848
C	 0.3124261243	-3.0629700994	-0.5025776782	 0.272909
C	-0.0867366454	-3.9418752546	 0.2140306131	-0.395481
H	 0.9660644664	 1.7533268919	 0.0910162275	 0.129461
H	-0.5909543019	 1.7410591094	-0.7911383538	 0.129461
H	-0.5700824828	 1.584370804	 0.9894393664	 0.14753
H	 1.3828983202	 1.0101678623	-2.4492976093	 0.153997
H	-0.4357216812	-4.7254006586	 0.8402077559	 0.201607
94.7245	118.6911	165.3504	212.4335	236.3896	344.1338	396.4314	486.5142	555.9963	601.3626	613.6132	614.5743	671.8795	730.4888	741.8703	771.6069	922.7377	974.6734	1065.8403	1138.1979	1180.943	1213.5308	1236.5757	1305.7998	1412.9661	1466.9614	1486.819	1501.6054	1510.097	1658.0286	2247.0428	3005.1828	3065.4047	3148.4367	3286.5278	3503.4043
COC1=CON=C1C#C	COc1conc1C#C	
InChI=1S/C6H5NO2/c1-3-5-6(8-2)4-9-7-5/h1,4H,2H3	InChI=1S/C6H5NO2/c1-3-5-6(8-2)4-9-7-5/h1,4H,2H3
