16
gdb 127714	3.38759	1.30438	0.95304	5.0705	81.93	-0.2304	-0.0052	0.2253	1193.7671	0.123306	-396.909887	-396.900965	-396.900021	-396.943576	31.897	
C	 0.0063529034	 1.4502144712	-0.0190457778	-0.335582
N	 0.0042303222	 0.0051190209	 0.0665861127	 0.007843
N	-0.0331693938	-0.7383974671	-1.0682242994	-0.156003
N	-0.0267117027	-1.9863750335	-0.7250317995	-0.274207
C	 0.0148677535	-2.0706186961	 0.6447638049	 0.124838
C	 0.0325362616	-3.2913402578	 1.3561075098	 0.286614
C	 0.0481453973	-4.3184625322	 1.9839162502	-0.451458
C	 0.0354198168	-0.7850217617	 1.1651410551	 0.207597
C	 0.0806480186	-0.2883262932	 2.5670008156	-0.52106
H	 0.912409743	 1.8649648881	 0.4322201943	 0.147978
H	-0.0239310303	 1.708516464	-1.0772630919	 0.174918
H	-0.8689559108	 1.8707708722	 0.4845395427	 0.147995
H	 0.0611601304	-5.2317893454	 2.5252057686	 0.194381
H	 0.9756736317	 0.3151464505	 2.7570488356	 0.14265
H	-0.7914060789	 0.3299900153	 2.8088466604	 0.142461
H	 0.0936866878	-1.1396619052	 3.2501861187	 0.161035
108.2723	121.4879	128.8857	135.779	245.3324	249.6602	262.5564	383.3773	493.7066	537.3707	566.3873	570.9064	677.1022	678.5197	706.1008	754.9189	767.413	989.0869	1014.7697	1063.5157	1145.9303	1151.2177	1201.1951	1248.8783	1321.611	1377.2358	1418.0119	1443.6153	1468.5878	1479.4602	1490.4878	1499.4192	1522.3424	1590.1762	2237.8987	3030.5399	3046.9506	3081.8444	3110.633	3135.6226	3165.0897	3503.2603
CN1N=NC(C#C)=C1C	Cn1nnc(C#C)c1C	
InChI=1S/C6H7N3/c1-4-6-5(2)9(3)8-7-6/h1H,2-3H3	InChI=1S/C6H7N3/c1-4-6-5(2)9(3)8-7-6/h1H,2-3H3
