21
gdb 95281	2.04444	1.82513	1.39687	2.3936	77.11	-0.2411	0.0672	0.3083	1054.7501	0.183204	-424.226188	-424.217603	-424.216659	-424.25889	33.666	
C	-0.2284566659	 1.4817625498	-0.0690513769	-0.497944
C	 0.0073427774	-0.0171171956	-0.0107581174	 0.299566
C	-1.1529601376	-0.8844737964	 0.5279579949	-0.11523
O	-0.3108007258	-1.469817608	 1.546141596	-0.304929
C	 0.8123462615	-0.6401467595	 1.1682509999	 0.093349
C	 1.9546351959	-1.4600631237	 0.5690666103	-0.23179
C	 1.4215859168	-1.8530382859	-0.8200005449	-0.265891
C	 0.661624328	-0.5936964977	-1.2822273015	 0.080893
O	-0.3358670831	-0.8158426193	-2.2663959568	-0.444597
H	 0.7106714245	 2.0256576388	-0.2230854127	 0.111733
H	-0.8967788269	 1.7308102255	-0.9006879332	 0.131911
H	-0.6844292061	 1.8526514292	 0.8544620417	 0.116274
H	-1.9795671714	-0.3106016501	 0.9663837804	 0.092048
H	-1.5583402384	-1.6307825112	-0.1625123242	 0.113401
H	 1.1161497933	 0.019797513	 1.9893252548	 0.062595
H	 2.8476398664	-0.8281975458	 0.4813139323	 0.095337
H	 2.2125224967	-2.3172604519	 1.1970796648	 0.111337
H	 2.2076741564	-2.1542290048	-1.5192371817	 0.086875
H	 0.713315007	-2.6833326275	-0.7319616308	 0.120303
H	 1.3927709684	 0.1468214572	-1.6495646988	 0.060191
H	 0.088541813	-1.1810618261	-3.0486820562	 0.28457
102.5438	189.0733	213.2185	236.3615	259.5823	266.5302	305.9282	379.4058	421.5221	527.2189	551.5387	616.9495	658.2128	817.6952	839.6373	875.452	911.3413	923.776	960.3193	982.5302	1009.4222	1014.9576	1035.4951	1076.8604	1105.3077	1137.0639	1155.423	1169.4849	1178.6289	1224.9315	1247.7908	1284.0451	1291.5326	1303.6323	1328.9486	1341.0479	1364.3959	1383.573	1409.6684	1435.2313	1472.3122	1492.7817	1495.487	1497.6062	1530.5931	2949.2711	3013.1032	3024.4509	3027.1126	3042.0023	3050.1004	3077.1459	3090.8164	3092.3571	3100.5917	3101.5639	3823.5704
CC12COC1CCC2O	C[C@]12CO[C@H]1CC[C@H]2O	
InChI=1S/C7H12O2/c1-7-4-9-6(7)3-2-5(7)8/h5-6,8H,2-4H2,1H3	InChI=1S/C7H12O2/c1-7-4-9-6(7)3-2-5(7)8/h5-6,8H,2-4H2,1H3/t5-,6+,7-/m1/s1
