20
gdb 54306	2.64755	1.34641	1.05655	2.4568	79.57	-0.2457	-0.0187	0.227	1209.8845	0.169832	-403.128036	-403.11881	-403.117866	-403.162335	34.567	
C	-0.2564009317	 1.4550494168	 0.2778725662	-0.512202
C	-0.0483743451	-0.0544695438	 0.2538716773	 0.346132
O	-0.1045723467	-0.7005585401	 1.2766705015	-0.304239
C	 0.262555117	-0.7340482479	-1.0588450709	 0.185027
C	-0.6640492988	-0.4246580975	-2.202518656	-0.268241
N	 0.7095605965	 0.0645452816	-2.2165483837	-0.348104
C	 0.8679483151	-2.101932783	-0.9262257247	-0.037548
C	 1.5053930222	-2.7854426241	-2.1055093129	-0.286453
C	 2.365796947	-2.2728878489	-0.9778665097	-0.260084
H	 0.7170099842	 1.9580592344	 0.2229720357	 0.149728
H	-0.8672930127	 1.8273202016	-0.5495841225	 0.132776
H	-0.724806416	 1.7233385161	 1.2254130026	 0.151113
H	-0.874432601	-1.2255523068	-2.9051167901	 0.134609
H	-1.478770697	 0.2778631907	-2.0503990605	 0.119078
H	 0.7432447343	 1.0538679903	-1.9884026633	 0.235463
H	 0.3396965477	-2.7263691396	-0.2154916389	 0.102535
H	 1.3631703021	-3.8556318936	-2.2072883428	 0.106947
H	 1.5492687541	-2.237116998	-3.0397310467	 0.127155
H	 2.961119299	-1.3896350665	-1.1819552581	 0.113809
H	 2.8234075797	-2.9832563218	-0.2989581025	 0.1125
66.5286	75.1311	148.1097	179.3222	209.967	276.2933	305.3476	366.5018	447.3039	470.0419	558.8376	612.2355	652.5451	787.3286	805.8858	824.9334	854.0194	905.845	926.4353	957.625	962.6405	1001.1875	1016.8155	1058.9518	1065.8625	1090.9472	1110.9647	1128.1862	1140.4753	1165.9933	1201.0484	1226.653	1258.0935	1304.1859	1342.0243	1381.4966	1427.4145	1458.5152	1465.2944	1480.5502	1500.8242	1510.3072	1790.3012	3035.1137	3100.5844	3114.4871	3135.5349	3138.5438	3151.1595	3182.2044	3202.5741	3217.6771	3231.9512	3518.9299
CC(=O)C1(CN1)C1CC1	CC(=O)[C@]1(CN1)C1CC1	
InChI=1S/C7H11NO/c1-5(9)7(4-8-7)6-2-3-6/h6,8H,2-4H2,1H3	InChI=1S/C7H11NO/c1-5(9)7(4-8-7)6-2-3-6/h6,8H,2-4H2,1H3/t7-/m1/s1
