17
gdb 34963	3.12417	1.6033	1.52735	3.9678	74.7	-0.2293	0.0065	0.2358	929.2035	0.138795	-380.818137	-380.811417	-380.810473	-380.849215	26.967	
N	-0.2117002324	-1.1968147466	-0.1657249126	-0.337894
C	-0.1312979185	-0.0454797571	-0.0911177398	 0.295596
C	-0.0145754939	 1.4012309736	 0.0392628231	-0.112086
C	-0.2842812412	 2.0514718672	 1.4210395082	-0.065715
C	 0.4424147271	 1.3277708635	 2.5834776367	-0.246189
C	 1.8006754942	 1.9228788194	 2.1197021051	-0.046572
C	 2.3390295628	 1.2466372506	 0.8442900513	-0.186181
N	 1.3744192693	 1.9959854286	-0.0407201171	-0.163439
C	 1.0165866996	 2.8743776581	 1.1607888921	 0.006621
H	-0.622332678	 1.8689252711	-0.7428081896	 0.130795
H	-1.2796044888	 2.4582340376	 1.5975513272	 0.08511
H	 0.1373759865	 1.7609986781	 3.5398127298	 0.113234
H	 0.3505841911	 0.2393873145	 2.6439880619	 0.121943
H	 2.5094758099	 2.2405411244	 2.8841710778	 0.075633
H	 3.3536798139	 1.5684190761	 0.5920535962	 0.117101
H	 2.2878267078	 0.1559737478	 0.7704313073	 0.129463
H	 1.1031223305	 3.955733893	 1.0705978524	 0.08258
122.0042	153.2334	313.8059	338.1497	417.0385	539.8721	561.8749	606.237	680.2666	768.534	811.0342	833.0849	853.969	890.4084	937.4559	943.2446	972.9623	995.7239	1007.0701	1043.4405	1058.9069	1098.9466	1128.3889	1158.9222	1184.492	1201.802	1208.1408	1232.0848	1244.0027	1276.8853	1294.8921	1317.9158	1330.5159	1351.0266	1485.8239	1504.7674	2347.9647	3047.808	3049.9699	3054.7667	3098.535	3103.8822	3109.5825	3112.2415	3132.4937
N#CC1C2CC3CN1C23	N#C[C@H]1[C@H]2C[C@H]3CN1[C@@H]23	
InChI=1S/C7H8N2/c8-2-6-5-1-4-3-9(6)7(4)5/h4-7H,1,3H2	InChI=1S/C7H8N2/c8-2-6-5-1-4-3-9(6)7(4)5/h4-7H,1,3H2/t4-,5+,6-,7+/m0/s1
