20
gdb 82814	2.35365	1.96004	1.49436	2.4084	77.67	-0.2013	0.0691	0.2703	978.4636	0.171928	-403.08728	-403.079416	-403.078471	-403.119038	31.698	
C	 0.0369019186	 1.562817791	 0.0786621168	-0.512038
C	-0.0405509105	 0.0550944804	 0.0151767228	 0.314946
C	 0.3430453341	-0.6728969786	-1.2913514485	-0.217572
N	-0.7801587548	-1.6616529807	-1.1564434188	-0.147922
C	-0.3999750842	-2.7298539182	-0.1687792937	-0.17231
C	-0.6986371846	-1.8142114919	 1.029322062	-0.111803
C	 0.4221713534	-0.7576967532	 1.2510439971	 0.084741
O	 1.7751719676	-1.1499278039	 1.2190680604	-0.432695
C	-1.3361017445	-0.8311465204	-0.0034643408	-0.049895
H	 1.0819507456	 1.895288845	 0.0839283856	 0.127097
H	-0.4544289627	 2.0235301125	-0.7853630282	 0.116986
H	-0.4399957763	 1.9542557398	 0.9843903298	 0.111493
H	 0.1749797559	-0.0453165229	-2.1736850384	 0.096608
H	 1.3436630906	-1.1108314695	-1.3504430875	 0.1138
H	-1.0997382152	-3.5681993416	-0.2460699931	 0.100578
H	 0.6232614274	-3.1065220625	-0.268853121	 0.104342
H	-1.1916939139	-2.2250632118	 1.9120874138	 0.05982
H	 0.1968774081	-0.1790264053	 2.1600851668	 0.063368
H	 1.9772540251	-1.6299924656	 2.0285624893	 0.285067
H	-2.3680395697	-0.4826546225	-0.0329768544	 0.06539
166.6021	196.4514	228.6883	242.3344	259.0389	299.0999	428.5182	459.7276	561.8173	580.6557	620.1793	749.7158	808.1584	818.0579	843.7365	890.4202	908.6378	941.8373	963.3225	976.2763	998.2083	1025.6135	1049.0237	1120.8685	1143.5248	1154.1519	1166.7557	1186.1643	1198.567	1202.5191	1221.7003	1255.7919	1268.4483	1270.8959	1317.3553	1328.5749	1359.4621	1410.9858	1426.1859	1487.6294	1492.7134	1494.4766	1506.2214	2978.5038	3020.2333	3031.1181	3036.8615	3083.0402	3085.0042	3088.1781	3090.88	3093.4562	3115.7766	3815.5432
CC12CN3CC(C1O)C23	C[C@@]12CN3C[C@@H]([C@H]1O)[C@@H]23	
InChI=1S/C7H11NO/c1-7-3-8-2-4(5(7)8)6(7)9/h4-6,9H,2-3H2,1H3	InChI=1S/C7H11NO/c1-7-3-8-2-4(5(7)8)6(7)9/h4-6,9H,2-3H2,1H3/t4-,5+,6-,7+/m1/s1
