18
gdb 59932	2.2681	1.00466	0.82698	5.9607	77.55	-0.2676	-0.0021	0.2656	1444.0302	0.147016	-398.151155	-398.141159	-398.140215	-398.186625	35.448	
C	-0.0700932907	 1.5840387942	-0.0638306724	-0.403195
C	 0.0275528701	 0.1014147615	 0.3182245454	 0.017233
N	 0.1764605531	-0.1476908984	 1.7592954815	-0.511391
H	 1.09687853	 0.142434645	 2.0733267284	 0.239484
H	-0.4931485753	 0.4146304502	 2.2795779007	 0.228935
H	-0.798446628	-2.2775978126	 1.1719895127	 0.193595
C	-1.2001059371	-0.6728607361	-0.1861551646	-0.183115
C	-1.0786608999	-2.1932490048	 0.1130201639	-0.281712
C	-0.0056473682	-2.8115336846	-0.677714548	 0.299304
N	 0.8619595143	-3.2594892243	-1.2941992133	-0.317186
C	-2.3516794105	-2.8902637386	-0.0987552829	 0.290436
N	-3.3744914109	-3.4049450801	-0.2475243587	-0.308432
H	 0.81227281	 2.1287090348	 0.2858446076	 0.119276
H	-0.1415598758	 1.7181449267	-1.1483666549	 0.126152
H	-0.9542111719	 2.0464181052	 0.3915382627	 0.116475
H	 0.9158673018	-0.3246554143	-0.1646669495	 0.115109
H	-2.1014467922	-0.3102742867	 0.3208282324	 0.124179
H	-1.3436218091	-0.518501097	-1.2587827209	 0.134852
53.3904	89.925	121.9974	135.698	228.301	241.9276	269.7153	281.1757	338.3298	389.3021	447.0716	451.9741	515.1805	585.5439	597.6459	809.1736	842.9233	887.6329	931.0468	954.4317	1004.8501	1038.1286	1052.6619	1095.4989	1167.1355	1185.3326	1241.8699	1303.4629	1330.7818	1352.5477	1383.4932	1408.5226	1418.4424	1478.5899	1494.2257	1497.2122	1658.3779	2365.7052	2371.7475	3025.1888	3032.0947	3036.0648	3052.8127	3094.8482	3106.9231	3110.9415	3483.0102	3569.7792
CC([NH3+])C[C-](C#N)C#N	C[C@@H](N)CC(C#N)C#N	
InChI=1S/C6H8N3/c1-5(9)2-6(3-7)4-8/h5H,2,9H2,1H3/q-1/p+1	InChI=1S/C6H9N3/c1-5(9)2-6(3-7)4-8/h5-6H,2,9H2,1H3/t5-/m1/s1
