17
gdb 16404	3.43203	2.2032	1.72077	2.8072	67.27	-0.217	-0.0094	0.2076	798.1467	0.145049	-363.862988	-363.856391	-363.855447	-363.893975	25.996	
O	-0.0287022534	 0.0746827731	-0.4850794979	-0.330844
C	 0.0028211095	 1.2057891251	-0.0648777977	 0.406916
C	-1.2695643417	 1.9127411256	 0.4380019893	-0.278082
N	-1.1126733328	 3.343687561	 0.7615606755	-0.296844
C	 0.2681817182	 3.8165249953	 0.6951373812	 0.016962
C	 0.9871921474	 3.4158853707	-0.6304878899	-0.244538
C	 1.2585564262	 2.0372217951	 0.0572988047	-0.115499
C	 1.1975026072	 2.8077541431	 1.4143457785	-0.231958
H	-2.0543621371	 1.756652298	-0.3081623391	 0.13078
H	-1.5905464875	 1.353497687	 1.328768657	 0.137917
H	-1.6787425712	 3.8967901238	 0.1286609387	 0.220951
H	 0.297219191	 4.8643502507	 1.0021005006	 0.073388
H	 0.4030550987	 3.4296205349	-1.5555263122	 0.097715
H	 1.9217050008	 3.9629755401	-0.7823808504	 0.107893
H	 2.1414604291	 1.4572672357	-0.2112073746	 0.082374
H	 2.1660096149	 3.2525825157	 1.6515127684	 0.112016
H	 0.8052757307	 2.2926394049	 2.2947119378	 0.110854
62.5714	183.0601	381.1727	399.2089	446.6833	454.3535	546.5763	594.2595	721.8684	758.6171	811.6524	856.8691	879.148	906.3763	934.0526	947.1465	995.9181	1028.4664	1067.0174	1073.9583	1098.9348	1136.0421	1175.1729	1232.7199	1244.8577	1249.5863	1264.8697	1273.7698	1315.658	1327.9967	1382.5396	1469.0318	1473.2296	1477.5605	1508.5941	1824.571	3004.7838	3048.2293	3065.9035	3080.6111	3082.7695	3106.1374	3116.7544	3126.2354	3533.6507
O=C1CNC2CC1C2	O=C1CN[C@@H]2C[C@H]1C2	
InChI=1S/C6H9NO/c8-6-3-7-5-1-4(6)2-5/h4-5,7H,1-3H2	InChI=1S/C6H9NO/c8-6-3-7-5-1-4(6)2-5/h4-5,7H,1-3H2/t4-,5+
