18
gdb 15876	2.23926	2.13356	1.24097	4.2173	68.34	-0.239	-0.0165	0.2224	998.9944	0.15195	-384.935387	-384.926672	-384.925727	-384.968933	31.479	
C	-0.0062252926	 1.5783250142	-0.008321027	-0.413581
C	 0.0959420239	 0.0601313851	 0.0415188813	 0.032717
C	 1.0557034767	-0.6792382698	-0.9296974537	-0.286724
C	 1.3680097923	-1.674336199	 0.2177997027	 0.135219
O	 2.7003807811	-2.0653956543	 0.4534517615	-0.429367
C	 0.8254565781	-0.6472026561	 1.249937354	-0.149413
C	 1.906313266	 0.1985589392	 1.8767559624	 0.182293
O	 1.9102802398	 0.5235790526	 3.037752292	-0.264796
H	 0.9777391379	 2.0562305606	 0.031564748	 0.120476
H	-0.4913841834	 1.8993203034	-0.9364396466	 0.118449
H	-0.5978070054	 1.9636234155	 0.8288183295	 0.12922
H	-0.9069652593	-0.3721086219	-0.034711976	 0.086246
H	 0.644612722	-1.0741545718	-1.8622121026	 0.096702
H	 1.9395299993	-0.0741594995	-1.1566835256	 0.109361
H	 0.6985703657	-2.544621916	 0.1738217857	 0.077874
H	 2.9620951054	-2.693538302	-0.2270663361	 0.287444
H	 0.1889656994	-1.0285732541	 2.0502288071	 0.086787
H	 2.7167165432	 0.5295988741	 1.1929707634	 0.081092
59.8245	87.6695	184.143	209.2449	241.1928	255.7788	318.3057	396.8131	438.2972	467.7191	512.1748	629.2874	758.0442	868.6706	877.8764	932.2641	969.7445	986.3893	1017.738	1067.471	1123.67	1129.5206	1147.1073	1176.1548	1212.8793	1239.2452	1256.2527	1273.6687	1313.8978	1334.6252	1369.7004	1410.9932	1426.4059	1440.6438	1490.5799	1495.0302	1496.1983	1822.878	2899.1451	3000.687	3031.3231	3047.2475	3051.3387	3098.0908	3099.7289	3102.5628	3109.655	3820.4017
CC1CC(O)C1C=O	C[C@H]1C[C@@H](O)[C@H]1C=O	
InChI=1S/C6H10O2/c1-4-2-6(8)5(4)3-7/h3-6,8H,2H2,1H3	InChI=1S/C6H10O2/c1-4-2-6(8)5(4)3-7/h3-6,8H,2H2,1H3/t4-,5-,6+/m0/s1
