23
gdb 62875	2.68664	1.52579	1.12639	1.418	86.24	-0.2521	0.0815	0.3336	1175.5532	0.204256	-388.22554	-388.215974	-388.21503	-388.259004	38.116	
C	-0.1663686889	 1.7291661849	 0.5067754587	-0.46585
C	-0.0953385144	 0.1897337298	 0.5038371983	 0.385602
C	-1.5597221604	-0.2809604613	 0.3623767624	-0.486058
C	 1.0027885158	-0.5344073714	-0.3539419193	-0.179108
C	 2.0737640345	 0.0825398421	 0.5954300763	-0.241347
C	 0.9351547532	-0.4504061436	 1.5298931916	-0.159038
C	 0.9785467656	-1.7480345962	 0.6710957353	 0.483987
C	-0.1094967738	-2.8243155285	 0.7693227595	-0.51145
O	 2.2245306035	-2.4393307462	 0.7832007819	-0.478202
H	 0.7521427625	 2.2433056253	 0.7851598862	 0.11596
H	-0.472783626	 2.0990591508	-0.4786840622	 0.114113
H	-0.9372753747	 2.0468244824	 1.2184470953	 0.113102
H	-1.6780009235	-1.1908733371	-0.2235137456	 0.121118
H	-2.0390633964	-0.4341195153	 1.3362258036	 0.117514
H	-2.1377310587	 0.4938770994	-0.1511398971	 0.107239
H	 1.0425298674	-0.5982849144	-1.4456420454	 0.053605
H	 3.0199381947	-0.4435045853	 0.6567504483	 0.120454
H	 2.2236573795	 1.1558692742	 0.5396612598	 0.086314
H	 0.8938708846	-0.3967630822	 2.6211524662	 0.06147
H	-0.3147723125	-3.2806987724	-0.2072450913	 0.11148
H	 0.2702963634	-3.608254642	 1.4309642518	 0.121519
H	-1.0533329965	-2.4824534607	 1.1837351608	 0.133207
H	 2.2087383411	-3.1615684822	 0.1473300549	 0.274369
106.5198	125.8155	189.4593	210.086	231.7873	259.3929	352.7593	357.6685	368.6308	442.4278	463.1504	509.38	562.2197	586.7492	655.2949	697.769	737.907	799.561	864.1652	890.4911	935.7393	962.8898	975.7022	1007.1339	1009.2916	1031.4734	1060.3631	1072.407	1108.5443	1120.6094	1143.6441	1166.9201	1176.3553	1200.6613	1210.4785	1221.8481	1242.6013	1291.8613	1375.508	1403.8488	1410.6924	1424.9373	1484.9988	1486.4662	1495.9325	1504.5585	1510.0935	1535.1271	1541.4776	3029.5186	3031.0405	3036.5661	3062.7989	3075.8721	3080.9634	3086.9198	3096.1661	3130.9575	3147.0614	3154.1063	3184.456	3203.9214	3814.2336
CC1(C)C2CC1C2(C)O	CC1(C)[C@H]2C[C@@H]1[C@]2(C)O	
InChI=1S/C8H14O/c1-7(2)5-4-6(7)8(5,3)9/h5-6,9H,4H2,1-3H3	InChI=1S/C8H14O/c1-7(2)5-4-6(7)8(5,3)9/h5-6,9H,4H2,1-3H3/t5-,6+,8-
