17
gdb 51012	1.98997	1.66813	1.07761	4.4488	69.55	-0.2708	0.0082	0.279	1135.9622	0.133898	-458.941666	-458.933133	-458.932189	-458.975235	31.264	
O	 0.6763381787	 0.0150115574	 0.1281887888	-0.275385
C	 0.7240529753	 1.1787100388	 0.3847044197	 0.165724
O	 0.6178254262	 2.1269666904	-0.5873408647	-0.238897
C	 0.7998512466	 3.4699766812	-0.1909633484	 0.381796
C	-0.1655619032	 4.4468210162	-0.7929024783	-0.314053
C	-0.2604970804	 4.1071328443	 0.6760654155	-0.32444
C	 2.2367820362	 3.858278409	-0.0292805029	 0.038875
O	 3.0627572294	 2.9403316125	 0.6856788945	-0.239703
C	 3.3199339322	 3.1439012558	-0.7125883832	-0.19275
H	 0.8345416555	 1.6077049252	 1.3926234133	 0.102742
H	 0.2091288334	 5.4223399175	-1.0821740219	 0.125403
H	-0.9144033253	 4.0290712846	-1.4549735286	 0.142125
H	-1.0858468927	 3.4790433397	 0.9904460171	 0.13571
H	 0.053679188	 4.8444009853	 1.4065919594	 0.130217
H	 2.3855279666	 4.9061712481	 0.2350250688	 0.097381
H	 3.0776976807	 2.3003367753	-1.3535969763	 0.142136
H	 4.2470593429	 3.6664607888	-0.9394795127	 0.123117
81.6422	96.7789	179.3517	214.9641	230.5523	244.5957	321.235	406.5041	480.0685	550.2925	579.9019	754.7003	784.9639	854.7759	886.0691	920.3713	959.3901	976.5905	1009.7368	1019.075	1036.9861	1065.6858	1083.5832	1104.0478	1144.246	1161.9047	1168.6563	1191.2356	1269.7936	1295.6669	1316.4511	1421.0879	1445.7803	1456.3129	1494.1133	1525.3156	1866.3546	3023.7713	3099.2098	3105.698	3140.3894	3144.0624	3197.6669	3225.6631	3239.2346
O=COC1(CC1)C1OC1	O=COC1(CC1)[C@H]1OC1	
InChI=1S/C6H8O3/c7-4-9-6(1-2-6)5-3-8-5/h4-5H,1-3H2	InChI=1S/C6H8O3/c7-4-9-6(1-2-6)5-3-8-5/h4-5H,1-3H2/t5-/m0/s1
