19
gdb 54827	2.68886	1.3057	1.13072	3.5832	77.39	-0.2283	-0.0112	0.2171	1185.5592	0.156898	-423.004353	-422.995161	-422.994217	-423.038724	33.635	
C	 0.4526513428	 1.3639676166	 0.0175653085	-0.482424
C	 0.0574929505	-0.0970044859	 0.1661215852	 0.387743
O	-0.135865177	-0.5934049938	 1.2555441726	-0.316137
C	-0.0475049457	-0.8602061387	-1.1146083477	-0.211763
C	 0.8182156125	-2.0819965514	-1.4406236669	 0.055117
O	 1.1082862882	-2.8612621859	-0.2996152918	-0.27518
C	-0.3120348424	-3.1465871689	-0.1287740474	-0.122423
C	-0.6704120706	-2.2395417103	-1.3152473928	 0.222239
C	-1.7606576842	-2.5031309128	-2.3120747745	-0.496887
H	 1.3908117842	 1.4532176333	-0.5415998893	 0.138983
H	-0.3109830994	 1.9076081536	-0.5512438893	 0.135543
H	 0.5642479255	 1.8169920036	 1.0031716192	 0.140925
H	-0.1620918685	-0.2350479969	-1.9983035685	 0.09003
H	 1.5151717532	-2.1021668573	-2.2719215971	 0.109613
H	-0.5069161999	-4.2020328958	-0.3506879841	 0.102795
H	-0.6727872456	-2.8712755398	 0.860953247	 0.143301
H	-2.7461405744	-2.2725873279	-1.8909316978	 0.130646
H	-1.6345412835	-1.8891782725	-3.2094338244	 0.122461
H	-1.7659150156	-3.5537614791	-2.6226756211	 0.125416
46.6637	119.3415	139.0388	182.952	200.0561	245.1313	306.8076	341.8067	416.4758	434.3986	594.9283	623.8012	646.6612	765.4677	815.0825	874.7707	907.7239	924.9566	967.6289	982.2876	1006.2815	1014.5142	1044.5702	1073.7387	1084.4025	1126.6295	1170.654	1186.8728	1244.3879	1253.7446	1297.9731	1365.8261	1379.5206	1417.5545	1461.9415	1472.8034	1477.9345	1486.7655	1493.7478	1498.092	1792.1588	3025.6359	3032.6252	3040.0657	3087.1664	3092.9859	3100.6092	3130.6815	3151.6635	3152.6203	3170.1851
CC(=O)C1C2OCC12C	CC(=O)[C@H]1[C@H]2OC[C@@]12C	
InChI=1S/C7H10O2/c1-4(8)5-6-7(5,2)3-9-6/h5-6H,3H2,1-2H3	InChI=1S/C7H10O2/c1-4(8)5-6-7(5,2)3-9-6/h5-6H,3H2,1-2H3/t5-,6+,7-/m0/s1
