13
gdb 14293	3.87983	1.97306	1.89062	4.2551	52.96	-0.2534	0.0402	0.2936	735.0302	0.096564	-435.752968	-435.746386	-435.745442	-435.783755	24.609	
O	-0.212583799	 1.4282493469	 0.0473006027	-0.416476
C	-0.0825160364	 0.0486900158	 0.0008526086	 0.06245
C	-1.3545720722	-0.7937344398	 0.0416996062	-0.084627
N	-2.5660964928	-0.1433640012	-0.341459631	-0.350679
C	-2.4605080689	 0.4463289181	-1.5874202288	 0.473396
O	-3.2200744648	 1.1934550606	-2.1293519953	-0.374925
O	-1.2786477273	 0.0154531641	-2.1665396112	-0.24487
C	-0.532886909	-0.7168774546	-1.2231880409	 0.010118
H	 0.1241226266	 1.7986139873	-0.7766758354	 0.305477
H	 0.7747715899	-0.3682924645	 0.5285673863	 0.106018
H	-1.4318117919	-1.6786686013	 0.6617619368	 0.119347
H	-3.1525950952	 0.3276906961	 0.3290410419	 0.270949
H	 0.0342282411	-1.5300095773	-1.65754335	 0.123823
126.1135	148.0522	263.7282	283.7286	470.8345	496.0161	578.1508	669.7379	716.9887	763.3335	767.8876	795.9546	805.4235	905.8106	976.0954	1053.3919	1058.475	1088.3925	1132.621	1137.872	1202.3991	1222.6301	1330.7742	1357.8797	1368.1564	1390.8445	1432.6541	1906.1275	3111.6534	3181.8183	3199.7387	3647.2445	3796.1413
OC1C2NC(=O)OC12	O[C@H]1[C@H]2NC(=O)O[C@@H]12	
InChI=1S/C4H5NO3/c6-2-1-3(2)8-4(7)5-1/h1-3,6H,(H,5,7)	InChI=1S/C4H5NO3/c6-2-1-3(2)8-4(7)5-1/h1-3,6H,(H,5,7)/t1-,2+,3-/m1/s1
