18
gdb 7561	2.94896	1.76124	1.60695	1.6875	67.44	-0.2314	-0.0146	0.2168	920.0122	0.151026	-384.948511	-384.939565	-384.938621	-384.983029	31.58	
C	 0.0617034376	 1.4681884974	 0.188343382	-0.473024
C	 0.0689629043	 0.0069235156	-0.2026881259	 0.327196
O	 1.0322014358	-0.5472130762	-0.6817976269	-0.314381
C	-1.2295128052	-0.7810482404	 0.0148485471	 0.333009
C	-1.9223919712	-0.9935463632	-1.3260785113	-0.437404
C	-1.0700239311	-2.025408048	 0.9244487166	-0.318038
C	-1.9646269339	-1.2476766755	 1.9076026908	-0.072272
O	-2.1038398671	-0.1435662018	 0.9846721678	-0.320314
H	 0.9939110803	 1.9374461236	-0.1277611757	 0.135094
H	-0.7981978703	 1.9822359653	-0.253730177	 0.145123
H	-0.0605314009	 1.5597733006	 1.2721748719	 0.150766
H	-1.2537560383	-1.5257855831	-2.0085188175	 0.142476
H	-2.8370613489	-1.5767282808	-1.1874338643	 0.121096
H	-2.1939064984	-0.0346030112	-1.7798017564	 0.126423
H	-1.5101743784	-2.9364142429	 0.515739235	 0.113494
H	-0.050535485	-2.2330974809	 1.2492821926	 0.127244
H	-2.9332330626	-1.702682113	 2.1423098425	 0.108122
H	-1.4831445066	-0.9379387257	 2.8431890387	 0.105391
25.7775	79.9406	121.2159	208.5357	228.5827	242.7329	299.0858	344.3696	462.5938	505.1384	597.0602	634.6269	776.8873	827.6218	879.0217	904.3218	966.3824	978.7332	988.3046	1016.4185	1033.0786	1141.6147	1151.2391	1168.5576	1201.0636	1209.7124	1259.4567	1294.5439	1350.8746	1380.5037	1393.7774	1450.6456	1464.7293	1482.5095	1488.2559	1496.374	1531.6212	1806.0005	3021.507	3037.0458	3046.6464	3064.3734	3086.3647	3107.3808	3110.0997	3126.1088	3144.5955	3156.703
CC(=O)C1(C)CCO1	CC(=O)[C@@]1(C)CCO1	
InChI=1S/C6H10O2/c1-5(7)6(2)3-4-8-6/h3-4H2,1-2H3	InChI=1S/C6H10O2/c1-5(7)6(2)3-4-8-6/h3-4H2,1-2H3/t6-/m1/s1
