19
gdb 26191	3.77339	1.00579	0.81923	0.7062	80.07	-0.1738	0.0423	0.2161	1397.2819	0.159903	-419.238513	-419.229068	-419.228123	-419.272736	35.677	
C	 0.2514150678	 1.2753544511	-0.5193717127	-0.397715
C	-0.0157284427	-0.009734701	 0.2622242049	 0.007606
O	 0.2688456371	 0.1469258994	 1.6595699363	-0.4326
C	-1.4113856036	-0.5324872009	 0.0720833501	 0.31663
C	-2.3569809352	-0.352936002	-0.9194852514	-0.333092
C	-3.4922736442	-1.1479632644	-0.5847669134	 0.259471
N	-4.7053464211	-1.1834527989	-1.3039747505	-0.606569
C	-3.2058393508	-1.7869888899	 0.6041432898	-0.171328
N	-1.9368748653	-1.4030819128	 0.985252225	-0.296177
H	 1.269114313	 1.6218773751	-0.3228612763	 0.121308
H	 0.1418105694	 1.1091906972	-1.5952358569	 0.124321
H	-0.4531947773	 2.0614149706	-0.226690972	 0.115269
H	 0.7135193442	-0.7678578624	-0.0556011238	 0.100258
H	-0.3408577776	 0.8147009147	 1.9962474985	 0.277028
H	-2.2555332501	 0.27423422	-1.7922811871	 0.082428
H	-4.5512913221	-1.1582292208	-2.3045326713	 0.237358
H	-5.2530680892	-2.0071057191	-1.0880609295	 0.234828
H	-3.7982135287	-2.4545805489	 1.2086677474	 0.101719
H	-1.4622891136	-1.6539391371	 1.8350404531	 0.259258
51.9215	136.6852	162.6783	176.684	241.2284	296.6533	320.609	346.4071	371.1159	456.4198	490.3043	523.4699	605.9663	633.1287	669.5233	689.0068	732.3926	774.1697	806.2907	886.0508	976.9426	995.0831	1033.5764	1081.5158	1103.2308	1104.5569	1132.6463	1193.1058	1276.4086	1281.2168	1319.149	1365.2507	1400.2633	1418.6672	1458.1401	1475.5153	1488.9132	1492.8461	1540.2296	1635.4913	1658.3495	3008.037	3037.2939	3108.637	3125.0886	3243.5585	3260.4564	3525.8114	3612.6026	3683.1115	3782.9086
CC(O)C1=CC(N)=CN1	C[C@@H](O)c1cc(N)c[nH]1	
InChI=1S/C6H10N2O/c1-4(9)6-2-5(7)3-8-6/h2-4,8-9H,7H2,1H3	InChI=1S/C6H10N2O/c1-4(9)6-2-5(7)3-8-6/h2-4,8-9H,7H2,1H3/t4-/m1/s1
