15
gdb 125657	3.3298	1.5858	1.09279	1.9116	67.63	-0.1942	0.032	0.2262	1047.0968	0.114236	-453.928674	-453.921051	-453.920107	-453.960916	27.992	
C	-0.0006514703	 1.5088494251	-0.0686190766	-0.499953
C	-0.0044984138	 0.0207261773	 0.0544950589	 0.214106
N	-0.0136962835	-0.756148579	-1.0443842867	-0.301148
N	 0.0100911846	-2.056401769	-0.6041307819	-0.341133
C	 0.0051287958	-2.082800239	 0.736034053	 0.411122
C	-0.0012103237	-0.8061057198	 1.1906643314	 0.152402
O	 0.1110112628	-0.8149640491	 2.5765496224	-0.290059
C	-0.165150234	-2.1794289137	 2.8974684733	 0.000303
O	 0.0954434379	-3.0110273045	 1.7228416555	-0.28928
H	 0.8964969472	 1.9449929616	 0.3840842821	 0.132892
H	-0.0268335575	 1.7880601686	-1.1237371236	 0.143409
H	-0.8666483241	 1.954198861	 0.4326673371	 0.131308
H	-0.0344015841	-2.8052423274	-1.2717709853	 0.281186
H	 0.4872339365	-2.5085798856	 3.7075330831	 0.139335
H	-1.2284508336	-2.2956785365	 3.1555609574	 0.115509
106.7858	146.2286	194.0393	245.0198	257.1331	355.895	407.4937	511.8653	606.2395	653.3928	656.0985	701.0104	765.499	825.5861	884.9529	987.0715	1042.8435	1064.9485	1096.5475	1125.6509	1137.0657	1180.044	1227.8885	1348.108	1395.7748	1412.9686	1429.6605	1482.3187	1493.6919	1517.0944	1558.3547	1599.5629	1657.797	2989.236	3036.6505	3088.2888	3125.8287	3135.5411	3693.7522
CC1=NNC2=C1OCO2	Cc1n[nH]c2c1OCO2	
InChI=1S/C5H6N2O2/c1-3-4-5(7-6-3)9-2-8-4/h2H2,1H3,(H,6,7)	InChI=1S/C5H6N2O2/c1-3-4-5(7-6-3)9-2-8-4/h2H2,1H3,(H,6,7)
