22
gdb 115854	3.08211	1.14424	1.06905	1.9099	82.58	-0.2188	0.0793	0.298	1271.2032	0.194445	-404.315211	-404.305972	-404.305028	-404.349399	34.44	
C	-1.239989636	 1.3162213056	 0.0168169695	-0.237139
O	-1.0037139444	-0.0390034761	-0.2792307539	-0.24789
C	-0.2385859727	-0.2503923227	-1.4580943143	 0.126134
C	 1.286662297	-0.0685531136	-1.229010766	-0.258549
C	 1.8978980384	-1.4887025212	-1.0925161492	-0.231834
C	 0.8398151702	-2.4623437159	-1.5937074205	-0.024621
C	-0.4402830341	-1.7158289106	-1.8221063172	-0.056856
N	 0.2823612766	-2.3159562395	-2.9277677288	-0.09638
C	 0.9129617917	-1.573883094	-4.0049521078	-0.319547
H	-0.3132109575	 1.8718585923	 0.2274285111	 0.102557
H	-1.7630927557	 1.8266365648	-0.8077122242	 0.103419
H	-1.8712476861	 1.3474692596	 0.9084809413	 0.126791
H	-0.6065279238	 0.4262681647	-2.2467606649	 0.061785
H	 1.739398401	 0.4842172997	-2.0569658366	 0.105852
H	 1.4553556798	 0.5272745851	-0.3278441749	 0.108446
H	 2.8440531194	-1.581388645	-1.6373906021	 0.101209
H	 2.1144413538	-1.723322344	-0.0452313962	 0.109545
H	 0.8622638818	-3.4807628971	-1.2123872367	 0.085618
H	-1.4267122202	-2.121698698	-1.6133616072	 0.0918
H	 1.481153601	-0.6790326703	-3.7149655529	 0.101628
H	 1.5984372434	-2.2455579703	-4.532209184	 0.123663
H	 0.1401298065	-1.2657013037	-4.7166701844	 0.124368
71.1852	116.0113	128.8933	177.147	193.2129	244.5521	282.3498	355.228	429.4237	443.8978	530.1986	706.4578	716.6592	759.1753	771.2956	836.1795	886.949	943.0898	953.1432	992.1725	1038.8518	1054.6924	1060.0404	1116.4289	1129.3454	1147.4134	1161.7218	1180.9557	1183.9799	1201.9542	1215.7783	1237.9696	1286.5552	1302.363	1311.4523	1336.2625	1349.2175	1387.6352	1415.6701	1461.8561	1474.5141	1479.2137	1488.4685	1490.557	1502.0717	1509.5207	1510.8185	2961.4327	2972.4648	3004.7277	3016.1157	3040.0729	3059.9158	3067.8506	3073.0982	3096.7545	3102.4071	3110.8331	3128.6065	3144.7649
COC1CCC2C1N2C	CO[C@H]1CC[C@H]2[C@@H]1N2C	
InChI=1S/C7H13NO/c1-8-5-3-4-6(9-2)7(5)8/h5-7H,3-4H2,1-2H3	InChI=1S/C7H13NO/c1-8-5-3-4-6(9-2)7(5)8/h5-7H,3-4H2,1-2H3/t5-,6-,7-,8?/m0/s1
