12
gdb 21707	8.4136	1.24113	1.08158	5.273	64.72	-0.237	-0.0401	0.1969	1004.4081	0.085232	-410.851224	-410.844145	-410.843201	-410.883627	24.242	
N	-0.0177826278	 1.3241666772	 0.0083052217	-0.485966
C	 0.0525674096	-0.0168129431	 0.0018137695	 0.140943
N	 1.1909439231	-0.6235083056	-0.012290627	-0.364312
C	 1.2101694903	-1.9835582237	-0.0192874911	 0.520467
N	 2.2775874993	-2.7410270568	-0.0301740584	-0.34742
C	 1.7345387419	-3.9943828017	-0.0327293662	 0.046924
N	 0.4303514112	-4.0585178837	-0.0253306058	-0.133167
O	 0.0602947833	-2.7020398904	-0.0155346441	-0.223343
H	 0.8344231588	 1.8621028451	 0.0024228216	 0.280859
H	-0.8999150058	 1.802299178	 0.0202063668	 0.278685
H	-0.9147232313	-0.5254482916	 0.0093168543	 0.147469
H	 2.3303751274	-4.8962454737	-0.0413925612	 0.13886
33.5405	143.2039	172.6091	223.2455	359.0417	435.4598	504.3123	641.2846	647.8757	782.3903	786.5289	918.0206	938.6377	971.8473	1001.3701	1034.2978	1097.952	1198.4863	1275.6942	1309.6595	1333.7585	1383.7731	1528.0884	1606.6212	1646.9958	1719.8014	3106.1778	3252.3438	3607.9364	3751.7869
NC=NC1=NC=NO1	NC=Nc1ncno1	
InChI=1S/C3H4N4O/c4-1-5-3-6-2-7-8-3/h1-2H,(H2,4,5,6,7)	InChI=1S/C3H4N4O/c4-1-5-3-6-2-7-8-3/h1-2H,(H2,4,5,6,7)
