17
gdb 47042	3.69262	1.32868	1.05994	3.1268	67.24	-0.2617	0.0076	0.2692	1092.9588	0.138145	-458.981358	-458.974091	-458.973146	-459.013623	27.673	
O	-0.188743781	-0.191299876	-0.1455470249	-0.321601
C	-0.0724069537	 1.0005184651	-0.200322211	 0.422521
C	-1.1392201285	 2.0040786082	 0.2143901879	-0.37774
C	-1.3138542507	 3.0747504329	-0.8702690958	-0.061861
C	-1.5768135592	 4.5324475047	-0.4300329778	-0.094358
O	-0.2622482214	 4.9501721794	-0.868016506	-0.291063
C	 0.0394071495	 3.6305275222	-1.3641033723	 0.114518
C	 1.2188867809	 2.973614737	-0.6477072781	-0.105522
O	 1.0791822872	 1.5446839021	-0.6845166356	-0.223426
H	-2.0561215881	 1.4512735736	 0.4200312086	 0.138322
H	-0.8192619646	 2.4721908888	 1.154031159	 0.133121
H	-1.9705143629	 2.7136237982	-1.662824862	 0.100187
H	-2.3696896472	 5.052813744	-0.9795649447	 0.112474
H	-1.7226844548	 4.6913982537	 0.6454496764	 0.108087
H	 0.1861009402	 3.6283196162	-2.4501108641	 0.093593
H	 2.1779377838	 3.1861850488	-1.1227969582	 0.131669
H	 1.2607111405	 3.333169471	 0.3870750486	 0.121077
69.2063	120.6022	234.6464	324.3097	376.53	422.0477	443.1694	530.6026	606.3928	712.2014	790.0146	805.9191	835.1776	892.097	945.6061	977.7372	1017.2149	1043.5539	1064.2877	1082.1886	1107.4364	1138.848	1146.6397	1168.6286	1243.7834	1251.7844	1263.5309	1278.6775	1310.1406	1351.0011	1368.0484	1374.5638	1403.5285	1475.2155	1519.0649	1524.8185	1859.7387	3018.5635	3034.4356	3040.2339	3046.4476	3063.983	3101.0505	3121.8469	3133.2702
O=C1CC2COC2CO1	O=C1C[C@H]2CO[C@H]2CO1	
InChI=1S/C6H8O3/c7-6-1-4-2-8-5(4)3-9-6/h4-5H,1-3H2	InChI=1S/C6H8O3/c7-6-1-4-2-8-5(4)3-9-6/h4-5H,1-3H2/t4-,5-/m0/s1
