17
gdb 94495	4.18267	0.72408	0.64456	5.6298	89.56	-0.24	-0.046	0.1941	1689.0307	0.135746	-380.832393	-380.823446	-380.822502	-380.866797	31.914	
C	 0.005069486	 1.4678863216	-0.0376295342	-0.33118
N	-0.0435354262	 0.027977127	 0.0916494542	-0.049891
C	-1.3010050759	-0.6209133125	 0.5131604683	-0.16716
C	-0.4693316685	-1.6459873644	 1.3179173535	-0.247569
C	 0.6842854798	-0.6010114866	 1.2152325252	-0.19724
C	 2.0335684591	-1.0525902269	 0.9293869086	 0.118878
C	 3.1574814173	-1.4337958798	 0.6989175907	 0.089922
C	 4.4253598732	-1.8654013883	 0.4367692406	 0.200812
N	 5.5054717436	-2.2322963866	 0.2157665082	-0.33724
H	 1.0287129926	 1.783594581	-0.2625527375	 0.134566
H	-0.6334775844	 1.7816044446	-0.8693624995	 0.1309
H	-0.3301561152	 1.9972807024	 0.8741027739	 0.095414
H	-1.9160622356	 0.0160219829	 1.1699800955	 0.092184
H	-1.9224604419	-0.9902087769	-0.3076662599	 0.115166
H	-0.8032902175	-1.8986271321	 2.3231272139	 0.121747
H	-0.2487578448	-2.5527785617	 0.7549830497	 0.133365
H	 0.7058071383	 0.0366301064	 2.1172649987	 0.097327
66.8035	80.0444	154.7385	196.5061	223.2749	239.8033	311.9591	340.0127	447.6637	501.8206	571.5027	590.5857	622.4173	746.3156	803.6223	898.0625	942.7945	972.6544	990.5594	1071.303	1130.5898	1158.1829	1183.9456	1197.876	1224.3121	1235.4835	1250.5842	1276.082	1327.3564	1370.3663	1450.2531	1485.6507	1486.3846	1496.8871	1524.7927	2261.8821	2397.1751	2931.0926	2937.2547	2970.9056	3066.1051	3076.4197	3101.1272	3108.6507	3163.7612
CN1CCC1C#CC#N	CN1CC[C@H]1C#CC#N	
InChI=1S/C7H8N2/c1-9-6-4-7(9)3-2-5-8/h7H,4,6H2,1H3	InChI=1S/C7H8N2/c1-9-6-4-7(9)3-2-5-8/h7H,4,6H2,1H3/t7-/m1/s1
