17
gdb 35191	3.73016	1.14103	1.06998	1.8704	79.4	-0.2477	0.0216	0.2693	1170.6215	0.134414	-384.600208	-384.592288	-384.591344	-384.632667	30.994	
C	-0.1032319566	-1.1877741786	-0.004853264	-0.433208
C	-0.0313689291	 0.0125053027	 0.0020724612	 0.351115
C	 0.0425407828	 1.4466133561	-0.020542303	-0.288473
O	 0.645363831	 2.098649777	 1.12566421	-0.285086
C	 1.335665354	 2.1573248873	-0.1018255182	 0.47988
C	 2.7736443539	 1.629322225	-0.2482697548	-0.33384
C	 3.1311533496	 2.9538367489	-0.9489695166	-0.044877
C	 2.2561004255	 3.1588191982	-2.1488312217	-0.279174
C	 1.6904031894	 3.4605811113	-0.7821777668	-0.14923
H	-0.1660503848	-2.2479233773	-0.0036571164	 0.201887
H	-0.8435747726	 1.9568838824	-0.3968562904	 0.114914
H	 3.2341758636	 1.5237179402	 0.7367464664	 0.125731
H	 2.9205499057	 0.7080648092	-0.8198018631	 0.111058
H	 4.0526203997	 3.5029583319	-0.8058308311	 0.095505
H	 2.4800897083	 4.0322791145	-2.7527760456	 0.117899
H	 1.8912410031	 2.3062878159	-2.7172107137	 0.114242
H	 1.3206713464	 4.4371002753	-0.4963130023	 0.101657
93.1894	117.8227	177.8083	281.3373	350.9593	383.6904	458.5036	476.6246	553.8615	598.5091	622.5405	671.4922	757.0107	783.9726	830.3332	843.5689	912.674	932.0146	957.3323	961.4889	1008.7472	1021.4112	1057.5081	1064.4504	1086.7237	1104.5607	1145.9422	1174.3559	1198.0948	1243.3588	1287.2179	1320.6934	1349.5721	1461.9892	1479.4637	1497.5339	2237.6166	3057.3433	3109.3302	3113.8694	3118.281	3192.3908	3195.0972	3207.5647	3503.161
C#CC1OC11CC2CC12	C#C[C@H]1O[C@]21C[C@H]1C[C@@H]21	
InChI=1S/C8H8O/c1-2-7-8(9-7)4-5-3-6(5)8/h1,5-7H,3-4H2	InChI=1S/C8H8O/c1-2-7-8(9-7)4-5-3-6(5)8/h1,5-7H,3-4H2/t5-,6-,7-,8-/m1/s1
