14
gdb 14906	4.99859	1.51088	1.23058	4.988	62.4	-0.2774	-0.0038	0.2736	923.9941	0.109524	-378.743541	-378.736766	-378.735822	-378.774832	24.688	
N	-0.0859634181	-1.1511246295	-0.0937532861	-0.320003
C	-0.0102482652	 0.0000754517	-0.0427034965	 0.292632
C	 0.0290217283	 1.4687521809	 0.0433986672	-0.112554
C	-0.7374003299	 1.9625407578	 1.2865566545	-0.239542
C	-0.4724074895	 3.4538869173	 1.4367055561	-0.085431
O	 0.9372246654	 3.730551561	 1.4752571511	-0.218346
C	 1.7201697107	 2.9382497766	 0.7147641564	 0.144055
N	 1.4211052618	 1.9220243605	 0.0200054531	-0.270735
H	-0.4687203765	 1.8460601579	-0.8612019395	 0.13866
H	-1.8101008436	 1.7722965641	 1.193655375	 0.130805
H	-0.3767968622	 1.4282242447	 2.1707644483	 0.140709
H	-0.9087861656	 4.0168999554	 0.6020993752	 0.123569
H	-0.8797024429	 3.8491766888	 2.3691688449	 0.13432
H	 2.7503840274	 3.2860214329	 0.7545871204	 0.141862
86.3683	163.2738	228.9051	290.4235	418.9967	460.7712	509.3262	568.8762	616.1908	784.2506	835.3268	870.0137	937.1393	974.0929	990.2155	1051.0645	1088.6719	1110.7656	1183.7933	1230.4444	1270.1074	1312.6804	1324.0744	1373.3793	1399.0967	1414.4583	1480.7913	1509.987	1724.9221	2366.8998	3008.6142	3032.707	3062.1113	3110.4793	3117.5686	3168.6661
N#CC1CCOC=N1	N#C[C@H]1CCOC=N1	
InChI=1S/C5H6N2O/c6-3-5-1-2-8-4-7-5/h4-5H,1-2H2	InChI=1S/C5H6N2O/c6-3-5-1-2-8-4-7-5/h4-5H,1-2H2/t5-/m1/s1
