20
gdb 58164	2.67377	1.03626	0.88713	3.7133	80.53	-0.2902	-0.0844	0.2058	1393.006	0.167948	-403.181409	-403.170828	-403.169884	-403.217399	37.556	
C	 0.03412474	 1.5218394619	 0.0181505123	-0.412289
C	 0.0295105116	-0.009800575	 0.1228543498	 0.037082
C	 0.6658916579	-0.4506869308	 1.4506355213	-0.406632
C	-1.3916503706	-0.5962376394	-0.0297165084	-0.077917
C	-2.1678923103	-0.0853606882	-1.2677691451	-0.426717
C	-1.3618087212	-2.112507831	-0.1299384811	 0.289416
O	-0.4206403838	-2.7821702283	-0.4723394298	-0.27751
C	-2.6517824462	-2.7769756846	 0.1886425203	 0.238341
N	-3.6571969484	-3.2845597934	 0.4513789654	-0.304222
H	 1.0432525353	 1.9057702231	 0.1963793231	 0.120203
H	-0.2812382582	 1.8765678408	-0.9663730496	 0.119048
H	-0.6259589719	 1.9737936817	 0.768603487	 0.114904
H	 0.6347888654	-0.4167095386	-0.6962299563	 0.097553
H	 0.0938416546	-0.0682959297	 2.3047087732	 0.113117
H	 0.7230058781	-1.5383677913	 1.535791278	 0.132254
H	 1.683998928	-0.0589075436	 1.5352315633	 0.118818
H	-1.98803863	-0.346567934	 0.859520369	 0.104272
H	-1.5848237222	-0.2425918378	-2.1806725335	 0.137743
H	-3.1243138749	-0.605054098	-1.3792431088	 0.142571
H	-2.3815270532	 0.9803168263	-1.16998911	 0.139965
41.9968	73.4962	133.5512	185.0205	209.8498	218.2708	228.6727	264.1069	297.4505	328.2874	363.9867	395.3074	450.503	484.3781	608.5042	742.6236	786.238	806.3664	919.2864	932.1082	969.2902	989.8137	1026.3211	1049.4917	1103.5948	1151.0823	1191.5062	1203.3077	1298.1887	1315.3032	1347.8889	1389.9394	1401.3694	1408.7579	1425.1281	1486.8935	1491.5272	1498.5152	1505.3769	1506.0724	1518.85	1794.6207	2333.802	3010.6194	3029.1764	3031.387	3042.9609	3044.7403	3094.4905	3101.4666	3112.7476	3115.2614	3124.7698	3136.2653
CC(C)C(C)C(=O)C#N	CC(C)[C@@H](C)C(=O)C#N	
InChI=1S/C7H11NO/c1-5(2)6(3)7(9)4-8/h5-6H,1-3H3	InChI=1S/C7H11NO/c1-5(2)6(3)7(9)4-8/h5-6H,1-3H3/t6-/m1/s1
