12
gdb 132175	3.26102	1.32746	0.94342	2.5059	61.89	-0.236	-0.0376	0.1984	1079.5378	0.077157	-521.88809	-521.881236	-521.880292	-521.91962	25.95	
F	 0.071900028	 0.0753965522	 0.1019119563	-0.035725
C	-0.0575023158	 1.3766388211	 0.0034712813	 0.400975
C	-1.2165370062	 2.0332646459	 0.1331753583	-0.383356
C	-1.2569821175	 3.4834670504	 0.0064576575	 0.225716
N	-2.3429205852	 4.1567320781	 0.1226261076	-0.544218
C	 0.071728055	 4.0422904969	-0.2628460737	 0.139382
F	 0.1580234105	 5.3652763187	-0.3986936052	-0.068218
C	 1.1731606588	 3.2916193343	-0.3744560537	-0.056628
O	 1.1390951076	 1.9302136789	-0.2436830624	-0.205901
H	-2.1284457527	 1.4882948809	 0.3328452984	 0.143442
H	-2.1487949868	 5.1522672644	-0.0007654635	 0.222033
H	 2.1664431543	 3.6665191481	-0.5718490208	 0.162499
123.5137	193.6721	309.1315	368.2715	377.5187	410.1214	435.0366	521.0648	605.9266	659.2886	723.9466	753.6058	775.426	851.7409	866.6527	900.9161	945.9497	1108.1842	1210.3852	1245.3212	1282.2664	1299.0014	1386.4184	1452.6422	1668.027	1695.7765	1743.3881	3239.0541	3252.6199	3463.065
FC1=CC(=N)C(F)=CO1	F[C@H]1C=C([NH])C(=CO1)F	
InChI=1S/C5H3F2NO/c6-3-2-9-5(7)1-4(3)8/h1-2,8H	InChI=1S/C5H4F2NO/c6-3-2-9-5(7)1-4(3)8/h1-2,5,8H/t5-/m1/s1
