21
gdb 86047	3.02652	0.99384	0.87681	3.6329	79.45	-0.2422	-0.0204	0.2218	1407.2117	0.179303	-424.23331	-424.223292	-424.222348	-424.269026	36.356	
C	 0.6713144041	 1.4547137366	 0.2380863719	-0.400466
C	 0.0624979198	 0.0827327633	 0.0294955455	 0.171094
C	 0.4022249849	-0.6873869658	-1.2653734833	-0.362756
C	 0.9546717668	-1.7813034312	-0.3179680826	 0.415725
C	 0.128883746	-3.061412559	-0.2565578436	-0.435239
C	 2.4591105063	-2.067889704	-0.4396375438	-0.319765
C	 3.0109388267	-2.7901861807	 0.7720698391	 0.154371
O	 3.666459469	-3.8006532324	 0.7261520366	-0.247104
O	 0.6948369053	-0.9385728706	 0.8425548929	-0.342236
H	 1.7414687916	 1.4490137402	 0.0086704351	 0.116782
H	 0.1807851291	 2.1915641916	-0.4075859299	 0.118226
H	 0.5453913264	 1.7741627304	 1.277380316	 0.129957
H	-1.0150437248	 0.1178798434	 0.2410922342	 0.076981
H	-0.4432618934	-0.9849655252	-1.8877865311	 0.108883
H	 1.1575088693	-0.2048822714	-1.89022924	 0.105913
H	 0.2692389174	-3.6568990928	-1.1650841289	 0.122222
H	 0.424153962	-3.6751829246	 0.6003265526	 0.134624
H	-0.9343788674	-2.8265966503	-0.1562301639	 0.1206
H	 2.6792883734	-2.6555992669	-1.3362536862	 0.117264
H	 2.9858690971	-1.1073329578	-0.5133357738	 0.116013
H	 2.7672428606	-2.3027191229	 1.7403943432	 0.098911
45.6939	69.1855	82.7127	195.3613	220.3396	236.7802	265.8057	320.2487	347.7477	374.9203	440.5754	465.0303	513.02	657.435	769.4591	829.3674	885.3211	889.8238	912.3716	928.239	938.5522	983.5384	1023.7012	1053.5287	1082.4484	1113.8848	1146.1911	1193.5152	1197.6496	1222.2473	1266.9622	1292.482	1309.048	1328.6005	1391.8172	1410.4852	1411.2291	1421.7943	1450.7983	1482.8884	1484.5932	1489.4998	1492.8358	1498.1426	1827.6027	2908.0702	3003.5447	3026.259	3032.8043	3035.7729	3070.5421	3096.3124	3105.4972	3107.8302	3111.4904	3115.7274	3127.5578
CC1CC(C)(CC=O)O1	C[C@H]1C[C@@](C)(CC=O)O1	
InChI=1S/C7H12O2/c1-6-5-7(2,9-6)3-4-8/h4,6H,3,5H2,1-2H3	InChI=1S/C7H12O2/c1-6-5-7(2,9-6)3-4-8/h4,6H,3,5H2,1-2H3/t6-,7+/m0/s1
