17
gdb 37538	4.04875	1.70471	1.45613	1.3763	77.82	-0.2098	0.0046	0.2144	906.4469	0.137947	-380.729981	-380.723854	-380.72291	-380.760082	26.291	
C	-0.0158857207	 1.5563493976	-0.207311655	-0.238887
C	 1.4805787923	 1.8175810977	-0.0118953133	-0.063961
C	 2.0851915972	 0.8003059468	 0.6169214459	-0.245403
C	 1.0111747722	-0.1814445455	 0.909132805	 0.411691
C	 0.5156646851	-1.6373491181	 1.1467797728	-0.141575
N	 0.5749530078	-1.514593818	 2.6349571621	-0.346723
C	 0.0552093818	-0.1808332155	 2.1987795236	-0.087397
C	-0.7614037793	-0.7061623952	 0.9750070705	-0.046474
N	-0.0548116094	 0.0879467875	-0.0794766394	-0.1388
H	-0.587387363	 2.0998083553	 0.5671037368	 0.09861
H	-0.392031869	 1.8839902096	-1.1819776133	 0.110269
H	 1.954094697	 2.7445166348	-0.3140577878	 0.104609
H	 3.1167880785	 0.7454899642	 0.9342448334	 0.117422
H	 0.7712627866	-2.5390281094	 0.5902480904	 0.092516
H	-0.1797040115	-2.0622072881	 3.0574729798	 0.208934
H	-0.1675538507	 0.6209668454	 2.9040308114	 0.083568
H	-1.8094293051	-1.0082089391	 0.9166519772	 0.0816
212.5101	256.6311	323.1236	455.0684	546.8471	585.2282	645.5139	689.5336	713.5652	748.5721	805.7391	842.4864	847.8957	899.5603	908.7006	916.6656	941.6065	958.9729	992.5163	1023.3349	1039.0088	1068.7779	1085.0661	1111.8991	1123.0682	1155.3826	1160.5346	1191.2171	1210.9729	1239.3349	1250.7577	1289.1434	1311.7604	1330.6364	1388.7972	1495.9052	1622.5538	2938.1566	3060.8157	3090.0506	3108.3292	3125.2252	3200.6245	3240.2913	3399.4301
C1C=CC23C4NC2C4N13	C1C=C[C@@]23[C@H]4N[C@@H]2[C@H]4N13	
InChI=1S/C7H8N2/c1-2-7-5-4(6(7)8-5)9(7)3-1/h1-2,4-6,8H,3H2	InChI=1S/C7H8N2/c1-2-7-5-4(6(7)8-5)9(7)3-1/h1-2,4-6,8H,3H2/t4-,5-,6+,7+
