23
gdb 59528	3.96176	0.86147	0.77323	1.8747	86.63	-0.2565	0.0765	0.333	1562.8234	0.204316	-388.269589	-388.259957	-388.259013	-388.30409	36.805	
C	 0.1276656292	 1.4448118071	 0.186817362	-0.38993
C	-0.0245234159	-0.071859994	 0.008258277	 0.019975
C	-1.5027317453	-0.484219076	 0.0223532486	-0.38993
C	 0.6678876334	-0.5482577814	-1.2681282567	 0.066726
C	 2.2218640178	-0.4152137767	-1.3690883585	-0.347443
C	 2.2349478844	-1.8110971936	-1.9909392545	 0.467189
C	 2.8875707087	-2.2577187459	-3.2221426536	-0.266904
O	 3.3114589048	-2.7259743943	-1.9320489758	-0.273466
C	 0.8101080865	-2.0855547496	-1.5114968376	-0.347443
H	 1.1804151985	 1.7442238829	 0.208138823	 0.116164
H	-0.3564532541	 1.9851051797	-0.6357132927	 0.11054
H	-0.3347286776	 1.7806883564	 1.1207630128	 0.110428
H	 0.4740253463	-0.565511964	 0.8560848683	 0.067993
H	-2.0467377983	-0.0147826868	-0.8062187383	 0.11054
H	-1.6193770576	-1.5683954787	-0.0742861697	 0.116164
H	-1.9893693519	-0.1770260419	 0.9538532756	 0.110428
H	 0.1950597176	-0.074557581	-2.1369209889	 0.06728
H	 2.6354020047	 0.4098394374	-1.9537454864	 0.102918
H	 2.6929163193	-0.4212431306	-0.3798995258	 0.110289
H	 2.4060350237	-3.0043192934	-3.8532502598	 0.112638
H	 3.5915254613	-1.6016875085	-3.7336663052	 0.112638
H	 0.8133694968	-2.6450578345	-0.5694954074	 0.110289
H	 0.1193265613	-2.56709469	-2.2075503871	 0.102918
64.027	88.8209	147.3549	227.9393	243.0812	276.0553	315.3194	323.1457	342.5029	386.3637	446.1383	467.4745	565.7775	708.7139	825.8168	837.1834	875.0038	886.9418	892.5136	929.927	957.0397	968.8008	990.8252	1003.7528	1046.2374	1058.7714	1126.0696	1141.9588	1153.6862	1178.8264	1197.0297	1199.6969	1221.6312	1231.8662	1260.169	1277.8527	1318.5136	1352.3179	1391.529	1400.7489	1422.0259	1436.7072	1468.1916	1487.4498	1492.1581	1493.6488	1504.8914	1510.96	1538.2709	2990.1936	3023.5183	3026.6766	3034.5986	3044.3024	3050.1374	3074.7594	3088.2847	3094.0265	3099.8231	3102.1931	3105.7433	3107.8659	3160.7112
CC(C)C1CC2(CO2)C1	CC(C)[C@H]1C[C@]2(CO2)C1	
InChI=1S/C8H14O/c1-6(2)7-3-8(4-7)5-9-8/h6-7H,3-5H2,1-2H3	InChI=1S/C8H14O/c1-6(2)7-3-8(4-7)5-9-8/h6-7H,3-5H2,1-2H3/t7-,8+
