20
gdb 106505	3.29302	1.39963	1.23017	1.7317	78.34	-0.2465	0.0181	0.2646	1095.1412	0.172659	-403.154008	-403.146203	-403.145259	-403.186065	31.267	
C	 0.0295948159	 1.542842334	-0.1652612974	-0.383954
C	-0.0234417547	 0.0441016904	 0.1463875541	-0.259952
C	-1.4195887681	-0.5377663887	 0.0423335031	 0.335356
C	-2.1677059476	-0.5973752317	-1.332473523	-0.273421
C	-2.9120663199	-1.8084667166	-0.7236840883	 0.10415
C	-1.6416192408	-2.0836994109	 0.113678365	-0.285404
O	-3.9614751979	-1.3322996391	 0.1471384156	-0.237471
C	-3.5139421046	-0.3653454751	 0.9838918081	 0.102063
N	-2.3312911135	 0.0882786552	 1.0212039524	-0.289584
H	 1.043423806	 1.9344520962	-0.0397247605	 0.107926
H	-0.2799853504	 1.7460158274	-1.1964956337	 0.109456
H	-0.6386530047	 2.093584138	 0.5017858823	 0.139519
H	 0.6381725379	-0.5082983203	-0.5329490302	 0.083495
H	 0.3451676295	-0.1337216344	 1.1644567148	 0.102058
H	-2.7606318358	 0.2685177605	-1.632886328	 0.110022
H	-1.5079889989	-0.9124669637	-2.1443226338	 0.105115
H	-3.3611329834	-2.5771730175	-1.3506102418	 0.08789
H	-0.8994422393	-2.6320524633	-0.4710943882	 0.104498
H	-1.7646874683	-2.5359532377	 1.099899595	 0.109032
H	-4.3012602914	-0.0094090026	 1.6435792945	 0.129206
103.8432	162.8237	204.5777	292.1329	336.0023	398.347	416.5744	455.7815	491.6009	618.4024	647.19	762.8495	783.4474	849.5598	850.9342	892.2295	905.8381	932.1829	950.3022	966.0668	1000.3334	1022.2893	1050.2677	1064.9909	1110.3246	1127.9298	1175.7838	1185.7204	1217.2481	1235.106	1253.6383	1301.4258	1314.5703	1351.3053	1379.7668	1390.6318	1405.046	1464.52	1477.859	1494.5103	1496.1453	1510.6909	1698.6409	3021.1708	3036.5036	3057.9927	3063.507	3070.0946	3100.8744	3123.8301	3127.5247	3129.6011	3132.7493	3175.0771
CCC12CC(C1)OC=N2	CC[C@@]12C[C@@H](C1)O[CH][N]2	
InChI=1S/C7H11NO/c1-2-7-3-6(4-7)9-5-8-7/h5-6H,2-4H2,1H3	InChI=1S/C7H11NO/c1-2-7-3-6(4-7)9-5-8-7/h5-6H,2-4H2,1H3/t6-,7+
