14
gdb 45952	2.10263	1.8555	1.03391	1.8413	69.11	-0.2591	-0.0494	0.2098	1082.3362	0.09926	-436.674317	-436.666161	-436.665217	-436.708017	29.578	
N	 0.0011737003	 1.271118959	 0.2124085582	-0.511212
C	 0.0284689354	 0.0181412112	 0.1334780705	 0.420861
O	 1.1694438945	-0.7268423957	-0.0361778279	-0.242043
C	 0.92971594	-2.128265128	 0.0531519955	-0.197627
C	-0.5643477991	-2.3016527979	 0.313897193	 0.377439
O	-1.1191920043	-3.3294333649	 0.5689783691	-0.275332
C	-1.1895120992	-0.8979233872	 0.1668705349	-0.420711
C	-2.204385866	-0.5778767736	 1.1485617049	 0.35493
C	-3.0478926573	-0.3469749216	 1.9698102913	-0.426671
H	 0.9443106576	 1.6595104201	 0.1550517629	 0.231883
H	 1.219377649	-2.620327295	-0.882687283	 0.152294
H	 1.5156483167	-2.5610524154	 0.8709726425	 0.156997
H	-1.6315208377	-0.8807194182	-0.8427269301	 0.172253
H	-3.79139356	-0.1271917927	 2.6955957481	 0.206939
36.603	126.2042	129.6534	180.7181	353.5672	397.6433	416.7005	497.6153	530.8019	594.9604	634.1596	643.5938	654.4384	687.1896	771.7503	897.2776	914.332	986.3711	1000.04	1048.872	1099.9584	1145.6694	1171.8334	1214.1863	1244.809	1314.5046	1370.4914	1483.1139	1788.8772	1883.6761	2254.5209	2986.997	3040.0433	3086.4247	3477.8893	3504.8137
N=C1OCC(=O)C1C#C	[NH][C]1OCC(=O)[C@H]1C#C	
InChI=1S/C6H5NO2/c1-2-4-5(8)3-9-6(4)7/h1,4,7H,3H2	InChI=1S/C6H5NO2/c1-2-4-5(8)3-9-6(4)7/h1,4,7H,3H2/t4-/m1/s1
