15
gdb 20733	3.34651	2.0091	1.27381	2.1063	63.31	-0.207	0.0469	0.2539	913.5573	0.120276	-395.999682	-395.991728	-395.990784	-396.031664	29.296	
C	-0.1225445956	 1.4714530073	-0.0273313086	-0.496511
C	-0.0418524662	-0.0199699128	 0.0335198544	 0.315083
N	-0.0861655431	-0.7473163137	-1.0780205906	-0.309546
N	 0.0113560564	-2.0433483633	-0.651489963	-0.279186
C	 0.1137674389	-2.1281070027	 0.6873114777	 0.461764
O	 0.2209512469	-3.3012124966	 1.3318953914	-0.43102
C	 0.0847623778	-0.8421587544	 1.1873839514	-0.076962
N	 0.1741901596	-0.5836181894	 2.5861101194	-0.630641
H	 0.7696378156	 1.9416973823	 0.4028922185	 0.120031
H	-0.2145154422	 1.7947336518	-1.0662169573	 0.143357
H	-0.9865101993	 1.8518902764	 0.5303869446	 0.120061
H	 0.000892572	-2.7941026314	-1.3190790509	 0.274607
H	 0.2778964665	-3.0649194889	 2.2708343508	 0.307281
H	-0.6439586544	-0.0958607897	 2.9382402822	 0.24084
H	 0.980678677	-0.0120796348	 2.8188847901	 0.240843
107.3967	170.2985	221.0854	245.5083	267.8024	287.4383	350.9697	451.4429	526.6107	529.4989	587.7925	687.9214	718.987	736.2245	790.9557	848.6287	992.1525	1063.3402	1075.63	1130.7436	1199.8544	1211.4236	1279.6942	1387.1275	1406.2613	1429.6955	1482.917	1485.4857	1517.2986	1602.9925	1635.8381	1684.031	3026.1765	3073.1448	3131.5338	3487.5418	3549.8688	3688.8688	3724.8336
CC1=NNC(O)=C1N	Cc1n[nH]c(O)c1N	
InChI=1S/C4H7N3O/c1-2-3(5)4(8)7-6-2/h5H2,1H3,(H2,6,7,8)	InChI=1S/C4H7N3O/c1-2-3(5)4(8)7-6-2/h5H2,1H3,(H2,6,7,8)
