19
gdb 11540	6.04415	0.93484	0.88691	3.3851	74.81	-0.2314	0.0355	0.267	1370.0316	0.164518	-365.085376	-365.076146	-365.075202	-365.121379	32.513	
C	 0.1201368677	 1.4702332574	 0.1780107058	-0.366345
C	-0.1394808788	 0.0004987036	-0.1562032554	-0.301995
C	 0.5595158133	-0.4238879018	-1.4474299574	 0.424369
O	 0.7395513426	 0.3437452115	-2.3774273703	-0.379837
N	 0.94269971	-1.7349558744	-1.4859116079	-0.334037
C	 1.5522884471	-2.3277167874	-2.6390816715	 0.090479
C	 2.5725891757	-3.4213212447	-2.4869003246	-0.288883
C	 1.2027841766	-3.7296956696	-3.0595218222	-0.285084
H	 1.1717274671	 1.6374394187	 0.43015553	 0.12093
H	-0.1160974232	 2.093907882	-0.6862436096	 0.146593
H	-0.4895413296	 1.7905182809	 1.027430767	 0.107169
H	 0.1567061926	-0.6515396048	 0.6741651409	 0.094104
H	-1.2151176728	-0.1612930739	-0.3080113315	 0.128613
H	 0.7644712809	-2.315842556	-0.6827971885	 0.240602
H	 1.7014797073	-1.5785031227	-3.4053909738	 0.137384
H	 3.4316692647	-3.4222185455	-3.1486220745	 0.123824
H	 2.7863787677	-3.7766831678	-1.4836206398	 0.109263
H	 0.5137081825	-4.2876602357	-2.4332518214	 0.109297
H	 1.1119553984	-3.9437542898	-4.1186971753	 0.123553
18.6443	35.8354	94.9975	153.5144	212.2367	280.2501	330.2781	407.8378	430.2475	438.7956	587.668	692.6373	760.3201	805.249	811.5054	850.5448	908.8603	940.3187	978.2901	1032.0663	1059.0172	1070.7747	1087.7991	1096.0082	1143.7951	1190.3838	1196.7518	1223.6373	1250.1514	1289.3528	1358.0338	1393.539	1407.7592	1465.1828	1465.7386	1493.8054	1499.3799	1506.2209	1551.233	1773.1157	3022.2496	3047.8945	3059.4914	3113.849	3126.7572	3131.2543	3140.5359	3206.8706	3210.5089	3225.168	3638.733
CCC(=O)NC1CC1	CCC(=O)NC1CC1	
InChI=1S/C6H11NO/c1-2-6(8)7-5-3-4-5/h5H,2-4H2,1H3,(H,7,8)	InChI=1S/C6H11NO/c1-2-6(8)7-5-3-4-5/h5H,2-4H2,1H3,(H,7,8)
