17
gdb 78820	3.00819	1.49302	1.21238	4.4973	75.45	-0.2604	0.0063	0.2666	1048.4326	0.137012	-380.815336	-380.807894	-380.80695	-380.847167	28.933	
C	-0.207582577	 1.4031350882	 0.064246239	-0.41743
C	 0.0551977883	-0.0976970049	 0.0167690114	-0.009464
C	 0.9455086559	-0.5197949107	-1.1554428495	-0.031121
C	 2.1783839638	-0.4106492457	-0.344909549	-0.063988
C	 1.2403824826	-0.5588127032	 0.9147265923	-0.092459
C	 1.3327598327	-2.0721720609	 0.6225554139	-0.106892
C	 0.1584306498	-2.9213749703	 0.820788139	 0.297113
N	-0.774693507	-3.5822022694	 0.9906215623	-0.332186
N	 1.7264629444	-1.7615436828	-0.7979260703	-0.154568
H	 0.7211654926	 1.9749721404	-0.0387678377	 0.120666
H	-0.879746763	 1.7079352089	-0.7444145052	 0.125287
H	-0.6782074586	 1.6846854946	 1.0115408923	 0.12457
H	-0.8791149688	-0.653710489	 0.1507420479	 0.101115
H	 0.8024786081	-0.3530438703	-2.2150401571	 0.108031
H	 3.170608571	-0.0182761733	-0.5184303	 0.111204
H	 1.3802468616	-0.1584365406	 1.9166387306	 0.089485
H	 2.1962039736	-2.538489681	 1.1044425401	 0.130638
122.8633	151.947	235.1269	252.3104	281.304	390.4187	463.6675	541.9463	597.0201	742.9734	762.0774	794.7921	817.3499	838.3691	904.1084	934.6315	940.994	984.7937	991.0759	1028.6783	1037.6507	1076.6815	1089.4109	1120.6108	1143.7964	1174.4295	1200.5435	1214.7724	1247.5283	1284.9632	1329.5728	1363.4572	1381.4891	1414.9237	1494.6674	1500.6468	2352.6027	3032.1122	3051.3893	3081.0895	3101.8266	3104.4002	3141.9643	3204.2452	3220.0617
CC1C2C3C1C(C#N)N23	C[C@H]1[C@H]2[C@H]3[C@@H]1[C@@H](C#N)N23	
InChI=1S/C7H8N2/c1-3-5-4(2-8)9-6(3)7(5)9/h3-7H,1H3	InChI=1S/C7H8N2/c1-3-5-4(2-8)9-6(3)7(5)9/h3-7H,1H3/t3-,4-,5+,6+,7-,9?/m1/s1
