19
gdb 65019	2.14179	1.45863	1.12089	1.9379	78.52	-0.2537	-0.021	0.2327	1173.324	0.158568	-419.223863	-419.214648	-419.213704	-419.257675	34.216	
C	-0.6176406011	 1.3240448944	 0.5031264068	-0.445849
C	-0.1676581382	-0.0337071465	 0.0012321978	 0.332134
C	 1.1578381855	-0.1584936975	-0.6964777079	-0.266572
C	 0.9845779731	-0.7409328521	 0.6829462277	-0.321186
N	-1.2475310042	-0.8714142335	-0.4929910283	-0.105214
C	-1.7819866433	-0.6680277742	-1.7665681986	 0.075543
N	-1.3384166428	 0.2364492639	-2.541077205	-0.458721
C	-1.8618169998	-1.7887666073	 0.3477385268	 0.152831
O	-2.7988725596	-2.4907087723	 0.0476023769	-0.32025
H	 0.2386821588	 1.903303183	 0.8597777371	 0.118644
H	-1.0976476034	 1.8846432346	-0.3032491142	 0.150788
H	-1.3272614928	 1.2238896258	 1.3319145854	 0.116473
H	 1.2212409925	-0.8462113438	-1.5299818727	 0.130247
H	 1.7393826387	 0.7478746779	-0.8169565633	 0.122324
H	 1.4416581865	-0.239231616	 1.5287722862	 0.121453
H	 0.9553244466	-1.821032316	 0.7680734532	 0.123089
H	-2.5939000992	-1.3684803812	-1.9691131431	 0.143681
H	-1.8548640224	 0.2193753472	-3.4191185989	 0.231566
H	-1.3834223049	-1.8074524163	 1.3416900242	 0.09902
75.82	135.6415	190.4884	213.6079	224.3808	239.8316	291.8255	315.8335	340.3591	438.6524	466.4845	536.0471	644.2558	774.3605	800.2583	843.8113	876.3429	882.4827	943.9971	952.8874	1039.9454	1046.6981	1077.7792	1086.5877	1089.1898	1118.4685	1130.7982	1187.0686	1267.046	1304.0764	1330.5573	1359.6632	1408.8998	1415.2188	1442.227	1465.011	1485.9222	1499.8555	1507.9035	1712.5516	1804.7978	2991.9544	3035.9306	3104.3369	3124.3814	3125.2165	3138.9505	3152.6421	3221.6793	3242.816	3497.9813
CC1(CC1)N(C=N)C=O	CC1(CC1)N(C=N)C=O	
InChI=1S/C6H10N2O/c1-6(2-3-6)8(4-7)5-9/h4-5,7H,2-3H2,1H3	InChI=1S/C6H10N2O/c1-6(2-3-6)8(4-7)5-9/h4-5,7H,2-3H2,1H3
