23
gdb 103775	3.04279	1.09506	0.9961	1.1974	86.63	-0.2443	0.0711	0.3154	1346.6247	0.204265	-388.269648	-388.259734	-388.258789	-388.304385	37.728	
C	 0.0884003639	 1.4544878519	-0.0603787912	-0.394875
C	-0.0126926064	-0.0500383785	 0.2183053652	-0.220153
C	-1.4269357344	-0.5836683968	 0.0923684152	 0.345422
O	-2.3422673959	-0.0123824363	 0.9963839188	-0.470248
C	-1.9607961088	-1.0012863608	-1.2627207747	-0.433922
C	-1.6825958889	-2.0332920196	-0.1966230558	 0.323512
C	-0.6535888205	-3.1740961244	-0.187837328	-0.298471
C	-1.5632748655	-3.9260083254	 0.8294509694	-0.202617
C	-2.7013172896	-2.8971840032	 0.5582323009	-0.28412
H	 1.1201293429	 1.8055958242	 0.034059682	 0.114786
H	-0.2568945216	 1.6946209586	-1.0721193797	 0.115631
H	-0.5172900832	 2.0268766095	 0.6503548717	 0.11232
H	 0.6389850785	-0.5961962859	-0.4724218138	 0.097333
H	 0.3531056701	-0.2600530708	 1.2316363629	 0.10054
H	-2.5772330108	 0.8620160845	 0.6689912576	 0.282483
H	-3.0025059034	-0.7823211386	-1.4787020141	 0.105558
H	-1.2961967832	-0.948244555	-2.1208793212	 0.103786
H	-0.5816127472	-3.6847341531	-1.1535664801	 0.097858
H	 0.3581186716	-2.929928721	 0.1477236936	 0.096592
H	-1.7846345132	-4.9708757365	 0.6017506189	 0.095056
H	-1.1825625494	-3.8686291198	 1.852116946	 0.103757
H	-3.166068268	-2.429141199	 1.427820965	 0.115497
H	-3.4886226971	-3.293589194	-0.0907586183	 0.094276
62.975	96.4489	136.1337	161.9682	229.4962	235.6973	285.397	288.3265	389.9905	420.3236	438.3514	489.1169	611.6267	698.6498	721.7961	783.6053	789.572	858.48	891.6013	901.3646	909.7936	939.7182	958.353	986.5883	1025.8308	1047.3731	1054.6131	1089.9654	1141.6484	1158.9544	1176.2489	1217.3937	1230.5616	1249.7504	1252.7181	1271.2918	1286.4493	1306.8665	1319.0296	1359.7538	1404.4868	1414.3269	1475.3663	1478.5924	1480.1583	1487.8124	1500.2879	1505.9379	1511.2574	3024.9419	3031.3301	3043.3977	3051.4863	3065.2233	3067.445	3088.6436	3100.1487	3106.1215	3109.7476	3110.4018	3124.5032	3198.2013	3808.151
CCC1(O)CC11CCC1	CC[C@@]1(O)CC21CCC2	
InChI=1S/C8H14O/c1-2-8(9)6-7(8)4-3-5-7/h9H,2-6H2,1H3	InChI=1S/C8H14O/c1-2-8(9)6-7(8)4-3-5-7/h9H,2-6H2,1H3/t8-/m1/s1
