20
gdb 13374	5.7932	0.97614	0.89367	1.8537	78.38	-0.2241	0.0243	0.2483	1348.6709	0.176976	-349.015023	-349.00629	-349.005345	-349.049192	31.051	
C	 0.0578904189	 1.5660266256	 0.0720509418	-0.379258
C	 0.1361012063	 0.037674196	 0.0726608708	-0.161207
C	 0.5773765937	-0.532762342	-1.2900876312	-0.300721
C	 0.6563905626	-2.0283512285	-1.3252503331	 0.317542
C	-0.0715328634	-2.8843043648	-2.038744361	-0.214089
C	 0.3612470686	-4.2955573489	-1.7685643865	-0.101445
O	 1.4112816508	-4.1861011974	-0.8098067998	-0.265149
C	 1.6536647284	-2.8170432954	-0.5089172673	-0.148199
H	 1.0313344016	 2.0124346381	-0.1598854824	 0.115198
H	-0.656719922	 1.9260905377	-0.6764730177	 0.115397
H	-0.2600331345	 1.9482672802	 1.046871438	 0.114234
H	 0.8329153872	-0.292832867	 0.8523589886	 0.102468
H	-0.8404623256	-0.3868267522	 0.3351593046	 0.103317
H	-0.1160268806	-0.1883900172	-2.0663075853	 0.102316
H	 1.5604553893	-0.1085159669	-1.5429647637	 0.102771
H	-0.8629627291	-2.6303216693	-2.7336141118	 0.094561
H	-0.4499143157	-4.9199617173	-1.3605381893	 0.101715
H	 0.731240932	-4.8036240907	-2.6743812161	 0.1008
H	 2.6928197503	-2.5493855186	-0.766086319	 0.097656
H	 1.5413208912	-2.6519704414	 0.5743695305	 0.102092
58.2884	86.2274	101.3458	129.8225	241.7835	282.8305	306.9566	344.2193	489.8743	664.0197	745.5128	777.0982	819.8031	868.8289	894.6918	921.0093	930.2067	974.347	1022.8952	1041.8049	1060.4022	1092.0604	1114.7231	1118.0906	1174.8446	1209.8966	1225.5574	1250.0393	1302.9308	1312.2597	1332.2133	1372.0884	1383.3407	1396.9475	1412.5245	1479.9157	1493.0154	1498.5872	1509.8452	1517.5673	1530.199	1728.6781	2955.712	2966.3412	2978.4787	2982.0789	2999.0155	3028.2205	3030.6164	3048.4209	3068.3019	3098.01	3104.0382	3207.0947
CCCC1=CCOC1	CCCC1=CCOC1	
InChI=1S/C7H12O/c1-2-3-7-4-5-8-6-7/h4H,2-3,5-6H2,1H3	InChI=1S/C7H12O/c1-2-3-7-4-5-8-6-7/h4H,2-3,5-6H2,1H3
