17
gdb 10317	2.49063	1.72169	1.09549	1.4946	65.84	-0.2544	-0.0466	0.2078	1079.8522	0.140261	-401.050747	-401.041684	-401.04074	-401.084964	32.04	
C	-0.2345040366	 1.5513543605	 0.115316656	-0.400154
C	 0.0603068213	 0.0483337012	 0.1185023984	-0.189364
C	 0.7278038262	-0.4351041605	-1.1719642224	-0.18214
C	 2.1739600263	 0.0243253155	-1.2869743228	 0.14991
O	 2.885757583	-0.1756518458	-2.2429201819	-0.263211
C	 0.6142437162	-1.9773220198	-1.3462633864	 0.381782
N	 1.191857376	-2.4503241593	-2.4826282902	-0.519811
O	 0.0070744578	-2.6659232067	-0.5529599764	-0.347355
H	 0.6734390912	 2.1530973116	-0.007163986	 0.114566
H	-0.9155050985	 1.8171831297	-0.7010450746	 0.120281
H	-0.7049766635	 1.8575369353	 1.0540958619	 0.12408
H	 0.701943561	-0.2105228468	 0.9700904121	 0.107732
H	-0.8591401817	-0.5229937851	 0.2606673988	 0.133156
H	 0.2147582865	-0.0086187207	-2.0464242147	 0.133204
H	 2.5653562552	 0.5690104997	-0.4008799456	 0.102013
H	 1.8656406521	-1.8731599646	-2.9664222249	 0.274824
H	 1.2431814074	-3.4515726344	-2.5860934015	 0.260489
60.6207	78.135	118.2902	189.1467	223.1297	246.6305	341.2646	350.102	414.8362	482.4283	550.4264	603.9174	619.6922	724.5713	762.0421	781.9725	934.3308	972.3053	1009.5445	1069.2835	1111.0972	1150.2097	1161.4137	1217.7208	1260.5035	1318.5195	1333.3407	1374.2915	1416.7362	1425.5049	1488.0279	1501.0303	1505.8897	1622.793	1802.5913	1807.6344	2902.7064	3012.3319	3028.7908	3040.1074	3084.6607	3108.2827	3117.4019	3550.4808	3692.6988
CCC(C=O)C(N)=O	CC[C@@H](C=O)C(=O)N	
InChI=1S/C5H9NO2/c1-2-4(3-7)5(6)8/h3-4H,2H2,1H3,(H2,6,8)	InChI=1S/C5H9NO2/c1-2-4(3-7)5(6)8/h3-4H,2H2,1H3,(H2,6,8)/t4-/m0/s1
