16
gdb 34127	3.55211	1.47621	1.38611	4.2143	73.63	-0.2523	0.01	0.2624	952.2773	0.128022	-396.883026	-396.876598	-396.875654	-396.913779	26.361	
N	-0.0155689966	-1.1290485009	 0.0428448494	-0.341957
C	-0.0289511732	 0.0275802578	 0.0520555805	 0.166771
C	-0.0204429627	 1.469145691	 0.0289839942	 0.194628
C	-0.8551199741	 2.2230841725	-1.0364313762	-0.265718
C	-0.0746032141	 3.5436699202	-0.8591717267	-0.049242
N	 1.312574723	 3.2065038562	-1.2745074203	-0.293383
C	 1.3531708846	 2.3664514343	-0.0966661625	-0.039353
C	 0.4195823812	 3.3226165291	 0.6617585688	-0.005628
N	-0.2814264819	 2.2061278284	 1.29411845	-0.33181
H	-0.7669551052	 1.8228099341	-2.0500659507	 0.116423
H	-1.9119431496	 2.2628405528	-0.7575203143	 0.11162
H	-0.5050713343	 4.472114176	-1.2299731497	 0.084694
H	 1.3983220864	 2.7358009217	-2.174480165	 0.221641
H	 2.2788519676	 1.929000566	 0.2686223354	 0.10906
H	 0.7371865638	 4.1778717469	 1.252181862	 0.100845
H	-1.2726239049	 2.3509891541	 1.4864345553	 0.221409
145.2592	163.2758	399.7124	457.9219	481.867	544.356	563.1233	570.9312	690.3672	702.2062	776.8269	831.0141	846.9198	887.9187	914.2196	954.2196	983.8961	1002.1169	1018.5326	1035.823	1047.8491	1085.5104	1101.2481	1138.6921	1174.0618	1202.3716	1222.8258	1265.8486	1268.8793	1310.0566	1323.7466	1337.5674	1359.1337	1487.2258	2350.1212	3059.8407	3112.8059	3136.7602	3156.633	3165.507	3454.2336	3463.6943
N#CC12CC3NC1C3N2	N#C[C@]12C[C@@H]3N[C@H]1[C@@H]3N2	
InChI=1S/C6H7N3/c7-2-6-1-3-4(9-6)5(6)8-3/h3-5,8-9H,1H2	InChI=1S/C6H7N3/c7-2-6-1-3-4(9-6)5(6)8-3/h3-5,8-9H,1H2/t3-,4+,5-,6+/m0/s1
