21
gdb 104820	1.92485	1.54077	1.12409	3.1184	78.66	-0.2429	-0.028	0.2149	1206.4968	0.180937	-424.237934	-424.228093	-424.227148	-424.27291	36.271	
C	 0.6735453394	-0.7847307222	-1.5355229786	-0.398708
C	 0.0540827836	-0.1378980532	-0.2919804761	-0.220536
C	-1.4454286407	-0.4363828911	-0.1028298142	 0.176608
C	-2.3213042784	 0.1928209024	-1.2002902506	-0.112219
O	-2.1722427585	 1.5971717365	-1.2369708859	-0.42371
C	-1.7840366962	-1.9109401703	 0.3120447922	-0.299954
C	-2.0850382062	-1.4547673171	 1.7752059191	-0.338501
C	-1.961879231	-0.0114759006	 1.2810355799	 0.377811
O	-2.2833457011	 1.0613824	 1.7216135776	-0.327854
H	 1.7479558316	-0.5810974231	-1.5739681276	 0.11962
H	 0.5435327627	-1.8723273796	-1.5366104492	 0.115005
H	 0.2335824839	-0.3927566041	-2.4569677793	 0.130903
H	 0.6003564581	-0.4727424832	 0.5993594497	 0.091071
H	 0.1725090354	 0.9486698754	-0.3438284573	 0.125045
H	-2.0390205054	-0.1838871698	-2.1892202627	 0.111113
H	-3.372276724	-0.0973480441	-1.0339049671	 0.082954
H	-2.3615075508	 1.9205909711	-0.3451678238	 0.29702
H	-2.6636951235	-2.3091433778	-0.1991949226	 0.112666
H	-0.9648437674	-2.6230027006	 0.2046827143	 0.110739
H	-3.0504134174	-1.7220836781	 2.2124148571	 0.133191
H	-1.3001924342	-1.7177670505	 2.4915037552	 0.137736
63.4233	78.5237	131.5264	151.9945	198.3576	252.4499	273.8397	315.1363	347.4289	415.0809	507.2365	524.5026	554.8804	685.0865	724.194	753.3934	787.4553	856.5745	923.8899	927.3236	975.2401	1015.8659	1026.047	1056.3054	1074.152	1092.13	1134.7683	1173.773	1199.5395	1207.953	1234.4891	1248.5463	1284.3179	1330.5795	1361.647	1390.1105	1411.7231	1435.5843	1443.7506	1477.2187	1489.6924	1497.42	1502.3946	1516.7043	1854.7574	2962.7689	3022.4671	3037.9716	3059.4052	3066.1258	3073.677	3082.5464	3105.085	3110.9478	3114.8167	3131.8249	3747.7312
CCC1(CO)CCC1=O	CC[C@@]1(CO)CCC1=O	
InChI=1S/C7H12O2/c1-2-7(5-8)4-3-6(7)9/h8H,2-5H2,1H3	InChI=1S/C7H12O2/c1-2-7(5-8)4-3-6(7)9/h8H,2-5H2,1H3/t7-/m0/s1
