15
gdb 132607	3.14307	1.37964	0.96021	2.0373	74.53	-0.1897	-0.0026	0.1871	1133.65	0.114296	-458.16332	-458.155579	-458.154635	-458.195097	30.782	
N	 0.0115431035	 1.3723889084	 0.1753458926	-0.569059
C	-0.0171136783	-0.0118684128	 0.0816011974	 0.369252
C	-1.228346562	-0.7144174984	 0.0352789079	-0.208041
C	-1.1730910298	-2.1048291588	-0.0075960669	-0.18424
C	 0.0570413839	-2.7229972529	 0.0119380328	 0.186852
F	 0.174896285	-4.067032098	-0.03636854	-0.100737
C	 1.2252322443	-1.9512783279	 0.0655262949	 0.270149
N	 2.460193936	-2.5591041558	 0.1351556101	-0.571277
N	 1.1770296386	-0.6189833157	 0.0849767071	-0.399518
H	 0.9073344844	 1.768613976	-0.068620842	 0.249658
H	-0.7699561511	 1.8596648715	-0.2350539134	 0.246908
H	-2.1771837605	-0.191721368	 0.034825396	 0.086283
H	-2.0729518045	-2.7081025105	-0.0540203972	 0.1123
H	 2.5082812768	-3.5032729956	-0.2134489822	 0.257303
H	 3.2315236837	-1.9628284517	-0.122368297	 0.254167
136.3388	234.2826	285.0917	329.2293	358.5444	367.9333	417.442	452.4762	474.8863	521.4468	527.0141	572.9007	602.3517	700.2863	755.8387	781.4196	785.1292	805.7131	940.1875	975.989	1056.8685	1130.8338	1180.1239	1237.2693	1285.3135	1352.2477	1390.6175	1490.4646	1522.1136	1615.3528	1630.1592	1653.3983	1658.8427	3190.379	3205.3584	3573.7003	3584.244	3684.9959	3703.1845
NC1=CC=C(F)C(N)=N1	Nc1ccc(F)c(N)n1	
InChI=1S/C5H6FN3/c6-3-1-2-4(7)9-5(3)8/h1-2H,(H4,7,8,9)	InChI=1S/C5H6FN3/c6-3-1-2-4(7)9-5(3)8/h1-2H,(H4,7,8,9)
