16
gdb 29374	5.81822	0.91234	0.79644	1.5046	76.02	-0.2247	0.0179	0.2426	1382.0825	0.125292	-396.995426	-396.986796	-396.985851	-397.031167	30.493	
C	-0.6832067244	 1.4439080292	-0.4533565998	-0.488235
C	-0.1590129399	 0.089847324	-0.1026743222	 0.277683
C	 0.6333686792	-0.7431103155	-0.8509152345	-0.184997
N	 0.832266052	-1.8667745376	-0.0759625258	-0.281849
C	 0.1611158973	-1.6681899017	 1.0904835232	 0.370689
C	 0.1267002692	-2.6664796249	 2.2177333004	-0.456051
C	 0.8734132467	-3.8829479551	 1.905948384	 0.265791
N	 1.4767137281	-4.8242849785	 1.6143852739	-0.310143
N	-0.4457172519	-0.505073371	 1.1107304158	-0.359508
H	-0.3407471085	 2.1969389744	 0.2644006465	 0.134504
H	-0.3522437514	 1.746760096	-1.4503312986	 0.118961
H	-1.7782083075	 1.4587319843	-0.4370392236	 0.134549
H	 1.0629926359	-0.6474540814	-1.8340554239	 0.131211
H	 1.3684350834	-2.684286771	-0.3203430186	 0.281613
H	 0.5400114261	-2.2175607873	 3.1284560212	 0.182631
H	-0.9112657743	-2.9323188442	 2.448498252	 0.183151
6.3925	109.7097	115.0168	180.1581	257.3003	306.8547	374.289	399.3411	490.6418	560.6103	661.2396	672.8785	693.485	736.135	750.9372	944.7217	949.3853	989.9335	1013.6615	1029.9188	1065.7873	1119.5083	1205.0496	1250.0738	1285.7072	1309.4299	1373.9967	1416.5335	1456.676	1476.1378	1480.4821	1498.4912	1553.9446	1609.7909	2364.8487	3035.7088	3044.7119	3075.4119	3090.5124	3117.7141	3276.2078	3647.3928
CC1=CNC(CC#N)=N1	Cc1c[nH]c(CC#N)n1	
InChI=1S/C6H7N3/c1-5-4-8-6(9-5)2-3-7/h4H,2H2,1H3,(H,8,9)	InChI=1S/C6H7N3/c1-5-4-8-6(9-5)2-3-7/h4H,2H2,1H3,(H,8,9)
