21
gdb 111227	3.28351	1.26789	1.17667	0.8353	83.55	-0.2262	0.0205	0.2467	1163.6809	0.184267	-387.076156	-387.068141	-387.067197	-387.108481	31.875	
C	 0.0037314175	 1.3006690659	 0.2302391565	-0.243852
O	-0.0841599784	-0.0097645382	-0.2822581323	-0.260701
C	-1.356594734	-0.5889994973	-0.1243999417	 0.180588
C	-1.3193897675	-2.0552912133	-0.6264481923	-0.051962
C	-0.8424439016	-2.4477350589	 0.8045501681	-0.222293
C	-1.6376411045	-1.1988295968	 1.2962317358	-0.105106
C	-3.1073428134	-1.5532109458	 1.3422855392	-0.064941
C	-3.6338737378	-2.2039276296	 0.3031166006	-0.062313
C	-2.7523370614	-2.5579806295	-0.8748638062	-0.265474
H	 1.0145094286	 1.6619437262	 0.025519452	 0.125806
H	-0.7199197879	 1.9735714224	-0.2559421855	 0.104644
H	-0.1707472784	 1.3373091906	 1.3156607034	 0.106598
H	-2.136906493	 0.0743253693	-0.5266269005	 0.055397
H	-0.6545301942	-2.2565679566	-1.4692086606	 0.067543
H	-1.1463071463	-3.4192232037	 1.2012017023	 0.0892
H	 0.2341973248	-2.3104804339	 0.911020391	 0.108464
H	-1.289549101	-0.6589008848	 2.1780766925	 0.058274
H	-3.7026583823	-1.2706108777	 2.2051566054	 0.084717
H	-4.6801924958	-2.4943687264	 0.2770761176	 0.085937
H	-3.1543674269	-2.1149298604	-1.7971089474	 0.105006
H	-2.7515966366	-3.6446498416	-1.0416608579	 0.104467
105.5921	165.5571	179.5489	277.3224	280.9788	344.4358	421.5313	473.086	487.0325	516.0525	699.6275	717.0043	837.2081	855.1736	893.8524	911.2283	926.2391	938.6072	965.6933	980.2729	995.9585	1046.4702	1063.7653	1095.1218	1102.265	1129.7841	1145.9453	1170.5407	1183.9816	1194.1334	1233.3969	1240.4887	1270.8802	1289.3708	1301.1244	1311.9475	1356.2675	1383.6259	1400.1196	1473.8494	1479.5839	1486.5055	1489.095	1509.5747	1697.7768	2975.9134	2989.1222	3001.2094	3024.5831	3025.762	3067.6797	3086.3512	3095.1427	3113.754	3135.1354	3158.7479	3182.7291
COC1C2CC1C=CC2	CO[C@H]1[C@H]2C[C@@H]1C=CC2	
InChI=1S/C8H12O/c1-9-8-6-3-2-4-7(8)5-6/h2-3,6-8H,4-5H2,1H3	InChI=1S/C8H12O/c1-9-8-6-3-2-4-7(8)5-6/h2-3,6-8H,4-5H2,1H3/t6-,7+,8+/m0/s1
