21
gdb 103172	2.1135	1.40909	1.14183	3.3075	74.79	-0.2409	0.0523	0.2932	1206.3288	0.179795	-461.349949	-461.33969	-461.338746	-461.38518	37.877	
C	 0.304707169	 1.5200731809	-0.1773502028	-0.406593
C	 0.0327056219	 0.0509662223	 0.0631315633	 0.113013
O	 0.789203026	-0.813263871	-0.8218054635	-0.319573
C	 1.3951731581	-1.5295919959	 0.2782568265	 0.106929
C	 2.9097743097	-1.5148263982	 0.232699202	-0.397252
C	 0.6814221418	-0.6258778231	 1.3125688038	 0.325751
O	 1.5744472705	 0.1726159298	 2.0514026293	-0.474507
C	-0.2746707431	-1.3333443244	 2.2590705125	-0.15319
O	-0.8902793148	-0.3108031569	 3.0399171736	-0.437023
H	 1.3534717513	 1.7577231328	 0.0118065653	 0.130562
H	 0.06159669	 1.7765960621	-1.2131762013	 0.120635
H	-0.3168636267	 2.1346746419	 0.4828993323	 0.113903
H	-1.0426044918	-0.1584512227	-0.0271939558	 0.063671
H	 1.0304050439	-2.5682671022	 0.3045221973	 0.061034
H	 3.2930898363	-0.49407405	 0.2777347935	 0.135286
H	 3.3249623938	-2.0779520568	 1.0747998242	 0.113699
H	 3.2495888058	-1.9823797341	-0.696655873	 0.119887
H	 1.046325801	 0.5745719045	 2.7540886885	 0.288499
H	-1.0190998757	-1.9109408553	 1.6931851019	 0.099913
H	 0.2950498065	-2.0277008194	 2.8947221077	 0.097751
H	-1.3514604737	-0.7168749543	 3.7788942348	 0.297604
42.2363	96.4785	173.2085	203.9677	206.5722	240.158	261.144	268.2264	324.8917	335.0694	426.9031	459.0143	471.1713	526.0079	552.2129	696.9734	774.1474	872.1651	875.8915	940.8843	999.2857	1011.5345	1037.2028	1075.8773	1089.5295	1107.4472	1119.8785	1142.0401	1165.6844	1213.6532	1247.5031	1275.0255	1290.1768	1331.6373	1358.2044	1384.2968	1400.4066	1409.0238	1426.9798	1453.2237	1481.5952	1485.6722	1489.3476	1494.1285	1510.754	2973.3041	2987.445	2999.711	3031.3049	3039.9767	3043.8377	3106.512	3110.4104	3135.7443	3141.955	3760.7186	3842.3441
CC1OC(C)C1(O)CO	C[C@H]1O[C@@H](C)[C@]1(O)CO	
InChI=1S/C6H12O3/c1-4-6(8,3-7)5(2)9-4/h4-5,7-8H,3H2,1-2H3	InChI=1S/C6H12O3/c1-4-6(8,3-7)5(2)9-4/h4-5,7-8H,3H2,1-2H3/t4-,5+,6+
