18
gdb 35714	2.43205	1.44813	1.08156	4.8354	75.71	-0.278	0.0249	0.3029	1144.6632	0.148223	-401.927679	-401.919376	-401.918432	-401.961153	30.681	
N	-0.472055241	-0.9821362974	-0.7241792613	-0.3379
C	-0.2862013155	 0.0912860375	-0.3355469359	 0.279091
C	-0.0342337118	 1.4400478733	 0.1416256984	-0.145108
C	 0.2900713289	 1.6653720071	 1.6505019685	-0.221529
C	 1.3488468475	 2.7158033993	 1.2301409888	-0.239508
C	 1.3372572408	 2.1304875916	-0.2121063729	-0.066283
C	 2.4577583752	 1.1687702663	-0.5277187502	 0.088348
C	 3.8579801725	 1.4556660167	-0.1978423463	-0.192397
O	 3.1020748447	 0.5171684032	 0.5712827663	-0.227651
H	-0.8629274417	 2.0799276967	-0.1749174134	 0.124232
H	-0.5402071761	 1.9907120347	 2.2788868926	 0.112984
H	 0.7571471667	 0.782052471	 2.0875259756	 0.145447
H	 0.9617798761	 3.7371348764	 1.253811411	 0.107098
H	 2.2983161874	 2.6786585558	 1.7641619109	 0.12358
H	 1.2613809622	 2.8532534001	-1.0300417146	 0.092606
H	 2.2643653964	 0.5081143525	-1.3740504512	 0.117095
H	 4.6520544624	 1.02785603	-0.8072439034	 0.124388
H	 4.1143036555	 2.3811339952	 0.316021667	 0.115507
71.6709	107.466	123.8931	208.3235	247.763	279.3139	402.7575	503.5707	543.2692	575.553	694.5947	749.5173	754.6196	855.6223	892.1298	925.5036	949.2422	959.0218	981.5335	1044.3634	1066.4746	1084.4712	1108.4081	1118.2969	1163.3258	1171.1821	1215.4007	1233.2393	1248.9393	1274.4921	1278.3708	1298.1832	1338.3032	1367.1431	1430.0487	1473.4253	1492.892	1530.7557	2350.2026	3058.8336	3071.1528	3078.4359	3085.6781	3087.6009	3106.6524	3134.8502	3151.3497	3174.438
N#CC1CCC1C1CO1	N#C[C@H]1CC[C@H]1[C@H]1CO1	
InChI=1S/C7H9NO/c8-3-5-1-2-6(5)7-4-9-7/h5-7H,1-2,4H2	InChI=1S/C7H9NO/c8-3-5-1-2-6(5)7-4-9-7/h5-7H,1-2,4H2/t5-,6-,7-/m1/s1
