16
gdb 127601	3.32211	1.45622	1.01919	4.1325	79.35	-0.2079	-0.0473	0.1606	1121.0729	0.126409	-430.270026	-430.261834	-430.26089	-430.302611	30.951	
C	-0.0135221025	 1.4176458941	-0.0260696917	-0.301712
N	-0.0099228634	-0.0378734738	-0.0049144495	-0.022012
N	-0.0537511405	-0.6568150188	-1.1732943613	-0.160562
C	-0.0544988467	-1.9552231699	-1.1802694897	-0.078426
C	-0.0016139029	-2.6927016331	 0.059562051	 0.372762
N	-0.039926653	-4.0542144849	 0.020206916	-0.561293
N	 0.049016303	-2.0907132184	 1.2142059358	-0.399339
C	 0.0359929259	-0.7082986936	 1.2444066944	 0.42688
N	 0.0681189472	 0.0246026996	 2.2929592675	-0.576402
H	 0.88426238	 1.8000747764	 0.465882435	 0.150973
H	-0.0490630614	 1.72780263	-1.0695251264	 0.136499
H	-0.8779911561	 1.7967468609	 0.5246561711	 0.151533
H	-0.0986214035	-2.4406715451	-2.1483757462	 0.113926
H	 0.1893857461	-4.5323199228	-0.8341204238	 0.264094
H	 0.1598750708	-4.5348088063	 0.883312688	 0.26761
H	 0.1000490271	-0.5854712743	 3.1078875997	 0.21547
94.2159	147.8162	190.9525	257.7356	317.8505	335.2376	357.057	435.1851	498.2878	525.5521	534.8034	610.1202	723.0344	748.852	765.6086	793.751	824.3452	837.9221	970.7743	1038.2153	1060.1094	1152.7426	1198.8051	1231.2305	1296.2193	1325.4796	1392.7755	1436.4842	1466.0903	1477.4314	1511.4448	1565.1589	1622.4932	1670.6531	1702.5564	3056.3731	3119.5988	3169.9624	3191.0652	3509.9647	3598.0313	3725.0521
CN1N=CC(N)=NC1=N	CN1N=C[C@H](N)N=C1[NH]	
InChI=1S/C4H7N5/c1-9-4(6)8-3(5)2-7-9/h2H,1H3,(H3,5,6,8)	InChI=1S/C4H8N5/c1-9-4(6)8-3(5)2-7-9/h2-3,6H,5H2,1H3/t3-/m1/s1
