16
gdb 12675	2.71336	2.30505	1.52784	3.2721	59.8	-0.2742	0.0017	0.2759	849.8856	0.130937	-420.92303	-420.915476	-420.914532	-420.954748	28.1	
C	 0.2660351967	 1.5982880684	 0.0382464426	-0.397035
C	-0.0266647712	 0.0961654711	 0.0075021015	-0.057252
C	 0.6862591261	-0.6270223993	-1.1539955332	-0.094738
O	 2.0114364898	-0.955971843	-0.6659122258	-0.216869
C	 2.0154504345	-0.9255782801	 0.6811612746	 0.413622
O	 2.9949725685	-1.0633825465	 1.3608536105	-0.359849
C	 0.6032019642	-0.6542521931	 1.1940643493	 0.010795
O	 0.6212434124	 0.0298936783	 2.4145049094	-0.433446
H	 1.3431445681	 1.7961891835	 0.017044098	 0.131477
H	-0.1850760549	 2.093560021	-0.8267800007	 0.11534
H	-0.1341678053	 2.0469724252	 0.9491560008	 0.144297
H	-1.1052173675	-0.072949971	-0.0472599993	 0.091647
H	 0.1834460483	-1.5576064825	-1.4393482266	 0.121327
H	 0.8146392444	-0.0052566569	-2.04205049	 0.131322
H	 0.1069866377	-1.63581757	 1.3003548686	 0.100698
H	 1.4919822382	-0.141364495	 2.8023425402	 0.298663
100.7458	183.969	220.8953	251.3339	267.5458	349.8445	389.4204	514.4898	525.1835	608.3393	707.0101	738.4561	826.0262	875.3318	922.5246	961.2777	1007.6895	1070.8857	1092.9749	1155.9536	1165.4913	1201.8124	1235.4849	1240.5467	1293.3694	1359.0202	1380.282	1397.4041	1417.1175	1428.0084	1493.7708	1499.5839	1517.8937	1871.8902	2943.4801	3041.8453	3046.1555	3075.633	3108.506	3117.7238	3138.2558	3731.421
CC1COC(=O)C1O	C[C@H]1COC(=O)[C@H]1O	
InChI=1S/C5H8O3/c1-3-2-8-5(7)4(3)6/h3-4,6H,2H2,1H3	InChI=1S/C5H8O3/c1-3-2-8-5(7)4(3)6/h3-4,6H,2H2,1H3/t3-,4-/m0/s1
