18
gdb 22132	3.61257	0.89712	0.85654	2.6119	72.55	-0.2413	0.0081	0.2494	1382.0611	0.144918	-476.16135	-476.151886	-476.150942	-476.195716	35.438	
O	 0.0212938233	 1.1132241297	-0.4593885485	-0.435754
C	-0.174668922	-0.2682732854	-0.170233713	-0.138194
C	-1.6368377538	-0.4137860969	 0.2246491441	 0.42916
O	-1.9273429638	 0.4223898136	 1.3156915142	-0.488572
C	-2.6209620746	-0.3274768207	-1.0037379321	-0.372751
C	-2.7744075956	-1.8266224736	-0.8857158342	 0.424056
C	-2.0739004787	-1.8874530885	 0.4557391752	-0.37843
N	-3.2297815606	-2.6716770554	-1.7108337303	-0.238685
O	-3.1153092336	-3.9813822307	-1.2006046749	-0.395839
H	 0.9639748068	 1.2853703829	-0.5323897563	 0.29687
H	 0.0542030042	-0.9000592633	-1.0409539285	 0.099439
H	 0.4558633455	-0.5909865939	 0.6710946912	 0.099168
H	-1.4872480981	 1.2625422329	 1.1294086377	 0.285967
H	-3.5306399873	 0.2134972177	-0.7257257548	 0.125706
H	-2.2313724788	 0.0737724425	-1.9417783002	 0.123027
H	-1.2928315612	-2.6438261911	 0.5729218962	 0.121016
H	-2.7685939417	-1.9612831458	 1.2980148482	 0.138583
H	-3.47901946	-4.5093516739	-1.9192905439	 0.305233
48.5125	121.0279	192.4576	210.6367	251.3317	264.8792	329.7661	351.3775	362.6647	408.4626	470.2807	474.4991	503.7548	555.594	691.2452	757.3849	823.0542	860.5765	926.3442	951.5769	967.3791	1034.9643	1043.6868	1071.4012	1105.6008	1145.7446	1187.3755	1207.3771	1215.7285	1238.986	1277.2292	1311.6063	1399.5512	1405.4957	1442.7308	1451.4227	1465.6352	1509.4414	1789.3553	2986.7167	3028.4984	3055.6953	3060.2205	3109.0983	3119.3695	3763.8289	3819.1213	3843.1801
OCC1(O)CC(C1)=NO	OC[C@@]1(O)CC(=NO)C1	
InChI=1S/C5H9NO3/c7-3-5(8)1-4(2-5)6-9/h7-9H,1-3H2	InChI=1S/C5H9NO3/c7-3-5(8)1-4(2-5)6-9/h7-9H,1-3H2/t5-
