29
gdb 122006	4.46282	0.48223	0.45353	0.0435	101.29	-0.2909	0.0862	0.3771	2604.0381	0.273396	-354.781281	-354.768824	-354.76788	-354.820064	44.63	
C	-0.016886941	 1.5485671462	-0.2010965831	-0.379977
C	 0.0434762493	 0.0237332976	-0.076572398	-0.160837
C	 0.6733752263	-0.450858538	 1.2383589878	-0.172531
C	 0.7246502564	-1.9782745179	 1.3635600347	-0.17875
C	 1.4494540887	-2.5191049057	 2.6118405432	 0.024436
C	 0.7407706181	-2.1067200071	 3.9108689872	-0.389523
C	 1.6101154129	-4.0482122872	 2.5047247842	-0.158056
C	 2.496740325	-4.6971502814	 3.5747497415	-0.176869
C	 2.692218234	-6.1996054113	 3.3491090907	-0.37786
H	 0.9850040112	 1.9898520664	-0.1524511209	 0.112193
H	-0.4698551722	 1.8560896813	-1.148979957	 0.109381
H	-0.6093967811	 1.988718606	 0.6089104548	 0.112226
H	-0.9698755755	-0.3909493828	-0.1617813772	 0.093068
H	 0.6106100687	-0.3911543651	-0.9204484088	 0.092566
H	 1.6920904852	-0.0449958949	 1.3180032848	 0.088516
H	 0.1094182031	-0.0195270458	 2.0749674323	 0.09461
H	-0.2996492364	-2.378841129	 1.3428925191	 0.087279
H	 1.222145818	-2.3831478062	 0.4715099306	 0.085951
H	 2.4594438721	-2.0805703029	 2.623627146	 0.06476
H	 1.2761115409	-2.4646000402	 4.7947464396	 0.112921
H	 0.6605856305	-1.0198811914	 4.0009767748	 0.113346
H	-0.2751423503	-2.5198415956	 3.9469484292	 0.1079
H	 0.6145916642	-4.5159938641	 2.5267084314	 0.086704
H	 2.0297927961	-4.2854316505	 1.5173217726	 0.085447
H	 3.4755757764	-4.1986230476	 3.5838416926	 0.09176
H	 2.0652502648	-4.5381375719	 4.5698889265	 0.097761
H	 1.73329094	-6.7298370339	 3.3641443667	 0.112609
H	 3.1614368605	-6.3972832898	 2.3787619109	 0.112068
H	 3.328266934	-6.6416000572	 4.1226231438	 0.1089
51.807	61.1903	79.8567	95.6807	113.3427	141.6356	193.5605	229.8162	248.6407	254.17	279.0604	314.0124	337.4964	410.6917	483.4998	514.4317	736.0705	745.6635	788.3752	836.9819	870.539	898.4356	905.6294	916.199	957.9232	1000.7665	1023.9608	1041.9441	1057.4204	1065.1217	1083.4904	1100.3655	1163.0083	1178.775	1202.7802	1242.501	1266.7605	1281.2439	1306.8878	1318.9272	1332.1191	1336.3469	1349.5162	1379.5678	1382.1536	1394.8523	1402.8947	1410.5055	1413.9562	1417.1785	1474.9624	1484.8598	1486.6395	1493.8684	1498.2662	1499.3287	1500.0287	1500.8969	1507.306	1511.5607	1514.0145	2981.0524	2994.049	3000.0669	3006.1085	3015.9317	3017.4959	3025.9847	3027.8671	3028.2327	3028.5188	3032.4737	3038.4445	3059.5317	3063.977	3094.5581	3095.1649	3097.1907	3099.52	3099.7139	3111.608
CCCCC(C)CCC	CCCC[C@@H](C)CCC	
InChI=1S/C9H20/c1-4-6-8-9(3)7-5-2/h9H,4-8H2,1-3H3	InChI=1S/C9H20/c1-4-6-8-9(3)7-5-2/h9H,4-8H2,1-3H3/t9-/m0/s1
