14
gdb 132120	3.036	1.44117	0.97936	3.3697	72.06	-0.1973	-0.0448	0.1525	1107.3989	0.101147	-477.993888	-477.986194	-477.98525	-478.026063	29.197	
N	 0.053178825	 1.472942223	 0.1378341324	-0.600936
C	 0.032711414	 0.0626371079	 0.035755959	-0.01086
C	-1.0945128521	-0.6727647604	 0.0065030375	 0.3443
F	-2.3077329614	-0.1446736294	 0.009266408	-0.055257
O	-1.1545033134	-2.0072548459	 0.0109479849	-0.252364
C	 0.0133373956	-2.7962896347	-0.0228511088	 0.389228
N	-0.0729421474	-4.0610956693	-0.0602924352	-0.537157
C	 1.2511558801	-2.0468837408	 0.0006967576	-0.167301
C	 1.2565640579	-0.6976853321	 0.0397802648	-0.082768
H	 0.6019416931	 1.898511283	-0.6018509198	 0.248342
H	-0.8817968222	 1.8609568522	 0.1063810912	 0.249754
H	-1.0455668255	-4.3660841962	-0.0659908832	 0.225675
H	 2.1593783822	-2.6338752603	-0.0038177133	 0.12881
H	 2.1921017241	-0.148849467	 0.0804331149	 0.120534
103.966	193.5663	211.0262	284.6078	306.498	344.5943	427.0947	472.0934	509.1771	584.0785	619.4788	707.4705	728.6361	780.3994	811.8202	827.0306	849.4056	915.7636	991.2386	1021.9207	1111.5608	1171.0229	1207.3628	1282.1054	1315.082	1377.33	1457.7432	1610.0355	1652.7966	1709.8379	1769.673	3186.7184	3235.2298	3503.091	3511.4326	3607.3904
NC1=C(F)OC(=N)C=C1	NC1=C(F)OC(=CC1)[NH]	
InChI=1S/C5H5FN2O/c6-5-3(7)1-2-4(8)9-5/h1-2,8H,7H2	InChI=1S/C5H6FN2O/c6-5-3(7)1-2-4(8)9-5/h2,8H,1,7H2
