19
gdb 104876	2.14074	1.61623	1.21223	1.0238	71.86	-0.2405	0.0112	0.2517	1099.2558	0.158416	-460.153105	-460.143919	-460.142975	-460.18745	33.949	
O	-0.1321520334	 1.3989746944	 0.2427823172	-0.420587
C	-0.0442429982	 0.0068921608	 0.0401726487	-0.092879
C	-1.4327911903	-0.6463131176	-0.1083263126	 0.260559
C	-1.3145496799	-2.1830613329	-0.0736140145	-0.092876
O	-2.5733666903	-2.8095783084	 0.0239958657	-0.420587
O	-2.2318571133	-0.2421951944	 1.0344882906	-0.331926
C	-3.4050812311	 0.460734246	 0.6051706944	-0.145631
C	-3.3178018476	 0.4879099595	-0.8925958105	-0.097942
C	-2.2150128423	-0.1312730046	-1.288001712	-0.07036
H	-0.7121673699	 1.5110229839	 1.0050972496	 0.287404
H	 0.5395079441	-0.1495221328	-0.8735125331	 0.11002
H	 0.4919024849	-0.4853273571	 0.8673023132	 0.090088
H	-0.8474212266	-2.5406726047	-0.9977119806	 0.110019
H	-0.6587151615	-2.4688114805	 0.7643019674	 0.090089
H	-2.9933799996	-2.4215572885	 0.8006072461	 0.287403
H	-4.3034787741	-0.0610424465	 0.9678230501	 0.108783
H	-3.4162293911	 1.4683626268	 1.0472661899	 0.108782
H	-4.0669604484	 0.9550169929	-1.5185645219	 0.111462
H	-1.8783716114	-0.2736272364	-2.3068539079	 0.10818
57.2932	94.9624	111.6871	188.802	223.3724	282.3138	355.747	398.1196	408.2208	446.622	462.1003	627.3322	649.0866	743.5716	778.427	809.0649	873.0168	952.0096	961.1845	967.6374	1030.2672	1032.1737	1045.8527	1072.7841	1104.5767	1113.6173	1152.5167	1197.9176	1203.431	1211.9487	1277.1988	1349.0183	1374.1521	1377.0125	1414.7829	1418.2094	1433.1336	1492.1122	1502.9558	1522.1717	1699.1547	2970.3582	2983.5982	2984.407	3003.909	3067.8619	3076.3463	3209.6078	3233.7393	3794.6084	3796.4266
OCC1(CO)OCC=C1	OCC1(CO)OCC=C1	
InChI=1S/C6H10O3/c7-4-6(5-8)2-1-3-9-6/h1-2,7-8H,3-5H2	InChI=1S/C6H10O3/c7-4-6(5-8)2-1-3-9-6/h1-2,7-8H,3-5H2
