17
gdb 8166	2.89544	2.57265	1.72696	1.9328	67.57	-0.217	-0.0115	0.2055	800.7733	0.143336	-363.849141	-363.842209	-363.841265	-363.880005	27.127	
C	-0.0533022965	 1.5577187497	 0.0267232001	-0.505
C	 0.0358154445	 0.0551973565	 0.0274910356	 0.196292
C	 0.9619686328	-0.8168731911	-0.883257694	-0.222386
N	 0.7356884455	-1.9383355932	 0.11221185	-0.125616
C	 0.6696062158	-0.8331614517	 1.148581268	-0.222389
C	-0.7178045218	-2.1874398981	-0.0989263266	-0.286987
C	-1.2542324785	-0.7388409503	-0.1645070724	 0.400367
O	-2.3743774497	-0.334274965	-0.3225200041	-0.334994
H	 0.9277360246	 2.0205962879	 0.1713019964	 0.115332
H	-0.4687730811	 1.9184109143	-0.919741831	 0.13375
H	-0.7190919932	 1.904454192	 0.8235988876	 0.133741
H	 0.6542135016	-1.0335302197	-1.9105703086	 0.111413
H	 2.0064555084	-0.4957895079	-0.8607690988	 0.116327
H	 1.6773380308	-0.5141331727	 1.4265212389	 0.116327
H	 0.0851970995	-1.065229195	 2.0439228229	 0.111411
H	-0.8962729663	-2.7390991623	-1.0263237392	 0.131207
H	-1.1492462166	-2.7531866233	 0.7317567952	 0.131205
130.887	169.2385	231.7323	300.0972	441.989	453.5808	509.3387	625.3409	625.659	637.7723	736.6382	812.279	865.2167	895.2401	895.5642	987.3521	991.9548	1000.4575	1038.4049	1062.8472	1082.8003	1140.8388	1202.9245	1217.367	1219.9342	1229.4219	1252.2622	1291.9769	1357.0256	1415.8711	1468.2923	1486.8544	1487.0929	1499.868	1531.6777	1868.5316	3036.2616	3048.5792	3052.8962	3062.8058	3105.6398	3107.1705	3110.566	3114.3075	3114.8716
CC12CN(C1)CC2=O	C[C@@]12CN(C1)CC2=O	
InChI=1S/C6H9NO/c1-6-3-7(4-6)2-5(6)8/h2-4H2,1H3	InChI=1S/C6H9NO/c1-6-3-7(4-6)2-5(6)8/h2-4H2,1H3
