23
gdb 119092	2.08726	1.2845	0.95503	1.9511	82.86	-0.2415	0.077	0.3185	1371.7795	0.203588	-425.392917	-425.382537	-425.381593	-425.428687	37.515	
C	 0.1855959603	 1.1795506916	-0.5252756111	-0.223949
O	 0.1398129368	-0.2100672047	-0.3118311376	-0.231198
C	 0.6575709929	-0.5909538749	 0.9403820558	-0.120138
C	 0.6246828134	-2.1128391598	 1.0581427488	 0.422492
C	 1.661515063	-2.8122065118	 0.1469476645	-0.267181
C	 2.625800749	-2.9181028688	 1.3602257897	-0.217871
C	 1.431515352	-2.6056851395	 2.3042899086	-0.284365
O	-0.6612964879	-2.6591437121	 0.8723008505	-0.281721
C	-1.6679763804	-2.1845614859	 1.7386001168	-0.25367
H	 1.2179564688	 1.5644875725	-0.5010342301	 0.101671
H	-0.2401258715	 1.3738698709	-1.5127519283	 0.128293
H	-0.4000934286	 1.7303387768	 0.2284017568	 0.10131
H	 1.6995081696	-0.246305074	 1.056223046	 0.086863
H	 0.0803456035	-0.1259782781	 1.7581411241	 0.082721
H	 1.27731988	-3.7863945158	-0.162466036	 0.111075
H	 1.9893441544	-2.2585795798	-0.7346308329	 0.105881
H	 3.1314188329	-3.8743051663	 1.5073644386	 0.100883
H	 3.3816691584	-2.1285196124	 1.3683896319	 0.101996
H	 1.5989229061	-1.8972901208	 3.1209576867	 0.08976
H	 0.9762593986	-3.5137173299	 2.7074629309	 0.107711
H	-1.3667299807	-2.2409483318	 2.795759762	 0.101383
H	-1.9611493839	-1.1507165068	 1.5101650826	 0.113702
H	-2.5385473366	-2.8291587186	 1.5926381017	 0.124351
60.0141	88.2686	115.8823	144.2256	159.1617	201.9508	230.4445	277.8033	326.9947	362.1504	382.5111	448.4884	518.9938	660.7942	745.6002	793.3551	866.9164	902.6282	921.7323	934.0034	983.1628	992.9322	1045.0891	1078.2092	1109.8357	1160.7559	1173.5377	1179.7284	1190.8175	1196.6601	1208.7517	1229.0019	1233.6073	1248.1865	1260.2768	1275.2575	1304.2041	1320.7527	1414.675	1467.3849	1474.8215	1481.157	1484.0721	1486.0019	1490.4194	1498.7794	1504.4043	1509.8782	1526.5837	2949.2052	2967.4642	2975.0034	2984.5137	3007.7316	3038.3392	3052.0558	3065.429	3075.7822	3103.2546	3108.0666	3113.185	3118.7065	3135.3457
COCC1(CCC1)OC	COCC1(CCC1)OC	
InChI=1S/C7H14O2/c1-8-6-7(9-2)4-3-5-7/h3-6H2,1-2H3	InChI=1S/C7H14O2/c1-8-6-7(9-2)4-3-5-7/h3-6H2,1-2H3
