13
gdb 131227	5.4653	1.27727	1.03531	5.5321	66.14	-0.1949	0.0109	0.2059	1037.3863	0.09148	-448.919228	-448.911952	-448.911008	-448.95085	27.222	
O	 0.0802261849	 1.3146548284	 0.2002722292	-0.431154
C	 0.0690511773	-0.0225867728	-0.0046486832	 0.409897
C	 0.0816784598	-0.7989822859	-1.1343119635	-0.452962
C	 0.0576437506	-2.1547366273	-0.6481916333	 0.320361
C	 0.0324751249	-2.1018284625	 0.7352625006	 0.430548
N	 0.0106696397	-3.3815869889	 1.1488004049	-0.35683
N	 0.0220122584	-4.2087795956	 0.0406199209	-0.136446
N	 0.05021543	-3.4646299283	-1.0265249685	-0.297417
N	 0.0386262778	-0.8002646765	 1.1546030392	-0.456668
H	 0.0989575064	 1.7557801733	-0.6548753414	 0.314134
H	 0.1046120566	-0.4445550056	-2.1517561952	 0.107067
H	-0.0111192574	-3.7939479441	 2.0649968813	 0.274746
H	 0.0269266809	-0.4247480541	 2.085940939	 0.274724
117.3188	157.3384	249.7054	319.8468	333.2007	364.4821	416.1784	526.581	567.7757	644.5735	680.2625	724.146	771.7239	779.6901	848.099	939.0059	991.2425	1028.0144	1149.8235	1184.2192	1217.8361	1238.4367	1308.106	1371.4232	1443.1615	1500.1766	1522.0541	1625.1127	1648.5916	3263.305	3687.126	3691.881	3844.4782
OC1=CC2=C(NN=N2)N1	Oc1cc2c([nH]nn2)[nH]1	
InChI=1S/C4H4N4O/c9-3-1-2-4(5-3)7-8-6-2/h1H,(H3,5,6,7,8,9)	InChI=1S/C4H4N4O/c9-3-1-2-4(5-3)7-8-6-2/h1H,(H3,5,6,7,8,9)
