12
gdb 123286	9.6662	0.67956	0.63492	2.9048	89.39	-0.2491	-0.0598	0.1893	1613.6496	0.076987	-398.286415	-398.278879	-398.277935	-398.319039	27.449	
C	 0.0642497643	-3.7474226895	-0.0188080266	-0.584255
C	 0.0397562309	-2.5398448107	-0.011763316	 0.257713
C	 0.0143310507	-1.1824162062	-0.0038697203	 0.029258
C	-0.0125424381	 0.0288386541	 0.0032174583	 0.303011
C	 0.0013788845	 1.4412614147	 0.0108932326	 0.122537
N	-1.1260216399	 2.1377474764	 0.0291349317	-0.189347
O	-0.7392837393	 3.4626939346	 0.0315872313	-0.153989
C	 0.60116789	 3.5399560745	 0.0149379758	 0.053268
C	 1.1455919966	 2.3006352382	 0.0011008026	-0.33432
H	 0.0816165642	-4.8091629289	-0.0249544914	 0.198598
H	 1.0146660791	 4.5363305976	 0.0152203693	 0.15932
H	 2.1837016671	 2.0176837053	-0.0136988873	 0.138206
74.8904	85.8437	226.4511	234.5332	433.9577	436.775	482.7954	525.0753	553.0702	606.8151	608.2054	614.3208	732.6237	803.9659	873.6295	916.4167	932.7581	963.3134	1050.2192	1098.7539	1152.7899	1315.1427	1402.4017	1480.4084	1580.9495	2184.483	2352.5297	3268.4162	3298.1253	3503.5999
C#CC#CC1=NOC=C1	C#CC#Cc1nocc1	
InChI=1S/C7H3NO/c1-2-3-4-7-5-6-9-8-7/h1,5-6H	InChI=1S/C7H3NO/c1-2-3-4-7-5-6-9-8-7/h1,5-6H
