18
gdb 12137	4.92247	1.51896	1.40168	1.8305	72.71	-0.2416	0.0898	0.3314	956.2622	0.152748	-347.756443	-347.748919	-347.747975	-347.787848	29.437	
C	 0.0801757013	 1.5283468173	-0.0097565923	-0.498555
C	-0.0798366458	 0.0500970605	 0.1288769404	 0.42903
C	-1.3785669835	-0.7861405668	 0.0349959314	-0.385107
C	-0.7138443143	-1.8020575789	 0.9982817628	 0.385543
C	-1.3573634858	-2.4640049959	 2.1804190079	-0.333176
C	-0.8147837952	-3.2946867764	 1.0363014877	-0.317839
C	 0.5350277367	-0.9447671219	 1.0286226391	-0.138623
O	 0.9822603993	-0.7990489046	-0.3326140452	-0.288908
H	 1.093412782	 1.829888409	 0.2689191305	 0.133286
H	-0.0952267399	 1.8430134342	-1.0450705876	 0.129874
H	-0.6342419845	 2.0596436841	 0.6273717492	 0.123048
H	-2.2484361732	-0.2889968768	 0.4742961683	 0.103915
H	-1.6211130812	-1.1408488949	-0.9703104422	 0.10656
H	-0.8158540341	-2.4746915545	 3.1214560392	 0.11255
H	-2.4340251595	-2.3804841021	 2.290006758	 0.112286
H	-1.5285675412	-3.7711115975	 0.3721173818	 0.115082
H	 0.0911690712	-3.8688679363	 1.2004883037	 0.116359
H	 1.2801495575	-0.8415923787	 1.8108235171	 0.094677
107.8685	194.9162	214.1455	268.5323	326.2657	354.2352	418.3336	481.6775	565.2845	674.2414	769.7716	777.532	845.6037	864.3942	893.9941	912.252	943.571	976.6395	987.2071	1006.9432	1044.5434	1056.7443	1075.7625	1107.829	1165.2297	1184.9173	1195.7195	1202.8776	1238.8636	1270.2815	1392.8561	1404.5903	1452.5364	1464.1617	1474.5832	1484.8046	1495.4607	1508.4085	3032.3236	3052.6441	3093.8065	3109.5755	3120.2118	3121.5993	3128.2297	3171.4617	3199.5852	3215.3888
CC12CC3(CC3)C1O2	C[C@]12CC3(CC3)[C@H]1O2	
InChI=1S/C7H10O/c1-6-4-7(2-3-7)5(6)8-6/h5H,2-4H2,1H3	InChI=1S/C7H10O/c1-6-4-7(2-3-7)5(6)8-6/h5H,2-4H2,1H3/t5-,6-/m0/s1
