18
gdb 38742	2.87464	2.07897	1.97338	0.5147	74.7	-0.2078	0.0004	0.2082	823.134	0.152055	-401.918199	-401.91231	-401.911366	-401.94793	26.096	
C	-0.0095685855	 1.4955844747	 0.0701465224	-0.187321
C	 1.5150465234	 1.415477224	-0.0086672484	 0.108478
O	 2.0441136753	 1.1254974433	 1.2759267126	-0.282608
C	 1.7435769069	-0.2410521717	 1.6674761283	 0.038763
C	 0.2430627	-0.5124579894	 1.3600760798	-0.180654
N	-0.0602478627	-0.0122291806	 0.0024976454	-0.136528
C	 1.2793094327	 0.063206114	-0.7790234446	-0.066682
C	 2.2783594683	-0.997183985	-0.5060635478	-0.065648
C	 2.5428872374	-1.163027119	 0.7930861505	-0.076283
H	-0.4397471787	 1.9347918963	 0.9738988662	 0.103116
H	-0.4820673404	 1.9246967074	-0.819580839	 0.100746
H	 2.1182874137	 2.2143108326	-0.4489310917	 0.07519
H	 1.9866208296	-0.3126860571	 2.7282022614	 0.079223
H	 0.0394773614	-1.5855705774	 1.4256815172	 0.105754
H	-0.4120662124	 0.0025446777	 2.0699207203	 0.105653
H	 1.0485124165	 0.2138021155	-1.833929185	 0.080016
H	 2.7574226442	-1.5442646188	-1.3102258674	 0.099484
H	 3.2463823703	-1.8797483467	 1.20026972	 0.0993
319.5951	344.4707	379.5089	441.6917	502.7819	535.5191	634.3729	679.2513	704.453	755.8746	814.1485	826.4286	832.2513	876.036	895.0918	935.3198	958.4571	974.1276	997.9658	1010.7423	1053.7752	1067.7868	1094.7261	1104.6544	1149.9276	1167.1896	1222.0799	1240.3287	1246.6579	1279.7509	1291.2262	1320.2049	1328.8445	1359.4868	1381.2439	1404.3996	1485.7307	1503.1298	1673.8369	3040.0238	3043.6562	3069.8288	3087.3104	3105.4914	3107.5439	3108.9647	3182.2953	3206.2911
C1C2OC3CN1C2C=C3	C1[C@H]2O[C@H]3CN1[C@@H]2C=C3	
InChI=1S/C7H9NO/c1-2-6-7-4-8(6)3-5(1)9-7/h1-2,5-7H,3-4H2	InChI=1S/C7H9NO/c1-2-6-7-4-8(6)3-5(1)9-7/h1-2,5-7H,3-4H2/t5-,6-,7-/m1/s1
