18
gdb 106927	2.97957	1.26613	1.22663	5.1305	71.42	-0.2716	0.0155	0.2871	1119.381	0.14816	-439.109785	-439.10158	-439.100636	-439.142876	30.668	
C	 0.0584209161	 1.4487429014	 0.396409212	-0.389412
C	-0.0776877618	 0.0658793346	-0.2517277475	-0.281778
C	-1.4542978482	-0.5462761277	-0.1002173261	 0.314293
C	-1.6476781163	-1.9730950866	 0.2429767178	-0.307851
N	-1.9049891441	-0.9100242848	 1.2582755162	-0.206328
C	-3.3034936669	-0.6029915499	 1.3188764575	 0.455389
O	-4.0234250004	-0.7812072853	 2.2498802401	-0.337584
O	-3.7352743228	-0.050615577	 0.1423315412	-0.232611
C	-2.6504094136	 0.1233506183	-0.7718277609	-0.153959
H	 1.0823351247	 1.8193036662	 0.2959806968	 0.122679
H	-0.6031197356	 2.1889581282	-0.0648875447	 0.119982
H	-0.1837240216	 1.3961283375	 1.4615636676	 0.1452
H	 0.163066019	 0.1188092322	-1.3217530261	 0.10765
H	 0.652870085	-0.6172450443	 0.1938226141	 0.115492
H	-2.5102703702	-2.5011918639	-0.1560092007	 0.139704
H	-0.7897717695	-2.5971949537	 0.4710506044	 0.135479
H	-2.4810945465	 1.194531481	-0.9200201531	 0.12629
H	-2.9224421474	-0.3262631562	-1.7317628687	 0.127366
77.4406	123.2496	149.4427	211.2266	272.7299	307.4586	385.9566	460.2895	552.073	568.4074	703.9051	732.8012	782.0117	818.665	823.3346	877.4199	914.4131	955.8353	1000.8759	1046.879	1056.4172	1075.3887	1094.3939	1116.2987	1131.0022	1161.8371	1225.9493	1257.4205	1321.9803	1349.0193	1389.5948	1411.7537	1416.4195	1478.6454	1498.1728	1507.7745	1508.219	1526.0172	1906.3616	3027.0847	3042.5885	3049.1676	3073.115	3090.4176	3111.0004	3113.4147	3123.2817	3207.7815
CCC12CN1C(=O)OC2	CC[C@@]12CN1C(=O)OC2	
InChI=1S/C6H9NO2/c1-2-6-3-7(6)5(8)9-4-6/h2-4H2,1H3	InChI=1S/C6H9NO2/c1-2-6-3-7(6)5(8)9-4-6/h2-4H2,1H3/t6-,7?/m0/s1
