13
gdb 132829	3.03369	1.49922	1.00337	1.8521	77.35	-0.2576	-0.0584	0.1992	1073.7779	0.089484	-423.597191	-423.590063	-423.589118	-423.62886	27.113	
F	-0.0042574127	 0.037106937	 0.0040156669	-0.053637
C	-0.0108599207	 1.3670856075	 0.0106330348	 0.163936
C	-1.2214105445	 2.0455045289	 0.0296361214	-0.084944
N	-1.3018187691	 3.3760828245	 0.0372062376	-0.264557
C	-0.1547004512	 4.0625307226	 0.0257166458	 0.007694
C	 1.0997486585	 3.4671425481	 0.0065536505	-0.19759
C	 1.1990893337	 2.0682272609	-0.0015939961	 0.021504
C	 2.4483699522	 1.391781258	-0.021093264	 0.225416
C	 3.5144642118	 0.8342072105	-0.0375652455	-0.387487
H	-2.1476055341	 1.4771109201	 0.0388418573	 0.128395
H	-0.2428255009	 5.1453837005	 0.0321689458	 0.117636
H	 2.0010935031	 4.068025017	-0.0021741477	 0.119151
H	 4.451724034	 0.3346365945	-0.0519157569	 0.204482
127.5543	138.1629	243.2161	359.0473	377.3842	454.4537	484.4845	558.7843	598.4974	615.1813	626.2926	653.1975	751.3221	779.961	860.7776	862.4894	948.8463	988.0849	1076.8259	1186.416	1232.0536	1266.2856	1300.1383	1316.0066	1451.2397	1520.0172	1587.8972	1631.5083	2234.4614	3167.0603	3170.769	3210.2219	3500.3113
FC1=CN=CC=C1C#C	Fc1cnccc1C#C	
InChI=1S/C7H4FN/c1-2-6-3-4-9-5-7(6)8/h1,3-5H	InChI=1S/C7H4FN/c1-2-6-3-4-9-5-7(6)8/h1,3-5H
