20
gdb 9391	5.08028	0.81605	0.73006	1.4799	78.58	-0.2545	0.0557	0.3102	1563.6496	0.173895	-348.962994	-348.952857	-348.951913	-348.99854	35.449	
C	 0.070105566	 1.3745106703	 0.0921973015	-0.228712
O	 0.0320265723	-0.0313048582	 0.0773849063	-0.230245
C	-1.2768516444	-0.5449761489	-0.0370644558	-0.063886
C	-1.1834147612	-2.0663065054	-0.0656986114	-0.18995
C	-2.5568299527	-2.777485938	-0.0422039387	-0.163839
C	-3.4095005945	-2.4889798545	-1.2959488289	-0.386565
C	-2.3725674449	-4.218553221	 0.1277982634	 0.317358
C	-2.210572907	-5.4038498117	 0.2472085753	-0.458177
H	 1.117533258	 1.6733622459	 0.1801699045	 0.12729
H	-0.3457804766	 1.8061980857	-0.8325545516	 0.102159
H	-0.4906292527	 1.7911223792	 0.9444980194	 0.10227
H	-1.8956240476	-0.2150506036	 0.8174549685	 0.081952
H	-1.7571838599	-0.1545568201	-0.9496220788	 0.087123
H	-0.6242278135	-2.379823929	-0.9541639296	 0.114226
H	-0.5998718943	-2.3857980922	 0.8031885324	 0.11961
H	-3.1098666051	-2.4075888028	 0.8337195007	 0.104866
H	-4.3517199753	-3.0411847392	-1.254631365	 0.127361
H	-3.6429318658	-1.4238186378	-1.377346192	 0.117258
H	-2.8765824047	-2.7964424421	-2.2009980357	 0.12716
H	-2.072678166	-6.4501738168	 0.3633916356	 0.192741
56.23	78.1081	104.8364	129.7548	184.5444	216.9481	234.3109	270.9312	307.2033	384.4967	432.8638	533.4603	567.0836	626.2034	634.3188	791.2065	831.0011	932.9365	970.9038	985.5173	1054.4904	1090.6427	1121.2304	1163.7153	1170.9217	1190.33	1225.4158	1244.4236	1290.1931	1308.5237	1339.1761	1361.5499	1408.7307	1426.8097	1482.1962	1485.7811	1488.2629	1495.0699	1501.7454	1506.0456	1532.972	2235.1558	2937.8152	2966.4857	2976.4665	2996.6515	3008.5229	3044.058	3050.0004	3096.0236	3112.9091	3117.3576	3122.9451	3505.4933
COCCC(C)C#C	COCC[C@@H](C)C#C	
InChI=1S/C7H12O/c1-4-7(2)5-6-8-3/h1,7H,5-6H2,2-3H3	InChI=1S/C7H12O/c1-4-7(2)5-6-8-3/h1,7H,5-6H2,2-3H3/t7-/m0/s1
