21
gdb 111458	2.12124	1.64343	1.03086	1.9279	83.7	-0.2332	0.0075	0.2407	1224.7	0.182009	-387.090206	-387.081206	-387.080262	-387.123912	34.214	
C	 0.9063708723	-0.3587855416	 1.2853210701	-0.388105
C	 0.0958455237	 0.0352813859	 0.0467698515	-0.17843
C	 0.7653026938	-0.3758725166	-1.2784708375	-0.11289
C	 0.8591932989	-1.8916500594	-1.4681322126	 0.029631
O	-0.4051346243	-2.5609856936	-1.4761922893	-0.265234
C	 0.2205508267	-2.2360583786	-2.7458856915	 0.004001
C	-0.2629354009	-0.9581747249	-3.339323582	-0.203138
C	 0.0046596536	 0.0736604391	-2.5288222139	 0.307955
C	-0.3844039074	 1.5021139655	-2.7430300118	-0.492039
H	 1.0269816226	-1.44443837	 1.3559942789	 0.125335
H	 1.9069928035	 0.0882570059	 1.2656652611	 0.110187
H	 0.4104835681	-0.0224711921	 2.201014597	 0.113852
H	-0.8948748566	-0.4305666477	 0.0840361761	 0.118319
H	-0.0612531486	 1.1201711058	 0.0480333085	 0.093108
H	 1.7808630514	 0.0500578264	-1.2983284375	 0.075333
H	 1.6822754192	-2.4569244037	-1.0390124967	 0.092098
H	 0.4950638151	-3.0957344327	-3.3494997686	 0.09306
H	-0.7867597041	-0.8948317633	-4.2859049584	 0.093008
H	-0.8368165109	 1.6468867325	-3.7276707258	 0.125015
H	-1.106399406	 1.8401785094	-1.9896116924	 0.135318
H	 0.48480604	 2.167436414	-2.6623978551	 0.123617
76.564	123.2438	173.9284	183.0032	212.205	263.9026	286.5957	379.4033	473.5463	501.2637	538.4957	664.6481	701.7122	775.9405	802.4209	836.4491	871.8369	875.7054	911.1171	953.7282	978.8665	1021.8133	1037.0596	1044.0215	1065.535	1106.1811	1114.3726	1138.2577	1190.9458	1251.9198	1275.5371	1281.7067	1288.1513	1348.7967	1351.3673	1366.781	1407.1034	1412.0584	1416.6503	1476.8997	1486.2531	1490.2349	1499.7805	1505.9018	1694.4863	2983.5507	3018.833	3030.7863	3035.4991	3066.4617	3074.9259	3100.2765	3107.4875	3111.7838	3142.9439	3163.635	3200.2983
CCC1C2OC2C=C1C	CC[C@H]1[C@H]2O[C@H]2C=C1C	
InChI=1S/C8H12O/c1-3-6-5(2)4-7-8(6)9-7/h4,6-8H,3H2,1-2H3	InChI=1S/C8H12O/c1-3-6-5(2)4-7-8(6)9-7/h4,6-8H,3H2,1-2H3/t6-,7+,8-/m1/s1
