21
gdb 77564	2.3664	1.44731	1.3077	1.9152	78.14	-0.243	0.0832	0.3262	1134.9663	0.179718	-424.204118	-424.194423	-424.193479	-424.23774	37.221	
C	-0.1003913162	 1.5293761427	 0.0462000706	-0.513679
C	 0.1596855259	 0.06197743	-0.0454240168	 0.377642
O	-0.7832725728	-0.8401990204	 0.5778420429	-0.312315
C	 0.6103242028	-0.9512916934	 0.923676478	-0.074543
C	 1.2916986553	-1.812661196	-0.1556848647	 0.2555
C	 2.8154648003	-1.7486807666	-0.0584496574	-0.452437
C	 0.7806344203	-3.2413229425	-0.2950535374	-0.446879
C	 0.7310168075	-0.7597791469	-1.217791	 0.032979
O	-0.197883841	-1.1895327299	-2.1743701498	-0.435066
H	 0.8035511761	 2.0977466373	-0.1953304986	 0.126668
H	-0.8819772778	 1.8268403042	-0.6616535731	 0.136804
H	-0.428355585	 1.8005250386	 1.0532650304	 0.134295
H	 0.8627207622	-0.845843841	 1.9743031139	 0.09688
H	 3.1817614547	-2.3113107578	 0.807822219	 0.115009
H	 3.2780124277	-2.1761615229	-0.954556739	 0.123347
H	 3.1700834404	-0.716439991	 0.0419610268	 0.111289
H	-0.3101600697	-3.2784892308	-0.242870088	 0.119275
H	 1.0894011756	-3.6717564064	-1.2529490664	 0.123259
H	 1.1773075029	-3.8759275437	 0.5054563423	 0.109399
H	 1.5410174372	-0.2607814372	-1.7571386448	 0.082504
H	-0.9813369564	-1.4615430564	-1.679153778	 0.29007
106.0383	180.1642	187.6151	204.3939	233.0661	241.0945	256.0795	300.1291	328.3241	349.4695	463.2896	507.7408	549.0842	578.8194	610.7618	727.29	798.4259	849.6529	866.4973	890.8515	953.3026	959.7039	993.124	1016.7287	1043.6421	1095.1988	1126.9737	1168.8792	1186.2461	1201.2612	1217.5725	1270.3856	1293.5168	1322.7003	1398.2265	1400.1222	1416.4629	1432.7766	1469.8727	1481.0465	1483.6246	1489.2725	1494.0104	1501.9482	1512.1639	3021.5726	3033.9908	3035.5916	3075.9997	3087.5265	3094.9958	3098.6937	3099.0639	3120.4808	3121.1423	3167.5815	3772.9429
CC12OC1C(C)(C)C2O	C[C@]12O[C@H]1C(C)(C)[C@H]2O	
InChI=1S/C7H12O2/c1-6(2)4(8)7(3)5(6)9-7/h4-5,8H,1-3H3	InChI=1S/C7H12O2/c1-6(2)4(8)7(3)5(6)9-7/h4-5,8H,1-3H3/t4-,5+,7-/m1/s1
