17
gdb 81479	3.58629	1.60434	1.52958	1.6142	65.85	-0.2341	0.0451	0.2792	905.3188	0.138447	-458.887989	-458.881791	-458.880847	-458.918182	26.815	
O	 0.1500193664	 1.3537744556	-0.104059101	-0.464481
C	 0.1005084666	-0.044064208	-0.0763827742	 0.211578
C	 0.1298714251	-0.6480757705	 1.3613920492	-0.002258
O	-1.2908802972	-0.2780379033	 1.456260496	-0.319444
C	-1.3444453931	-0.6222784449	 0.0268921743	-0.002258
C	-1.2670432762	-2.1867147347	-0.080168496	 0.052926
C	-1.2424371254	-2.7666587143	 1.3546336888	-0.212064
C	 0.1986247259	-2.2123609868	 1.2465025356	 0.052926
O	 0.1541058205	-2.5281817188	-0.1836167135	-0.292777
H	-0.4612648149	 1.6632225011	 0.5772531727	 0.286452
H	 0.7799393225	-0.4206498916	-0.8342776366	 0.113963
H	 0.7354544535	-0.1992862041	 2.1510503165	 0.08484
H	-2.1814649103	-0.1482463096	-0.4892423955	 0.08484
H	-1.8679065738	-2.624240691	-0.8787103305	 0.085994
H	-1.9194906702	-2.3768275347	 2.1101588839	 0.122845
H	-1.234869717	-3.8559866218	 1.3252150572	 0.110922
H	 1.0442313976	-2.6751967227	 1.7572540431	 0.085994
245.9717	290.2696	361.4379	435.2737	489.2941	535.8937	541.5831	592.9555	625.9459	813.0143	837.7779	846.9895	861.1824	872.2864	893.9916	897.2978	908.1783	946.0505	959.0378	1018.679	1049.2743	1085.1072	1097.6844	1140.9197	1151.5843	1193.3276	1220.254	1221.2206	1239.9841	1279.6454	1289.3001	1298.6626	1306.0647	1324.3178	1339.6441	1435.565	1475.961	3096.016	3098.3164	3103.1064	3110.2846	3116.9785	3175.4561	3180.7989	3768.4096
OC1C2OC1C1CC2O1	O[C@H]1[C@H]2O[C@@H]1[C@@H]1C[C@H]2O1	
InChI=1S/C6H8O3/c7-4-5-2-1-3(8-2)6(4)9-5/h2-7H,1H2	InChI=1S/C6H8O3/c7-4-5-2-1-3(8-2)6(4)9-5/h2-7H,1H2/t2-,3+,4+,5+,6-
