17
gdb 31624	2.40147	1.47893	0.92596	2.2823	72.23	-0.1799	0.0539	0.2338	1229.2659	0.135832	-455.17783	-455.168515	-455.167571	-455.212382	32.831	
C	-0.0525937761	 1.3532997627	 0.0427233817	-0.234384
O	-0.0515694027	-0.0740952479	 0.0403142526	-0.273521
C	-1.265617752	-0.6402045986	 0.0038570188	 0.49481
N	-2.4276712989	-0.0250047454	-0.0296223081	-0.468542
C	-3.3464979763	-1.0472916601	-0.05797604	 0.334379
O	-4.672044862	-0.7827201912	-0.09672933	-0.438301
C	-2.7456012556	-2.2710436274	-0.0417942116	-0.243539
N	-1.370079451	-1.9887895828	-0.0009053584	-0.088387
C	-0.2899998821	-2.9502535577	 0.0294711279	-0.348621
H	 0.996112349	 1.6508181523	 0.0728197675	 0.130291
H	-0.5340552745	 1.7421192107	-0.8593754522	 0.139165
H	-0.5841098887	 1.7390777922	 0.9176414534	 0.139066
H	-4.7527713165	 0.1782392236	-0.0972038035	 0.297532
H	-3.124554069	-3.2768009638	-0.0545331929	 0.123444
H	-0.3091956498	-3.5858528001	-0.8621775805	 0.138314
H	 0.6563935846	-2.4105538224	 0.0582529518	 0.159978
H	-0.3617125484	-3.588610834	 0.9164567033	 0.138315
69.538	86.2223	148.181	157.566	198.19	260.8486	278.6141	338.7474	361.6457	408.1827	570.4564	605.6149	631.6331	641.7607	686.0847	730.2981	867.9829	1031.2202	1059.5852	1077.316	1154.6775	1163.5027	1183.505	1210.4047	1235.1274	1271.3723	1358.8365	1414.0964	1450.594	1458.852	1477.5282	1489.1821	1500.5927	1511.1205	1566.792	1598.3637	1680.2667	3034.0988	3041.1443	3087.7414	3111.741	3150.8325	3158.0759	3295.0747	3810.2703
COC1=NC(O)=CN1C	COc1nc(O)cn1C	
InChI=1S/C5H8N2O2/c1-7-3-4(8)6-5(7)9-2/h3,8H,1-2H3	InChI=1S/C5H8N2O2/c1-7-3-4(8)6-5(7)9-2/h3,8H,1-2H3
