15
gdb 96632	2.175	1.36606	0.84425	8.575	79.48	-0.2206	-0.02	0.2006	1289.9814	0.112734	-413.033514	-413.023703	-413.022758	-413.068569	33.914	
C	 0.005630823	 1.4507191517	 0.0659051722	-0.352673
N	-0.0345621992	 0.0108330822	-0.0862538318	-0.349365
H	-0.5006389877	-0.5401268137	 0.6183938731	 0.285022
C	 0.606781226	-0.682577314	-1.0468866094	 0.464512
N	 1.2728567204	 0.0137472066	-2.0012637355	-0.580023
C	 0.6167097078	-2.0864695933	-1.041632451	-0.130234
C	 1.2464316531	-2.7683305647	-2.104492986	 0.198031
N	 1.7857398184	-3.2464748965	-3.0163967053	-0.37622
C	-0.0065292714	-2.7667271365	 0.02629031	 0.202009
N	-0.5487048326	-3.2373758527	 0.9404302909	-0.382049
H	 1.0362032748	 1.8232760034	 0.081265221	 0.153126
H	-0.5467860605	 1.9670406475	-0.730492203	 0.140926
H	-0.4646187509	 1.7110958424	 1.014485583	 0.16027
H	 1.0103008146	 0.9637713691	-2.2001185713	 0.271921
H	 1.652988464	-0.5170032214	-2.771039137	 0.294746
83.4709	102.2832	124.8995	130.6381	138.7398	193.4234	284.8372	347.1199	408.7867	445.9814	486.938	514.3554	548.9261	556.7702	573.8114	602.9951	727.8861	757.1068	979.7978	1145.0155	1154.0614	1168.864	1209.8333	1289.1417	1433.9674	1453.7697	1488.5777	1519.4044	1547.8454	1628.3664	1671.6976	2298.0717	2317.5664	3011.7085	3070.4274	3146.8998	3587.2754	3620.9189	3712.2496
C[NH+]=C(N)[C-](C#N)C#N	CNC(=[NH2])[C](C#N)C#N	
InChI=1S/C5H5N4/c1-9-5(8)4(2-6)3-7/h1H3,(H2,8,9)/q-1/p+1	InChI=1S/C5H6N4/c1-9-5(8)4(2-6)3-7/h9H,8H2,1H3
