15
gdb 33682	3.24027	1.46387	1.38697	3.6141	69.54	-0.2329	0.0072	0.2401	957.9635	0.115166	-416.76817	-416.761452	-416.760508	-416.799364	26.289	
N	-0.0595288188	-1.1512126719	-0.0216133089	-0.35434
C	-0.041273149	 0.0060036599	 0.0125982523	 0.153113
C	-0.0112370926	 1.4220653713	 0.0440301442	 0.176668
C	-0.9938327066	 2.3764697206	 0.6978806796	-0.108318
N	-0.3060837106	 3.2415558603	 1.6367663346	-0.301315
C	 1.1492541791	 3.0796260955	 1.3792388265	-0.174571
C	 1.2021071086	 2.3922559205	 0.0246455419	 0.022804
O	 0.5242727166	 3.2602610033	-0.9428239252	-0.298471
C	-0.671379545	 2.5124257935	-0.7815500204	 0.034631
H	-1.9699820987	 1.9949482041	 0.9765728285	 0.12597
H	-0.5736087069	 4.2056548263	 1.4693329897	 0.236435
H	 1.6558190797	 4.0479929176	 1.3651106162	 0.123566
H	 1.613372398	 2.4535038104	 2.1530452847	 0.121262
H	 2.1627174882	 2.0341505475	-0.3439582297	 0.111053
H	-1.369909232	 2.4534021211	-1.6079484539	 0.131513
133.668	158.0852	225.3072	381.2947	466.888	519.8548	530.5754	566.2525	681.8874	732.7816	776.5867	819.6671	860.9562	910.1615	911.0193	942.6899	994.0325	1011.9757	1036.0445	1051.9818	1076.0925	1114.7861	1154.7041	1184.1576	1245.3101	1254.0198	1278.3057	1314.8108	1359.7722	1423.8301	1439.765	1490.2382	2347.5996	3019.8685	3101.6438	3131.1923	3181.4285	3194.04	3528.827
N#CC12C3NCC1OC23	N#C[C@@]12[C@H]3NC[C@@H]1O[C@@H]23	
InChI=1S/C6H6N2O/c7-2-6-3-1-8-4(6)5(6)9-3/h3-5,8H,1H2	InChI=1S/C6H6N2O/c7-2-6-3-1-8-4(6)5(6)9-3/h3-5,8H,1H2/t3-,4-,5+,6-/m0/s1
