14
gdb 24471	4.05661	1.67548	1.18574	6.9418	80.39	-0.1935	-0.056	0.1375	948.6151	0.10592	-395.780444	-395.774461	-395.773516	-395.810638	24.301	
N	-0.0094996093	 1.3384430237	 0.0099793746	-0.29218
C	 1.1619286155	 2.0795809335	 0.0022090447	 0.045759
N	 2.3449047079	 1.5622181116	-0.0125538236	-0.312959
C	 2.4137257373	 0.1980707591	-0.0207386274	 0.238824
C	 3.4707941095	-0.6804037582	-0.0359330658	-0.157359
N	 3.024284695	-1.9872947469	-0.0388129211	-0.235847
C	 1.698505841	-1.9839425771	-0.0257093976	-0.16447
C	 1.2030867459	-0.6506619771	-0.0131896591	 0.225586
C	-0.0031604888	-0.0250365978	 0.0024464497	-0.107757
H	-0.8886607264	 1.831382224	 0.0215279899	 0.274936
H	 1.0222193474	 3.1555548179	 0.0095271567	 0.131761
H	 4.5273320691	-0.4560617755	-0.0451248642	 0.103918
H	 1.1252809011	-2.9022740187	-0.0251278836	 0.100143
H	-0.9712219752	-0.5133399185	 0.0094528366	 0.149645
193.7102	251.7477	406.2423	426.2941	555.644	569.6866	605.1044	619.504	649.5423	758.5712	765.1233	807.264	846.4168	873.209	875.4021	922.2841	924.917	1028.3454	1104.2756	1157.7652	1233.9015	1265.9878	1279.8607	1315.7554	1363.4407	1422.1383	1449.5682	1489.0216	1571.5739	1609.3717	1679.2274	3188.5531	3197.852	3208.495	3240.7384	3636.8065
N1C=NC2=CN=CC2=C1	[nH]1cnc2cncc2c1	
InChI=1S/C6H5N3/c1-5-2-8-4-9-6(5)3-7-1/h1-4H,(H,8,9)	InChI=1S/C6H5N3/c1-5-2-8-4-9-6(5)3-7-1/h1-4H,(H,8,9)
