22
gdb 109243	2.52271	1.42187	1.07065	1.558	88.2	-0.2222	0.0236	0.2458	1233.3941	0.194611	-367.20917	-367.200073	-367.199129	-367.242753	35.263	
C	 0.0801369153	 1.5721834335	 0.0056846663	-0.374141
C	-0.0291731937	 0.0356887641	-0.0169130696	-0.300287
C	-1.4394989258	-0.4855874907	-0.0104739578	 0.323094
C	-2.1166105141	-0.9562062396	-1.0637341211	-0.181333
C	-3.5108609388	-1.4316062123	-0.7160871589	-0.260209
C	-3.5551187674	-1.2498577488	 0.7952453888	-0.083506
N	-2.551814775	-2.0623025734	 1.5234085938	-0.368415
C	-2.2821452649	-0.6179491857	 1.237396044	 0.226293
C	-2.1759089489	 0.3517907725	 2.3862758061	-0.497358
H	 1.1287377638	 1.8842323885	-0.03438538	 0.111287
H	-0.4380270691	 2.008387325	-0.8539081281	 0.119048
H	-0.3585418705	 2.0002463232	 0.9114093502	 0.117757
H	 0.4779264432	-0.3371583537	-0.9138160701	 0.104834
H	 0.5186213524	-0.3771186164	 0.8405141557	 0.104076
H	-1.7078109529	-1.045795581	-2.0652424115	 0.083795
H	-4.2876888714	-0.8371451609	-1.2160011317	 0.10026
H	-3.6729825087	-2.477409447	-1.0048638094	 0.115207
H	-4.4967868348	-1.031097526	 1.2888997019	 0.079884
H	-2.8610064879	-2.1422635136	 2.4922463189	 0.217208
H	-1.1847837446	 0.3159570453	 2.8532653971	 0.124628
H	-2.3536799983	 1.3817420547	 2.0595424112	 0.127585
H	-2.9148470379	 0.1161207123	 3.1596849941	 0.110293
67.0281	134.2575	192.7715	224.6819	252.9788	263.832	299.0955	322.234	398.618	458.3217	578.3947	623.7181	658.4425	744.6439	786.5951	815.3182	823.8008	848.9649	905.0743	940.5302	957.6145	973.2827	1017.412	1052.8826	1059.8274	1077.1957	1091.2134	1114.9391	1140.6619	1185.6348	1198.3391	1253.2477	1287.232	1316.5136	1329.6901	1352.7015	1377.1247	1404.4585	1412.1708	1428.6579	1467.8566	1478.5283	1489.1649	1494.4125	1505.2105	1508.5784	1699.9273	3014.5324	3018.8032	3024.2796	3038.5754	3052.2077	3061.6377	3086.5616	3095.8946	3106.5399	3117.534	3157.1576	3180.8995	3455.7638
CCC1=CCC2NC12C	CCC1=CC[C@H]2N[C@@]12C	
InChI=1S/C8H13N/c1-3-6-4-5-7-8(6,2)9-7/h4,7,9H,3,5H2,1-2H3	InChI=1S/C8H13N/c1-3-6-4-5-7-8(6,2)9-7/h4,7,9H,3,5H2,1-2H3/t7-,8+/m1/s1
