21
gdb 72702	2.57248	1.91304	1.61285	1.2566	82.15	-0.2505	0.0812	0.3317	952.5353	0.184761	-387.044951	-387.037668	-387.036724	-387.075841	31.6	
O	-0.2097401693	 1.3241348318	-0.1455131176	-0.479209
C	-0.0433505751	-0.0899022158	-0.0251748343	 0.413573
C	 0.1206054036	-0.4403607736	 1.4913168334	-0.311869
C	-1.4553419945	-0.4736645097	 1.5698898332	-0.352507
C	-1.424844771	-0.747534864	 0.0501310188	 0.336264
C	-2.0059901581	-0.4313711714	-1.3524668951	-0.327604
C	-0.8269849097	-1.3943251797	-1.7873973792	-0.018716
C	-1.1439275027	-2.1773587113	-0.4902542262	-0.257549
C	 0.4993547038	-0.6988267308	-1.3485169468	-0.311961
H	 0.6513645282	 1.7276624311	 0.004274818	 0.275897
H	 0.5660921348	-1.419873307	 1.6752970999	 0.10462
H	 0.6343191989	 0.3089709734	 2.0987990761	 0.087506
H	-1.9181504091	-1.2310548922	 2.2065211678	 0.093144
H	-1.8526639882	 0.5106926459	 1.821736771	 0.118721
H	-2.9762981411	-0.8868032704	-1.5650229894	 0.091823
H	-1.9819924436	 0.60989594	-1.6749554786	 0.113971
H	-0.8392548181	-1.8762127223	-2.765646591	 0.059967
H	-0.3443375577	-2.7745057453	-0.0411023714	 0.085137
H	-2.0617659604	-2.768187631	-0.5513299352	 0.092485
H	 0.8347424574	 0.0900641695	-2.0263300157	 0.092147
H	 1.3058443718	-1.4298998171	-1.2332146276	 0.09416
214.0318	249.7926	283.9801	300.4192	382.8326	426.7766	473.9486	509.459	537.1849	596.8821	679.7025	741.8233	812.8117	822.0848	860.0296	876.1806	889.3879	899.2807	909.0089	960.2906	965.776	996.3131	1006.0579	1021.7866	1080.0206	1087.7889	1129.6553	1158.9489	1168.9464	1182.8568	1198.0823	1209.3801	1221.251	1237.3559	1249.0821	1261.906	1269.5132	1291.7399	1311.0049	1356.2887	1468.5899	1478.6691	1483.0049	1487.3913	1525.1515	3045.5489	3050.0595	3063.5858	3069.6957	3073.4562	3102.3736	3104.2069	3110.8901	3119.9715	3137.0729	3141.823	3809.7342
OC12CCC11CC(C1)C2	O[C@@]12CC[C@]31C[C@H](C3)C2	
InChI=1S/C8H12O/c9-8-2-1-7(8)3-6(4-7)5-8/h6,9H,1-5H2	InChI=1S/C8H12O/c9-8-2-1-7(8)3-6(4-7)5-8/h6,9H,1-5H2/t6-,7+,8-/m1/s1
