22
gdb 58596	2.07665	1.23631	1.04462	3.8433	85.51	-0.2876	0.0326	0.3203	1307.7633	0.193018	-367.224589	-367.214545	-367.213601	-367.259743	37.626	
C	 0.25083901	-1.1609750218	 1.7544661473	-0.387558
C	 0.0470398041	-0.4344039641	 0.4128566687	-0.049331
C	 1.1626816402	-0.8198000979	-0.5680125418	-0.413196
C	-1.3754645647	-0.6592981225	-0.1243620568	 0.386352
C	-2.4581227856	 0.10487452	 0.6443089323	-0.423087
C	-2.3253650333	 1.5584564053	 0.5179788994	 0.275666
N	-2.20814571	 2.7034343745	 0.4127885306	-0.317441
C	-1.6584640885	-0.8630285955	-1.5941759109	-0.311979
C	-1.7928014386	-2.0189920576	-0.6332887338	-0.322916
H	 1.2356571042	-0.9294705831	 2.1718370571	 0.117035
H	-0.4935815745	-0.874311897	 2.5036652721	 0.111202
H	 0.1892194066	-2.2469264279	 1.6229629484	 0.115721
H	 0.1447266033	 0.6440597911	 0.5974387862	 0.099016
H	 1.1138972218	-1.877627167	-0.851433537	 0.115261
H	 1.131011977	-0.218514653	-1.4802101849	 0.124393
H	 2.1385528275	-0.6563952206	-0.1007847473	 0.117796
H	-3.4506862153	-0.1784493196	 0.2776551464	 0.145399
H	-2.4378327028	-0.1493900484	 1.7101929822	 0.149649
H	-2.5632110351	-0.4235103646	-2.0011408894	 0.11597
H	-0.8291360364	-0.8777403198	-2.2895545097	 0.121036
H	-1.0397995463	-2.7983868088	-0.6745854693	 0.119267
H	-2.7857183537	-2.3823374416	-0.3892288497	 0.111746
45.3835	79.3323	132.1908	210.3404	235.6528	261.7299	283.8006	330.1886	346.2219	382.7132	398.3931	445.7956	471.421	588.0424	678.4035	783.6253	843.1263	898.7721	909.6308	919.0488	934.8397	952.4166	968.4568	978.396	1009.5991	1059.7267	1087.6491	1115.3145	1135.5909	1180.6982	1188.6692	1215.6186	1262.8248	1319.8571	1349.2079	1362.6877	1385.6705	1402.2038	1422.898	1458.4014	1471.2674	1486.6069	1495.6394	1504.6099	1510.8341	1516.4278	2358.9537	3013.9413	3031.3919	3036.3756	3045.5624	3081.4943	3096.7219	3100.7008	3105.4953	3115.5556	3131.3489	3143.8613	3210.6797	3233.1191
CC(C)C1(CC#N)CC1	CC(C)C1(CC#N)CC1	
InChI=1S/C8H13N/c1-7(2)8(3-4-8)5-6-9/h7H,3-5H2,1-2H3	InChI=1S/C8H13N/c1-7(2)8(3-4-8)5-6-9/h7H,3-5H2,1-2H3
