18
gdb 47943	2.34177	1.76744	1.1823	4.0568	68.3	-0.2537	0.0387	0.2924	1056.1688	0.150223	-476.26137	-476.253466	-476.252521	-476.293853	30.225	
O	-0.0067699359	-0.0200499188	-0.2712368627	-0.383342
C	-0.0210860583	 1.1605131765	-0.0336245579	 0.458632
N	-1.120084782	 1.9131475587	 0.230546814	-0.321914
C	-1.1433918882	 3.372364425	 0.1998437649	-0.160256
C	-0.9239203243	 4.0060370733	-1.187661097	-0.192869
C	 0.5081358878	 4.0135595821	-1.7417823098	-0.07123
O	 0.9805188919	 2.727390922	-2.1407228528	-0.230367
C	 1.7835231896	 2.0767191869	-1.2059900175	-0.016032
O	 1.1191024285	 1.9441746896	 0.0405278897	-0.249157
H	-1.9928364812	 1.4144109132	 0.1586607736	 0.257639
H	-2.1270206961	 3.6729213467	 0.5727640036	 0.110224
H	-0.4030107378	 3.7546492708	 0.9084524292	 0.130244
H	-1.5798767189	 3.5178328083	-1.9180805227	 0.11305
H	-1.2442205427	 5.0549598598	-1.1270115912	 0.101805
H	 0.5248035253	 4.6317287418	-2.645946202	 0.111842
H	 1.1982455724	 4.46478253	-1.0146272085	 0.101568
H	 2.0196268317	 1.0966244067	-1.6293560101	 0.135634
H	 2.6951315383	 2.6423790371	-0.974161873	 0.104528
95.9143	143.3481	202.3744	231.9181	334.0097	367.9885	398.5003	475.1453	501.7537	579.3095	604.8121	645.9617	759.5197	815.1058	842.301	894.1729	908.9318	984.5332	1016.9035	1042.9029	1093.7137	1122.4278	1162.6551	1187.532	1252.1302	1285.5906	1302.3155	1315.037	1341.1457	1394.9958	1407.7319	1414.3163	1441.0701	1454.696	1470.0468	1486.8662	1497.7178	1514.0549	1850.7078	3005.2847	3021.5065	3025.0187	3055.2436	3068.414	3075.24	3100.9877	3106.8032	3641.7653
O=C1NCCCOCO1	O=C1NCCCOCO1	
InChI=1S/C5H9NO3/c7-5-6-2-1-3-8-4-9-5/h1-4H2,(H,6,7)	InChI=1S/C5H9NO3/c7-5-6-2-1-3-8-4-9-5/h1-4H2,(H,6,7)
