20
gdb 54830	2.75823	1.36663	1.04913	3.4047	81.86	-0.2292	0.0176	0.2468	1209.0289	0.169038	-403.143521	-403.13409	-403.133146	-403.177889	34.628	
C	-0.0835466106	 1.3483218303	 0.0686475479	-0.474706
C	-0.0278750534	-0.1685645091	-0.0091216658	 0.364391
O	 0.9571071803	-0.8094654039	 0.297486319	-0.356406
N	-1.1629405422	-0.7570233456	-0.5414748651	-0.113247
C	-2.539602262	-0.613136976	-0.0884172836	-0.108514
C	-3.4396706921	-1.0651984317	-1.2448340957	-0.231772
C	-2.69987043	-2.4496241137	-1.2313895707	-0.27449
C	-1.8299366744	-1.9539611173	-0.0559777983	 0.326702
C	-1.2989694828	-2.7738167254	 1.0783610734	-0.485985
H	 0.9297957908	 1.7438353962	-0.0113710354	 0.146614
H	-0.7199150335	 1.7742973098	-0.71040119	 0.133188
H	-0.4885707293	 1.6521594237	 1.0409363576	 0.138073
H	-2.7778857884	 0.0547886262	 0.7321998129	 0.10268
H	-4.4886421833	-1.1530659114	-0.9541402092	 0.107878
H	-3.3638450206	-0.4714458845	-2.1586320287	 0.110077
H	-3.3623588318	-3.2692974268	-0.9437817375	 0.10699
H	-2.1497042368	-2.7257515841	-2.1334020167	 0.111526
H	-0.4523731625	-3.3854383187	 0.7518193151	 0.147371
H	-0.9441249508	-2.1410358026	 1.895101554	 0.134306
H	-2.0806474766	-3.4374701154	 1.4617723969	 0.115323
85.5501	91.3564	142.6605	144.1679	179.4665	223.4502	291.1787	350.8629	394.0914	451.5101	566.2034	609.6244	668.5072	673.3565	783.0809	793.9021	895.1732	920.2028	930.7808	955.4105	978.533	1008.2336	1033.8358	1052.0006	1100.5205	1114.3016	1148.0773	1212.7492	1219.519	1226.5352	1270.8615	1286.7497	1337.4885	1385.7936	1414.8456	1453.7199	1468.4264	1470.7054	1477.8131	1481.1955	1485.7498	1496.1742	1772.3865	3041.9771	3043.2147	3065.3314	3072.4306	3107.8413	3112.6388	3116.6343	3126.1833	3133.0379	3154.2148	3178.8023
CC(=O)N1C2CCC12C	CC(=O)N1[C@H]2CC[C@@]12C	
InChI=1S/C7H11NO/c1-5(9)8-6-3-4-7(6,8)2/h6H,3-4H2,1-2H3	InChI=1S/C7H11NO/c1-5(9)8-6-3-4-7(6,8)2/h6H,3-4H2,1-2H3/t6-,7+,8?/m0/s1
