15
gdb 132264	1.94711	1.84245	0.95222	1.3079	73.71	-0.2213	-0.0304	0.1909	1154.8287	0.11346	-458.149385	-458.141672	-458.140728	-458.181673	29.211	
C	 0.0280942689	 1.4924182298	 0.0065585863	-0.464096
C	-0.0279108847	-0.0051222101	 0.0139030418	 0.312445
C	-1.1823057147	-0.7039593274	-0.1134008573	-0.18028
C	-1.2045213214	-2.152653132	-0.1031401365	 0.377053
N	-2.2686999092	-2.8519822656	-0.2200766735	-0.549497
N	 0.1009414011	-2.6889845802	 0.0526609872	-0.431082
C	 1.189628503	-1.8951876015	 0.1716308492	 0.401789
F	 2.3107071453	-2.5834967199	 0.3075499664	-0.05925
N	 1.2151550696	-0.6232255478	 0.1632653601	-0.40564
H	 0.6751141645	 1.8398073077	-0.806147861	 0.144107
H	-0.9631605309	 1.9334835019	-0.1128532519	 0.127446
H	 0.4721684544	 1.8559393689	 0.9395093185	 0.144098
H	-2.1373093461	-0.2093851396	-0.2282412702	 0.116497
H	-2.0784941475	-3.8542292365	-0.1891225693	 0.199857
H	 0.2276155179	-3.6908189478	 0.0762504402	 0.266554
144.4386	159.8969	185.6698	223.9509	298.0118	351.5503	503.8589	541.9708	546.2922	570.5516	600.4524	623.5013	690.9694	751.5784	802.4643	885.4018	950.5388	972.7365	1008.9961	1065.3257	1084.9495	1121.1665	1219.3413	1275.4316	1309.9836	1392.8442	1420.9627	1470.7594	1480.0688	1503.1737	1633.8905	1691.6602	1741.4887	3039.118	3095.1703	3137.3229	3228.3775	3467.4174	3611.8675
CC1=CC(=N)NC(F)=N1	C[C@H]1C=C([NH])NC(=N1)F	
InChI=1S/C5H6FN3/c1-3-2-4(7)9-5(6)8-3/h2H,1H3,(H2,7,8,9)	InChI=1S/C5H7FN3/c1-3-2-4(7)9-5(6)8-3/h2-3,7H,1H3,(H,8,9)/t3-/m0/s1
