17
gdb 90023	3.5649	1.08342	0.96362	4.9057	68.64	-0.2642	0.0061	0.2703	1221.599	0.135735	-458.971348	-458.963173	-458.962229	-459.004479	30.475	
O	-0.170844968	 1.4861175307	 0.0323809276	-0.425661
C	 0.009160785	 0.0944576458	 0.0323762022	 0.145503
C	 0.2822004869	-0.6338831211	 1.3801881276	-0.332597
C	-0.7625974321	-1.7014611664	 0.9627768127	 0.11932
C	-0.362393184	-3.1414694542	 0.5963872092	-0.141418
O	-1.2781438579	-3.661353296	 1.6151797101	-0.248616
C	-1.6670459543	-2.3924649137	 1.9752657194	 0.427146
O	-2.4512938922	-2.0770854629	 2.8112445037	-0.333582
C	-1.3061025857	-0.7003751835	-0.0896813727	-0.308186
H	 0.6921423533	 1.910475332	 0.0729640982	 0.286401
H	 0.733553211	-0.217996529	-0.7338033134	 0.071679
H	 1.2958699982	-0.977542911	 1.6005555304	 0.104965
H	-0.0971002744	-0.0382268073	 2.2151191168	 0.134513
H	-0.6549368166	-3.4895777971	-0.397289362	 0.124477
H	 0.666765039	-3.4329807281	 0.8201162039	 0.123143
H	-2.1317956415	-0.1193596089	 0.3300982014	 0.14122
H	-1.5931883267	-1.0916808196	-1.0677476949	 0.111695
73.9257	125.5352	166.1627	255.0021	271.9662	300.8229	374.8656	407.8004	476.6025	607.3213	704.7541	723.2682	778.1901	826.9996	876.0594	902.5682	930.5726	961.7344	993.5735	1053.8858	1067.8799	1110.6681	1145.928	1162.7454	1166.4271	1202.0505	1226.5477	1242.4601	1267.9511	1295.8245	1324.753	1353.9237	1432.22	1460.8174	1488.9164	1514.5778	1934.5286	2992.8651	3058.6289	3061.3039	3068.0645	3120.2032	3122.8116	3128.5004	3818.377
OC1CC2(COC2=O)C1	O[C@H]1C[C@]2(COC2=O)C1	
InChI=1S/C6H8O3/c7-4-1-6(2-4)3-9-5(6)8/h4,7H,1-3H2	InChI=1S/C6H8O3/c7-4-1-6(2-4)3-9-5(6)8/h4,7H,1-3H2/t4-,6+
