16
gdb 33585	3.91254	1.56243	1.41071	1.953	79.34	-0.2257	0.0236	0.2493	936.366	0.124933	-363.48025	-363.473684	-363.47274	-363.51095	27.362	
C	 0.0356796446	-1.0885726795	-0.0059865637	-0.349687
C	 0.0024353001	 0.114514733	 0.0083011353	 0.055411
C	-0.0414115438	 1.5308541126	 0.0268449615	 0.32783
C	 0.127631932	 2.4356361939	-1.2182839208	-0.13037
C	 1.0607897343	 2.5660463825	-0.0341367805	-0.184795
C	 0.0059550265	 3.5121001916	 0.5769693208	-0.018695
C	-0.7913426285	 3.596763573	-0.7694512969	-0.083202
C	-1.9604552262	 2.9306040931	-0.0215527833	-0.192119
N	-0.9379255305	 2.3416263873	 0.9230587248	-0.200898
H	 0.0657299811	-2.1496634339	-0.0132585681	 0.180092
H	 0.3145225108	 2.0324312809	-2.2033919625	 0.105683
H	 2.1303430731	 2.4527145058	 0.0723748525	 0.108178
H	 0.140714728	 4.3050164167	 1.3085771063	 0.085829
H	-0.8715005657	 4.4817526812	-1.399777975	 0.075834
H	-2.5838040395	 3.6435447353	 0.5264840741	 0.109457
H	-2.5871292262	 2.2010434863	-0.5421147749	 0.111449
136.931	161.3333	396.7266	448.8178	499.1775	534.2828	561.337	613.7586	678.706	740.9083	755.8802	792.1866	814.9072	856.1906	862.894	878.1297	908.52	930.4462	943.8692	982.6082	1002.9977	1010.0636	1051.0942	1100.6568	1138.4639	1153.3746	1179.9781	1194.094	1220.5752	1253.6976	1266.6502	1284.8117	1380.9728	1496.0035	2234.0388	3051.9235	3112.2518	3120.565	3146.0955	3213.4372	3226.0125	3504.0627
C#CC12C3C1C1C3CN21	C#C[C@]12[C@@H]3[C@H]1[C@H]1[C@@H]3CN21	
InChI=1S/C8H7N/c1-2-8-5-4-3-9(8)7(4)6(5)8/h1,4-7H,3H2	InChI=1S/C8H7N/c1-2-8-5-4-3-9(8)7(4)6(5)8/h1,4-7H,3H2/t4-,5+,6+,7-,8+/m1/s1
