15
gdb 117023	4.28608	0.86685	0.72757	3.1708	70.1	-0.2921	-0.1187	0.1733	1487.8537	0.110352	-453.962496	-453.953006	-453.952062	-453.997984	32.141	
C	-0.1766942397	 1.5086619693	 0.0141585405	-0.39159
C	-0.0038589202	 0.0033815662	 0.002757458	-0.042347
O	-1.3232501569	-0.5840441653	 0.0129328667	-0.230186
C	-1.3824642286	-1.9098329447	 0.0046577623	 0.343027
N	-0.3678680562	-2.6738436984	-0.0112093463	-0.53032
C	-2.8277304059	-2.3765649048	 0.016483283	 0.246361
O	-3.785236509	-1.6541565889	 0.0308015992	-0.241254
C	-2.9832002573	-3.8485812544	 0.0083852872	 0.230095
N	-3.1386153061	-4.9945441173	 0.0024690786	-0.30347
H	 0.8056398019	 1.9897276335	 0.0070327022	 0.128328
H	-0.7330995161	 1.8448427186	-0.8648286549	 0.136851
H	-0.7146667696	 1.8335022921	 0.9087481008	 0.136853
H	 0.5270517379	-0.3495443938	-0.8873192281	 0.130859
H	 0.5456443837	-0.36074089	 0.8769027676	 0.130842
H	-0.634155088	-3.6579360122	-0.0150802367	 0.255951
40.8068	90.209	115.5757	116.6746	184.091	244.476	277.2419	306.605	371.3401	441.4948	498.4552	499.4923	664.639	800.6071	815.9791	818.5491	878.8329	879.3735	1026.5063	1112.7058	1128.6361	1143.0287	1180.9807	1292.4415	1370.6358	1409.8663	1435.8471	1484.9894	1495.0807	1516.6728	1705.7195	1804.0217	2337.374	3050.1517	3050.7834	3090.3982	3125.2691	3131.3156	3502.1653
CCOC(=N)C(=O)C#N	CCO[C]([NH])C(=O)C#N	
InChI=1S/C5H6N2O2/c1-2-9-5(7)4(8)3-6/h7H,2H2,1H3	InChI=1S/C5H6N2O2/c1-2-9-5(7)4(8)3-6/h7H,2H2,1H3
