20
gdb 101394	2.59446	1.12032	0.83174	3.713	75.83	-0.2473	0.0314	0.2787	1380.8309	0.170217	-440.305106	-440.295254	-440.294309	-440.340202	35.566	
C	 0.0302579485	 1.6253506214	 0.1256564675	-0.397445
C	 0.0134515715	 0.0939207414	 0.0560433452	-0.010348
C	 0.735580842	-0.5237318119	 1.2679761673	-0.082134
O	 2.0932707855	-0.1139447456	 1.361777897	-0.421146
C	-1.4083340364	-0.46358073	-0.0387916615	-0.14847
C	-2.2351250412	-0.1890190985	-1.3351187139	-0.189494
N	-2.3143795915	-1.6413803573	-1.51268113	-0.321031
C	-1.5425438426	-1.9627905195	-0.4250916543	 0.425434
O	-1.1304304008	-3.0085323723	 0.0064431578	-0.368444
H	 1.0544753783	 1.9803747917	 0.2622563125	 0.134001
H	-0.37724128	 2.0803969109	-0.7827135516	 0.107029
H	-0.5645760396	 1.9806980271	 0.9757023038	 0.112313
H	 0.560747153	-0.2221791371	-0.8462966792	 0.065341
H	 0.2566911829	-0.1756323626	 2.191668441	 0.104519
H	 0.6423106277	-1.616474018	 1.2393049405	 0.127285
H	 2.586049335	-0.5786662204	 0.6783145184	 0.28305
H	-1.972298645	-0.2305309863	 0.8709923735	 0.100784
H	-3.2027055543	 0.3006809522	-1.190070389	 0.114511
H	-1.6783953569	 0.3253051153	-2.12560382	 0.113371
H	-2.6864465062	-2.2119135003	-2.2572969249	 0.250874
67.4234	98.8684	115.5935	157.0911	204.9073	235.5968	270.9574	291.7028	331.8086	384.4002	420.4187	506.3603	541.1654	704.223	758.5457	838.3594	893.9948	908.2215	916.4812	986.5401	990.3917	1048.4416	1076.1242	1109.2728	1123.7871	1154.4318	1172.7599	1182.8405	1203.9968	1226.6474	1286.3281	1298.4938	1352.2103	1374.2955	1395.8672	1399.7693	1409.5947	1424.0447	1492.9822	1504.5052	1511.3237	1526.0492	1879.7277	2979.0615	3022.8464	3030.6487	3038.6413	3058.4909	3070.9128	3087.3788	3094.9461	3125.2367	3611.8073	3820.0333
CC(CO)C1CNC1=O	C[C@@H](CO)[C@H]1CNC1=O	
InChI=1S/C6H11NO2/c1-4(3-8)5-2-7-6(5)9/h4-5,8H,2-3H2,1H3,(H,7,9)	InChI=1S/C6H11NO2/c1-4(3-8)5-2-7-6(5)9/h4-5,8H,2-3H2,1H3,(H,7,9)/t4-,5+/m0/s1
