17
gdb 8222	5.51475	1.01932	0.99037	3.0312	66.43	-0.2494	0.0251	0.2745	1214.5181	0.141328	-401.009452	-401.000712	-400.999767	-401.045275	29.592	
C	 0.005981383	 1.5146317019	 0.0645842827	-0.486989
C	 0.0151795754	-0.004565988	 0.1260692072	 0.408989
O	 0.1438421462	-0.6113190891	 1.1722989533	-0.365219
N	-0.1495205108	-0.6345167437	-1.082378045	-0.325511
C	-0.198270969	-2.0624915457	-1.217948368	 0.002254
C	-1.3666254471	-2.6973845498	-2.0102652009	-0.091122
O	-0.4477355395	-3.4481500546	-2.827341334	-0.267846
C	 0.686548172	-2.7388464573	-2.2924621247	-0.091235
H	 0.0964933022	 1.9147120114	-0.9488150793	 0.112587
H	-0.9274976932	 1.8803347486	 0.5031911861	 0.154805
H	 0.8262307716	 1.8934911759	 0.6775708641	 0.156175
H	-0.2526576515	-0.07168055	-1.9116148757	 0.242712
H	-0.0694271952	-2.4745794231	-0.218184106	 0.137327
H	-2.055247287	-3.3436980525	-1.4553363104	 0.115824
H	-1.9493931795	-1.9727470692	-2.5984104019	 0.090601
H	 1.1173159444	-2.0346885121	-3.0199114711	 0.090746
H	 1.473163678	-3.4149602527	-1.9403907062	 0.115902
18.4908	47.3253	86.6414	97.8041	206.0797	333.759	383.4336	445.6994	467.724	587.6133	632.4191	770.4892	883.4968	889.7668	933.5519	992.2231	1020.9124	1022.5527	1035.7942	1051.9781	1124.4269	1151.3596	1158.9083	1204.6663	1261.9882	1278.278	1299.9869	1345.7971	1387.6047	1398.5523	1469.1242	1487.2185	1507.3986	1534.0299	1539.4006	1786.2692	2985.6632	2996.8981	3048.5181	3064.0282	3065.1379	3119.4015	3139.5414	3140.3254	3633.338
CC(=O)NC1COC1	CC(=O)NC1COC1	
InChI=1S/C5H9NO2/c1-4(7)6-5-2-8-3-5/h5H,2-3H2,1H3,(H,6,7)	InChI=1S/C5H9NO2/c1-4(7)6-5-2-8-3-5/h5H,2-3H2,1H3,(H,6,7)
