17
gdb 50525	2.88064	1.31116	1.08083	2.2497	68.35	-0.2519	-0.04	0.2119	1125.5409	0.134291	-458.912441	-458.904005	-458.903061	-458.947046	29.467	
O	-0.3545613382	 0.2199441878	-0.253872002	-0.233804
C	 0.060210861	 1.2390134952	 0.2282082515	 0.1389
C	 1.4278547704	 1.8306807354	-0.0505127966	-0.017386
O	 2.3050662462	 0.9613051182	-0.7654838579	-0.268759
C	 2.3477898794	 1.8491037427	-1.9011243799	-0.124875
C	 1.4675632377	 2.8905556106	-1.1907418759	 0.194634
C	 0.2305345055	 3.5369042836	-1.8438066234	-0.13676
O	 0.7200460625	 4.8626308027	-1.563512561	-0.269457
C	 1.9157303556	 4.3423339895	-0.9518455047	-0.128771
H	-0.5571036404	 1.8565842681	 0.9228943087	 0.078443
H	 1.8613949755	 2.1810669277	 0.899545859	 0.096097
H	 3.3696795157	 2.1728361404	-2.134271565	 0.110711
H	 1.8974482825	 1.3934314842	-2.7917614802	 0.118488
H	 0.1349988446	 3.3484178418	-2.9210932777	 0.112179
H	-0.7375885373	 3.3432364646	-1.3661892639	 0.11372
H	 2.0077937985	 4.6425534726	 0.1001646492	 0.107746
H	 2.8243447606	 4.6435821149	-1.4902149302	 0.108895
47.529	65.7028	76.1395	220.3255	234.9367	277.659	345.3439	418.7665	479.7688	748.8461	779.604	849.8907	880.2259	896.6487	922.5856	947.1358	985.4116	1021.5175	1027.4078	1043.9453	1105.2588	1143.3348	1147.3935	1158.4004	1177.0559	1210.4651	1233.859	1258.83	1311.4038	1334.8885	1365.1357	1387.6342	1415.6768	1506.5722	1516.1911	1532.6869	1840.9871	2851.587	2984.8477	3000.4433	3013.2853	3016.7469	3046.6167	3055.8493	3062.4278
O=CC1OCC11COC1	O=C[C@H]1OCC21COC2	
InChI=1S/C6H8O3/c7-1-5-6(4-9-5)2-8-3-6/h1,5H,2-4H2	InChI=1S/C6H8O3/c7-1-5-6(4-9-5)2-8-3-6/h1,5H,2-4H2/t5-/m1/s1
