19
gdb 81279	2.74615	1.56036	1.26178	3.682	81.21	-0.2339	-0.0471	0.1868	1061.9393	0.161244	-385.91194	-385.904406	-385.903461	-385.943585	30.354	
C	-0.1032655392	 1.5152226503	 0.0022514955	-0.428634
C	 0.0210123337	-0.0026079933	-0.0127178445	 0.029189
C	 1.2034404378	-0.5951213483	-0.8620715529	-0.071165
C	 2.0929924333	-0.452478776	 0.4125081783	-0.243043
C	 0.7688977988	-0.6257897427	 1.2199295457	-0.131005
C	 0.4254019317	-2.1126871335	 1.2969852791	 0.400669
O	 0.0795895285	-2.6669722048	 2.3190755415	-0.349503
C	 0.5511632706	-2.8029195822	-0.0145210449	-0.175427
C	 0.9289327608	-2.0650380755	-1.0692683166	-0.055171
H	 0.8458305735	 2.0142695166	 0.2199622229	 0.119353
H	-0.4584027881	 1.8827812027	-0.9667832899	 0.119382
H	-0.8258759949	 1.8313790436	 0.7622257329	 0.125734
H	-0.9532914903	-0.4482105156	-0.2350871263	 0.07981
H	 1.500025326	-0.0812422008	-1.7783575877	 0.065795
H	 2.8798087735	-1.1962394021	 0.554833904	 0.108592
H	 2.5127826046	 0.5485907454	 0.5268793491	 0.109084
H	 0.6649233793	-0.1601521038	 2.2011745852	 0.078145
H	 0.3310709537	-3.8635467288	-0.0592262633	 0.108772
H	 1.0380883865	-2.4955897813	-2.0603070983	 0.109423
132.8354	212.2135	228.7751	255.2877	359.7673	408.4323	425.604	465.8686	490.3158	660.2139	698.2549	763.5259	808.9424	824.3444	853.8715	887.2418	911.9318	941.4944	983.7058	1002.351	1037.9165	1060.7193	1079.6434	1084.9807	1129.2974	1151.2786	1156.1948	1223.8826	1236.0327	1255.9017	1272.2166	1291.3089	1317.8898	1381.0275	1385.0618	1411.578	1489.4969	1495.5243	1503.9226	1653.2747	1789.5242	3031.7577	3055.1908	3069.3321	3090.2212	3095.5312	3104.1487	3107.1386	3127.0302	3171.2013	3204.6307
CC1C2CC1C(=O)C=C2	C[C@H]1[C@H]2C[C@@H]1C(=O)C=C2	
InChI=1S/C8H10O/c1-5-6-2-3-8(9)7(5)4-6/h2-3,5-7H,4H2,1H3	InChI=1S/C8H10O/c1-5-6-2-3-8(9)7(5)4-6/h2-3,5-7H,4H2,1H3/t5-,6+,7-/m0/s1
