14
gdb 131587	4.63391	0.96192	0.80055	4.2456	65.06	-0.2633	-0.0577	0.2056	1314.2314	0.09999	-473.816184	-473.807994	-473.80705	-473.850034	28.447	
O	-0.0081882664	 1.4225959782	 0.0098075222	-0.392133
C	-0.0090056808	 0.0223725488	 0.0034456081	-0.186691
C	-1.4503814334	-0.4826770176	 0.0128126671	 0.288737
O	-2.401309731	 0.2638042405	 0.02327984	-0.292927
C	-1.6311208661	-1.9485119958	 0.0076349877	 0.047198
C	-0.7309206607	-2.9754258181	-0.0038645874	-0.001932
O	-1.3549958716	-4.1519047627	-0.0042037919	-0.16383
N	-2.7420216261	-3.9331151466	 0.0075461298	-0.122608
C	-2.8837488492	-2.6369648687	 0.0139796814	-0.022366
H	 0.9056014432	 1.7218756855	 0.0028240339	 0.295729
H	 0.4861606243	-0.40125441	-0.888214095	 0.110942
H	 0.5005328945	-0.40929277	 0.8830759627	 0.110894
H	 0.3477572528	-3.0183864486	-0.0122961825	 0.16394
H	-3.8707624794	-2.198608145	 0.023449964	 0.165047
66.0401	76.1989	140.1455	188.9858	230.2588	286.5833	362.2956	495.032	547.484	618.4144	679.6682	754.0326	857.447	865.4631	930.4776	939.6657	948.2644	1022.4194	1044.4648	1146.1039	1169.7972	1197.4581	1234.1885	1253.0727	1306.8313	1388.1528	1446.3471	1491.6833	1504.3722	1622.2359	1798.5088	2947.1459	2970.1015	3260.3786	3263.1458	3837.7281
OCC(=O)C1=CON=C1	OCC(=O)c1conc1	
InChI=1S/C5H5NO3/c7-2-5(8)4-1-6-9-3-4/h1,3,7H,2H2	InChI=1S/C5H5NO3/c7-2-5(8)4-1-6-9-3-4/h1,3,7H,2H2
