14
gdb 123522	4.05683	1.78951	1.24176	1.8027	78.72	-0.2238	-0.0519	0.172	920.1092	0.106068	-395.788789	-395.783041	-395.782097	-395.818779	23.384	
C	 0.0601258685	 1.3646482215	 0.0091387311	 0.031549
N	 1.3173658519	 1.8336951732	-0.0003027611	-0.29657
N	 2.0710968037	 0.7195810038	-0.0134721879	-0.023824
C	 3.4250699162	 0.6746693899	-0.026640823	 0.040792
C	 4.0238212264	-0.5525160629	-0.0389221486	-0.166005
C	 3.1992377005	-1.7099266909	-0.0372383291	-0.018028
N	 1.8856171913	-1.6762627439	-0.0245139008	-0.330834
C	 1.3036599044	-0.4613945914	-0.0124624837	 0.488371
C	-0.0188496225	-0.0323659293	 0.0024770335	-0.358304
H	-0.7551731826	 2.073894806	 0.0206997616	 0.123422
H	 3.9318005199	 1.6311065799	-0.0263608129	 0.152178
H	 5.1022584531	-0.6353986791	-0.0496619014	 0.118965
H	 3.660192645	-2.694819643	-0.0469046999	 0.118319
H	-0.8943006359	-0.6585622836	 0.0075036823	 0.119968
217.3148	244.7925	434.1754	449.7385	578.3912	589.0489	640.3379	654.0936	760.8297	783.607	801.902	811.2229	907.3621	916.3434	926.2389	964.8297	968.4278	1045.0509	1069.3107	1134.4337	1206.1202	1222.4748	1256.2209	1340.4039	1344.6185	1415.4896	1439.0378	1494.0041	1552.4633	1578.5357	1664.9579	3158.3491	3220.6057	3236.1651	3243.6502	3287.7549
C1=NN2C=CC=NC2=C1	c1nn2cccnc2c1	
InChI=1S/C6H5N3/c1-3-7-6-2-4-8-9(6)5-1/h1-5H	InChI=1S/C6H5N3/c1-3-7-6-2-4-8-9(6)5-1/h1-5H
