23
gdb 120557	5.60197	0.58688	0.57034	1.5636	83.7	-0.2447	0.0785	0.3232	2001.4349	0.204206	-425.401657	-425.391158	-425.390213	-425.438111	37.618	
C	 0.1323808357	 1.2225819407	 0.266666331	-0.239787
O	-0.3135330213	-0.0167224801	-0.2345069004	-0.239443
C	 0.5168664959	-0.5406777988	-1.2351833187	 0.166071
C	 1.8779457657	-1.1805407244	-0.8347861992	-0.286018
C	 1.5636910138	-2.3366102832	-1.827342212	 0.030995
C	 1.941338693	-3.7566075449	-1.4298172694	-0.192731
C	 1.4843073663	-4.8023315963	-2.4396893021	-0.07055
O	 1.8955979686	-6.0770460336	-1.9677879006	-0.420898
C	 0.0661976044	-1.9065435875	-1.7829446037	-0.273592
H	 1.123942826	 1.1450350198	 0.7377778222	 0.107372
H	 0.1885185015	 1.9859996854	-0.5259462192	 0.101772
H	-0.5889041798	 1.5493099516	 1.019711964	 0.125387
H	 0.6541133897	 0.1974751113	-2.0421243808	 0.059678
H	 2.7954285497	-0.6065922909	-0.9849248063	 0.093232
H	 1.8342124648	-1.5299449738	 0.2021450163	 0.105339
H	 1.9872700103	-2.1031324021	-2.8116980803	 0.067858
H	 3.0296829032	-3.8383771416	-1.3152439585	 0.103269
H	 1.5039798701	-3.9994581196	-0.4533173471	 0.10161
H	 0.3893068478	-4.7556094335	-2.5560184854	 0.088592
H	 1.9248980956	-4.5819189547	-3.4265545059	 0.081065
H	 1.5861321346	-6.7420164304	-2.5894763557	 0.284326
H	-0.4775196504	-2.4504925	-1.0038045979	 0.110848
H	-0.5172832654	-1.9227531331	-2.7060768102	 0.095607
49.6804	72.9299	95.2954	119.8968	166.0064	196.2457	245.5485	262.9746	321.879	372.8103	427.3114	454.7372	471.1781	626.5768	786.2424	804.1984	811.5789	917.1991	951.4068	976.0734	997.9727	1023.8353	1053.2898	1061.4203	1094.9405	1112.7704	1153.6132	1173.1857	1183.6717	1198.8316	1216.8657	1235.4639	1245.6015	1261.9247	1269.236	1270.2833	1303.5917	1315.8121	1333.2073	1380.4416	1403.0989	1462.2369	1469.3834	1480.933	1486.3597	1490.1801	1501.1777	1510.1478	1527.0598	2956.8394	2964.108	2973.939	2983.6404	3018.903	3023.3576	3029.062	3048.6497	3056.1268	3068.4838	3108.8448	3112.9381	3114.6445	3830.281
COC1CC(CCO)C1	CO[C@H]1C[C@@H](CCO)C1	
InChI=1S/C7H14O2/c1-9-7-4-6(5-7)2-3-8/h6-8H,2-5H2,1H3	InChI=1S/C7H14O2/c1-9-7-4-6(5-7)2-3-8/h6-8H,2-5H2,1H3/t6-,7+
