17
gdb 35988	4.28504	0.65533	0.60801	1.4503	83.2	-0.249	0.0197	0.2686	1818.2287	0.133845	-384.598281	-384.588811	-384.587866	-384.635165	32.873	
C	-0.1153998985	-1.06160184	-0.7492437302	-0.443183
C	-0.0078247683	-0.0567138814	-0.1014545813	 0.316594
C	 0.1115103211	 1.1646463342	 0.6975595931	-0.493277
C	 1.3392015153	 1.9187596769	 0.4396575016	 0.087447
C	 2.3429187207	 2.54852339	 0.2289527353	 0.098098
C	 3.5621528322	 3.294014236	-0.0299068474	-0.031326
C	 4.5159379027	 2.7534971426	-1.1322019141	-0.284263
C	 4.2986188179	 4.1271546881	-1.7936720631	-0.058705
O	 3.3514210725	 4.5216954133	-0.7773791052	-0.279266
H	-0.2081690785	-1.9489817253	-1.3248904093	 0.201207
H	-0.7552296551	 1.8116792779	 0.5033740248	 0.167179
H	 0.0538237199	 0.9077438753	 1.7643081802	 0.162672
H	 4.0729742489	 3.5104504882	 0.9182966583	 0.100787
H	 5.5297340038	 2.5276851361	-0.8004107879	 0.115532
H	 4.1121206643	 1.9061715611	-1.6856533584	 0.127411
H	 5.1765758593	 4.7848693972	-1.8077866192	 0.102695
H	 3.845427682	 4.1179086496	-2.7913601671	 0.110399
16.0501	54.9618	73.4679	126.1261	173.4004	304.3087	318.5949	325.3552	417.8417	517.3702	587.2596	623.3024	650.1491	708.6321	799.049	839.9958	916.1973	931.9974	944.1554	960.9342	1010.6213	1029.5372	1088.0673	1163.7109	1177.2707	1215.274	1230.6399	1256.8196	1262.104	1335.0976	1353.1075	1368.0601	1450.0248	1489.4068	1532.1073	2247.7926	2369.4017	3004.6351	3009.3943	3020.2949	3034.1366	3062.4248	3092.3944	3153.0535	3506.5539
C#CCC#CC1CCO1	C#CCC#C[C@H]1CCO1	
InChI=1S/C8H8O/c1-2-3-4-5-8-6-7-9-8/h1,8H,3,6-7H2	InChI=1S/C8H8O/c1-2-3-4-5-8-6-7-9-8/h1,8H,3,6-7H2/t8-/m0/s1
