19
gdb 61936	2.13728	0.95543	0.69126	4.3699	82.57	-0.2484	0.0238	0.2722	1597.0075	0.15718	-382.04117	-382.030869	-382.029925	-382.077375	36.578	
C	 0.0115519779	 1.5037463634	 0.0348359879	-0.39202
C	 0.0098629319	-0.0269557541	 0.039797226	 0.069758
C	-1.4411957415	-0.5577402033	 0.0209843348	-0.362704
C	-1.5152860742	-2.0130064976	 0.073358403	 0.273893
C	-1.5334468246	-3.2150206962	 0.1057199841	-0.425186
N	 0.707162811	-0.5605202014	-1.1336392573	-0.307085
C	 2.1572848151	-0.4145143295	-1.0765617208	-0.266322
C	 2.795187236	-1.0951395713	-2.206532281	 0.258507
N	 3.3037297207	-1.6462967753	-3.084842257	-0.298728
H	 1.0244450532	 1.9098950945	 0.1072134721	 0.118228
H	-0.4410651401	 1.8815936213	-0.8870437763	 0.131776
H	-0.552662572	 1.8892761721	 0.8895496106	 0.119541
H	 0.4786834957	-0.3770733142	 0.9785408814	 0.071558
H	-1.9838217308	-0.1276344772	 0.8704924656	 0.134373
H	-1.9335189776	-0.195037233	-0.890034251	 0.143774
H	-1.5718628491	-4.2759966652	 0.1377287934	 0.203444
H	 0.4811302027	-1.5472919839	-1.2236002327	 0.239143
H	 2.4258225518	 0.6466298224	-1.1307154766	 0.156708
H	 2.6102694241	-0.8049582616	-0.1458132963	 0.13134
46.1358	78.5479	102.7235	125.9216	158.7555	232.5078	269.6639	325.3015	349.8522	388.1724	408.9552	452.4249	552.1273	561.2408	628.6133	656.6464	787.4894	854.3827	896.7892	930.8112	952.55	984.928	1012.2292	1092.5404	1112.6286	1143.2915	1173.7744	1243.435	1250.4969	1312.9532	1350.138	1382.4086	1396.0153	1410.3403	1462.0218	1488.9857	1494.4325	1503.2971	1520.4314	2234.8294	2369.0325	2922.1681	2930.7999	3031.4954	3041.6864	3060.074	3071.9078	3111.3939	3118.5913	3503.304	3504.8556
CC(CC#C)NCC#N	C[C@@H](CC#C)NCC#N	
InChI=1S/C7H10N2/c1-3-4-7(2)9-6-5-8/h1,7,9H,4,6H2,2H3	InChI=1S/C7H10N2/c1-3-4-7(2)9-6-5-8/h1,7,9H,4,6H2,2H3/t7-/m0/s1
