19
gdb 72593	2.25564	1.63705	1.45192	3.9145	77.8	-0.2304	0.0232	0.2536	1042.1925	0.158118	-419.187512	-419.178611	-419.177667	-419.220507	33.966	
C	-0.2970147481	 1.5366676947	 0.0789528926	-0.476966
C	-0.0268996811	 0.0537479904	 0.0270961625	 0.25036
C	 1.0927173039	-0.5022506223	-0.8805750658	-0.117808
O	 1.6172716633	-1.3285521722	 0.1784343493	-0.320797
C	 0.6409233862	-0.8396336408	 1.1369288661	 0.306271
C	 1.2296598761	-0.4356465954	 2.4549935213	-0.48742
C	-0.6249577651	-1.700811342	 1.0605997382	 0.364803
N	-0.9472485414	-2.7828449282	 1.6266165484	-0.558132
N	-1.2044875913	-0.8244695937	 0.1330472387	-0.386354
H	 0.6335121371	 2.0994105693	 0.2015606274	 0.127111
H	-0.7721694963	 1.8799785249	-0.8480057914	 0.12293
H	-0.9667890641	 1.7796000776	 0.9084251199	 0.131524
H	 0.7629798151	-1.083427873	-1.7504661712	 0.097382
H	 1.8308572353	 0.2438769526	-1.2017211759	 0.103181
H	 2.047615103	 0.2773205675	 2.3179839793	 0.121455
H	 0.4661656218	 0.0101497822	 3.0993945606	 0.129004
H	 1.6219727978	-1.3224616729	 2.9627226848	 0.15388
H	-1.8449234671	-3.1381122188	 1.2908460581	 0.207849
H	-1.8116123851	-1.09297423	-0.631665103	 0.231727
118.9946	173.9547	179.8224	200.1399	203.7165	277.2623	315.024	342.2224	406.0137	486.8596	520.4554	616.2119	665.5608	688.084	742.7089	827.5401	850.6648	861.4965	899.93	951.3892	971.3138	1013.4339	1046.9626	1124.8804	1136.775	1152.97	1163.2327	1205.7985	1256.6751	1273.8824	1337.0882	1350.339	1370.6918	1409.836	1415.4062	1475.9711	1483.4082	1489.8942	1493.1808	1513.4631	1795.5727	3009.5671	3030.8881	3041.5784	3057.5712	3094.3651	3115.3111	3118.4066	3120.5965	3449.3978	3559.4604
CC12COC1(C)C(=N)N2	C[C@@]12CO[C@]1(C)[C]([NH])N2	
InChI=1S/C6H10N2O/c1-5-3-9-6(5,2)4(7)8-5/h3H2,1-2H3,(H2,7,8)	InChI=1S/C6H10N2O/c1-5-3-9-6(5,2)4(7)8-5/h3H2,1-2H3,(H2,7,8)/t5-,6-/m1/s1
