17
gdb 84053	3.43256	1.28643	1.04811	1.6989	82.5	-0.2439	-0.0381	0.2058	1158.0508	0.135833	-380.822075	-380.813982	-380.813038	-380.854552	31.076	
C	-0.1338722382	 1.5887443627	 0.0095694458	-0.389843
C	 0.0595888074	 0.0718025787	 0.0236011526	 0.012902
N	 0.8407452441	-0.3879909235	-1.1404114406	-0.278749
C	 1.7663684504	-1.158254673	-0.70955286	 0.163564
C	 2.7290631148	-1.7934878037	-1.5451502352	 0.273746
C	 3.5599280781	-2.3365155191	-2.2236061751	-0.356441
N	 1.8399959639	-1.421460376	 0.7050892459	-0.157312
C	 2.232957278	-0.1796779848	 1.4268417964	-0.256166
C	 0.800312481	-0.5093431194	 1.2338209757	-0.048687
H	 0.825612005	 2.1091861451	 0.0784817788	 0.119416
H	-0.6225074792	 1.8974352226	-0.9179334655	 0.134953
H	-0.757252385	 1.9031345603	 0.852435915	 0.117209
H	-0.9312139442	-0.3989055777	-0.0422855008	 0.09797
H	 4.2867546209	-2.8135786986	-2.8340500149	 0.203584
H	 2.7004621952	-0.3506805641	 2.3911492278	 0.128173
H	 2.6732431731	 0.6167874317	 0.8336468538	 0.132397
H	 0.2254934947	-0.8854352111	 2.07361475	 0.103283
111.5082	141.1218	185.7517	217.7787	264.142	362.1625	403.259	505.9002	522.0562	589.4824	651.9456	654.6372	685.7584	751.024	779.9447	820.8373	862.3462	911.6182	950.2465	1005.8282	1062.2945	1069.5498	1106.9713	1123.0496	1140.8351	1162.8223	1201.294	1264.3183	1316.3542	1351.549	1373.8331	1407.8176	1487.531	1494.7038	1500.5374	1654.7148	2241.295	3007.846	3043.4545	3114.6093	3118.1693	3126.475	3165.5636	3209.7602	3501.2676
CC1N=C(C#C)N2CC12	C[C@H]1N=C(C#C)N2C[C@@H]12	
InChI=1S/C7H8N2/c1-3-7-8-5(2)6-4-9(6)7/h1,5-6H,4H2,2H3	InChI=1S/C7H8N2/c1-3-7-8-5(2)6-4-9(6)7/h1,5-6H,4H2,2H3/t5-,6+,9?/m1/s1
