20
gdb 109445	2.34875	1.36191	0.95766	2.4074	79.79	-0.2376	-0.0242	0.2134	1272.6187	0.169605	-403.132108	-403.122935	-403.121991	-403.166496	34.2	
C	 0.0422888386	 1.6339943598	-0.13381566	-0.387951
C	-0.2221590556	 0.1300266025	-0.2677973267	-0.197371
C	 0.7426582853	-0.5491289349	-1.2391075525	-0.18084
C	 2.2124575332	-0.7248932937	-0.7952381078	 0.399143
O	 2.9953746066	-0.0015838988	-0.2484266058	-0.299425
C	 2.2380515262	-2.204150454	-1.2156438885	-0.416274
C	 0.7218666602	-2.0834208954	-1.4396029423	 0.326901
C	-0.3382335656	-3.0220435687	-1.0164977355	-0.30032
N	-0.0087397794	-2.838613918	-2.4478092385	-0.364721
H	 1.0678972483	 1.8156451629	 0.1975327781	 0.150789
H	-0.0960407375	 2.1451033387	-1.0931030069	 0.112639
H	-0.6413695272	 2.0889838336	 0.5890785528	 0.112522
H	-0.139240654	-0.3516509679	 0.7139657479	 0.104317
H	-1.2520555116	-0.0408367131	-0.6086914388	 0.0956
H	 0.7226860779	-0.0345956208	-2.2119168539	 0.101378
H	 2.8017489929	-2.3713205569	-2.1399228063	 0.140683
H	 2.5900177405	-2.9072821646	-0.4558812524	 0.133378
H	-0.0726538307	-3.9941901002	-0.6093146695	 0.122142
H	-1.271814021	-2.6125831866	-0.6389855654	 0.116119
H	-0.7108211271	-2.2494262941	-2.890839228	 0.231295
49.8466	99.4836	141.2435	182.2652	252.496	262.4631	315.0133	357.3129	414.2871	477.4232	514.2552	575.1802	725.645	776.9943	784.7832	825.9568	889.679	921.963	944.4064	967.63	977.3463	1011.0393	1058.0756	1063.39	1078.3649	1121.8204	1136.5528	1168.297	1187.9315	1221.4674	1260.4797	1276.4363	1287.8639	1330.7591	1364.5468	1406.2516	1412.2944	1437.1714	1487.4587	1497.5709	1512.2264	1514.7513	1885.656	2998.5995	3014.0841	3036.4846	3052.6435	3055.2127	3102.5574	3103.6319	3108.8031	3126.8876	3188.3929	3484.6941
CCC1C(=O)CC11CN1	CC[C@H]1C(=O)C[C@]21CN2	
InChI=1S/C7H11NO/c1-2-5-6(9)3-7(5)4-8-7/h5,8H,2-4H2,1H3	InChI=1S/C7H11NO/c1-2-5-6(9)3-7(5)4-8-7/h5,8H,2-4H2,1H3/t5-,7+/m0/s1
