15
gdb 25886	3.25213	1.0538	0.80449	7.1552	81.98	-0.1787	-0.0297	0.149	1327.1205	0.110993	-453.976034	-453.966763	-453.965819	-454.009938	34.132	
N	 0.020399997	 1.2992634593	 0.1837297615	-0.558062
C	-0.1003419627	-0.0662912072	 0.0018570578	 0.277503
N	 1.117691198	-0.6899870079	-0.1201300006	-0.550997
H	 1.1073666963	-1.6877674884	-0.2497028551	 0.266634
H	 1.8383549635	-0.197583849	-0.6261903686	 0.260506
C	-1.3008260204	-0.7398090552	-0.0757285089	 0.188909
C	-2.5161158583	-0.1932146551	 0.4591713576	 0.048612
O	-3.5741462769	-0.8117750902	 0.4416462465	-0.319849
C	-2.5367684089	-2.8155780107	-0.588020887	 0.486659
O	-3.392245285	-3.6031445271	-0.6465208759	-0.237531
C	-1.4250100156	-2.0921195964	-0.6210387419	-0.553132
H	 0.7230377042	 1.5819202607	 0.8545894596	 0.256448
H	-0.8432268497	 1.8114994049	 0.2671523729	 0.261936
H	-2.4692081479	 0.803558514	 0.9427887084	 0.053264
H	-0.6352193237	-2.5374329615	-1.2160408363	 0.119101
84.6333	115.0505	144.0373	207.3124	246.1873	310.4112	378.5766	407.4533	416.9073	434.4319	469.0879	516.3052	531.8283	557.1279	589.5751	608.3292	629.9687	681.2618	909.6954	983.9341	1025.9315	1116.6168	1133.2427	1194.0106	1295.6516	1400.397	1428.6467	1459.9697	1610.7979	1630.4087	1680.1095	1718.9465	2201.5	2904.5509	3182.0799	3548.1827	3583.2837	3677.7779	3705.9198
NC(=[NH2+])C1=COC([O-])=C1	NC(=[NH2])[C](C=O)[CH][C][O]	
InChI=1S/C5H6N2O2/c6-5(7)3-1-4(8)9-2-3/h1-2,8H,(H3,6,7)	InChI=1S/C5H6N2O2/c6-5(7)4(3-9)1-2-8/h1,3H,6-7H2
