19
gdb 106178	3.08546	1.41998	1.36812	0.9885	74.24	-0.2198	0.0815	0.3014	1050.823	0.159985	-422.977813	-422.970039	-422.969095	-423.010098	30.226	
C	 0.1166403991	 1.3192884704	-0.330079985	-0.255985
O	-0.0257682462	 0.0591705667	 0.3110863266	-0.281529
C	-1.2712217076	-0.4933013111	 0.1840195542	 0.359103
C	-1.564037302	-1.9660694651	 0.1307557794	-0.150455
C	-2.5406484333	-2.3826569174	 1.2318482941	-0.232035
C	-3.0141480044	-1.0298841584	 1.840770274	-0.211975
C	-2.637119243	-0.0185077962	 0.7655716721	 0.015528
O	-3.3114893991	-0.3996086092	-0.4813830975	-0.304698
C	-2.109630403	-1.0151877911	-0.9447297712	-0.003895
H	 1.1541915607	 1.629234023	-0.1894532439	 0.129837
H	-0.1009004382	 1.2450552278	-1.403583275	 0.117048
H	-0.5449846602	 2.0767979499	 0.1106551226	 0.115915
H	-0.7675589517	-2.6256944918	-0.1965431752	 0.093313
H	-3.3830331333	-2.9468455127	 0.8218750428	 0.112355
H	-2.0517843734	-3.0164339361	 1.9767646244	 0.102398
H	-4.0855660397	-1.0138046119	 2.0586615085	 0.107711
H	-2.4747495935	-0.797832722	 2.7670025263	 0.102637
H	-2.7946699834	 1.0361944606	 0.9984771424	 0.079875
H	-1.9719086276	-1.1409721952	-2.0118435796	 0.104852
96.4719	163.2551	175.7938	209.8418	292.5519	394.2252	419.9158	517.7473	598.6747	681.3016	715.1872	762.3741	829.5911	860.7228	874.2331	906.9745	942.8843	973.5232	990.236	1015.1321	1035.0081	1054.0064	1074.2286	1099.6104	1154.2624	1161.1828	1179.0713	1192.0033	1224.4808	1250.4451	1266.2371	1283.1423	1290.6413	1330.3935	1341.5126	1445.202	1473.3303	1488.422	1497.412	1503.6543	1508.0219	3002.9972	3037.7705	3058.647	3060.2072	3089.5891	3101.692	3105.7928	3126.8767	3178.2253	3190.6041
COC12C3CCC1OC23	CO[C@@]12[C@H]3CC[C@@H]1O[C@@H]23	
InChI=1S/C7H10O2/c1-8-7-4-2-3-5(7)9-6(4)7/h4-6H,2-3H2,1H3	InChI=1S/C7H10O2/c1-8-7-4-2-3-5(7)9-6(4)7/h4-6H,2-3H2,1H3/t4-,5-,6+,7-/m0/s1
