16
gdb 24660	4.55056	1.18723	1.00912	1.3888	78.87	-0.2455	-0.0362	0.2093	1159.0198	0.127756	-396.953159	-396.946074	-396.94513	-396.985244	26.766	
C	 0.4351352453	 1.5537921574	 0.1880093315	-0.230464
N	 1.2025952349	 0.3993409455	-0.2778849779	-0.302125
C	-0.2152732633	 0.2155256891	 0.1162345378	-0.11072
C	-0.4714826287	-0.5970785383	 1.3348685018	 0.405478
N	 0.2988979641	-0.3785770985	 2.4077982703	-0.279516
C	 0.0531137978	-1.1306472477	 3.4777288264	 0.010259
C	-0.9530214637	-2.0912964412	 3.5016940639	-0.134567
C	-1.7025560586	-2.2210093887	 2.3399056107	 0.007641
N	-1.4727962143	-1.4833065353	 1.2520462694	-0.294847
H	 0.7349984037	 1.9228183204	 1.1635032449	 0.137172
H	 0.115344424	 2.3079947618	-0.5265416083	 0.111695
H	 1.2593413492	 0.4049767885	-1.293571686	 0.235674
H	-0.9442479461	 0.0414837972	-0.6684152497	 0.099152
H	 0.6813833468	-0.9545813284	 4.3486878586	 0.118105
H	-1.1445809471	-2.6978144218	 4.3783778423	 0.110495
H	-2.5161592439	-2.9403719299	 2.2729092644	 0.116568
67.104	141.0263	190.416	318.4218	405.01	412.3197	553.8138	612.9361	644.3091	789.9372	808.3686	830.3141	871.1795	912.3309	925.3225	975.0774	1007.7903	1008.2802	1009.8572	1091.786	1100.4833	1121.4618	1133.6243	1177.8916	1240.6991	1249.3647	1270.3261	1291.6669	1323.2831	1422.3705	1467.5741	1482.0076	1500.076	1600.7385	1621.0994	3111.9636	3149.451	3152.1023	3169.7489	3209.5455	3210.4615	3496.8492
C1NC1C1=NC=CC=N1	C1N[C@H]1c1ncccn1	
InChI=1S/C6H7N3/c1-2-7-6(8-3-1)5-4-9-5/h1-3,5,9H,4H2	InChI=1S/C6H7N3/c1-2-7-6(8-3-1)5-4-9-5/h1-3,5,9H,4H2/t5-/m1/s1
