23
gdb 119612	3.89966	0.96122	0.88388	0.8995	86.12	-0.2408	0.0902	0.3311	1448.0769	0.206376	-388.292023	-388.282892	-388.281947	-388.326083	35.192	
C	-0.122334496	 1.5348702043	-0.2928437698	-0.385321
C	-0.0408369529	 0.0193944622	-0.2245490137	-0.054486
O	-1.2939719135	-0.471483513	 0.2318267308	-0.301415
C	-1.3867595996	-1.8592204998	 0.2726477034	 0.469071
C	-1.6410736132	-2.6133438343	-1.0118849055	-0.355753
C	-2.7254425588	-2.5075938263	 0.0485424949	-0.096454
C	-2.8735447267	-3.6573513221	 1.0329621698	-0.214369
C	-1.4294911816	-3.9504392625	 1.5101373347	-0.227952
C	-0.6822004797	-2.6021893632	 1.4037587143	-0.274243
H	 0.8282661052	 1.9533384873	-0.637195074	 0.112497
H	-0.9107373006	 1.8462820756	-0.9841533252	 0.124057
H	-0.3486937794	 1.9517309157	 0.6927018774	 0.125621
H	 0.1907238927	-0.4048377129	-1.2137933242	 0.088273
H	 0.7647554362	-0.2906038297	 0.4588114884	 0.08927
H	-1.7877214617	-2.0023171353	-1.8957827785	 0.111524
H	-1.1523847759	-3.5646647431	-1.198564996	 0.104881
H	-3.5854062496	-1.8899208434	-0.1840248955	 0.08848
H	-3.4972390094	-3.3315523686	 1.8742332373	 0.100624
H	-3.3526070288	-4.5426618941	 0.6008564058	 0.095306
H	-1.399695498	-4.3641793889	 2.5214269057	 0.098523
H	-0.9600056291	-4.6919827672	 0.8558984483	 0.104481
H	 0.3930269898	-2.7373636286	 1.2454012919	 0.093334
H	-0.8089334595	-2.0092373522	 2.3178265099	 0.104052
67.0339	94.8311	130.7953	232.7681	242.5847	263.2118	327.0271	372.3105	403.7666	455.6591	608.7098	621.2888	701.8259	811.0315	819.9499	839.4633	886.6259	890.1472	901.8398	936.7252	961.8076	976.1518	1001.5379	1038.1906	1055.9856	1071.1999	1103.7513	1120.3116	1146.44	1181.2472	1188.819	1197.6053	1253.3095	1258.6176	1276.7025	1295.3604	1315.4199	1335.373	1347.3805	1388.8569	1403.0033	1429.3587	1481.2503	1483.277	1492.0058	1494.8457	1500.3804	1516.5658	1528.995	2977.5906	3006.4544	3029.7978	3032.1986	3043.7323	3049.9277	3069.1059	3073.6112	3099.6897	3117.8073	3120.396	3124.9407	3177.5459	3214.3183
CCOC12CC1CCC2	CCO[C@]12C[C@H]1CCC2	
InChI=1S/C8H14O/c1-2-9-8-5-3-4-7(8)6-8/h7H,2-6H2,1H3	InChI=1S/C8H14O/c1-2-9-8-5-3-4-7(8)6-8/h7H,2-6H2,1H3/t7-,8-/m1/s1
