16
gdb 66538	3.1217	1.5769	1.22989	4.5565	73.92	-0.225	-0.0386	0.1864	1013.9169	0.12229	-400.634105	-400.626354	-400.62541	-400.666507	29.02	
C	 0.0756915781	 1.5465295118	 0.0379823893	-0.527937
C	-0.0009727443	 0.0569702153	 0.0020651702	 0.263652
C	 0.841461766	-0.964108807	-0.7841052833	-0.1733
C	 0.7841879067	-1.0067924409	 0.7239634139	-0.063248
N	-0.3777889264	-2.0031533292	 0.7110491977	-0.189219
C	-0.3511605092	-1.9461238473	-0.7690311556	-0.085815
C	-1.1941590517	-0.9411819216	-0.0294756513	 0.215871
C	-2.6586273705	-0.8640263237	 0.0678771499	 0.018004
O	-3.3815647542	-1.8323082962	 0.0603171093	-0.258092
H	 1.1203760098	 1.8746512592	 0.0604454251	 0.131754
H	-0.3939174297	 1.9958015837	-0.8444520011	 0.1307
H	-0.4189743768	 1.9528325633	 0.927614576	 0.132656
H	 1.6616011341	-0.7937862064	-1.4665327293	 0.104995
H	 1.5421155232	-0.9640434893	 1.4955652484	 0.110135
H	-0.6824043875	-2.7670503356	-1.3934758151	 0.119728
H	-3.0698004077	 0.1688241139	 0.127876056	 0.070116
89.6677	136.8902	196.8274	224.4532	263.9664	265.165	477.881	587.9196	643.7722	704.6779	747.2024	793.7754	808.9111	854.1773	857.0467	900.0439	904.3447	929.8136	998.7828	1022.5263	1034.8479	1051.0442	1098.9291	1103.7775	1171.9419	1191.4387	1254.5793	1266.7246	1347.5281	1408.0615	1426.7396	1450.2965	1481.6242	1498.0148	1795.765	2873.1791	3023.9476	3084.5658	3096.4966	3190.9725	3196.6002	3224.158
CC12C3C1N1C3C21C=O	C[C@@]12[C@H]3[C@@H]1N1[C@H]3[C@]21C=O	
InChI=1S/C7H7NO/c1-6-3-4(6)8-5(3)7(6,8)2-9/h2-5H,1H3	InChI=1S/C7H7NO/c1-6-3-4(6)8-5(3)7(6,8)2-9/h2-5H,1H3/t3-,4-,5+,6+,7+,8?/m0/s1
