21
gdb 41735	3.52263	1.42844	1.22804	1.1409	81.28	-0.2181	0.09	0.3081	1094.0699	0.186351	-387.100392	-387.093145	-387.092201	-387.131689	30.019	
C	 0.2715841317	 1.2983113843	-0.5028218587	-0.222055
C	 1.4221554814	 1.9923338275	 0.2747281539	-0.227978
C	 2.1123978182	 0.8796973641	 1.0519070622	-0.122633
C	 2.4952173029	-0.3725085328	 0.2769229763	-0.133517
C	 3.3011500603	-1.4214327962	 1.0309537901	-0.253506
C	 2.4851725352	-1.6334472668	 2.3298735958	-0.100422
O	 1.1368455615	-1.269259717	 2.0339923265	-0.310321
C	 1.1799343106	-0.3191692749	 1.0100167462	 0.493302
C	-0.1139869031	 0.060235744	 0.3383409417	-0.303898
H	-0.5748219338	 1.9676946856	-0.6747235834	 0.098654
H	 0.6244830918	 0.9778161686	-1.4883005865	 0.10552
H	 2.0931302841	 2.5416192249	-0.3956493224	 0.094916
H	 1.0150141809	 2.7198445977	 0.9868315912	 0.100575
H	 2.6821338717	 1.1414436526	 1.9382049512	 0.077998
H	 2.5717863749	-0.3451579396	-0.8057019492	 0.080091
H	 3.3383061321	-2.3418061795	 0.4387420589	 0.107227
H	 4.3316385953	-1.1244319998	 1.250146697	 0.102461
H	 2.4861273141	-2.6673192334	 2.6850533755	 0.107933
H	 2.8738708261	-0.9970222404	 3.1370742534	 0.098795
H	-0.8507115766	 0.3163046883	 1.1094398398	 0.107064
H	-0.5396789691	-0.746389867	-0.2673583295	 0.099792
184.8334	200.2545	234.2158	259.0983	319.8264	419.0079	476.7229	615.4346	658.1864	671.1699	725.3707	817.306	865.4905	871.713	880.3939	904.8209	916.318	944.4378	967.9815	1003.3193	1015.2568	1030.5049	1053.7013	1084.6796	1101.9797	1129.0142	1174.1962	1185.5771	1221.3243	1228.1402	1233.9317	1254.7401	1274.54	1289.6058	1316.8213	1331.8634	1336.9995	1363.2251	1397.0869	1430.1588	1492.3378	1493.683	1497.4442	1512.7096	1524.2544	3003.3931	3029.081	3034.4762	3044.3139	3049.4699	3066.1045	3077.8656	3081.047	3094.2438	3102.5892	3151.0214	3155.2938
C1CC2C3CCOC23C1	C1C[C@@H]2[C@H]3CCO[C@@]23C1	
InChI=1S/C8H12O/c1-2-6-7-3-5-9-8(6,7)4-1/h6-7H,1-5H2	InChI=1S/C8H12O/c1-2-6-7-3-5-9-8(6,7)4-1/h6-7H,1-5H2/t6-,7-,8+/m1/s1
