20
gdb 13935	3.19137	1.85049	1.48264	1.6463	74.4	-0.2361	0.0774	0.3135	947.7923	0.177119	-348.983979	-348.975975	-348.975031	-349.016823	30.352	
C	-0.3619777222	 1.4225405518	 0.2590706476	-0.410766
C	 0.008782395	-0.038465025	 0.0529617409	-0.10129
C	 1.1718575742	-0.336464753	-0.9166080559	-0.088926
O	 1.9296530186	-0.988856281	 0.1203389262	-0.31749
C	 0.9089992042	-0.7500602515	 1.1035449779	 0.463616
C	 1.3071589161	-0.0771027656	 2.4385817452	-0.286958
C	 0.3407238497	-1.0483835856	 3.1697919179	-0.214083
C	 0.3627488847	-1.9529512267	 1.9070510512	-0.286115
H	 0.5232647894	 2.0364519559	 0.4556019647	 0.122781
H	-0.8524482355	 1.8245924067	-0.6341985269	 0.116983
H	-1.0528130683	 1.5487533572	 1.0997275749	 0.118648
H	-0.8879629904	-0.6243434389	-0.1705075532	 0.076483
H	 0.9498576453	-1.0118671105	-1.7517598272	 0.098004
H	 1.6897279765	 0.550472189	-1.3056702087	 0.094588
H	 2.3545861438	-0.3031873268	 2.6588566024	 0.11249
H	 1.1487441592	 0.9983855654	 2.5482383352	 0.094804
H	 0.6872922898	-1.4881531882	 4.1067284855	 0.101022
H	-0.6422949638	-0.6010095904	 3.3399581521	 0.101823
H	-0.5741449723	-2.4058931612	 1.5700650828	 0.092013
H	 1.1285538559	-2.7310266916	 1.9768653275	 0.112373
40.6244	106.6263	220.0077	239.9905	277.7315	348.2489	396.14	479.047	498.6881	687.5808	750.7036	778.7914	843.0594	894.353	908.7425	916.5529	925.4153	969.3341	986.1454	1023.4901	1030.2092	1091.9699	1131.4305	1156.8913	1158.5612	1185.6155	1193.9652	1201.9979	1242.8395	1256.1619	1268.9855	1279.3519	1306.4509	1344.2694	1383.9751	1410.9973	1463.7408	1479.7426	1495.7624	1499.1933	1503.3315	1527.1632	3004.6596	3028.8613	3043.5134	3050.0245	3057.9806	3061.0207	3065.2759	3094.2299	3101.2425	3101.6755	3109.6511	3124.1379
CC1COC11CCC1	C[C@H]1COC21CCC2	
InChI=1S/C7H12O/c1-6-5-8-7(6)3-2-4-7/h6H,2-5H2,1H3	InChI=1S/C7H12O/c1-6-5-8-7(6)3-2-4-7/h6H,2-5H2,1H3/t6-/m0/s1
