21
gdb 53445	4.29452	0.79801	0.70647	1.1039	88.83	-0.2366	0.048	0.2846	1664.5561	0.182864	-387.080144	-387.070698	-387.069754	-387.11621	34.458	
C	-0.0281073032	 1.4802482917	-0.0121688898	-0.502695
C	-0.0374534577	 0.0248732898	 0.0022955409	 0.180415
C	-0.0587869462	-1.1783849424	 0.0087287616	-0.015798
C	-0.0388368261	-2.6371517247	 0.0336167573	-0.063282
C	 0.8401498951	-3.1898407268	 1.1737049764	-0.191305
C	 0.7780893727	-4.7231040133	 1.1969146229	-0.215404
C	-0.6817868975	-5.1964438845	 1.215088339	-0.192954
C	-1.4620182857	-4.5236231153	 0.0844342891	-0.05783
O	-1.3810626173	-3.1085981749	 0.1555176451	-0.25732
H	 0.6137417384	 1.8842660914	 0.7784900232	 0.14697
H	 0.3374743562	 1.8684938825	-0.9692238024	 0.147522
H	-1.0362601502	 1.8797173764	 0.1436231635	 0.152525
H	 0.3746973931	-3.0037209938	-0.9249325685	 0.083459
H	 1.8675577932	-2.8351436866	 1.0423563628	 0.101418
H	 0.4675556807	-2.7772736528	 2.1180645717	 0.109605
H	 1.2770136826	-5.1200465229	 0.3017958362	 0.095024
H	 1.3267551388	-5.114313639	 2.0600789675	 0.095894
H	-0.7443522544	-6.2858498229	 1.1119160253	 0.092204
H	-1.1477646058	-4.930442279	 2.1717337078	 0.10459
H	-1.0816247287	-4.8739513058	-0.8918966416	 0.081773
H	-2.5278014881	-4.7647843269	 0.1334575718	 0.10519
14.6709	80.0687	87.6415	195.6415	242.3632	293.889	320.9066	353.7128	401.3665	441.0119	515.9849	526.6381	545.4482	792.0118	831.6353	847.109	882.0126	916.5523	936.5716	1006.7836	1047.2811	1052.5114	1055.0799	1066.6351	1105.8482	1136.8062	1170.3378	1204.6301	1224.7504	1280.6696	1292.1474	1326.6574	1362.5774	1366.9663	1379.0867	1390.5947	1412.1124	1414.3187	1472.4646	1477.1449	1478.9379	1481.6576	1489.6088	1501.0076	2377.2958	2919.3729	2947.7075	3012.7236	3026.8765	3028.754	3040.7902	3067.4301	3075.0656	3083.9804	3086.998	3089.285	3089.7371
CC#CC1CCCCO1	CC#C[C@H]1CCCCO1	
InChI=1S/C8H12O/c1-2-5-8-6-3-4-7-9-8/h8H,3-4,6-7H2,1H3	InChI=1S/C8H12O/c1-2-5-8-6-3-4-7-9-8/h8H,3-4,6-7H2,1H3/t8-/m0/s1
