17
gdb 16758	5.33807	1.37526	1.20319	2.2555	70.18	-0.2123	0.0193	0.2315	1006.799	0.142955	-363.832	-363.824597	-363.823653	-363.863817	27.878	
O	-0.0184102357	 1.4260870811	-0.0096381328	-0.412883
C	-0.0241028773	 0.010213222	 0.0018316364	-0.17828
C	-1.4298816973	-0.4875674166	 0.0476668586	 0.286023
C	-2.553097895	 0.2325096585	 0.0636994368	-0.166596
C	-3.740546892	-0.6653148836	 0.0389673544	-0.063391
C	-3.8626358204	-1.5327350992	-1.168583967	-0.233661
N	-3.2387565588	-2.0621715509	 0.0486964835	-0.100658
C	-1.7623359525	-1.9692848309	 0.071323222	-0.258518
H	 0.8962400835	 1.7216715096	-0.0027283571	 0.290275
H	 0.4789779948	-0.4015551621	-0.8918511558	 0.095838
H	 0.5295999879	-0.387617105	 0.8717259841	 0.09669
H	-2.6070168235	 1.3123168219	 0.0729755369	 0.114214
H	-4.6126978253	-0.4409719663	 0.6478039215	 0.093048
H	-4.8118320698	-1.998761556	-1.421110815	 0.112286
H	-3.2281856909	-1.2841200101	-2.0173543154	 0.107311
H	-1.3321014925	-2.5189560527	-0.7767772207	 0.108829
H	-1.3860465652	-2.4546626698	 0.9832158795	 0.109472
77.6301	160.2535	197.366	238.136	352.4449	390.5934	431.27	507.8741	661.9406	708.2227	776.2048	814.7985	852.2753	913.4127	928.5017	981.5056	1013.1042	1046.2692	1059.9256	1075.2787	1092.985	1108.9418	1154.9247	1186.4281	1211.4067	1220.1258	1253.5267	1263.4	1293.4056	1340.9848	1362.5395	1467.4739	1487.406	1498.6558	1508.8713	1715.107	2935.1745	2945.7475	2998.4289	3031.7407	3091.9627	3138.8352	3181.6919	3235.4225	3837.9649
OCC1=CC2CN2C1	OCC1=C[C@H]2CN2C1	
InChI=1S/C6H9NO/c8-4-5-1-6-3-7(6)2-5/h1,6,8H,2-4H2	InChI=1S/C6H9NO/c8-4-5-1-6-3-7(6)2-5/h1,6,8H,2-4H2/t6-,7?/m0/s1
