21
gdb 83357	2.16442	1.92363	1.5539	1.4276	76.51	-0.2404	0.0729	0.3133	996.7382	0.18448	-424.246519	-424.238494	-424.23755	-424.278324	32.848	
C	-0.0293323863	 1.461721945	 0.1019119876	-0.470853
C	-0.0502273668	-0.0436324293	-0.0228392769	 0.365425
C	 0.6592254564	-0.6567931153	-1.2473705921	-0.25045
C	 0.0923450664	-2.1141193594	-1.2873411234	-0.232085
C	-0.7728445629	-2.1684615477	-0.0125729114	-0.076041
C	 0.1624928653	-2.0103675469	 1.1978862777	-0.100097
O	 0.5382868353	-0.6153148159	 1.1748578549	-0.328518
C	-1.4192163178	-0.7608309157	-0.0293645061	 0.146135
O	-2.244966433	-0.4373453565	 1.0633851999	-0.464164
H	 0.9923423705	 1.8213161321	 0.2550381629	 0.125633
H	-0.4272253103	 1.9253634236	-0.805478249	 0.117187
H	-0.639856437	 1.7870617467	 0.9488266964	 0.120938
H	 0.4280255568	-0.1018059702	-2.1614273603	 0.098868
H	 1.7421486299	-0.6263375059	-1.1035400473	 0.10923
H	-0.518965532	-2.2780404427	-2.1799206619	 0.100151
H	 0.8781904549	-2.8742980459	-1.2864411281	 0.100922
H	-1.4594863177	-3.0124079346	 0.0567287861	 0.070678
H	-0.3350624032	-2.2314569339	 2.1501260352	 0.098526
H	 1.0567935445	-2.641194097	 1.1254605657	 0.09939
H	-1.9997274807	-0.5796896457	-0.9385985419	 0.079196
H	-1.6612697024	-0.2993268346	 1.819785512	 0.289928
177.8005	200.2511	219.3453	242.9677	317.0267	344.9488	385.9218	416.6238	448.7105	568.5925	613.2802	633.3781	762.6037	803.6537	829.2062	857.3814	875.5703	902.6298	935.6078	959.9315	976.7134	1000.6108	1039.205	1052.956	1095.7307	1133.2994	1150.5694	1183.7778	1209.5157	1223.4468	1227.549	1264.0449	1268.0089	1296.095	1311.2899	1337.3746	1349.8934	1379.2749	1416.4691	1437.4653	1479.4961	1487.0031	1492.9527	1503.5095	1535.7288	3016.8311	3043.7342	3049.0289	3052.0778	3059.7357	3076.8602	3087.8142	3109.6382	3116.9125	3117.9252	3119.2741	3780.3199
CC12CCC(CO1)C2O	C[C@@]12CC[C@@H](CO1)[C@H]2O	
InChI=1S/C7H12O2/c1-7-3-2-5(4-9-7)6(7)8/h5-6,8H,2-4H2,1H3	InChI=1S/C7H12O2/c1-7-3-2-5(4-9-7)6(7)8/h5-6,8H,2-4H2,1H3/t5-,6+,7-/m0/s1
