19
gdb 49381	4.791	1.02498	1.01813	3.5653	81.02	-0.2445	-0.0182	0.2262	1221.7004	0.161466	-385.861257	-385.854189	-385.853245	-385.892856	28.732	
O	-0.1752856169	 0.0780062235	-0.2422382737	-0.273039
C	 0.0221269663	 1.212101465	 0.11776133	 0.155495
C	 1.3293972943	 1.9066580107	 0.0445293964	-0.146609
C	 1.2679220158	 3.409538558	-0.2172635704	-0.044204
C	 1.6085633662	 2.9132461505	 1.1580329867	-0.044204
C	 3.0252231941	 3.5031610837	 1.3219987097	-0.050658
C	 2.7651618721	 4.9598816247	 0.7907316928	-0.207788
C	 2.5590447802	 4.1823520245	-0.5601451536	-0.050664
C	 3.7054455546	 3.2647968183	-0.0538466354	-0.230654
H	-0.8041537097	 1.8300318822	 0.5454348891	 0.062582
H	 2.1152105276	 1.2902391383	-0.3725316966	 0.104882
H	 0.3090425667	 3.8543675041	-0.4592622336	 0.0962
H	 0.9157592014	 2.9704011808	 1.9902815549	 0.096205
H	 3.5424877335	 3.3073247367	 2.2605855516	 0.068795
H	 1.9079912628	 5.5022693542	 1.1987649228	 0.092969
H	 3.6582421734	 5.5903404326	 0.7970374483	 0.097495
H	 2.6034766348	 4.6754111229	-1.5305978571	 0.068794
H	 4.6700982428	 3.7723205505	-0.1096357358	 0.100899
H	 3.8101792802	 2.2529334287	-0.4449231962	 0.103506
101.8667	158.2491	257.7346	347.7334	379.3735	438.0904	566.3411	583.1463	664.2015	776.2624	802.0475	836.4543	841.7226	882.8593	898.5402	945.6852	959.9942	961.053	1002.7772	1027.3516	1028.3555	1057.7445	1064.2549	1092.6783	1100.4038	1110.1601	1125.5427	1137.3693	1200.4274	1219.501	1232.3458	1241.1988	1251.4039	1276.471	1299.3475	1312.6007	1386.8127	1439.9677	1494.7452	1535.578	1821.9516	2837.8463	3054.7317	3083.392	3117.1248	3120.4087	3124.2786	3135.1466	3165.8226	3174.0808	3202.0983
O=CC1C2C1C1CC2C1	O=C[C@H]1[C@H]2[C@@H]1[C@@H]1C[C@H]2C1	
InChI=1S/C8H10O/c9-3-6-7-4-1-5(2-4)8(6)7/h3-8H,1-2H2	InChI=1S/C8H10O/c9-3-6-7-4-1-5(2-4)8(6)7/h3-8H,1-2H2/t4-,5+,6-,7-,8+
