16
gdb 37534	4.10025	1.7572	1.51181	1.5558	72.37	-0.2456	0.0042	0.2498	869.1739	0.126606	-400.644453	-400.638594	-400.63765	-400.674391	24.753	
C	-0.0700413875	 1.6210835343	-0.0511741738	-0.265436
C	 1.4297512907	 1.2766446508	-0.0268969799	-0.07214
C	 1.2494758655	 0.127363401	 1.0009482383	-0.107185
C	-0.050842176	 0.0837005505	 0.0426392769	-0.150336
C	 1.2168837815	-0.0543596651	-0.871924371	 0.38726
N	 1.8291842771	-0.2281610573	-2.1728140266	-0.374149
C	 2.992479346	-0.6289803385	-1.8119577604	 0.088952
O	 3.2789524283	-0.872932942	-0.4833740079	-0.25995
C	 1.9467357537	-0.9158415586	 0.1077721573	 0.062122
H	-0.4581271632	 2.153190257	 0.8226076664	 0.096982
H	-0.4706590763	 2.0482337938	-0.9740225127	 0.111391
H	 2.2943948256	 1.9343043659	-0.1021042752	 0.085768
H	 1.2162277041	 0.2167119179	 2.0866711934	 0.084217
H	-0.8756396724	-0.6243681085	 0.1253398542	 0.086835
H	 3.8313154802	-0.7942206596	-2.4786074209	 0.140319
H	 1.6655560629	-1.9652691415	 0.2423309418	 0.08535
213.8278	299.931	312.7566	489.5828	555.1976	571.0612	685.4651	704.0133	800.9059	840.1829	858.0205	889.647	909.86	921.2779	931.1333	944.5062	958.9528	1003.703	1032.3674	1037.484	1060.4992	1077.8341	1123.3713	1142.1551	1157.4389	1173.924	1195.67	1233.0909	1241.9425	1282.2774	1311.0001	1322.1303	1378.2673	1508.8915	1600.9098	3050.5134	3059.0682	3111.6147	3112.6031	3120.1	3131.2339	3219.207
C1C2C3C1C21N=COC31	C1[C@H]2[C@H]3[C@@H]1[C@]12[N][CH]O[C@@H]31	
InChI=1S/C7H7NO/c1-3-5-4(1)7(3)6(5)9-2-8-7/h2-6H,1H2	InChI=1S/C7H7NO/c1-3-5-4(1)7(3)6(5)9-2-8-7/h2-6H,1H2/t3-,4+,5-,6-,7-/m0/s1
