15
gdb 34836	3.56672	1.16678	0.97468	2.826	77.58	-0.2651	0.007	0.2721	1170.5401	0.112871	-379.56975	-379.562136	-379.561192	-379.601971	29.087	
C	-0.0340385208	-1.2771080538	-0.0559437098	-0.405406
C	 0.0119326322	-0.078248925	 0.009918428	 0.318856
C	 0.0021285288	 1.365956129	 0.0270712507	-0.199775
C	 0.0961039547	 2.1171249586	 1.395139867	-0.036543
N	 1.524927194	 1.629611723	 1.4847090335	-0.307243
C	 1.3591080197	 2.1414230391	 0.0712800155	-0.036543
C	 0.5873164237	 3.3902022622	 0.6225123186	-0.163036
C	-0.3181245567	 4.1481610587	-0.2273939711	 0.268171
N	-1.0374796803	 4.7515949521	-0.9026074119	-0.331514
H	-0.0579776102	-2.3379297179	-0.098252379	 0.197284
H	-0.734179564	 1.7748971531	-0.6678844807	 0.133703
H	-0.5961805895	 2.074605314	 2.2353037766	 0.112052
H	 2.0850435013	 2.2913541356	 2.0312232912	 0.216436
H	 2.1663047266	 2.1277512032	-0.6602852979	 0.112052
H	 1.2045317905	 4.061998878	 1.2236848392	 0.121505
109.9872	143.5526	191.7722	194.8607	390.7678	442.7844	486.9747	530.5612	530.9984	627.8801	639.463	646.6713	783.2644	825.1112	877.2751	888.3459	902.6375	936.8433	1025.7695	1040.457	1071.5842	1093.2961	1136.9733	1150.6325	1175.4026	1181.8684	1235.0985	1281.7261	1295.2691	1370.6922	1401.9872	2243.4065	2349.3916	3090.2974	3096.9391	3128.6383	3132.0975	3389.3753	3504.0468
C#CC1C2NC1C2C#N	C#C[C@H]1[C@H]2N[C@@H]1[C@H]2C#N	
InChI=1S/C7H6N2/c1-2-4-6-5(3-8)7(4)9-6/h1,4-7,9H	InChI=1S/C7H6N2/c1-2-4-6-5(3-8)7(4)9-6/h1,4-7,9H/t4-,5-,6+,7-
