17
gdb 15121	8.11858	0.75149	0.71747	4.7161	70.31	-0.2539	0.0179	0.2717	1514.2796	0.142982	-360.008238	-359.99979	-359.998846	-360.042259	29.456	
N	 0.0578727318	-1.1142335065	 0.3143187307	-0.294705
C	 0.0390246773	 0.0302153721	 0.1609761399	 0.258609
C	 0.0087089299	 1.4860788737	-0.0035388013	-0.259674
N	 1.3543780903	 2.04134755	-0.0340263243	-0.295716
C	 1.3656095676	 3.4955168262	-0.1675983488	-0.156864
C	 2.7793986148	 4.0178780963	-0.1314503411	 0.01643
C	 3.0558458057	 5.3985054016	 0.3281217412	-0.245599
N	 3.454010544	 4.24903028	 1.1607918044	-0.314378
H	-0.4886694265	 1.7151200996	-0.954779887	 0.157686
H	-0.6375114059	 1.9033524439	 0.7916614444	 0.130358
H	 1.8637637257	 1.7627683506	 0.7986139458	 0.237407
H	 0.9009777314	 3.7472322104	-1.1310591338	 0.116571
H	 0.7683955552	 4.0081364964	 0.6130828559	 0.075352
H	 3.4329907224	 3.5782732827	-0.8811649895	 0.109456
H	 3.8791216232	 5.959414792	-0.1038647097	 0.126642
H	 2.2142909861	 6.0073038326	 0.6498473317	 0.112594
H	 2.787251367	 4.1422968186	 1.9234120314	 0.225831
51.1191	96.2843	98.8705	153.2303	221.5121	317.9287	391.3787	399.7147	448.4445	580.7342	766.2733	799.8166	829.0602	927.9219	943.7506	952.854	984.4197	1009.469	1050.9611	1111.4452	1129.7905	1150.6793	1159.8662	1194.8398	1249.0979	1256.8326	1286.9005	1311.4037	1333.8683	1389.1535	1442.4414	1489.2832	1495.7957	1506.1824	1513.4446	2369.8356	2900.8769	2929.2116	3024.7006	3043.6425	3109.7026	3142.1105	3195.8744	3476.5111	3524.7177
N#CCNCC1CN1	N#CCNC[C@H]1CN1	
InChI=1S/C5H9N3/c6-1-2-7-3-5-4-8-5/h5,7-8H,2-4H2	InChI=1S/C5H9N3/c6-1-2-7-3-5-4-8-5/h5,7-8H,2-4H2/t5-/m0/s1
