16
gdb 31400	3.57881	1.14127	0.91979	3.1836	74.82	-0.2602	-0.0629	0.1973	1251.214	0.12486	-437.956907	-437.948878	-437.947933	-437.990104	29.349	
C	-0.1370527181	 1.5743387978	-0.0371562587	-0.376666
C	 0.1001307357	 0.0564660601	 0.0404813899	-0.269201
C	 0.8095569097	-0.4706843653	-1.1734951438	 0.334499
C	 2.0520304856	-1.0170886305	-1.133395282	-0.321835
C	 2.6981181454	-1.5019910958	-2.3279766698	 0.43993
O	 3.7761169786	-2.0028018341	-2.4629092544	-0.330103
O	 1.8986551689	-1.3414064394	-3.4993322493	-0.202588
C	 0.6870818137	-0.7892398042	-3.4171478026	 0.14393
N	 0.1026219755	-0.3532973026	-2.3650254682	-0.323962
H	 0.8119081509	 2.1188341226	-0.0623968311	 0.123356
H	-0.7010470191	 1.8274318719	-0.9381929801	 0.143745
H	-0.7030438187	 1.9162815463	 0.833598286	 0.121864
H	 0.6716937855	-0.1974291183	 0.9380471142	 0.111445
H	-0.8686454068	-0.453338623	 0.1101883071	 0.128112
H	 2.6100728214	-1.1143769669	-0.2108312501	 0.126186
H	 0.204095962	-0.7393391184	-4.3896398071	 0.151289
61.5576	128.2587	158.8171	209.9057	271.8943	336.0659	437.2018	463.5215	538.787	578.2795	700.5506	735.2685	775.0172	798.793	835.9015	887.5798	956.1069	974.4085	978.0433	1077.7363	1085.5826	1106.1419	1205.1323	1239.3741	1275.4866	1350.8814	1364.8505	1403.6291	1431.1252	1475.5744	1495.7938	1509.3675	1602.5002	1669.8982	1870.9305	3036.3232	3045.5704	3088.5853	3116.7142	3131.9498	3181.6257	3216.6885
CCC1=CC(=O)OC=N1	CCc1cc(=O)ocn1	
InChI=1S/C6H7NO2/c1-2-5-3-6(8)9-4-7-5/h3-4H,2H2,1H3	InChI=1S/C6H7NO2/c1-2-5-3-6(8)9-4-7-5/h3-4H,2H2,1H3
