15
gdb 33769	3.78973	1.47685	1.27008	2.5017	68.96	-0.2736	-0.0144	0.2591	963.892	0.114989	-416.808928	-416.802214	-416.80127	-416.839924	26.574	
N	-0.0343052789	-1.1490563108	-0.0794467506	-0.328015
C	-0.0356808172	 0.0054387721	-0.049822813	 0.226963
C	 0.0151413789	 1.4555531014	 0.046197536	 0.288321
C	-0.2219708237	 2.1719896544	 1.4072707402	-0.267464
C	 0.6316244494	 3.3182615599	 0.7854058314	-0.012656
C	 1.3741933998	 2.2107803401	-0.0216685237	-0.267473
N	-0.2095210612	 4.0928804991	-0.1331196133	-0.247709
C	-0.8912395449	 3.3674160814	-0.9143031102	 0.10511
O	-0.8818541994	 2.0044673415	-0.9408887036	-0.264512
H	-1.2558779779	 2.388808157	 1.6782405807	 0.131017
H	 0.2955665659	 1.651278364	 2.2135721959	 0.132558
H	 1.1993881785	 3.9784522187	 1.437525207	 0.095074
H	 2.1325103506	 1.6959374023	 0.5690908517	 0.132559
H	 1.7511608517	 2.4618871501	-1.01375627	 0.131015
H	-1.5697194916	 3.7683137486	-1.6613444285	 0.145212
150.8312	159.4744	323.3201	391.3241	422.6621	448.3361	545.7351	563.9851	582.4627	616.4473	769.1776	847.8176	878.316	901.2206	922.6872	936.2931	957.8578	977.4267	1038.4352	1081.215	1111.9624	1143.3115	1178.0536	1201.7873	1238.2926	1249.1644	1280.3716	1334.0754	1375.0459	1465.421	1493.9774	1704.1933	2368.6313	3084.332	3089.5438	3134.0807	3154.9239	3157.7733	3194.1831
N#CC12CC(C1)N=CO2	N#C[C@@]12C[C@@H](C1)[N][CH]O2	
InChI=1S/C6H6N2O/c7-3-6-1-5(2-6)8-4-9-6/h4-5H,1-2H2	InChI=1S/C6H6N2O/c7-3-6-1-5(2-6)8-4-9-6/h4-5H,1-2H2/t5-,6+
