16
gdb 64913	1.9939	1.80373	1.13871	5.0602	70.99	-0.2688	-0.0457	0.2231	1079.3136	0.120776	-437.889303	-437.879821	-437.878877	-437.923386	33.939	
C	-0.0629034172	 1.7061376612	 0.4278794263	-0.481601
C	-0.1021743793	 0.2213205041	 0.1323570646	 0.17879
C	 1.1183823284	-0.5135295899	-0.3755966383	-0.370147
C	 0.6959106153	-0.7234472674	 1.0551001831	 0.219416
O	 1.4002794319	-0.077236108	 2.0707754949	-0.439982
C	 0.138879751	-1.9988703496	 1.4598126526	 0.274685
N	-0.2423304097	-3.0211559428	 1.8420410741	-0.346027
C	-1.4210941381	-0.3021938364	-0.3592279525	 0.099644
O	-1.5681932779	-1.3568709676	-0.9226461981	-0.244243
H	 0.8687703275	 1.9860736348	 0.9187700377	 0.15033
H	-0.1555051454	 2.2804035275	-0.499817289	 0.132416
H	-0.8888180662	 1.9930348393	 1.0873681147	 0.135885
H	 0.929467638	-1.3181398322	-1.0774333944	 0.161746
H	 2.0261048422	 0.0621950866	-0.5169264368	 0.134313
H	 2.1847302495	-0.6004184455	 2.2742995629	 0.304537
H	-2.2817431802	 0.373259276	-0.1629091618	 0.090237
91.9208	120.0761	146.6222	159.7637	233.6526	249.8187	274.0748	288.3259	355.081	400.2949	433.8947	551.5318	584.7832	630.0118	678.5045	760.3293	852.2467	926.4028	931.6038	977.4293	1026.7393	1078.5779	1114.4534	1142.2186	1212.182	1289.3902	1307.3248	1365.7143	1415.9106	1424.5025	1456.1902	1494.2829	1497.4673	1817.4482	2353.1528	2900.3047	3041.6453	3100.8094	3138.6742	3155.1608	3242.1453	3793.8508
CC1(CC1(O)C#N)C=O	C[C@]1(C[C@]1(O)C#N)C=O	
InChI=1S/C6H7NO2/c1-5(4-8)2-6(5,9)3-7/h4,9H,2H2,1H3	InChI=1S/C6H7NO2/c1-5(4-8)2-6(5,9)3-7/h4,9H,2H2,1H3/t5-,6-/m0/s1
