21
gdb 90663	4.14751	1.04552	1.03807	1.5509	83.05	-0.2202	0.0791	0.2993	1280.0765	0.182566	-387.040441	-387.032009	-387.031065	-387.073625	32.643	
C	-0.1529206569	 1.4619528346	 0.1259656249	-0.404394
C	 0.0047332005	-0.0531552558	 0.1013504252	 0.026959
C	 1.0594268565	-0.5745264675	-0.9367882935	-0.25664
C	 1.9066493166	-1.1377160152	 0.2063203108	-0.139395
C	 0.8637914618	-0.6264957362	 1.2384884382	-0.149772
C	 1.1036384504	-2.0829980159	 1.0349147133	 0.474664
C	 0.1856818015	-3.256939508	 0.6912146198	-0.364774
C	 0.9560561947	-3.9729152379	 1.8210542587	-0.077997
O	 1.7755915063	-2.8073315747	 2.0701490887	-0.324585
H	 0.8198389347	 1.9551495224	 0.2328484125	 0.116526
H	-0.6150496712	 1.8229411835	-0.7995614565	 0.111864
H	-0.7823900516	 1.7820385442	 0.9637374761	 0.1134
H	-0.983729014	-0.5219826438	 0.0122342269	 0.063473
H	 0.7082602768	-1.2980633733	-1.6813237788	 0.090788
H	 1.5460985583	 0.2514026683	-1.4621956684	 0.103993
H	 2.9885928988	-1.1461779345	 0.2692865725	 0.090793
H	 1.0208732171	-0.1741083549	 2.211684998	 0.088056
H	-0.8772998469	-3.0930610419	 0.8790371058	 0.113159
H	 0.3168719483	-3.6796822572	-0.3068451661	 0.113373
H	 0.3638854642	-4.2456130068	 2.7019864626	 0.105292
H	 1.560870274	-4.8335007394	 1.5135305194	 0.105216
73.5475	112.2266	161.5173	233.8933	272.6717	280.6975	399.2812	430.1816	455.0101	576.0485	703.3587	793.0186	810.9258	845.0025	862.3809	883.7861	902.9358	937.1835	948.1161	974.7307	988.8553	1001.7711	1022.7565	1056.9954	1102.2752	1107.347	1129.1798	1142.3166	1166.6186	1202.5747	1216.5537	1224.3073	1236.4151	1250.3672	1271.0055	1284.0315	1353.0857	1366.2343	1410.5979	1445.0081	1487.7128	1490.7193	1494.2028	1501.6479	1532.0428	3013.2451	3023.3999	3025.233	3035.5848	3066.7596	3072.8452	3089.7527	3093.6456	3096.8627	3125.5248	3170.2873	3182.7616
CC1CC2C1C21CCO1	C[C@H]1C[C@H]2[C@@H]1[C@]12CCO1	
InChI=1S/C8H12O/c1-5-4-6-7(5)8(6)2-3-9-8/h5-7H,2-4H2,1H3	InChI=1S/C8H12O/c1-5-4-6-7(5)8(6)2-3-9-8/h5-7H,2-4H2,1H3/t5-,6-,7+,8+/m0/s1
