19
gdb 89394	2.66489	1.41109	1.14917	3.7841	75.24	-0.2345	-0.0132	0.2213	1126.6582	0.158706	-423.046475	-423.037814	-423.03687	-423.079593	33.389	
C	-0.561084633	 1.3826924488	 0.1292308429	-0.403488
C	 0.0259754321	-0.0252707871	-0.0482098625	-0.091849
C	 0.8328667854	-0.2662153666	-1.3494005334	-0.318254
C	 2.28944749	-0.4945825981	-0.9344872258	 0.402219
O	 3.0558916736	-1.3713320819	-1.6996116205	-0.467224
C	 2.9580063176	 0.6021589262	-0.1744433606	-0.35164
C	 2.3568019594	-0.6011294317	 0.5705067776	-0.196572
C	 0.9796649335	-0.3973885556	 1.1095605826	 0.412314
O	 0.6328850114	-0.5351332289	 2.2571570134	-0.340943
H	 0.2049532841	 2.1600109598	 0.0372472107	 0.118296
H	-1.3281121172	 1.5813624411	-0.6254656637	 0.118431
H	-1.0175507843	 1.4740397199	 1.1185736322	 0.141402
H	-0.803219168	-0.7379939988	 0.0168188934	 0.110451
H	 0.4899505494	-1.1726513746	-1.8564876951	 0.116755
H	 0.7353273431	 0.5637056182	-2.0590467853	 0.096692
H	 3.3497254889	-0.9028194529	-2.4886748628	 0.285912
H	 4.0422640032	 0.6118360595	-0.1888930824	 0.127831
H	 2.4925520808	 1.5778260798	-0.0834432654	 0.123433
H	 3.03809439	-1.2637907474	 1.0880300346	 0.116233
73.276	140.0607	220.8856	232.2162	259.4336	314.6113	345.4968	369.0968	432.2092	485.4805	545.7483	611.0799	661.4467	717.5374	780.6296	880.2892	887.8419	905.4142	932.2764	954.0937	974.9383	1039.0885	1056.1184	1067.4393	1098.7076	1125.3973	1175.4398	1204.1586	1241.4291	1258.3608	1278.0684	1320.0855	1323.8147	1337.727	1398.5479	1411.1401	1477.9583	1496.9515	1500.5037	1505.1063	1828.013	3034.2298	3038.567	3048.1369	3090.3767	3102.9449	3120.2726	3131.8787	3207.347	3223.8467	3797.998
CC1CC2(O)CC2C1=O	C[C@H]1C[C@@]2(O)C[C@H]2C1=O	
InChI=1S/C7H10O2/c1-4-2-7(9)3-5(7)6(4)8/h4-5,9H,2-3H2,1H3	InChI=1S/C7H10O2/c1-4-2-7(9)3-5(7)6(4)8/h4-5,9H,2-3H2,1H3/t4-,5-,7+/m0/s1
