17
gdb 36243	4.6559	1.07197	0.9768	2.5096	75.14	-0.2526	0.0301	0.2827	1190.5365	0.137684	-380.813264	-380.806006	-380.805062	-380.845438	27.994	
N	 0.0537041397	-1.1503339302	 0.1571972141	-0.307597
C	 0.0367243145	-0.003071607	 0.0194550293	 0.264343
C	 0.0425618609	 1.4502890686	-0.144966198	-0.370541
C	 1.4467501008	 2.0489602687	 0.0179862199	-0.004565
C	 1.4072482305	 3.5747273167	 0.1330922058	-0.052978
C	 1.3477162738	 3.5218251264	 1.6146921124	-0.057042
C	 1.9617438429	 2.0707099223	 1.4859066356	-0.087381
C	 3.3057778416	 2.7988602976	 1.338856271	-0.157009
N	 2.5718010034	 4.0526954588	 0.953971852	-0.15132
H	-0.3622878716	 1.6892832752	-1.1355089856	 0.153162
H	-0.6416674945	 1.8901834134	 0.5904005806	 0.15392
H	 2.1258010917	 1.6096648074	-0.7213294163	 0.090362
H	 0.9771528969	 4.2936215109	-0.5527279262	 0.104347
H	 0.7763820495	 4.0555876884	 2.3618919247	 0.105274
H	 1.8131995969	 1.2109036182	 2.1362736346	 0.09635
H	 3.812844925	 2.9802920849	 2.2892092368	 0.116438
H	 4.022067778	 2.4247472797	 0.5981296393	 0.104235
75.622	114.5127	226.5936	293.5566	397.8225	424.3	454.3883	588.7221	752.0453	759.5517	787.1629	800.4029	828.4916	922.5446	935.5417	943.6461	967.1331	976.5845	997.3268	1003.4802	1054.1296	1075.338	1092.767	1151.5028	1165.0988	1173.0563	1203.4801	1228.5768	1236.4313	1269.1693	1297.663	1308.9687	1349.9176	1385.9638	1465.1822	1510.6896	2361.6263	3036.1425	3037.7407	3047.1021	3077.8271	3110.6106	3139.36	3195.5928	3212.887
N#CCC1C2C3C1CN23	N#CC[C@H]1[C@H]2[C@H]3[C@@H]1CN23	
InChI=1S/C7H8N2/c8-2-1-4-5-3-9-6(4)7(5)9/h4-7H,1,3H2	InChI=1S/C7H8N2/c8-2-1-4-5-3-9-6(4)7(5)9/h4-7H,1,3H2/t4-,5-,6+,7-,9?/m1/s1
