22
gdb 26420	3.90155	0.9333	0.87181	2.0382	88.65	-0.1998	0.0465	0.2462	1446.7381	0.194939	-367.257073	-367.247707	-367.246763	-367.291813	35.366	
C	-0.0810650942	 1.5645170857	 0.0113756442	-0.388635
C	 0.009228602	 0.0333656952	 0.002055951	 0.037359
C	 0.8978096577	-0.4839094117	 1.1385368078	-0.389813
C	-1.4087543731	-0.5690556338	 0.0588419313	-0.172754
N	-1.4504202133	-2.014260195	-0.0802493943	 0.043822
C	-1.2801528791	-2.7024060117	-1.2574413077	-0.100018
C	-1.3202778719	-4.05031306	-0.9832911086	-0.167558
C	-1.5208406577	-4.1886752442	 0.417322075	-0.172023
C	-1.5959587985	-2.9193793441	 0.9436942122	-0.102283
H	 0.9129839589	 2.0150042424	-0.0671809725	 0.117271
H	-0.6859236306	 1.9390023065	-0.8215331836	 0.111979
H	-0.5345580856	 1.9262659194	 0.9421729473	 0.114569
H	 0.4548740972	-0.2800987324	-0.9516645196	 0.08334
H	 0.5041011647	-0.173453109	 2.1144700872	 0.107447
H	 0.9610202392	-1.5752288038	 1.1330521805	 0.139193
H	 1.9131415048	-0.0846396439	 1.0498199715	 0.112835
H	-1.8815919158	-0.3128987707	 1.0134520956	 0.112562
H	-2.0255610729	-0.127125123	-0.7323136395	 0.1122
H	-1.1530525144	-2.1711885634	-2.1878353785	 0.108805
H	-1.2285846658	-4.8453084197	-1.7075399435	 0.090241
H	-1.6112356089	-5.1095835291	 0.9727393708	 0.090121
H	-1.7459965627	-2.5770026138	 1.9555204832	 0.111338
49.4393	75.2215	99.7785	220.2122	245.564	265.4623	317.2526	358.1263	416.2481	425.6819	623.8223	634.7799	683.7096	740.3124	742.6466	795.6998	821.853	846.6892	885.3851	900.4259	932.7101	949.5424	970.3819	991.271	1083.9202	1086.5498	1114.1356	1137.809	1147.6973	1195.882	1248.3532	1303.0535	1314.5252	1328.3357	1370.9165	1387.5363	1402.8714	1421.7892	1425.9162	1433.4184	1478.6388	1488.281	1494.9435	1504.8381	1511.1808	1535.2478	1560.2664	3014.8531	3024.3102	3027.7792	3034.2984	3078.897	3089.169	3095.1568	3104.484	3118.4023	3237.418	3247.4702	3259.2236	3268.4491
CC(C)CN1C=CC=C1	CC(C)Cn1cccc1	
InChI=1S/C8H13N/c1-8(2)7-9-5-3-4-6-9/h3-6,8H,7H2,1-2H3	InChI=1S/C8H13N/c1-8(2)7-9-5-3-4-6-9/h3-6,8H,7H2,1-2H3
