19
gdb 43115	3.57191	1.51445	1.45139	3.2266	77.88	-0.2297	0.0016	0.2314	970.499	0.163413	-385.91087	-385.904349	-385.903405	-385.941535	27.498	
O	-0.0092408085	 0.0054721606	-0.0945171749	-0.334043
C	-0.0213950911	 1.1955305647	 0.0255283941	 0.435502
C	-1.0963831562	 2.2974358528	 0.0423033733	-0.155723
C	-0.8161739546	 2.8899737066	 1.4412243733	-0.235844
C	 0.7174957039	 3.1731873937	 1.2716712528	-0.017803
C	 0.8691177274	 4.6168851661	 0.7661017757	-0.209628
C	 0.0975352553	 4.5888450842	-0.5842574718	-0.244571
C	-0.0664439352	 3.0851836636	-0.8638704249	-0.01241
C	 1.0083417145	 2.3189035046	-0.0019395831	-0.164381
H	-2.1263337975	 2.1115325713	-0.2561397452	 0.079688
H	-1.3783416318	 3.8056901839	 1.6469980005	 0.100198
H	-1.0402341883	 2.1722871223	 2.235471807	 0.110953
H	 1.3214421258	 2.9317013057	 2.1470410974	 0.072408
H	 0.4631574072	 5.3439262659	 1.476703118	 0.098464
H	 1.9244357387	 4.8633406443	 0.6062896254	 0.099057
H	-0.8708561106	 5.0951033283	-0.5223523363	 0.106923
H	 0.6598136247	 5.0755617182	-1.3858616656	 0.105587
H	-0.1198915583	 2.7947101775	-1.9130471226	 0.084828
H	 2.0434605647	 2.1820502357	-0.3086568931	 0.080795
148.672	232.7811	283.7504	390.7617	478.2443	525.2832	618.3228	695.658	710.994	764.3617	778.2006	818.9277	831.3999	871.7745	906.405	922.5396	963.156	982.5332	992.3557	994.539	1038.6163	1062.9292	1080.2457	1094.9666	1129.1447	1146.6998	1172.5087	1193.1619	1216.9879	1228.4362	1247.894	1281.5106	1290.9909	1308.4096	1314.7805	1335.4266	1356.9283	1488.6152	1499.1184	1514.6588	1897.169	3039.2276	3049.9822	3054.2172	3078.2188	3091.7132	3098.1645	3107.6034	3117.3086	3139.937	3143.7674
O=C1C2CC3CCC2C13	O=C1[C@H]2C[C@@H]3CC[C@H]2[C@H]13	
InChI=1S/C8H10O/c9-8-6-3-4-1-2-5(6)7(4)8/h4-7H,1-3H2	InChI=1S/C8H10O/c9-8-6-3-4-1-2-5(6)7(4)8/h4-7H,1-3H2/t4-,5+,6-,7+/m0/s1
