19
gdb 88619	3.71241	1.04319	0.95909	3.1687	76.28	-0.2299	0.0763	0.3062	1274.5432	0.159011	-422.925034	-422.917025	-422.916081	-422.958259	31.255	
O	-0.5184253706	 0.7026198451	 1.6731382062	-0.414204
C	-0.3372197168	-0.5278820514	 1.0350601123	 0.102758
C	-1.1116090087	-1.731698637	 1.5017336511	-0.339502
C	-1.4800221992	-1.0375805149	 0.1976673475	-0.079836
C	-2.7602515338	-0.2555397945	 0.1220786343	 0.047925
C	-3.1835163448	 0.5688906876	-1.1311582633	 0.031604
C	-3.5008164173	-0.7308072244	-1.9103183247	-0.236202
C	-4.075863311	-0.8380444069	-0.4774731594	 0.027422
O	-4.5731211225	 0.5504926442	-0.6150611063	-0.310677
H	-0.1184152835	 0.6464591069	 2.5469550155	 0.289757
H	 0.6690570725	-0.6937730883	 0.649792884	 0.086875
H	-0.6449309975	-2.7100728544	 1.4655735122	 0.111918
H	-1.7858693346	-1.578012544	 2.3384123594	 0.117535
H	-1.1815749461	-1.5586394656	-0.7060593443	 0.087953
H	-2.9459319289	 0.3012086313	 1.0410424891	 0.092505
H	-2.7964195336	 1.5208953878	-1.4956512977	 0.093796
H	-4.2514800926	-0.6187041632	-2.6933703129	 0.106676
H	-2.6816274592	-1.3888974932	-2.2070603869	 0.09517
H	-4.7607649018	-1.5771122751	-0.0591867061	 0.088528
43.138	130.5744	181.1419	260.9365	304.2095	356.9939	434.5356	514.3428	561.2586	616.7202	729.3231	785.2428	818.4525	844.5747	868.9848	879.1521	904.1546	918.838	948.2238	1007.7607	1014.9808	1019.9614	1050.7421	1070.5703	1093.5036	1134.0702	1144.2287	1168.6235	1174.0048	1186.2666	1200.3112	1218.6951	1242.042	1260.5369	1278.719	1297.0829	1321.8986	1415.7963	1443.5694	1488.865	1494.3751	3071.3561	3094.3604	3106.0498	3113.059	3122.0147	3128.4159	3146.7859	3160.7488	3217.6777	3809.696
OC1CC1C1C2CC1O2	O[C@H]1C[C@H]1[C@H]1[C@H]2C[C@@H]1O2	
InChI=1S/C7H10O2/c8-4-1-3(4)7-5-2-6(7)9-5/h3-8H,1-2H2	InChI=1S/C7H10O2/c8-4-1-3(4)7-5-2-6(7)9-5/h3-8H,1-2H2/t3-,4+,5-,6+,7+/m1/s1
