15
gdb 43904	3.06813	1.37688	1.12911	1.8736	72.6	-0.2527	-0.0367	0.2161	1068.3504	0.110332	-420.569023	-420.561133	-420.560189	-420.60165	29.857	
O	-0.0127971333	 0.1252878027	-0.5222444345	-0.288535
C	 0.0093361479	 1.2445263572	-0.1047317097	 0.409767
C	-1.0730863761	 2.2121736747	 0.4151695322	-0.399079
C	 0.0493686071	 3.262308301	 0.6621929078	 0.248518
O	 0.6207869647	 3.1173731631	 1.9870191558	-0.317121
C	 1.7077790167	 2.3003384768	 1.4975201431	-0.095475
C	 1.1314927213	 2.2801224543	 0.0660808078	-0.267577
C	-0.1573078287	 4.6241890744	 0.2454934317	 0.246107
C	-0.3360040102	 5.7560020335	-0.1183057871	-0.396088
H	-1.7701664236	 2.4973427715	-0.3793823314	 0.146718
H	-1.6313349916	 1.9082259329	 1.3032053721	 0.147463
H	 2.6652968519	 2.82801112	 1.5715070379	 0.122879
H	 1.7796780579	 1.338946235	 2.016632301	 0.123752
H	 1.7906527786	 2.4879211479	-0.77464174	 0.116804
H	-0.4912588227	 6.758852925	-0.4326595967	 0.201867
70.9104	140.5089	180.9686	219.7322	351.7998	421.6886	459.9056	488.1358	544.2469	571.3661	620.8218	642.3083	678.6868	722.0214	835.0373	918.6581	939.1607	951.7473	996.9278	1035.698	1059.519	1090.4416	1108.8064	1140.9251	1165.009	1191.4869	1239.0793	1288.2129	1338.7709	1413.0831	1523.7045	1898.8873	2237.2111	3030.7613	3062.5846	3081.4201	3130.1071	3141.1008	3498.6652
O=C1CC2(OCC12)C#C	O=C1C[C@]2(OC[C@@H]12)C#C	
InChI=1S/C7H6O2/c1-2-7-3-6(8)5(7)4-9-7/h1,5H,3-4H2	InChI=1S/C7H6O2/c1-2-7-3-6(8)5(7)4-9-7/h1,5H,3-4H2/t5-,7+/m0/s1
