13
gdb 132412	3.84293	1.12622	0.87097	3.6415	70.06	-0.2604	-0.0789	0.1815	1188.6441	0.089534	-460.774434	-460.767413	-460.766468	-460.806377	25.848	
F	-0.0242256852	 0.0266685041	 0.003201657	-0.06345
C	-0.0192501284	 1.3554058959	 0.0105913225	 0.343226
C	-1.220188189	 2.0496592468	 0.0309247371	-0.317202
C	-1.1590993173	 3.4436084101	 0.0379174924	 0.239844
C	-2.4468866022	 4.208685073	 0.0598412524	 0.116085
O	-2.5386914687	 5.4069500527	 0.067868372	-0.23781
N	-0.0128542885	 4.1378931536	 0.026122434	-0.296822
C	 1.1186177519	 3.4406886383	 0.0067174905	 0.010825
C	 1.1813241208	 2.0448105151	-0.0019720415	-0.256511
H	-2.1665981947	 1.5210260218	 0.0409067275	 0.129205
H	-3.3485608235	 3.5539739776	 0.0685067906	 0.074304
H	 2.0400431306	 4.0177411202	-0.00265438	 0.128787
H	 2.1253010142	 1.5142840209	-0.0178675344	 0.129519
90.5053	201.5913	226.1005	247.2091	376.14	449.531	462.125	516.728	603.6673	700.1357	752.3229	817.3765	870.6176	902.3419	953.1482	994.2766	1009.4172	1034.033	1102.2618	1148.4658	1302.1693	1317.4235	1328.0943	1405.846	1449.1208	1512.7805	1623.3477	1625.3238	1829.8046	2868.6032	3162.7319	3201.1252	3216.7055
FC1=CC(C=O)=NC=C1	Fc1cc(C=O)ncc1	
InChI=1S/C6H4FNO/c7-5-1-2-8-6(3-5)4-9/h1-4H	InChI=1S/C6H4FNO/c7-5-1-2-8-6(3-5)4-9/h1-4H
