19
gdb 58680	2.06987	1.47077	1.23252	1.9055	72.75	-0.2587	-0.0328	0.2259	1127.9832	0.157027	-460.158846	-460.149338	-460.148393	-460.192826	35.673	
C	 0.1074265937	 1.4556841531	 0.3491833469	-0.423614
C	-0.0114264177	-0.0299627595	 0.0079405887	 0.046956
O	-1.372693083	-0.45070438	-0.1193597233	-0.455558
C	 0.7573414473	-0.4404467832	-1.2457464617	 0.18943
C	 2.1380867702	-1.0702715273	-1.1184899556	-0.366953
C	 0.9853198671	-1.9635705388	-1.4006083788	 0.094684
O	 0.4916342946	-2.7809318708	-0.3958543538	-0.41766
C	 0.3645065405	 0.2040716835	-2.5126148258	 0.097012
O	-0.6355756981	 0.8772055735	-2.6563279104	-0.292719
H	 1.1536895943	 1.7287011883	 0.5228015311	 0.113847
H	-0.2838002988	 2.079530186	-0.4574753307	 0.140642
H	-0.4599385387	 1.665754927	 1.2597643831	 0.124965
H	 0.3801273257	-0.6156001023	 0.8440777334	 0.100441
H	-1.7264772621	 0.0305134992	-0.8800941501	 0.295414
H	 2.8573603015	-0.8929786075	-1.9120018285	 0.123743
H	 2.5554376943	-1.0962486131	-0.118188169	 0.137868
H	 0.9009455357	-2.368157089	-2.4091448613	 0.102068
H	-0.4458152815	-2.5620381595	-0.2890935158	 0.30653
H	 1.0313399851	-0.0063925895	-3.3797622184	 0.082903
81.3373	121.3198	174.1812	206.0061	230.9087	241.2565	265.3592	364.5257	384.7022	428.7013	464.913	505.3475	553.728	576.0552	611.1528	770.1203	789.6515	870.8133	908.5375	933.6764	1004.3277	1039.6855	1051.9672	1064.5487	1103.0758	1114.541	1123.4155	1187.806	1237.3562	1310.1467	1337.4606	1352.0745	1364.2218	1402.8712	1424.8489	1440.6807	1448.1939	1477.2272	1490.461	1506.8088	1776.8152	2870.921	3043.8319	3075.1256	3101.3564	3114.3447	3132.0791	3137.1747	3224.7743	3729.6753	3756.5701
CC(O)C1(CC1O)C=O	C[C@@H](O)[C@]1(C[C@H]1O)C=O	
InChI=1S/C6H10O3/c1-4(8)6(3-7)2-5(6)9/h3-5,8-9H,2H2,1H3	InChI=1S/C6H10O3/c1-4(8)6(3-7)2-5(6)9/h3-5,8-9H,2H2,1H3/t4-,5-,6+/m1/s1
