18
gdb 52856	1.82154	1.26088	0.83145	2.1511	86.83	-0.2315	0.039	0.2705	1434.5182	0.144705	-364.727364	-364.717147	-364.716203	-364.764569	35.919	
C	-0.0697032302	 1.5394299036	 0.2550725584	-0.501518
C	-0.0181210745	 0.0871885622	 0.1768743135	 0.089319
C	 0.0257334785	-1.1150390345	 0.1077771897	 0.038075
C	 0.0909972699	-2.5506469601	 0.0047489716	 0.13292
C	 1.350781119	-3.1246270399	-0.6491909147	-0.41811
C	 1.5543361875	-2.6685430486	-2.0191586177	 0.329595
C	 1.7216565521	-2.29154869	-3.1474414454	-0.458398
C	-0.609072906	-3.3583514627	 1.0509097858	-0.274943
N	-1.1488322971	-3.2964073025	-0.3123645148	-0.335923
H	 0.7670826834	 1.9906692736	-0.2890990612	 0.154686
H	-0.9958946149	 1.9281105361	-0.1826179859	 0.150303
H	-0.0194647108	 1.8887300065	 1.2923759605	 0.148187
H	 2.2206900834	-2.8566555933	-0.0366685013	 0.132953
H	 1.268077511	-4.2170026392	-0.6336159834	 0.137814
H	 1.866770558	-1.9613735241	-4.1458422031	 0.193934
H	-0.2004619336	-4.3240460878	 1.3379918306	 0.119485
H	-1.1119911891	-2.8174020393	 1.8466359111	 0.121833
H	-1.9308319266	-2.6477293298	-0.3498554038	 0.239787
15.6519	53.2078	90.421	122.6117	159.246	295.6899	299.1112	315.7533	338.8063	357.4237	455.7194	530.8922	552.3749	614.6492	637.7598	665.0105	798.8347	887.1461	904.9198	963.7607	985.3544	996.2591	1035.9229	1051.387	1053.94	1095.2348	1149.5026	1220.9873	1263.9074	1308.6528	1348.065	1378.8904	1414.3256	1455.6471	1476.4494	1477.9289	1505.0543	2242.5234	2366.4702	3026.6785	3029.185	3072.2446	3086.3152	3090.4691	3107.8123	3199.1195	3508.2155	3512.6283
CC#CC1(CC#C)CN1	CC#C[C@@]1(CC#C)CN1	
InChI=1S/C8H9N/c1-3-5-8(6-4-2)7-9-8/h1,9H,5,7H2,2H3	InChI=1S/C8H9N/c1-3-5-8(6-4-2)7-9-8/h1,9H,5,7H2,2H3/t8-/m0/s1
