15
gdb 28391	3.24157	1.41914	0.99	3.2985	76.36	-0.1839	-0.0242	0.1598	1120.8247	0.115384	-450.196057	-450.188108	-450.187164	-450.228097	30.942	
N	 0.1121209172	 1.4116830303	 0.1387499176	-0.592088
C	-0.0306664086	 0.0191433757	 0.0364446257	 0.349819
C	-1.1917798016	-0.6864715866	-0.012154738	-0.129487
N	-1.2277063104	-2.0570587792	-0.0098066456	-0.334203
C	-0.1057292022	-2.7161166152	 0.0111655869	 0.27296
N	-0.065225912	-4.0806630611	 0.0642143029	-0.549918
C	 1.2277729446	-2.0748551718	 0.02136353	 0.388007
O	 2.2893487389	-2.683686914	 0.0054326586	-0.409672
N	 1.1497833462	-0.6976969069	 0.0561686255	-0.384684
H	 0.639702922	 1.8152519247	-0.6299990807	 0.249894
H	-0.7884323062	 1.870616395	 0.1910655799	 0.25617
H	-2.1455191359	-0.1727718076	-0.0530052598	 0.095218
H	-0.9032934354	-4.5762870451	-0.1906453272	 0.257487
H	 0.8255910799	-4.4943933954	-0.1638342271	 0.269791
H	 2.0296972435	-0.2078564627	 0.1492346811	 0.260703
130.9409	186.7738	225.0317	304.215	328.0003	375.9747	399.1236	467.0878	489.1536	508.0262	540.1158	590.0332	628.2663	685.3571	707.5005	775.9376	802.9336	824.5327	841.1382	1030.4036	1061.6799	1150.1337	1253.25	1271.7492	1306.8862	1359.0295	1406.2769	1500.064	1574.4179	1636.1171	1645.2192	1677.7408	1764.9609	3187.4104	3496.4435	3586.6986	3599.8687	3610.5407	3718.8399
NC1=CN=C(N)C(=O)N1	Nc1cnc(N)c(=O)[nH]1	
InChI=1S/C4H6N4O/c5-2-1-7-3(6)4(9)8-2/h1H,(H2,6,7)(H3,5,8,9)	InChI=1S/C4H6N4O/c5-2-1-7-3(6)4(9)8-2/h1H,(H2,6,7)(H3,5,8,9)
