21
gdb 92015	2.79803	1.62186	1.22504	1.9008	81.54	-0.2186	0.067	0.2856	1083.3467	0.185354	-383.227611	-383.219845	-383.218901	-383.25945	31.82	
C	 0.1141649271	 1.5647866098	-0.0051527874	-0.38531
C	 0.0025132893	 0.0404395984	-0.0170345358	 0.066
C	 0.4515818677	-0.5449577065	-1.3778517745	-0.229168
C	 0.5197568457	-2.0630936611	-1.3598739175	-0.051646
N	 1.8603028824	-2.655088145	-1.2044967647	-0.335758
C	 0.9047991455	-2.7297293368	-0.0824693343	-0.036142
C	 1.1447103815	-1.8888006575	 1.1409321379	-0.010695
C	 2.1183632207	-0.761036728	 1.1177227401	-0.264987
N	 0.6826667008	-0.4910593383	 1.1711605297	-0.099789
H	 1.1570891679	 1.8762923782	-0.130839493	 0.115422
H	-0.469670279	 2.004627798	-0.8202309093	 0.107371
H	-0.2481700922	 1.9683216871	 0.9437008643	 0.122712
H	-1.0538665399	-0.2303713985	 0.1215899485	 0.075947
H	-0.2567339619	-0.2083480388	-2.1421303314	 0.097821
H	 1.4301250871	-0.1424911456	-1.6610794282	 0.112784
H	-0.186332947	-2.5882071489	-1.9981986605	 0.084287
H	 1.9060551477	-3.5538362409	-1.6773459955	 0.229878
H	 0.4601457965	-3.6995055844	 0.1255676902	 0.080067
H	 0.9826626962	-2.4140446691	 2.0799543735	 0.082116
H	 2.6722863294	-0.5033680647	 2.0166713803	 0.108185
H	 2.6609144144	-0.6134087176	 0.1886557477	 0.130903
115.7849	199.5245	232.3386	264.7629	326.4106	399.8016	415.9438	493.3152	518.1924	563.0071	682.5569	725.2809	763.7869	811.768	867.421	886.2136	902.0907	921.3443	932.352	987.6531	994.474	1039.5847	1057.6757	1090.5405	1108.0081	1122.701	1137.4876	1152.1396	1166.0906	1168.7184	1201.2049	1251.1884	1262.1598	1304.0091	1331.9529	1365.9061	1378.0194	1397.2765	1404.1277	1413.4266	1454.6247	1474.7681	1488.0775	1499.3956	1513.3302	3000.2974	3033.1534	3041.4063	3080.158	3100.9657	3109.2334	3115.5782	3120.7259	3131.1188	3142.0358	3197.982	3501.9804
CC1CC2NC2C2CN12	C[C@H]1C[C@H]2N[C@H]2[C@H]2CN12	
InChI=1S/C7H12N2/c1-4-2-5-7(8-5)6-3-9(4)6/h4-8H,2-3H2,1H3	InChI=1S/C7H12N2/c1-4-2-5-7(8-5)6-3-9(4)6/h4-8H,2-3H2,1H3/t4-,5+,6+,7+,9?/m0/s1
