18
gdb 113508	3.797	0.97928	0.87213	3.057	75.05	-0.2685	0.0033	0.2719	1371.743	0.14641	-439.062861	-439.054047	-439.053103	-439.09686	32.124	
C	-0.3734074717	 1.4795064196	 0.2233110242	-0.376794
C	 0.3154481008	 0.1588810224	-0.1419855568	-0.215867
C	 1.0311221339	-0.4524974999	 1.0362451851	-0.020842
O	 0.2129107598	-1.0970408617	 2.0332982234	-0.273322
C	 1.0813987036	-1.8976375705	 1.2719040995	 0.27658
C	 0.6940532569	-3.1055122743	 0.4188593478	-0.161433
O	 1.8450053228	-3.8225277455	 0.9706015505	-0.265223
C	 2.1850417202	-2.768536142	 1.8059272276	 0.37649
N	 3.093614776	-2.644341819	 2.6567084128	-0.549046
H	 0.3519976115	 2.2188514708	 0.5788238979	 0.12275
H	-0.8885390173	 1.9045199681	-0.6426345888	 0.119002
H	-1.1097835772	 1.3225075563	 1.0167355116	 0.137674
H	-0.4224322268	-0.5554449935	-0.5242471044	 0.104562
H	 1.0476164443	 0.323895423	-0.9428818953	 0.11025
H	 1.841210593	 0.1384543181	 1.4666548619	 0.118691
H	-0.2460150706	-3.5877412468	 0.6973050815	 0.135152
H	 0.7756955663	-3.0016490195	-0.6657742179	 0.127067
H	 3.6621637147	-3.4890019857	 2.7333695296	 0.23431
73.0759	107.8676	137.7078	161.8157	226.6077	272.5169	281.9067	392.5115	468.2774	542.884	616.206	687.2685	760.7189	784.9124	853.8151	864.7125	903.4035	939.5417	965.8055	986.0179	1017.05	1060.6672	1088.3385	1115.4582	1148.167	1155.8073	1176.9298	1238.353	1291.3468	1317.7653	1342.25	1382.5679	1411.9417	1472.9632	1498.0151	1505.4909	1507.3064	1525.0284	1833.6638	3028.2672	3040.4873	3063.7915	3068.1117	3106.4657	3112.4648	3120.3966	3125.7626	3484.274
CCC1OC11COC1=N	CC[C@H]1O[C@]21CO[C]2[NH]	
InChI=1S/C6H9NO2/c1-2-4-6(9-4)3-8-5(6)7/h4,7H,2-3H2,1H3	InChI=1S/C6H9NO2/c1-2-4-6(9-4)3-8-5(6)7/h4,7H,2-3H2,1H3/t4-,6+/m1/s1
