16
gdb 22009	4.15021	1.06362	0.85117	11.4072	87.58	-0.1339	-0.0313	0.1026	1281.8745	0.123921	-434.011591	-434.003165	-434.00222	-434.044705	31.354	
C	-0.0127936324	 1.556524399	-0.0410800807	-0.553899
C	-0.0087379099	 0.0558656549	-0.0083665516	 0.149156
N	-0.0143544312	-0.6691727634	 1.1385198898	-0.097145
O	-0.0232906024	-0.0384520496	 2.2210589804	-0.402627
C	 0.0012322606	-0.7263313826	-1.1742475643	 0.368965
C	 0.0065055586	-2.1094228987	-1.390920262	-0.21457
N	 0.0161927928	-2.3094673552	-2.7516643018	-0.203598
C	 0.0173519391	-1.152982692	-3.4097335683	 0.004147
N	 0.0083823353	-0.1841498557	-2.4672643652	-0.336693
H	 0.0069094607	 0.8044771262	-2.6551108083	 0.288169
H	 0.877041111	 1.9865766192	-0.5250396186	 0.093529
H	-0.8980780962	 1.9814796491	-0.5377188374	 0.09349
H	-0.0211520965	 1.879561751	 1.0043543504	 0.16125
H	 0.0039788437	-2.9136324181	-0.6808084048	 0.175212
H	 0.0217044871	-3.2115349299	-3.199488492	 0.295061
H	 0.0240596195	-1.0183870844	-4.4751215854	 0.179555
101.6943	131.6771	149.8282	169.5204	299.7492	311.9208	444.4182	451.508	467.9832	516.3472	544.066	608.0832	652.4072	722.3009	727.1754	767.5322	910.4686	934.2618	968.5479	1052.718	1071.5881	1095.6209	1163.7255	1188.733	1232.8094	1334.5467	1358.9938	1370.6647	1409.3051	1444.6175	1486.5937	1497.277	1504.9388	1566.4659	1651.1388	2976.6671	3012.928	3104.6696	3316.4334	3330.5801	3667.6955	3677.0396
CC(=N[O-])C1=CNC=[NH+]1	CC(=N[O])C1=CNCN1	
InChI=1S/C5H7N3O/c1-4(8-9)5-2-6-3-7-5/h2-3,9H,1H3,(H,6,7)	InChI=1S/C5H8N3O/c1-4(8-9)5-2-6-3-7-5/h2,6-7H,3H2,1H3
