19
gdb 73032	3.06562	1.30365	1.1407	1.6804	75.1	-0.2414	0.0781	0.3195	1131.1792	0.158677	-422.96117	-422.952729	-422.951785	-422.99465	32.168	
O	-0.2014181656	 1.4076121602	 0.1189317584	-0.459927
C	-0.0280716845	 0.0327473658	 0.0868185296	 0.360831
C	-0.8586318694	-0.9084326081	-0.8007939681	-0.297336
C	-0.9975909722	-1.8848602399	 0.4122351227	-0.213543
C	-0.1484301231	-0.929155182	 1.2669461839	-0.155228
C	 1.2046285258	-0.6232902337	 0.6505491063	-0.096215
C	 2.1514803298	-1.5572252001	-0.0405600048	 0.046555
C	 2.5225929301	-2.8703537534	 0.5092450084	-0.174227
O	 1.6637321639	-2.7654542158	-0.628400042	-0.226203
H	 0.3764301123	 1.8034663081	-0.5429221744	 0.283238
H	-1.8116119667	-0.4485852901	-1.071160009	 0.106652
H	-0.3755705263	-1.2967166446	-1.7006987478	 0.10622
H	-2.0269508674	-1.9363579715	 0.7743655716	 0.09871
H	-0.6120073154	-2.8928221072	 0.2686126558	 0.11816
H	-0.3298494279	-0.6993186363	 2.3105525678	 0.089758
H	 1.7488237516	 0.0935467277	 1.2663652032	 0.093745
H	 2.9013725879	-1.0553304018	-0.6575304085	 0.087665
H	 3.5091801619	-3.2863995548	 0.3110294592	 0.113425
H	 2.040406975	-3.2149405224	 1.4225223878	 0.117721
41.8347	149.424	172.7833	226.8895	270.3383	308.8075	335.4726	383.5643	500.4994	609.6832	647.2027	755.03	757.4854	797.4351	852.1209	887.2413	911.2254	929.109	960.7641	972.6604	1010.7282	1033.9051	1068.315	1096.6313	1124.0053	1140.3614	1160.8264	1172.1758	1205.0732	1221.1472	1238.0404	1243.7861	1290.4533	1303.9337	1317.2046	1339.5958	1423.2392	1468.5839	1475.1018	1506.2705	1523.0942	3064.2377	3070.3542	3076.0355	3085.9399	3111.9453	3118.87	3147.8783	3175.6554	3178.1954	3790.0982
OC12CCC1C2C1CO1	O[C@]12CC[C@H]1[C@H]2[C@H]1CO1	
InChI=1S/C7H10O2/c8-7-2-1-4(7)6(7)5-3-9-5/h4-6,8H,1-3H2	InChI=1S/C7H10O2/c8-7-2-1-4(7)6(7)5-3-9-5/h4-6,8H,1-3H2/t4-,5+,6-,7+/m0/s1
