18
gdb 46605	3.07024	1.5065	1.03909	3.5782	81.17	-0.2338	-0.0181	0.2157	1133.4435	0.150759	-401.989484	-401.982027	-401.981083	-402.021592	28.734	
N	-0.0526473007	 1.3049532385	 0.0885903701	-0.552358
C	-0.0670954571	 0.0390403082	 0.0608145162	 0.302766
O	 1.057343307	-0.764836064	 0.1539915541	-0.261839
C	 0.6862330251	-2.1530933266	 0.0743332996	-0.208088
C	-0.8012432159	-2.1195880141	-0.0615573452	 0.222264
C	-1.2160283998	-0.851819307	-0.0679229794	 0.228853
C	-2.6963543537	-0.7107118934	-0.2473345297	-0.351587
C	-3.1791895316	-2.1896602979	-0.0837361867	-0.20426
C	-1.9175428528	-3.1039527848	-0.2387040327	-0.348023
H	 0.9034486895	 1.6500012569	 0.1871642814	 0.220412
H	 1.1962859361	-2.6093107391	-0.7849662771	 0.126554
H	 1.035203793	-2.6658855624	 0.9805668274	 0.126571
H	-3.1566346924	-0.0368074326	 0.4811943631	 0.124941
H	-2.9336097435	-0.3040989111	-1.2381769076	 0.12097
H	-3.5967944389	-2.3246889974	 0.9180697647	 0.114609
H	-3.9659816593	-2.4515084468	-0.7948559288	 0.106825
H	-1.8697639249	-3.5778441913	-1.2288624548	 0.117487
H	-1.90342305	-3.9206032549	 0.4918439953	 0.113905
104.7253	142.8049	212.7507	235.4374	273.8995	456.3485	494.3736	569.999	624.8439	686.3959	730.228	769.2927	833.0515	869.68	893.7908	899.9718	962.9561	983.0545	996.191	1020.7027	1040.2649	1069.5923	1157.502	1189.519	1193.9166	1203.8956	1224.1208	1243.2987	1288.0444	1325.3662	1331.4961	1393.0179	1417.2077	1481.3891	1488.6661	1499.4623	1506.3397	1715.9933	1762.1993	3009.0394	3014.7731	3034.0869	3038.5111	3052.0739	3064.9178	3081.0648	3110.5827	3478.5592
N=C1OCC2=C1CCC2	[NH]C1=C2[C](CO1)CCC2	
InChI=1S/C7H9NO/c8-7-6-3-1-2-5(6)4-9-7/h8H,1-4H2	InChI=1S/C7H9NO/c8-7-6-3-1-2-5(6)4-9-7/h8H,1-4H2
