16
gdb 85504	2.62204	1.42816	1.08576	5.9062	65.35	-0.2703	-0.0446	0.2258	1104.5771	0.123828	-475.077656	-475.069283	-475.068339	-475.111217	30.155	
C	 0.1606521613	 1.5900578432	-0.0765151295	-0.407936
C	 0.0035829964	 0.0739206454	 0.0818866171	-0.014528
N	 0.5571239646	-0.6787176066	-1.0329766286	-0.36199
C	 1.8472086882	-1.1012438885	-0.7740445912	 0.474368
O	 2.6609872189	-1.5194962783	-1.5439960798	-0.378387
O	 2.0661291308	-0.9840092296	 0.5766762063	-0.225738
C	 0.8725867639	-0.5610947663	 1.2168226554	 0.019442
C	 1.1600633481	 0.3796190095	 2.3711113035	 0.140855
O	 2.2294601598	 0.8630507857	 2.6168681327	-0.221128
H	 1.216423112	 1.8722207145	-0.1253870952	 0.154801
H	-0.3299637374	 1.9246715115	-0.995879497	 0.124787
H	-0.3026219367	 2.1257553823	 0.7580382408	 0.130003
H	-1.0498165888	-0.1798937174	 0.2347055572	 0.102421
H	 0.350207177	-0.4217094752	-1.9858768015	 0.262496
H	 0.3486299554	-1.4395788333	 1.623398488	 0.116009
H	 0.2585694466	 0.5879525231	 2.992906022	 0.084524
76.3057	95.0086	132.5061	224.6663	251.329	271.5212	385.182	423.5449	508.8837	536.7883	656.7364	724.9262	736.5011	770.0358	803.0721	918.0057	963.2074	975.6644	996.2688	1057.4327	1122.1112	1134.8768	1162.5509	1213.9197	1291.3829	1324.4778	1375.7795	1392.5158	1411.9122	1416.5457	1428.3157	1491.7622	1496.9037	1852.3042	1905.0491	2864.2427	2995.9523	3038.7161	3057.7219	3108.4821	3123.53	3637.4729
CC1NC(=O)OC1C=O	C[C@H]1NC(=O)O[C@H]1C=O	
InChI=1S/C5H7NO3/c1-3-4(2-7)9-5(8)6-3/h2-4H,1H3,(H,6,8)	InChI=1S/C5H7NO3/c1-3-4(2-7)9-5(8)6-3/h2-4H,1H3,(H,6,8)/t3-,4+/m1/s1
