17
gdb 66006	2.6396	1.4057	1.2415	1.6736	68.42	-0.2507	-0.0326	0.2181	1067.3959	0.133752	-458.937758	-458.929096	-458.928152	-458.971268	31.974	
O	-0.0230659251	 1.6487697265	 1.0233609704	-0.475562
C	 0.0349040758	 0.3616781627	 0.4652852926	 0.269116
C	 0.6116714877	 0.1623853568	-0.9805255038	-0.295103
C	 1.469497976	-1.0411952395	-0.4737060395	-0.329992
C	 1.2366019015	-0.4880791196	 0.9280748012	 0.325579
O	 1.8764933153	-0.4240457723	 1.9412070389	-0.313445
C	-1.3077154658	-0.3129704507	 0.6961747815	 0.049183
C	-2.4250097498	-0.1751320473	-0.2418395978	-0.181795
O	-1.6717074566	-1.3918299133	-0.1625595161	-0.232698
H	 0.6814737043	 1.7028209635	 1.6826623678	 0.296875
H	-0.1086219588	-0.067849772	-1.7640337959	 0.123134
H	 1.2199988191	 1.0233823857	-1.2616431696	 0.121146
H	 0.9448929245	-1.9889701619	-0.6242996861	 0.15443
H	 2.5080353712	-1.1332176255	-0.7953226004	 0.129977
H	-1.5379523848	-0.4688036474	 1.7505409122	 0.109819
H	-3.4453832161	-0.2367207643	 0.1310310657	 0.126279
H	-2.2944592184	 0.3971829186	-1.157836291	 0.123055
75.6013	106.5882	154.9428	210.573	252.538	282.2984	315.0149	399.6441	434.9098	522.787	592.7864	654.9023	748.9686	763.8882	855.293	873.8939	907.229	941.066	948.2263	1016.2526	1074.0112	1091.2407	1095.2369	1149.1743	1169.6854	1180.5652	1187.0611	1199.2437	1237.7608	1266.1816	1301.9256	1353.126	1426.3378	1438.4111	1471.9835	1525.3243	1871.7601	3071.3351	3092.0298	3095.9961	3110.9727	3136.4278	3161.2136	3185.8406	3760.2224
OC1(CCC1=O)C1CO1	O[C@]1(CCC1=O)[C@H]1CO1	
InChI=1S/C6H8O3/c7-4-1-2-6(4,8)5-3-9-5/h5,8H,1-3H2	InChI=1S/C6H8O3/c7-4-1-2-6(4,8)5-3-9-5/h5,8H,1-3H2/t5-,6+/m1/s1
