18
gdb 96207	2.73739	1.45796	0.99193	5.5904	81.17	-0.2303	-0.0323	0.198	1179.1999	0.14938	-398.153276	-398.144564	-398.143619	-398.187014	31.435	
C	-0.0552803707	 1.4241100293	-0.1571271964	-0.357137
N	 0.016867586	 0.0212611555	 0.2047717964	-0.122662
C	-1.2504885722	-0.6922040727	 0.3084515761	-0.155254
C	-1.0533667412	-2.0243561052	 1.0303246736	-0.236174
C	 0.1070585239	-2.790289767	 0.3890444575	-0.156951
N	 1.3167458985	-1.9901944466	 0.248272829	-0.312386
C	 1.1767465089	-0.719811019	 0.1596327893	 0.294728
C	 2.409587291	 0.0410114069	 0.0261330211	 0.270864
N	 3.3913709044	 0.6411564838	-0.0838797493	-0.342301
H	 0.9378185794	 1.8731367984	-0.1444816088	 0.172409
H	-0.4854585321	 1.5614246263	-1.1597497653	 0.127539
H	-0.6865250622	 1.9614009383	 0.5599100259	 0.131597
H	-1.9545085088	-0.0537773047	 0.8548218318	 0.114456
H	-1.6778504013	-0.8548028614	-0.6937728738	 0.111547
H	-0.8249057214	-1.8332745664	 2.0846605978	 0.120132
H	-1.9791023617	-2.6062735393	 0.9950676863	 0.108514
H	 0.3566206593	-3.6775444683	 0.9802315611	 0.116585
H	-0.1831816999	-3.1598683279	-0.6055824022	 0.114492
76.3657	99.9733	156.8939	172.9524	196.6046	286.4225	360.6204	425.5296	452.3635	477.4965	588.4978	601.1372	708.9553	720.3982	872.0813	886.0438	905.6339	961.7517	1068.9103	1094.5819	1119.1808	1155.5285	1177.7763	1210.1468	1233.3213	1255.6738	1308.6094	1344.2059	1370.0358	1388.8695	1432.2852	1472.4818	1483.1183	1484.1437	1487.4161	1508.3229	1535.5619	1684.8158	2356.4917	2978.0624	2999.7102	3001.9331	3041.4577	3053.668	3061.3476	3066.1093	3095.6968	3151.1039
CN1CCCN=C1C#N	CN1CCCN=C1C#N	
InChI=1S/C6H9N3/c1-9-4-2-3-8-6(9)5-7/h2-4H2,1H3	InChI=1S/C6H9N3/c1-9-4-2-3-8-6(9)5-7/h2-4H2,1H3
