19
gdb 83010	2.67678	1.74003	1.60522	1.6518	73.05	-0.2367	0.0731	0.3097	942.6233	0.161221	-422.990162	-422.982916	-422.981972	-423.021721	29.598	
O	-0.0706830401	 1.4485217209	 0.3055580957	-0.42786
C	-0.0245765317	 0.0761215888	 0.0784065094	 0.092984
C	-0.3984533762	-0.8553897757	 1.1933858728	 0.008989
O	-1.0650445205	-0.1959564072	 2.2482307816	-0.292024
C	-2.4665541507	-0.0731629537	 1.9512113131	 0.114694
C	-2.9824040231	 1.3782940728	 1.7745103283	-0.244575
C	-3.1152633008	 1.1466852691	 0.2385706564	-0.239216
C	-2.6383136533	-0.332324311	 0.428019982	-0.040096
C	-1.2716921928	-0.7996705579	-0.04459703	-0.138237
H	-0.2039482029	 1.5536658071	 1.257986723	 0.294786
H	 0.8015988781	-0.2093109727	-0.5684694968	 0.10011
H	 0.2008338085	-1.7047905534	 1.5052388251	 0.096222
H	-3.0298932218	-0.6999252485	 2.6511667124	 0.078069
H	-3.9300322001	 1.562434439	 2.2864890244	 0.102565
H	-2.2730588913	 2.1476866789	 2.0859953738	 0.103664
H	-4.1357889384	 1.2327808931	-0.1406091297	 0.09469
H	-2.4537675352	 1.7572998697	-0.3727060409	 0.130879
H	-3.3953997787	-1.0747845711	 0.1671025684	 0.073773
H	-1.2260807389	-1.595535678	-0.7795488291	 0.090585
92.5777	188.997	229.9295	309.9948	381.1245	436.4609	567.4011	624.3541	655.9338	712.0603	720.8049	739.4008	768.5464	802.5193	844.1968	892.3433	910.2745	961.3751	973.7644	1005.1644	1029.4603	1065.0117	1082.6758	1094.8347	1103.738	1121.1808	1142.7088	1200.1612	1220.4025	1227.1779	1258.4217	1273.5103	1280.4212	1314.1687	1319.3949	1341.5848	1353.9411	1376.8269	1435.4107	1469.6765	1490.3025	3038.8361	3068.7093	3075.0931	3086.6382	3118.8558	3134.636	3155.7897	3158.2822	3172.2221	3740.3678
OC1C2OC3CCC3C12	O[C@H]1[C@H]2O[C@H]3CC[C@H]3[C@@H]12	
InChI=1S/C7H10O2/c8-6-5-3-1-2-4(3)9-7(5)6/h3-8H,1-2H2	InChI=1S/C7H10O2/c8-6-5-3-1-2-4(3)9-7(5)6/h3-8H,1-2H2/t3-,4+,5+,6-,7+/m1/s1
