21
gdb 112869	3.24446	1.05434	0.84048	3.8604	78.8	-0.247	-0.0278	0.2193	1401.2333	0.182566	-424.268167	-424.259024	-424.258079	-424.302154	34.73	
C	-0.1730417414	 1.5302800349	 0.0647559434	-0.405676
C	 0.0432886373	 0.0207914769	-0.0050337692	 0.026621
C	 0.9867162547	-0.4369770915	-1.143063102	-0.247772
C	 1.3803844588	-1.874041093	-0.7695911028	-0.114348
C	 2.7000520173	-2.413270988	-1.3396323083	-0.072718
O	 2.9227614058	-3.7575244776	-0.9803986917	-0.426609
C	 1.3832092149	-1.8615816442	 0.7622222392	 0.406455
O	 1.8941729978	-2.7069465889	 1.4630568452	-0.341998
C	 0.6845122908	-0.5964231831	 1.2520349061	-0.323975
H	 0.7761178832	 2.0543771318	 0.2271125657	 0.115854
H	-0.6086863442	 1.91000827	-0.8654304668	 0.117802
H	-0.8477909873	 1.8007113091	 0.8834970413	 0.11843
H	-0.9290916869	-0.4655123336	-0.1634037243	 0.082172
H	 0.5209112597	-0.3618228255	-2.1292381083	 0.107039
H	 1.8808272655	 0.2024066231	-1.1561694099	 0.101037
H	 0.5818442978	-2.5697526472	-1.0680647147	 0.112805
H	 2.6759725787	-2.3719271768	-2.4343052911	 0.105491
H	 3.5254901462	-1.7580456727	-1.009797869	 0.081878
H	 2.8277915134	-3.7950525765	-0.0174745394	 0.295051
H	 1.4634349839	 0.0669748377	 1.6556136138	 0.13186
H	-0.0033322561	-0.8105639349	 2.0740850329	 0.1306
72.6358	102.3678	164.2598	207.2516	239.5749	279.9589	314.7991	373.176	418.3792	483.5432	509.3468	569.9594	603.3052	630.3893	727.5759	841.6899	866.4704	906.9186	945.3367	981.7629	992.0086	1039.0722	1073.7914	1090.0408	1107.6061	1162.6057	1165.8489	1169.3539	1208.7873	1241.3193	1257.8822	1273.7112	1318.2666	1340.3048	1348.2834	1378.8984	1388.5233	1416.4368	1444.88	1464.0856	1493.5612	1497.2528	1500.2419	1513.4756	1812.1194	2949.0743	3004.4126	3006.4774	3016.5504	3023.2111	3028.5486	3059.9768	3090.5333	3095.065	3100.6356	3101.4315	3724.3586
CC1CC(CO)C(=O)C1	C[C@H]1C[C@@H](CO)C(=O)C1	
InChI=1S/C7H12O2/c1-5-2-6(4-8)7(9)3-5/h5-6,8H,2-4H2,1H3	InChI=1S/C7H12O2/c1-5-2-6(4-8)7(9)3-5/h5-6,8H,2-4H2,1H3/t5-,6-/m0/s1
