21
gdb 92164	2.18041	1.9712	1.44035	1.1021	80.48	-0.2425	0.0715	0.314	1016.952	0.183766	-387.070477	-387.06246	-387.061516	-387.102338	32.887	
C	-0.2955612006	 1.5425284634	 0.026500099	-0.412574
C	 0.0009864583	 0.0405048195	-0.0479459162	-0.036866
C	 0.7539931607	-0.4294284907	-1.329638519	-0.232486
C	 2.131546264	-0.9040990933	-0.8330067676	-0.047491
C	 2.9323019805	 0.2779103848	-0.1925884966	-0.243591
C	 2.3644188967	-0.1299693922	 1.1636933068	-0.129761
C	 1.8927747732	-1.4703424236	 0.5966535503	-0.134357
C	 0.8811435005	-0.4894104974	 1.0883776564	 0.425737
O	 0.2706405679	-0.7751212903	 2.3123932056	-0.490143
H	 0.617852664	 2.1411420297	-0.0450307246	 0.120077
H	-0.9648385821	 1.8543328376	-0.7820752119	 0.113669
H	-0.7882370128	 1.7985097486	 0.9721703718	 0.101776
H	-0.9532535784	-0.4933997277	 0.0321436631	 0.076417
H	 0.2165445671	-1.2586764266	-1.801591664	 0.095921
H	 0.8449561405	 0.3665498742	-2.0767950379	 0.091959
H	 2.6802385787	-1.5177710795	-1.5473027253	 0.066535
H	 4.0103189773	 0.0964055276	-0.2333678836	 0.099752
H	 2.7320308396	 1.286194972	-0.5736452697	 0.085482
H	 2.8069813941	 0.0557579999	 2.1364835316	 0.077408
H	 2.0200196672	-2.4769145342	 0.9712451724	 0.090211
H	 0.1549885536	 0.0542167482	 2.7882564293	 0.282324
133.0515	209.9647	230.2446	262.3155	313.8221	341.0417	371.2907	404.9884	521.9842	577.4546	632.8784	650.0234	769.9129	830.2589	840.8986	852.5702	887.3028	899.0709	942.8287	958.8164	984.2471	998.8103	1017.3193	1054.5096	1058.5202	1105.3001	1117.9422	1135.2528	1152.316	1202.6434	1220.2544	1233.7987	1245.347	1269.7475	1287.3626	1316.6986	1326.797	1343.7256	1379.1804	1407.5059	1431.6282	1487.5191	1494.1939	1497.9763	1505.5382	3025.0075	3027.0758	3028.8016	3040.4019	3077.8033	3082.1562	3087.6944	3106.706	3110.5085	3165.3729	3207.9493	3799.4847
CC1CC2CC3C2C13O	C[C@H]1C[C@H]2C[C@@H]3[C@H]2[C@]13O	
InChI=1S/C8H12O/c1-4-2-5-3-6-7(5)8(4,6)9/h4-7,9H,2-3H2,1H3	InChI=1S/C8H12O/c1-4-2-5-3-6-7(5)8(4,6)9/h4-7,9H,2-3H2,1H3/t4-,5-,6+,7-,8-/m0/s1
