18
gdb 37565	3.835	1.63897	1.41704	1.6067	75.68	-0.2386	0.0654	0.304	938.6088	0.149796	-401.817861	-401.811321	-401.810376	-401.848676	26.81	
C	-0.0835809054	 1.5579719534	-0.0563573313	-0.19327
C	 1.4151500887	 1.2980412564	 0.0049075671	-0.117849
C	 1.1733575334	 0.1222348338	 0.9832966788	-0.043708
C	 1.9237884936	-0.9199513285	 0.1366021611	-0.070951
C	 3.3127828838	-0.8492860091	-0.4712228376	-0.109737
O	 3.065750797	-0.782925746	-1.9069147813	-0.288381
C	 1.7254681439	-0.3347222083	-2.2104948092	-0.217605
C	 1.2040355878	-0.0069346856	-0.8388005638	 0.374832
N	-0.0842600126	 0.0323379188	 0.022554344	-0.226322
H	-0.5563266383	 2.0328591837	 0.8093427506	 0.102228
H	-0.5109772373	 1.9452562398	-0.986629905	 0.104481
H	 2.2602572653	 1.9922083142	-0.0165407129	 0.076422
H	 1.00431447	 0.1684890735	 2.0608172854	 0.087027
H	 1.5152041419	-1.9327982194	 0.1947073435	 0.092581
H	 3.8733757162	 0.039351086	-0.1517436545	 0.098741
H	 3.931263424	-1.7329651171	-0.2968489095	 0.110714
H	 1.7826301301	 0.5196099927	-2.8937518999	 0.107384
H	 1.1611709678	-1.1436081684	-2.6922527754	 0.113415
117.7088	237.9313	280.1322	306.0728	506.5403	521.7033	652.1244	682.9702	698.084	782.134	842.0676	864.9978	876.2599	884.4463	913.2049	931.3313	969.2629	1008.9154	1037.2978	1045.2435	1081.3962	1094.676	1095.447	1123.7809	1147.9655	1152.5838	1171.3767	1201.5321	1218.7818	1235.346	1267.1606	1286.349	1300.2417	1345.6359	1363.7897	1391.1672	1512.1267	1519.6609	1520.129	3011.057	3017.8845	3039.399	3062.3452	3065.3076	3073.4343	3096.065	3099.5109	3100.1526
C1C2C3C4COCC24N13	C1[C@H]2[C@@H]3[C@@H]4COC[C@]24N13	
InChI=1S/C7H9NO/c1-4-6-5-2-9-3-7(4,5)8(1)6/h4-6H,1-3H2	InChI=1S/C7H9NO/c1-4-6-5-2-9-3-7(4,5)8(1)6/h4-6H,1-3H2/t4-,5-,6+,7-/m0/s1
