22
gdb 121746	5.4262	0.57815	0.55633	2.3562	81.48	-0.2467	0.0659	0.3125	2114.7258	0.192435	-441.542561	-441.531277	-441.530332	-441.581423	38.461	
C	-0.3115501099	 1.3072030008	 0.038980485	-0.38285
C	 0.2677148414	-0.1083776134	-0.030735486	-0.189456
C	 0.6735001653	-0.6228435207	 1.3411876072	-0.034316
O	 1.2057547555	-1.9453440984	 1.1725529026	-0.282147
C	 1.617967537	-2.5516755233	 2.3161715091	 0.51588
O	 1.5490955429	-2.0545093474	 3.4195028249	-0.417003
N	 2.1290866485	-3.7803823385	 2.0275806801	-0.360703
C	 2.5191030565	-4.7159447324	 3.0673040435	-0.14227
C	 1.4446145553	-5.7600637789	 3.3830458937	-0.37057
H	 0.416041379	 2.0158613607	 0.4491709458	 0.120313
H	-0.5976731656	 1.6624037323	-0.9549660424	 0.118102
H	-1.2029975402	 1.3429332509	 0.6745829043	 0.120036
H	-0.4659449597	-0.7969262098	-0.4659574958	 0.105219
H	 1.1435252763	-0.1270204886	-0.6897529594	 0.106227
H	 1.4329665909	 0.0179040551	 1.8027790373	 0.116312
H	-0.1802018719	-0.6599066182	 2.0269477935	 0.115707
H	 2.0333892455	-4.101969002	 1.0781875298	 0.247556
H	 3.4500495845	-5.2090835019	 2.7640310054	 0.104815
H	 2.736307288	-4.1160666373	 3.9536950249	 0.146806
H	 0.5293948491	-5.2747859796	 3.7340796205	 0.1341
H	 1.1978951692	-6.3572614564	 2.4983905871	 0.11044
H	 1.7930283323	-6.4442119233	 4.1635763689	 0.117804
24.1244	38.8425	67.2761	85.6493	113.6142	171.1186	218.9204	230.66	285.3915	320.6638	350.5964	418.1721	465.831	548.0809	702.6111	760.6135	781.5532	802.9785	892.581	897.2375	922.7347	968.3238	1035.6734	1058.8596	1098.4345	1145.9196	1170.0632	1183.6988	1191.4662	1247.7876	1269.4558	1311.654	1326.4762	1337.2034	1394.6385	1410.003	1412.5981	1420.769	1479.5504	1492.3634	1493.1092	1499.9657	1502.2494	1506.418	1521.2058	1551.0371	1810.9526	3033.4847	3033.8754	3034.2642	3038.3786	3042.8225	3061.9714	3085.2048	3097.1613	3104.4209	3110.8293	3115.2201	3126.2676	3645.9877
CCCOC(=O)NCC	CCCOC(=O)NCC	
InChI=1S/C6H13NO2/c1-3-5-9-6(8)7-4-2/h3-5H2,1-2H3,(H,7,8)	InChI=1S/C6H13NO2/c1-3-5-9-6(8)7-4-2/h3-5H2,1-2H3,(H,7,8)
