19
gdb 96216	2.69044	1.38382	0.99524	3.39	80.84	-0.2481	-0.0557	0.1924	1202.3946	0.15926	-423.054334	-423.045814	-423.04487	-423.087479	32.159	
C	 0.1180099301	 1.592044478	-0.1774297326	-0.408852
C	 0.0475098925	 0.0753283179	-0.0108581368	 0.043354
O	 0.4870299507	-0.4808300434	-1.2466614248	-0.260227
C	 0.7714152789	-1.8633254202	-1.1961697527	-0.082915
C	 1.9770754653	-2.1281706146	-0.2892544115	-0.264904
C	 1.771886612	-1.417284548	 1.0126416274	-0.142726
C	 0.8692171503	-0.4349446258	 1.1583589152	 0.195487
C	 0.6298877495	 0.0849719664	 2.5161847977	 0.09564
O	-0.2336767664	 0.8751127001	 2.8273946529	-0.279117
H	 1.1561475553	 1.9104120345	-0.3105471816	 0.116293
H	-0.4477611989	 1.8803674807	-1.0670732947	 0.122692
H	-0.3024119811	 2.0869325386	 0.6982813187	 0.150632
H	-1.0046238322	-0.2107798232	 0.1643654858	 0.088489
H	-0.0999359261	-2.4294231983	-0.8279675935	 0.094235
H	 0.9675832212	-2.1769171221	-2.2250343791	 0.111343
H	 2.1101981155	-3.2039285762	-0.1200987965	 0.113784
H	 2.8987638995	-1.7746543922	-0.7717132577	 0.131169
H	 2.3504214208	-1.7385216535	 1.8775412637	 0.104187
H	 1.3195394533	-0.3380300287	 3.28235312	 0.071435
79.8863	133.2283	211.6538	242.4356	253.8386	299.2354	333.0134	377.6266	424.6486	490.1428	562.0642	614.1038	711.6553	755.7487	860.3385	874.895	906.792	939.487	1028.1317	1042.9621	1054.7743	1078.0959	1099.8645	1137.2154	1146.8467	1196.4292	1232.8095	1295.8328	1328.1079	1343.9172	1361.0617	1386.3606	1400.3032	1407.9085	1436.1729	1458.1608	1493.8665	1498.0296	1502.4402	1695.1311	1785.8709	2865.6649	2947.7458	2973.9818	3017.393	3052.1572	3055.6202	3090.7887	3122.642	3139.584	3160.3944
CC1OCCC=C1C=O	C[C@H]1OCCC=C1C=O	
InChI=1S/C7H10O2/c1-6-7(5-8)3-2-4-9-6/h3,5-6H,2,4H2,1H3	InChI=1S/C7H10O2/c1-6-7(5-8)3-2-4-9-6/h3,5-6H,2,4H2,1H3/t6-/m1/s1
