18
gdb 13347	5.62131	1.08126	0.95699	3.6656	68.71	-0.244	-0.0184	0.2256	1202.8698	0.153601	-384.958029	-384.949646	-384.948702	-384.993854	28.707	
O	-0.7238744752	 0.8855437003	 0.8214268584	-0.242802
C	 0.0552540704	 1.0300915971	-0.0862773585	 0.153136
C	 1.2959992552	 1.8972017003	-0.0161150929	-0.299334
C	 1.4004915942	 2.8677112792	-1.1910952034	 0.128238
C	 2.6425811163	 3.7742697817	-1.1914384145	-0.225736
C	 2.8805170465	 4.0431611351	-2.6976592948	-0.237385
C	 1.9626375146	 3.0103759028	-3.4023743284	-0.072694
O	 1.5119094405	 2.1150349542	-2.3931474058	-0.259645
H	-0.0919429488	 0.5201632426	-1.0621957764	 0.097197
H	 1.2960018024	 2.4333771075	 0.9369300985	 0.120142
H	 2.1731788886	 1.2359846163	-0.0491160952	 0.124702
H	 0.4915743428	 3.4950466908	-1.231391869	 0.07193
H	 2.4923545579	 4.6872359376	-0.6104881404	 0.107474
H	 3.4883842865	 3.2341192207	-0.7545947117	 0.10665
H	 2.6078976286	 5.0637116331	-2.9774188519	 0.109142
H	 3.9296789835	 3.9012618998	-2.9655561724	 0.113017
H	 1.1043845989	 3.511971614	-3.8747467533	 0.094598
H	 2.4724241672	 2.417854197	-4.1662610681	 0.111372
11.2104	49.2406	80.3429	146.295	201.1495	355.0921	416.3734	498.3464	614.3423	692.458	794.3026	819.6003	859.1794	913.1685	918.9049	960.4533	999.4238	1023.4136	1067.4032	1115.3759	1119.8308	1142.4551	1198.1241	1227.6985	1246.9873	1265.02	1282.0284	1308.4647	1317.8687	1360.3061	1394.6762	1401.5635	1424.2558	1447.0768	1487.7311	1505.1143	1524.5794	1830.6202	2911.6919	2936.6207	2987.58	3023.5594	3053.8236	3070.7343	3088.3292	3103.0717	3106.7044	3120.6
O=CCC1CCCO1	O=CC[C@H]1CCCO1	
InChI=1S/C6H10O2/c7-4-3-6-2-1-5-8-6/h4,6H,1-3,5H2	InChI=1S/C6H10O2/c7-4-3-6-2-1-5-8-6/h4,6H,1-3,5H2/t6-/m1/s1
