19
gdb 38996	2.99113	2.07305	1.47998	0.5557	86.41	-0.202	-0.0069	0.1951	917.3353	0.163033	-348.747115	-348.740799	-348.739855	-348.777304	27.491	
C	-0.0151660563	 1.5523574842	-0.2380392108	-0.258599
C	 1.5294257477	 1.598907621	 0.0681792006	-0.012905
C	 2.0334953806	 2.4121855432	 1.2856885568	-0.262907
C	 1.5079418563	 1.5976967963	 2.4612139365	-0.175035
C	 1.069422874	 0.4001723789	 2.0478469631	 0.216513
C	-0.1206909232	-0.4008625953	 2.3706260846	-0.167122
C	-0.8050837311	-0.5757697391	 1.2218801303	-0.083754
C	-0.0405000169	-0.0238159537	 0.0330963237	-0.057563
C	 1.385576977	 0.1549851564	 0.5799252653	-0.077541
H	-0.6320417282	 2.127228897	 0.4554504245	 0.107006
H	-0.2849513555	 1.8295172563	-1.2590168334	 0.099936
H	 2.1289534854	 1.7446282419	-0.8333550978	 0.058703
H	 3.1282944183	 2.5207766919	 1.2660298231	 0.099574
H	 1.6260425469	 3.4318032503	 1.3113722292	 0.101105
H	 1.3120500097	 2.0372452499	 3.4330685067	 0.086327
H	-0.4722665481	-0.6462123368	 3.365161988	 0.101573
H	-1.7972988252	-1.0088809906	 1.1528970742	 0.095413
H	-0.1657618422	-0.6000983605	-0.8855964834	 0.065346
H	 2.1456243206	-0.6133572814	 0.404131659	 0.06393
217.0579	274.008	320.5116	369.7151	493.5377	599.9537	643.0006	682.0125	739.1564	741.4687	784.3112	802.6357	820.6092	840.0781	884.7861	910.8557	928.5939	949.5562	957.4238	967.4878	989.2617	1026.9689	1050.474	1100.7322	1112.8644	1144.7873	1181.9293	1196.9762	1219.5764	1237.4669	1252.792	1266.388	1295.415	1299.2774	1315.4389	1339.5307	1361.6971	1467.9409	1477.6165	1593.628	1673.5148	2993.4215	3033.8638	3047.6221	3069.7043	3081.0699	3087.6254	3129.9483	3184.7575	3188.7092	3215.3484
C1C2CC=C3C=CC1C23	C1[C@H]2C[CH][C]3C=C[C@@H]1[C@@H]23	
InChI=1S/C9H10/c1-3-7-5-8-4-2-6(1)9(7)8/h1-3,7-9H,4-5H2	InChI=1S/C9H10/c1-3-7-5-8-4-2-6(1)9(7)8/h1-3,7-9H,4-5H2/t7-,8+,9-/m0/s1
