14
gdb 29224	3.22332	1.44753	1.0035	7.4553	68.89	-0.2304	-0.0417	0.1887	1090.2564	0.102621	-470.067812	-470.059993	-470.059049	-470.100091	29.676	
N	 0.0661879376	 1.4592924201	 0.0774620635	-0.612246
C	 0.0033348354	 0.0402789011	 0.0104094877	 0.086549
C	-1.1165428887	-0.7063066921	 0.0786350958	 0.051643
O	-1.1082025185	-2.0393273837	 0.08760939	-0.221276
C	 0.1344375431	-2.7597067892	-0.0571157179	 0.425445
O	 0.0292463855	-3.9489641167	-0.1237340467	-0.346586
N	 1.2807429536	-2.0271713047	-0.0813464337	-0.418307
C	 1.2377973112	-0.7176416003	-0.0376631506	 0.403931
N	 2.3953761196	-0.0206200204	-0.0577998275	-0.548307
H	 0.2481421594	 1.8743437583	-0.8325822506	 0.253919
H	-0.7946135605	 1.8585013163	 0.4340850789	 0.249225
H	-2.1169744762	-0.2884341778	 0.1539724061	 0.130433
H	 3.2483250853	-0.5446696487	 0.0580563174	 0.272989
H	 2.3642571533	 0.9413509579	 0.2419567176	 0.272588
88.1955	183.7965	205.4532	303.0154	327.9812	383.1629	394.4024	474.3742	496.9234	555.9275	600.1534	617.5465	694.757	761.1226	774.025	785.9312	808.8882	860.1502	923.4918	1038.1351	1168.1279	1193.2906	1273.6865	1302.0109	1359.7123	1491.5122	1571.65	1622.9393	1646.2392	1722.628	1878.2305	3172.533	3487.2949	3580.9885	3583.8987	3713.4363
NC1=COC(=O)N=C1N	Nc1coc(=O)nc1N	
InChI=1S/C4H5N3O2/c5-2-1-9-4(8)7-3(2)6/h1H,5H2,(H2,6,7,8)	InChI=1S/C4H5N3O2/c5-2-1-9-4(8)7-3(2)6/h1H,5H2,(H2,6,7,8)
