21
gdb 116249	2.35077	1.24488	0.98441	4.6522	82.71	-0.2312	0.0278	0.259	1303.7156	0.183904	-383.284572	-383.275235	-383.274291	-383.319896	34.096	
C	 0.1618108112	 1.4755130842	-0.0115367681	-0.384774
C	-0.0790901426	 0.0525124605	 0.4895978112	-0.130378
N	-1.3349252282	-0.5062244799	-0.025892559	-0.057498
C	-2.5454925686	-0.011114836	 0.6465110129	-0.186893
C	-2.7568113402	-0.9188746707	 1.879683164	-0.207225
C	-2.1944332501	-2.2881567505	 1.4308108167	-0.233779
C	-1.4290658037	-1.9668213053	 0.0948912665	-0.139773
C	-2.1475174619	-2.5197599495	-1.0674676333	 0.300968
N	-2.7187717008	-2.9682008872	-1.9665874017	-0.335244
H	 1.1353176174	 1.8372283637	 0.3341872683	 0.115516
H	 0.143535481	 1.5009617466	-1.1043970841	 0.132582
H	-0.5964495473	 2.1736427464	 0.355690328	 0.120732
H	 0.7332546832	-0.5868708432	 0.1283426349	 0.107249
H	-0.0264541099	 0.033377113	 1.5939190625	 0.08324
H	-2.4455960331	 1.0467932087	 0.8947911476	 0.10981
H	-3.3921885924	-0.1076411429	-0.0434239613	 0.122753
H	-2.1959914727	-0.5358197278	 2.7372449674	 0.108994
H	-3.806436192	-0.9743483807	 2.1774683491	 0.110463
H	-1.5055312721	-2.7092862619	 2.1657486505	 0.114295
H	-2.9818993533	-3.0244164372	 1.2604093245	 0.130251
H	-0.4274930242	-2.4050078303	 0.0911114532	 0.118711
29.1733	69.5926	146.6614	163.0265	195.3242	243.8753	296.9164	374.1224	408.4175	492.5984	580.8239	615.4836	709.3608	790.6169	804.8479	823.366	869.0934	909.772	916.3833	950.4217	994.8241	1028.6559	1058.9619	1079.9316	1119.3427	1121.3471	1192.8673	1211.9733	1233.9375	1246.6734	1292.9087	1312.1486	1326.2401	1336.9005	1358.6408	1367.8935	1403.1294	1421.0441	1484.8672	1489.4757	1494.5454	1501.1862	1508.4103	1517.5616	2354.7925	2931.3967	3037.4433	3042.8347	3059.5957	3060.3943	3074.6414	3082.264	3103.505	3109.2972	3120.462	3124.7399	3129.598
CCN1CCCC1C#N	CCN1CCC[C@H]1C#N	
InChI=1S/C7H12N2/c1-2-9-5-3-4-7(9)6-8/h7H,2-5H2,1H3	InChI=1S/C7H12N2/c1-2-9-5-3-4-7(9)6-8/h7H,2-5H2,1H3/t7-/m0/s1
