17
gdb 124405	3.35982	1.23055	1.00169	2.0357	80.07	-0.2391	0.0218	0.2609	1191.4522	0.136243	-380.855741	-380.847286	-380.846342	-380.889468	31.383	
C	-0.0806827764	 1.504849016	 0.0772436565	-0.383259
C	 0.0908011532	-0.0242038777	 0.0042028589	-0.118675
C	 0.7420832082	-0.4393314127	-1.2361429885	 0.310455
C	 1.2622454485	-0.7407267784	-2.2759388906	-0.441925
N	 0.8126663491	-0.5275631182	 1.1753759194	 0.045379
C	 2.1309617041	-0.8162812053	 1.313721797	-0.016026
C	 2.3259500559	-1.1485117218	 2.6385560398	-0.246777
C	 1.0505266579	-1.0209723476	 3.2239037665	-0.004011
N	 0.1347537392	-0.6407224897	 2.3359585403	-0.261345
H	 0.8919707951	 2.0007493454	 0.0281282131	 0.132565
H	-0.6947755611	 1.8530902655	-0.7570086979	 0.130787
H	-0.5691030926	 1.7634499888	 1.0189680016	 0.147336
H	-0.9001815462	-0.4878959479	 0.0588096763	 0.14077
H	 1.7160471295	-1.0228447034	-3.1941131622	 0.206425
H	 2.8018340827	-0.7774208492	 0.4715633548	 0.142007
H	 3.2502069109	-1.4484086519	 3.1048067341	 0.104364
H	 0.7579625719	-1.1964443319	 4.2489473809	 0.111928
40.4285	116.0993	153.0638	200.5027	241.9096	337.6684	375.947	475.3647	539.7842	631.3238	633.8039	678.1672	678.6175	717.2802	769.2002	839.4256	871.9717	890.5708	934.6517	973.2537	1020.7169	1068.8706	1089.6039	1102.7009	1131.87	1215.9276	1256.1294	1334.052	1338.0322	1374.135	1399.6248	1428.9852	1481.69	1488.5762	1495.3966	1553.0996	2244.1195	3052.0546	3056.1137	3133.8305	3144.2625	3242.6742	3266.1238	3284.2231	3501.9767
CC(C#C)N1C=CC=N1	C[C@@H](C#C)n1cccn1	
InChI=1S/C7H8N2/c1-3-7(2)9-6-4-5-8-9/h1,4-7H,2H3	InChI=1S/C7H8N2/c1-3-7(2)9-6-4-5-8-9/h1,4-7H,2H3/t7-/m0/s1
