19
gdb 38869	2.74568	1.93703	1.84365	0.7085	72.58	-0.2396	0.0799	0.3195	867.8829	0.163749	-423.02579	-423.019547	-423.018603	-423.056059	26.745	
C	-0.0151242987	 1.5680169884	 0.0113253743	-0.108071
O	 1.3058716861	 2.1151339157	-0.0006554526	-0.278424
C	 2.3264206782	 1.1115230915	-0.0192041182	 0.094522
C	 2.1831712693	 0.2346137555	 1.2428052949	-0.225448
C	 0.9602359592	-0.6579479097	 1.000438618	 0.082112
O	 1.308894143	-1.629846966	-0.0240162994	-0.303617
C	 0.9360057287	-0.6454322003	-1.0277639419	 0.082138
C	 2.1528787534	 0.2503305904	-1.2882154399	-0.225496
C	 0.007452169	 0.0489980511	 0.0018811033	-0.052994
H	-0.5417710912	 1.9370174265	 0.9034703461	 0.100601
H	-0.5622758772	 1.9475138059	-0.8639390452	 0.100577
H	 3.2675538197	 1.665631237	-0.0270560079	 0.077704
H	 3.0611086356	-0.3981375513	 1.4078672452	 0.107735
H	 2.0521316713	 0.8854010904	 2.1135847026	 0.103238
H	 0.5535244454	-1.1289712541	 1.899163633	 0.075554
H	 0.5079102572	-1.1053720572	-1.9222900247	 0.075552
H	 2.0010851548	 0.9118203041	-2.1474904764	 0.103242
H	 3.0265716228	-0.380116034	-1.4820825546	 0.107745
H	-0.9966905367	-0.3772310538	 0.0112641231	 0.083328
178.6835	314.8011	348.0846	418.0069	438.5878	515.7595	575.2749	650.7649	729.1958	817.0512	838.0726	849.6443	861.7453	882.9293	904.6004	911.8609	968.1949	975.2593	1045.7154	1057.3084	1062.2331	1065.8607	1080.3955	1127.6509	1152.7616	1167.3737	1219.6762	1235.3974	1263.2997	1292.1515	1302.0932	1322.9769	1334.7467	1352.5644	1369.3195	1370.9334	1381.2122	1418.5412	1459.8954	1470.7705	1523.421	2988.6279	3012.4372	3043.5887	3044.5793	3073.8944	3074.7083	3086.2253	3095.1119	3097.2459	3106.0508
C1OC2CC3OC(C2)C13	C1O[C@H]2C[C@@H]3O[C@H](C2)[C@H]13	
InChI=1S/C7H10O2/c1-4-2-7-5(3-8-4)6(1)9-7/h4-7H,1-3H2	InChI=1S/C7H10O2/c1-4-2-7-5(3-8-4)6(1)9-7/h4-7H,1-3H2/t4-,5+,6-,7+
