18
gdb 76099	2.30577	1.39382	1.07867	5.5363	78.06	-0.2356	0.0337	0.2692	1176.1782	0.147891	-398.082446	-398.073474	-398.07253	-398.116634	32.762	
N	 0.1544171453	 1.4474556732	-0.0493717791	-0.509561
C	 0.0476971498	 0.0202073099	 0.0296368716	-0.011536
C	-0.4503658503	-0.6251875856	 1.3178034867	-0.244179
C	-0.9230053637	 0.1923512564	 2.397097942	 0.310377
N	-1.2957318531	 0.8412582198	 3.2796130376	-0.348025
C	-1.2717887765	-0.7183233573	 0.0244386703	 0.000088
N	-2.4517933226	 0.0832948706	-0.0399557101	-0.062451
C	-3.3247032991	-0.1171606471	-1.1948329476	-0.229442
C	-3.732843953	-0.5906591908	 0.1569920927	-0.215175
H	 0.2117809541	 1.7281960272	-1.0242343376	 0.234271
H	-0.6901583531	 1.8728681607	 0.3236830654	 0.25504
H	 0.888977697	-0.4925629537	-0.427017251	 0.110224
H	 0.0548205553	-1.5290618214	 1.6410230342	 0.133837
H	-1.3113459572	-1.7128082813	-0.4295546467	 0.083005
H	-3.7574330038	 0.7840996736	-1.618613658	 0.125806
H	-3.0368925776	-0.872666529	-1.9237596596	 0.115781
H	-3.7187239901	-1.6639083042	 0.3354589433	 0.11768
H	-4.4649612216	-0.039258031	 0.7383611759	 0.13426
62.0843	109.8811	119.2251	170.3398	199.1251	269.4216	313.7878	390.1991	404.9935	568.9738	644.0844	653.1976	753.0412	758.0718	795.0276	845.8004	889.3161	904.8393	958.0173	997.1159	1025.6569	1060.2199	1079.3018	1110.9152	1120.5562	1124.0165	1129.2103	1175.4782	1189.5912	1229.6554	1280.4293	1320.8144	1353.8305	1391.0234	1456.6391	1491.3003	1518.6929	1667.2843	2352.904	3049.87	3100.2357	3107.9394	3156.0233	3170.538	3186.7716	3202.9346	3490.3217	3567.975
NC1C(C#N)C1N1CC1	N[C@H]1[C@@H](C#N)[C@H]1N1CC1	
InChI=1S/C6H9N3/c7-3-4-5(8)6(4)9-1-2-9/h4-6H,1-2,8H2	InChI=1S/C6H9N3/c7-3-4-5(8)6(4)9-1-2-9/h4-6H,1-2,8H2/t4-,5+,6-/m1/s1
