20
gdb 78866	2.74413	1.73948	1.324	1.7421	82.11	-0.2306	0.0742	0.3048	1033.0576	0.172028	-365.937776	-365.930163	-365.929218	-365.969447	30.955	
C	-0.0084356539	 1.6182108062	 0.072812558	-0.429201
C	 0.1191066978	 0.1014985011	 0.0514271407	 0.031828
C	 1.1823465431	-0.6066026261	-0.776709738	-0.068524
C	 2.4270043143	-0.7632652301	 0.0436167442	-0.14607
N	 1.2919428802	-1.744775996	 0.1973723474	-0.161384
C	 0.7514743269	-0.689333053	 1.2270252	-0.134421
C	 2.1754257692	-0.1778207113	 1.4031760917	 0.439511
C	 3.0391903184	-0.4049824273	 2.6043114218	-0.343844
C	 2.7426861994	 1.0049500885	 2.1267755383	-0.345046
H	 0.9512680378	 2.1014169326	 0.270830557	 0.128031
H	-0.379207148	 1.9862743179	-0.8901068637	 0.116122
H	-0.7178799176	 1.9422967354	 0.8425517031	 0.113595
H	-0.8477237984	-0.3594699715	-0.1811754255	 0.082787
H	 1.1792985592	-0.7894278235	-1.8465707863	 0.089562
H	 3.3751847102	-1.063825801	-0.3895342744	 0.092151
H	 0.1578235825	-1.0189252522	 2.0790243645	 0.077263
H	 2.5675994161	-0.7420953025	 3.5220788322	 0.114657
H	 4.0401609939	-0.7952447308	 2.4501395667	 0.115203
H	 3.5443085405	 1.5631889944	 1.6533984293	 0.113492
H	 2.0734292084	 1.6137165491	 2.7261595728	 0.114289
147.6331	180.5792	206.9209	265.8194	289.0941	319.7844	490.4038	563.2994	621.3738	696.3037	766.8258	768.4936	794.2417	808.523	882.6374	890.8082	915.2363	930.9717	955.4644	970.2704	1003.8598	1030.6124	1037.1871	1057.6521	1076.8868	1078.0839	1107.8488	1127.4593	1146.283	1182.1658	1186.0347	1216.5361	1238.4854	1282.7614	1295.7168	1357.9814	1389.633	1411.3676	1431.5128	1463.4729	1494.2109	1501.0741	1512.9201	3032.8692	3044.442	3091.9065	3121.9503	3122.8017	3124.6238	3126.1165	3162.4373	3176.01	3199.6522	3214.3702
CC1C2C3N2C1C31CC1	C[C@H]1[C@H]2[C@@H]3N2[C@H]1C13CC1	
InChI=1S/C8H11N/c1-4-5-7-8(2-3-8)6(4)9(5)7/h4-7H,2-3H2,1H3	InChI=1S/C8H11N/c1-4-5-7-8(2-3-8)6(4)9(5)7/h4-7H,2-3H2,1H3/t4-,5-,6+,7-,9?/m0/s1
