17
gdb 7115	3.68369	1.06444	0.88505	2.2159	67.7	-0.2541	-0.0313	0.2229	1302.0527	0.139734	-401.019485	-401.010266	-401.009322	-401.054886	31.204	
C	 0.8716938452	 1.2780266177	-0.2413410162	-0.391641
C	 0.2620956658	-0.0891898122	 0.0015456442	-0.032676
O	 0.4730874243	-0.8750527795	-1.1863671886	-0.243519
C	 0.019558689	-2.1428449189	-1.1649449311	 0.385341
N	-0.5812448913	-2.6244762026	-0.1573745108	-0.524264
C	 0.3600934238	-2.8299662638	-2.4719946311	-0.359249
C	 1.8630361413	-2.9580069679	-2.6852247236	 0.16177
O	 2.4025129203	-3.9704387504	-3.0444829799	-0.230799
H	 1.9452627455	 1.1997482845	-0.4355439378	 0.128006
H	 0.4019306589	 1.7700899266	-1.0977377772	 0.128327
H	 0.7270402286	 1.9092327937	 0.6403615206	 0.124573
H	 0.7213938844	-0.6023130387	 0.8524150969	 0.124139
H	-0.8129046748	-0.033284131	 0.2001738011	 0.123651
H	-0.839244306	-3.5953735455	-0.3173891779	 0.227453
H	-0.0951512263	-3.8192473477	-2.535125374	 0.131307
H	-0.0229973244	-2.2074327566	-3.2921423226	 0.148879
H	 2.4332758357	-2.0261637176	-2.488472522	 0.098702
43.4931	68.416	84.451	118.5119	180.6013	241.594	272.3279	372.023	434.9751	445.8757	608.8431	687.694	788.6168	806.1464	857.1559	865.7562	956.8352	1030.536	1050.886	1072.0165	1113.0876	1137.334	1182.8863	1193.831	1276.9786	1290.7533	1353.7968	1403.0217	1416.1209	1432.2721	1445.0536	1485.8503	1496.1095	1520.0218	1728.691	1836.2149	2920.4633	3030.3189	3045.8913	3052.2425	3088.8669	3120.9871	3124.7559	3133.135	3520.7162
CCOC(=N)CC=O	CCO[C]([NH])CC=O	
InChI=1S/C5H9NO2/c1-2-8-5(6)3-4-7/h4,6H,2-3H2,1H3	InChI=1S/C5H9NO2/c1-2-8-5(6)3-4-7/h4,6H,2-3H2,1H3
