23
gdb 121363	2.38538	1.17389	0.92801	0.5924	82.32	-0.2525	0.0868	0.3393	1402.9039	0.205471	-425.444809	-425.434784	-425.43384	-425.480413	36.305	
C	 0.6733070639	 1.3125104052	-0.2450249567	-0.386313
C	 0.145951479	-0.0825212483	 0.042321921	-0.038421
O	 0.9064139088	-0.6400831387	 1.1050334665	-0.259842
C	 0.5122709563	-1.9372708658	 1.4728664201	 0.223712
O	 0.7439792469	-2.8773405035	 0.4466798764	-0.267259
C	 2.0535949413	-3.4503692613	 0.598356679	-0.079141
C	 2.6359675521	-2.8812151694	 1.9025335927	-0.244027
C	 1.37951495	-2.3978744289	 2.6513890036	-0.007619
C	 1.6192223293	-1.3593837458	 3.7427942573	-0.407975
H	 1.725118543	 1.2720136569	-0.5427628307	 0.123948
H	 0.1019712572	 1.7752967119	-1.0554381912	 0.114165
H	 0.5937165739	 1.9470530631	 0.6424843838	 0.122943
H	-0.918102404	-0.0441718355	 0.3297861447	 0.083923
H	 0.2208280591	-0.7226338597	-0.84623295	 0.107117
H	-0.5697432669	-1.9541679755	 1.6716030656	 0.063982
H	 1.9383238429	-4.5404201305	 0.6399860242	 0.100253
H	 2.6645020642	-3.2085471723	-0.2785034719	 0.102456
H	 3.2084553587	-3.6238304525	 2.4633579984	 0.099622
H	 3.2913198204	-2.0294778739	 1.6975015013	 0.114482
H	 0.8720317327	-3.2707349858	 3.0813240784	 0.078829
H	 2.0951380404	-0.4668387483	 3.3306644959	 0.13376
H	 0.6777757803	-1.0519063591	 4.210164204	 0.112062
H	 2.2629942008	-1.7660467223	 4.5294351677	 0.109341
55.838	90.1796	115.503	132.754	157.8713	212.7008	248.3995	268.8987	346.6508	369.0274	519.3412	544.7012	617.3963	748.3289	819.7578	825.1114	886.6716	906.6096	932.5037	947.8397	975.0913	996.7169	1017.3755	1054.1076	1092.8077	1129.6477	1142.1952	1165.9271	1173.595	1189.4045	1220.3095	1235.8499	1294.6525	1308.1416	1327.1286	1347.82	1372.7036	1379.2239	1402.6196	1405.3698	1409.8079	1440.0676	1483.7509	1490.7194	1496.0569	1500.8684	1501.4309	1530.9454	1531.1163	2968.2889	2997.2965	3023.1488	3028.6634	3037.281	3039.0234	3042.8276	3054.1783	3064.8775	3098.3169	3110.8972	3116.9377	3118.6105	3129.346
CCOC1OCCC1C	CCO[C@H]1OCC[C@H]1C	
InChI=1S/C7H14O2/c1-3-8-7-6(2)4-5-9-7/h6-7H,3-5H2,1-2H3	InChI=1S/C7H14O2/c1-3-8-7-6(2)4-5-9-7/h6-7H,3-5H2,1-2H3/t6-,7+/m1/s1
