16
gdb 129631	3.09049	1.2703	0.94053	5.1325	68.58	-0.2156	-0.0081	0.2075	1187.4228	0.124396	-471.186574	-471.178183	-471.177239	-471.219717	31.398	
N	-0.5359069052	 1.3747053843	-0.1871500687	-0.593762
C	-0.2826289571	 0.0449927086	-0.0653817315	 0.36841
C	-1.1258042972	-1.0544462655	-0.0857791376	 0.181519
C	-2.6073559989	-1.1823667479	-0.261566305	-0.342146
C	-3.1923238794	-0.4519678358	-1.4760482962	-0.079851
O	-3.158354642	 0.9750836697	-1.3454556388	-0.407059
N	-0.3192237154	-2.1354143251	 0.134804921	-0.153346
N	 0.8844939926	-1.8358395659	 0.2845009505	-0.054583
O	 0.9571798899	-0.3525846015	 0.1538901851	-0.227272
H	 0.2604929613	 1.9556181708	-0.3978409632	 0.265933
H	-1.3955569145	 1.5870557557	-0.6840306443	 0.275233
H	-2.8299218284	-2.2504380409	-0.3563503002	 0.134697
H	-3.1473627079	-0.8390227231	 0.6349860989	 0.104623
H	-2.6129310794	-0.6782767242	-2.3753980525	 0.129472
H	-4.2253390188	-0.7834607338	-1.6471757109	 0.106126
H	-3.7753340997	 1.2198199047	-0.6472031566	 0.292004
63.9404	166.9019	191.0406	235.2881	284.1461	337.8267	362.1314	385.2328	446.7334	501.8424	564.6674	643.9175	663.7789	698.4358	745.1132	769.6823	867.4431	957.6232	983.7418	1019.907	1071.526	1113.5501	1163.7288	1224.7828	1288.2186	1320.8096	1373.1629	1387.9221	1411.6255	1461.1334	1476.2201	1499.9013	1503.1968	1604.0378	1667.6721	2983.1005	3016.2572	3080.9734	3100.0491	3491.0974	3664.7474	3810.629
NC1=C(CCO)N=NO1	Nc1c(CCO)nno1	
InChI=1S/C4H7N3O2/c5-4-3(1-2-8)6-7-9-4/h8H,1-2,5H2	InChI=1S/C4H7N3O2/c5-4-3(1-2-8)6-7-9-4/h8H,1-2,5H2
