21
gdb 40862	3.74387	1.42886	1.31361	0.2896	85.32	-0.2393	0.0894	0.3287	1058.5676	0.184616	-349.892333	-349.885169	-349.884224	-349.923685	30.115	
C	 0.0077990676	 1.5627165039	-0.068005734	-0.211049
C	 1.5521749078	 1.5619479517	 0.0946326614	-0.304222
C	 1.4590740341	 0.10683042	 0.6230701821	 0.428638
C	 0.0284598514	 0.0117546364	 0.0267017433	-0.288922
C	 2.4366054856	-1.0365637503	 0.4060879425	-0.158173
C	 3.4208401859	-1.0513927818	 1.5867814343	-0.074889
C	 3.0460265158	 0.1104805002	 2.5051904108	-0.242033
C	 1.5732184905	-0.2220817716	 2.1399533174	-0.132733
C	 2.0534778208	-1.6732473106	 1.7243053179	-0.076636
H	-0.4937971566	 2.0187065669	 0.7900220353	 0.100022
H	-0.4031034607	 2.0023777645	-0.9795344261	 0.093796
H	 2.0676815456	 1.6093603307	-0.8701929827	 0.096668
H	 1.9949737972	 2.3118511844	 0.7564044171	 0.092588
H	-0.7392762502	-0.4770955955	 0.6334932743	 0.09295
H	 0.033620971	-0.4544952352	-0.9640780027	 0.093603
H	 2.6733499335	-1.5359131811	-0.5261913274	 0.074998
H	 4.3721968034	-1.5620307189	 1.5048399701	 0.081713
H	 3.2638472496	-0.1253103845	 3.5509380983	 0.095035
H	 3.414167872	 1.1165473947	 2.2718484497	 0.088031
H	 0.7569103947	 0.0221492451	 2.8184893591	 0.063995
H	 1.729493511	-2.671424549	 1.9785063693	 0.086619
112.1557	177.8373	221.1431	324.2333	427.0947	452.1761	541.9083	679.848	742.3523	776.4864	785.6164	798.0506	802.0475	838.0079	869.1828	889.6048	926.1374	935.9128	945.7853	979.6233	991.8582	1005.6929	1025.1212	1031.1936	1042.4571	1058.9451	1096.9975	1142.5804	1152.3115	1169.2872	1174.5151	1198.7319	1200.7107	1217.2468	1253.426	1265.6526	1270.6941	1275.5231	1293.7386	1344.5211	1367.0598	1471.5468	1483.019	1499.2857	1504.9848	3029.4044	3040.2106	3045.3501	3059.359	3086.8773	3089.1447	3092.637	3114.5584	3121.1947	3178.6938	3191.8401	3225.4995
C1CC2(C1)C1C3CC2C13	C1CC2(C1)[C@H]1[C@H]3C[C@@H]2[C@@H]13	
InChI=1S/C9H12/c1-2-9(3-1)6-4-5-7(6)8(5)9/h5-8H,1-4H2	InChI=1S/C9H12/c1-2-9(3-1)6-4-5-7(6)8(5)9/h5-8H,1-4H2/t5-,6+,7-,8-/m0/s1
