24
gdb 15712	3.07786	1.46895	1.17047	0.0781	84.19	-0.2935	0.0761	0.3696	1165.2474	0.224805	-314.298143	-314.288975	-314.28803	-314.331832	34.691	
C	-0.1442855187	 1.7464012552	-0.27734009	-0.384944
C	-0.2287440333	 0.21946989	-0.1691197932	-0.199698
C	 0.7039555834	-0.5143558207	-1.1375570972	 0.069417
C	 2.2162300217	-0.3049617346	-0.8751856731	-0.208907
C	 2.9308066303	-1.5459148196	-1.481523557	-0.206767
C	 1.799051766	-2.4657345636	-2.0056993578	-0.20917
C	 0.5444745954	-2.055849852	-1.2076852286	 0.000499
C	 0.4827145903	-2.7462564148	 0.1625044893	-0.391742
H	 0.8612536614	 2.1092434711	-0.0409486528	 0.117431
H	-0.3878728151	 2.0849667133	-1.2909101487	 0.111199
H	-0.8421537409	 2.232262035	 0.4119319906	 0.108604
H	 0.0008615305	-0.0806476232	 0.8610491571	 0.094177
H	-1.2634842867	-0.097198892	-0.3567768895	 0.088583
H	 0.4884917781	-0.139043791	-2.1493124471	 0.061194
H	 2.5774372636	 0.63196876	-1.3076201263	 0.094644
H	 2.404629011	-0.2398303342	 0.202828786	 0.092992
H	 3.6248321417	-1.2720853745	-2.2809893488	 0.093985
H	 3.5264371627	-2.0571439118	-0.7192990572	 0.097898
H	 1.6281758422	-2.2754684166	-3.0715343098	 0.090666
H	 2.0374892414	-3.529337238	-1.9059563893	 0.086368
H	-0.36776484	-2.3146591069	-1.7587486048	 0.058701
H	 1.3618722247	-2.5212656609	 0.7764447393	 0.113181
H	-0.4021639968	-2.4433898339	 0.7301583523	 0.113308
H	 0.4399247371	-3.833575246	 0.0391839866	 0.108382
81.1904	99.3167	138.3363	186.3766	225.6564	237.2558	301.3911	336.7716	405.8009	468.6036	612.2657	653.0191	770.6545	779.577	806.0654	843.7957	896.4198	909.6361	943.6132	966.9928	995.4741	1022.8503	1038.5181	1049.2006	1067.0561	1097.6218	1135.2858	1177.4819	1217.2638	1217.9141	1247.4849	1278.2303	1298.4818	1310.2577	1317.4918	1325.2615	1344.1973	1365.6518	1382.7909	1394.936	1409.5634	1412.8235	1485.1355	1488.8298	1489.9613	1500.2083	1502.9036	1505.9736	1508.6761	1517.654	2983.7924	3013.0633	3023.7155	3029.8246	3030.6234	3034.377	3039.0964	3050.1586	3055.2862	3071.4125	3081.5893	3094.1805	3096.1047	3099.5264	3103.2007	3103.9497
CCC1CCCC1C	CC[C@H]1CCC[C@H]1C	
InChI=1S/C8H16/c1-3-8-6-4-5-7(8)2/h7-8H,3-6H2,1-2H3	InChI=1S/C8H16/c1-3-8-6-4-5-7(8)2/h7-8H,3-6H2,1-2H3/t7-,8+/m1/s1
