17
gdb 13672	5.2706	0.8971	0.8242	5.3688	69.33	-0.2688	0.0398	0.3086	1347.2822	0.141628	-363.860407	-363.851868	-363.850923	-363.894165	30.562	
O	-0.102785503	 1.4658190086	 0.1555507572	-0.41464
C	-0.0314227214	 0.0731240714	 0.0653249003	 0.088853
C	-0.6373096164	-0.7746804825	 1.1564736273	-0.329047
C	-1.3199531468	-0.6518109555	-0.196231781	-0.023411
C	-2.6188755005	 0.1125866065	-0.3265507624	-0.203889
C	-3.8240603691	-0.7356605147	 0.132731799	-0.333095
C	-5.0937690781	-0.0226694872	 0.0130395234	 0.256093
N	-6.0896537864	 0.5550616563	-0.087212779	-0.306594
H	 0.5133314955	 1.7533607497	 0.8371088783	 0.291895
H	 0.8612615749	-0.305363259	-0.4323120982	 0.091635
H	-0.1597051206	-1.709284095	 1.4292652022	 0.115633
H	-1.0917256412	-0.2360309358	 1.982547158	 0.116899
H	-1.2396604374	-1.519818113	-0.8463165356	 0.091363
H	-2.5682597721	 1.0314987291	 0.2620286738	 0.134974
H	-2.771799843	 0.4185304297	-1.3673257423	 0.123141
H	-3.8884197202	-1.6578543335	-0.4569195192	 0.148084
H	-3.6911791841	-1.041462675	 1.1766703584	 0.152107
68.1841	85.2625	104.5478	214.8467	250.5085	297.6676	359.705	400.4897	461.8064	515.4744	592.5193	758.6506	777.8815	837.8279	881.9372	942.478	958.4168	988.8108	1032.9863	1049.6468	1073.8672	1132.6434	1144.276	1178.3255	1230.1177	1239.3756	1279.6718	1299.9714	1316.4827	1363.2529	1407.0351	1427.9573	1468.4841	1489.4382	1499.6605	2361.6413	3039.6421	3053.8797	3077.0349	3099.4191	3112.7068	3127.5429	3138.4649	3217.3002	3809.7713
OC1CC1CCC#N	O[C@H]1C[C@H]1CCC#N	
InChI=1S/C6H9NO/c7-3-1-2-5-4-6(5)8/h5-6,8H,1-2,4H2	InChI=1S/C6H9NO/c7-3-1-2-5-4-6(5)8/h5-6,8H,1-2,4H2/t5-,6+/m1/s1
