22
gdb 76924	2.69286	1.22083	1.14536	1.0371	83.19	-0.2123	0.0859	0.2982	1233.2953	0.191746	-404.294954	-404.284924	-404.28398	-404.329249	37.456	
C	 0.7566864722	 1.1358921305	 0.7060882427	-0.329676
N	 0.5875246031	-0.2121734371	 0.1747143879	-0.141499
C	 0.4747327253	-0.5103545008	-1.2493825456	-0.093193
C	 0.5034670728	 0.4611577369	-2.3936830652	 0.06603
C	-0.2841923463	 1.7030975554	-2.4381231318	-0.18741
O	 1.1375324683	 1.7357199744	-2.2747281193	-0.228567
C	 1.6881704653	-0.9372333149	-0.4705618685	 0.304803
C	 3.0285044172	-0.2660847911	-0.7205539788	-0.471934
C	 1.8036001404	-2.3880987104	-0.0379698993	-0.434313
H	 1.3471099266	 1.8193993569	 0.0885997281	 0.134332
H	-0.2348928199	 1.5772956901	 0.8554742075	 0.115161
H	 1.2246400722	 1.0541310527	 1.6927829489	 0.116754
H	-0.2667847268	-1.2863001643	-1.4604566891	 0.083707
H	 0.69292977	-0.0299266506	-3.3518156851	 0.097996
H	-0.6487737505	 2.0812628794	-3.39172325	 0.118075
H	-0.8584807646	 2.0029583954	-1.5640914668	 0.120637
H	 2.9326154062	 0.7491637231	-1.1026745662	 0.154254
H	 3.6166817857	-0.2374639174	 0.2043507207	 0.114917
H	 3.6036127886	-0.8463977013	-1.450401455	 0.115655
H	 2.2908434311	-2.9928872123	-0.8115055177	 0.108947
H	 2.4033253372	-2.4712174336	 0.8761188411	 0.113864
H	 0.8165288758	-2.8086600909	 0.1681498816	 0.121462
96.7731	152.7624	161.6375	180.8778	206.8792	212.7969	246.9805	273.6362	301.4347	337.5535	377.9262	467.8577	522.8423	662.7614	710.0756	730.5322	765.5942	883.2095	895.6805	954.1494	967.6476	999.3338	1022.3708	1078.3287	1094.236	1113.4685	1142.9373	1155.9955	1159.7349	1172.2683	1184.0785	1207.2624	1278.5612	1296.6205	1353.6541	1404.8799	1414.6835	1419.1106	1442.2933	1463.0519	1481.3493	1486.018	1492.1794	1502.4103	1512.2477	1520.7397	1530.0031	3024.6603	3025.273	3034.1385	3055.525	3075.1778	3082.3152	3086.0412	3087.923	3093.0032	3100.3407	3121.0156	3160.5538	3183.2024
CN1C(C2CO2)C1(C)C	CN1[C@@H]([C@H]2CO2)C1(C)C	
InChI=1S/C7H13NO/c1-7(2)6(8(7)3)5-4-9-5/h5-6H,4H2,1-3H3	InChI=1S/C7H13NO/c1-7(2)6(8(7)3)5-4-9-5/h5-6H,4H2,1-3H3/t5-,6+,8?/m1/s1
