17
gdb 44564	3.22123	1.58791	1.42122	1.748	71.55	-0.2413	0.0174	0.2587	952.9237	0.138882	-417.981541	-417.974785	-417.973841	-418.01283	27.091	
N	 0.269752879	 1.012723846	 0.5330781307	-0.547814
C	 0.1033093819	-0.1409170403	 0.0718288032	 0.422802
O	 0.9782761362	-0.9792669978	-0.5918261618	-0.26778
C	-0.0451161785	-2.037678379	-0.6846026942	 0.08765
C	 0.1491595275	-3.2158711978	 0.246346686	-0.039785
C	 0.6845474776	-2.9264444918	 1.6031556377	-0.25158
N	-0.7556110703	-3.1004866672	 1.4185893093	-0.094374
C	-1.5217270691	-1.8398522036	 1.2936056268	-0.193585
C	-1.0655988203	-1.1060065366	 0.0141385157	-0.166575
H	 1.2223019882	 1.3458702178	 0.3737333109	 0.229573
H	-0.1967277545	-2.3161144176	-1.7273730006	 0.097922
H	 0.2524537918	-4.2041488438	-0.190252871	 0.097603
H	 1.1702342196	-3.718525808	 2.1659394714	 0.122366
H	 1.0792711323	-1.9318517497	 1.7922301386	 0.136264
H	-2.5793098923	-2.1064654577	 1.2117053998	 0.118356
H	-1.4002026084	-1.2256740551	 2.1903876028	 0.133929
H	-1.8975260607	-0.7368996379	-0.5864828054	 0.115028
88.7197	194.8067	251.4334	380.9281	410.3282	527.3401	602.7911	649.7679	699.7296	743.7835	801.6581	809.1442	847.5541	871.8033	890.1518	919.1377	952.8326	991.8547	1015.336	1039.8957	1058.0458	1064.8335	1101.4639	1120.8512	1155.3044	1197.5742	1216.3158	1236.0882	1278.8855	1287.4337	1297.006	1340.1556	1359.4776	1386.7807	1498.3445	1518.8287	1821.4272	3056.4876	3099.7999	3111.7734	3112.4732	3120.7886	3160.9592	3197.741	3474.1441
N=C1OC2C3CN3CC12	[NH][C]1O[C@H]2[C@H]3CN3C[C@@H]12	
InChI=1S/C6H8N2O/c7-6-3-1-8-2-4(8)5(3)9-6/h3-5,7H,1-2H2	InChI=1S/C6H8N2O/c7-6-3-1-8-2-4(8)5(3)9-6/h3-5,7H,1-2H2/t3-,4-,5-,8?/m1/s1
