17
gdb 46883	2.96759	1.4969	1.12117	3.2474	75.74	-0.2447	-0.064	0.1807	1069.7864	0.137554	-421.835211	-421.827777	-421.826833	-421.867504	28.705	
O	-0.1227607277	 1.2331464004	-1.6952257177	-0.320529
C	-0.0183997115	 1.5005737364	-0.5122356181	 0.355126
C	-1.2453065681	 1.5427886942	 0.3808945881	-0.312089
C	-1.4022019849	 2.8030079502	 1.2465293624	-0.265169
C	-0.5177290329	 2.837615426	 2.4737733952	 0.043539
O	-0.0525834392	 1.5926476397	 2.9833251347	-0.242346
C	 0.9252078361	 2.5169183109	 2.4594718976	 0.018997
C	 1.7171028627	 2.1713115866	 1.2551371897	-0.047518
C	 1.3359979731	 1.7576463602	 0.0377444637	-0.159913
H	-2.107598791	 1.43013175	-0.2793002172	 0.120721
H	-1.208755127	 0.6730036426	 1.0463760542	 0.144239
H	-1.2338159731	 3.7137013621	 0.6577405267	 0.120141
H	-2.4434202274	 2.8496704678	 1.5857856233	 0.122332
H	-0.8402014248	 3.5391805142	 3.2459904686	 0.098739
H	 1.527373811	 2.9660187296	 3.2484531631	 0.09904
H	 2.7866040308	 2.3112780691	 1.4005203194	 0.110378
H	 2.1073001338	 1.5857623701	-0.708365114	 0.114313
54.0482	197.2334	225.1141	287.6334	349.3214	404.4776	462.5896	500.6969	601.5181	668.5094	685.2469	764.4094	790.5354	817.5295	875.337	914.2778	929.9549	958.0864	1026.258	1038.309	1067.58	1120.4304	1142.8394	1181.0328	1227.2159	1248.661	1294.3292	1313.1836	1362.0881	1379.4757	1405.4872	1429.9131	1454.3527	1470.895	1485.8096	1695.8477	1755.9878	3030.8521	3053.1598	3068.6201	3087.9067	3113.0747	3118.8803	3145.5545	3174.8142
O=C1CCC2OC2C=C1	O=C1CC[C@H]2O[C@H]2C=C1	
InChI=1S/C7H8O2/c8-5-1-3-6-7(9-6)4-2-5/h1,3,6-7H,2,4H2	InChI=1S/C7H8O2/c8-5-1-3-6-7(9-6)4-2-5/h1,3,6-7H,2,4H2/t6-,7+/m0/s1
