19
gdb 106336	4.61711	0.97919	0.93684	1.8246	84.18	-0.2367	0.0192	0.2559	1322.991	0.156802	-385.798698	-385.78978	-385.788835	-385.832209	34.28	
C	 0.1139974818	 1.5367660279	 0.0539027441	-0.38262
C	 0.1033806043	 0.0042128283	 0.0657375189	-0.317246
C	 0.6691217284	-0.5752793667	 1.32658111	 0.410415
C	 0.3004185275	-0.3009359502	 2.8115415514	-0.294173
C	 1.610296006	-1.1341603769	 2.7661134373	 0.338098
C	 0.9683678862	-2.0530609738	 1.6901449341	-0.302838
O	 2.0886794063	-0.2501423197	 1.6672074064	-0.371339
C	 2.5016183955	-1.4754094348	 3.8331999548	 0.072561
C	 3.2293991413	-1.7773990003	 4.7410269798	-0.355833
H	 1.1285733056	 1.914540567	 0.2059575084	 0.141977
H	-0.2578787067	 1.9210633622	-0.900018484	 0.113961
H	-0.5183448084	 1.9439023886	 0.8494231077	 0.11865
H	-0.9188738627	-0.3754737917	-0.056876307	 0.106722
H	 0.6859383661	-0.384731426	-0.778351646	 0.114496
H	 0.4311605318	 0.7281255491	 3.1465458375	 0.114221
H	-0.5920990963	-0.7800147764	 3.2218092866	 0.097518
H	 0.1366404238	-2.6916229647	 1.997937749	 0.09737
H	 1.6832800324	-2.5569452564	 1.0387574158	 0.112319
H	 3.8777398472	-2.0406011354	 5.5401205154	 0.185739
80.3347	111.5262	136.5063	202.8099	219.9283	319.556	384.4585	486.8924	494.114	538.4255	542.2983	606.9983	623.5276	637.4302	681.3533	701.234	784.9897	819.7431	940.0813	957.561	962.8933	974.6426	1038.5962	1075.0963	1085.7784	1098.8423	1124.3938	1156.6057	1162.0477	1180.0188	1251.4884	1299.2252	1336.2063	1398.5703	1411.686	1464.5707	1470.1526	1497.8523	1507.5234	1518.9365	2240.5624	3027.6826	3042.8552	3060.3219	3063.1254	3069.7621	3110.4846	3124.469	3148.9931	3154.6621	3500.4957
CCC12CC(C1)(O2)C#C	CC[C@@]12C[C@@](C1)(O2)C#C	
InChI=1S/C8H10O/c1-3-7-5-8(4-2,6-7)9-7/h1H,4-6H2,2H3	InChI=1S/C8H10O/c1-3-7-5-8(4-2,6-7)9-7/h1H,4-6H2,2H3/t7-,8+
