19
gdb 52720	3.05369	0.6818	0.57869	1.3211	88.66	-0.2461	0.0232	0.2693	1926.3076	0.154094	-385.816287	-385.804986	-385.804042	-385.855789	38.187	
C	-0.0131283262	 1.4746550365	-0.038114439	-0.499845
C	 0.0094039764	 0.0193774159	-0.0414306975	 0.11383
C	 0.0394287238	-1.1835682696	-0.0500594253	 0.049297
C	 0.0427015292	-2.6446899988	-0.0372964693	-0.033623
C	-1.3854720003	-3.2087073433	 0.0375335431	-0.394279
O	 0.7258917102	-3.0917110237	-1.2123666441	-0.25455
C	 1.2557417756	-4.3997153052	-1.0976171406	-0.212447
C	 2.020727523	-4.7233545023	-2.2945887506	 0.290013
C	 2.6553089957	-5.0202858772	-3.2696884639	-0.418842
H	 0.9967526517	 1.8877784489	-0.1351711047	 0.151674
H	-0.6142757678	 1.8652698558	-0.8663491492	 0.151032
H	-0.4415232894	 1.8606842853	 0.8934415518	 0.148751
H	 0.6053884414	-2.9864503572	 0.8486212163	 0.090387
H	-1.952178573	-2.8962625496	-0.8427822759	 0.13722
H	-1.3746019732	-4.30153456	 0.0826400354	 0.115888
H	-1.8912083912	-2.8357841006	 0.9323428622	 0.126919
H	 1.9086891574	-4.4731117405	-0.2107071755	 0.118862
H	 0.4591972987	-5.1496359531	-0.9657979483	 0.119888
H	 3.2159239681	-5.2737862812	-4.1351627749	 0.199824
14.9123	27.3401	62.8817	89.6039	141.4006	160.4839	234.3014	281.3997	306.3372	327.8355	353.9927	389.1014	448.9102	536.4651	592.1957	606.9117	673.6761	754.6921	882.9653	972.6946	1015.7534	1029.9942	1052.8244	1053.5366	1066.2162	1105.7267	1114.4938	1191.0352	1249.8655	1341.4219	1354.784	1399.5765	1414.1584	1425.1048	1476.2357	1479.2306	1488.1606	1490.4095	1503.0686	2248.2119	2377.3611	2948.584	2955.5216	2982.1526	3028.7268	3047.2279	3089.9773	3091.0472	3119.1426	3134.7407	3507.0956
CC#CC(C)OCC#C	CC#C[C@@H](C)OCC#C	
InChI=1S/C8H10O/c1-4-6-8(3)9-7-5-2/h2,8H,7H2,1,3H3	InChI=1S/C8H10O/c1-4-6-8(3)9-7-5-2/h2,8H,7H2,1,3H3/t8-/m1/s1
