13
gdb 132281	2.06978	1.90621	0.9984	1.8839	65.38	-0.2675	-0.0675	0.1999	1084.2536	0.088348	-494.076597	-494.069013	-494.068069	-494.109202	27.362	
C	 0.0059895976	 1.4798976758	-0.0334200031	-0.457079
C	-0.0338531503	-0.0128225217	-0.0037023253	 0.347489
N	-1.1607317553	-0.6283973731	-0.1593558672	-0.284225
C	-1.1950094176	-1.9947257121	-0.1318852461	 0.44246
N	-2.2161654283	-2.7114019861	-0.2688426274	-0.50549
O	 0.0922547154	-2.6640091808	 0.0782426464	-0.235326
C	 1.1447325581	-1.8949893545	 0.2193438444	 0.415386
F	 2.221974895	-2.6076003584	 0.3993179073	-0.024579
N	 1.205582619	-0.6230111638	 0.1983787056	-0.404002
H	 0.6838007992	 1.8121354446	-0.8269041862	 0.155084
H	-0.9909589078	 1.887428305	-0.1935777396	 0.153226
H	 0.4219863313	 1.8536550666	 0.9082307428	 0.155082
H	-1.9891979361	-3.7022376813	-0.2108921616	 0.241975
94.6894	134.272	184.4774	196.8555	306.9242	357.4797	525.126	535.8458	583.173	605.2042	636.0081	739.5744	786.3749	810.7513	848.9876	943.4341	975.2697	1060.6059	1066.0849	1107.4546	1210.4842	1343.9859	1406.7276	1415.7504	1462.3574	1470.3852	1611.8204	1714.2226	1795.2988	3047.4673	3103.5275	3172.1267	3527.5153
CC1=NC(=N)OC(F)=N1	C[C@@H]1N=C([NH])OC(=N1)F	
InChI=1S/C4H4FN3O/c1-2-7-3(5)9-4(6)8-2/h6H,1H3	InChI=1S/C4H5FN3O/c1-2-7-3(5)9-4(6)8-2/h2,6H,1H3/t2-/m0/s1
