20
gdb 62909	2.90852	1.40169	1.1174	4.3524	81.96	-0.2299	0.0287	0.2586	1147.5858	0.169752	-403.098806	-403.089956	-403.089012	-403.132099	33.774	
C	-0.2488510178	 1.4389787808	 0.1081005493	-0.46894
C	 0.0450239477	-0.063747809	 0.0499815896	 0.350505
C	-1.2713038725	-0.7963928535	-0.2070166545	-0.478968
C	 1.3344522132	-0.5731096433	-0.7236805528	-0.082479
C	 2.2234960899	 0.0490992856	 0.3962566434	-0.229794
C	 1.04802142	-0.6910090871	 1.104181809	-0.094494
N	 1.3263081277	-1.8010654902	 0.1354228312	-0.028683
C	 0.8281050345	-3.0485292524	-0.0476859104	 0.117042
O	 0.7035760419	-3.6084497705	-1.1191325725	-0.340863
H	 0.6061837781	 2.0671312542	 0.3562952132	 0.119396
H	-0.6405565769	 1.7781473249	-0.8570641289	 0.12717
H	-1.0267852113	 1.633129475	 0.8547324068	 0.123738
H	-1.1569167515	-1.8633300424	-0.3922151743	 0.154793
H	-1.9493185421	-0.664956686	 0.6440342073	 0.115931
H	-1.7692584273	-0.3673274599	-1.083150549	 0.122604
H	 1.5161518833	-0.6290117366	-1.7957531637	 0.110026
H	 3.1965261334	-0.4248407254	 0.519306912	 0.115511
H	 2.2791015982	 1.1309360692	 0.4736069314	 0.107936
H	 0.8994812066	-0.8793896072	 2.168615174	 0.093343
H	 0.6254385149	-3.5445116662	 0.9248783888	 0.066226
111.0866	116.9695	145.2633	188.7891	245.3237	280.0859	365.973	384.437	417.0466	484.3955	591.5578	608.9833	686.0082	719.1523	774.4128	817.2211	887.0748	950.274	960.0395	977.0693	1005.2359	1022.5843	1039.3633	1048.47	1101.2517	1113.1393	1163.9869	1169.6473	1190.123	1208.5833	1211.304	1252.6791	1299.0149	1400.5941	1412.3001	1427.7319	1435.7307	1480.9827	1484.7296	1503.0289	1509.6119	1524.3712	1773.9823	2910.356	3035.4664	3041.9084	3088.8	3095.1044	3104.6755	3114.4181	3140.1646	3142.1997	3158.7259	3191.2218
CC1(C)C2CC1N2C=O	CC1(C)[C@H]2C[C@@H]1N2C=O	
InChI=1S/C7H11NO/c1-7(2)5-3-6(7)8(5)4-9/h4-6H,3H2,1-2H3	InChI=1S/C7H11NO/c1-7(2)5-3-6(7)8(5)4-9/h4-6H,3H2,1-2H3/t5-,6+
