23
gdb 76545	2.40465	1.21721	1.09959	1.899	86.	-0.2364	0.0751	0.3115	1294.4298	0.203888	-388.268111	-388.257951	-388.257007	-388.302984	37.581	
C	-0.0935316189	 0.7741219527	-2.0939218762	-0.412245
C	 0.0855215503	-0.3555936255	-1.1020413156	-0.083426
C	 1.3876533144	-0.6107682029	-0.3596570707	-0.089096
C	 2.6277331328	 0.2383229898	-0.5434738649	-0.414514
C	 0.1845567369	-0.0960159087	 0.3760318116	 0.258542
C	 0.0073349444	 1.2228870333	 1.121078316	-0.142805
O	-0.7737888215	 0.5662968932	 2.1419432093	-0.299397
C	-0.6001781303	-0.7367287817	 1.5246620646	 0.089184
C	-1.9238003108	-1.4128816674	 1.2258907178	-0.400967
H	 0.4327941087	 1.6823737527	-1.7876341555	 0.117717
H	 0.2808109895	 0.4944698263	-3.0847876275	 0.118671
H	-1.1527430131	 1.0332373298	-2.2010166797	 0.120145
H	-0.4603224779	-1.257801291	-1.3717210141	 0.081973
H	 1.6059739755	-1.6640991015	-0.189556084	 0.08005
H	 2.389755186	 1.2983637722	-0.6676458321	 0.117532
H	 3.2883706844	 0.1543757327	 0.3266059078	 0.120382
H	 3.1980776907	-0.0773529258	-1.4239298379	 0.118696
H	 0.9248314344	 1.6680459925	 1.5302722229	 0.096113
H	-0.5660229729	 2.0060522225	 0.6074851505	 0.098303
H	 0.0178749226	-1.38200149	 2.1677119157	 0.068952
H	-2.5369601917	-0.7937167553	 0.5646017725	 0.118873
H	-1.7632981783	-2.3855690838	 0.7471447596	 0.111887
H	-2.4772449452	-1.5815794441	 2.1551004299	 0.125432
73.3707	128.9427	159.3177	163.831	179.3372	192.9739	224.7586	246.606	289.773	409.2248	444.5872	510.8454	522.7203	575.7105	763.1789	788.3361	813.1835	878.5779	915.0772	985.202	1003.6285	1012.5567	1024.4838	1037.9576	1062.869	1086.9179	1115.0685	1140.4782	1145.4341	1160.3831	1167.6741	1177.6004	1223.0891	1283.8836	1306.7457	1367.7213	1369.6072	1381.7696	1401.2034	1414.5526	1423.2602	1473.6718	1484.5117	1486.3923	1490.3445	1493.9773	1500.4536	1516.9571	1527.5748	2979.0738	2996.6815	3029.3236	3032.1535	3033.273	3033.7908	3087.833	3089.3008	3098.2489	3101.7317	3108.4968	3115.3318	3116.3745	3128.5594
CC1C(C)C11COC1C	C[C@H]1[C@@H](C)[C@]21CO[C@H]2C	
InChI=1S/C8H14O/c1-5-6(2)8(5)4-9-7(8)3/h5-7H,4H2,1-3H3	InChI=1S/C8H14O/c1-5-6(2)8(5)4-9-7(8)3/h5-7H,4H2,1-3H3/t5-,6+,7-,8+/m0/s1
