18
gdb 25687	6.13149	0.71581	0.64614	2.1717	95.15	-0.1887	0.0257	0.2145	1749.4863	0.147323	-364.842325	-364.832683	-364.831739	-364.8788	33.971	
C	-0.0014157079	 1.4962094493	-0.0127036017	-0.508353
C	 0.0143093755	 0.041558416	-0.0089328507	 0.193121
C	 0.0303164933	-1.1655328206	-0.0056823448	-0.113135
C	 0.025695957	-2.5810671771	-0.0026904491	 0.172535
C	 1.1339096533	-3.4083384516	 0.0407656091	-0.213295
N	 0.6916704069	-4.7034199308	 0.0268867688	-0.293823
C	-0.6855184844	-4.7434039099	-0.0248121638	 0.337629
C	-1.4368088136	-6.0330743759	-0.0499367248	-0.507157
C	-1.122392304	-3.4416528835	-0.0440022184	-0.363587
H	 1.0149717672	 1.9043761719	-0.0535785993	 0.143746
H	-0.5477093833	 1.8911966146	-0.8774562009	 0.143314
H	-0.4795401746	 1.8978179958	 0.8887175203	 0.143029
H	 2.1834532503	-3.1675856308	 0.0796262107	 0.120115
H	 1.2873976969	-5.5129238888	 0.0509836679	 0.258183
H	-1.249158909	-6.6403787701	 0.8446034357	 0.126733
H	-2.5100493514	-5.8353835627	-0.0940484172	 0.140602
H	-1.1778319628	-6.6473546063	-0.9215947763	 0.126622
H	-2.1511034594	-3.1184278394	-0.0833919654	 0.093721
13.17	86.8657	87.4685	106.4613	214.2602	271.4223	298.2528	349.2861	440.0959	461.0651	497.7919	538.5771	641.816	667.6833	680.4958	725.1735	817.2397	923.9046	972.8186	1013.0207	1044.1521	1052.0924	1053.7655	1062.8934	1140.7262	1195.3534	1249.8763	1346.4134	1389.9725	1414.3617	1417.8375	1447.2061	1476.8642	1480.0968	1480.39	1499.6384	1552.5571	1628.0682	2356.8392	3015.918	3018.1821	3059.7439	3072.6825	3079.5036	3124.7465	3253.9165	3271.1484	3675.4211
CC#CC1=CNC(C)=C1	CC#Cc1c[nH]c(C)c1	
InChI=1S/C8H9N/c1-3-4-8-5-7(2)9-6-8/h5-6,9H,1-2H3	InChI=1S/C8H9N/c1-3-4-8-5-7(2)9-6-8/h5-6,9H,1-2H3
