18
gdb 29314	3.2134	1.25437	0.91237	1.3664	92.11	-0.1935	0.0061	0.1996	1268.6672	0.146454	-364.837026	-364.827536	-364.826591	-364.870975	35.091	
C	 0.010087951	 1.523709153	-0.0203832586	-0.506006
C	 0.0076058875	 0.0253966986	 0.0060989335	 0.223509
C	-0.0207954614	-0.8162303443	-1.0875038694	-0.18279
N	-0.0124834656	-2.1065992071	-0.6432220413	-0.333835
C	 0.0211031883	-2.1208239418	 0.7388386306	 0.114573
C	 0.0364950876	-3.3225407136	 1.4711463586	 0.277416
C	 0.0495154851	-4.3565576257	 2.0928448797	-0.476177
C	 0.0343582673	-0.7984058716	 1.1689029754	 0.088123
C	 0.0701132769	-0.3384858902	 2.5923711256	-0.523312
H	 0.9039508089	 1.9384818044	 0.4612850189	 0.124808
H	-0.0157414103	 1.9009857311	-1.0467622415	 0.118627
H	-0.8558489371	 1.9421456868	 0.5069410941	 0.124798
H	-0.0460907649	-0.58905176	-2.1419502448	 0.118076
H	-0.0281998835	-2.9316659655	-1.2162269901	 0.264594
H	 0.0611045788	-5.2617685267	 2.6470697444	 0.186307
H	 0.9570626395	 0.2730829499	 2.7986716495	 0.123942
H	-0.8032413059	 0.2765935947	 2.8417471523	 0.123942
H	 0.0851210478	-1.191327892	 3.2756750529	 0.133404
112.8186	123.0093	126.4343	135.5898	233.5767	249.5698	280.7866	368.9402	432.3756	457.4063	502.7326	515.9559	559.6004	643.2196	679.413	693.5056	702.8691	730.5505	742.6325	946.8818	1003.5374	1049.3597	1074.3615	1096.7386	1124.7152	1212.8304	1247.6193	1337.2638	1410.6294	1418.4656	1423.8759	1472.3012	1479.6529	1489.0205	1489.4626	1505.0358	1538.8509	1618.4632	2217.8484	3020.132	3020.6545	3064.3939	3066.6302	3104.3003	3116.336	3254.1839	3502.8358	3688.6517
CC1=CNC(C#C)=C1C	Cc1c[nH]c(C#C)c1C	
InChI=1S/C8H9N/c1-4-8-7(3)6(2)5-9-8/h1,5,9H,2-3H3	InChI=1S/C8H9N/c1-4-8-7(3)6(2)5-9-8/h1,5,9H,2-3H3
