14
gdb 51156	3.24324	1.26805	1.06051	4.0252	63.38	-0.2615	-0.0108	0.2507	1093.9819	0.100464	-473.832789	-473.825062	-473.824118	-473.865826	28.056	
O	-0.0793337556	 0.4538996008	 1.2143533302	-0.297404
C	-0.0834034363	 1.2606190912	 0.3169317644	 0.143723
N	 1.0146166409	 1.6499577152	-0.4148942126	-0.406049
C	 2.289656386	 1.0696371513	-0.3090377139	 0.182744
C	 2.9278548973	 0.6775596042	 1.0283272995	-0.293984
C	 3.6592881753	 1.5874852264	 0.1201704344	 0.026897
O	 4.3066511728	 0.8040227954	-0.9171674847	-0.262686
C	 3.0717380791	 0.397619577	-1.4189102588	 0.426191
O	 2.8535063968	-0.191861776	-2.4239159567	-0.320043
H	-0.9888516693	 1.8079244716	-0.0097676123	 0.090014
H	 0.8512302431	 2.2877607273	-1.1800960368	 0.261189
H	 2.4292462855	 1.1284739496	 1.878810336	 0.157711
H	 3.2805007412	-0.3367285227	 1.1805258843	 0.149776
H	 4.0224055433	 2.5901232087	 0.2916421571	 0.141921
48.0319	151.6012	167.3391	215.5877	301.9237	363.3303	458.786	517.1832	546.6369	642.3524	703.1994	766.6328	826.7584	843.4857	915.4668	917.6779	973.6635	1029.8486	1031.5141	1048.7823	1061.6657	1102.6717	1156.2093	1231.3669	1281.4988	1399.3982	1438.2618	1483.4448	1527.6327	1821.9534	1947.3633	2949.5883	3143.8122	3234.9376	3241.5055	3607.2746
O=CNC12CC1OC2=O	O=CN[C@]12C[C@H]1OC2=O	
InChI=1S/C5H5NO3/c7-2-6-5-1-3(5)9-4(5)8/h2-3H,1H2,(H,6,7)	InChI=1S/C5H5NO3/c7-2-6-5-1-3(5)9-4(5)8/h2-3H,1H2,(H,6,7)/t3-,5-/m1/s1
