17
gdb 42836	2.68006	1.80046	1.63177	0.8062	71.77	-0.2328	-0.0161	0.2167	901.697	0.138808	-417.963381	-417.95667	-417.955725	-417.99428	27.341	
O	 0.0262464871	 0.004490229	-0.1783447387	-0.329656
C	-0.0144135666	 1.182203045	 0.0310058262	 0.412616
C	-1.1023117493	 2.2657208224	 0.0159892743	-0.134795
C	-1.3325681116	 2.8684092604	 1.4117711553	-0.152571
N	-0.0912705901	 3.2116952532	 2.1222190854	-0.086966
C	 0.7816280003	 2.1422145055	 2.6029405929	-0.263178
C	 1.160583073	 2.9460602226	 1.4052218348	 0.011711
C	 1.0059700583	 2.3368360558	 0.0241064048	-0.159833
N	-0.0752091508	 3.1399200844	-0.6777187353	-0.313966
H	-2.0372254776	 2.0859622807	-0.5192355841	 0.093365
H	-1.8990947225	 3.7966736696	 1.2787646656	 0.125098
H	-1.9337277495	 2.1904073394	 2.0277611564	 0.115999
H	 1.2523443059	 2.3346544963	 3.5632854677	 0.119608
H	 0.4932497258	 1.1044410509	 2.4438578954	 0.130602
H	 1.9114991963	 3.7288783934	 1.4851934196	 0.102671
H	 1.9511169189	 2.2142316017	-0.5074190383	 0.094596
H	-0.0634512777	 2.8884118297	-1.6652338719	 0.234697
135.2626	210.4628	291.8901	397.6607	431.421	473.114	513.2338	531.4205	680.6706	727.3611	791.0416	823.6105	851.6425	859.3989	883.5015	939.959	979.7218	985.3457	1046.5508	1067.6674	1087.528	1090.5104	1117.1442	1122.6553	1144.6074	1176.0124	1202.5072	1225.1605	1290.579	1314.8362	1325.2505	1358.6755	1372.6089	1396.8524	1482.2953	1514.7202	1879.4811	3036.8261	3081.3698	3095.8138	3098.5358	3106.3502	3131.0929	3182.0505	3475.4405
O=C1C2CN3CC3C1N2	O=C1[C@H]2CN3C[C@H]3[C@@H]1N2	
InChI=1S/C6H8N2O/c9-6-3-1-8-2-4(8)5(6)7-3/h3-5,7H,1-2H2	InChI=1S/C6H8N2O/c9-6-3-1-8-2-4(8)5(6)7-3/h3-5,7H,1-2H2/t3-,4+,5+,8?/m1/s1
