19
gdb 72103	2.77332	1.72423	1.57155	1.2298	73.26	-0.2147	0.0797	0.2944	942.6291	0.16209	-423.02436	-423.017249	-423.016305	-423.055491	29.445	
O	-0.126751939	 1.4075826021	 0.0897835343	-0.4737
C	-0.0200490625	 0.0183295182	 0.0512245253	 0.34717
C	 0.980880059	-0.6962663492	 0.9465098944	-0.286071
C	 0.5113465027	-2.1630113699	 0.8254767305	-0.079385
C	-1.0304505267	-2.0492774907	 0.8955519905	-0.22178
C	-1.2850663002	-0.8308192593	 0.0220947411	-0.135503
C	-0.3754705822	-0.7609643134	-1.186948258	 0.045505
O	 0.372711842	-1.8713872297	-1.6095155327	-0.275022
C	 0.8980495526	-2.6884680264	-0.5605278544	-0.053618
H	 0.6147618944	 1.7779227398	-0.4019423914	 0.281424
H	 2.0211833824	-0.5647398902	 0.6251702665	 0.090512
H	 0.8906927355	-0.3222706027	 1.9726233082	 0.103752
H	 0.9334212437	-2.8170594809	 1.5926087647	 0.073506
H	-1.5260494607	-2.9560367867	 0.5314564373	 0.10017
H	-1.3703068986	-1.8691258412	 1.921636248	 0.100406
H	-2.2630841539	-0.3658758676	-0.0256139146	 0.090247
H	-0.7263696947	-0.1991449023	-2.0455670902	 0.102486
H	 1.991796195	-2.7211115076	-0.6663166593	 0.093714
H	 0.5182560614	-3.7101785623	-0.69987778	 0.096186
127.3084	248.2067	309.3578	337.0557	355.9846	398.7492	497.5852	509.9414	593.2641	613.2833	714.8866	780.3967	831.1708	861.447	902.7717	910.3877	946.6702	949.8624	982.3377	1008.2781	1036.5854	1055.5855	1089.3942	1104.0764	1130.8866	1159.3968	1181.5813	1215.3407	1239.0629	1257.2213	1293.4505	1297.8708	1322.1129	1336.4188	1349.3913	1352.8127	1412.2668	1454.7826	1491.1683	1509.983	1526.1994	2992.6889	3023.6115	3028.7376	3034.0374	3072.051	3073.8257	3081.6195	3173.5046	3182.5478	3792.3066
OC12CC3CC1C2OC3	O[C@@]12C[C@H]3C[C@@H]1[C@@H]2OC3	
InChI=1S/C7H10O2/c8-7-2-4-1-5(7)6(7)9-3-4/h4-6,8H,1-3H2	InChI=1S/C7H10O2/c8-7-2-4-1-5(7)6(7)9-3-4/h4-6,8H,1-3H2/t4-,5-,6+,7+/m1/s1
