15
gdb 110761	2.53571	1.45173	1.18779	4.428	62.02	-0.2619	-0.0051	0.2568	1070.7883	0.109939	-494.863914	-494.855351	-494.854407	-494.897435	30.638	
C	-0.4667405864	 0.9270908985	 0.0075471134	-0.240233
O	 0.6136242788	 0.0220302227	-0.1745771006	-0.229188
C	 1.0216463595	-0.5840690583	 0.9949857202	 0.018171
C	 0.2282138165	-1.656896997	 1.6822174671	-0.017835
O	-0.5469146229	-2.3790254732	 0.6932091901	-0.256598
C	 0.6141310664	-2.8244150814	 0.0669529751	 0.415665
O	 0.7101279657	-3.6034941545	-0.8186298156	-0.320487
C	 1.5304282243	-2.0184687973	 0.9824335638	 0.134352
O	 2.7373014425	-2.4247033669	 1.4834714932	-0.439266
H	-0.1963239263	 1.7437736477	 0.6919827824	 0.110836
H	-0.6941800954	 1.3446899562	-0.9747395997	 0.140179
H	-1.3519368399	 0.409843844	 0.3981018121	 0.130959
H	 1.5920215773	 0.0447862675	 1.6860231255	 0.108171
H	-0.0852380028	-1.7226460482	 2.7143766795	 0.139184
H	 3.4384000626	-2.0878549898	 0.9134500034	 0.306088
74.012	119.1405	172.7365	202.4965	238.886	273.3423	304.7252	323.6099	449.4917	523.2035	653.2142	695.3794	750.7732	768.9697	829.8799	920.1984	952.1777	988.5465	1017.2239	1040.8288	1058.624	1156.8436	1178.3408	1202.6993	1243.8894	1262.2192	1302.2667	1352.1757	1466.68	1488.0382	1498.4494	1505.4626	1958.3929	2998.2786	3062.7264	3066.5255	3135.7071	3227.4131	3794.1843
COC1C2OC(=O)C12O	CO[C@H]1[C@H]2OC(=O)[C@@]12O	
InChI=1S/C5H6O4/c1-8-2-3-5(2,7)4(6)9-3/h2-3,7H,1H3	InChI=1S/C5H6O4/c1-8-2-3-5(2,7)4(6)9-3/h2-3,7H,1H3/t2-,3+,5+/m0/s1
