20
gdb 22582	3.82837	0.98814	0.83503	0.824	85.6	-0.2329	0.015	0.248	1405.9142	0.170997	-403.138727	-403.129775	-403.128831	-403.172388	34.259	
C	-0.1860951696	 1.5711196432	 0.0636425906	-0.47653
C	-0.0405749016	 0.076320831	-0.019637681	 0.314578
C	-0.0431458397	-0.5794239437	-1.1826788782	-0.147542
C	 0.1650033827	-2.0629904321	-1.3434742056	-0.343706
C	 0.3425470711	-2.7767305065	-0.0275875104	 0.380986
C	-0.2701250452	-2.1385983109	 1.1876029485	-0.285631
C	 0.1278508705	-0.6570052143	 1.2937213685	-0.295523
N	 0.9701394086	-3.876150073	 0.1402142188	-0.204173
O	 1.4717670627	-4.3894161386	-1.0714872938	-0.398765
H	 0.6722316166	 2.0217688997	 0.5791818611	 0.122915
H	-0.2639744318	 2.0280094131	-0.9265581397	 0.119499
H	-1.0758111098	 1.8522487248	 0.642057674	 0.121123
H	-0.1679466811	-0.0200680407	-2.1077427912	 0.077877
H	-0.6816478711	-2.5112816949	-1.88697986	 0.127069
H	 1.0370236187	-2.2629370589	-1.9765059735	 0.140784
H	-1.3639009747	-2.1942078495	 1.0940110488	 0.111444
H	 0.0143403384	-2.7009834882	 2.0798429999	 0.114506
H	 1.1708473425	-0.5708319592	 1.6315096744	 0.116078
H	-0.4757002884	-0.1709411499	 2.0702841224	 0.100443
H	 1.9412701014	-5.1754624913	-0.7741520836	 0.30457
55.758	146.2793	185.8208	232.8658	251.1007	324.1209	333.2455	376.3952	398.3589	446.2677	512.1192	539.2073	590.7608	714.2178	760.8125	793.8177	815.1013	929.2505	948.8265	961.6742	991.9276	1021.154	1032.0823	1075.3387	1078.5365	1170.2931	1177.3257	1215.3337	1237.8616	1267.9209	1316.0528	1343.8175	1363.3134	1388.4105	1412.2914	1416.1105	1457.7659	1473.4909	1479.3715	1485.2384	1492.3901	1736.4032	1745.6189	2991.281	3003.0023	3011.3724	3014.3478	3045.9897	3057.6138	3058.0148	3104.5698	3110.3099	3144.6488	3823.6809
CC1=CCC(CC1)=NO	CC1=CCC(=NO)CC1	
InChI=1S/C7H11NO/c1-6-2-4-7(8-9)5-3-6/h2,9H,3-5H2,1H3	InChI=1S/C7H11NO/c1-6-2-4-7(8-9)5-3-6/h2,9H,3-5H2,1H3
