23
gdb 104213	2.53774	1.23111	1.17479	1.7494	85.27	-0.223	0.0765	0.2995	1248.1645	0.203903	-388.264819	-388.254982	-388.254038	-388.299595	37.425	
C	-0.032753181	 1.5186875462	 0.1482260154	-0.396054
C	-0.1855906663	 0.0287031441	-0.1793298755	-0.23117
C	 0.6876028235	-0.4670169165	-1.3392428433	 0.187552
C	 0.3740713373	 0.2247998506	-2.6645678328	-0.460581
C	 2.2026052131	-0.5666905496	-1.0085465376	-0.111626
O	 2.1892060761	-2.0061607606	-1.1213869241	-0.312062
C	 0.7966218992	-2.0009438234	-1.4327229028	 0.441199
C	-0.1067682761	-3.0811867507	-0.9364506384	-0.340462
C	 0.2251507598	-2.9632598984	-2.4201277027	-0.339753
H	 1.0100767433	 1.7751889525	 0.3663084003	 0.117415
H	-0.3662026016	 2.1559811491	-0.676096695	 0.119758
H	-0.626460142	 1.7831296263	 1.0284714332	 0.116011
H	 0.0553584034	-0.5640391682	 0.7111171876	 0.103903
H	-1.2376283793	-0.1855308961	-0.4111541797	 0.092962
H	 0.5914844807	 1.2966089346	-2.618079144	 0.117437
H	 0.9691784324	-0.2021531028	-3.4771677706	 0.123157
H	-0.6838304997	 0.1123777917	-2.9290418289	 0.112561
H	 2.8780570619	-0.1077617208	-1.7406894925	 0.096966
H	 2.4894433778	-0.242143288	-0.0006832746	 0.096508
H	 0.3579210104	-3.8903496264	-0.3829024482	 0.121627
H	-1.1088018815	-2.8236334203	-0.6086096575	 0.111957
H	-0.5515713672	-2.6230502378	-3.0977665659	 0.111326
H	 0.9059449361	-3.6958602255	-2.8406188423	 0.121369
39.7289	110.2631	154.9409	208.2931	213.9437	261.7813	268.684	307.8359	353.1439	373.1466	451.4489	519.5458	577.445	663.2348	757.3821	793.0805	862.1416	873.5123	884.151	917.1139	950.4514	970.2018	985.268	1018.7522	1024.4211	1046.2337	1048.3566	1066.0168	1075.5901	1156.6938	1161.0603	1187.0159	1223.4258	1233.7512	1263.4742	1323.3949	1351.0416	1365.1643	1386.0155	1409.2477	1415.7841	1446.8638	1482.81	1488.8684	1494.9501	1499.9869	1505.6322	1510.6844	1527.169	3010.4613	3016.2206	3029.3424	3035.3223	3053.3805	3057.6604	3093.8781	3099.6762	3106.3061	3112.0493	3124.635	3127.103	3206.8738	3221.229
CCC1(C)COC11CC1	CC[C@@]1(C)COC21CC2	
InChI=1S/C8H14O/c1-3-7(2)6-9-8(7)4-5-8/h3-6H2,1-2H3	InChI=1S/C8H14O/c1-3-7(2)6-9-8(7)4-5-8/h3-6H2,1-2H3/t7-/m0/s1
