18
gdb 90107	2.87109	1.50595	1.33739	3.421	73.44	-0.2259	0.0514	0.2773	1014.0251	0.14779	-438.926814	-438.919236	-438.918291	-438.958333	31.063	
O	 0.1689265256	 1.4629967757	-0.108354398	-0.407744
C	 0.0879765394	 0.0654069024	-0.0016727476	 0.059917
C	 0.2065411651	-0.5527937716	 1.4845797681	-0.38654
C	-1.3277438202	-0.6127917286	 1.4198794624	 0.257773
N	-2.681255697	-1.3563563279	 1.5037459016	-0.45072
C	-2.8183013894	-0.2297689894	 0.4237197402	-0.128237
C	-2.1965663142	 0.7021986452	 1.4747117764	 0.185288
O	-2.9054982103	 0.9838082141	 2.6339175637	-0.458923
C	-1.3631498025	-0.5725881037	-0.079850744	-0.038238
H	 1.067423093	 1.7311808311	 0.1113659303	 0.290738
H	 0.7679667704	-0.4200241385	-0.7142650023	 0.082988
H	 0.7083150317	-1.5241340834	 1.4578337929	 0.110811
H	 0.656812763	 0.0781539407	 2.2568348217	 0.11024
H	-2.5895637364	-2.2620247947	 1.033765705	 0.209985
H	-3.7575282783	-0.1395969335	-0.1299544933	 0.082652
H	-1.7257878112	 1.6105476748	 1.1126654412	 0.11812
H	-3.2987224316	 0.1385415208	 2.8991607672	 0.28918
H	-1.3044862671	-1.5469705235	-0.5732430456	 0.072712
173.6766	210.9141	239.4932	265.1636	340.4267	396.316	421.8177	461.0312	581.2606	604.9689	632.2427	712.5537	742.6499	776.91	793.3092	860.5277	877.8642	913.8798	969.3958	989.6621	1010.5044	1074.8789	1092.1685	1107.7423	1129.6413	1168.3477	1181.0913	1190.2245	1191.0554	1213.7428	1239.2447	1258.9129	1275.9642	1305.8902	1338.6357	1359.2177	1411.8196	1465.087	1479.6685	3003.2784	3049.165	3062.113	3074.2131	3112.164	3187.2827	3398.6529	3719.0694	3808.4312
OC1CC23NC(C2O)C13	O[C@H]1C[C@@]23N[C@@H]([C@H]2O)[C@@H]13	
InChI=1S/C6H9NO2/c8-2-1-6-3(2)4(7-6)5(6)9/h2-5,7-9H,1H2	InChI=1S/C6H9NO2/c8-2-1-6-3(2)4(7-6)5(6)9/h2-5,7-9H,1H2/t2-,3+,4+,5+,6-/m0/s1
