13
gdb 27670	3.27282	1.22557	0.89167	4.7552	68.07	-0.1967	0.0085	0.2052	1179.7589	0.089841	-452.795056	-452.786863	-452.785919	-452.827692	30.221	
O	 0.0516480784	 1.3403600023	 0.2104964931	-0.432088
C	 0.0607906853	 0.0049665158	-0.0100803634	 0.411286
C	 0.0603201718	-0.7774642347	-1.1239309378	-0.431606
C	 0.0740773198	-2.1523361665	-0.6571197824	 0.064855
C	 0.0790225701	-3.3509675486	-1.3953862705	 0.166703
N	 0.0837369625	-4.367188117	-1.9576033137	-0.376874
C	 0.0824181574	-2.1068998457	 0.7233180733	 0.331047
O	 0.096036072	-3.063745832	 1.6659784068	-0.420543
N	 0.0742525052	-0.8015959981	 1.1136610111	-0.353211
H	 0.0396037488	 1.7919715348	-0.6391434258	 0.314062
H	 0.0515297613	-0.4547358695	-2.1516369155	 0.116267
H	 0.1003158253	-3.9238589042	 1.2271490018	 0.326019
H	 0.0775914322	-0.4756997967	 2.065573663	 0.284084
122.4831	134.6703	217.4105	232.9646	313.3977	333.3088	348.4585	439.0269	449.5708	513.4488	523.9716	606.5095	653.1328	672.422	691.9369	736.0648	804.6698	1028.9974	1139.3693	1163.5762	1186.5101	1210.2147	1303.9287	1365.7806	1490.2447	1559.085	1625.7305	1657.0413	2321.4664	3269.8708	3678.1604	3796.9007	3845.3202
OC1=CC(C#N)=C(O)N1	Oc1cc(C#N)c(O)[nH]1	
InChI=1S/C5H4N2O2/c6-2-3-1-4(8)7-5(3)9/h1,7-9H	InChI=1S/C5H4N2O2/c6-2-3-1-4(8)7-5(3)9/h1,7-9H
