15
gdb 20728	6.85376	1.2768	1.09095	3.2623	63.22	-0.2438	0.0234	0.2672	1053.387	0.119752	-396.011894	-396.003765	-396.00282	-396.046543	27.768	
C	-0.0091287109	 1.4431204141	-0.0279032557	-0.482409
C	 0.0008449225	-0.0475151369	 0.0214066506	 0.334078
N	-0.0513999094	-0.7971134427	-1.0710904438	-0.267042
N	-0.0181972411	-2.0532948439	-0.558794692	-0.217875
C	 0.0494905553	-2.0097860052	 0.7830717469	 0.368617
C	 0.1018263496	-3.2387231085	 1.6322689058	-0.194825
O	 0.0280655886	-4.3576266891	 0.7623130529	-0.42882
N	 0.0638849966	-0.7556954965	 1.1919956914	-0.364073
H	 0.8951998126	 1.8523666188	 0.4334143215	 0.136483
H	-0.0648292924	 1.7841753741	-1.0629641258	 0.138153
H	-0.8645376955	 1.843532325	 0.5252907726	 0.136585
H	-0.0475420081	-2.8671937515	-1.1498377939	 0.285844
H	 1.033442881	-3.2332797637	 2.2173576238	 0.126676
H	-0.7325467586	-3.2171212474	 2.3486888147	 0.127365
H	 0.08617709	-5.1592379265	 1.2885498709	 0.301243
8.8041	105.9056	159.6865	187.5094	214.2204	330.7319	333.1704	485.2257	580.6316	664.2	702.9992	719.9075	753.8209	1002.5434	1021.2675	1043.931	1061.2653	1070.492	1098.3352	1157.4817	1203.3301	1230.3472	1287.4533	1366.5482	1404.9733	1444.7226	1478.4193	1479.6103	1483.8167	1511.7857	1548.9716	1595.6953	2990.21	3016.8641	3045.5705	3100.8891	3143.6968	3678.5337	3851.5623
CC1=NNC(CO)=N1	Cc1n[nH]c(CO)n1	
InChI=1S/C4H7N3O/c1-3-5-4(2-8)7-6-3/h8H,2H2,1H3,(H,5,6,7)	InChI=1S/C4H7N3O/c1-3-5-4(2-8)7-6-3/h8H,2H2,1H3,(H,5,6,7)
