23
gdb 121908	2.23618	0.97539	0.79235	1.7443	79.01	-0.2626	0.0604	0.323	1556.1629	0.202607	-462.555729	-462.544373	-462.543429	-462.59337	40.686	
C	 0.1309080262	 1.5738756281	 0.0602112686	-0.406562
C	-0.0064477786	 0.054500119	 0.1729734456	 0.143215
O	 0.5222928906	-0.4256662663	 1.4019431384	-0.440655
C	-1.4574648413	-0.4323964763	-0.0016439089	 0.125117
C	-1.5334704439	-1.9544663577	-0.1166100466	-0.409667
O	-2.1551114274	 0.0599414988	 1.1451519852	-0.295865
C	-3.5646227463	-0.1025248656	 1.1458920217	-0.076642
C	-4.1139507314	 0.7974988289	 2.2416122273	-0.060377
O	-3.8310951505	 2.159415979	 1.9938262338	-0.420597
H	 1.173907046	 1.8631719992	 0.2114259802	 0.125364
H	-0.1901042664	 1.9298759191	-0.9246990236	 0.110576
H	-0.4761416384	 2.0764668602	 0.8192957037	 0.113564
H	 0.5985129304	-0.4159949678	-0.611332696	 0.084369
H	-0.131388526	-0.1992380789	 2.0752089339	 0.283844
H	-1.8864802694	 0.030176398	-0.9055710261	 0.068388
H	-2.5648679475	-2.3056912982	-0.2035009445	 0.114884
H	-0.9953809605	-2.2864872672	-1.0101365669	 0.118812
H	-1.068714277	-2.4181472006	 0.7569746403	 0.136025
H	-3.9791061721	 0.2011304654	 0.1723019055	 0.098494
H	-3.8495855135	-1.1478744245	 1.3343642934	 0.096002
H	-5.2032952285	 0.6961784354	 2.2858431387	 0.110424
H	-3.706337141	 0.4688952335	 3.2114678931	 0.092274
H	-2.8865366035	 2.2027595986	 1.8067324131	 0.289011
24.1006	66.2915	90.3828	146.0393	158.61	212.2936	224.6209	262.6767	285.8481	319.5287	355.807	402.6722	418.5234	458.0052	516.6867	526.378	646.6951	785.0402	846.5762	910.6561	918.7779	953.1087	1001.6429	1018.4188	1073.8889	1081.6049	1097.8236	1117.5154	1136.417	1152.7131	1176.4365	1230.7552	1265.1552	1297.0369	1332.3413	1359.9311	1384.1081	1385.7079	1397.6171	1403.0957	1412.3667	1431.6553	1436.6827	1486.8739	1491.9294	1493.157	1496.6817	1498.774	1510.4945	2973.3849	2976.4362	2984.1539	3028.3762	3037.9517	3040.3464	3048.542	3079.9706	3107.5829	3113.9799	3123.5634	3133.958	3783.1152	3802.5249
CC(O)C(C)OCCO	C[C@@H](O)[C@@H](C)OCCO	
InChI=1S/C6H14O3/c1-5(8)6(2)9-4-3-7/h5-8H,3-4H2,1-2H3	InChI=1S/C6H14O3/c1-5(8)6(2)9-4-3-7/h5-8H,3-4H2,1-2H3/t5-,6-/m1/s1
