18
gdb 46689	2.78154	1.9932	1.42595	3.9872	74.54	-0.2328	0.007	0.2398	928.4579	0.150911	-401.938307	-401.931605	-401.930661	-401.969224	27.556	
O	 0.1427428597	 0.2066708922	 0.5981392477	-0.331092
C	 0.0251863577	 1.278064146	 0.0494880888	 0.354245
C	-1.2666497501	 2.0718693445	-0.0004606278	-0.302038
C	-0.9861522614	 3.3673896378	 0.8125657686	-0.25594
C	 0.1785976832	 4.1196699335	 0.1678687175	-0.02527
C	 1.6830303771	 3.9004596317	 0.3650120316	-0.094343
C	 2.0552346452	 2.455091228	 0.7013883355	-0.189914
N	 1.151705109	 1.9935127782	-0.406310712	-0.107602
C	 0.9669151229	 3.3865131179	-0.8678737763	-0.061867
H	-1.5380909658	 2.3463188124	-1.0253499086	 0.11834
H	-2.067263342	 1.4704363163	 0.4313489233	 0.122211
H	-1.8767871781	 4.0023927152	 0.8160407683	 0.110032
H	-0.7847468092	 3.1078442645	 1.8577609977	 0.119765
H	-0.0197852497	 5.1584263615	-0.0833580333	 0.097161
H	 2.3516230421	 4.7486476136	 0.440307442	 0.098369
H	 3.1026178715	 2.2293266988	 0.4826634868	 0.123175
H	 1.7951791124	 2.051229078	 1.6843887424	 0.124655
H	 1.0686697455	 3.6377768298	-1.9164507621	 0.100113
121.8744	218.5779	282.9883	388.434	452.2709	476.2602	520.3893	656.1261	685.4171	728.08	763.8051	786.0179	826.4557	880.5196	907.4853	949.3598	970.8852	993.5018	1011.6122	1040.1449	1056.4208	1075.3548	1093.6881	1113.3798	1145.2836	1162.5189	1178.6981	1205.6468	1257.4446	1280.1941	1308.7456	1311.6902	1335.2633	1355.8423	1412.3581	1472.084	1495.3669	1517.0763	1807.5858	3043.8667	3051.1977	3054.4314	3086.6789	3101.8982	3134.4384	3145.0564	3182.2655	3197.5752
O=C1CCC2C3CN1C23	O=C1CC[C@H]2[C@H]3CN1[C@@H]23	
InChI=1S/C7H9NO/c9-6-2-1-4-5-3-8(6)7(4)5/h4-5,7H,1-3H2	InChI=1S/C7H9NO/c9-6-2-1-4-5-3-8(6)7(4)5/h4-5,7H,1-3H2/t4-,5+,7-/m0/s1
