21
gdb 119484	3.95784	0.929	0.86684	1.8976	82.04	-0.225	0.0656	0.2906	1435.8363	0.181365	-387.016607	-387.007851	-387.006906	-387.050443	33.752	
C	-0.0227837421	 1.5957948508	-0.0662180109	-0.381956
C	-0.0267831446	 0.0674140091	-0.1484376906	-0.155429
C	-1.4072660458	-0.5459373175	 0.1364135559	-0.306834
C	-1.4086653634	-2.0477931887	 0.0946686687	 0.341375
C	-1.5462062365	-2.8854610219	-1.1494742346	-0.330104
C	-2.5668019419	-3.0305216376	-0.0468016282	-0.180571
C	-1.9896155207	-3.8465821175	 1.151144419	 0.024109
O	-0.6534655134	-4.2745808768	 0.8443772936	-0.240158
C	-0.868799407	-2.9256898913	 1.2825866423	-0.037866
H	 0.9705669936	 2.0044734285	-0.2758130678	 0.112583
H	-0.7217362309	 2.033192435	-0.7880988904	 0.113486
H	-0.3210242474	 1.940635161	 0.9302989721	 0.112938
H	 0.3069603842	-0.2541666974	-1.1425222826	 0.102369
H	 0.7039981884	-0.3410456738	 0.561666581	 0.097254
H	-1.7588640298	-0.2033006698	 1.1207435941	 0.092584
H	-2.1341743583	-0.1645520333	-0.5927761276	 0.096146
H	-1.9016413861	-2.3421248047	-2.0200579236	 0.10778
H	-0.8543536286	-3.6916837439	-1.3582534054	 0.133611
H	-3.619136092	-2.8128343988	-0.1758432124	 0.091177
H	-2.5434955197	-4.4210464212	 1.8835175397	 0.106438
H	-0.309546468	-2.5802766201	 2.1446387779	 0.10107
74.6922	86.3223	112.3592	242.9773	282.1593	295.2767	330.8085	418.1373	446.5487	575.0684	683.4509	741.4445	754.1012	799.6648	808.2288	852.8169	866.0673	889.5678	897.7485	926.0234	959.9938	980.5132	990.1509	1023.6333	1045.6947	1054.9811	1096.6827	1104.9308	1125.6938	1194.2128	1211.8786	1245.4924	1260.4811	1293.5187	1307.6444	1335.896	1357.496	1389.6302	1405.3561	1412.0218	1473.0761	1480.8712	1492.0698	1499.6527	1509.2807	2997.8734	3021.6899	3028.4234	3036.0328	3059.7633	3094.9668	3102.0414	3135.0979	3177.276	3192.6191	3201.6023	3228.4248
CCCC12CC1C1OC21	CCC[C@]12C[C@H]1[C@H]1O[C@@H]21	
InChI=1S/C8H12O/c1-2-3-8-4-5(8)6-7(8)9-6/h5-7H,2-4H2,1H3	InChI=1S/C8H12O/c1-2-3-8-4-5(8)6-7(8)9-6/h5-7H,2-4H2,1H3/t5-,6+,7+,8-/m0/s1
