16
gdb 69882	2.71042	1.72058	1.21774	3.8326	73.88	-0.2448	-0.0053	0.2395	1005.2833	0.124774	-396.845469	-396.837766	-396.836822	-396.87736	30.374	
N	-0.0370521284	 1.4180036095	-0.1641339091	-0.592482
C	 0.0142281406	 0.0090066933	-0.0781047531	 0.270106
C	-0.3940167219	-0.8800384305	-1.2166219146	-0.337817
C	-1.1082765406	-0.982506985	 0.1067615375	-0.036966
N	-0.4035610994	-1.7161780213	 1.2355301928	-0.153618
C	 0.8784258935	-2.2709947691	 0.7921537899	-0.282998
C	 0.7878533995	-0.803631191	 1.0240934546	 0.08821
C	 1.429288888	-0.1272480849	 2.1090728566	 0.235807
N	 1.9591113434	 0.4765046913	 2.9428084858	-0.344608
H	-0.1234976594	 1.8496216014	 0.7511029545	 0.249466
H	 0.7934709942	 1.7982463414	-0.6081611714	 0.241525
H	-0.9850189876	-0.3441172926	-1.952482501	 0.139417
H	 0.2344077197	-1.6533893909	-1.6424376219	 0.119701
H	-2.1736206998	-0.8358236513	 0.220388522	 0.121318
H	 1.3637367633	-2.852764121	 1.5708385446	 0.148427
H	 1.0091592248	-2.6659789593	-0.2080063873	 0.134512
123.4531	131.9173	245.9946	306.644	334.4808	411.0334	462.4177	486.1107	536.4053	544.1255	585.5223	648.8344	739.8641	763.0599	825.7523	845.4426	893.8108	925.0286	949.6471	986.0557	1025.5773	1060.8026	1071.3663	1109.8392	1138.0998	1154.8803	1215.56	1252.1163	1286.5187	1318.5206	1410.1529	1480.6581	1514.8249	1664.7877	2339.9186	3127.5998	3140.6689	3209.8648	3215.5742	3223.8062	3493.3848	3569.2007
NC12CC1N1CC21C#N	N[C@]12C[C@H]1N1C[C@@]21C#N	
InChI=1S/C6H7N3/c7-2-5-3-9(5)4-1-6(4,5)8/h4H,1,3,8H2	InChI=1S/C6H7N3/c7-2-5-3-9(5)4-1-6(4,5)8/h4H,1,3,8H2/t4-,5+,6-,9?/m1/s1
