18
gdb 111739	2.4594	1.38864	1.13487	2.2422	75.35	-0.2224	-0.0302	0.1921	1140.7437	0.146635	-439.030845	-439.022092	-439.021148	-439.064571	31.828	
C	 0.1149252932	 0.857207766	 0.5019371295	-0.238108
O	-0.2883376331	 0.0644518144	-0.604672618	-0.22943
C	-1.4416608601	-0.6541422303	-0.3712687206	 0.084171
C	-1.6053872333	-2.0032067719	-0.9611965704	-0.20508
C	-0.3004777369	-2.8071766	-0.8682292337	-0.170168
N	-0.1378541057	-2.4738016278	 0.5839751297	-0.363899
C	-1.451418986	-1.8313913007	 0.5925893669	 0.224167
C	-2.439165224	-2.055112948	 1.6428374123	 0.054495
O	-2.2506968629	-2.7870713171	 2.5904114407	-0.28559
H	 1.0181910602	 1.3882213127	 0.1953443386	 0.131969
H	-0.6572428449	 1.5924862929	 0.7716468133	 0.105243
H	 0.3384968921	 0.2281541938	 1.3716090869	 0.137281
H	-2.3607891354	-0.0622737658	-0.3343948598	 0.094479
H	-2.4804731293	-2.2848967245	-1.5334055879	 0.11155
H	-0.4741099127	-3.8722045983	-1.0436628581	 0.113172
H	 0.5259338458	-2.4584539337	-1.4931950411	 0.124882
H	-0.1671524111	-3.3013194082	 1.1717994903	 0.239416
H	-3.396774356	-1.5043910035	 1.5085321013	 0.071449
86.7913	99.9906	171.5669	175.3926	219.6594	253.8681	270.915	382.9437	439.1221	525.3192	634.5017	718.3818	737.4992	788.9348	862.8235	902.0963	947.8688	974.9579	1013.7901	1021.483	1047.454	1052.7153	1114.7874	1148.9899	1175.6373	1191.8326	1215.3924	1257.1535	1273.5477	1303.8282	1334.1366	1368.2162	1410.275	1451.3827	1487.9988	1490.8036	1500.587	1508.9956	1779.5481	2881.4316	2995.5569	3055.4833	3066.5857	3069.6862	3107.3877	3130.9222	3189.9139	3527.1562
COC1C2CNC12C=O	CO[C@H]1[C@H]2CN[C@@]12C=O	
InChI=1S/C6H9NO2/c1-9-5-4-2-7-6(4,5)3-8/h3-5,7H,2H2,1H3	InChI=1S/C6H9NO2/c1-9-5-4-2-7-6(4,5)3-8/h3-5,7H,2H2,1H3/t4-,5+,6-/m1/s1
