16
gdb 125424	5.7168	0.96042	0.87413	3.9168	72.05	-0.2463	0.0012	0.2475	1316.5769	0.125299	-434.075703	-434.067401	-434.066457	-434.110987	28.941	
C	-0.3911411398	 1.4376279934	 0.1227835774	-0.502836
C	-0.0518527597	-0.0056565494	-0.0348590478	 0.351856
N	-0.1552732467	-0.7271616172	-1.1380003831	-0.348111
C	 0.2513232343	-1.9713082364	-0.7455868289	 0.336175
N	 0.6045921891	-2.0624116842	 0.5277482066	-0.269538
N	 0.4006979892	-0.797391673	 0.9637538982	-0.22771
C	 0.2854588275	-3.1112271342	-1.6868775741	-0.017272
C	 1.1238386663	-4.296906918	-1.4529228082	-0.174
O	-0.2829617999	-4.3512357962	-1.2426412459	-0.228288
H	 0.3568549536	 1.9654867298	 0.7222675104	 0.135961
H	-0.4414396176	 1.8995772838	-0.8638436931	 0.165365
H	-1.3642497693	 1.5676422619	 0.6093128478	 0.150166
H	 0.5858171145	-0.5670532131	 1.9266132812	 0.278313
H	 0.0307188573	-2.83252505	-2.7070553133	 0.106373
H	 1.4971130655	-4.8634143858	-2.3055556569	 0.113258
H	 1.7312227959	-4.3344367313	-0.5508725504	 0.130287
19.5247	33.3798	152.913	168.0252	272.4407	310.1266	434.693	453.7841	557.823	664.9019	701.1282	727.6514	783.7565	852.8325	910.1786	990.7848	999.1735	1036.2745	1063.8323	1076.2152	1101.5621	1158.2382	1172.9822	1190.2675	1264.6803	1286.1481	1336.4758	1408.1472	1425.9292	1461.3996	1482.3407	1501.167	1517.4958	1540.3348	1590.9672	3041.4812	3083.0433	3098.4868	3142.3726	3150.6576	3179.2499	3657.0058
CC1=NC(=NN1)C1CO1	Cc1nc(n[nH]1)[C@H]1CO1	
InChI=1S/C5H7N3O/c1-3-6-5(8-7-3)4-2-9-4/h4H,2H2,1H3,(H,6,7,8)	InChI=1S/C5H7N3O/c1-3-6-5(8-7-3)4-2-9-4/h4H,2H2,1H3,(H,6,7,8)/t4-/m1/s1
