15
gdb 87672	3.33359	1.32272	1.08947	4.1735	70.81	-0.2549	-0.053	0.2019	1084.3402	0.112061	-457.787792	-457.780204	-457.779259	-457.819901	29.08	
O	-0.0535002448	 1.3668331328	-0.0702720814	-0.423063
C	 0.0299651656	-0.0119074993	 0.0324031413	 0.085727
C	-0.4006743865	-0.7336967467	 1.2814615902	-0.380398
C	-1.2635388398	-0.8160222952	 0.0353221899	 0.357922
O	-2.4304599532	-0.025108361	 0.026251433	-0.282539
C	-3.3991344486	-0.6539449595	-0.7560306893	 0.409514
O	-4.4758180525	-0.165811582	-0.9374850474	-0.337326
C	-2.8047371531	-1.9179618999	-1.2333026723	-0.251665
C	-1.5539271945	-2.0081656856	-0.7647737235	-0.15493
H	-0.989852233	 1.6041187318	-0.0999876209	 0.306574
H	 0.8702850179	-0.4151535885	-0.5255583433	 0.116181
H	 0.1327797961	-1.6272028309	 1.5877903939	 0.129151
H	-0.8082114979	-0.1304499592	 2.0852138044	 0.146781
H	-3.3465192898	-2.6068527265	-1.8630894215	 0.139285
H	-0.8376159359	-2.8028310403	-0.925520033	 0.138785
108.3191	154.7815	205.4939	266.3033	322.0885	386.9527	454.9683	493.4747	538.1682	612.4435	716.8515	727.1453	813.7155	829.2383	865.0892	883.8561	896.0808	947.068	960.7669	1021.353	1047.3375	1080.2765	1104.2506	1125.4913	1160.6368	1268.9475	1287.958	1341.0337	1394.2927	1423.4862	1466.9079	1629.5586	1878.7078	3134.0572	3153.1719	3226.4768	3232.902	3263.746	3765.5337
OC1CC11OC(=O)C=C1	O[C@H]1C[C@]21OC(=O)C=C2	
InChI=1S/C6H6O3/c7-4-3-6(4)2-1-5(8)9-6/h1-2,4,7H,3H2	InChI=1S/C6H6O3/c7-4-3-6(4)2-1-5(8)9-6/h1-2,4,7H,3H2/t4-,6+/m0/s1
