20
gdb 65146	3.65936	1.05823	0.94118	2.6379	80.01	-0.218	-0.0226	0.1953	1295.6084	0.168974	-403.12254	-403.113645	-403.112701	-403.156225	34.07	
C	-0.1207190533	 1.5151255511	 0.471334854	-0.440244
C	 0.0377212016	 0.0929607772	-0.0283451994	 0.361711
C	 1.4062851761	-0.3373650044	-0.5329980435	-0.313473
C	 0.8651094741	-0.8587963986	 0.7841248269	-0.308044
N	-1.170542894	-0.3882212825	-0.651448102	-0.128432
C	-1.3444900002	-1.7980957695	-1.0626041551	-0.305308
C	-2.0092986457	-1.2738972055	-2.3446888612	 0.396036
O	-2.6340402172	-1.7638834466	-3.235059033	-0.280304
C	-1.5402431061	 0.1417833137	-1.986709541	-0.298228
H	 0.7938440851	 1.8636561187	 0.9592047419	 0.114118
H	-0.3383021238	 2.2025603978	-0.3541549796	 0.117545
H	-0.9456969401	 1.577781494	 1.1878411693	 0.125249
H	 1.4610569547	-1.0377809522	-1.3602652001	 0.109919
H	 2.2159865451	 0.3839201653	-0.5143369757	 0.113092
H	 1.3000524096	-0.4917258901	 1.7076545643	 0.114787
H	 0.5672226816	-1.9012607749	 0.8243348063	 0.117203
H	-0.420555056	-2.3491924712	-1.3023057642	 0.120377
H	-1.9548668871	-2.4113229194	-0.391306178	 0.13272
H	-2.2934831764	 0.936422401	-1.9917885349	 0.132155
H	-0.6837966081	 0.4518992862	-2.608496515	 0.119122
78.111	79.9782	188.8115	223.9813	234.5842	320.3409	341.1884	411.7375	437.1542	477.1041	522.4045	548.6921	723.1749	774.7789	785.5209	801.017	856.0789	928.3808	935.8336	945.318	1025.0533	1040.0355	1053.9096	1061.2594	1082.4452	1094.6238	1108.727	1116.9311	1133.8295	1174.9274	1186.9539	1253.3451	1293.788	1327.4874	1348.6998	1417.9735	1457.9829	1465.8764	1484.1788	1487.5295	1497.2534	1511.4767	1922.1512	2969.4548	2978.9722	3031.4974	3065.7881	3069.7603	3094.4191	3115.2318	3127.7166	3133.0266	3205.433	3219.297
CC1(CC1)N1CC(=O)C1	CC1(CC1)N1CC(=O)C1	
InChI=1S/C7H11NO/c1-7(2-3-7)8-4-6(9)5-8/h2-5H2,1H3	InChI=1S/C7H11NO/c1-7(2-3-7)8-4-6(9)5-8/h2-5H2,1H3
