14
gdb 131572	7.03919	0.62048	0.59412	3.8741	77.29	-0.2439	-0.0301	0.2137	1774.5935	0.10048	-436.638841	-436.630432	-436.629488	-436.673969	28.91	
O	 0.2423067105	 0.9343649549	 0.9226920165	-0.407451
C	-0.0470890249	 0.1544559241	-0.2306649581	-0.229326
C	-1.3986750025	-0.3794118742	-0.1377114856	 0.248404
C	-2.5159954001	-0.8292781321	-0.0829887695	-0.113126
C	-3.815206896	-1.3727967152	-0.004215125	 0.05425
C	-5.0049432357	-0.8295570241	-0.4044212788	-0.037391
O	-6.0149964788	-1.6644388536	-0.1551647754	-0.156136
N	-5.5141626459	-2.8254708124	 0.4373542443	-0.116555
C	-4.2245923173	-2.6419459267	 0.5207964062	-0.083869
H	 1.1410416185	 1.2662117994	 0.8266480978	 0.291798
H	 0.0353710717	 0.7549581585	-1.1514297873	 0.121264
H	 0.6595090911	-0.6851601041	-0.3347479659	 0.121598
H	-5.2603151435	 0.1123357603	-0.8635652163	 0.162948
H	-3.6013015471	-3.4114706748	 0.9526509972	 0.14359
21.287	80.2546	94.904	205.158	223.6592	303.6945	396.7623	478.4846	511.8107	602.6048	617.4076	671.5586	845.4141	882.5054	912.196	926.262	933.433	1024.5622	1039.901	1069.6964	1161.0132	1209.0462	1246.9205	1251.8473	1311.1571	1353.0411	1455.1192	1490.632	1499.6391	1633.5156	2363.0734	2963.4496	2982.6645	3253.6391	3272.9807	3816.2105
OCC#CC1=CON=C1	OCC#Cc1conc1	
InChI=1S/C6H5NO2/c8-3-1-2-6-4-7-9-5-6/h4-5,8H,3H2	InChI=1S/C6H5NO2/c8-3-1-2-6-4-7-9-5-6/h4-5,8H,3H2
