17
gdb 74406	2.63982	1.52647	1.26075	2.4941	75.22	-0.2481	-0.0022	0.246	1071.1467	0.133781	-421.815323	-421.806797	-421.805853	-421.848336	31.763	
C	-0.005032908	 1.4556058348	 0.0872169368	-0.513248
C	-0.0446203369	-0.0312122087	 0.0154299214	 0.346681
C	-0.001385108	-0.885109796	-1.0273869996	-0.249623
C	 0.0462688214	-2.2516381287	-0.3721875244	 0.255033
C	-0.0745526553	-3.5340717142	-1.1384818418	-0.514213
O	-0.8765508861	-2.0801865089	 0.7569806525	-0.297898
C	-0.0270077174	-0.9878034935	 1.1957537448	-0.16084
C	 1.1615789784	-1.9283623436	 0.7203755108	 0.397212
O	 2.2286749854	-2.3021261723	 1.0672275461	-0.304569
H	 0.86967913	 1.8002459566	 0.6525981998	 0.140584
H	 0.0417589022	 1.9010411127	-0.9099453964	 0.133794
H	-0.8886848068	 1.8536406184	 0.6003259195	 0.138298
H	 0.0841394184	-0.6771127894	-2.0847798006	 0.114267
H	 0.6992987298	-3.5817257036	-1.9102912177	 0.135745
H	 0.0459307734	-4.3940459906	-0.47534243	 0.141329
H	-1.0516375868	-3.6019302978	-1.6262578324	 0.138742
H	-0.1957325736	-0.6481829549	 2.2150510812	 0.098706
111.3644	142.6961	149.224	191.0319	222.6935	255.0259	350.3033	427.8017	529.0003	559.8784	603.6869	641.7213	691.878	766.35	810.4749	847.186	871.8162	899.4097	924.9194	983.7124	1034.1602	1058.339	1096.3135	1116.7551	1134.887	1163.3709	1247.3596	1307.9982	1355.6595	1412.7615	1418.8141	1477.5728	1477.8804	1485.4395	1490.7651	1650.2627	1920.4377	3023.3642	3046.737	3072.4864	3114.8313	3117.4198	3128.6564	3159.4495	3231.3546
CC1=CC2(C)OC1C2=O	CC1=C[C@]2(C)O[C@H]1C2=O	
InChI=1S/C7H8O2/c1-4-3-7(2)6(8)5(4)9-7/h3,5H,1-2H3	InChI=1S/C7H8O2/c1-4-3-7(2)6(8)5(4)9-7/h3,5H,1-2H3/t5-,7+/m1/s1
