22
gdb 86296	1.87026	1.51932	1.33914	1.7634	83.35	-0.2108	-0.0289	0.1819	1172.3848	0.191161	-404.338626	-404.328304	-404.32736	-404.373586	37.82	
C	-0.1528883816	 1.3706544883	-0.0254905336	-0.418222
C	 0.0717004316	-0.1004496659	 0.2974817997	-0.022966
C	 1.1300185521	-0.8119878707	-0.584871322	-0.185303
N	 2.1007408187	-0.7012991401	 0.5177505974	-0.093457
C	 3.0867310861	-1.747265839	 0.7088343245	-0.342969
C	 1.0095358322	-0.4240035441	 1.5049597334	 0.216271
C	 1.3603912043	 0.6408459626	 2.5339707046	-0.463278
C	 0.5897429287	-1.7130512697	 2.2113617864	 0.121477
O	-0.2735658296	-2.4672963267	 1.8375710658	-0.257252
H	 0.7940439721	 1.9076708821	-0.1399520215	 0.124249
H	-0.7048221484	 1.4680374542	-0.9665544542	 0.117399
H	-0.7376330965	 1.8727335379	 0.7524676182	 0.115666
H	-0.8761554835	-0.6359640364	 0.3612715766	 0.095864
H	 0.8506718155	-1.8484617014	-0.8267740915	 0.099152
H	 1.443033669	-0.3030926548	-1.5046887081	 0.095068
H	 3.8043640976	-1.7102696232	-0.1183531331	 0.125353
H	 3.6439401088	-1.5748563457	 1.6359740913	 0.12091
H	 2.6655524958	-2.7675715667	 0.7393557849	 0.1074
H	 1.7454371818	 1.5370779637	 2.0447041217	 0.131023
H	 0.4865996095	 0.9135359403	 3.1369482848	 0.122007
H	 2.133603942	 0.2744249415	 3.2195455935	 0.117607
H	 1.1969868938	-1.9541588361	 3.1159749713	 0.074001
63.9199	94.8895	174.4448	186.7348	223.6039	233.0662	237.1161	263.9421	282.4924	333.3932	362.9676	414.2146	453.9778	599.9601	629.277	711.7246	811.0098	884.416	905.6398	921.855	974.7651	991.1731	1036.8665	1079.852	1120.4075	1134.7398	1163.0981	1186.1263	1194.735	1213.3729	1238.8492	1246.8539	1295.0029	1325.5132	1368.3704	1401.5508	1408.9635	1425.9129	1450.8073	1479.8693	1483.676	1487.526	1496.8595	1506.4541	1510.3168	1521.2385	1815.8945	2847.6953	2947.851	2986.8926	3028.7108	3031.9651	3044.0545	3053.0387	3088.5718	3093.359	3094.0808	3096.9899	3115.8619	3133.6467
CC1CN(C)C1(C)C=O	C[C@H]1CN(C)[C@]1(C)C=O	
InChI=1S/C7H13NO/c1-6-4-8(3)7(6,2)5-9/h5-6H,4H2,1-3H3	InChI=1S/C7H13NO/c1-6-4-8(3)7(6,2)5-9/h5-6H,4H2,1-3H3/t6-,7+/m0/s1
