17
gdb 89963	2.9801	1.37067	1.09416	2.0131	68.9	-0.2607	-0.0425	0.2182	1096.5566	0.135206	-458.93024	-458.922204	-458.921259	-458.963227	30.131	
O	 0.4265735344	 0.9677076771	-0.6349026084	-0.432428
C	 0.0584248029	-0.2051133614	 0.0262052851	 0.154895
C	 0.1780357894	-0.2697754763	 1.5881637129	-0.350655
C	-1.3338829206	-0.5796226881	 1.707094888	 0.195857
C	-2.2358839094	 0.6671531739	 1.7246039611	-0.134942
O	-2.1603410892	 0.826996721	 0.2852488648	-0.297336
C	-1.4713112673	-0.4311391923	 0.1399836543	 0.019522
C	-1.7787144047	-1.8093844411	 2.425394308	 0.058576
O	-1.0364589154	-2.6384159495	 2.8899658235	-0.245449
H	-0.2852827852	 1.6012954024	-0.4635985782	 0.288981
H	 0.5712656751	-1.0401811131	-0.4595785292	 0.099697
H	 0.8015424914	-1.0855956656	 1.9572009887	 0.135785
H	 0.491127606	 0.6669582539	 2.0556939463	 0.106892
H	-3.2694560748	 0.4685577383	 2.038014953	 0.114509
H	-1.8504334793	 1.5390119501	 2.2637834314	 0.119296
H	-1.9892560828	-1.1209290019	-0.5308599342	 0.090074
H	-2.8852947904	-1.9337436273	 2.483232113	 0.076727
76.1328	97.7852	197.0218	253.1899	264.9625	354.2409	408.7902	471.8467	491.4484	566.3059	674.7806	722.0035	798.7409	847.169	865.2854	909.9403	958.5799	988.5588	1003.781	1046.8707	1061.2056	1087.5435	1141.9325	1163.6784	1189.6549	1208.8164	1225.8792	1261.2436	1287.8195	1309.0516	1332.458	1365.9332	1427.1963	1442.6784	1471.2412	1517.8529	1815.5849	2860.7166	3010.9142	3069.778	3070.8809	3074.8609	3085.7251	3137.0298	3731.5648
OC1CC2(COC12)C=O	O[C@H]1C[C@]2(CO[C@@H]12)C=O	
InChI=1S/C6H8O3/c7-2-6-1-4(8)5(6)9-3-6/h2,4-5,8H,1,3H2	InChI=1S/C6H8O3/c7-2-6-1-4(8)5(6)9-3-6/h2,4-5,8H,1,3H2/t4-,5-,6+/m0/s1
