19
gdb 53130	3.58487	1.03842	0.91445	0.1478	88.73	-0.2068	0.0489	0.2558	1349.8422	0.158456	-348.651226	-348.642569	-348.641624	-348.686634	32.48	
C	 0.2758715723	 1.6426845956	-0.2075527313	-0.502659
C	 0.1052201681	 0.2012099834	-0.0948219279	 0.13793
C	-0.062161198	-0.9877149338	 0.0179868295	 0.018586
C	-0.1444122022	-2.4246099686	 0.0653432982	-0.204418
C	-0.4491178557	-3.3573329236	 1.2272237164	-0.088855
C	-1.6593452704	-2.9951514616	 2.1308508657	-0.057551
C	-2.3954360144	-1.7420365687	 1.7419281182	-0.307926
C	-2.5655199313	-2.9836563879	 0.9095762769	-0.057536
C	-1.353119953	-3.3458189959	 0.0088458332	-0.088871
H	 1.2699151093	 1.9552748705	 0.1318774576	 0.146361
H	 0.1604329844	 1.9791535024	-1.2441476387	 0.146381
H	-0.4629962967	 2.1804260472	 0.3976053322	 0.146254
H	 0.6525902633	-2.8726623396	-0.5302678912	 0.113178
H	 0.2740929976	-4.1093395836	 1.5183769309	 0.089649
H	-1.8215252611	-3.4886535275	 3.0802076744	 0.087131
H	-3.2506489935	-1.5302495465	 2.3784951604	 0.105642
H	-1.8876129895	-0.8624845537	 1.3733258038	 0.139922
H	-3.5255013325	-3.4670853831	 0.7836525533	 0.087131
H	-1.4288496767	-4.0876387449	-0.7768296017	 0.08965
9.7607	94.5451	98.6828	229.5996	264.1183	363.1274	366.524	427.4481	574.6642	576.9699	700.3991	702.6651	702.7144	754.4657	860.7325	865.0376	894.0662	905.2272	918.833	1000.9647	1012.2693	1030.4205	1052.6873	1053.0033	1053.2996	1071.9197	1082.9083	1088.5126	1099.039	1189.3461	1240.642	1257.6153	1292.5477	1319.6248	1350.9572	1414.2505	1431.3091	1477.6489	1479.1067	1489.3706	2358.1483	3022.6255	3081.9025	3082.4878	3091.7074	3132.2957	3173.3129	3183.8952	3189.7348	3200.35	3240.7935
CC#CC1C2C3CC3C12	CC#C[C@H]1[C@H]2[C@H]3C[C@H]3[C@@H]12	
InChI=1S/C9H10/c1-2-3-5-8-6-4-7(6)9(5)8/h5-9H,4H2,1H3	InChI=1S/C9H10/c1-2-3-5-8-6-4-7(6)9(5)8/h5-9H,4H2,1H3/t5-,6-,7+,8-,9+
