17
gdb 66835	2.76547	1.90383	1.44856	1.0962	70.73	-0.2319	0.0737	0.3056	931.6734	0.135494	-421.738615	-421.731371	-421.730427	-421.769836	29.354	
C	-0.1371130102	 1.531944125	-0.0514334933	-0.525785
C	-0.0131228703	 0.0468855018	 0.0314755225	 0.281505
C	 0.0094737257	-1.0331469213	-1.0471025945	-0.247148
C	 1.0978407123	-1.8774674932	-0.3460123374	 0.078365
O	 0.4352595542	-2.9625534998	 0.3545074011	-0.300843
C	-0.2382027527	-1.9206189027	 1.098504523	-0.011698
C	 0.9220606007	-0.8966680561	 0.8594836146	-0.159192
C	-1.0374019052	-1.0537325812	 0.0848955304	 0.350664
O	-2.3932969761	-0.9426690404	-0.1084030569	-0.470038
H	 0.7859568833	 1.9932674097	-0.42011882	 0.120819
H	-0.9486005905	 1.8122813454	-0.7306236648	 0.133033
H	-0.36145901	 1.967663016	 0.9289301237	 0.124208
H	-0.2803108252	-0.9661022586	-2.0879348009	 0.089422
H	 2.0190318674	-2.1705405104	-0.8477452101	 0.081351
H	-0.6687381624	-2.2381358609	 2.0472344028	 0.0842
H	 1.6828771725	-0.625189294	 1.5873065808	 0.080854
H	-2.6984855037	-1.7193633093	-0.5919269909	 0.29028
177.0868	198.249	232.6769	293.5954	314.1638	364.2632	545.0879	568.192	633.2601	664.3449	746.7425	773.7023	809.7545	826.0931	850.0159	877.895	900.6867	914.3316	930.5265	948.7202	1013.5526	1062.024	1104.415	1114.9487	1150.9083	1160.8103	1168.8928	1194.1763	1218.2825	1253.1249	1285.4387	1316.7387	1360.0101	1416.8286	1484.7237	1491.2075	1507.9184	3024.8383	3083.8383	3100.066	3127.9488	3133.5533	3150.8149	3200.4443	3780.1058
CC12C3C4OC(C14)C23O	C[C@@]12[C@H]3[C@@H]4O[C@@H]([C@H]14)[C@@]23O	
InChI=1S/C7H8O2/c1-6-2-3-4(6)7(6,8)5(2)9-3/h2-5,8H,1H3	InChI=1S/C7H8O2/c1-6-2-3-4(6)7(6,8)5(2)9-3/h2-5,8H,1H3/t2-,3-,4-,5+,6+,7-/m1/s1
