17
gdb 52527	4.22109	0.76464	0.72368	4.1073	83.99	-0.242	-0.056	0.186	1610.4537	0.133385	-421.805657	-421.796072	-421.795128	-421.842413	33.668	
C	-0.0044308665	 1.4222051581	-0.0099024534	-0.505136
C	 0.0176844944	-0.0295051509	 0.0208813232	 0.171135
C	 0.017025077	-1.2364332674	 0.0426705915	-0.028622
C	 0.0253875534	-2.6787522893	 0.0809744157	 0.244362
O	-1.0214500761	-3.3231730225	 0.1252583626	-0.376389
C	 1.3448101185	-3.3329212181	 0.0269263498	-0.198381
C	 1.5038392456	-4.6795595716	 0.748044473	-0.324766
C	 1.3890903734	-4.6946059837	-0.7287258367	 0.156957
O	 0.278243493	-5.1714295662	-1.3854032386	-0.415854
H	 0.9930505435	 1.8438222254	 0.1507788105	 0.158256
H	-0.3712647456	 1.7803178828	-0.9781599811	 0.166028
H	-0.6719559065	 1.817886865	 0.7630386481	 0.165004
H	 2.2076560351	-2.6820914814	-0.039683684	 0.101058
H	 2.4651102651	-4.8664427264	 1.2136679741	 0.122041
H	 0.6360369107	-5.004590218	 1.3127156584	 0.139473
H	 2.2878959385	-4.8580714552	-1.3145447573	 0.117515
H	-0.5014269035	-4.8292238005	-0.9119585458	 0.307319
13.2832	52.6157	84.8616	164.0137	213.5799	253.5799	299.4897	384.5546	392.9224	457.091	500.4366	574.8958	587.5449	710.8187	755.6454	794.2775	832.5325	895.6415	964.6154	1030.4785	1043.5149	1054.3099	1060.5218	1096.8004	1111.4665	1140.1857	1208.179	1235.5813	1361.1699	1400.9237	1409.4623	1449.9497	1469.3276	1473.0437	1487.4962	1685.8306	2340.5408	3032.0062	3095.6392	3099.9209	3131.6377	3168.7542	3190.0006	3228.3214	3611.7957
CC#CC(=O)C1CC1O	CC#CC(=O)[C@H]1C[C@H]1O	
InChI=1S/C7H8O2/c1-2-3-6(8)5-4-7(5)9/h5,7,9H,4H2,1H3	InChI=1S/C7H8O2/c1-2-3-6(8)5-4-7(5)9/h5,7,9H,4H2,1H3/t5-,7-/m1/s1
