16
gdb 98944	4.29583	0.81498	0.68796	5.6333	77.42	-0.2549	-0.0529	0.2021	1544.5289	0.123249	-434.039615	-434.030214	-434.02927	-434.074442	33.835	
O	 0.0810421971	 1.2424832746	 0.6645985751	-0.418954
C	-0.0753989123	-0.1147618753	 0.3958376749	-0.117472
C	-1.5216465385	-0.4355233392	 0.0406933345	 0.37084
N	-2.3599953412	 0.5159135657	 0.0334282271	-0.532232
N	-1.7454151689	-1.7837469002	-0.2413435111	-0.3696
C	-2.9438339501	-2.3838477512	-0.5923429726	 0.265796
N	-4.0322737612	-1.7161422454	-0.7014782647	-0.5193
C	-2.8299996753	-3.8026474071	-0.813978788	 0.256404
C	-2.7571214389	-4.9879560081	-1.0037872673	-0.426708
H	-0.811676079	 1.616781013	 0.5451830464	 0.297729
H	 0.5703392674	-0.4304460818	-0.4423184828	 0.102987
H	 0.216839428	-0.7281845565	 1.2661443489	 0.10297
H	-3.2979016261	 0.2032191072	-0.2152203048	 0.261818
H	-0.9498627902	-2.4004019425	-0.1832910163	 0.266299
H	-4.7995297804	-2.3291485394	-0.9655327317	 0.238465
H	-2.7034836505	-6.035977224	-1.1738819974	 0.22096
60.7231	94.3884	116.6118	122.3296	220.5151	283.8606	334.993	391.3704	429.901	452.3345	501.1261	555.084	599.5434	661.2537	678.5061	714.9981	719.1333	845.1253	888.6118	940.6038	960.8598	1054.8886	1060.8745	1147.9032	1168.0715	1251.56	1284.8151	1329.4701	1385.0789	1483.7954	1514.3092	1548.3709	1668.8626	1747.7668	2231.0538	2951.1722	2964.1121	3489.13	3493.9924	3525.8448	3597.6338	3629.4591
OCC(=N)NC(=N)C#C	OCC(=N)NC(=N)C#C	
InChI=1S/C5H7N3O/c1-2-4(6)8-5(7)3-9/h1,9H,3H2,(H3,6,7,8)	InChI=1S/C5H7N3O/c1-2-4(6)8-5(7)3-9/h1,9H,3H2,(H3,6,7,8)
