19
gdb 65390	3.2275	1.0087	0.90186	4.235	77.98	-0.2459	-0.0197	0.2262	1333.9255	0.156967	-423.003125	-422.993948	-422.993004	-423.03733	33.679	
C	-0.0694338401	 1.7955233911	 0.1781726109	-0.472189
C	-0.0541578324	 0.2891987193	-0.0134529167	 0.278271
C	 1.2013754433	-0.4170057914	-0.3959626534	-0.345708
C	 0.6338568542	-0.6358831583	 1.0034576036	-0.129381
C	 1.3572444127	-0.1035818219	 2.1776146087	 0.155351
O	 1.3331342869	-0.6042025731	 3.275848031	-0.268653
C	-1.3533977128	-0.2436348224	-0.5548563659	 0.020284
C	-1.5656882052	-0.4835648507	-1.9893725082	-0.17644
O	-1.3548046766	-1.5681656967	-1.0788472456	-0.232322
H	 0.8902933904	 2.1761437104	 0.5332471147	 0.127781
H	-0.2907686045	 2.2920601897	-0.7730901921	 0.125926
H	-0.8371075435	 2.0985355337	 0.8987870327	 0.13035
H	 1.1355336152	-1.2652000633	-1.0668145399	 0.142794
H	 2.1089190511	 0.1732511755	-0.4760661322	 0.118415
H	 0.1392349514	-1.5841563588	 1.1842435862	 0.120984
H	 1.963432377	 0.8115312995	 1.9837783262	 0.06301
H	-2.2283663544	-0.0066026891	 0.0537891431	 0.100491
H	-2.5675773045	-0.4180468766	-2.4097312378	 0.122298
H	-0.7496077582	-0.2995794969	-2.6860660953	 0.118738
77.9828	93.8603	139.1084	202.8579	220.4842	258.1465	295.3958	333.4154	380.0421	442.6816	524.9902	563.9849	666.2022	822.7411	860.0212	882.1756	893.2679	934.579	958.9608	1002.2804	1048.2633	1053.433	1074.4197	1088.7901	1108.0584	1116.1938	1155.138	1173.579	1188.8491	1250.2861	1281.986	1308.5855	1380.421	1417.4969	1429.512	1448.3769	1473.6916	1492.6125	1508.2045	1523.9203	1813.223	2857.9428	3034.0209	3087.6253	3091.2403	3093.163	3125.2924	3133.7763	3179.4932	3180.1615	3229.7331
CC1(CC1C=O)C1CO1	C[C@]1(C[C@H]1C=O)[C@H]1CO1	
InChI=1S/C7H10O2/c1-7(6-4-9-6)2-5(7)3-8/h3,5-6H,2,4H2,1H3	InChI=1S/C7H10O2/c1-7(6-4-9-6)2-5(7)3-8/h3,5-6H,2,4H2,1H3/t5-,6+,7+/m0/s1
