19
gdb 42053	2.95152	1.51396	1.10224	1.4401	70.34	-0.2449	0.0695	0.3143	1093.4158	0.161947	-460.134949	-460.127471	-460.126527	-460.167228	28.932	
C	 0.1343045258	 1.5815004656	 0.1182279799	-0.093829
O	 1.4313967274	 1.4814067841	-0.5068041512	-0.293975
C	 1.3079750108	 0.0454738398	-0.6404907217	 0.130615
C	 2.4677215359	-0.6972419299	 0.0183753683	-0.114494
O	 2.1804738071	-2.0823859254	 0.1418820558	-0.232932
C	 1.4630815031	-2.4303705854	 1.2965767502	 0.012037
O	 0.1092913078	-2.0630430098	 1.2979664469	-0.233286
C	-0.1292271597	-0.6687427123	 1.4316422163	-0.110485
C	-0.05892725	 0.0483599221	 0.0884706222	-0.061505
H	 0.1930766187	 2.0393137691	 1.1145913856	 0.100677
H	-0.5704133484	 2.1573384155	-0.493242753	 0.10576
H	 1.2362433235	-0.2505528748	-1.6947190369	 0.084994
H	 3.367614919	-0.6078301983	-0.5985062171	 0.115514
H	 2.6901218284	-0.2495755779	 0.9982090663	 0.095301
H	 1.47797731	-3.5211828078	 1.3435773512	 0.119335
H	 1.9633636648	-1.9994590223	 2.1835186027	 0.080161
H	-1.1320710015	-0.5640086364	 1.859756551	 0.112552
H	 0.5807001522	-0.2286048155	 2.1498795012	 0.092674
H	-0.8815170251	-0.2910317704	-0.5436565777	 0.090887
71.2977	167.2324	215.8835	310.3386	332.3923	402.0025	423.3175	455.7878	574.6294	612.3931	777.6223	792.2348	883.5716	939.1606	955.0488	988.2539	989.2725	1021.2164	1042.9079	1058.888	1076.1555	1114.8213	1156.1996	1166.9773	1190.6837	1194.8563	1251.19	1265.5483	1273.6162	1298.4246	1341.4992	1346.1922	1363.1186	1389.8141	1402.5439	1412.4393	1448.1819	1492.4065	1495.1252	1512.6101	1525.9637	2933.7829	2979.8897	3001.0594	3009.5518	3023.419	3052.1993	3064.3829	3079.8374	3096.4238	3113.9413
C1OC2COCOCC12	C1O[C@H]2COCOC[C@@H]12	
InChI=1S/C6H10O3/c1-5-2-9-6(5)3-8-4-7-1/h5-6H,1-4H2	InChI=1S/C6H10O3/c1-5-2-9-6(5)3-8-4-7-1/h5-6H,1-4H2/t5-,6-/m0/s1
