12
gdb 53782	2.52677	1.2667	1.08063	5.8798	63.64	-0.2763	-0.1067	0.1697	1114.2776	0.075192	-468.824597	-468.815362	-468.814418	-468.85965	31.029	
N	-0.0084679479	 1.2110862669	-0.3495082043	-0.546927
C	-0.0961896313	-0.1375782292	-0.2640988682	 0.293259
N	 0.6187380224	-1.0794840399	-0.7581476935	-0.500822
C	-1.2580663062	-0.6275392223	 0.5546268953	 0.317644
O	-2.0209317857	 0.0907765571	 1.1474747405	-0.29207
C	-1.388214739	-2.1664501327	 0.6337581547	 0.260876
O	-1.1726915861	-2.7614057066	 1.6545512485	-0.249579
C	-1.9081584672	-2.8207940062	-0.5747785	 0.244412
N	-2.3637427473	-3.2998162826	-1.5236330053	-0.305825
H	 0.7919202624	 1.6611496653	-0.7583099608	 0.269407
H	-0.6373245613	 1.7582334712	 0.2178579349	 0.282056
H	 1.4144780374	-0.749834871	-1.3059718518	 0.22757
40.1933	73.454	129.9915	159.3186	214.0064	266.0079	282.2436	331.1944	401.3925	451.9024	478.2617	535.755	628.7408	676.8773	737.5905	826.8726	884.7269	989.9348	1069.7323	1129.1405	1173.1486	1439.1773	1611.4644	1722.9338	1798.9713	1820.557	2337.2781	3475.4097	3592.8578	3726.2197
NC(=N)C(=O)C(=O)C#N	NC(=N)C(=O)C(=O)C#N	
InChI=1S/C4H3N3O2/c5-1-2(8)3(9)4(6)7/h(H3,6,7)	InChI=1S/C4H3N3O2/c5-1-2(8)3(9)4(6)7/h(H3,6,7)
