17
gdb 56300	7.08536	0.52666	0.49474	4.2414	70.86	-0.2601	0.0106	0.2706	2067.775	0.133508	-455.176801	-455.166213	-455.165268	-455.215402	34.626	
N	-0.1402298833	 1.3217288125	 0.0095830064	-0.526408
C	 0.04044813	-0.0291566961	 0.0008079724	 0.41912
O	 1.1432963933	-0.5430265196	-0.0122706416	-0.357685
C	-1.2485006491	-0.845728683	 0.0086681821	-0.337735
C	-0.9562545087	-2.3374668494	-0.0017955278	-0.048101
O	-2.205194999	-3.0146671713	 0.0063921189	-0.245659
C	-2.051997265	-4.4100595729	-0.0022809979	-0.185817
C	-3.3756651578	-5.0409323279	 0.0068507771	 0.263223
N	-4.4044133681	-5.5645930241	 0.0137754397	-0.292847
H	 0.673801028	 1.9137955889	 0.0050265163	 0.264164
H	-1.0506496633	 1.7463145912	 0.0204050982	 0.262007
H	-1.8438900906	-0.5917828595	 0.8935077012	 0.135777
H	-1.8603435026	-0.5826955613	-0.8621821602	 0.135783
H	-0.3724480606	-2.6085543991	-0.8928304223	 0.115447
H	-0.3558912852	-2.6177162637	 0.8752950331	 0.115443
H	-1.5049702139	-4.7547246171	-0.8954418183	 0.141645
H	-1.4883630241	-4.7639169975	 0.8768496326	 0.141644
17.7732	41.9359	81.9911	99.5043	105.3574	126.1315	173.1726	311.5988	324.8916	386.3521	487.0639	506.4032	555.605	629.3864	641.0743	819.4815	859.5739	949.744	1026.0636	1032.451	1072.3719	1083.3301	1119.2966	1156.2412	1213.5976	1254.7936	1259.6023	1304.5346	1371.2146	1401.6953	1446.5547	1474.0117	1495.6607	1520.023	1619.0506	1793.3453	2374.5324	2969.0556	2993.2598	3001.0816	3034.1226	3041.1103	3081.9639	3605.3038	3741.9
NC(=O)CCOCC#N	NC(=O)CCOCC#N	
InChI=1S/C5H8N2O2/c6-2-4-9-3-1-5(7)8/h1,3-4H2,(H2,7,8)	InChI=1S/C5H8N2O2/c6-2-4-9-3-1-5(7)8/h1,3-4H2,(H2,7,8)
