13
gdb 18548	4.35093	2.05671	1.62142	3.169	58.08	-0.2459	-0.0395	0.2064	754.6103	0.096523	-398.612556	-398.606506	-398.605562	-398.643053	22.737	
O	-0.0223757702	 0.0584535378	-0.6054601593	-0.271801
C	-0.0016452071	 1.1583202836	-0.1484782692	 0.409302
C	-1.0929546302	 2.1244041802	 0.3734876411	-0.376477
C	 0.000069781	 3.2034246629	 0.5637727448	 0.071727
O	 0.3247943651	 3.4667998242	 1.9433080033	-0.220599
C	 1.3776362336	 2.6579419126	 2.224551627	 0.116875
N	 1.9007360349	 1.9429076082	 1.3134522395	-0.252041
C	 1.1210014287	 2.2080714042	 0.0998397751	-0.136552
H	-1.8581264755	 2.3568310974	-0.3729128019	 0.143198
H	-1.5876468067	 1.8090043647	 1.2965609941	 0.148297
H	-0.1454462067	 4.1541805399	 0.0541077939	 0.107091
H	 1.7145829517	 2.7016365284	 3.2539240019	 0.152256
H	 1.7644001915	 2.435096116	-0.7535886704	 0.108724
80.4868	207.6482	340.9742	435.3966	479.8596	573.6603	606.9505	744.3028	777.787	843.6564	874.7825	914.0502	951.909	958.6346	1012.1366	1052.1749	1052.6514	1115.7544	1120.6759	1179.4673	1238.5606	1244.0289	1256.9503	1314.8532	1356.0702	1423.0641	1676.8517	1907.1627	3063.4786	3087.0209	3118.5196	3135.7858	3223.251
O=C1CC2OC=NC12	O=C1C[C@H]2OC=N[C@@H]12	
InChI=1S/C5H5NO2/c7-3-1-4-5(3)6-2-8-4/h2,4-5H,1H2	InChI=1S/C5H5NO2/c7-3-1-4-5(3)6-2-8-4/h2,4-5H,1H2/t4-,5+/m1/s1
