19
gdb 114298	2.29691	1.38676	1.04901	0.7973	81.22	-0.2437	0.0455	0.2892	1196.1504	0.158336	-385.816219	-385.807297	-385.806353	-385.849842	33.957	
O	-0.2235206079	 1.5697339417	-0.0128309478	-0.426665
C	-0.0004694698	 0.1769813575	 0.1847092993	-0.109591
C	-1.331847462	-0.5177933072	-0.0290189406	 0.039728
C	-1.947211161	-0.6440157201	-1.4643069516	-0.261855
C	-2.1597818245	-2.143124197	-1.2117321308	-0.068973
C	-0.8350850044	-2.8432230689	-0.9970489605	-0.194218
C	 0.3665444583	-2.5326911353	-1.7210811895	 0.330109
C	 1.3678394458	-2.3258050089	-2.3566395398	-0.456144
C	-1.4524338171	-2.0383299615	 0.1374038164	-0.119197
H	 0.629517711	 2.0128479371	-0.0071758723	 0.285404
H	 0.7521314703	-0.2100962166	-0.5124272345	 0.106255
H	 0.3551148213	-0.0284507267	 1.2088565118	 0.078732
H	-2.0653404885	-0.0330117818	 0.6234250939	 0.087873
H	-2.8740471383	-0.0806684657	-1.5788637139	 0.107254
H	-1.2804727266	-0.4036305839	-2.2969202031	 0.112816
H	-3.0424421975	-2.7127158458	-1.4764526081	 0.091925
H	-0.9603971689	-3.9106273996	-0.8251404413	 0.114397
H	 2.2533009108	-2.1336205856	-2.9100221456	 0.193546
H	-1.6844355809	-2.5426005216	 1.069002808	 0.088606
84.3423	127.29	135.0414	181.3918	237.7005	273.4855	348.2522	421.3044	442.1092	539.6443	587.1927	597.6485	646.7323	731.1766	762.6533	792.5554	836.9292	883.5341	934.0427	972.232	989.8016	1004.7274	1034.117	1068.4738	1074.5435	1101.4302	1119.343	1166.1041	1181.6991	1225.3579	1252.226	1270.4415	1273.0321	1302.3906	1335.6101	1375.7814	1413.7844	1462.0267	1488.0137	1524.2465	2227.6388	2958.2051	3044.5426	3063.1366	3067.7134	3126.264	3126.9505	3167.4288	3184.9281	3503.4128	3832.9289
OCC1CC2C(C#C)C12	OC[C@H]1C[C@H]2[C@@H](C#C)[C@@H]12	
InChI=1S/C8H10O/c1-2-6-7-3-5(4-9)8(6)7/h1,5-9H,3-4H2	InChI=1S/C8H10O/c1-2-6-7-3-5(4-9)8(6)7/h1,5-9H,3-4H2/t5-,6-,7+,8-/m1/s1
