17
gdb 15533	3.44022	1.90471	1.25998	3.4154	73.88	-0.2063	0.0032	0.2095	951.0106	0.142954	-363.907723	-363.899854	-363.898909	-363.940245	28.497	
C	-0.099872855	 1.5354020229	-0.0128708373	-0.468319
C	-0.0347686413	 0.0437435965	-0.0511595015	 0.372457
C	-0.0473225744	-0.7567551147	-1.1226770937	-0.206971
C	 0.0866143221	-2.209084839	-0.7348507761	-0.272297
C	-0.0708663661	-2.1596287411	 0.8048044044	-0.179363
N	 0.0526751395	-0.7262230416	 1.1378954623	-0.109462
C	 0.2017080032	-0.2843975631	 2.4181144889	 0.138484
O	 0.2905344688	 0.8708184419	 2.7820943333	-0.339258
H	 0.7875657724	 1.9614923537	 0.460764787	 0.15447
H	-0.1853532692	 1.9181523296	-1.0328332567	 0.116198
H	-0.9550100778	 1.8823852146	 0.5736641588	 0.146458
H	-0.0995859601	-0.4051206619	-2.1433258374	 0.099247
H	-0.6731829695	-2.8513641711	-1.1914116078	 0.115131
H	 1.0616984518	-2.6180428151	-1.0321095368	 0.115413
H	-1.0579260915	-2.5262479948	 1.1095637045	 0.122126
H	 0.685762296	-2.7431323292	 1.3344421272	 0.124171
H	 0.2382316311	-1.1364542076	 3.1268517906	 0.071513
55.5876	154.4285	208.8175	233.5293	244.635	270.0528	365.2575	476.2194	579.083	651.6678	731.604	766.1946	807.6567	863.0754	936.4351	995.5776	1023.9026	1042.2333	1063.1393	1076.7761	1118.4154	1199.114	1229.8241	1261.2757	1282.6979	1325.6173	1347.5825	1422.1513	1433.659	1451.6768	1470.014	1476.2718	1496.8514	1519.498	1717.0915	1790.4778	2924.2739	3011.0655	3029.8131	3052.0219	3064.4392	3096.6951	3117.5055	3132.702	3233.1551
CC1=CCCN1C=O	CC1=CCCN1C=O	
InChI=1S/C6H9NO/c1-6-3-2-4-7(6)5-8/h3,5H,2,4H2,1H3	InChI=1S/C6H9NO/c1-6-3-2-4-7(6)5-8/h3,5H,2,4H2,1H3
