22
gdb 87992	2.61198	1.23966	1.19529	1.9975	82.13	-0.2398	0.067	0.3068	1221.8257	0.191847	-404.318632	-404.308706	-404.307762	-404.352999	37.384	
C	-0.0671482793	 1.4558208449	-0.180615246	-0.397109
C	 0.1230566865	-0.0331436074	-0.0232970269	-0.072533
N	 1.5203472888	-0.5241168439	 0.0195203332	-0.384109
C	 0.6780038872	-0.6423352179	 1.2026011918	 0.235823
C	 1.0108303607	-0.0476644359	 2.5620059014	-0.13861
O	 0.5600275106	-1.2529536446	 3.2190394263	-0.332844
C	 0.249801832	-1.9173321683	 1.9562273532	 0.343028
C	-1.2290564396	-2.2760083997	 1.8905249167	-0.425609
C	 1.1524721481	-3.1284706039	 1.7512463654	-0.432713
H	 0.6906656599	 2.0025572901	 0.3870275961	 0.127535
H	 0.0223821649	 1.7513856666	-1.2312430244	 0.122482
H	-1.0567963322	 1.7635619685	 0.1744077474	 0.117399
H	-0.5906470106	-0.6459720293	-0.5740653984	 0.082754
H	 1.6026474598	-1.4220681399	-0.4527199543	 0.229227
H	 2.077112212	 0.147502205	 2.7297307039	 0.107607
H	 0.4291521851	 0.8307365553	 2.8692860053	 0.10095
H	-1.8494671763	-1.3910219875	 2.05363753	 0.120021
H	-1.4877933673	-2.7087706059	 0.9178780308	 0.11055
H	-1.4715482922	-3.0125135725	 2.6636401264	 0.124031
H	 0.9545254197	-3.8761647319	 2.5256336681	 0.126938
H	 0.9703355796	-3.5979908079	 0.7775919041	 0.10801
H	 2.2062855128	-2.843618424	 1.8097169399	 0.12717
70.6003	133.1122	174.5882	185.1496	196.5374	233.146	264.0249	276.6342	343.4675	386.0714	443.414	482.1735	522.4605	563.4557	674.4095	797.2936	855.1759	859.8905	926.9767	935.134	974.3121	991.0969	1006.2018	1011.5518	1045.7753	1075.358	1085.5216	1118.0267	1151.1847	1173.0002	1213.7507	1221.0172	1256.0397	1300.4558	1312.2298	1372.0145	1396.3978	1410.0063	1411.1863	1473.0123	1475.919	1479.7349	1489.8697	1495.1806	1498.8273	1513.3843	1521.0032	3011.1966	3029.7116	3034.0573	3035.758	3054.9717	3096.7922	3097.6721	3100.9702	3104.4721	3118.5052	3120.4696	3122.5956	3488.284
CC1NC11COC1(C)C	C[C@H]1N[C@]21COC2(C)C	
InChI=1S/C7H13NO/c1-5-7(8-5)4-9-6(7,2)3/h5,8H,4H2,1-3H3	InChI=1S/C7H13NO/c1-5-7(8-5)4-9-6(7,2)3/h5,8H,4H2,1-3H3/t5-,7+/m1/s1
