18
gdb 16062	3.08179	1.76839	1.41126	1.19	67.66	-0.2334	0.0679	0.3013	949.5175	0.153015	-384.890982	-384.882782	-384.881838	-384.923588	30.42	
C	 0.1754998639	 1.7088822781	 0.3592742677	-0.42071
C	 0.0293612123	 0.203864192	 0.3821095578	-0.076346
C	 1.0213813857	-0.7781174654	-0.2330323065	-0.195733
C	 2.446740879	-0.3288884097	 0.0559986419	-0.097532
O	 2.1554712508	-0.1773805282	 1.4742726826	-0.32237
C	 0.8350106138	-0.702656776	 1.2686731484	 0.415228
C	 0.3312541467	-1.6461581426	 2.3275808561	-0.180746
O	-1.0166489554	-2.0330609673	 2.128730691	-0.406565
H	 1.1719399663	 2.0077003926	 0.6934127589	 0.13663
H	 0.0086920132	 2.1131715206	-0.6448708419	 0.116422
H	-0.550011973	 2.1793488561	 1.0317263252	 0.112756
H	-0.984913895	-0.1666220568	 0.2457737456	 0.089073
H	 0.7266503034	-1.5440849592	-0.9378336086	 0.101196
H	 3.1926648094	-1.1168093675	-0.0960067721	 0.111089
H	 2.7999378585	 0.6047645553	-0.3968615262	 0.104436
H	 0.9204059376	-2.5691846886	 2.3194863404	 0.121273
H	 0.4882421409	-1.1739034632	 3.3109607079	 0.10426
H	-1.5674939481	-1.25940795	 2.2848344719	 0.287637
69.6787	163.8174	192.6784	206.6253	262.1109	268.8223	331.8226	430.3013	479.3845	586.3854	669.2055	746.1039	768.0406	882.3641	923.5967	968.4875	980.1084	988.4272	1020.274	1044.3283	1084.9518	1097.7258	1126.6219	1145.4955	1155.2959	1174.6709	1219.0111	1262.7853	1321.7068	1334.7624	1384.0685	1407.7531	1417.0859	1470.9059	1494.266	1499.3745	1508.9142	1521.7349	2978.2609	3026.6359	3035.1085	3071.0365	3074.0215	3091.0206	3120.743	3138.5826	3200.7719	3819.8581
CC1C2COC12CO	C[C@H]1[C@H]2CO[C@@]12CO	
InChI=1S/C6H10O2/c1-4-5-2-8-6(4,5)3-7/h4-5,7H,2-3H2,1H3	InChI=1S/C6H10O2/c1-4-5-2-8-6(4,5)3-7/h4-5,7H,2-3H2,1H3/t4-,5+,6-/m0/s1
