22
gdb 116919	5.17039	0.54372	0.51416	1.59	95.09	-0.218	0.0409	0.2589	2231.4683	0.192347	-367.161854	-367.151149	-367.150205	-367.199457	37.802	
C	-0.0841459497	 1.5975338362	 0.1016335354	-0.381821
C	-0.0502812519	 0.0691914322	 0.0438826335	-0.152635
C	 0.6911805177	-0.4535947529	-1.2042145399	-0.337172
C	 0.7346721174	-1.9096975185	-1.2767987685	 0.000662
C	 0.7438845727	-3.1153838781	-1.3143703249	 0.160114
C	 0.7950193773	-4.5526247428	-1.3244804263	-0.177469
C	-0.0291236967	-5.3332664001	-2.3077565948	-0.239153
N	 1.4168550384	-5.3097062963	-2.4301912363	-0.079271
C	 1.9744886419	-4.5589456487	-3.5472332326	-0.307804
H	 0.9276498306	 2.017058093	 0.1320986171	 0.116284
H	-0.590003555	 2.0174613899	-0.7750393618	 0.115768
H	-0.6159670002	 1.9471360588	 0.9915379471	 0.115424
H	 0.4378573668	-0.3319116792	 0.939029139	 0.109819
H	-1.0699635703	-0.3316772331	 0.042934226	 0.109533
H	 0.2056932223	-0.0545902021	-2.1053697651	 0.124563
H	 1.7136891963	-0.0514836809	-1.2110667692	 0.125077
H	 0.9811336644	-5.0044677813	-0.3523294884	 0.11013
H	-0.4717820711	-6.2809045717	-2.0113352354	 0.116522
H	-0.6159133626	-4.7487085593	-3.0146689143	 0.113686
H	 1.4126199318	-3.6467072965	-3.7960120153	 0.11172
H	 3.0034149164	-4.272285841	-3.3094979381	 0.125089
H	 1.9936463235	-5.2114392177	-4.4256833472	 0.120935
20.273	64.544	73.7697	137.1316	140.8465	206.2798	240.2975	299.514	307.5374	337.286	378.2714	479.4461	531.5965	571.8788	719.2728	744.763	772.4659	870.2113	873.5943	895.2999	975.4793	1028.8584	1041.5478	1069.5788	1107.5254	1113.2061	1121.7643	1127.8974	1160.8465	1199.6923	1208.3184	1259.0198	1305.29	1321.463	1322.5066	1374.1389	1384.4544	1412.6907	1447.8329	1475.4779	1488.3284	1492.1243	1493.7232	1498.7317	1505.9824	1509.2328	2355.5831	2994.8793	3006.7468	3030.0628	3033.3509	3042.1873	3073.8352	3076.4218	3091.0309	3100.7673	3106.0722	3107.7036	3121.9865	3179.9068
CCCC#CC1CN1C	CCCC#C[C@H]1CN1C	
InChI=1S/C8H13N/c1-3-4-5-6-8-7-9(8)2/h8H,3-4,7H2,1-2H3	InChI=1S/C8H13N/c1-3-4-5-6-8-7-9(8)2/h8H,3-4,7H2,1-2H3/t8-,9?/m0/s1
