20
gdb 113105	4.04014	0.7546	0.71884	4.3422	78.78	-0.248	0.0309	0.2789	1628.1596	0.170054	-440.288419	-440.278805	-440.277861	-440.324188	34.297	
C	-0.0158501185	 1.311602739	-0.3284237697	-0.23721
O	-0.1292255987	 0.0846096807	 0.3564102609	-0.243815
C	-1.3787913188	-0.5431532061	 0.1820042538	 0.137663
C	-1.514047667	-1.3144224268	-1.1669001636	-0.280966
C	-1.0130933678	-2.5880104325	-0.4288410837	 0.079208
C	-1.3643940554	-1.901054522	 0.9199920705	-0.272388
N	-1.6163199282	-3.8592108567	-0.7400135118	-0.29041
C	-0.9153316906	-4.9517554149	-1.1539406651	 0.150125
O	 0.2855316068	-4.9997814895	-1.3104549283	-0.319067
H	 0.9750848277	 1.7148855093	-0.107326858	 0.130649
H	-0.1126378746	 1.1929398136	-1.4178317178	 0.107162
H	-0.7777110336	 2.0329686948	 0.006994655	 0.104175
H	-2.1920294061	 0.154002536	 0.4282073488	 0.0635
H	-2.5616442132	-1.4080625114	-1.4719819588	 0.092923
H	-0.9273648294	-0.9581220893	-2.0164341193	 0.114368
H	 0.0620226074	-2.7197458283	-0.5441813361	 0.136625
H	-0.6513452642	-1.9919301647	 1.7412210246	 0.121849
H	-2.3632629312	-2.1791191087	 1.2704972333	 0.093779
H	-2.6174069264	-3.9502559578	-0.6566523314	 0.241009
H	-1.5830710881	-5.8178649449	-1.3363637231	 0.07082
38.0728	56.5521	121.9329	170.736	197.9638	219.1209	277.3178	314.6809	405.3937	442.1092	471.7109	538.0496	653.8412	798.2088	802.1011	835.3955	926.3169	930.7813	970.4162	996.2272	1031.9658	1073.5249	1086.5661	1122.4578	1154.6975	1183.6747	1188.0128	1212.9645	1234.5847	1258.4285	1267.8033	1277.4307	1293.664	1360.5672	1385.037	1433.6849	1455.8072	1480.9839	1482.2376	1488.6632	1509.7131	1533.5801	1808.4838	2928.9046	2975.5326	2997.8485	3024.8247	3050.6853	3060.29	3113.4031	3117.5392	3125.0916	3141.3668	3617.9972
COC1CC(C1)NC=O	CO[C@H]1C[C@@H](C1)NC=O	
InChI=1S/C6H11NO2/c1-9-6-2-5(3-6)7-4-8/h4-6H,2-3H2,1H3,(H,7,8)	InChI=1S/C6H11NO2/c1-9-6-2-5(3-6)7-4-8/h4-6H,2-3H2,1H3,(H,7,8)/t5-,6-
