17
gdb 5622	3.15527	1.85078	1.18636	1.8544	71.12	-0.188	0.0364	0.2244	1007.8373	0.142623	-363.884164	-363.876046	-363.875102	-363.916573	29.854	
C	 0.0490381871	 1.4180313181	 0.0589626017	-0.325502
N	-0.1104044517	-0.0217358458	-0.0357659534	-0.383223
C	 0.5778920368	-0.6722435673	-1.0583139413	 0.17802
C	 1.2079074355	-0.1347048395	-2.1438173424	-0.096985
O	 1.6937959315	-1.1333725359	-2.9474401655	-0.157261
C	 1.3759368841	-2.3048916168	-2.3486067726	-0.086913
C	 0.6917663669	-2.1064391111	-1.1913298961	 0.162216
C	 0.1493572845	-3.1301330981	-0.2455772241	-0.517088
H	 1.1006270273	 1.7400845277	 0.1386061317	 0.10938
H	-0.3780565316	 1.8911561689	-0.8324047695	 0.132932
H	-0.4986928568	 1.7879122748	 0.9288650605	 0.12157
H	-0.0114294337	-0.4882695862	 0.8553218467	 0.232507
H	 1.3760179754	 0.8704982581	-2.4875718994	 0.121822
H	 1.6966257	-3.1992679244	-2.8588164223	 0.127951
H	 0.6129998516	-3.0597053394	 0.747331496	 0.119537
H	-0.931228747	-3.0106591242	-0.1034125239	 0.133535
H	 0.3291323001	-4.1429439588	-0.6160056561	 0.127503
100.4796	150.4154	173.3091	203.2387	252.2463	277.3726	356.5389	489.5448	564.6381	604.1525	625.4062	642.8065	714.0472	760.5981	762.8743	893.9815	1008.3646	1065.1465	1071.0692	1077.7472	1142.2025	1162.2578	1206.8605	1215.62	1261.0708	1333.8159	1384.5724	1419.0966	1458.7619	1480.1157	1481.2802	1496.1869	1504.1686	1524.2636	1598.9692	1675.7952	2967.2791	3014.9872	3059.8967	3063.3865	3110.5857	3117.7983	3264.3371	3292.6211	3574.3954
CNC1=COC=C1C	CNc1cocc1C	
InChI=1S/C6H9NO/c1-5-3-8-4-6(5)7-2/h3-4,7H,1-2H3	InChI=1S/C6H9NO/c1-5-3-8-4-6(5)7-2/h3-4,7H,1-2H3
