20
gdb 90501	2.66568	1.23091	1.11252	3.9081	81.98	-0.2349	0.0071	0.242	1215.5184	0.169498	-403.136549	-403.127365	-403.126421	-403.170279	34.254	
C	-0.3340310663	 1.4885141483	-0.0794850969	-0.411474
C	-0.0000575579	 0.00499955	-0.0430353214	-0.025362
C	 1.1408818586	-0.5402876343	-0.9823691967	-0.264208
C	 1.8761775103	-1.0574773061	 0.258302518	-0.086403
N	 2.111540799	 0.0923291722	 1.1143924137	-0.10186
C	 3.0426347982	 0.1196858449	 2.1303546936	 0.126442
O	 4.152118625	-0.3590331963	 2.0757962127	-0.302799
C	 0.789344992	-0.5363292739	 1.1734497016	 0.310278
C	 0.2188632482	-1.0772578444	 2.4483593676	-0.510404
H	 0.5643610482	 2.0869515973	 0.0971549357	 0.132203
H	-0.7474162287	 1.7731082526	-1.0527526931	 0.118045
H	-1.0755206044	 1.7493749686	 0.684010858	 0.112923
H	-0.9052727427	-0.5963858171	-0.1770530237	 0.078119
H	 0.7960870084	-1.3371939439	-1.64423184	 0.108712
H	 1.6880549652	 0.2055065106	-1.5642991737	 0.113124
H	 2.5094372489	-1.9297732096	 0.3651573536	 0.119155
H	 2.6858260158	 0.7152806373	 2.9930433488	 0.078822
H	-0.1904622095	-0.2764864753	 3.0753066928	 0.133637
H	-0.5949249091	-1.7768651377	 2.2328656024	 0.131423
H	 0.9795603208	-1.6056318934	 3.0316333269	 0.139626
86.4461	142.1043	172.8888	202.9283	226.0425	237.1933	258.3586	296.258	368.6298	478.0291	503.8747	600.8951	669.817	736.5621	782.0821	849.7286	869.5836	916.322	951.186	974.1312	1020.2662	1035.6712	1052.5259	1092.254	1115.2947	1130.8197	1179.7108	1196.504	1234.4783	1260.1849	1275.351	1322.8037	1371.8464	1405.5722	1411.2624	1420.2251	1447.4964	1481.1883	1484.1114	1493.9448	1498.7279	1503.6622	1784.6622	2943.7446	3029.0904	3031.8316	3051.5201	3067.9736	3090.9728	3094.662	3109.1632	3115.1731	3125.7665	3199.5576
CC1CC2N(C=O)C12C	C[C@H]1C[C@H]2N(C=O)[C@@]12C	
InChI=1S/C7H11NO/c1-5-3-6-7(5,2)8(6)4-9/h4-6H,3H2,1-2H3	InChI=1S/C7H11NO/c1-5-3-6-7(5,2)8(6)4-9/h4-6H,3H2,1-2H3/t5-,6+,7-,8?/m0/s1
