21
gdb 106890	2.6965	1.23852	1.03302	3.4531	83.53	-0.2329	-0.006	0.2269	1260.0113	0.181222	-387.095178	-387.085749	-387.084805	-387.12939	35.35	
C	-0.3119375984	 1.4909078211	-0.0176810225	-0.376327
C	 0.0967100954	 0.0126657791	 0.0559640254	-0.29558
C	 0.7703795563	-0.4769241311	-1.1976771823	 0.368488
C	 0.0322772975	-0.9990784456	-2.3803225331	-0.332604
C	 0.9759453666	-1.9528016974	-1.6498946375	-0.252487
C	 2.3838022574	-1.615955274	-2.0253369066	 0.423131
O	 3.3370512399	-2.2621020555	-2.3620089088	-0.329164
C	 2.2227906846	-0.12576638	-1.6105054601	-0.172413
C	 2.5285364016	 0.9887015719	-2.6044456392	-0.421698
H	 0.5594759937	 2.1362199301	-0.1686277367	 0.122918
H	-1.004168363	 1.667035291	-0.8473170159	 0.120478
H	-0.8042303027	 1.8069545053	 0.906930457	 0.116286
H	 0.7683896539	-0.1390254133	 0.9109615652	 0.102768
H	-0.7913649051	-0.6022412608	 0.2482275511	 0.100722
H	-1.0177853924	-1.2274798322	-2.2219130155	 0.122131
H	 0.259931631	-0.6748831016	-3.3912309645	 0.122032
H	 0.6150698016	-2.8793141554	-1.2193093597	 0.106594
H	 2.8377511587	 0.0030705222	-0.7091106095	 0.099059
H	 1.8887544892	 0.9350403729	-3.4903171559	 0.118937
H	 2.392811668	 1.9766634631	-2.1528427254	 0.120172
H	 3.5674790661	 0.9123968002	-2.9404730855	 0.136557
72.9375	97.603	168.607	192.6606	210.1783	231.4502	262.3236	336.35	376.1305	483.8835	485.6978	592.6276	674.2528	705.6181	768.5285	787.9816	806.3901	886.8439	920.7924	961.1449	982.1423	1011.0121	1048.6513	1064.8441	1078.1042	1090.9005	1105.3026	1112.4252	1149.9408	1192.2698	1232.6748	1246.6358	1319.0454	1343.8605	1360.0242	1400.8903	1406.6368	1417.1542	1479.8664	1491.3346	1496.3805	1499.6306	1505.9668	1508.551	1877.0475	3017.3824	3021.5147	3036.2398	3037.7291	3052.1641	3103.081	3107.4875	3109.1146	3110.5714	3119.9314	3188.2868	3200.4847
CCC12CC1C(=O)C2C	CC[C@]12C[C@H]1C(=O)[C@H]2C	
InChI=1S/C8H12O/c1-3-8-4-6(8)7(9)5(8)2/h5-6H,3-4H2,1-2H3	InChI=1S/C8H12O/c1-3-8-4-6(8)7(9)5(8)2/h5-6H,3-4H2,1-2H3/t5-,6+,8-/m1/s1
