17
gdb 114160	4.87499	0.9313	0.87798	3.5569	74.22	-0.2688	-0.0095	0.2593	1306.2168	0.136234	-417.964581	-417.956163	-417.955218	-417.997883	31.268	
O	 0.7653615227	-0.8125154742	-1.0571501637	-0.415162
C	 0.1419056838	-0.0804420409	-0.0203830851	-0.077585
C	-1.3501920253	-0.3525245771	 0.0242131252	 0.050924
C	-2.2884083287	 0.4274922345	 0.9823721376	-0.352922
C	-3.0598999185	 0.8548944977	-0.2723170941	 0.215374
C	-2.1627777653	 1.5555472546	-1.2193808558	-0.277311
N	-2.1267140138	 0.0848246046	-1.2109158519	-0.181413
C	-4.4854494455	 0.8390131478	-0.4042290866	 0.208686
N	-5.6401548773	 0.8382370884	-0.4750441403	-0.332651
H	 0.2794672506	-0.6350942344	-1.8706789532	 0.297649
H	 0.5973078949	-0.4145083745	 0.9188261837	 0.120471
H	 0.3470710611	 0.9990548131	-0.1068335125	 0.087861
H	-1.5002537762	-1.4309285621	 0.1111684343	 0.113528
H	-2.8560690827	-0.2209792411	 1.649005344	 0.140573
H	-1.8609426275	 1.2508674221	 1.5610095634	 0.121115
H	-2.6068503688	 1.9516287693	-2.1264228355	 0.150705
H	-1.3353701934	 2.1370786024	-0.8210705896	 0.130158
85.4398	95.3528	150.9189	221.9566	265.0925	341.668	380.6609	403.9096	501.6375	562.9832	565.5049	601.1416	706.23	792.5756	807.7348	874.5622	948.8475	964.816	1006.5332	1049.4434	1083.0884	1107.5206	1115.6446	1134.9713	1175.5823	1223.6538	1230.0382	1262.2979	1307.8717	1332.0228	1355.1929	1394.677	1432.4276	1484.688	1496.975	1512.0193	2351.1023	2974.0345	3063.9704	3069.0173	3089.1111	3118.8265	3143.0039	3214.5233	3800.5309
OCC1CC2(CN12)C#N	OC[C@H]1C[C@]2(CN12)C#N	
InChI=1S/C6H8N2O/c7-3-6-1-5(2-9)8(6)4-6/h5,9H,1-2,4H2	InChI=1S/C6H8N2O/c7-3-6-1-5(2-9)8(6)4-6/h5,9H,1-2,4H2/t5-,6-,8?/m1/s1
