23
gdb 94566	3.08057	1.09232	0.88278	1.6945	85.83	-0.2377	0.0737	0.3115	1400.9337	0.206259	-388.264394	-388.255072	-388.254128	-388.299904	34.535	
C	-0.3365301006	 1.4898007839	-0.1147474332	-0.411467
C	 0.0144326339	 0.0076457496	-0.0933903433	-0.050105
C	 1.3453240479	-0.3949618727	-0.766595299	-0.074862
O	 1.9061799618	-0.8427089803	 0.4820536597	-0.297266
C	 0.6635644568	-0.5981704761	 1.1885101974	 0.116796
C	 0.8636536507	 0.2375046938	 2.4307372561	 0.050705
C	-0.3461727448	 0.4451776725	 3.3888975707	-0.238967
C	 0.6167111861	 0.2469136829	 4.5906002499	-0.211118
C	 1.6343018062	-0.4098305066	 3.6188973416	-0.229244
H	 0.5120084785	 2.1130206594	 0.1842964427	 0.122859
H	-0.6289732677	 1.7967038283	-1.1249374999	 0.115369
H	-1.1733921282	 1.7148026801	 0.5543998342	 0.121271
H	-0.8409909168	-0.5769693168	-0.4419001316	 0.075479
H	 1.2778067486	-1.2070914924	-1.5023845646	 0.094515
H	 1.9245225332	 0.4291672277	-1.204079471	 0.095467
H	 0.1993276766	-1.5549447241	 1.4769254592	 0.059141
H	 1.3196049962	 1.1971403607	 2.1687989277	 0.067341
H	-0.8940885339	 1.3880684542	 3.3193355631	 0.095864
H	-1.0639298965	-0.3784441479	 3.3070318012	 0.097494
H	 0.9827364255	 1.2023789705	 4.9774318766	 0.101721
H	 0.2591865206	-0.3506230658	 5.4325452173	 0.095622
H	 1.5387281693	-1.5005542743	 3.6056873986	 0.101188
H	 2.6904741164	-0.1577543263	 3.7314933964	 0.102196
27.4573	67.0726	116.2658	142.8794	224.5843	246.3951	326.5743	365.7709	400.7526	485.3589	650.8702	750.631	778.0473	780.8671	875.3608	885.3519	910.2334	921.1642	934.05	955.7606	973.0167	1002.7994	1022.6168	1044.6343	1059.2373	1091.4593	1129.824	1156.9627	1190.456	1201.1216	1204.3427	1237.3672	1256.8084	1260.6785	1264.272	1276.6745	1285.8239	1290.2539	1330.9242	1352.2798	1381.4375	1413.0559	1421.4158	1476.8922	1486.4098	1497.2731	1499.8779	1509.0866	1527.621	2965.2983	3001.6465	3032.1129	3039.0961	3043.3122	3051.7233	3057.4674	3061.8453	3068.4868	3095.1169	3097.0064	3106.0474	3108.0676	3119.8077
CC1COC1C1CCC1	C[C@H]1CO[C@H]1C1CCC1	
InChI=1S/C8H14O/c1-6-5-9-8(6)7-3-2-4-7/h6-8H,2-5H2,1H3	InChI=1S/C8H14O/c1-6-5-9-8(6)7-3-2-4-7/h6-8H,2-5H2,1H3/t6-,8+/m0/s1
