18
gdb 127672	3.23055	1.02815	0.83412	2.0723	73.86	-0.2494	0.0098	0.2592	1365.5835	0.148804	-435.290237	-435.280949	-435.280005	-435.326521	31.825	
C	-0.1173087932	 1.4344894203	-0.0650662681	-0.335297
N	-0.0309148825	-0.0102549715	 0.0243807363	-0.00196
N	-0.0546926219	-0.7672666504	-1.1041857889	-0.251985
C	 0.0180458982	-1.9950847116	-0.6193144552	 0.02048
N	 0.082420191	-2.0802976913	 0.7345610277	-0.319308
C	 0.0456134201	-0.8100334733	 1.1151235212	 0.344196
C	 0.1329384177	-0.3223841235	 2.5232919753	-0.332819
C	 1.5900510725	-0.2380974446	 3.02178451	-0.061012
O	 1.6744192406	 0.2466667508	 4.3477799904	-0.412102
H	 0.7165482071	 1.9081860007	 0.4597130342	 0.147632
H	-0.0727832768	 1.6947816456	-1.1215649804	 0.169693
H	-1.0588243955	 1.7998052945	 0.3565071608	 0.147008
H	 0.0228904212	-2.8587547215	-1.2676221899	 0.123207
H	-0.3350677622	 0.6607855917	 2.6332587039	 0.115988
H	-0.4197501365	-1.023946188	 3.1568819462	 0.127296
H	 2.0671939578	-1.2214257394	 2.9075216697	 0.117117
H	 2.1543595138	 0.4707556073	 2.4062411721	 0.115097
H	 1.3171111887	-0.4278663957	 4.9342178347	 0.286768
28.0825	38.9326	97.6686	115.7859	209.4525	270.8087	309.1768	353.3201	367.7893	442.0666	677.9044	692.0089	729.4325	780.6858	814.3461	905.5934	992.2658	1010.6463	1026.9934	1036.852	1077.5094	1139.1214	1150.856	1203.2152	1226.4582	1293.7889	1309.5317	1313.6312	1327.0545	1396.164	1413.1781	1416.5545	1451.0173	1477.2831	1489.9306	1501.558	1510.9658	1520.5566	1558.9384	3011.8216	3047.1984	3050.6578	3071.1821	3103.4879	3111.3667	3170.1698	3257.1521	3817.2394
CN1N=CN=C1CCO	Cn1ncnc1CCO	
InChI=1S/C5H9N3O/c1-8-5(2-3-9)6-4-7-8/h4,9H,2-3H2,1H3	InChI=1S/C5H9N3O/c1-8-5(2-3-9)6-4-7-8/h4,9H,2-3H2,1H3
