17
gdb 20850	3.10786	1.84924	1.27549	0.6089	69.74	-0.2461	0.0057	0.2518	979.6549	0.143405	-360.067361	-360.059125	-360.05818	-360.100893	29.043	
C	-0.0451262311	 1.5882190716	-0.0103519097	-0.372885
C	 0.0674818805	 0.0534994214	-0.0142385146	-0.291133
C	 0.7193976977	-0.491262088	 1.2188396186	 0.246227
N	 2.0314577878	-0.7346115123	 1.2766491325	-0.265245
N	 2.2090650157	-1.1708104808	 2.5163129791	-0.085858
N	 1.1268468466	-1.2427133592	 3.2803564421	-0.260227
C	 0.152297566	-0.809715464	 2.4765740845	 0.246378
C	-1.2678558579	-0.7252021874	 2.9336140492	-0.506367
H	 0.9456588929	 2.0469655016	 0.0560657998	 0.130329
H	-0.5274691469	 1.944655719	-0.92575195	 0.114166
H	-0.6350052718	 1.942209767	 0.8412915439	 0.118589
H	-0.932152978	-0.384829442	-0.1176951178	 0.10488
H	 0.6471990121	-0.2683584245	-0.8848498115	 0.121634
H	 3.1144499079	-1.4521668946	 2.8541710501	 0.288264
H	-1.6234303022	 0.3107476297	 2.9607431275	 0.134114
H	-1.9361992078	-1.2791267714	 2.2653143942	 0.132183
H	-1.3619283315	-1.1437357461	 3.9375877521	 0.144953
38.2054	89.6148	159.2309	195.8161	264.6724	272.77	412.6994	424.0655	486.102	638.0203	703.7962	720.0899	767.3946	789.9961	972.0547	982.3617	1023.3909	1064.7642	1069.0029	1087.6462	1189.1759	1194.1406	1254.0408	1282.2751	1354.1137	1378.2584	1406.5542	1413.5096	1454.7151	1478.1626	1484.0258	1487.9755	1497.1172	1502.296	1529.1815	1566.7899	3035.3469	3037.2272	3037.947	3082.0054	3085.88	3108.6787	3117.1871	3133.9072	3675.2062
CCC1=NNN=C1C	CCc1n[nH]nc1C	
InChI=1S/C5H9N3/c1-3-5-4(2)6-8-7-5/h3H2,1-2H3,(H,6,7,8)	InChI=1S/C5H9N3/c1-3-5-4(2)6-8-7-5/h3H2,1-2H3,(H,6,7,8)
