18
gdb 46682	3.02093	1.76981	1.37375	3.4446	76.08	-0.2484	0.0279	0.2762	960.4684	0.151214	-401.935034	-401.928225	-401.927281	-401.966188	27.723	
N	-0.1298562278	 1.313022772	 0.2975426456	-0.529933
C	-0.0015965113	 0.1075830764	-0.0754652909	 0.400053
O	 1.1668405437	-0.352787449	-0.6059480695	-0.256829
C	 1.3561874447	-1.7614632393	-0.8297077405	-0.104248
C	 0.1103585552	-2.5010187199	-1.2878006397	-0.060406
C	-0.9347434546	-3.0115548156	-0.3209818915	-0.067807
C	-0.9629406589	-2.1252952264	 0.9239030642	-0.260293
C	-1.1420165956	-0.8641615659	-0.0046250432	-0.100716
C	-1.2219421977	-1.8128819908	-1.2156017699	-0.079242
H	 0.7535665262	 1.8126062503	 0.1691081766	 0.2134
H	 2.1308703386	-1.8124042775	-1.5985920203	 0.120486
H	 1.7704241016	-2.2046787183	 0.0852137949	 0.113775
H	 0.2502551128	-3.1298513632	-2.1609403608	 0.098053
H	-1.3171074978	-4.0223108937	-0.3922418325	 0.089798
H	-1.8554358294	-2.2776470899	 1.532976174	 0.116072
H	-0.0870186689	-2.1491952171	 1.580361183	 0.104729
H	-2.0498598285	-0.3076021021	 0.2147715138	 0.107178
H	-1.8832914625	-1.7057342399	-2.0655556433	 0.095931
113.9793	170.4663	283.8182	388.0375	413.8555	475.0356	535.0872	663.0188	710.4684	743.3742	771.2753	793.0878	847.8616	884.6336	910.9919	940.207	966.7008	973.1549	994.1185	1019.6956	1046.8251	1052.9272	1071.2033	1082.8724	1139.4866	1153.7099	1181.0566	1221.4533	1252.6415	1278.4057	1290.3358	1301.3725	1320.3256	1345.8978	1426.1998	1433.4616	1490.8464	1516.1741	1743.9627	3018.6662	3051.0955	3092.3633	3115.4108	3147.5107	3165.767	3184.8248	3199.8165	3451.5846
N=C1OCC2C3CC1C23	[NH][C]1OC[C@H]2[C@H]3C[C@@H]1[C@@H]23	
InChI=1S/C7H9NO/c8-7-4-1-3-5(2-9-7)6(3)4/h3-6,8H,1-2H2	InChI=1S/C7H9NO/c8-7-4-1-3-5(2-9-7)6(3)4/h3-6,8H,1-2H2/t3-,4-,5+,6+/m1/s1
