14
gdb 30419	3.02323	1.41678	0.97046	2.9169	70.52	-0.2587	-0.0493	0.2094	1139.083	0.100396	-473.875116	-473.867112	-473.866168	-473.908768	28.106	
C	-0.120863425	 1.4471374159	 0.0550884128	-0.341658
N	-0.2505245993	 0.0117491747	 0.2146249518	-0.300245
C	 0.5518196933	-0.6570150898	 0.9140135554	 0.428715
O	 1.6300211732	-0.037463552	 1.5857335908	-0.270262
C	 2.5393048924	-0.6716904538	 2.3566711769	 0.477104
O	 3.4247277351	-0.0932930265	 2.8958442549	-0.331404
O	 2.4035688388	-2.0262154719	 2.497980966	-0.223664
C	 1.3842970982	-2.6907989222	 1.8765808731	 0.07373
C	 0.4763650442	-2.0883548094	 1.1121037571	-0.232068
H	 0.7239229991	 1.892952929	 0.5881325388	 0.1394
H	-0.0284961161	 1.6715404095	-1.0133780524	 0.13834
H	-1.0486655172	 1.9202682084	 0.3954513464	 0.138343
H	 1.4245414066	-3.749832569	 2.0928109321	 0.158659
H	-0.3207830533	-2.6345509028	 0.6308040363	 0.14501
55.2168	96.2531	114.1646	205.5826	229.4485	426.175	429.0862	504.4868	564.9123	579.3233	708.0194	738.4112	764.0363	819.2741	890.8974	959.3111	978.6767	1008.6583	1067.565	1123.133	1131.3364	1165.033	1254.3511	1297.7241	1414.9174	1440.7887	1493.5763	1493.8222	1704.8538	1781.7734	1912.6689	3027.1353	3083.9686	3108.0027	3235.01	3261.2138
CN=C1OC(=O)OC=C1	C[N]C1=C[CH]OC(=O)O1	
InChI=1S/C5H5NO3/c1-6-4-2-3-8-5(7)9-4/h2-3H,1H3	InChI=1S/C5H5NO3/c1-6-4-2-3-8-5(7)9-4/h2-3H,1H3
