14
gdb 130081	5.44045	1.37025	1.09573	3.0565	70.36	-0.1949	0.0273	0.2222	1021.3572	0.105369	-429.083996	-429.077198	-429.076253	-429.11483	26.914	
N	-0.0214411309	 1.3024967356	 0.1532847461	-0.581471
C	 0.009642025	-0.0732941309	 0.0589657371	 0.398184
N	-1.1160781573	-0.7993124831	 0.0381414699	-0.373171
N	-0.5888903622	-2.0656003632	 0.0122456573	 0.054021
C	-1.0106040551	-3.3806612328	-0.0199823016	-0.117317
C	 0.1243116129	-4.1360701968	-0.040527235	-0.095528
N	 1.2274895218	-3.2779508545	-0.0230119264	-0.425938
C	 0.7637973572	-1.9981863007	 0.010683198	 0.505745
N	 1.2030700739	-0.7490568673	 0.0383118322	-0.455038
H	 0.7996719252	 1.7431543621	-0.2340746368	 0.25657
H	-0.8842126358	 1.710405731	-0.1758835178	 0.256337
H	-2.047165012	-3.6658815411	-0.0245173034	 0.15185
H	 0.2442673298	-5.2045274137	-0.0654767246	 0.145349
H	 2.1937575375	-3.5492776046	-0.0227745051	 0.280406
149.924	290.6524	302.1586	339.4799	354.1048	380.0299	556.7503	596.7374	598.1554	632.7027	660.9941	742.4526	767.0268	774.3791	794.8344	867.974	965.0916	1023.9454	1070.8604	1096.7067	1111.2574	1215.754	1276.6138	1351.9177	1402.8482	1443.3793	1474.9925	1553.522	1586.7275	1642.3133	1662.3999	3292.9076	3311.897	3573.664	3681.2139	3705.3729
NC1=NN2C=CNC2=N1	Nc1nn2cc[nH]c2n1	
InChI=1S/C4H5N5/c5-3-7-4-6-1-2-9(4)8-3/h1-2H,(H3,5,6,7,8)	InChI=1S/C4H5N5/c5-3-7-4-6-1-2-9(4)8-3/h1-2H,(H3,5,6,7,8)
