22
gdb 59772	3.16674	1.08337	0.99874	1.9805	83.28	-0.245	0.0246	0.2695	1318.4245	0.195192	-404.373936	-404.364717	-404.363773	-404.407924	34.867	
C	-0.1109736372	 1.5261654342	 0.0537725099	-0.39437
C	 0.0405170654	 0.0032623789	-0.0583042066	 0.030955
C	 0.6661531333	-0.3821731738	-1.4062022304	-0.391416
C	 0.8333852418	-0.5465612408	 1.1509140741	 0.057918
C	 0.7953191944	-2.0754543453	 1.2822028088	-0.254312
C	 1.7419499081	-2.4966338388	 2.3986047886	-0.076813
O	 3.0663398153	-1.983077998	 2.1796807153	-0.226573
C	 3.1366369166	-0.7728755308	 1.5755716795	 0.127941
N	 2.2119987344	-0.0483392492	 1.11008749	-0.269984
H	 0.8718414065	 2.0059944075	 0.0603297841	 0.137332
H	-0.6852189622	 1.9260050245	-0.7881808045	 0.103231
H	-0.6289259019	 1.8083108845	 0.9772443627	 0.101237
H	-0.9612042786	-0.446394335	-0.0001229265	 0.061652
H	 1.6887328354	 0.0007226533	-1.474958356	 0.13229
H	 0.6992176844	-1.465838993	-1.5567914574	 0.104378
H	 0.0871196069	 0.0434227834	-2.2319174061	 0.107576
H	 0.3627379181	-0.1202955411	 2.050179265	 0.078039
H	-0.2173372278	-2.4305640129	 1.5015134919	 0.103141
H	 1.1141887674	-2.5458721217	 0.3461806523	 0.115267
H	 1.3888326531	-2.1280500234	 3.3705049115	 0.112061
H	 1.8522770077	-3.5817791794	 2.4641615856	 0.117937
H	 4.1765537988	-0.453742153	 1.5219027683	 0.122512
72.9205	94.647	195.1022	213.69	230.4089	251.8922	284.204	325.5863	420.8141	436.3268	513.7916	535.4174	633.2873	769.0853	819.1161	857.152	888.0535	927.9099	934.526	965.8923	968.3	989.9202	1031.7609	1050.5068	1094.122	1131.058	1154.0083	1187.2097	1206.5983	1235.8801	1269.28	1313.2434	1324.5379	1354.8681	1373.9049	1381.7424	1397.121	1403.1453	1417.7209	1418.5251	1478.9969	1487.8241	1495.7418	1504.9572	1511.1275	1514.8801	1730.7398	2978.45	3000.5054	3023.9833	3030.309	3037.6364	3044.5467	3087.9215	3093.5879	3099.1016	3101.9555	3114.0269	3118.726	3150.8874
CC(C)C1CCOC=N1	CC(C)[C@H]1CCOC=N1	
InChI=1S/C7H13NO/c1-6(2)7-3-4-9-5-8-7/h5-7H,3-4H2,1-2H3	InChI=1S/C7H13NO/c1-6(2)7-3-4-9-5-8-7/h5-7H,3-4H2,1-2H3/t7-/m1/s1
