21
gdb 83961	2.16929	1.89031	1.77376	1.3973	81.16	-0.2386	0.0078	0.2464	966.1812	0.1859	-387.100879	-387.093443	-387.092498	-387.132121	31.055	
C	-0.1764546153	 1.5411744689	 0.0602521934	-0.423828
C	 0.0639802457	 0.035579191	 0.0022501969	 0.029433
C	 0.8660900822	-0.5348288384	-1.2030616888	-0.072763
C	 2.207661757	 0.233357023	-1.2912858778	-0.227621
C	 2.985097841	 0.1088109901	 0.0382323235	-0.056102
O	 2.1694559997	 0.2069907709	 1.2063269825	-0.279702
C	 0.9435416424	-0.5429538037	 1.1331000191	 0.073823
C	 1.1743465057	-1.9616063353	 0.627400728	-0.099493
C	 1.1312091387	-1.9516288896	-0.7064206554	-0.075545
H	 0.7471991374	 2.096429869	 0.2346192171	 0.129879
H	-0.6313856565	 1.905509379	-0.8676845718	 0.107156
H	-0.8624333112	 1.7836827674	 0.8792118605	 0.111067
H	-0.9011344045	-0.4830379008	 0.0306210001	 0.070793
H	 0.3257766227	-0.4879958464	-2.1531796344	 0.05913
H	 2.8364615906	-0.1603441453	-2.0986597716	 0.093952
H	 2.0079161625	 1.2834044872	-1.5278300143	 0.103974
H	 3.5270135769	-0.846208174	 0.0462059545	 0.094561
H	 3.7262642007	 0.907987433	 0.1319615272	 0.101968
H	 0.5089066444	-0.4701378168	 2.1327115664	 0.068927
H	 1.4231020214	-2.8010719129	 1.2650769581	 0.095433
H	 1.3285940286	-2.7915416463	-1.3634023834	 0.09496
180.3892	206.2933	266.8229	290.3701	318.7407	385.7494	438.2245	549.7827	551.1423	603.2772	712.7253	769.7206	778.7703	805.7181	849.9626	859.522	931.4347	934.7141	958.8813	968.7761	982.3347	1027.7202	1060.1802	1067.3267	1087.3009	1124.7408	1133.4958	1139.4463	1200.7081	1236.6456	1271.9748	1293.7198	1299.8384	1327.5599	1340.6904	1364.8316	1373.5686	1382.4681	1409.4429	1415.0875	1485.2314	1491.8576	1503.6485	1515.9405	1656.5821	3011.5849	3032.2632	3036.229	3039.1688	3062.1259	3073.4941	3085.3894	3087.9961	3090.627	3129.7983	3184.9529	3213.7257
CC1C2CCOC1C=C2	C[C@H]1[C@H]2CCO[C@@H]1C=C2	
InChI=1S/C8H12O/c1-6-7-2-3-8(6)9-5-4-7/h2-3,6-8H,4-5H2,1H3	InChI=1S/C8H12O/c1-6-7-2-3-8(6)9-5-4-7/h2-3,6-8H,4-5H2,1H3/t6-,7+,8+/m0/s1
