16
gdb 31384	3.80267	1.1195	0.89092	5.0546	77.26	-0.2091	-0.0211	0.188	1248.7237	0.127051	-434.099615	-434.09167	-434.090726	-434.132502	29.768	
O	 0.1129756323	 1.3228310251	 0.4375600012	-0.412951
C	 0.0395553946	-0.0202890455	-0.0282538223	-0.169917
C	-1.3818699741	-0.5114728089	-0.1092172466	 0.316714
C	-1.8949441449	-1.313603822	-1.0585985942	-0.225168
C	-3.2845100071	-1.7669590793	-0.9850469982	 0.334411
N	-3.7615548625	-2.5517155264	-1.8786163327	-0.540672
N	-4.0576393312	-1.2901272576	 0.1048236755	-0.319042
C	-3.5048584166	-0.51268125	 0.9622306099	 0.088371
N	-2.1994645889	-0.1079576037	 0.9356259852	-0.349331
H	-0.2346545965	 1.8962383634	-0.2546016751	 0.295804
H	 0.532140493	-0.1569188957	-0.9984010303	 0.123926
H	 0.5951731467	-0.6084145781	 0.7118449427	 0.139712
H	-1.2902092378	-1.6524103091	-1.8906159075	 0.111471
H	-4.7391405204	-2.7447492601	-1.6508117641	 0.210314
H	-4.0870088527	-0.127454016	 1.7983319103	 0.127898
H	-1.8465409541	 0.5881240438	 1.5745618963	 0.268459
74.3169	125.0576	155.6283	249.9458	344.879	389.4758	438.8034	461.6601	527.0204	563.1242	580.9181	668.2561	754.1336	796.7406	880.7525	886.1361	910.7066	969.5729	971.7512	1013.4623	1055.4752	1092.2589	1178.1957	1182.1733	1203.4209	1309.9525	1368.3354	1380.458	1407.6637	1425.087	1489.1031	1505.0616	1652.9758	1678.6417	1729.7552	3029.2837	3071.8491	3142.5973	3213.2055	3458.0765	3628.4582	3804.7716
OCC1=CC(=N)N=CN1	OCC1=CC(=NCN1)[NH]	
InChI=1S/C5H7N3O/c6-5-1-4(2-9)7-3-8-5/h1,3,9H,2H2,(H2,6,7,8)	InChI=1S/C5H8N3O/c6-5-1-4(2-9)7-3-8-5/h1,6-7,9H,2-3H2
