19
gdb 103393	2.44391	1.46871	1.30341	1.8593	76.28	-0.2465	-0.0012	0.2453	1092.5277	0.158219	-419.164115	-419.155047	-419.154103	-419.197604	34.21	
C	-0.0931858178	 1.5559302384	 0.1537971025	-0.400908
C	 0.0174923873	 0.0278715371	 0.1034922206	-0.226741
C	 0.6459914346	-0.4795206178	-1.1924598247	 0.354418
O	 1.9657202769	 0.0228368662	-1.3558654242	-0.481513
C	 0.653658139	-1.9906590112	-1.477226232	-0.069506
C	-0.6955798647	-2.5168518797	-1.7074093423	-0.259223
N	-0.0401591002	-1.7979912397	-2.8411256793	-0.176576
C	-0.1196216972	-0.3867363602	-2.5199908878	 0.302712
N	-0.4902698252	 0.6055161526	-3.1968164308	-0.540263
H	 0.8974037574	 2.0174092832	 0.1036822235	 0.118924
H	-0.6893216064	 1.9354885702	-0.6811957688	 0.145633
H	-0.5628771636	 1.8788843696	 1.0871040566	 0.113484
H	 0.6388839477	-0.3321878087	 0.9327993224	 0.106435
H	-0.9741513726	-0.420226354	 0.2313205463	 0.09455
H	 1.8993298876	 0.8553449839	-1.8366554929	 0.297997
H	 1.5414984295	-2.6060372438	-1.402894998	 0.120986
H	-0.7989881275	-3.5783351326	-1.9082347276	 0.138452
H	-1.5609093481	-2.0624020632	-1.2332938706	 0.130806
H	-0.8449611266	 0.3088815296	-4.1104707927	 0.230334
95.6473	113.4968	177.6784	201.6963	246.6665	256.3978	300.4499	312.5912	409.5293	480.325	492.3401	666.6429	672.24	719.8601	766.4091	797.3706	838.9639	899.0891	940.7649	968.0152	983.5514	1021.0118	1028.9945	1051.4956	1108.9542	1120.426	1135.61	1184.052	1195.8394	1217.6581	1286.8248	1304.8817	1340.2103	1364.1953	1383.2843	1409.5604	1474.604	1499.4321	1505.9915	1514.9578	1800.6227	3029.4753	3044.2399	3068.4818	3113.7301	3121.5349	3122.5295	3200.6994	3212.2496	3437.5157	3811.1349
CCC1(O)C2CN2C1=N	CC[C@@]1(O)[C@H]2CN2[C]1[NH]	
InChI=1S/C6H10N2O/c1-2-6(9)4-3-8(4)5(6)7/h4,7,9H,2-3H2,1H3	InChI=1S/C6H10N2O/c1-2-6(9)4-3-8(4)5(6)7/h4,7,9H,2-3H2,1H3/t4-,6-,8?/m1/s1
