16
gdb 131320	4.74904	1.27503	1.02758	3.8475	70.57	-0.2223	0.0218	0.2441	1112.6867	0.128606	-434.111499	-434.104467	-434.103522	-434.143078	26.9	
O	 0.0669009017	 1.2350311376	-0.1383032901	-0.406971
C	 0.0836092673	-0.102015617	-0.0595715344	 0.407721
N	 0.0644444841	-0.8521945173	-1.1552022437	-0.34803
N	 0.1159724641	-2.0905149124	-0.593900542	 0.062342
C	 0.0261176038	-3.4201005645	-1.1593149246	-0.169538
C	 0.3562087207	-4.2914215647	 0.0886709222	-0.220474
C	 0.1124869683	-3.3891704062	 1.3416100855	-0.354897
C	 0.1402516447	-2.0215320983	 0.7405315647	 0.391689
N	 0.1274615597	-0.7573548107	 1.1381749061	-0.456402
H	 0.0856269645	 1.5601203302	 0.7697751953	 0.310112
H	-0.9806914508	-3.6037497241	-1.5523252467	 0.128963
H	 0.7407877167	-3.5540268499	-1.9750059975	 0.136138
H	-0.2421202291	-5.2034493574	 0.1116841531	 0.120463
H	 1.4073481612	-4.5876666495	 0.0526877187	 0.128307
H	-0.8605378544	-3.5865396192	 1.8061446661	 0.134288
H	 0.8723248476	-3.5335398166	 2.1132976372	 0.136289
113.4006	158.1585	230.2677	319.1286	354.0064	409.1522	539.1296	559.0657	661.1857	699.4924	748.1315	765.2476	817.8854	881.23	906.7672	918.6693	1006.2171	1039.2168	1092.6373	1141.1342	1187.6002	1190.3961	1223.8506	1241.479	1299.1335	1311.51	1330.1494	1365.7807	1427.142	1481.4164	1499.4493	1505.799	1540.5137	1567.069	1625.2505	3037.8201	3044.3839	3074.0654	3096.8627	3098.9131	3128.8354	3814.0691
OC1=NN2CCCC2=N1	Oc1nn2CCCc2n1	
InChI=1S/C5H7N3O/c9-5-6-4-2-1-3-8(4)7-5/h1-3H2,(H,7,9)	InChI=1S/C5H7N3O/c9-5-6-4-2-1-3-8(4)7-5/h1-3H2,(H,7,9)
