14
gdb 9102	6.27766	0.97669	0.89023	4.1705	56.51	-0.279	-0.0611	0.2179	1202.1428	0.104232	-456.833666	-456.825266	-456.824322	-456.86754	28.377	
O	-0.2071517215	 1.1743335355	-0.4947739051	-0.42924
C	 0.0433485378	-0.1651827727	-0.1812822382	 0.045867
C	 0.919290029	-0.8146606541	-1.2639326577	-0.107669
O	 0.2167628483	-0.8676253499	-2.4999147805	-0.181769
C	 0.3410167241	 0.1916956346	-3.3376365372	 0.184353
O	-0.2590327444	 0.2571565473	-4.3652166045	-0.268539
C	 0.6997796638	-0.2869757989	 1.180643908	 0.129183
O	 0.9612400968	 0.6894869041	 1.8391877126	-0.247634
H	 0.1269542018	 1.6907879941	 0.2563784491	 0.300999
H	-0.9005730261	-0.7369003447	-0.1400213366	 0.119297
H	 1.8509076306	-0.2446350211	-1.3690281399	 0.12639
H	 1.1633291126	-1.8491723099	-1.0055481258	 0.12795
H	 1.0532862194	 0.9495901664	-2.967815969	 0.091125
H	 0.9222876577	-1.3122217706	 1.5386190147	 0.109688
56.522	78.7824	123.2004	172.7355	258.1466	304.4831	356.3808	371.9598	423.117	494.826	662.8812	751.2916	839.6587	914.8659	981.6728	1028.8533	1046.494	1099.6956	1161.3814	1176.4165	1247.0023	1300.2424	1352.3819	1387.7195	1406.9691	1426.2644	1435.4359	1490.3153	1815.8575	1873.4559	2936.5867	2967.2687	2990.839	3032.5136	3099.1962	3687.0457
OC(COC=O)C=O	O[C@@H](COC=O)C=O	
InChI=1S/C4H6O4/c5-1-4(7)2-8-3-6/h1,3-4,7H,2H2	InChI=1S/C4H6O4/c5-1-4(7)2-8-3-6/h1,3-4,7H,2H2/t4-/m1/s1
