21
gdb 41400	2.45747	1.95048	1.40078	1.4226	81.04	-0.2397	0.0891	0.3288	1006.8714	0.185398	-387.07924	-387.071934	-387.07099	-387.11074	30.141	
C	-0.0693925967	 1.5091836158	 0.1422926129	-0.227826
C	 1.4496032253	 1.6566712267	-0.1538431028	-0.320259
C	 1.6104084282	 0.1449042272	 0.0811664363	 0.347416
C	 2.6178521721	-0.839158724	-0.544560766	-0.330467
C	 2.63407818	-1.6412325534	 0.7897272383	-0.259552
C	 1.9041025801	-0.4492892517	 1.4855514352	 0.087292
O	 0.6893180075	-0.6970575156	 2.1654428748	-0.264288
C	-0.3272287974	-0.9047979165	 1.1839912702	-0.11283
C	 0.062245241	-0.0357134368	-0.0112383575	-0.067761
H	-0.3267225474	 1.7926596083	 1.166336624	 0.111437
H	-0.7561406267	 2.0101938487	-0.5431832775	 0.096227
H	 1.6393331042	 1.9298547268	-1.1968521147	 0.09956
H	 2.0317863467	 2.3240456296	 0.4888863638	 0.094671
H	 2.2960494872	-1.3684529146	-1.4459925194	 0.095709
H	 3.5798956816	-0.3613299358	-0.7541989326	 0.102654
H	 2.0120907478	-2.5392363813	 0.7628389767	 0.108385
H	 3.6122618582	-1.9108902109	 1.193260214	 0.099971
H	 2.5438335686	 0.1342176315	 2.153023596	 0.075611
H	-0.3798602906	-1.9658821243	 0.894253522	 0.089514
H	-1.2840840938	-0.6300437119	 1.6394150924	 0.106518
H	-0.316843126	-0.4171355078	-0.9620558261	 0.068018
115.4637	187.4507	233.6584	284.509	375.8139	419.6717	482.0677	609.3558	668.7863	713.7699	740.4859	775.6614	826.7743	836.7509	872.2187	903.6851	935.259	937.8929	949.0396	970.2266	1011.1014	1038.7605	1072.4294	1119.2822	1134.611	1160.61	1163.1476	1183.9167	1201.2786	1226.7877	1230.5967	1242.0287	1252.8599	1256.248	1265.4103	1299.0089	1305.7824	1329.0931	1347.8564	1390.1722	1475.5606	1476.9358	1492.08	1494.9761	1513.1105	2979.1964	3042.3308	3047.8383	3062.1041	3068.8352	3072.8234	3075.8072	3083.5955	3088.7263	3092.637	3119.5988	3124.6388
C1CC23CCC2OCC13	C1C[C@@]23CC[C@@H]2OC[C@@H]13	
InChI=1S/C8H12O/c1-3-8-4-2-7(8)9-5-6(1)8/h6-7H,1-5H2	InChI=1S/C8H12O/c1-3-8-4-2-7(8)9-5-6(1)8/h6-7H,1-5H2/t6-,7+,8+/m1/s1
