21
gdb 60819	2.55049	1.03964	0.90169	2.4898	80.18	-0.24	0.0278	0.2679	1388.3608	0.181846	-420.401085	-420.390921	-420.389977	-420.437383	36.066	
C	-0.1276613664	 1.395474098	-0.0180017167	-0.398257
C	 0.1054253095	-0.1215944506	 0.0368230875	-0.027654
C	 0.7930427091	-0.6226558228	-1.2251392002	 0.035134
C	 0.5779241695	-2.0113047175	-1.6920216018	-0.248118
N	 0.0018088128	-0.876806854	-2.4398005961	-0.319542
N	 0.8135739535	-0.5310980273	 1.2499675493	-0.026981
C	 2.167166777	-0.0615609045	 1.5061453865	-0.355623
C	 0.2301049434	-1.3811750516	 2.1456636306	 0.155373
O	 0.7351188667	-1.7910534789	 3.1694932309	-0.345447
H	 0.8148434184	 1.9437879484	-0.107343454	 0.128036
H	-0.7371965014	 1.6488645217	-0.8902042644	 0.129938
H	-0.6437470245	 1.7415755336	 0.8817637632	 0.126107
H	-0.8739563257	-0.6156228023	 0.0880920205	 0.08093
H	 1.7495990969	-0.1503264465	-1.4405837071	 0.097462
H	 1.3702233078	-2.54536072	-2.2078623044	 0.125595
H	-0.0872387522	-2.64409767	-1.1091130874	 0.115327
H	-0.991611574	-0.7993746566	-2.2295909003	 0.229877
H	 2.2041936233	 1.0300532559	 1.5821098749	 0.127724
H	 2.4839207812	-0.4968760105	 2.4538491893	 0.171814
H	 2.8562943532	-0.3820572696	 0.7175269683	 0.129993
H	-0.7938443583	-1.665598325	 1.8311122415	 0.068312
32.1184	61.702	97.1008	159.5678	208.6428	224.9161	250.2076	315.7362	333.9621	359.2847	390.2595	441.4056	517.4062	696.2372	796.5325	853.8849	873.9874	914.3537	957.766	974.1878	1000.6723	1024.9223	1072.5616	1102.5885	1107.3363	1142.4006	1157.8182	1163.6807	1222.8776	1253.7982	1268.7656	1287.0602	1322.5737	1329.3076	1409.4117	1422.346	1434.7965	1443.2045	1453.3184	1491.0087	1498.6324	1508.2417	1512.9198	1516.7763	1794.0236	2929.9347	3018.4399	3033.5515	3044.8645	3087.9046	3108.8995	3116.2427	3122.586	3125.5515	3157.4584	3195.2548	3480.3413
CC(C1CN1)N(C)C=O	C[C@@H]([C@H]1CN1)N(C)C=O	
InChI=1S/C6H12N2O/c1-5(6-3-7-6)8(2)4-9/h4-7H,3H2,1-2H3	InChI=1S/C6H12N2O/c1-5(6-3-7-6)8(2)4-9/h4-7H,3H2,1-2H3/t5-,6+/m0/s1
