16
gdb 34941	2.93526	1.53035	1.23287	4.6678	73.3	-0.2484	0.027	0.2754	1023.6646	0.123907	-400.696533	-400.688987	-400.688043	-400.728667	29.11	
N	 0.0416561241	-1.1650434741	 0.0211263089	-0.348353
C	 0.0536064372	-0.0089194033	 0.047175897	 0.317948
C	 0.056298419	 1.428107458	 0.067774552	-0.228411
C	 0.577177509	 2.2316436645	 1.2445071877	 0.085533
O	 1.6110303826	 1.551039481	 1.9361327646	-0.29781
C	 2.4308438727	 1.6037122712	 0.7452558084	 0.464123
C	 3.877342395	 1.9516968192	 0.8228425328	-0.353256
C	 3.4290961469	 0.5519400198	 0.4179849489	-0.319256
C	 1.3352042129	 2.2630637095	-0.0535206854	-0.238756
H	-0.7963914776	 1.8851778304	-0.4265348968	 0.139377
H	-0.0173741117	 2.9585279195	 1.7841790332	 0.126168
H	 4.2915591256	 2.6070434501	 0.0635456507	 0.122246
H	 4.2960950884	 2.0783617318	 1.8149340339	 0.135255
H	 3.5522491868	-0.2425652818	 1.144965816	 0.143615
H	 3.5375597722	 0.2433385499	-0.6158172613	 0.130745
H	 1.450727517	 3.0288279443	-0.8080199807	 0.120831
89.8636	134.3026	209.5116	272.0468	310.154	397.9886	462.5548	558.2863	639.6505	646.3158	747.9842	755.3729	804.4668	858.2615	883.3996	901.1757	928.307	968.2431	989.8434	1007.3231	1044.088	1050.9769	1052.734	1073.5552	1076.0704	1153.6923	1184.4883	1192.147	1259.4175	1325.5694	1390.2875	1412.6181	1449.3363	1505.5884	2356.1543	3132.9998	3142.5533	3159.4379	3193.0067	3213.4063	3220.1713	3235.4088
N#CC1C2OC3(CC3)C12	N#C[C@H]1[C@H]2OC3(CC3)[C@@H]12	
InChI=1S/C7H7NO/c8-3-4-5-6(4)9-7(5)1-2-7/h4-6H,1-2H2	InChI=1S/C7H7NO/c8-3-4-5-6(4)9-7(5)1-2-7/h4-6H,1-2H2/t4-,5+,6-/m1/s1
