20
gdb 73496	2.89296	1.78908	1.4431	0.3094	77.44	-0.2295	0.0898	0.3194	982.9815	0.173292	-403.140648	-403.133205	-403.132261	-403.172233	30.046	
C	-0.0253609074	 1.4991979978	 0.0792917227	-0.481608
C	 0.0166938584	 0.0005474929	-0.0852577474	 0.316147
C	 0.9792257317	-0.5908218689	-1.1028203835	-0.142077
O	 0.4105513216	-1.8061423572	-1.5792395958	-0.278018
C	-0.7248675737	-2.1661201101	-0.7803799289	 0.084576
C	-0.2701490255	-3.0828252385	 0.3646340358	-0.214503
C	 0.4031820973	-2.0816015883	 1.3281656587	-0.172693
N	-0.2917450412	-0.7839690787	 1.1370436441	-0.149393
C	-1.1628871625	-0.8959540623	-0.0500267392	-0.126918
H	 0.9463836065	 1.8832174164	 0.4105801151	 0.121832
H	-0.2789974772	 1.9938049511	-0.8646278201	 0.11815
H	-0.7661802939	 1.7739255122	 0.8331110278	 0.133171
H	 1.106229968	 0.1004729118	-1.9460389824	 0.102625
H	 1.9768173868	-0.7777447911	-0.6768575919	 0.098699
H	-1.4762921175	-2.607944368	-1.4390070463	 0.079944
H	-1.141251907	-3.5451991206	 0.8428968423	 0.099837
H	 0.3943590588	-3.8755895746	 0.0132866157	 0.108711
H	 0.2944845458	-2.3733454174	 2.3759987901	 0.10709
H	 1.476050248	-1.9855760603	 1.128526521	 0.107552
H	-2.1993196369	-0.5809644962	 0.0180102523	 0.086876
118.9182	188.5439	222.5712	286.8988	310.1993	389.2935	458.0102	556.3106	616.3559	680.1694	739.5293	786.5665	813.029	876.6808	880.3522	907.2804	930.9004	941.879	963.7323	1000.6648	1007.0091	1051.8106	1065.2878	1089.3211	1114.3808	1128.1198	1189.3807	1207.9663	1223.4429	1248.556	1272.5243	1291.8309	1323.7106	1333.363	1345.034	1364.1869	1411.63	1433.4358	1475.3646	1488.6291	1495.0375	1504.1646	1528.9865	2986.6624	3029.103	3033.6434	3043.4735	3044.5301	3086.3832	3089.8966	3091.335	3113.0357	3128.9836	3158.1725
CC12COC3CCN1C23	C[C@@]12CO[C@H]3CCN1[C@@H]23	
InChI=1S/C7H11NO/c1-7-4-9-5-2-3-8(7)6(5)7/h5-6H,2-4H2,1H3	InChI=1S/C7H11NO/c1-7-4-9-5-2-3-8(7)6(5)7/h5-6H,2-4H2,1H3/t5-,6+,7-,8?/m0/s1
