19
gdb 35993	4.94185	0.54773	0.53292	0.7769	90.06	-0.2467	0.0408	0.2875	2100.6851	0.156944	-348.676491	-348.666487	-348.665543	-348.714445	35.652	
C	 0.0787758412	-0.968527235	 0.8829667753	-0.44821
C	 0.0787069452	 0.110180893	 0.3559317784	 0.319847
C	 0.0625882683	 1.4248318915	-0.2897772356	-0.490476
C	 1.3902521686	 2.0260705171	-0.432690182	 0.088221
C	 2.4815248153	 2.5179993392	-0.5533145324	 0.077597
C	 3.7975455762	 3.137255735	-0.6929131083	-0.376896
C	 3.8798284394	 4.5232002549	-0.0684536046	 0.045027
C	 4.1848371949	 4.6752970353	 1.3971263625	-0.246617
C	 5.2149350397	 5.0696068759	 0.3649575657	-0.278245
H	 0.0846671778	-1.9220592541	 1.3498146691	 0.19861
H	-0.4107293937	 1.3339782677	-1.2774639381	 0.15799
H	-0.5867448552	 2.0995673028	 0.2854980252	 0.158776
H	 4.554868065	 2.4898198057	-0.2307167545	 0.12503
H	 4.0623163459	 3.1961678879	-1.7574542534	 0.127623
H	 3.1774376926	 5.2362660332	-0.4897843121	 0.091063
H	 3.68212588	 5.4598366547	 1.9514159645	 0.11236
H	 4.3627992717	 3.7721316776	 1.9717700414	 0.115465
H	 6.0859123249	 4.4321961718	 0.2496120924	 0.11051
H	 5.4160224621	 6.1238369559	 0.2102371663	 0.112325
6.3145	56.9133	78.6867	117.2415	215.0803	273.9267	320.1506	324.906	352.3057	378.4688	486.7833	555.2766	620.0833	646.065	763.8143	787.9137	807.2965	843.6518	893.4819	934.8603	941.1268	960.8523	998.9018	1058.2297	1078.8882	1135.6051	1147.0663	1158.0653	1196.9762	1226.9364	1230.8808	1263.9836	1324.8058	1335.3647	1407.939	1453.8965	1464.7899	1474.2715	1507.957	2246.624	2376.3275	3005.647	3009.581	3028.9187	3039.7101	3129.5085	3134.4858	3152.0577	3207.5023	3222.7378	3507.4829
C#CCC#CCC1CC1	C#CCC#CCC1CC1	
InChI=1S/C9H10/c1-2-3-4-5-6-9-7-8-9/h1,9H,3,6-8H2	InChI=1S/C9H10/c1-2-3-4-5-6-9-7-8-9/h1,9H,3,6-8H2
