17
gdb 65387	3.57558	0.92727	0.89209	0.95	72.01	-0.2532	-0.0386	0.2145	1334.7866	0.133443	-458.930777	-458.921992	-458.921047	-458.964946	32.132	
O	-0.0547199529	 1.4191796739	-0.1708304167	-0.469731
C	 0.0011390826	 0.0539581356	 0.0598667272	 0.345215
C	-0.2053644411	-0.4436258667	 1.4737515226	-0.356197
C	-1.2860844716	-0.6838812404	 0.4567048337	-0.119224
C	-2.5537458967	 0.1011232703	 0.4982075031	 0.09972
C	-3.7050286316	-0.2502626426	-0.341378422	-0.186275
O	-3.6897012211	-0.5727608869	 1.0509233571	-0.240162
C	 0.9330549281	-0.6627393045	-0.8325816106	 0.101389
O	 1.5409870337	-0.0863128709	-1.7073449014	-0.28998
H	 0.5007689881	 1.5598799455	-0.9547102848	 0.299117
H	 0.3801656921	-1.2854524415	 1.827411862	 0.128121
H	-0.3687267748	 0.3431728225	 2.2022467413	 0.145446
H	-1.4009763074	-1.7012542463	 0.0924715256	 0.101137
H	-2.4449449889	 1.1382363885	 0.8096764149	 0.113839
H	-4.4132338525	 0.5218345309	-0.6381021084	 0.120768
H	-3.6370546249	-1.1011317517	-1.018620046	 0.112987
H	 1.0320426191	-1.7542902156	-0.6641193476	 0.093829
54.7361	87.494	139.9126	201.5869	277.2454	316.9885	352.5918	364.4086	413.1648	463.6988	531.8726	639.3963	783.2663	816.1548	854.6316	857.2564	911.0754	927.7898	956.2694	1029.2288	1047.3801	1072.6422	1078.0094	1099.1664	1154.7445	1170.4189	1192.6567	1214.432	1292.4056	1309.9135	1342.5747	1384.7127	1442.2012	1461.4605	1497.6045	1532.1392	1788.6666	2931.1729	3082.083	3132.5775	3134.4675	3147.4746	3169.7541	3227.6592	3689.7052
OC1(CC1C1CO1)C=O	O[C@]1(C[C@H]1[C@H]1CO1)C=O	
InChI=1S/C6H8O3/c7-3-6(8)1-4(6)5-2-9-5/h3-5,8H,1-2H2	InChI=1S/C6H8O3/c7-3-6(8)1-4(6)5-2-9-5/h3-5,8H,1-2H2/t4-,5+,6+/m0/s1
