23
gdb 59196	2.80435	1.05306	1.02417	1.8125	86.17	-0.2335	0.0855	0.319	1371.5381	0.204084	-388.229514	-388.219883	-388.218939	-388.263816	36.79	
C	 0.2766106558	 0.8878465752	-0.7213726767	-0.392725
C	 0.45080811	-0.6210516179	-0.4943531979	 0.004818
C	 1.3438048559	-1.2406204536	-1.579413191	-0.392723
C	 1.0219336196	-0.8939833685	 0.8929466932	 0.039786
C	 0.0961711353	-0.7975055076	 2.1401240598	 0.003966
O	-0.5989806924	-2.0274885572	 1.6891641707	-0.312436
C	 0.8501937189	-2.3017071034	 1.5337572938	 0.003962
C	 1.0615276207	-1.7059763048	 2.9564414037	 0.048323
C	 2.4054166476	-1.2524334325	 3.5024485454	-0.444249
H	 1.2395910568	 1.4105819788	-0.6661415301	 0.107221
H	-0.1509270472	 1.0884276445	-1.7092854527	 0.111172
H	-0.3878961268	 1.3335428729	 0.0258600949	 0.111586
H	-0.5342961692	-1.0963782299	-0.5404542627	 0.092823
H	 2.3509282991	-0.8059489009	-1.5594881213	 0.107221
H	 1.4452016647	-2.3227810153	-1.4481925599	 0.111586
H	 0.9282171408	-1.0634956103	-2.5768628911	 0.11117
H	 2.0128652643	-0.4417792119	 1.0034679359	 0.062572
H	-0.5284545517	 0.0301888314	 2.4813546273	 0.086716
H	 1.1320874799	-3.2824364386	 1.1459712285	 0.086718
H	 0.5023545693	-2.2846228941	 3.6965661982	 0.083399
H	 2.9942373946	-0.6704441612	 2.7895716105	 0.122152
H	 2.2619480584	-0.6357329784	 4.3962969364	 0.123473
H	 3.0054061353	-2.1195983265	 3.7989331453	 0.123471
65.9229	142.4469	155.3203	181.4802	211.0955	237.4746	277.3473	301.6657	364.2535	426.9057	437.896	573.3068	603.3463	748.4887	799.1537	804.5908	860.708	872.0088	878.5754	906.3898	932.7959	966.9637	1005.3821	1032.3057	1055.1747	1094.692	1111.125	1116.7697	1150.4872	1154.7583	1178.0013	1192.7446	1204.68	1230.3985	1260.4905	1272.6666	1312.409	1365.6992	1386.3373	1398.4512	1410.2154	1416.9783	1429.8624	1486.5149	1491.7885	1496.0939	1500.0115	1503.9953	1509.1237	3020.3207	3024.0667	3036.0031	3053.2713	3062.4132	3076.6201	3083.9974	3094.7248	3095.0017	3095.4596	3099.8227	3100.7043	3105.2128	3119.4677
CC(C)C1C2OC1C2C	CC(C)[C@H]1[C@H]2O[C@@H]1[C@H]2C	
InChI=1S/C8H14O/c1-4(2)6-7-5(3)8(6)9-7/h4-8H,1-3H3	InChI=1S/C8H14O/c1-4(2)6-7-5(3)8(6)9-7/h4-8H,1-3H3/t5-,6-,7-,8+
