18
gdb 45158	2.95397	1.82046	1.59074	3.6692	76.23	-0.2399	0.0338	0.2738	910.3864	0.152266	-401.981425	-401.975108	-401.974164	-402.011887	26.878	
N	-0.0702752589	 1.2349898436	 0.3944240358	-0.553409
C	-0.0155981517	 0.02510913	 0.0196949815	 0.404172
O	 1.1670677892	-0.605640836	-0.2597523481	-0.267482
C	 1.0451485409	-1.9819062763	-0.6726160038	 0.079473
C	 0.1209705668	-2.0563152664	-1.9006791681	-0.239616
C	-1.2409907487	-1.8512508918	-1.2572461275	-0.070905
C	-1.1361151097	-2.2924034042	 0.182354596	-0.070906
C	 0.2896519971	-2.7658642416	 0.4147734675	-0.239616
C	-1.2298947432	-0.8094464428	-0.1475886343	-0.09633
H	 0.8726527951	 1.6263884331	 0.445669043	 0.214155
H	 2.0651416618	-2.321012957	-0.8508388217	 0.090369
H	 0.3842850326	-1.2975597277	-2.6432134393	 0.117346
H	 0.1883214401	-3.0427937565	-2.3728491601	 0.106799
H	-2.1488544087	-1.9763356952	-1.8341631393	 0.094796
H	-1.9638243445	-2.7546584482	 0.7057220149	 0.094796
H	 0.378868677	-3.8443219234	 0.2427562204	 0.106799
H	 0.6796674119	-2.5400653726	 1.41142012	 0.117345
H	-2.1523047472	-0.291692787	 0.0782694932	 0.112212
130.3442	349.2881	361.1841	421.0803	447.419	498.2383	591.921	614.537	767.3404	773.8135	797.6655	824.9948	865.3226	889.3128	891.388	892.927	939.8847	963.3122	989.2203	1026.186	1035.3284	1065.5759	1083.6067	1100.4518	1100.9521	1155.3706	1171.775	1224.0252	1245.3184	1287.9475	1306.3753	1310.6789	1353.395	1355.9158	1404.8704	1416.0515	1478.0107	1493.6592	1749.9856	3043.5281	3047.9401	3096.062	3097.7851	3122.1145	3185.6125	3193.0272	3213.4485	3462.9651
N=C1OC2CC3C(C2)C13	[NH][C]1O[C@@H]2C[C@H]3[C@@H](C2)[C@@H]13	
InChI=1S/C7H9NO/c8-7-6-4-1-3(9-7)2-5(4)6/h3-6,8H,1-2H2	InChI=1S/C7H9NO/c8-7-6-4-1-3(9-7)2-5(4)6/h3-6,8H,1-2H2/t3-,4+,5-,6+
