12
gdb 16483	3.06774	2.75921	1.7687	3.2262	53.61	-0.2249	-0.0099	0.215	707.6768	0.082515	-418.403787	-418.397487	-418.396543	-418.434046	24.03	
O	-0.0609419602	 1.3677421607	 0.1369751338	-0.441607
C	 0.0942982918	 0.0132470217	 0.0876868384	 0.203801
C	-0.1673361445	-0.8549100241	-1.153195159	 0.023802
O	 0.54020341	-2.0874081938	-1.0074181166	-0.286925
C	 0.0397140504	-2.1042352683	 0.3653790809	-0.080281
C	-1.063881386	-1.0567454247	 0.0085356335	-0.174607
C	 0.7950746136	-0.920735612	 1.0375186434	 0.401962
O	 1.4381981663	-0.790752092	 2.0372174333	-0.33146
H	 0.5706205948	 1.7817886341	-0.4622257464	 0.30437
H	-0.3322871167	-0.4343622944	-2.1379475232	 0.129092
H	-0.0684861122	-3.0885058712	 0.8104883171	 0.113487
H	-2.1133724971	-0.935894246	 0.2292465548	 0.138366
164.6093	224.0518	256.9245	324.5268	442.5825	497.6784	635.6649	685.0958	714.9068	781.9436	802.1538	831.6058	880.3038	940.2186	947.8014	963.6857	993.147	1054.3459	1111.9872	1159.7428	1197.3682	1245.3895	1285.1234	1322.9889	1451.5577	1892.3015	3179.2375	3195.45	3242.0447	3795.5569
OC12C3OC(C13)C2=O	O[C@]12[C@H]3O[C@H]([C@@H]13)C2=O	
InChI=1S/C5H4O3/c6-3-2-1-4(8-2)5(1,3)7/h1-2,4,7H	InChI=1S/C5H4O3/c6-3-2-1-4(8-2)5(1,3)7/h1-2,4,7H/t1-,2-,4+,5-/m1/s1
