23
gdb 104332	2.11261	1.44648	1.12509	1.4019	87.39	-0.2313	0.0304	0.2617	1248.8895	0.204605	-388.317115	-388.307032	-388.306088	-388.35159	38.333	
C	 2.2332685278	-0.2652497119	 0.7893513311	-0.385303
C	 1.108554818	 0.1219016444	-0.1766998813	-0.234233
C	 1.391042865	-0.2017211897	-1.6617560712	 0.317519
O	 2.655362064	 0.3495220207	-2.0551282186	-0.479954
C	 1.4290022333	-1.7179176283	-1.9681262818	-0.253814
C	 0.0371854577	-2.0706212292	-2.5421214708	-0.260469
C	-0.477753785	-0.7328342722	-3.010188438	-0.176142
C	 0.2482997194	 0.2879832607	-2.5546890804	 0.310144
C	 0.0425087518	 1.744962467	-2.8292964047	-0.519672
H	 2.3955912131	-1.3471548008	 0.8114079483	 0.12039
H	 3.1781452902	 0.2007745087	 0.497786448	 0.119362
H	 1.993236545	 0.0535087736	 1.8083525786	 0.108182
H	 0.1730708977	-0.3727151356	 0.1115555297	 0.102462
H	 0.9150442218	 1.2003335211	-0.085659574	 0.084564
H	 2.6856155725	 1.2662710935	-1.7606379481	 0.274077
H	 2.1979415704	-1.869149686	-2.7303955027	 0.117351
H	 1.7018677898	-2.323235662	-1.1008273911	 0.093194
H	 0.0921482083	-2.8107379054	-3.3486876098	 0.10207
H	-0.6220011134	-2.5044345733	-1.7767756217	 0.102185
H	-1.3579332661	-0.6313068548	-3.6379671121	 0.082598
H	-0.7987276804	 1.9085998681	-3.5078853615	 0.125869
H	-0.153987397	 2.3143106997	-1.9116247271	 0.122637
H	 0.9367869059	 2.1824676317	-3.2903668409	 0.126983
81.6327	110.4238	167.3503	178.2494	218.9406	242.3745	267.0955	297.4021	306.7106	342.3202	408.1691	501.4012	565.8946	588.9794	666.1006	706.1765	791.0844	811.3106	865.0429	925.5191	938.211	954.3413	998.2605	1017.1016	1025.2995	1036.1794	1064.5316	1090.2916	1116.8902	1134.9968	1206.6075	1215.2779	1244.6199	1282.3764	1299.357	1318.4696	1351.7368	1365.4018	1380.7389	1407.477	1409.0679	1480.0385	1480.9107	1482.9299	1494.3156	1496.7422	1502.0164	1507.797	1726.9031	3005.784	3006.0721	3017.4298	3043.3181	3048.9408	3053.5349	3063.8201	3069.6186	3106.3956	3111.0055	3114.2867	3121.2615	3174.4909	3804.2872
CCC1(O)CCC=C1C	CC[C@@]1(O)CCC=C1C	
InChI=1S/C8H14O/c1-3-8(9)6-4-5-7(8)2/h5,9H,3-4,6H2,1-2H3	InChI=1S/C8H14O/c1-3-8(9)6-4-5-7(8)2/h5,9H,3-4,6H2,1-2H3/t8-/m1/s1
