21
gdb 116141	2.63492	1.1715	0.85712	1.5738	82.85	-0.2366	0.0191	0.2558	1398.8328	0.181834	-424.222388	-424.212914	-424.21197	-424.256857	34.785	
C	-0.0776955253	 1.3598354214	 0.0754695497	-0.235703
O	 0.093109822	-0.0375826691	 0.0576318553	-0.244136
C	 0.6803551708	-0.5421275919	-1.1369591082	 0.076163
C	 1.2868022708	-1.9017627882	-0.7830351356	-0.119887
O	 1.6884553695	-2.5859794223	-1.9528104696	-0.246934
C	 0.5993726286	-2.9329538113	-2.7829189792	-0.146064
C	-0.40053311	-1.8194110073	-2.9865749517	 0.276594
C	-1.4417852747	-2.0542094412	-4.0439832576	-0.477402
C	-0.3354397066	-0.7173351207	-2.238643078	-0.172945
H	 0.8796865894	 1.8879393574	-0.0581326038	 0.105095
H	-0.7730958357	 1.7127182244	-0.7008157756	 0.106333
H	-0.4914948909	 1.6217667828	 1.0526296159	 0.127283
H	 1.4834411628	 0.1421130147	-1.4603853435	 0.073936
H	 2.1778797789	-1.7841006516	-0.1619283411	 0.108933
H	 0.5392504263	-2.4764117534	-0.2136507822	 0.099058
H	 1.0322271508	-3.2353371961	-3.7447375515	 0.11315
H	 0.0737498056	-3.8198223443	-2.380150767	 0.096635
H	-2.0108998079	-2.9710424666	-3.842749558	 0.127238
H	-2.149196758	-1.2229677967	-4.0993195454	 0.125491
H	-0.9845421936	-2.1818900613	-5.0336355399	 0.125922
H	-1.0493563027	 0.0888922112	-2.3903075631	 0.081239
76.7658	103.4877	143.1085	174.5732	202.879	247.4735	287.0708	340.5318	393.0581	416.7075	459.1046	494.1231	560.7528	639.4917	837.5832	879.6677	925.6791	961.5715	984.3354	1000.6279	1028.7477	1077.2539	1098.0086	1122.1932	1143.8467	1157.0469	1182.1282	1199.169	1222.2894	1249.4972	1304.7575	1333.2536	1343.5496	1356.3374	1398.3775	1413.5474	1421.1425	1478.5188	1479.2604	1484.1114	1490.0648	1491.8222	1500.836	1509.4067	1740.1235	2926.4661	2949.9947	2974.4947	2989.1793	3016.2566	3020.2714	3042.669	3062.4707	3101.5134	3110.3486	3114.7104	3153.8143
COC1COCC(C)=C1	CO[C@H]1COCC(=C1)C	
InChI=1S/C7H12O2/c1-6-3-7(8-2)5-9-4-6/h3,7H,4-5H2,1-2H3	InChI=1S/C7H12O2/c1-6-3-7(8-2)5-9-4-6/h3,7H,4-5H2,1-2H3/t7-/m1/s1
