20
gdb 107290	3.45015	1.32644	1.17943	2.2699	78.46	-0.2099	0.0735	0.2834	1126.2558	0.171105	-403.059612	-403.05151	-403.050566	-403.092274	31.615	
C	 0.1555267978	 1.3317377492	-0.2233687992	-0.257345
O	-0.2012426672	 0.0003329126	 0.1127506112	-0.281058
C	 0.5377706842	-0.5177881513	 1.1509744018	 0.422014
C	 1.9537445496	-1.0016423975	 0.9842609359	-0.369247
C	 0.8704328225	-1.9689047583	 1.4360750103	-0.107716
N	 0.4673272922	-1.8398071745	 2.8530111575	-0.11741
C	 1.534416349	-1.4714687378	 3.849181639	-0.171414
C	 1.1881717148	 0.039477375	 3.7125325046	-0.264991
C	 0.1514700612	-0.383001877	 2.6371108754	-0.042957
H	 1.2139616863	 1.4023207584	-0.5098459026	 0.111844
H	-0.4685661332	 1.6248808095	-1.07026889	 0.129096
H	-0.028098156	 2.0246028587	 0.6100706904	 0.111863
H	 2.2342439181	-1.143413367	-0.0551758754	 0.119298
H	 2.7702251381	-0.6912108209	 1.6285184833	 0.109196
H	 0.6516022008	-2.8744168017	 0.8813252276	 0.102418
H	 1.3241556001	-1.9035866053	 4.8311129091	 0.10636
H	 2.5473390634	-1.7616175854	 3.5543560835	 0.105445
H	 0.7431467111	 0.4808681642	 4.6065081498	 0.106773
H	 1.9944937141	 0.6909054163	 3.3662526339	 0.104608
H	-0.8918308567	-0.0891902173	 2.785188214	 0.083224
80.2124	137.7308	177.4946	232.2327	305.5708	337.0985	395.4148	444.5918	514.1085	659.3993	674.4815	758.7751	782.4371	846.5302	866.91	905.0589	933.4219	953.0444	989.8536	995.659	1004.4933	1026.1967	1051.439	1084.322	1105.6975	1118.9796	1174.3098	1179.5204	1192.826	1211.6399	1219.2917	1237.4061	1252.3354	1256.4966	1291.9272	1314.1038	1383.162	1469.7964	1480.8588	1487.6388	1498.2875	1505.7639	1514.6634	2992.1281	3046.2992	3049.4977	3061.0668	3067.3808	3091.9339	3121.101	3123.6274	3123.9698	3170.8148	3207.3327
COC12CC1N1CCC21	CO[C@]12C[C@H]1N1CC[C@@H]21	
InChI=1S/C7H11NO/c1-9-7-4-6(7)8-3-2-5(7)8/h5-6H,2-4H2,1H3	InChI=1S/C7H11NO/c1-9-7-4-6(7)8-3-2-5(7)8/h5-6H,2-4H2,1H3/t5-,6+,7-/m0/s1
