19
gdb 46547	3.73268	1.09882	1.01694	1.7902	74.5	-0.2425	-0.0223	0.2202	1208.1481	0.159539	-423.037433	-423.029311	-423.028367	-423.071066	30.591	
O	 0.030180165	 0.0385712149	-0.343843458	-0.308092
C	-0.0118049314	 1.2117161826	-0.0833826935	 0.406241
C	-1.2828511422	 2.047225106	 0.1209914352	-0.32253
C	-0.7839121174	 3.3777933031	 0.7026842533	-0.291825
C	 0.6240967128	 3.5568348741	 0.0998094846	 0.293033
C	 0.6865381821	 4.3436617691	-1.2379031066	-0.114807
O	 1.4111420201	 5.4237002196	-0.6216656315	-0.26904
C	 1.4764068241	 4.7258862874	 0.6371785971	-0.136507
C	 1.1981245098	 2.1380708183	 0.1028937996	-0.406118
H	-1.7403522124	 2.189992941	-0.8671663168	 0.135267
H	-2.0121137601	 1.5121779831	 0.7333131136	 0.131988
H	-1.4389873896	 4.2257912236	 0.4859393271	 0.112238
H	-0.7003559593	 3.3028177179	 1.7943306492	 0.107535
H	 1.2674837791	 3.8634689572	-2.0371138171	 0.099923
H	-0.2758114288	 4.6757397504	-1.649330628	 0.099578
H	 1.0265714325	 5.30580309	 1.4538323171	 0.099974
H	 2.5078811782	 4.4662513903	 0.9113045785	 0.098776
H	 1.6385826456	 1.902867921	 1.0823887101	 0.132488
H	 1.9689019419	 1.9458331304	-0.6476144138	 0.131878
51.5812	70.7105	134.7248	257.9911	359.3002	370.3388	429.3024	466.7629	494.9282	578.3611	712.6331	737.3103	811.1888	854.5238	885.4586	917.261	948.1224	981.9536	992.3552	997.6079	1029.8935	1045.5515	1110.5993	1154.6972	1163.622	1165.0218	1173.5946	1207.3265	1244.2583	1273.9825	1285.6738	1308.559	1314.0277	1342.3988	1390.4532	1445.6282	1449.6869	1495.8566	1513.562	1536.6286	1851.271	2993.5015	3004.9985	3020.1921	3029.3876	3035.1956	3040.9448	3043.1937	3092.9784	3103.3862	3110.9806
O=C1CCC2(COC2)C1	O=C1CCC2(COC2)C1	
InChI=1S/C7H10O2/c8-6-1-2-7(3-6)4-9-5-7/h1-5H2	InChI=1S/C7H10O2/c8-6-1-2-7(3-6)4-9-5-7/h1-5H2
