18
gdb 36701	3.67725	1.05293	0.92312	3.3035	75.78	-0.2675	0.0124	0.2798	1276.6046	0.147733	-401.916222	-401.907885	-401.906941	-401.950162	30.817	
N	 0.2398178298	-0.1406897038	 1.4149073367	-0.310814
C	 0.1216669237	 0.5691464107	 0.510925734	 0.263937
C	-0.0329288852	 1.475038678	-0.6477069425	-0.203907
O	 1.1127198772	 2.2259566907	-0.9408536334	-0.237167
C	 1.3883828353	 3.2835746081	-0.0310624547	 0.129951
C	 2.1968809625	 2.9802207029	 1.2806331418	-0.267748
C	 3.2531857738	 3.9849098012	 0.8071514412	-0.046982
C	 3.8216167147	 3.5274117601	-0.5006641082	-0.268631
C	 2.4842302493	 4.2199688666	-0.5027692958	-0.080104
H	-0.2520316182	 0.8652027101	-1.5298497756	 0.159597
H	-0.9074024639	 2.1181350438	-0.4595601143	 0.137695
H	 0.4553511462	 3.8180962919	 0.194054032	 0.076084
H	 1.6555943503	 3.2777539843	 2.1806059661	 0.109637
H	 2.5427118948	 1.9502084938	 1.3981431744	 0.12201
H	 3.7439081208	 4.7208101811	 1.4305807655	 0.092765
H	 4.6348008832	 4.1260586454	-0.8977391454	 0.114323
H	 3.8905952337	 2.4677275846	-0.7297449515	 0.121241
H	 2.317963262	 5.1377351808	-1.0529456302	 0.088112
45.082	80.8177	132.3401	210.4376	292.4405	359.7885	375.0526	424.6217	502.0916	622.3847	680.9637	785.2691	810.7075	822.0967	897.6176	917.889	956.8393	968.0017	1008.4759	1019.6233	1041.9088	1053.5171	1066.3175	1087.873	1111.6934	1134.5712	1154.2128	1214.1295	1243.6178	1267.8329	1296.3572	1318.0946	1369.0071	1381.9343	1408.6248	1466.6957	1477.1919	1496.6447	2355.8639	2987.0733	3006.9772	3069.2252	3084.0542	3121.2889	3124.5099	3185.7378	3198.1779	3211.7178
N#CCOC1CC2CC12	N#CCO[C@H]1C[C@H]2C[C@@H]12	
InChI=1S/C7H9NO/c8-1-2-9-7-4-5-3-6(5)7/h5-7H,2-4H2	InChI=1S/C7H9NO/c8-1-2-9-7-4-5-3-6(5)7/h5-7H,2-4H2/t5-,6-,7+/m1/s1
