22
gdb 114746	2.33594	1.55863	1.19381	2.2506	81.75	-0.2234	0.0773	0.3006	1156.6729	0.194856	-404.325165	-404.316248	-404.315304	-404.358421	34.379	
C	-0.1034026245	 0.5507538679	-1.4771871342	-0.236585
O	-0.2849754964	-0.7091080916	-0.8748288957	-0.232522
C	-1.4600904615	-0.8130152905	-0.0816170487	 0.073654
C	-2.7364329629	-1.0670060624	-0.9194779537	-0.249709
C	-2.8730601175	-2.5825840386	-0.9466821194	-0.016758
C	-1.6601973185	-3.3776964845	-1.2702881893	-0.257746
N	-2.0706986002	-3.1828590954	 0.1335841616	-0.104769
C	-1.3764280037	-2.0728991436	 0.8235747784	 0.028796
C	 0.0220323066	-2.4576340283	 1.2899647041	-0.388468
H	 0.8525473664	 0.5218426817	-2.0059646756	 0.128281
H	-0.896436113	 0.7919096678	-2.2006883971	 0.106312
H	-0.0707946494	 1.3546530743	-0.7250969137	 0.105876
H	-1.5526312671	 0.0981289432	 0.5277204488	 0.064476
H	-3.6069396968	-0.6246004589	-0.4218691142	 0.103742
H	-2.6689830529	-0.6186985127	-1.91521352	 0.108043
H	-3.8607974897	-3.0052770739	-1.1100410045	 0.08381
H	-1.7659050003	-4.3991468394	-1.6246939307	 0.107714
H	-0.7906711578	-2.8444565911	-1.639732809	 0.135286
H	-1.9932786611	-1.8588739779	 1.7065907291	 0.080708
H	 0.677434002	-2.6703816716	 0.4431868249	 0.130124
H	 0.4743609835	-1.6454793136	 1.8672683403	 0.109647
H	-0.0320555151	-3.345876101	 1.9250499085	 0.120089
104.5245	136.7603	190.2662	209.6695	219.7301	247.0374	312.6053	363.4314	415.1648	454.533	536.6414	659.2059	727.3431	753.235	825.5736	847.9604	863.5288	922.4757	944.47	967.5865	1010.7688	1052.4986	1074.5709	1091.284	1119.5351	1126.6739	1143.2744	1164.5449	1180.3399	1184.9809	1206.2006	1231.5938	1254.8383	1277.7098	1329.9878	1348.5682	1367.1831	1387.8942	1395.3711	1410.8053	1475.9568	1479.4536	1489.5857	1490.7877	1495.639	1504.8321	1512.8142	2974.8357	2987.7144	3015.3942	3023.4416	3045.3125	3049.5054	3089.106	3112.9449	3116.0136	3117.3387	3136.8827	3140.8192	3213.1724
COC1CC2CN2C1C	CO[C@H]1C[C@H]2CN2[C@H]1C	
InChI=1S/C7H13NO/c1-5-7(9-2)3-6-4-8(5)6/h5-7H,3-4H2,1-2H3	InChI=1S/C7H13NO/c1-5-7(9-2)3-6-4-8(5)6/h5-7H,3-4H2,1-2H3/t5-,6-,7-,8?/m0/s1
