17
gdb 30073	3.05998	1.37788	1.07652	2.8824	77.46	-0.201	0.0123	0.2133	1123.0394	0.137213	-418.064466	-418.055933	-418.054989	-418.097996	31.083	
C	-0.6885123264	 0.9841531768	 0.6466718379	-0.340192
N	-0.1574764897	-0.2933380635	 0.2095411163	-0.017926
C	-0.251904685	-0.8030188192	-1.0610814181	-0.099471
C	 0.3632712352	-2.0333557735	-1.0918907397	-0.156212
C	 0.8400717916	-2.2972202854	 0.2175187773	-0.225336
C	 0.5007404493	-1.2118040434	 0.9959359134	 0.335432
N	 0.7989142689	-0.9608874209	 2.3487985273	-0.401187
C	-0.1222513012	-0.7845232908	 3.3466026492	 0.132032
O	-1.3191777378	-0.693677943	 3.1944161765	-0.306778
H	 0.0864273156	 1.5626794743	 1.1589603055	 0.131226
H	-1.0149870849	 1.5431564632	-0.2315380085	 0.133039
H	-1.5268783894	 0.8397276561	 1.3316816243	 0.173403
H	-0.7600893275	-0.2452157512	-1.8314479832	 0.11653
H	 0.4518993831	-2.6753108489	-1.9543250744	 0.096465
H	 1.3626865691	-3.1764101302	 0.5616901368	 0.092827
H	 1.7580222635	-1.0829110284	 2.6383004529	 0.258066
H	 0.3722699456	-0.7064265919	 4.3354308466	 0.078081
77.3831	99.3168	140.2718	203.8436	206.249	300.0406	334.2829	472.0061	524.5965	610.2892	621.059	642.7232	711.76	722.2066	766.3801	833.3731	880.7291	903.1072	1026.8995	1030.9291	1073.6811	1113.0438	1132.123	1156.3249	1242.268	1258.0086	1343.3173	1399.6823	1429.0066	1443.0168	1471.6401	1475.4302	1480.5865	1525.2756	1544.5112	1603.971	1810.7544	2936.1259	3047.8731	3116.5078	3147.4178	3243.1766	3254.1606	3270.0005	3604.065
CN1C=CC=C1NC=O	Cn1cccc1NC=O	
InChI=1S/C6H8N2O/c1-8-4-2-3-6(8)7-5-9/h2-5H,1H3,(H,7,9)	InChI=1S/C6H8N2O/c1-8-4-2-3-6(8)7-5-9/h2-5H,1H3,(H,7,9)
