23
gdb 115804	3.7011	1.05659	0.93981	1.1294	86.25	-0.2415	0.0851	0.3266	1367.3021	0.206038	-388.290142	-388.280872	-388.279928	-388.323907	35.743	
C	 0.0561038357	 1.3279667117	-0.1605461709	-0.234015
O	 0.0145398365	-0.0362373913	 0.1838159071	-0.246164
C	-1.2847231013	-0.599760414	 0.1398687084	 0.151772
C	-1.8351597752	-0.8102319301	-1.2963338657	-0.267479
C	-2.7508325936	-2.0473256499	-1.1995991298	-0.271352
C	-2.1915102883	-2.8838446194	-0.0489784831	 0.357365
C	-3.0981990302	-3.9115027322	 0.5842807435	-0.48108
C	-0.6988550739	-3.104500145	-0.0620772102	-0.327151
C	-1.2847215459	-1.9806095314	 0.7619758782	-0.09818
H	 1.0849364152	 1.6683507311	-0.0174053065	 0.123754
H	-0.2282368719	 1.5066770808	-1.2085623336	 0.103123
H	-0.6075897531	 1.9310636094	 0.4805755829	 0.099007
H	-1.9721466195	 0.0499594662	 0.7097461998	 0.056623
H	-2.3592745249	 0.066439368	-1.6847091014	 0.096015
H	-0.9857328487	-0.9984626376	-1.961095078	 0.112261
H	-3.7755562841	-1.7443418218	-0.9487841265	 0.095023
H	-2.8072218578	-2.6014731882	-2.1440061024	 0.095216
H	-3.3640416457	-4.6994666906	-0.1307827976	 0.115446
H	-2.6178634548	-4.3937882153	 1.4415883132	 0.113546
H	-4.032159831	-3.4563050944	 0.935487337	 0.111335
H	-0.327600413	-3.9630101704	 0.4876637574	 0.104855
H	-0.1163229875	-2.8646765858	-0.9450176482	 0.112147
H	-1.2369602969	-2.0521204097	 1.8431651063	 0.077932
81.7341	115.9934	187.7155	210.5114	218.6374	239.8077	315.9497	346.3277	392.0299	440.9919	497.9254	553.0631	631.8906	691.9729	821.5353	853.2791	874.616	924.2582	943.7445	953.6154	987.2845	1000.0818	1023.9533	1052.4047	1071.3419	1074.7834	1100.0488	1136.1311	1154.6197	1180.4045	1189.8566	1223.9084	1230.6183	1267.8143	1288.213	1319.9874	1333.7628	1350.607	1388.4306	1408.8175	1423.2351	1479.6547	1485.2657	1488.608	1491.066	1493.1213	1503.2988	1510.1449	1517.9252	2942.7138	2968.4044	3015.3797	3017.0359	3022.0473	3050.7515	3062.114	3075.2594	3096.2083	3101.9223	3108.2183	3130.5877	3166.5594	3212.0826
COC1CCC2(C)CC12	CO[C@H]1CC[C@@]2(C)C[C@@H]12	
InChI=1S/C8H14O/c1-8-4-3-7(9-2)6(8)5-8/h6-7H,3-5H2,1-2H3	InChI=1S/C8H14O/c1-8-4-3-7(9-2)6(8)5-8/h6-7H,3-5H2,1-2H3/t6-,7-,8-/m0/s1
