15
gdb 29468	3.40515	1.60292	1.09828	2.4457	73.14	-0.2135	0.0018	0.2153	1028.5382	0.115996	-416.842222	-416.835397	-416.834452	-416.873216	27.219	
N	-0.0454079246	 1.3683203932	 0.1342446689	-0.571996
C	 0.0182776143	-0.0006084662	 0.0344945418	 0.258561
N	-1.0374617337	-0.7550527626	 0.0181657958	-0.33094
C	-0.6061642536	-2.1621022646	-0.009750267	-0.284074
C	 0.8843352246	-2.0566614159	-0.0273023173	 0.296538
C	 1.2761925851	-0.7574372201	 0.0045560792	 0.208065
C	 2.7101660563	-0.7722544428	 0.0035792359	-0.400649
C	 3.0467394365	-2.0927216088	-0.0306364412	-0.005726
O	 1.9303958444	-2.9009393726	-0.0484398547	-0.199129
H	 0.7122063384	 1.8848040259	-0.284187365	 0.252072
H	-0.960567706	 1.7520261007	-0.0543797046	 0.256308
H	-0.9892130644	-2.698120656	 0.8683634532	 0.1337
H	-1.0181977719	-2.6661839469	-0.893254278	 0.132174
H	 3.4055391845	 0.0521827895	 0.0287832224	 0.11602
H	 3.9895708902	-2.614137203	-0.0458162495	 0.139077
186.2979	202.3564	274.611	301.2842	393.8566	499.2366	547.8711	608.4881	622.3383	632.5786	646.3832	730.159	759.5623	797.1262	817.349	921.2703	961.3214	964.7257	1033.6551	1075.9772	1148.1597	1159.6931	1161.3946	1224.2587	1269.3081	1319.8502	1430.531	1454.6798	1505.1952	1517.3397	1576.1941	1623.0397	1677.6794	3026.6583	3052.4362	3252.7774	3284.2185	3571.4167	3685.1629
NC1=NCC2=C1C=CO2	NC1=NCc2c1cco2	
InChI=1S/C6H6N2O/c7-6-4-1-2-9-5(4)3-8-6/h1-2H,3H2,(H2,7,8)	InChI=1S/C6H6N2O/c7-6-4-1-2-9-5(4)3-8-6/h1-2H,3H2,(H2,7,8)
