18
gdb 84899	2.0616	1.77651	1.28759	4.6371	76.47	-0.2361	0.0054	0.2415	1052.2952	0.150425	-398.130776	-398.122408	-398.121464	-398.163572	31.967	
N	-0.0583177666	 1.4559532759	-0.200260989	-0.520344
C	-0.0196071072	 0.0021550887	-0.0360120067	-0.033562
C	 0.7878582412	-0.500875981	 1.1429296924	-0.077533
C	 0.4059229351	-1.5198366626	 1.910980832	-0.047421
C	-0.8566475761	-2.3012468293	 1.6526384923	-0.231025
N	-1.5246234693	-1.9796109839	 0.3849247671	-0.295449
C	-1.469388123	-0.5558644013	 0.0495492144	-0.145135
C	-2.255779304	 0.2082724518	 1.034874263	 0.315755
N	-2.849040122	 0.8221275877	 1.8134667896	-0.339332
H	-0.3480914144	 1.8954470993	 0.6700696948	 0.244663
H	 0.8709493916	 1.8079517301	-0.4093367736	 0.231481
H	 0.4019880357	-0.4014443903	-0.9676939849	 0.091598
H	 1.7073027509	 0.0403167522	 1.3562759406	 0.086825
H	 0.9916229444	-1.8072671017	 2.7812534208	 0.09587
H	-0.6493069965	-3.3773599655	 1.6570289313	 0.117129
H	-1.5636230801	-2.1312745282	 2.4777271211	 0.141956
H	-1.084543822	-2.4931769924	-0.3712425714	 0.229269
H	-1.9533408679	-0.4074473095	-0.9213387439	 0.135255
94.9972	138.6149	155.7941	277.2245	290.2198	302.3323	351.3052	438.4091	460.074	505.7359	616.85	636.263	710.6078	756.1168	775.5533	856.9931	879.4637	922.1511	939.1531	991.817	1003.0729	1061.9864	1072.7644	1118.7295	1156.6963	1190.1805	1216.0012	1242.8669	1277.4397	1325.4711	1356.8162	1381.1173	1394.2789	1413.0604	1477.5461	1492.3823	1657.6153	1715.3076	2358.7318	2999.5055	3009.0387	3059.0901	3064.4187	3139.3941	3163.5963	3485.3069	3529.3505	3567.4994
NC1C=CCNC1C#N	N[C@H]1C=CCN[C@H]1C#N	
InChI=1S/C6H9N3/c7-4-6-5(8)2-1-3-9-6/h1-2,5-6,9H,3,8H2	InChI=1S/C6H9N3/c7-4-6-5(8)2-1-3-9-6/h1-2,5-6,9H,3,8H2/t5-,6-/m0/s1
