17
gdb 88507	2.51059	1.33161	1.1573	4.0793	72.71	-0.2628	0.0198	0.2826	1122.3029	0.135896	-417.965947	-417.957423	-417.956479	-417.999473	32.063	
O	-0.1360108475	 1.0764695254	 1.3455151267	-0.417447
C	-0.0175809659	 0.04463183	 0.411135761	 0.110273
C	-0.6229921275	-1.2573471696	 0.8386901062	-0.342809
C	-1.2621054048	-0.4727973915	-0.285118645	-0.116201
C	-2.5934019395	 0.2223430073	-0.1419077614	 0.128864
C	-3.7342708988	-0.4496673062	 0.5634191707	-0.259899
N	-3.0899378753	 0.7177904632	 1.1538024365	-0.330494
C	-2.8916891692	 1.1019378161	-1.2588250378	 0.273371
N	-3.101447735	 1.7797306926	-2.1715878742	-0.338618
H	-0.2698976314	 1.9057118498	 0.872559941	 0.302727
H	 0.9195460237	 0.0273240688	-0.1431548506	 0.103361
H	-0.1247424534	-2.1872777428	 0.5914897268	 0.12848
H	-1.1022355683	-1.2530964838	 1.8128067245	 0.12654
H	-1.1064185987	-0.8708738374	-1.2836605757	 0.111182
H	-4.7512846446	-0.2888258494	 0.2198427567	 0.141483
H	-3.5250835427	-1.4383416324	 0.963224723	 0.127748
H	-2.4239535912	 0.4793143799	 1.8833892416	 0.251437
45.6799	141.9059	172.0882	232.955	251.2003	336.4657	369.2411	388.7913	480.8218	520.9439	583.2526	600.8474	696.7603	807.735	832.504	854.7444	870.8144	921.0823	975.5847	993.7852	1019.9581	1068.25	1070.9576	1110.9086	1132.4447	1146.5915	1176.3481	1224.2039	1234.9567	1275.1491	1300.8674	1350.9105	1407.6457	1425.1452	1490.9833	1505.8766	2356.2613	3114.3759	3114.4025	3137.8851	3152.2248	3208.0884	3224.6375	3526.5031	3798.6135
OC1CC1C1(CN1)C#N	O[C@H]1C[C@H]1[C@]1(CN1)C#N	
InChI=1S/C6H8N2O/c7-2-6(3-8-6)4-1-5(4)9/h4-5,8-9H,1,3H2	InChI=1S/C6H8N2O/c7-2-6(3-8-6)4-1-5(4)9/h4-5,8-9H,1,3H2/t4-,5+,6-/m1/s1
