20
gdb 103259	2.70405	1.30622	1.10767	2.8372	81.04	-0.2542	0.0185	0.2727	1199.2922	0.169726	-403.127892	-403.118818	-403.117874	-403.161738	34.425	
C	-0.4489545182	 1.2954357432	 0.0518611335	-0.38345
C	 0.2607209354	-0.0568463016	-0.0918566483	-0.251349
C	 0.8500596577	-0.575789745	 1.2118145148	 0.292111
C	 2.0478259814	 0.1943218055	 1.7457122131	-0.466435
C	 0.0012883652	-1.1876642394	 2.275944768	 0.04098
O	-1.1491242583	-1.865362556	 1.7057804496	-0.273972
C	-0.2965266449	-2.7713246053	 1.0665780118	 0.437634
N	-0.5656694485	-3.8031626646	 0.408483835	-0.559778
C	 0.952047221	-2.0899005081	 1.5148554113	-0.261631
H	 0.2285225992	 2.0839494734	 0.394337791	 0.1151
H	-0.8641202153	 1.6148898026	-0.9086172416	 0.117492
H	-1.2747591835	 1.2257563623	 0.7671740312	 0.126822
H	-0.4454193579	-0.787707242	-0.4931703006	 0.122898
H	 1.0716642162	 0.0219079302	-0.8267380716	 0.099442
H	 1.7973104885	 1.2465333541	 1.9102810598	 0.129941
H	 2.3994342439	-0.216393597	 2.6976039688	 0.120045
H	 2.8808861231	 0.1529686619	 1.0360001241	 0.129856
H	-0.0569368727	-0.9185670148	 3.3226643978	 0.118218
H	-1.5747880723	-3.9517142069	 0.3527546179	 0.229409
H	 1.87723285	-2.5685752826	 1.8013533644	 0.11667
57.2799	120.387	184.1268	206.4574	224.3585	270.6228	304.6302	349.6654	414.4838	483.4005	518.5931	667.1601	692.1331	759.451	779.9514	825.2506	860.519	867.5154	916.4498	948.0774	968.9138	1000.5804	1017.5027	1032.8943	1045.6069	1063.1233	1080.0114	1128.9478	1186.829	1191.517	1267.6562	1300.6153	1321.0867	1367.889	1406.4819	1408.6501	1417.8799	1479.4584	1492.564	1502.0787	1505.3086	1507.0088	1826.0682	3032.3944	3035.3839	3038.6472	3089.6834	3100.6803	3106.6798	3109.7051	3113.8424	3201.5982	3225.8987	3477.4133
CCC1(C)C2OC(=N)C12	CC[C@@]1(C)[C@H]2O[C]([NH])[C@@H]12	
InChI=1S/C7H11NO/c1-3-7(2)4-5(7)9-6(4)8/h4-5,8H,3H2,1-2H3	InChI=1S/C7H11NO/c1-3-7(2)4-5(7)9-6(4)8/h4-5,8H,3H2,1-2H3/t4-,5-,7+/m0/s1
