18
gdb 68507	2.55076	1.85017	1.44232	2.2498	75.03	-0.2347	0.0019	0.2366	961.858	0.148838	-401.917098	-401.909673	-401.908729	-401.948667	29.854	
C	 0.0095376708	 1.5484300304	 0.0242142226	-0.508869
C	 0.0156528149	 0.0413752183	-0.0094503332	 0.208101
C	 0.4330508809	-0.7994086037	-1.2653895365	-0.286904
C	-0.3475252416	-1.9729022732	-0.5931961746	-0.16763
C	 0.405449101	-2.1675944909	 0.7311419575	-0.04293
N	 1.7869046005	-1.6354134231	 0.7581671234	-0.341779
C	 0.6601218574	-0.755560786	 1.1412956106	-0.090065
C	-1.2925783738	-0.8145636078	-0.1377041357	 0.401167
O	-2.4646365095	-0.6089317482	-0.0842228114	-0.319255
H	 1.0243337398	 1.9513164388	-0.0591374697	 0.126538
H	-0.5887180484	 1.9570168423	-0.7960791176	 0.126284
H	-0.4209931373	 1.9167037095	 0.9617697543	 0.125453
H	-0.0559628536	-0.4448225885	-2.1743474603	 0.109377
H	 1.4996126924	-0.9513732123	-1.4113223317	 0.142276
H	-0.6989444484	-2.8413834411	-1.1443173386	 0.0841
H	 0.1046825052	-2.9407571068	 1.4274670435	 0.102154
H	 2.2341189793	-1.9658967459	 1.6103585188	 0.235167
H	 0.5608579604	-0.4064513919	 2.1627031986	 0.096816
134.3897	175.488	203.5772	294.1208	308.6643	439.575	524.3456	535.5522	579.3259	680.2952	720.6134	756.4331	794.6507	831.8797	848.7622	872.469	896.812	913.2707	943.0021	989.3458	1004.035	1047.3182	1069.4027	1083.4903	1129.6576	1153.766	1172.5152	1198.5968	1201.4563	1224.5932	1270.9649	1280.9076	1352.1142	1399.0117	1416.0467	1479.0687	1489.9331	1491.8176	1900.7257	3032.32	3090.6405	3097.3394	3105.0202	3154.1108	3174.2826	3177.2033	3190.9613	3502.4844
CC12CC(C3NC13)C2=O	C[C@@]12C[C@@H]([C@H]3N[C@@H]13)C2=O	
InChI=1S/C7H9NO/c1-7-2-3(6(7)9)4-5(7)8-4/h3-5,8H,2H2,1H3	InChI=1S/C7H9NO/c1-7-2-3(6(7)9)4-5(7)8-4/h3-5,8H,2H2,1H3/t3-,4+,5+,7+/m0/s1
