23
gdb 106970	3.28782	1.09836	1.00896	0.8748	86.5	-0.239	0.0895	0.3285	1331.6201	0.203576	-388.259129	-388.249287	-388.248342	-388.293281	37.845	
C	 0.0932633323	 1.3258834725	 0.2389150046	-0.257135
O	 0.0122969287	-0.017675611	-0.2041960839	-0.28369
C	-1.2638519867	-0.5370697683	-0.1382960571	 0.469653
C	-1.8639841546	-1.0346046556	 1.1464203773	-0.362619
C	-1.648305083	-1.9954296767	-0.0070127984	-0.174648
C	-2.7238320861	-1.8319808256	-1.1048136792	 0.345881
C	-2.3154265073	-2.5786923304	-2.3760751218	-0.439087
C	-4.1655151106	-2.1612605672	-0.7220704944	-0.443287
C	-2.3521373859	-0.3010103126	-1.195586409	-0.363455
H	 1.1405532966	 1.6264698783	 0.1606384814	 0.12513
H	-0.5161278346	 1.9971656002	-0.3830214098	 0.110851
H	-0.2348673546	 1.4247128688	 1.2832700295	 0.110014
H	-1.1458216423	-1.1526153261	 1.9520688683	 0.113357
H	-2.8605233133	-0.7432509572	 1.4697594591	 0.100839
H	-1.0080732774	-2.8638993968	 0.1014219801	 0.085899
H	-2.3960508253	-3.6630005925	-2.2350872309	 0.109399
H	-2.9586697838	-2.3012048792	-3.2188506617	 0.109122
H	-1.279814916	-2.3527182074	-2.6503054728	 0.11939
H	-4.4757040739	-1.6488542747	 0.193379974	 0.110672
H	-4.8567447013	-1.863702229	-1.5190226932	 0.110869
H	-4.2904151467	-3.2379773426	-0.5593616729	 0.111731
H	-3.1394110158	 0.4127847287	-0.930980891	 0.08719
H	-1.9415844682	-0.0351686455	-2.1727593282	 0.103925
80.8329	110.0745	175.339	215.2998	229.6868	254.7623	267.625	323.243	359.8127	408.7109	415.4569	429.751	485.2511	603.8214	686.2436	779.3974	832.0025	894.9421	917.0819	941.441	949.002	971.1619	985.0043	1004.9286	1021.1611	1042.0189	1065.7184	1094.7309	1127.4616	1180.6895	1185.9664	1195.7264	1214.2994	1232.8321	1267.4762	1280.1352	1311.3374	1375.3954	1401.82	1421.9782	1469.0065	1479.2576	1484.0602	1486.849	1487.9675	1501.9372	1504.7228	1507.5056	1508.2855	2989.8556	3019.2509	3025.8045	3040.3216	3043.4381	3083.4604	3089.6211	3096.1391	3098.9533	3105.468	3107.007	3119.3268	3172.5836	3198.9434
COC12CC1C(C)(C)C2	CO[C@]12C[C@H]1C(C)(C)C2	
InChI=1S/C8H14O/c1-7(2)5-8(9-3)4-6(7)8/h6H,4-5H2,1-3H3	InChI=1S/C8H14O/c1-7(2)5-8(9-3)4-6(7)8/h6H,4-5H2,1-3H3/t6-,8-/m0/s1
