19
gdb 62973	2.26512	1.62151	1.2901	4.018	79.	-0.2535	0.0089	0.2624	1073.8776	0.158681	-382.043406	-382.034651	-382.033707	-382.076323	33.492	
C	-0.0952155074	 1.5868552914	-0.1106551021	-0.452264
C	 0.0211743552	 0.0670537346	-0.048128089	 0.287695
C	-1.3367476478	-0.577795673	 0.2346182714	-0.446794
C	 0.7511565355	-0.6371102546	-1.2012430814	-0.043312
C	 2.1894754559	-0.3274233814	-1.2602140798	-0.264381
N	 1.741504106	-1.3369227086	-0.277778418	-0.133447
C	 1.135854891	-0.5665476361	 0.8748847243	-0.179889
C	 2.0431520774	 0.3294990325	 1.5799706531	 0.311388
N	 2.7534396982	 1.0621528597	 2.1243759793	-0.340166
H	 0.8658137245	 2.0735173827	-0.2918401594	 0.132801
H	-0.7793397323	 1.8775269234	-0.9152521013	 0.120333
H	-0.4944926653	 1.9849784306	 0.8282392067	 0.128928
H	-2.0587474979	-0.3065528095	-0.5431637682	 0.122918
H	-1.2630528267	-1.6695988627	 0.2593748507	 0.130001
H	-1.7369557379	-0.2383280311	 1.195743233	 0.125511
H	 0.2443556448	-1.1876426794	-1.9882810404	 0.100695
H	 2.7604736188	-0.7743114502	-2.0677755867	 0.133519
H	 2.5804183228	 0.6221304382	-0.9055320982	 0.138032
H	 0.7179420951	-1.2766127863	 1.5922982559	 0.128431
115.5409	138.5286	192.1485	218.9358	249.0763	277.8944	342.573	362.0064	403.544	480.3401	545.4559	558.9573	646.5845	751.134	781.5072	826.6273	883.0709	956.326	961.5194	994.863	1000.6015	1015.5597	1049.7261	1068.3098	1119.577	1138.5969	1183.8382	1210.1558	1222.3054	1246.5566	1276.6302	1337.2641	1373.7068	1404.3443	1426.2097	1482.69	1483.2992	1499.6064	1507.1288	1508.68	2347.5644	3029.2089	3036.392	3082.816	3097.6816	3102.6986	3106.3494	3118.2102	3123.5557	3157.4885	3209.3647
CC1(C)C2CN2C1C#N	CC1(C)[C@H]2CN2[C@H]1C#N	
InChI=1S/C7H10N2/c1-7(2)5(3-8)9-4-6(7)9/h5-6H,4H2,1-2H3	InChI=1S/C7H10N2/c1-7(2)5(3-8)9-4-6(7)9/h5-6H,4H2,1-2H3/t5-,6+,9?/m0/s1
