16
gdb 34995	2.74624	1.71411	1.48595	5.8309	71.56	-0.2718	0.0253	0.2971	929.9184	0.126112	-400.733392	-400.726437	-400.725493	-400.764808	27.294	
N	-0.2008059283	-1.1980793561	-0.2254965414	-0.356207
C	-0.0051315819	-0.0648064893	-0.1024161393	 0.313214
C	 0.0706106249	 1.3674413276	 0.0179740133	-0.178166
C	 0.4702990453	 2.0975490318	 1.290097039	-0.07487
C	 1.2736980916	 1.3854400979	 2.3846218185	-0.273661
C	 2.6345192872	 1.0781339722	 1.7715521289	 0.046428
O	 2.5925321206	 0.1650261878	 0.670089925	-0.230372
C	 2.6626550971	 1.5616548908	 0.3789841179	 0.020285
C	 1.3381806021	 2.213153582	 0.0536747309	-0.083583
H	-0.746700572	 1.8459024024	-0.5155514304	 0.137253
H	-0.1896965962	 2.9025630255	 1.5923433637	 0.106431
H	 1.4001765787	 2.0612491651	 3.2368087779	 0.115815
H	 0.7850684161	 0.4772740843	 2.752240316	 0.14154
H	 3.5165154236	 0.9977952458	 2.4022817517	 0.105361
H	 3.5615835202	 1.892829609	-0.1325598831	 0.107649
H	 1.3495693611	 3.1024944733	-0.5649354584	 0.102882
104.5606	156.3024	251.243	325.6161	375.1337	457.2098	587.0317	633.8076	689.4586	739.6159	749.9943	763.0084	842.1692	859.4888	883.3589	927.9796	957.9959	1001.994	1021.3853	1044.1564	1050.4498	1070.0003	1107.2435	1124.1254	1209.4213	1214.0746	1259.3195	1296.778	1314.5874	1353.0851	1363.3919	1403.0273	1434.6445	1472.1802	2354.9487	3052.4955	3094.2844	3142.7469	3143.968	3160.7061	3173.88	3189.7439
N#CC1C2CC3OC3C12	N#C[C@H]1[C@H]2C[C@H]3O[C@H]3[C@@H]12	
InChI=1S/C7H7NO/c8-2-4-3-1-5-7(9-5)6(3)4/h3-7H,1H2	InChI=1S/C7H7NO/c8-2-4-3-1-5-7(9-5)6(3)4/h3-7H,1H2/t3-,4+,5-,6-,7-/m1/s1
