18
gdb 40505	4.32106	1.22913	1.17351	1.5792	75.44	-0.2398	0.0767	0.3165	1093.7149	0.148685	-401.85228	-401.845119	-401.844175	-401.884236	28.215	
C	 0.1068381333	 1.4833516338	-0.0185579625	-0.181945
O	 1.2104705877	 0.58038027	-0.1068711336	-0.238647
C	-0.1024675189	 0.0311665626	 0.0612680533	-0.053765
C	-0.3635544122	-0.6547599695	 1.3456474393	 0.384412
C	 0.0995747388	-0.2646390086	 2.7493940663	-0.308062
C	-0.427841337	-1.6583493657	 3.1853881114	-0.09127
C	-1.9348056366	-1.5341313569	 2.9062399172	-0.14508
N	-1.6461043055	-1.4522728999	 1.4352310442	-0.195223
C	-0.3277459579	-2.1036971272	 1.6750986896	-0.104198
H	 0.0667619184	 2.0837522896	 0.8890246833	 0.113254
H	-0.1433687034	 2.0122590221	-0.9370890052	 0.117577
H	-0.4995310638	-0.4813509882	-0.8144198696	 0.099285
H	 1.1894035941	-0.2032619376	 2.7789631161	 0.123316
H	-0.3409785354	 0.6145677549	 3.2332682333	 0.092351
H	-0.0247858979	-2.1643408064	 4.0601332084	 0.078056
H	-2.4937750869	-2.454973674	 3.0909747022	 0.111332
H	-2.4742498376	-0.6782531958	 3.3294595891	 0.097112
H	 0.0325081908	-2.9771218032	 1.1474146173	 0.101495
69.6542	162.7016	173.9927	366.1996	378.9202	442.3764	525.6159	621.8629	727.3777	752.3204	805.859	842.8806	856.7296	884.472	930.0486	943.2892	956.8903	979.7117	989.1434	999.7683	1019.6935	1078.6351	1099.1397	1123.4565	1144.2458	1154.4663	1160.4672	1169.9326	1185.0465	1231.1277	1243.2504	1267.7062	1287.7677	1317.6593	1354.9874	1469.1068	1497.6192	1515.0351	1530.2776	3030.2066	3039.377	3084.281	3102.8177	3117.259	3119.5565	3138.1172	3171.3599	3202.8343
C1OC1C12CC3CN1C23	C1O[C@H]1[C@@]12C[C@H]3CN1[C@@H]23	
InChI=1S/C7H9NO/c1-4-2-8-6(4)7(1,8)5-3-9-5/h4-6H,1-3H2	InChI=1S/C7H9NO/c1-4-2-8-6(4)7(1,8)5-3-9-5/h4-6H,1-3H2/t4-,5+,6+,7+,8?/m0/s1
