19
gdb 61986	3.64135	0.80607	0.73629	3.9285	78.82	-0.2467	0.0482	0.2949	1565.5504	0.157631	-419.218713	-419.208205	-419.207261	-419.254878	37.994	
C	-0.5204303903	 1.2822469169	 0.0654728793	-0.386866
C	 0.1689991981	-0.0732489402	-0.1733562834	-0.143443
C	 1.2121655528	-0.0085621518	-1.3188740508	-0.15946
N	 0.6264849456	 0.3830992144	-2.5923633468	-0.335669
C	 0.0072218707	-0.5632030392	-3.3789568413	 0.444932
N	-0.3247547858	-0.1175846654	-4.6537096346	-0.566465
O	-0.2083413018	-1.6998529424	-2.9996813067	-0.386833
C	 0.8123253385	-0.5636471201	 1.0424897499	 0.320009
C	 1.3699145126	-0.9453218433	 2.0371200224	-0.467227
H	 0.2032988184	 2.032737666	 0.400382296	 0.116981
H	-0.9855299879	 1.6330650116	-0.8595447558	 0.113021
H	-1.2933901914	 1.1946616307	 0.8328708763	 0.127523
H	-0.5847539475	-0.8047051986	-0.4885884156	 0.134923
H	 1.9867143063	 0.7204101681	-1.0633829838	 0.105902
H	 1.6827780131	-0.9907442773	-1.4170973021	 0.138981
H	 1.0018408811	 1.1999774951	-3.0444997376	 0.242819
H	-0.5509066839	 0.8595649864	-4.765276062	 0.246057
H	-0.9679461804	-0.7394138981	-5.1200742509	 0.261783
H	 1.8468136716	-1.2980062827	 2.9177122974	 0.193032
48.7427	61.5808	81.8046	158.0962	213.308	237.9864	253.2483	318.6294	333.4367	389.6362	432.5121	484.5678	530.3514	538.4435	567.6681	624.9711	640.8072	684.2665	780.2484	821.7177	867.2546	925.4566	959.5184	1075.7039	1092.0033	1116.7737	1134.0772	1177.3685	1273.32	1326.1537	1331.8943	1354.5185	1390.9447	1409.5049	1468.6367	1496.0788	1498.3474	1530.2692	1628.4151	1799.8602	2234.0674	3039.6403	3044.4048	3057.2987	3108.69	3114.3637	3126.5701	3505.1826	3573.2908	3643.8118	3686.5593
CC(CNC(N)=O)C#C	C[C@@H](CNC(=O)N)C#C	
InChI=1S/C6H10N2O/c1-3-5(2)4-8-6(7)9/h1,5H,4H2,2H3,(H3,7,8,9)	InChI=1S/C6H10N2O/c1-3-5(2)4-8-6(7)9/h1,5H,4H2,2H3,(H3,7,8,9)/t5-/m1/s1
