20
gdb 107439	2.8175	1.48672	1.21496	2.6986	77.77	-0.2381	0.0782	0.3163	1091.4973	0.17261	-403.105099	-403.097214	-403.09627	-403.137419	31.662	
O	 0.0652224133	 1.3988113687	 0.0725887062	-0.419298
C	 0.025721971	-0.0057634954	-0.0994994646	-0.127861
C	-1.3790206266	-0.542529186	 0.0326463091	 0.32706
C	-1.9191080615	-1.0432268356	 1.3475865268	-0.33501
C	-1.7219072548	-2.0047219461	 0.1953919978	-0.085477
C	-2.898253614	-2.3011650075	-0.7391804306	-0.265208
C	-3.1983733065	-0.9756749877	-1.4456927927	-0.014056
C	-3.6972507775	 0.1844346901	-0.6657926579	-0.256203
N	-2.2646008066	 0.0692516697	-0.9705673662	-0.16184
H	-0.5897168459	 1.746407872	-0.5459298083	 0.286556
H	 0.4277335592	-0.2935109418	-1.0848164557	 0.084326
H	 0.6754524789	-0.4409980531	 0.666842231	 0.098803
H	-1.2055512724	-1.104440075	 2.1633964053	 0.116176
H	-2.9215939294	-0.7947108143	 1.6756683527	 0.112816
H	-0.9466016232	-2.7584922916	 0.2877602453	 0.089156
H	-2.6016781082	-3.0511712332	-1.4786986626	 0.112062
H	-3.7724392062	-2.7008868703	-0.2133108574	 0.111555
H	-3.3804172005	-1.0071883055	-2.5170953062	 0.092655
H	-4.1961837685	 1.0023595188	-1.179184742	 0.115775
H	-4.0458509308	 0.0272986138	 0.34933893	 0.118011
84.2443	137.3507	239.3572	268.946	339.8123	381.2904	442.4459	467.6089	488.8194	653.9157	672.5327	697.152	804.8083	817.9017	845.6487	860.3858	898.6993	917.5178	967.3816	993.7049	1015.7193	1038.2566	1066.0608	1075.7509	1088.4584	1094.9035	1112.9598	1122.7001	1161.4036	1180.5501	1210.636	1245.9718	1266.5251	1305.6443	1316.2149	1374.6195	1379.3351	1398.9851	1439.1535	1479.5077	1490.0438	1498.7941	1524.2685	2968.8797	3044.2096	3073.4192	3083.4574	3115.1097	3132.694	3135.8583	3158.1982	3199.0886	3213.5353	3776.4055
OCC12CC1CC1CN21	OC[C@]12C[C@H]1C[C@H]1CN21	
InChI=1S/C7H11NO/c9-4-7-2-5(7)1-6-3-8(6)7/h5-6,9H,1-4H2	InChI=1S/C7H11NO/c9-4-7-2-5(7)1-6-3-8(6)7/h5-6,9H,1-4H2/t5-,6+,7-,8?/m1/s1
