17
gdb 45218	3.14789	1.79902	1.41497	3.1024	70.64	-0.2106	-0.0254	0.1852	920.729	0.138589	-417.96706	-417.96041	-417.959465	-417.998273	26.921	
O	 0.1058701846	 0.1875737254	-0.9242552338	-0.306383
C	 0.0598917507	 1.2116088978	-0.2982214533	 0.422004
C	-1.2057626743	 1.8683133811	 0.298445025	-0.297348
N	-0.7990267456	 3.1010527232	 0.9702349078	-0.109426
C	-0.3065327924	 2.956878607	 2.3828969194	-0.161649
C	 1.146387043	 3.1643810238	 1.9218532169	-0.01979
N	 1.7142645686	 1.8689676448	 1.4402171412	-0.330534
C	 1.2350340519	 2.1431479203	 0.0382190131	-0.12993
C	 0.5874592154	 3.459291033	 0.5058522293	-0.031468
H	-1.8958913655	 2.0793599625	-0.5299790808	 0.131318
H	-1.7215031444	 1.1818031941	 0.9759904989	 0.137863
H	-0.7095054945	 3.7545660503	 3.0158222473	 0.106229
H	-0.4991229087	 1.9848107345	 2.8487154043	 0.110609
H	 1.8179961294	 3.8027468639	 2.4965240467	 0.077487
H	 2.7263194082	 1.8500898858	 1.4811311225	 0.23101
H	 2.0050877208	 2.1463630902	-0.734950121	 0.090768
H	 0.6776052727	 4.3797030122	-0.0719964335	 0.079239
74.0855	202.1064	343.6898	405.0455	424.8463	532.1398	587.1467	635.0355	679.9458	688.8518	792.6519	801.7578	817.0865	882.2303	920.6394	926.7559	983.0983	992.7828	1003.3909	1046.4791	1050.6344	1095.1951	1134.3505	1183.3553	1199.5401	1217.8319	1225.3807	1240.8337	1255.7155	1262.581	1298.1209	1319.1546	1339.2111	1384.2445	1457.4961	1492.6323	1855.9018	3017.1288	3032.0442	3085.7459	3092.7576	3093.0311	3101.1935	3110.7769	3549.1037
O=C1CN2CC3NC1C23	O=C1CN2C[C@H]3N[C@@H]1[C@@H]23	
InChI=1S/C6H8N2O/c9-4-2-8-1-3-6(8)5(4)7-3/h3,5-7H,1-2H2	InChI=1S/C6H8N2O/c9-4-2-8-1-3-6(8)5(4)7-3/h3,5-7H,1-2H2/t3-,5+,6+/m1/s1
