13
gdb 20431	6.30179	1.53227	1.30695	4.0116	60.42	-0.2536	-0.0385	0.2151	882.7704	0.096563	-394.703761	-394.697453	-394.696509	-394.734806	22.921	
C	-0.0830514962	 1.3732785493	-0.2256083732	-0.235295
C	 1.3044315382	 0.8873926866	 0.0180468815	-0.217721
N	 0.1792831823	-0.0388321203	 0.0835927254	-0.149339
C	-0.2008199435	-0.5493039007	 1.3151957268	 0.362232
N	 0.6264323198	-0.7984132213	 2.3000241798	-0.159352
O	-0.1389105164	-1.3763365468	 3.2833837	-0.153798
N	-1.4473482561	-1.4738244456	 2.9059275384	-0.054951
C	-1.5069740126	-0.9771905901	 1.7049022574	-0.098815
H	-0.5444074883	 1.9797668304	 0.5494095223	 0.135682
H	-0.4305764533	 1.5632355043	-1.2359085931	 0.134667
H	 1.9774087462	 0.7274710883	-0.8178994704	 0.135169
H	 1.7794516027	 1.1590480269	 0.9556728919	 0.151484
H	-2.4340677028	-0.935334351	 1.1553250831	 0.150038
69.0263	168.8939	206.2113	397.6253	485.3319	587.4026	632.624	739.91	819.2234	888.5814	897.3495	903.8279	918.4786	931.292	1023.7063	1039.3863	1067.1216	1118.8736	1138.9507	1170.0842	1180.4857	1199.2813	1293.5123	1431.6697	1492.5768	1503.0182	1518.6681	1615.2839	3116.756	3128.7108	3206.9794	3223.0297	3272.5842
C1CN1C1=NON=C1	C1CN1c1nonc1	
InChI=1S/C4H5N3O/c1-2-7(1)4-3-5-8-6-4/h3H,1-2H2	InChI=1S/C4H5N3O/c1-2-7(1)4-3-5-8-6-4/h3H,1-2H2
