17
gdb 44417	3.62151	1.45308	1.43023	2.4939	75.	-0.2454	0.0052	0.2507	966.4928	0.137822	-417.880175	-417.873369	-417.872425	-417.911138	28.017	
N	 0.0068175053	 1.2387449935	 0.3654917715	-0.548779
C	 0.0528145944	 0.0355240156	 0.0395957979	 0.320071
O	 1.1782061196	-0.7970747145	-0.2637111718	-0.309059
C	 0.2038496938	-1.6627888288	-1.035761286	 0.097511
C	-0.695012568	-2.9769812407	-1.0258337744	-0.081636
C	-0.7527942505	-3.448322483	 0.4180296208	-0.19466
C	-0.9105586412	-2.0510945528	 1.0782920423	-0.209397
C	-0.8814015493	-1.1539834413	-0.1903540532	 0.194976
N	-1.8828526322	-1.9764901887	-1.0616708522	-0.401741
H	 0.9404073673	 1.6495708111	 0.420327088	 0.239713
H	 0.2168173105	-1.2646591256	-2.053283631	 0.101649
H	-0.6487629981	-3.7009289859	-1.839968565	 0.088534
H	-1.6087169339	-4.1031625172	 0.5900804004	 0.117099
H	 0.1589786929	-3.969233324	 0.7190868884	 0.111764
H	-1.8670845006	-1.9209216845	 1.5875448799	 0.121666
H	-0.1040196923	-1.8132639728	 1.7721998206	 0.122628
H	-1.9124510876	-1.5617139003	-1.9951746664	 0.229661
138.4635	199.7183	303.8282	328.1105	437.8391	503.8061	553.3303	626.2411	664.0747	684.691	752.0923	787.2563	812.4898	835.5564	866.6882	882.2758	936.6698	943.4123	957.3952	985.1176	1009.7472	1065.1665	1100.3783	1122.6217	1146.4017	1193.1759	1196.0886	1237.6523	1244.9133	1272.9974	1295.456	1318.3674	1344.4905	1405.8915	1474.5835	1499.3029	1819.805	3070.0885	3074.4501	3088.2083	3121.3888	3124.6339	3144.1996	3448.8016	3478.9426
N=C1OC2C3CCC12N3	[NH][C]1O[C@H]2[C@H]3CC[C@@]12N3	
InChI=1S/C6H8N2O/c7-5-6-2-1-3(8-6)4(6)9-5/h3-4,7-8H,1-2H2	InChI=1S/C6H8N2O/c7-5-6-2-1-3(8-6)4(6)9-5/h3-4,7-8H,1-2H2/t3-,4+,6+/m1/s1
