17
gdb 64739	3.14857	1.09662	1.04202	0.6655	74.96	-0.255	-0.0367	0.2183	1211.7492	0.131942	-421.791982	-421.782571	-421.781627	-421.826506	34.029	
C	-0.1302315433	 1.634637049	 0.200444559	-0.431463
C	 0.0086192844	 0.1263253633	 0.060128216	 0.266947
C	-1.3097777473	-0.5841931383	-0.3105692858	-0.385342
C	-1.9093368216	-0.0890205794	-1.5420867739	 0.309557
C	-2.3969335016	 0.3273492189	-2.5583406861	-0.437846
O	 1.0954574071	-0.2435047891	-0.838197618	-0.317445
C	 1.8652425662	-0.9044006138	 0.1841412092	-0.19549
C	 0.7694001833	-0.5773046221	 1.2021802064	 0.311637
O	 0.5672629365	-0.7806290464	 2.3597880507	-0.28332
H	 0.8286609822	 2.0875131956	 0.4647338345	 0.125098
H	-0.472874133	 2.0630268936	-0.7450426864	 0.150471
H	-0.8583743174	 1.8775859849	 0.9804141303	 0.133393
H	-1.1159597624	-1.6594473231	-0.4009178797	 0.136318
H	-2.0064676399	-0.4591678934	 0.5281083842	 0.147145
H	-2.8319510013	 0.6856533265	-3.4583318152	 0.199981
H	 2.0199314312	-1.9731560239	-0.0115294453	 0.135038
H	 2.8362480369	-0.4280098922	 0.3701967101	 0.13532
57.5866	101.5798	119.3146	178.137	196.8358	260.3255	319.6282	348.2701	372.8649	444.497	528.9361	578.6264	622.0319	645.8928	673.5227	758.2977	854.3338	897.7931	922.4146	968.6755	991.9445	1012.3329	1043.9556	1113.4368	1137.6573	1191.9946	1208.4799	1268.0949	1301.2676	1346.8961	1403.6834	1454.8331	1480.7787	1482.5747	1491.5228	1919.6459	2240.0432	3016.9957	3028.281	3046.1155	3061.9504	3065.9494	3122.5712	3129.9731	3505.4123
CC1(CC#C)OCC1=O	C[C@@]1(CC#C)OCC1=O	
InChI=1S/C7H8O2/c1-3-4-7(2)6(8)5-9-7/h1H,4-5H2,2H3	InChI=1S/C7H8O2/c1-3-4-7(2)6(8)5-9-7/h1H,4-5H2,2H3/t7-/m0/s1
