23
gdb 107623	2.42284	1.46357	1.09834	1.4415	84.57	-0.2482	0.074	0.3222	1216.6333	0.206625	-388.300522	-388.291296	-388.290352	-388.334079	36.168	
C	-0.1077452349	 1.5302815174	 0.5032767386	-0.381105
C	-0.0700387341	 0.085968737	-0.0154416622	-0.285873
C	-1.4367187607	-0.5528733695	-0.1581035316	 0.357716
C	-2.1319329052	-1.1105534441	 1.0699849843	-0.349316
C	-1.6603053058	-2.0429864174	-0.0193355193	-0.084684
C	-2.6901819482	-2.4922817908	-1.0491713131	-0.225103
C	-3.4088258565	-1.1933973825	-1.464592682	-0.25649
C	-2.3639505245	-0.0675602793	-1.2741988162	 0.082205
O	-2.9379395599	 1.2183748577	-1.0770420252	-0.434593
H	 0.9009568119	 1.9508928386	 0.5646000599	 0.104494
H	-0.7105920351	 2.1646192284	-0.1510054733	 0.138427
H	-0.5489710424	 1.5725087559	 1.5053920721	 0.106895
H	 0.4363353128	 0.0618547754	-0.9903098422	 0.093354
H	 0.541168364	-0.5274494148	 0.6589599053	 0.088495
H	-1.5617397657	-1.0999728532	 1.993232661	 0.109795
H	-3.1981276975	-0.9638029634	 1.21854338	 0.09906
H	-0.8275518759	-2.7023214787	 0.2039929735	 0.078803
H	-2.1727577351	-2.935357711	-1.9083072881	 0.101136
H	-3.381516363	-3.2510871878	-0.6659662251	 0.097787
H	-3.7979187059	-1.222740884	-2.4849767061	 0.102922
H	-4.265703248	-0.9920829433	-0.8113020238	 0.095547
H	-1.7662086511	 0.0430452817	-2.1878977266	 0.084837
H	-3.3555614092	 1.2144142978	-0.2083969397	 0.275691
84.3104	128.9597	180.8912	208.3229	241.1406	287.3241	309.2817	337.2079	395.1603	438.5853	519.2854	576.437	630.7175	687.6782	782.784	815.9698	839.4318	885.2923	924.7191	945.1061	963.2705	979.9939	993.7528	1054.2629	1060.6041	1068.4365	1082.9161	1084.8735	1107.2792	1117.0767	1181.2762	1206.6999	1244.1893	1260.4428	1290.1318	1312.2441	1330.5825	1338.6736	1352.5293	1367.2453	1404.5154	1411.5349	1433.9662	1478.5433	1487.6474	1494.7102	1494.9362	1511.1533	1513.3571	3007.232	3027.7534	3031.9429	3034.4491	3041.6544	3043.3806	3068.277	3097.5185	3102.9104	3118.7121	3126.2041	3156.1468	3199.4357	3796.9391
CCC12CC1CCC2O	CC[C@]12C[C@H]1CC[C@H]2O	
InChI=1S/C8H14O/c1-2-8-5-6(8)3-4-7(8)9/h6-7,9H,2-5H2,1H3	InChI=1S/C8H14O/c1-2-8-5-6(8)3-4-7(8)9/h6-7,9H,2-5H2,1H3/t6-,7-,8+/m1/s1
