16
gdb 81099	2.15279	1.63927	1.26669	2.3436	66.65	-0.2559	-0.0491	0.2068	1031.222	0.123435	-474.949101	-474.94095	-474.940006	-474.982004	30.632	
O	 0.3098124922	 1.3605364258	-0.2509948253	-0.439704
C	 0.0987790806	 0.0067478841	-0.1082091931	 0.176691
C	 0.0760738708	-0.6126893693	 1.3188052041	-0.118635
N	-1.2229920476	 0.1646932843	 1.5265463289	-0.401327
C	-1.3820669862	-0.5168974778	 0.1790556647	 0.14597
C	-2.5723633403	-0.4327975444	-0.7019668964	 0.014569
O	-2.8865203947	-1.3451188851	-1.4329384627	-0.263253
C	-0.7421051241	-1.8030383215	 0.7614256091	 0.111064
O	-0.0969794915	-2.7150439079	-0.0766566481	-0.433683
H	-0.1740134647	 1.7791276801	 0.4770903844	 0.29526
H	 0.6448133272	-0.5369346736	-0.8739985684	 0.122594
H	 0.8618800335	-0.6129220017	 2.0746096599	 0.096943
H	-1.8052066022	-0.3035528764	 2.2284872954	 0.220149
H	-3.1455716886	 0.5185422925	-0.6747781336	 0.095383
H	-1.375372653	-2.2922740841	 1.5160990319	 0.076508
H	-0.7567370814	-3.0506230851	-0.6951202607	 0.301471
86.4782	108.6374	193.8791	241.8764	308.1307	357.2303	375.912	386.6895	494.3901	592.8034	609.5125	656.1678	727.5682	784.0048	824.8803	898.4937	901.7121	946.5195	1021.3079	1046.4079	1098.8305	1131.4692	1152.0288	1174.9969	1187.3674	1210.8462	1221.9787	1284.6728	1308.5995	1324.7698	1339.0729	1411.5599	1413.206	1454.7294	1790.6865	2905.0819	3002.2015	3119.0818	3174.9744	3389.3811	3723.7478	3799.6907
OC1C2NC1(C=O)C2O	O[C@H]1[C@H]2N[C@]1(C=O)[C@H]2O	
InChI=1S/C5H7NO3/c7-1-5-3(8)2(6-5)4(5)9/h1-4,6,8-9H	InChI=1S/C5H7NO3/c7-1-5-3(8)2(6-5)4(5)9/h1-4,6,8-9H/t2-,3-,4-,5+/m0/s1
