21
gdb 104644	2.92377	1.06148	0.92387	3.2017	79.45	-0.2535	-0.0316	0.2219	1356.5244	0.180865	-424.228839	-424.219131	-424.218187	-424.263689	35.934	
C	 0.0810153793	 1.5666465563	 0.0801622764	-0.408675
C	 0.0391049483	 0.0464364043	 0.0845905699	 0.056015
C	 0.9800079807	-0.7215183162	-0.8851514741	-0.302793
C	 1.360435378	-1.7134975892	 0.2645851018	 0.201592
C	 2.8449265029	-2.014351832	 0.4638948785	-0.137648
O	 3.1040950077	-2.6870495807	 1.6785727497	-0.42858
C	 0.6937158304	-0.7087144266	 1.2736264335	-0.274912
C	 0.5473252737	-2.9780749191	 0.1931622438	 0.137536
O	 0.9678566595	-4.088501898	 0.4273567522	-0.284381
H	 1.1059551503	 1.9308001441	 0.2148849529	 0.114311
H	-0.2962868641	 1.9721957635	-0.8651845091	 0.118247
H	-0.5296073803	 1.9828942494	 0.8889829546	 0.119728
H	-0.9945127597	-0.2906931415	-0.0515832078	 0.07618
H	 0.5353635316	-1.149566988	-1.7880390068	 0.105246
H	 1.849325885	-0.1255523082	-1.1810314453	 0.108768
H	 3.2192160252	-2.5807270068	-0.404444067	 0.092525
H	 3.4006978784	-1.0707162445	 0.5017579723	 0.098723
H	 2.6706568772	-3.5459620205	 1.5939591814	 0.295423
H	 1.464545182	-0.1213412556	 1.7804413019	 0.11756
H	 0.0291647623	-1.1266311891	 2.0339450645	 0.109896
H	-0.5216327386	-2.8365277115	-0.0879066733	 0.08524
55.7861	88.4444	124.8709	203.8041	231.6266	261.1824	272.2781	318.4027	344.8472	401.9579	449.1777	493.8541	560.3752	683.846	785.4765	822.2843	852.8442	906.0712	914.6026	924.2101	962.063	975.0001	1051.6459	1080.383	1095.3083	1101.4993	1140.8559	1149.6311	1217.8585	1230.6767	1240.8303	1283.9308	1292.6813	1339.1576	1372.7016	1381.6509	1411.7213	1433.0714	1442.7823	1471.5333	1488.6772	1494.9086	1495.6374	1501.8032	1799.3179	2869.7683	2974.6407	3023.8601	3035.3596	3046.359	3057.506	3062.0374	3091.431	3094.2263	3099.9061	3111.149	3772.9577
CC1CC(CO)(C1)C=O	C[C@H]1C[C@@](CO)(C1)C=O	
InChI=1S/C7H12O2/c1-6-2-7(3-6,4-8)5-9/h4,6,9H,2-3,5H2,1H3	InChI=1S/C7H12O2/c1-6-2-7(3-6,4-8)5-9/h4,6,9H,2-3,5H2,1H3/t6-,7+
