22
gdb 33260	5.03433	0.6772	0.65821	2.2289	89.45	-0.1988	0.0478	0.2466	1813.8303	0.195119	-367.255926	-367.246372	-367.245428	-367.292274	34.856	
C	-0.0468760071	 1.5696288268	-0.0307559705	-0.38046
C	 0.0045538548	 0.0399609364	 0.0058988848	-0.162689
C	 0.7376088462	-0.5046795647	 1.2358919942	-0.160622
C	 0.7837491647	-2.0380444944	 1.2639102968	-0.185248
N	 1.4749972995	-2.5766465337	 2.4222874332	 0.043543
C	 2.8265366409	-2.8079531703	 2.5088945241	-0.100411
C	 3.1152477673	-3.2263695096	 3.7876639396	-0.167557
C	 1.8903761457	-3.2461191866	 4.5094051762	-0.16751
C	 0.9017578008	-2.8390059236	 3.6430381745	-0.100434
H	 0.9607654187	 1.9992354326	-0.0458739263	 0.117316
H	-0.5757735012	 1.9291868062	-0.9187348291	 0.11395
H	-0.5624108569	 1.969413537	 0.8493058011	 0.117306
H	-1.0175482789	-0.3614202497	-0.0159294593	 0.097042
H	 0.494476959	-0.3318744433	-0.9040317577	 0.097039
H	 1.7642862816	-0.1186772117	 1.2624299784	 0.106483
H	 0.2501090794	-0.1479970537	 2.1517852518	 0.106438
H	-0.2334972628	-2.4450602861	 1.2559924415	 0.115541
H	 1.283275667	-2.4156783883	 0.3648548207	 0.115543
H	 3.4619824294	-2.658874255	 1.6497326284	 0.107726
H	 4.0913126019	-3.5007907985	 4.1575985974	 0.089649
H	 1.747831919	-3.538505872	 5.5385099822	 0.089648
H	-0.1609348987	-2.7172381378	 3.7845799078	 0.107708
21.388	72.8216	77.7281	102.7247	208.5011	246.3465	323.2491	351.5069	421.6603	623.3414	636.3949	680.0431	728.3274	736.2394	740.7803	793.9573	794.2609	845.3125	885.3177	910.6533	937.6346	984.9391	1015.6959	1063.3962	1083.6285	1084.6512	1113.7906	1129.3816	1139.2406	1234.4567	1289.07	1292.1947	1314.7067	1315.029	1325.8959	1381.2984	1399.3192	1412.4243	1422.3104	1432.7449	1478.368	1485.7308	1498.9664	1499.7782	1511.761	1535.5655	1559.7966	3011.0862	3025.3384	3031.6727	3037.2381	3039.3169	3061.9569	3087.8186	3098.8803	3104.0886	3236.6559	3246.1149	3257.556	3267.2248
CCCCN1C=CC=C1	CCCCn1cccc1	
InChI=1S/C8H13N/c1-2-3-6-9-7-4-5-8-9/h4-5,7-8H,2-3,6H2,1H3	InChI=1S/C8H13N/c1-2-3-6-9-7-4-5-8-9/h4-5,7-8H,2-3,6H2,1H3
