16
gdb 43469	2.61834	1.83342	1.28609	2.0251	71.38	-0.2462	-0.0151	0.2312	969.211	0.128303	-434.084973	-434.078153	-434.077208	-434.116166	27.323	
N	-0.1055227514	 1.3127655571	-0.0256776308	-0.533104
C	-0.0446717535	 0.0451393844	 0.0119082473	 0.443359
N	 1.1113351843	-0.7433024809	 0.0348865074	-0.36925
C	 1.0693824796	-2.1332831775	 0.0637057172	 0.453224
O	 2.0632757657	-2.8188467081	 0.0702883856	-0.355719
C	-0.3668484725	-2.6468703325	 0.0603039951	-0.128591
C	-1.1644810942	-1.9261984194	-1.0589413811	-0.244211
C	-1.2916605857	-0.8099799707	 0.0145423205	-0.065841
N	-1.0988163171	-1.8398268157	 1.1072729486	-0.332365
H	 0.8237974897	 1.7395327666	-0.0333358475	 0.210905
H	 2.025858131	-0.3119966227	 0.0567583301	 0.253946
H	-0.3763364088	-3.7311438319	 0.1596728449	 0.100254
H	-0.677007487	-1.7037995422	-2.0123146823	 0.119784
H	-2.1255768681	-2.415041614	-1.2350542333	 0.11404
H	-2.1770078861	-0.17997341	 0.0697521338	 0.103916
H	-2.0008283759	-2.2902779024	 1.2580794046	 0.229653
133.7996	161.3942	325.194	360.2284	430.5698	456.9983	518.68	586.0009	610.4157	708.3576	741.6674	763.0359	852.6384	864.1605	891.8596	914.8461	924.0757	940.4086	985.848	1048.5793	1076.7053	1095.678	1137.5167	1168.2992	1206.217	1253.9591	1279.5797	1286.8498	1341.3551	1389.7839	1401.0317	1415.4915	1494.045	1754.8065	1835.8542	3056.9382	3118.5237	3135.9608	3146.3531	3443.8958	3466.7395	3594.126
N=C1NC(=O)C2CC1N2	[NH][C]1NC(=O)[C@@H]2C[C@H]1N2	
InChI=1S/C5H7N3O/c6-4-2-1-3(7-2)5(9)8-4/h2-3,7H,1H2,(H2,6,8,9)	InChI=1S/C5H7N3O/c6-4-2-1-3(7-2)5(9)8-4/h2-3,7H,1H2,(H2,6,8,9)/t2-,3+/m1/s1
