18
gdb 79295	2.51788	1.95628	1.60715	2.6851	68.89	-0.2353	0.0529	0.2882	901.6445	0.151185	-439.069232	-439.062471	-439.061527	-439.099894	28.585	
O	 0.1132018368	 1.385594287	 0.2626414777	-0.458031
C	 0.0349649227	-0.0016564696	 0.0529729827	 0.16569
C	-1.369988938	-0.5459867427	-0.2252275253	-0.080656
C	-1.5682015962	-0.557230133	-1.7034770674	-0.045241
C	-0.2899765064	-0.0337983948	-2.3422351239	 0.106643
O	-0.3681359342	 1.3840378048	-2.4878640842	-0.444344
C	 0.6786965244	-0.5542436754	-1.2501602223	-0.167565
C	 0.2107772454	-2.0129787901	-1.1801966468	-0.165584
N	-1.2584621403	-1.8141654956	-0.9833557319	-0.133808
H	-0.2061057733	 1.8004237886	-0.5521016626	 0.284008
H	 0.4786600932	-0.4695698409	 0.9381459515	 0.085775
H	-2.1815292498	-0.4549549831	 0.4859610272	 0.095954
H	-2.5320330787	-0.4762421873	-2.1898447588	 0.097897
H	-0.0958746709	-0.4985486549	-3.3183754633	 0.07942
H	 0.4448304143	 1.6875632423	-2.9055777299	 0.293059
H	 1.7407972393	-0.3581646239	-1.3908970392	 0.069107
H	 0.3863751708	-2.5848227254	-2.0966521191	 0.106068
H	 0.6280574708	-2.5694210961	-0.3359824443	 0.111609
221.0313	245.1048	322.6476	356.5562	367.6383	421.5997	512.0752	581.0018	610.158	695.9681	755.6911	791.483	821.1273	865.1795	893.3633	909.349	942.707	945.6535	968.972	1031.8148	1046.4411	1056.6849	1083.5872	1098.054	1132.1611	1189.1063	1198.0785	1199.4014	1211.6426	1232.9018	1275.2839	1306.4456	1312.5181	1324.5939	1348.7899	1390.4077	1427.5338	1478.6153	1511.6269	3013.6009	3050.8643	3059.8848	3098.7091	3131.5394	3190.9667	3201.1542	3718.4501	3814.283
OC1C2C3C(O)C1CN23	O[C@H]1[C@H]2[C@H]3[C@@H](O)[C@@H]1CN23	
InChI=1S/C6H9NO2/c8-5-2-1-7-3(5)4(7)6(2)9/h2-6,8-9H,1H2	InChI=1S/C6H9NO2/c8-5-2-1-7-3(5)4(7)6(2)9/h2-6,8-9H,1H2/t2-,3-,4+,5-,6+,7?
