18
gdb 73161	2.67327	1.60269	1.35817	1.1962	71.41	-0.2472	0.0443	0.2915	1005.3412	0.147729	-439.01387	-439.006004	-439.00506	-439.046071	30.895	
O	-0.2505855313	 1.2720552942	-0.3736656684	-0.46464
C	-0.0116387415	-0.0619126651	-0.0575584318	 0.267067
C	-1.2725953512	-0.896639551	 0.1920355778	-0.107678
O	-0.6886641444	-1.5070912047	 1.367137096	-0.290058
C	 0.4932333237	-0.6837864328	 1.2925766278	 0.033026
C	 1.6611439343	-1.3809511301	 0.549686046	-0.314097
C	 1.1306586223	-0.8071379354	-0.7749943286	 0.276511
C	 1.1409063619	-1.3325247045	-2.1542212765	-0.308207
N	 1.99198286	-0.1809327299	-1.7782913745	-0.373324
H	 0.5787937622	 1.7585800916	-0.3047079691	 0.288607
H	-2.1414313474	-0.2779259458	 0.4475842128	 0.110533
H	-1.549012038	-1.6319858788	-0.5718380423	 0.10522
H	 0.6926214302	-0.139528803	 2.2187079483	 0.081897
H	 2.6472757135	-0.9827904683	 0.8063577448	 0.112459
H	 1.6651911701	-2.4682639736	 0.6483896997	 0.116812
H	 1.6864861816	-2.2439243863	-2.3831232425	 0.124168
H	 0.2704725103	-1.1520720282	-2.780767059	 0.116181
H	 1.5454959838	 0.6745550716	-2.1094159605	 0.225523
83.816	200.1609	233.2081	248.8924	327.5498	351.3191	380.2315	450.42	468.0629	557.1501	664.6403	738.0855	809.6509	860.9497	878.4971	919.4881	928.4921	968.1355	985.7414	1005.1816	1030.9757	1055.4857	1080.7969	1102.4046	1130.1652	1134.1882	1164.6619	1174.5821	1233.7296	1255.1959	1277.2096	1286.7526	1319.0982	1342.5488	1389.151	1409.0126	1462.0134	1511.3668	1513.5666	3020.7782	3059.4758	3074.3506	3085.0791	3103.7938	3124.6753	3189.9698	3456.2803	3798.7174
OC12COC1CC21CN1	O[C@]12CO[C@H]1C[C@]12CN1	
InChI=1S/C6H9NO2/c8-6-3-9-4(6)1-5(6)2-7-5/h4,7-8H,1-3H2	InChI=1S/C6H9NO2/c8-6-3-9-4(6)1-5(6)2-7-5/h4,7-8H,1-3H2/t4-,5+,6+/m0/s1
