19
gdb 50569	2.93417	1.52573	1.38977	3.0497	74.75	-0.2376	-0.023	0.2146	1007.7935	0.160707	-423.018857	-423.011302	-423.010357	-423.051071	29.437	
O	-0.3265709672	 0.1169581079	 0.051924785	-0.245331
C	-0.0533587007	 1.2762501544	 0.2192782351	 0.154354
C	 1.3205139816	 1.8877769561	-0.0140164318	 0.030757
O	 2.3412094115	 0.9181900499	-0.0857812455	-0.260413
C	 2.7096224768	 0.4674553975	-1.3906625109	-0.071889
C	 2.5306660426	 1.5658087464	-2.4427827244	-0.031355
C	 2.7581203118	 2.9478367148	-1.7641789454	-0.228497
C	 1.2920960776	 2.7985545372	-1.2645985995	-0.05673
C	 1.0259334317	 1.93406275	-2.528549183	-0.236938
H	-0.8222357467	 2.015476836	 0.5510026997	 0.068773
H	 1.5485267013	 2.5087696379	 0.8666819607	 0.096945
H	 3.7619826092	 0.1738120135	-1.3082277677	 0.105413
H	 2.1247860304	-0.422244997	-1.6629750877	 0.110928
H	 3.0689113986	 1.320904238	-3.3611793844	 0.068596
H	 3.5490124748	 3.0318948134	-1.0151576077	 0.107667
H	 2.8491554506	 3.751902603	-2.4980587735	 0.10142
H	 0.6855409396	 3.689861551	-1.0894743165	 0.07229
H	 0.8008774309	 2.5569006119	-3.3978898185	 0.099188
H	 0.2964500558	 1.1223691983	-2.4616936638	 0.114821
92.2167	105.4395	231.2861	279.4641	335.2012	396.6708	415.6001	522.9335	605.0064	757.4013	765.1639	828.4885	837.3143	875.7137	884.8835	911.5309	935.3654	958.9846	985.8056	996.4646	1060.6419	1072.5504	1101.9872	1110.6319	1128.9228	1156.0463	1214.7958	1236.4385	1245.5871	1270.8147	1284.4844	1306.1332	1328.2871	1344.6284	1368.7612	1400.7497	1422.8769	1479.0439	1506.3861	1517.9267	1837.1043	2839.2767	2989.0443	3008.7625	3056.858	3062.2862	3063.5096	3083.8561	3086.9951	3113.3561	3122.69
O=CC1OCC2CC1C2	O=C[C@H]1OC[C@@H]2C[C@H]1C2	
InChI=1S/C7H10O2/c8-3-7-6-1-5(2-6)4-9-7/h3,5-7H,1-2,4H2	InChI=1S/C7H10O2/c8-3-7-6-1-5(2-6)4-9-7/h3,5-7H,1-2,4H2/t5-,6+,7-/m1/s1
