19
gdb 57913	3.40917	0.97673	0.92256	3.1556	72.32	-0.2504	-0.0346	0.2157	1352.5185	0.157345	-460.153506	-460.143949	-460.143005	-460.189289	33.818	
C	-0.1581532769	 1.6764934464	-0.0133548761	-0.402496
C	 0.0801451593	 0.1564311449	 0.0584317148	 0.049211
O	 0.8408232724	-0.1733118571	 1.1901840101	-0.437263
C	-1.249535865	-0.5999930426	 0.0985632635	 0.34515
O	-1.5943797908	-1.1500011005	 1.1214873235	-0.326103
C	-2.0649824529	-0.6936989586	-1.1806221828	 0.040577
C	-1.8361835021	-2.037757805	-1.9353554707	-0.28942
C	-3.3050280667	-2.3136316301	-1.5525614596	-0.05933
O	-3.4430088079	-1.0049383584	-0.9565089976	-0.267808
H	 0.8088471012	 2.1824298484	 0.0378925237	 0.138657
H	-0.656807508	 1.9750418352	-0.9403676598	 0.117216
H	-0.7633323566	 2.0059249809	 0.8364611788	 0.133389
H	 0.6229045777	-0.1557729368	-0.8492170498	 0.088268
H	 0.2278560791	-0.6423352956	 1.779480275	 0.292179
H	-1.9401773192	 0.2094128074	-1.7896708386	 0.094147
H	-1.6445172452	-1.924769438	-3.0024875118	 0.123087
H	-1.0939079782	-2.7063579825	-1.4978391215	 0.128613
H	-4.0010474239	-2.4561051651	-2.386336738	 0.110402
H	-3.4521063265	-3.109581703	-0.8146500732	 0.121526
37.1411	62.3803	76.6153	184.6911	196.7024	228.2444	281.8477	348.5199	377.5421	430.6854	468.6649	646.8157	729.7078	783.7665	807.687	833.5704	916.6089	937.8569	947.0912	1014.6319	1033.6234	1042.7529	1068.4675	1106.3759	1124.4268	1163.0085	1176.6439	1212.9285	1248.1804	1259.3455	1281.0425	1345.3444	1350.3914	1379.802	1397.9925	1438.5491	1487.1806	1489.7427	1497.3334	1526.3571	1799.7804	2971.1237	3031.3317	3037.2186	3044.4295	3078.7025	3088.9027	3118.9391	3129.3055	3147.8199	3678.6693
CC(O)C(=O)C1CCO1	C[C@@H](O)C(=O)[C@H]1CCO1	
InChI=1S/C6H10O3/c1-4(7)6(8)5-2-3-9-5/h4-5,7H,2-3H2,1H3	InChI=1S/C6H10O3/c1-4(7)6(8)5-2-3-9-5/h4-5,7H,2-3H2,1H3/t4-,5-/m1/s1
