19
gdb 126726	3.84087	0.95732	0.81914	4.0399	80.38	-0.1969	0.0112	0.2081	1454.6075	0.160131	-415.386868	-415.37756	-415.376615	-415.421833	33.227	
C	 0.3825218719	 1.4544818471	 0.2264630593	-0.377195
C	-0.1981770428	 0.111393608	-0.2190978661	-0.143784
N	 0.5734250954	-0.5127151778	-1.2817540231	 0.083067
C	 1.7887726169	-1.1293872864	-1.20796769	-0.201285
C	 2.0621594633	-1.4737774594	-2.5175824825	 0.358386
N	 3.1689923208	-2.0869271298	-3.0732140067	-0.367287
C	 4.0105112481	-2.9016629003	-2.218617001	-0.324687
N	 1.0219694502	-1.0661557479	-3.297456802	-0.282072
N	 0.1279493373	-0.4821075128	-2.54056518	-0.151725
H	 1.3942979185	 1.337770011	 0.6254844232	 0.126385
H	 0.4227208708	 2.1515639766	-0.6146341718	 0.144715
H	-0.2444709605	 1.8900975801	 1.0101121116	 0.124816
H	-0.2548506023	-0.587243172	 0.6223700849	 0.121591
H	-1.2050342835	 0.2368889486	-0.6222973653	 0.145919
H	 2.3169245142	-1.2631183054	-0.2807522853	 0.129645
H	 2.9543392212	-2.4927864698	-3.972809155	 0.245781
H	 4.796957663	-3.3601757427	-2.8221234819	 0.12873
H	 4.4997474779	-2.272521767	-1.4660832544	 0.128316
H	 3.4635455897	-3.6987453202	-1.6890634639	 0.110684
46.0166	91.1919	115.0596	157.1862	190.3933	223.3815	320.6938	344.1461	430.9362	474.5859	559.5954	644.8217	678.3494	689.5868	746.5702	772.8805	798.3923	971.4188	1027.1336	1056.3977	1092.7573	1096.5291	1105.987	1154.429	1168.0444	1194.0557	1263.8603	1283.9751	1328.8566	1388.1455	1391.982	1411.0095	1448.6978	1467.8991	1483.1605	1488.5377	1490.4625	1504.408	1514.7449	1529.888	1636.4649	2971.0761	3045.3815	3053.6233	3056.2729	3110.7013	3120.2773	3123.4219	3135.0131	3291.7015	3599.3277
CCN1C=C(NC)N=N1	CCn1cc(NC)nn1	
InChI=1S/C5H10N4/c1-3-9-4-5(6-2)7-8-9/h4,6H,3H2,1-2H3	InChI=1S/C5H10N4/c1-3-9-4-5(6-2)7-8-9/h4,6H,3H2,1-2H3
