18
gdb 81198	3.24919	1.37594	1.2502	3.5282	77.52	-0.2479	0.0017	0.2496	1065.3956	0.148199	-401.848821	-401.841377	-401.840432	-401.880468	30.014	
C	-0.1310862616	 1.5514600559	 0.1222868389	-0.448739
C	 0.0807741869	 0.0517219195	-0.0002019631	 0.028379
C	 1.2375396398	-0.5579262873	-0.8248693451	-0.094812
C	 2.2496879911	-0.1497965633	 0.3481659359	-0.314893
C	 0.9690531928	-0.7624746673	 1.0048909497	 0.290553
N	 0.3536156657	-1.6592184202	 1.9875477337	-0.415727
C	-0.0659487554	-2.5240007344	 0.9268039403	 0.337318
O	-0.8723185532	-3.4025703979	 0.9061658479	-0.321521
C	 1.0450468785	-1.8975336284	-0.0105068066	-0.161476
H	 0.789105465	 2.1095569374	 0.3117647134	 0.120557
H	-0.5732492009	 1.9491398564	-0.7977019169	 0.124329
H	-0.8273723444	 1.774579521	 0.938376534	 0.119879
H	-0.8771290853	-0.4458758909	-0.1930492761	 0.082828
H	 1.4270044714	-0.4431928652	-1.8933151199	 0.087295
H	 3.1630972009	-0.7424481767	 0.4170698332	 0.113328
H	 2.4561437982	 0.9129514134	 0.4804078264	 0.105454
H	-0.2712486135	-1.3788313076	 2.7366521939	 0.242573
H	 1.9415877939	-2.5194564544	 0.0508084604	 0.104676
130.2753	171.4267	222.9423	288.8543	351.6338	438.9787	477.0951	546.8167	581.7625	614.1884	670.1017	752.1908	759.6917	782.4865	838.6734	873.0062	926.2159	942.7872	997.5862	1007.5693	1037.8971	1054.7396	1087.7708	1100.7859	1119.1278	1129.6179	1180.7659	1190.9587	1198.0653	1224.854	1235.5808	1303.2846	1334.3668	1411.259	1429.5462	1495.0414	1498.9226	1528.1133	1892.7951	3033.4445	3038.0368	3076.7251	3080.9198	3090.9859	3102.7225	3117.6402	3149.1037	3534.4292
CC1C2CC11NC(=O)C21	C[C@H]1[C@H]2C[C@]31NC(=O)[C@@H]23	
InChI=1S/C7H9NO/c1-3-4-2-7(3)5(4)6(9)8-7/h3-5H,2H2,1H3,(H,8,9)	InChI=1S/C7H9NO/c1-3-4-2-7(3)5(4)6(9)8-7/h3-5H,2H2,1H3,(H,8,9)/t3-,4+,5+,7+/m0/s1
