21
gdb 116043	2.7649	1.28016	0.98693	2.9541	79.65	-0.2508	0.0071	0.2579	1242.7612	0.184189	-424.237278	-424.228424	-424.22748	-424.270613	34.432	
O	 0.1686526389	 1.3299919614	 0.2644194611	-0.430804
C	 0.0483769309	-0.0353584843	-0.0875935304	-0.074498
C	-1.4010710239	-0.5537759896	-0.0556990516	-0.027489
C	-1.4434579038	-2.0847441319	-0.1505000493	-0.218171
C	-2.8854516425	-2.6019695761	-0.1978991127	-0.264833
C	-3.7358278577	-1.9580835711	 0.8637215155	-0.043284
C	-3.4024491962	-0.8273204117	 1.4876182797	-0.09271
C	-2.1505298402	-0.0464830329	 1.1970000194	 0.074988
O	-1.3042175326	 0.0114812998	 2.3640014872	-0.449454
H	-0.0064712431	 1.3660711722	 1.2129492116	 0.293162
H	 0.4484711739	-0.1350514711	-1.1025403513	 0.103406
H	 0.6706326899	-0.6652749235	 0.5667238729	 0.077703
H	-1.936851545	-0.1387951622	-0.9207854822	 0.078808
H	-0.8831202114	-2.4288336167	-1.0271090899	 0.098088
H	-0.9375164502	-2.5147672259	 0.7260425271	 0.087018
H	-3.3254102256	-2.4059090077	-1.1874035115	 0.115165
H	-2.9072219156	-3.6923264915	-0.0802751654	 0.104569
H	-4.6698933459	-2.4545627911	 1.1178324173	 0.091725
H	-4.0437243368	-0.4187721573	 2.2648026811	 0.092481
H	-2.4116946409	 1.0036278542	 1.0295588775	 0.102875
H	-1.1807873023	-0.8896589128	 2.6812592238	 0.281253
95.9286	115.002	188.9967	210.7189	278.9549	288.3363	336.3575	375.0453	466.5386	491.8871	530.8415	575.7597	618.8319	713.0717	760.0832	774.5383	883.8765	924.4866	935.8889	969.4783	1005.1145	1019.2453	1060.0657	1064.5836	1080.8547	1094.9518	1119.6475	1166.8055	1208.775	1217.4094	1256.683	1265.1187	1304.1591	1333.0172	1363.7999	1377.0231	1387.8791	1404.7208	1413.2863	1430.7871	1432.4293	1474.4644	1490.4323	1500.6101	1716.8266	2980.8263	2997.3468	3002.6509	3015.6269	3046.2642	3056.0761	3059.6787	3069.0337	3142.9493	3167.1565	3781.6005	3807.2412
OCC1CCC=CC1O	OC[C@H]1CCC=C[C@H]1O	
InChI=1S/C7H12O2/c8-5-6-3-1-2-4-7(6)9/h2,4,6-9H,1,3,5H2	InChI=1S/C7H12O2/c8-5-6-3-1-2-4-7(6)9/h2,4,6-9H,1,3,5H2/t6-,7-/m1/s1
