21
gdb 70302	3.38105	1.2598	1.1505	1.1885	81.73	-0.2495	0.0836	0.3331	1156.8372	0.183394	-387.07664	-387.068513	-387.067569	-387.108734	33.489	
O	-0.0913376044	 1.2850305777	-0.6313635734	-0.472901
C	-0.0752579503	 0.0294144058	-0.0197485206	 0.411369
C	-0.1161439127	-1.2130377618	-0.8748470357	-0.357135
C	-1.3230667218	-0.8134546247	-0.0399410381	-0.071046
C	-1.4851869965	-1.4642116527	 1.3250952011	-0.296932
C	-0.1011487784	-1.3279130972	 1.9722813895	 0.376357
C	 0.1480541696	-1.7422744093	 3.3941794869	-0.33855
C	 0.7258986701	-2.5593032659	 2.263278492	-0.300198
C	 0.5507882705	-0.0850971009	 1.3650268253	-0.362759
H	 0.7811431591	 1.4424213549	-1.0082121391	 0.279663
H	-0.2077239685	-1.0437181076	-1.9422501346	 0.107678
H	 0.4664173435	-2.0851029474	-0.5961542392	 0.114072
H	-2.1997085523	-0.4596519509	-0.5700847762	 0.089395
H	-2.2367013343	-0.9107044995	 1.9032940104	 0.100627
H	-1.8163121057	-2.5079478798	 1.2771107828	 0.094756
H	 0.8281938916	-1.1432973283	 3.9913467767	 0.10908
H	-0.6806159028	-2.1619201248	 3.9559258328	 0.109175
H	 0.28741316	-3.5313431204	 2.0603541946	 0.108612
H	 1.7972889445	-2.5100479099	 2.0948104165	 0.107021
H	 1.6453041575	-0.1526711698	 1.3496477162	 0.086488
H	 0.2823330112	 0.8184201025	 1.9276175718	 0.105227
109.4557	191.7398	250.1725	286.9659	335.3949	373.0639	391.6245	394.8215	436.1857	508.3765	578.616	701.1621	772.9263	782.22	838.2505	867.5668	888.445	910.96	921.8711	935.8624	950.8368	984.4767	1018.3023	1040.5448	1052.4407	1058.9065	1079.9742	1084.7833	1102.6817	1167.2809	1188.8292	1207.9299	1222.3368	1259.1203	1289.1128	1293.0676	1325.3608	1340.4064	1376.9727	1409.4877	1465.8177	1480.1242	1488.3818	1504.5451	1506.3774	3016.2071	3019.9563	3057.4442	3058.9311	3118.7216	3123.9014	3127.9739	3179.8865	3196.6957	3211.8729	3218.8202	3796.5349
OC12CC1CC1(CC1)C2	O[C@]12C[C@H]1CC1(CC1)C2	
InChI=1S/C8H12O/c9-8-4-6(8)3-7(5-8)1-2-7/h6,9H,1-5H2	InChI=1S/C8H12O/c9-8-4-6(8)3-7(5-8)1-2-7/h6,9H,1-5H2/t6-,8+/m1/s1
