25
gdb 42019	2.93621	1.32942	0.98641	0.0719	91.93	-0.2807	0.0881	0.3687	1293.3584	0.234023	-352.402407	-352.394267	-352.393323	-352.435011	33.443	
C	-0.0419539592	 1.5647813056	-0.0818205337	-0.211709
C	 1.4485324428	 2.0183124145	-0.0281068017	-0.244714
C	 2.1977077518	 0.8098054555	 0.5510756282	 0.080469
C	 3.7028513382	 0.6949728343	 0.3183798938	-0.228088
C	 4.2183924923	-0.6431851984	 0.881190931	-0.18921
C	 3.4380207369	-1.85163691	 0.3320136739	-0.18921
C	 1.9171674939	-1.7100851191	 0.532445549	-0.22809
C	 1.4383180385	-0.3832805408	-0.0532936424	 0.080484
C	-0.0314552945	 0.0205063943	 0.1310040918	-0.24473
H	-0.6366232525	 2.0610203847	 0.6903798349	 0.096747
H	-0.4965644947	 1.8310474588	-1.0402599569	 0.096742
H	 1.8194852155	 2.2290795938	-1.0386693376	 0.091474
H	 1.5906599715	 2.9309548245	 0.55837454	 0.089078
H	 2.020411047	 0.7874898079	 1.6391171204	 0.058858
H	 3.9087220655	 0.7477358748	-0.7606157338	 0.08706
H	 4.2404186149	 1.5317607732	 0.7803633019	 0.085742
H	 5.2862614577	-0.7593940726	 0.6640082202	 0.087431
H	 4.126170816	-0.6256901228	 1.9761256055	 0.091005
H	 3.6455424716	-1.9529169663	-0.7424024492	 0.091005
H	 3.7982303827	-2.7731159377	 0.803333546	 0.087431
H	 1.3946572182	-2.5578083726	 0.0731322152	 0.085742
H	 1.6799061574	-1.7400526484	 1.6058555783	 0.08706
H	 1.6573608293	-0.3912749047	-1.1339043724	 0.058859
H	-0.3538785744	-0.2260257641	 1.1500840857	 0.091477
H	-0.7077627764	-0.5036682147	-0.5508496979	 0.089087
77.417	157.6244	190.2771	316.3669	316.696	332.8502	420.9994	466.3402	490.4926	573.4101	623.7994	767.521	779.1152	834.6656	845.3372	870.369	903.2515	917.8654	921.9007	937.0558	988.0213	1007.156	1039.7216	1061.2378	1067.49	1089.7976	1113.1891	1113.7775	1143.4906	1203.0957	1209.5888	1219.4862	1260.8281	1267.9954	1290.0768	1290.8201	1320.4785	1322.0596	1325.666	1346.7072	1349.3047	1370.9914	1371.4736	1385.4811	1396.4201	1397.5688	1482.6947	1485.7003	1488.8931	1489.779	1497.8348	1501.4442	1515.3094	2960.5603	2972.9577	3005.156	3005.186	3009.128	3013.9081	3030.0354	3030.5498	3052.5931	3053.4532	3055.6174	3059.8605	3065.181	3071.6361	3081.2494	3100.0215
C1CC2CCCCC2C1	C1C[C@@H]2CCCC[C@H]2C1	
InChI=1S/C9H16/c1-2-5-9-7-3-6-8(9)4-1/h8-9H,1-7H2	InChI=1S/C9H16/c1-2-5-9-7-3-6-8(9)4-1/h8-9H,1-7H2/t8-,9-/m0/s1
