18
gdb 109107	3.20818	1.13946	0.88047	3.5856	74.76	-0.206	0.0029	0.2088	1289.1439	0.146952	-439.128301	-439.118921	-439.117977	-439.162872	33.764	
C	-0.0937442554	 1.5639369351	-0.0033663537	-0.395172
C	 0.0341977506	 0.0341059587	 0.0587479415	-0.243919
C	 0.8416956336	-0.5007597384	-1.14557341	 0.433576
O	 0.6584661896	-0.2729511846	-2.3201435062	-0.381523
N	 1.8388550234	-1.2852329105	-0.605545178	-0.339477
C	 1.7936235752	-1.2783424097	 0.8003658725	-0.107963
C	 0.777014191	-0.5348903064	 1.2485750327	 0.253063
C	 0.3950007987	-0.3153438845	 2.6727684117	-0.182282
O	 1.2766839457	-1.0524086957	 3.5037806095	-0.416442
H	 0.8818545067	 2.0427829563	 0.1253515227	 0.123773
H	-0.4928805358	 1.8557223945	-0.9782941867	 0.143733
H	-0.7639488683	 1.9382450373	 0.7758915155	 0.114112
H	-0.9726136006	-0.4020726529	-0.0152904501	 0.113725
H	 2.5448903625	-1.7305899166	-1.1673263154	 0.25892
H	 2.5171651373	-1.8405598317	 1.369879094	 0.142942
H	 0.4327830316	 0.7622493193	 2.9120272075	 0.097764
H	-0.654419379	-0.6258456953	 2.8291021579	 0.093805
H	 1.0529371832	-0.864645215	 4.4193191248	 0.291363
59.3055	84.9659	164.6522	197.656	220.7125	230.7897	256.7795	289.3554	369.6276	473.473	527.2327	550.1029	639.6874	713.1499	752.1966	812.3488	835.3316	859.1283	1015.4379	1038.712	1055.4492	1085.613	1095.8217	1105.8098	1182.3776	1203.9355	1225.2929	1244.0429	1289.5049	1310.6532	1351.448	1398.6475	1403.7326	1470.2931	1494.5716	1499.7374	1515.2025	1716.2805	1831.2848	2931.7569	2945.1793	3008.3521	3040.6503	3111.4674	3125.0709	3263.7879	3665.3368	3842.4832
CC1C(=O)NC=C1CO	C[C@H]1C(=O)NC=C1CO	
InChI=1S/C6H9NO2/c1-4-5(3-8)2-7-6(4)9/h2,4,8H,3H2,1H3,(H,7,9)	InChI=1S/C6H9NO2/c1-4-5(3-8)2-7-6(4)9/h2,4,8H,3H2,1H3,(H,7,9)/t4-/m1/s1
