14
gdb 10476	3.37036	1.2919	1.00682	5.4312	72.58	-0.2557	-0.0027	0.2529	1151.4549	0.106014	-341.54089	-341.532396	-341.531452	-341.57531	28.968	
C	-0.0045988173	 1.4468856069	-0.0067598541	-0.503051
C	 0.0132669941	-0.0071871417	 0.0157494003	 0.123834
C	 0.0359547634	-1.2110987603	 0.0338557422	-0.011364
C	 0.0564863222	-2.6499470826	 0.0326209574	 0.032225
C	-0.526424106	-3.3898433952	 1.2093264547	-0.25254
N	-1.2256686544	-3.4042489751	-0.0679251699	-0.326015
C	 1.1611817133	-3.2591814806	-0.6860685465	 0.252211
N	 2.0573519181	-3.7369437505	-1.2369136521	-0.334677
H	 0.9630034748	 1.8392428411	-0.3370516246	 0.164772
H	-0.7696223491	 1.8245191786	-0.6935428216	 0.157813
H	-0.210425263	 1.8580847904	 0.9871762129	 0.156051
H	-0.0797124902	-4.3358078724	 1.4989722066	 0.150616
H	-0.8987327619	-2.773318846	 2.0217858618	 0.137858
H	-1.9853065841	-2.7271318827	-0.0686339071	 0.252269
25.2675	82.5079	129.987	194.8113	228.9163	306.7724	313.4552	463.1283	485.6341	537.3779	594.2405	607.2198	813.4689	851.9471	927.7882	988.4169	1030.9706	1049.8456	1053.3404	1104.2976	1147.9262	1257.6534	1322.2715	1345.4136	1413.5972	1473.5684	1475.5734	1499.3443	2364.5933	2371.5957	3032.5522	3095.7003	3098.6696	3121.1676	3218.1676	3507.5136
CC#CC1(CN1)C#N	CC#C[C@]1(CN1)C#N	
InChI=1S/C6H6N2/c1-2-3-6(4-7)5-8-6/h8H,5H2,1H3	InChI=1S/C6H6N2/c1-2-3-6(4-7)5-8-6/h8H,5H2,1H3/t6-/m1/s1
