15
gdb 49823	2.43851	1.53995	1.12342	2.133	68.37	-0.2652	-0.0442	0.2211	1073.0195	0.111743	-453.910812	-453.902752	-453.901808	-453.94407	29.011	
N	-0.136021991	 1.2259514038	-0.5729792694	-0.558783
C	-0.0542966083	 0.0675058683	-0.1078448993	 0.407995
O	 1.0133154303	-0.6657967489	 0.3798302214	-0.262565
C	 0.1916668591	-1.8503747198	 0.5812595203	-0.025379
C	 0.1420405312	-2.314330291	 2.0175727338	 0.138121
O	 0.6295617233	-1.7261597795	 2.9433853239	-0.224681
C	-1.0280864965	-1.0499187394	 0.0808520724	 0.171917
C	-2.4478121128	-0.9626363899	 0.490606212	-0.291687
N	-2.0645696544	-1.4862787532	-0.8287423537	-0.355998
H	 0.761143175	 1.7115569332	-0.5732814943	 0.240875
H	 0.4895481019	-2.6667844324	-0.0858404913	 0.12782
H	-0.4192426228	-3.2680187128	 2.1484360491	 0.088504
H	-2.8629233451	-1.7003515103	 1.171044709	 0.135491
H	-2.8722995489	 0.0345647706	 0.5642078113	 0.148885
H	-2.195053261	-0.7822235786	-1.5532377549	 0.259483
75.8597	90.4793	191.9684	220.2783	241.1202	255.2081	361.1513	488.7855	598.7918	688.4261	716.0598	770.9493	837.3077	848.6055	882.9521	913.799	959.2787	976.2141	1006.7373	1029.928	1068.7675	1085.4319	1131.9106	1179.0025	1242.6977	1267.0471	1286.5249	1349.9216	1415.2868	1427.1819	1511.1713	1836.5196	1846.5304	2871.3209	3062.0337	3116.142	3208.4326	3492.1402	3497.3595
N=C1OC(C=O)C11CN1	[NH][C]1O[C@@H](C=O)[C@]21CN2	
InChI=1S/C5H6N2O2/c6-4-5(2-7-5)3(1-8)9-4/h1,3,6-7H,2H2	InChI=1S/C5H6N2O2/c6-4-5(2-7-5)3(1-8)9-4/h1,3,6-7H,2H2/t3-,5-/m0/s1
