21
gdb 93537	2.88989	1.23895	0.95533	2.9032	84.57	-0.2268	-0.0121	0.2147	1280.9608	0.183268	-387.125976	-387.11716	-387.116216	-387.159547	33.889	
C	 0.1462384533	 1.645692688	 0.009401428	-0.411602
C	-0.0097065731	 0.1185128732	-0.0002822658	-0.014088
C	 0.5963146055	-0.4854282676	-1.2869838285	-0.188489
C	 0.1507165546	-1.9256146918	-1.6189912197	-0.30401
C	 0.4856697365	-2.9932309726	-0.5844187049	 0.39303
O	 1.2184451324	-3.9199808589	-0.840388907	-0.302755
C	-0.1641135831	-2.8491685184	 0.7937950579	-0.34464
C	 0.5317492228	-1.7709347036	 1.5998067815	-0.097943
C	 0.5979772457	-0.4875549485	 1.2495132509	-0.019762
H	 1.2046411662	 1.929110897	-0.0256172718	 0.119705
H	-0.3508819496	 2.1015404192	-0.8521808364	 0.112881
H	-0.2845424053	 2.0796406307	 0.9173344993	 0.117028
H	-1.0878280296	-0.1091785447	-0.0076818429	 0.080574
H	 0.3121726404	 0.1442811172	-2.13912482	 0.098603
H	 1.6900832318	-0.4454006014	-1.2207558747	 0.110264
H	-0.9408597181	-1.92829386	-1.7522672496	 0.108818
H	 0.6017075772	-2.2434657119	-2.5627339391	 0.118526
H	-1.2268933488	-2.6012033357	 0.6681299741	 0.114905
H	-0.0930882462	-3.8147155788	 1.2969472083	 0.121519
H	 1.0277075941	-2.0985577828	 2.5087023111	 0.100626
H	 1.1398274334	 0.1977892113	 1.8984238893	 0.086809
68.3699	101.5273	187.6505	230.0109	273.6792	309.2208	339.6285	361.0826	453.6901	485.2158	533.3083	622.5333	672.0452	711.7237	810.6978	824.7893	875.6317	898.6336	950.9752	973.3839	991.2517	996.2775	1034.1741	1067.5153	1083.9501	1146.9724	1162.5387	1199.3584	1227.406	1259.2688	1274.6646	1300.4181	1317.6682	1330.0577	1357.8146	1378.5553	1407.0973	1421.2343	1464.7185	1476.3844	1487.8679	1497.8971	1501.08	1714.5262	1811.6763	2968.8999	3007.8625	3018.0566	3022.8092	3030.1343	3067.1991	3096.7433	3098.6147	3107.1776	3117.953	3140.476	3175.2565
CC1CCC(=O)CC=C1	C[C@H]1CCC(=O)CC=C1	
InChI=1S/C8H12O/c1-7-3-2-4-8(9)6-5-7/h2-3,7H,4-6H2,1H3	InChI=1S/C8H12O/c1-7-3-2-4-8(9)6-5-7/h2-3,7H,4-6H2,1H3/t7-/m1/s1
