15
gdb 8128	4.23499	1.90364	1.54619	4.1985	62.28	-0.2453	0.054	0.2993	834.1775	0.118846	-399.804629	-399.797748	-399.796804	-399.83555	26.442	
C	-0.1845314107	 1.5717127253	 0.0915789563	-0.469796
C	 0.0965608437	 0.1002320457	 0.0573207555	 0.396362
C	-0.760577168	-0.961209027	 0.7140517761	-0.377374
C	 0.6792385879	-0.7589738925	 1.1315895402	 0.018079
O	 1.631298426	-1.5867718993	 0.4997209133	-0.251362
C	 1.6280843876	-1.3185334192	-0.8463867184	 0.475519
N	 2.3109653992	-1.8887911523	-1.7323862919	-0.570842
O	 0.7476298621	-0.3240543103	-1.1308976517	-0.257441
H	 0.7350947604	 2.1451055623	-0.057455407	 0.139592
H	-0.8943746486	 1.8470393198	-0.6944884466	 0.143343
H	-0.6192828133	 1.85086093	 1.0550536456	 0.126877
H	-1.5215683644	-0.6172507559	 1.406385677	 0.128343
H	-1.0100620611	-1.8524667743	 0.1484345405	 0.141465
H	 0.9775319821	-0.4370098702	 2.1210423254	 0.123851
H	 2.9057056572	-2.5997565219	-1.3143136445	 0.233384
120.2351	190.7045	224.5648	292.7231	398.8311	465.3299	479.8748	613.0601	712.4786	718.9005	778.202	796.7696	839.9028	860.2348	920.0457	960.9558	987.843	1017.9963	1039.0922	1058.1001	1097.9517	1132.8412	1144.2171	1228.2603	1268.3575	1345.4416	1399.9731	1428.5308	1474.8051	1479.7443	1502.0157	1802.2637	3043.5172	3113.4676	3123.7545	3134.7469	3198.5854	3230.5919	3542.3443
CC12CC1OC(=N)O2	C[C@]12C[C@H]1O[C]([NH])O2	
InChI=1S/C5H7NO2/c1-5-2-3(5)7-4(6)8-5/h3,6H,2H2,1H3	InChI=1S/C5H7NO2/c1-5-2-3(5)7-4(6)8-5/h3,6H,2H2,1H3/t3-,5+/m1/s1
