20
gdb 100617	2.06155	1.20728	0.8046	3.9167	85.4	-0.2843	0.0135	0.2979	1442.7965	0.168043	-365.998743	-365.988149	-365.987205	-366.034656	38.098	
C	 0.0760242647	 1.5743036468	 0.0175125865	-0.396402
C	-0.0085932388	 0.045258861	-0.0284982723	-0.184417
C	-1.4466238317	-0.5031566314	-0.0193374211	 0.034397
C	-2.2233399353	-0.1333152343	-1.2883214841	-0.420579
C	-1.4185664377	-2.0601436863	 0.1690294119	-0.328143
C	-0.7477325975	-2.4799482895	 1.4017446675	 0.320694
C	-0.202404303	-2.819061144	 2.4160767062	-0.415073
C	-2.7771151329	-2.6281866707	 0.1334585333	 0.292035
N	-3.8479469338	-3.0598614382	 0.0955615042	-0.329955
H	 1.1195469593	 1.8982133625	 0.0736563259	 0.119516
H	-0.364021532	 2.0410769659	-0.868482125	 0.122063
H	-0.4418599318	 1.9716099122	 0.8974568081	 0.120364
H	 0.5065969874	-0.325625582	-0.9257229805	 0.095274
H	 0.5316546246	-0.3657984345	 0.830223543	 0.117816
H	-1.971395786	-0.0930275024	 0.8524578322	 0.100724
H	-1.72362917	-0.5275330141	-2.1815504213	 0.117196
H	-3.2421505411	-0.5282866379	-1.2681946022	 0.148109
H	-2.2907025015	 0.9516073398	-1.3966998252	 0.126007
H	-0.8755893968	-2.4848060389	-0.6883010367	 0.15202
H	 0.2784027338	-3.1256710839	 3.3123957196	 0.208356
55.6265	73.1989	135.6859	140.834	169.4676	214.5936	254.4059	270.5891	338.2005	365.2538	386.1343	420.5491	491.3448	568.0936	586.1773	644.9144	661.2796	778.7115	842.8228	858.7032	963.7819	983.4849	988.3585	1030.9979	1051.7575	1115.4203	1152.9936	1176.7729	1245.2032	1299.2868	1313.0808	1334.1526	1366.7661	1383.4275	1413.0799	1419.4501	1484.4963	1496.713	1498.3458	1507.6256	1513.6236	2244.6835	2361.4665	3004.5398	3012.46	3032.1883	3037.6641	3041.9969	3075.5495	3104.0761	3108.1765	3113.7312	3128.8909	3501.4517
CCC(C)C(C#C)C#N	CC[C@@H](C)[C@@H](C#C)C#N	
InChI=1S/C8H11N/c1-4-7(3)8(5-2)6-9/h2,7-8H,4H2,1,3H3	InChI=1S/C8H11N/c1-4-7(3)8(5-2)6-9/h2,7-8H,4H2,1,3H3/t7-,8+/m1/s1
