18
gdb 47676	2.21691	1.68519	1.10423	3.4139	73.67	-0.2696	-0.0204	0.2492	1111.167	0.149083	-439.137677	-439.12955	-439.128606	-439.171014	30.589	
N	-0.2230972144	 1.4111527391	-0.1209116936	-0.48301
C	-0.0600803309	 0.1822819021	 0.1116285127	 0.392299
C	-1.1445811446	-0.8358642168	-0.1041383512	-0.281068
C	-1.8228528182	-1.2384428161	 1.2223607247	-0.197348
C	-0.8110741459	-1.4454643092	 2.357673504	-0.221959
C	 0.4205784156	-2.2443104075	 1.9234124984	-0.322344
C	 1.4607699436	-1.5311154199	 1.0664054875	 0.396569
O	 2.5615579828	-1.9655741347	 0.896187929	-0.292177
O	 1.1757211069	-0.2841787656	 0.5409783132	-0.239501
H	 0.6271212786	 1.9350678404	 0.096145686	 0.230852
H	-1.8739636202	-0.4000296991	-0.7877453483	 0.141417
H	-0.714923032	-1.7166359672	-0.5946963501	 0.121616
H	-2.5387563213	-0.4628031636	 1.510555111	 0.122689
H	-2.3964389752	-2.1571292838	 1.0558020661	 0.107564
H	-0.4897807401	-0.4736314575	 2.7499953578	 0.123346
H	-1.2940913458	-1.9649428859	 3.1911918995	 0.10998
H	 0.9853887399	-2.5977310287	 2.7912588413	 0.149165
H	 0.1279562411	-3.1518577859	 1.3797484218	 0.141911
55.9625	87.6849	178.6309	255.6301	305.9457	358.9846	413.3516	486.1412	541.9702	564.3795	617.5447	652.654	753.8429	812.1012	851.2408	885.6175	908.3028	942.393	989.5346	1006.0523	1069.2162	1102.3016	1110.9161	1160.1016	1177.319	1201.3592	1266.6438	1290.5621	1316.2506	1355.3954	1361.9827	1380.7409	1392.3967	1456.5084	1482.3988	1494.5645	1501.8183	1757.4945	1856.7574	3036.1185	3041.6882	3044.257	3048.2575	3080.6297	3091.2651	3093.9894	3130.3891	3470.3785
N=C1CCCCC(=O)O1	[NH][C]1CCCCC(=O)O1	
InChI=1S/C6H9NO2/c7-5-3-1-2-4-6(8)9-5/h7H,1-4H2	InChI=1S/C6H9NO2/c7-5-3-1-2-4-6(8)9-5/h7H,1-4H2
