20
gdb 26116	2.53325	1.27416	1.03594	2.8849	82.24	-0.1821	0.0384	0.2205	1254.4755	0.172029	-399.37634	-399.366699	-399.365754	-399.411238	35.541	
C	-0.029912787	 1.6254800994	 0.1497222436	-0.383417
C	-0.0041978331	 0.0882051333	 0.0457234379	-0.097525
C	 0.8367680233	-0.5249006248	 1.1840565698	-0.376595
C	-1.3804276541	-0.4987404945	-0.0322793178	 0.275967
C	-1.9757679233	-1.3325602408	-0.952563147	 0.173406
N	-1.4204252099	-1.8479403464	-2.1378823007	-0.602217
N	-3.284262136	-1.5894593035	-0.6196567879	-0.305581
C	-3.4955011884	-0.9262843986	 0.496846768	-0.001931
N	-2.3832866904	-0.2630512638	 0.9030547563	-0.310372
H	 0.986159145	 2.0330264601	 0.1337083116	 0.113316
H	-0.5924771269	 2.0665504864	-0.6774889949	 0.12772
H	-0.4959288607	 1.9554840424	 1.0863084546	 0.098476
H	 0.4785608622	-0.1685470591	-0.9053009214	 0.092601
H	 0.3975492807	-0.3009786919	 2.163465724	 0.103447
H	 0.8957129	-1.6131884101	 1.0906142322	 0.116166
H	 1.8556700352	-0.1229283682	 1.179708564	 0.111456
H	-0.5691712701	-2.3727465629	-1.9768046213	 0.238013
H	-2.0970300843	-2.4575534293	-2.5820293203	 0.244205
H	-4.4239327048	-0.8940062503	 1.0469395214	 0.123487
H	-2.3000177174	 0.3081646029	 1.7265345379	 0.259376
33.8928	119.0265	150.0871	172.8561	223.7858	249.8434	285.5558	289.7125	389.9691	422.8279	487.255	520.2182	614.241	679.5447	720.1443	736.1128	783.4453	830.2686	883.2181	926.2364	955.5171	958.6333	1057.684	1067.4248	1119.4833	1127.8614	1170.8966	1205.3417	1267.2829	1322.0796	1337.659	1370.4272	1391.3364	1396.8517	1421.6027	1483.8521	1484.3505	1490.7386	1502.6493	1508.7694	1518.7008	1641.7248	1650.0254	3023.661	3025.9166	3034.3344	3085.7787	3093.8341	3107.9948	3116.1396	3250.7753	3523.0891	3610.821	3670.5787
CC(C)C1=C(N)N=CN1	CC(C)c1c(N)nc[nH]1	
InChI=1S/C6H11N3/c1-4(2)5-6(7)9-3-8-5/h3-4H,7H2,1-2H3,(H,8,9)	InChI=1S/C6H11N3/c1-4(2)5-6(7)9-3-8-5/h3-4H,7H2,1-2H3,(H,8,9)
