18
gdb 107500	2.7956	1.3955	1.11515	1.228	71.86	-0.2316	0.0533	0.2849	1119.7051	0.147221	-439.004496	-438.996177	-438.995233	-439.037443	31.727	
O	 0.5814743259	 0.5003177464	-0.9942488021	-0.412001
C	-0.0171119941	 0.2862496797	 0.2783593196	-0.21105
C	-1.4277460526	-0.2118651266	 0.1493832923	 0.232174
N	-1.7970395844	-1.2752874732	-0.8181955528	-0.374095
C	-2.4701867626	 0.045863538	-0.8902944308	-0.121642
C	-3.5993207653	 0.0132556047	 0.153494189	-0.314487
C	-2.5101354385	-0.2536942132	 1.2172053046	 0.418079
C	-2.540668249	-0.906417696	 2.5213242487	-0.26197
O	-2.4162518492	 0.5254611892	 2.3968662598	-0.282979
H	 0.1750441824	 1.2845596016	-1.3774233765	 0.289512
H	 0.6071911673	-0.4641470347	 0.7776289633	 0.122951
H	 0.0002266547	 1.1912890251	 0.9009320479	 0.117054
H	-1.0524442799	-1.2548846547	-1.5187386379	 0.237275
H	-2.4206033361	 0.6450994883	-1.791290519	 0.092052
H	-4.0669321752	 0.9867333303	 0.3204398894	 0.118841
H	-4.3602378212	-0.7564941961	 0.0064691999	 0.114663
H	-3.4891851054	-1.2518048034	 2.929313134	 0.119389
H	-1.6576505471	-1.4205613854	 2.8974570605	 0.116234
92.9201	119.064	173.4553	227.9787	280.7315	341.1091	358.071	434.6687	484.5099	503.532	600.2558	680.5623	788.9575	840.6415	861.0892	870.5899	910.4582	951.2813	980.0878	1005.8751	1028.3042	1050.2274	1073.4046	1111.8248	1126.39	1151.1703	1164.4433	1182.0423	1211.7253	1228.8657	1288.258	1334.9739	1385.7472	1411.7055	1419.3036	1447.7004	1477.1258	1504.5447	1539.8832	3013.1672	3061.0597	3066.4953	3086.5871	3128.0515	3173.6452	3188.2908	3445.9245	3815.6659
OCC12NC1CC21CO1	OC[C@]12N[C@H]1C[C@]12CO1	
InChI=1S/C6H9NO2/c8-2-6-4(7-6)1-5(6)3-9-5/h4,7-8H,1-3H2	InChI=1S/C6H9NO2/c8-2-6-4(7-6)1-5(6)3-9-5/h4,7-8H,1-3H2/t4-,5+,6-/m0/s1
