19
gdb 118046	3.96421	0.77031	0.67576	2.7794	69.9	-0.2678	-0.0354	0.2324	1639.8688	0.155816	-497.289494	-497.279116	-497.278171	-497.325604	36.275	
C	 0.119972728	 1.3625734287	-0.1373678141	-0.230807
O	 0.1235484212	-0.0452043492	-0.0539676458	-0.254235
C	 0.5619820395	-0.53414105	 1.2005326405	-0.085754
C	 0.6023408114	-2.0526943063	 1.0684892239	 0.087597
O	 1.4090425579	-2.432467943	-0.0318206711	-0.452269
C	 1.2058269346	-2.7117374365	 2.3221941643	 0.037487
O	 0.4957939787	-2.3463054899	 3.4718980266	-0.439115
C	 1.2187324042	-4.2215857395	 2.1677118114	 0.130831
O	 0.6737142065	-4.9306413907	 2.9812105922	-0.267451
H	 1.1253543279	 1.7809390033	 0.0229547131	 0.111142
H	-0.221204449	 1.6295359389	-1.1402633435	 0.131514
H	-0.561633309	 1.8083348209	 0.6021549446	 0.114301
H	 1.5706477152	-0.1509588754	 1.4292881646	 0.09134
H	-0.1164644319	-0.2346537907	 2.0103205032	 0.118652
H	-0.4312392856	-2.4143335179	 0.9433156093	 0.084333
H	 1.1903599622	-1.8144873958	-0.7408234282	 0.297058
H	 2.2601322194	-2.3871167581	 2.3840356577	 0.100112
H	 0.1982331089	-3.183228002	 3.8658574756	 0.296578
H	 1.7415243398	-4.6254177168	 1.2835847455	 0.128684
56.3249	91.6634	98.5879	121.1422	153.3296	229.6274	239.4211	297.1809	341.006	368.0698	417.3467	441.6463	466.7806	497.5564	578.4187	768.2773	845.9806	915.677	965.9068	997.2138	1063.9809	1113.134	1129.389	1157.3342	1174.281	1185.5724	1221.5455	1240.885	1265.2103	1281.9711	1328.3244	1357.6805	1384.062	1397.3818	1425.8706	1461.2417	1479.7922	1486.0515	1501.0036	1522.6274	1805.8403	2952.045	2965.3859	2980.2906	2984.5035	2998.0812	3031.1477	3044.6258	3118.9987	3668.0548	3777.9872
COCC(O)C(O)C=O	COC[C@@H](O)[C@@H](O)C=O	
InChI=1S/C5H10O4/c1-9-3-5(8)4(7)2-6/h2,4-5,7-8H,3H2,1H3	InChI=1S/C5H10O4/c1-9-3-5(8)4(7)2-6/h2,4-5,7-8H,3H2,1H3/t4-,5+/m0/s1
