19
gdb 42085	3.7647	1.2611	1.21441	1.0611	75.39	-0.2433	0.0215	0.2648	1093.483	0.161022	-423.036711	-423.029066	-423.028122	-423.069437	29.428	
C	 0.0110777947	 1.4260830745	 0.0257370682	 0.013416
O	 0.9523557095	 1.8523744176	-0.9256342101	-0.241476
C	 2.0391154756	 0.9554465839	-0.7588376596	-0.15628
C	 1.337393933	-0.3928964609	-0.5110270294	 0.424122
C	 1.0530470195	-1.1600197989	-1.8325851497	-0.315511
C	 2.1032582947	-2.2407345554	-1.8401361341	-0.063749
C	 2.6981609753	-2.3632615267	-0.6536018223	-0.06345
C	 2.1555981712	-1.3812981743	 0.3550355921	-0.333759
O	 0.1253653597	 0.0182210355	 0.1354695671	-0.310995
H	 0.2080199196	 1.8862587933	 1.0107351323	 0.085369
H	-0.9897790894	 1.7031054148	-0.3229656883	 0.114118
H	 2.6536237459	 0.9769480572	-1.6602473074	 0.123422
H	 2.6546153415	 1.2414464314	 0.1093388552	 0.090497
H	 0.0413095202	-1.5840294735	-1.7944408322	 0.118243
H	 1.0826902513	-0.4988378983	-2.7063709146	 0.106628
H	 2.3065137317	-2.8567263009	-2.7090612206	 0.093097
H	 3.4580828678	-3.0952241506	-0.4041085331	 0.093776
H	 2.934908263	-0.8754954675	 0.9377157838	 0.098798
H	 1.4925993651	-1.8710894311	 1.0799477526	 0.123737
65.8912	77.732	222.1631	288.589	377.9164	386.4946	423.5377	465.7728	665.1582	720.9968	751.7176	772.4298	812.786	907.4266	939.8993	959.4009	976.5373	979.3006	980.9224	989.6514	1031.1307	1082.1891	1117.9395	1121.6595	1136.9005	1146.4824	1168.355	1191.1416	1208.864	1264.9354	1271.1921	1291.949	1345.2146	1361.9734	1374.8566	1432.2075	1480.7998	1489.3938	1510.9722	1549.4015	1685.6361	2939.8281	2977.2513	3023.2728	3025.4059	3054.7254	3059.6644	3062.7635	3118.9342	3183.099	3208.0134
C1OCC2(CC=CC2)O1	C1OC[C@]2(CC=CC2)O1	
InChI=1S/C7H10O2/c1-2-4-7(3-1)5-8-6-9-7/h1-2H,3-6H2	InChI=1S/C7H10O2/c1-2-4-7(3-1)5-8-6-9-7/h1-2H,3-6H2
