20
gdb 106748	2.15906	1.55568	1.07301	2.3308	80.83	-0.236	-0.0157	0.2203	1205.6714	0.169564	-403.14363	-403.134244	-403.1333	-403.177938	34.845	
C	 0.2395486326	 1.5014341406	 0.1969900103	-0.384284
C	-0.1550742547	 0.03829291	-0.0504512875	-0.293982
C	 0.4666671464	-0.5098395698	-1.3004525159	 0.186731
N	 1.8887220939	-0.9300202887	-1.2930714714	-0.388629
C	 0.9163455947	-1.9035305389	-1.751075152	 0.265924
C	 0.7794898493	-3.2200416175	-1.0490345686	-0.483589
C	 0.5699944262	-1.6130866966	-3.2239669041	-0.429036
C	 0.0669158858	-0.2259790001	-2.7285927197	 0.374951
O	-0.574132191	 0.6454230461	-3.2465320612	-0.315994
H	 1.3243764056	 1.5950656953	 0.3062403396	 0.125349
H	-0.0764476289	 2.1324770167	-0.6387949637	 0.139538
H	-0.2284426852	 1.8829591475	 1.1091548961	 0.112518
H	 0.1533617613	-0.5834370418	 0.7973764025	 0.109152
H	-1.2455923496	-0.0428931436	-0.1326532691	 0.108021
H	 2.4320374908	-0.520311133	-2.0513654203	 0.234
H	 0.9380255237	-3.1001167585	 0.0256305672	 0.137119
H	-0.2126549888	-3.6517896585	-1.2149226199	 0.124871
H	 1.5230875572	-3.9348377882	-1.4196992561	 0.129879
H	 1.4031277797	-1.6496492332	-3.9334249673	 0.116704
H	-0.268345469	-2.1891899777	-3.6294865791	 0.130759
61.6516	106.5954	135.1994	199.725	212.2534	239.2943	282.3379	342.8964	407.5308	497.4647	504.2644	569.3752	623.0652	667.8273	743.8323	771.737	798.2192	864.1457	950.0731	970.6306	988.7094	1032.0726	1060.9967	1094.3945	1105.4305	1130.1505	1154.6567	1177.5623	1209.0146	1222.1615	1301.7471	1335.5782	1369.7002	1404.5633	1415.3363	1444.4827	1469.6851	1473.8299	1484.1846	1495.6161	1499.1297	1511.427	1870.3503	3032.3445	3034.2161	3040.9812	3045.0415	3072.0629	3095.3144	3097.7041	3112.8751	3119.6156	3123.5009	3457.6382
CCC12NC1(C)CC2=O	CC[C@@]12N[C@]1(C)CC2=O	
InChI=1S/C7H11NO/c1-3-7-5(9)4-6(7,2)8-7/h8H,3-4H2,1-2H3	InChI=1S/C7H11NO/c1-3-7-5(9)4-6(7,2)8-7/h8H,3-4H2,1-2H3/t6-,7+/m1/s1
