19
gdb 30308	2.94308	1.5924	1.07796	1.8617	83.05	-0.1646	0.048	0.2126	1121.9428	0.162867	-382.098517	-382.090681	-382.089737	-382.130598	31.061	
C	-0.2688086253	 1.5468313909	-0.0276029191	-0.397239
C	 0.0387221508	 0.0476865878	 0.0436860271	-0.110838
C	 0.9645088302	-0.446512128	-1.1197678842	-0.167018
N	 1.7456636414	-1.5962722757	-0.5864718617	-0.40981
C	 1.7974214997	-1.3572143233	 0.8086440202	 0.290884
C	 0.8655663596	-0.4333203013	 1.196682522	 0.270691
N	 0.8475855383	-0.3977897918	 2.5704849687	-0.377271
C	 1.809360835	-1.2629289239	 3.0408111862	-0.071674
C	 2.4169487971	-1.8926703727	 1.9668706663	-0.313481
H	 0.6522778616	 2.1367858646	 0.0211560681	 0.116339
H	-0.7886375829	 1.7980791505	-0.958625149	 0.113977
H	-0.9148449328	 1.8590272961	 0.8002985188	 0.106056
H	-0.9167484492	-0.5002355322	-0.0009040565	 0.080973
H	 0.3956642264	-0.7427903766	-2.0057212102	 0.101177
H	 1.6288327068	 0.385499832	-1.4021047337	 0.089658
H	 2.6542746759	-1.6721593229	-1.0290796485	 0.223334
H	 0.2947636071	 0.2120737844	 3.1456536866	 0.255935
H	 2.0076373407	-1.3433091699	 4.0978942243	 0.11112
H	 3.1985627897	-2.6334965278	 2.0323707845	 0.087188
112.784	156.0228	222.0877	258.4781	298.3575	408.6745	427.1088	476.8369	563.7394	623.122	639.5623	680.4832	699.2474	727.1272	790.1425	810.9414	904.6121	927.662	945.9459	1006.7179	1040.5242	1074.6374	1094.8545	1112.9385	1127.3551	1158.7418	1221.0106	1262.4646	1308.8263	1315.6566	1341.659	1370.3079	1404.4342	1408.4247	1461.2953	1477.8035	1495.6675	1499.4293	1508.4834	1540.2961	1625.9839	2956.0061	2976.0551	3026.4377	3078.5089	3091.5239	3102.6933	3244.6626	3265.0699	3530.2833	3688.7902
CC1CNC2=C1NC=C2	C[C@H]1CNc2c1[nH]cc2	
InChI=1S/C7H10N2/c1-5-4-9-6-2-3-8-7(5)6/h2-3,5,8-9H,4H2,1H3	InChI=1S/C7H10N2/c1-5-4-9-6-2-3-8-7(5)6/h2-3,5,8-9H,4H2,1H3/t5-/m0/s1
