20
gdb 59719	3.06447	1.29833	1.02667	1.4435	75.2	-0.2366	0.0784	0.3151	1203.7353	0.171165	-440.259836	-440.251031	-440.250087	-440.293336	33.442	
C	-0.1420574515	 1.5011515765	 0.0324945437	-0.411765
C	-0.0226522411	-0.0195910631	 0.0293007623	 0.114531
O	 0.6757365489	-0.4956976892	-1.1225089231	-0.451093
C	 0.782540443	-0.5465121614	 1.2157351638	 0.149648
O	 0.1553659409	-0.1064446473	 2.4212670452	-0.281032
C	 0.3089262584	-1.0846341182	 3.4456773778	-0.075053
C	 0.5400085965	-2.397741725	 2.7294239057	-0.0603
N	-0.470400238	-2.643412474	 1.6799479267	-0.333294
C	 0.8400590341	-2.0586338414	 1.3219903704	-0.073422
H	 0.848844193	 1.9629252267	-0.0337206741	 0.116147
H	-0.7375127724	 1.8446013483	-0.821752451	 0.097857
H	-0.6298168877	 1.8424922918	 0.9486321307	 0.139771
H	-1.0215103401	-0.4741215362	 0.0913630486	 0.088299
H	 0.2103090861	-0.1755732252	-1.9008891046	 0.282317
H	 1.8126766153	-0.1578914324	 1.1446486341	 0.069001
H	 1.1726332398	-0.8558199879	 4.0905796522	 0.089857
H	-0.5999690741	-1.0685396637	 4.0561390905	 0.112198
H	 1.0050842925	-3.2292597008	 3.2478623653	 0.09249
H	-0.4648055254	-3.6314414743	 1.4380727614	 0.232034
H	 1.5384443718	-2.6153335732	 0.7098115346	 0.101808
79.1562	115.5814	162.8705	235.3472	246.6979	267.2865	330.0702	375.7458	418.7917	475.3122	524.0269	672.029	767.3931	808.1257	857.6485	877.0648	889.3666	912.9757	965.7136	982.1049	1013.2027	1028.1641	1086.9394	1092.7333	1106.7413	1127.3548	1135.7132	1152.0703	1160.4106	1232.375	1245.7977	1259.4233	1316.1781	1335.3785	1360.558	1382.4877	1388.3567	1401.1401	1430.9913	1439.3639	1490.2787	1502.1784	1508.5128	2961.7297	2978.4411	3012.9718	3028.1318	3070.1784	3093.7289	3130.0224	3171.0693	3197.5335	3500.8224	3828.5308
CC(O)C1OCC2NC12	C[C@@H](O)[C@H]1OC[C@H]2N[C@@H]12	
InChI=1S/C6H11NO2/c1-3(8)6-5-4(7-5)2-9-6/h3-8H,2H2,1H3	InChI=1S/C6H11NO2/c1-3(8)6-5-4(7-5)2-9-6/h3-8H,2H2,1H3/t3-,4-,5-,6-/m1/s1
