20
gdb 63666	3.38701	0.90382	0.87152	3.1966	80.22	-0.2642	0.0118	0.276	1435.0911	0.168457	-403.140542	-403.130535	-403.129591	-403.175998	36.247	
C	-0.6559513636	 1.5032839128	 0.4445453385	-0.445983
C	-0.0186629003	 0.1476369715	 0.2052968092	 0.293973
C	-0.6084169661	-0.6345112142	-0.9533464402	-0.453292
C	 1.4700593876	 0.0053713452	 0.4765698764	-0.3532
C	 0.4563361769	-0.6408657689	 1.3919405866	 0.083526
O	 0.2147009273	-0.1044627656	 2.6676413481	-0.231593
C	 1.0779414161	-0.5829632201	 3.6683290058	-0.195538
C	 2.4422437532	-0.0200669288	 3.5999259158	 0.263414
N	 3.5076145453	 0.4254255749	 3.5653505546	-0.309436
H	-0.2296350212	 1.99963204	 1.3180617316	 0.129047
H	-0.5113059966	 2.1516682768	-0.4267064532	 0.115603
H	-1.7346591701	 1.4033516631	 0.6110135265	 0.116031
H	-0.4752560434	-0.0904292841	-1.8954661453	 0.120322
H	-0.130721468	-1.6128356524	-1.0665171895	 0.112529
H	-1.6828955397	-0.7989639069	-0.8117851751	 0.11853
H	 2.0675645653	-0.63588799	-0.163071419	 0.112988
H	 1.9920520809	 0.8746242915	 0.859382225	 0.136077
H	 0.3521145845	-1.7266084449	 1.3619480141	 0.086232
H	 0.6376969345	-0.2977789534	 4.6287699245	 0.160228
H	 1.1570322474	-1.6802464264	 3.6473427656	 0.140543
36.5179	80.1183	162.1683	178.988	202.4356	236.9298	262.0954	299.7632	365.6904	373.3915	379.4735	467.8069	491.2308	620.579	702.8253	818.5943	878.5803	903.6846	918.2156	975.8307	978.1535	1015.6218	1045.5551	1052.4208	1070.1791	1086.2982	1125.5532	1158.8597	1179.7954	1279.0393	1310.4834	1338.4784	1385.9585	1408.3475	1422.0061	1423.9932	1469.2786	1483.2464	1485.3252	1491.3251	1502.8849	1514.9847	2357.7944	3002.2219	3023.5825	3032.2364	3085.761	3086.6494	3088.7147	3089.0005	3100.1023	3132.7344	3135.993	3226.7634
CC1(C)CC1OCC#N	CC1(C)C[C@H]1OCC#N	
InChI=1S/C7H11NO/c1-7(2)5-6(7)9-4-3-8/h6H,4-5H2,1-2H3	InChI=1S/C7H11NO/c1-7(2)5-6(7)9-4-3-8/h6H,4-5H2,1-2H3/t6-/m1/s1
