18
gdb 125788	3.1321	1.49113	1.0391	3.4158	78.42	-0.2343	0.0024	0.2367	1147.3394	0.14971	-401.963904	-401.956132	-401.955188	-401.996319	29.403	
C	-0.0183700959	 1.5200646994	-0.0419075591	-0.499478
C	-0.0246658615	 0.0275707454	 0.0446157743	 0.221522
N	-0.0365271826	-0.6860720672	-1.065619763	-0.209573
O	-0.0363051576	-2.0426777879	-0.6718134281	-0.236965
C	-0.0326011958	-2.0646556466	 0.6595919163	 0.392263
C	-0.0263415985	-0.8207667187	 1.1880612843	 0.122442
C	 0.0263242743	-0.8659466087	 2.6876713461	-0.362053
C	-0.2472786491	-2.3875513297	 2.9719005246	-0.198986
C	 0.0139676477	-3.1822496607	 1.6458330494	-0.35411
H	 0.8719774469	 1.9359109963	 0.4416448486	 0.135185
H	-0.029409747	 1.8368440275	-1.086432122	 0.150889
H	-0.8922095985	 1.9447306069	 0.463454464	 0.135269
H	 1.0076560196	-0.5576070743	 3.0703206875	 0.11279
H	-0.7151598318	-0.230563933	 3.182743096	 0.111481
H	 0.3561577824	-2.766391097	 3.7997930332	 0.108101
H	-1.2959304548	-2.5123114212	 3.255507781	 0.118058
H	-0.7346994808	-3.9605133654	 1.4703025409	 0.126514
H	 0.994507033	-3.6746287352	 1.6432585361	 0.12665
113.4173	137.2992	162.4742	234.8986	246.4322	341.5019	478.7495	557.3169	613.5451	638.2844	683.6725	718.4495	774.5731	828.857	895.2318	899.8894	909.6931	988.5586	1025.961	1056.4746	1067.0455	1068.6927	1157.7069	1203.5935	1219.4866	1223.7431	1283.9234	1308.7822	1336.2443	1367.4065	1410.2398	1463.003	1482.0376	1482.4189	1492.6676	1505.0643	1510.7252	1518.0589	1663.7217	3022.319	3030.3489	3039.421	3058.0767	3069.1804	3080.2177	3093.987	3113.2003	3138.719
CC1=NOC2=C1CCC2	Cc1noc2c1CCC2	
InChI=1S/C7H9NO/c1-5-6-3-2-4-7(6)9-8-5/h2-4H2,1H3	InChI=1S/C7H9NO/c1-5-6-3-2-4-7(6)9-8-5/h2-4H2,1H3
