17
gdb 132486	3.04373	1.29692	0.91539	2.4482	80.65	-0.1957	0.0016	0.1974	1220.741	0.136218	-426.049219	-426.040821	-426.039876	-426.082116	32.124	
C	-0.0348203888	 1.523753868	 0.0263556728	-0.496951
C	 0.0075438827	 0.0187296935	-0.007896251	 0.189151
C	 0.0192261507	-0.7002324788	-1.201478269	-0.268934
C	 0.0578498692	-2.1012250311	-1.2250924633	 0.322268
N	 0.1353794976	-2.7912115085	-2.4427452264	-0.593619
C	 0.0825048157	-2.7901819159	-0.0074485015	-0.192292
C	 0.0712389992	-2.0916411687	 1.1958846414	-0.222692
C	 0.0346684226	-0.7086683308	 1.1805515548	 0.193309
F	 0.0213129515	-0.035047766	 2.3467704142	-0.086597
H	 0.8377432901	 1.9333991347	 0.5463637769	 0.138337
H	-0.0561819654	 1.9384810035	-0.9841683985	 0.119264
H	-0.917935078	 1.8846140273	 0.5643909442	 0.136942
H	 0.0024203997	-0.1552058272	-2.1416745404	 0.081323
H	-0.2648851176	-2.294214807	-3.2259397703	 0.243844
H	-0.2173210221	-3.737098822	-2.4043365284	 0.244063
H	 0.1148925689	-3.8751977251	-0.0009519895	 0.087606
H	 0.0882427341	-2.611234886	 2.146995224	 0.104979
82.8171	149.1748	206.4359	262.3955	267.5533	326.931	369.8437	447.4528	450.649	499.1165	579.4953	584.1789	648.5781	723.8392	744.306	782.2262	827.2743	871.2184	919.0788	957.1321	1015.1979	1060.2331	1110.7649	1142.735	1176.2845	1260.0451	1288.8489	1337.322	1353.6148	1413.2873	1467.8408	1479.8734	1499.667	1544.3118	1636.8482	1653.6142	1665.4909	3036.4131	3089.8524	3120.9036	3157.5995	3172.6372	3201.6103	3556.2987	3651.8852
CC1=CC(N)=CC=C1F	Cc1cc(N)ccc1F	
InChI=1S/C7H8FN/c1-5-4-6(9)2-3-7(5)8/h2-4H,9H2,1H3	InChI=1S/C7H8FN/c1-5-4-6(9)2-3-7(5)8/h2-4H,9H2,1H3
