19
gdb 62568	2.43242	1.52513	1.20075	4.5832	76.43	-0.2655	0.0059	0.2714	1116.7707	0.156867	-423.042863	-423.033725	-423.032781	-423.076069	34.63	
C	 0.0205078701	 1.5342690245	 0.0289591411	-0.464611
C	 0.0290352885	 0.0174497236	 0.0279122377	 0.24002
C	-1.206213121	-0.5995619402	-0.608839407	-0.458933
C	 1.3190715654	-0.8012497307	-0.266980436	-0.378611
C	 2.476457758	-0.1418534523	 0.4178192986	 0.458259
O	 3.5912544763	 0.1869583156	 0.1706648712	-0.333356
O	 1.821439405	-0.0316634319	 1.6409496198	-0.294854
C	 0.6794264865	-0.7811968115	 1.1118011779	 0.413027
C	 0.1318813689	-1.8342145007	 2.0169579261	-0.49337
H	 0.8764466242	 1.9507417408	 0.5611733889	 0.150149
H	 0.0265084165	 1.9185755744	-0.9962781408	 0.124625
H	-0.8893556051	 1.9020406163	 0.516549545	 0.120136
H	-1.3223566115	-0.2373615763	-1.635606721	 0.131537
H	-1.15685775	-1.6913166721	-0.6462584306	 0.121608
H	-2.1069979101	-0.3182271943	-0.0526995159	 0.127981
H	 1.3643730923	-1.5567514447	-1.0386893311	 0.118744
H	-0.2773368409	-1.3757514114	 2.9237523958	 0.142216
H	-0.6690472885	-2.3940422542	 1.5293707024	 0.133673
H	 0.9181345056	-2.5335772649	 2.3154885077	 0.14176
129.3204	177.8419	191.938	194.0732	198.1909	263.3279	289.5344	323.5265	354.2324	453.4323	503.9168	513.8806	616.1638	667.8804	725.3974	796.584	852.2934	887.6426	933.1056	971.0719	983.4583	992.5579	1019.6576	1042.6561	1121.6574	1143.5178	1162.7834	1211.2212	1240.5837	1276.6569	1402.9003	1412.1197	1426.8707	1453.0604	1476.5304	1483.6136	1487.4692	1493.6818	1504.8239	1518.3358	1937.103	3032.6503	3038.1815	3043.0403	3094.148	3098.6293	3106.2722	3111.	3134.6395	3144.673	3218.6362
CC1(C)C2C(=O)OC12C	CC1(C)[C@H]2C(=O)O[C@@]12C	
InChI=1S/C7H10O2/c1-6(2)4-5(8)9-7(4,6)3/h4H,1-3H3	InChI=1S/C7H10O2/c1-6(2)4-5(8)9-7(4,6)3/h4H,1-3H3/t4-,7-/m1/s1
