23
gdb 103666	3.60145	0.87825	0.82705	0.9651	92.86	-0.2519	0.0523	0.3041	1519.7467	0.203553	-351.123649	-351.113423	-351.112479	-351.158555	39.08	
C	 0.0404894303	 1.5814386822	-0.0351819245	-0.394213
C	-0.0508131829	 0.0613519399	 0.1393848045	-0.221166
C	-1.4678742163	-0.5321094769	 0.0408946938	 0.352277
C	-2.4077368749	 0.0406631119	 1.0982725144	-0.464632
C	-2.0158479063	-0.5379400305	-1.4236294656	-0.271771
C	-1.5407146525	-2.0176302696	-1.581721506	-0.158735
C	-1.4121064271	-2.0920414425	-0.026493634	-0.27638
C	-2.4153231741	-2.9584208924	-2.2496722157	 0.303368
C	-3.159391717	-3.73432807	-2.7901013142	-0.448708
H	 1.084870792	 1.9083744176	-0.0274760425	 0.113808
H	-0.3983193326	 1.9054061538	-0.9851420918	 0.117266
H	-0.4757243377	 2.1157902766	 0.7678503215	 0.119416
H	 0.5882924454	-0.4208046333	-0.611877798	 0.093941
H	 0.3715147498	-0.2176509508	 1.1144946476	 0.093188
H	-2.5725179199	 1.1141881494	 0.9582589153	 0.116864
H	-3.3857710995	-0.4496766198	 1.0567138396	 0.111526
H	-2.0036842006	-0.1054721228	 2.1074447442	 0.111087
H	-3.1057688943	-0.4675085561	-1.4553197419	 0.106762
H	-1.5967475435	 0.1857033553	-2.1272048866	 0.100661
H	-0.5497663115	-2.0492014671	-2.0456796223	 0.101449
H	-0.5157847273	-2.579011831	 0.3671683015	 0.098358
H	-2.2938562219	-2.5569418381	 0.4208604379	 0.10538
H	-3.8104094177	-4.4209260856	-3.2713877072	 0.190254
57.4174	105.1729	139.1847	198.144	216.707	239.1539	252.3122	322.0647	339.864	381.3149	439.1633	510.3624	531.7047	575.5898	615.3374	621.3265	709.2891	784.244	838.0613	850.8503	900.9997	911.2622	976.0597	988.7048	1017.4677	1023.821	1051.4461	1075.0691	1092.7864	1150.9519	1181.2915	1208.0994	1238.0281	1250.3532	1277.6093	1294.4708	1341.601	1356.6691	1369.7834	1409.3602	1413.6024	1472.6137	1481.9139	1488.8439	1495.8389	1499.4158	1504.679	1510.3574	2231.3945	3008.8692	3022.4579	3035.7747	3040.3185	3051.2643	3055.9074	3061.9832	3087.6018	3095.6359	3100.5031	3109.1404	3114.6841	3118.0635	3505.5978
CCC1(C)CC(C1)C#C	CC[C@@]1(C)C[C@@H](C1)C#C	
InChI=1S/C9H14/c1-4-8-6-9(3,5-2)7-8/h1,8H,5-7H2,2-3H3	InChI=1S/C9H14/c1-4-8-6-9(3,5-2)7-8/h1,8H,5-7H2,2-3H3/t8-,9-
