16
gdb 19275	3.39202	1.83676	1.36559	3.7833	64.62	-0.2478	-0.0227	0.2251	904.4117	0.130673	-383.72203	-383.71468	-383.713736	-383.753784	27.61	
O	 0.0620120738	 1.3941856723	 0.1670844056	-0.422668
C	 0.1144144146	 0.0194772978	-0.168092789	-0.083979
C	-1.27757999	-0.5982839543	-0.0604951889	-0.129149
C	-1.5476011016	-2.1146427969	-0.1246113443	-0.080853
C	-0.9176894697	-2.8171110938	 1.0256825702	-0.282025
C	-2.2355793141	-2.0817975431	 1.2662793893	-0.168482
C	-1.9366560462	-0.6148971631	 1.3403949527	 0.406757
O	-2.1711658564	 0.2649606706	 2.1260670426	-0.335047
H	-0.4282071744	 1.4710128082	 0.9957291364	 0.297645
H	 0.4916627621	-0.0414279423	-1.1949369152	 0.110061
H	 0.8277732743	-0.5244960913	 0.4711768589	 0.086628
H	-1.9569284414	-0.0509865558	-0.7257233978	 0.115199
H	-1.9041994522	-2.638321252	-1.0014503257	 0.10778
H	-1.0189796574	-3.8974565589	 1.0417174373	 0.131548
H	 0.0015087733	-2.4567763035	 1.4761381859	 0.13086
H	-3.1075723847	-2.6018278939	 1.641359962	 0.115726
109.062	119.1023	183.05	247.2054	380.1342	436.4073	468.532	487.4455	621.8491	713.9754	743.9723	798.0105	860.661	913.6306	929.142	981.0891	999.1216	1033.3133	1067.0671	1076.5716	1092.2196	1116.3964	1135.1598	1158.1104	1191.6644	1238.2986	1288.3858	1317.7614	1338.0821	1383.6258	1442.6292	1496.9719	1519.0998	1863.2745	2978.6632	3044.8729	3062.9963	3129.2751	3200.3121	3205.4997	3215.9399	3770.4102
OCC1C2CC2C1=O	OC[C@H]1[C@H]2C[C@H]2C1=O	
InChI=1S/C6H8O2/c7-2-5-3-1-4(3)6(5)8/h3-5,7H,1-2H2	InChI=1S/C6H8O2/c7-2-5-3-1-4(3)6(5)8/h3-5,7H,1-2H2/t3-,4+,5-/m0/s1
