19
gdb 47926	2.03776	1.82849	1.22172	4.408	71.89	-0.2332	-0.0161	0.217	1074.5114	0.160239	-460.167773	-460.159582	-460.158637	-460.200584	31.195	
O	 0.0506912673	-0.0472772295	 0.1939658722	-0.304875
C	 0.0083252603	 1.1478705745	 0.0326791511	 0.39022
C	-1.3193347775	 1.9022363156	 0.0004610801	-0.289079
C	-1.3950261215	 3.0970236662	-0.9595404012	-0.240632
C	-1.1488124284	 2.7038903823	-2.4187228143	-0.067437
O	 0.0028951416	 1.8897410241	-2.6015506775	-0.234557
C	 1.2596673923	 2.4815162037	-2.3655396846	 0.016862
O	 1.9430454756	 1.849654703	-1.3256590895	-0.218923
C	 1.3257684394	 1.9566953976	-0.0510196519	-0.161934
H	-2.100892386	 1.1654689851	-0.2090065152	 0.128405
H	-1.492073857	 2.2625695871	 1.0250597443	 0.123722
H	-2.3858175217	 3.5613100557	-0.8917866858	 0.110113
H	-0.6826834268	 3.8718089048	-0.6548818707	 0.106389
H	-1.9787997001	 2.0932787508	-2.7882055719	 0.120913
H	-1.0928601543	 3.6027438431	-3.0501641298	 0.099824
H	 1.8876622925	 2.3301302229	-3.2491154188	 0.119697
H	 1.143511634	 3.5619982054	-2.1710639369	 0.078933
H	 1.1760028759	 3.0134130957	 0.2183291798	 0.088292
H	 2.0254082047	 1.5050044217	 0.6553725006	 0.134066
84.6575	133.7349	213.9036	238.9156	267.3554	333.9188	391.813	418.7766	490.9362	536.0376	558.7942	612.5604	773.7136	825.9987	888.6345	904.5485	933.6561	958.911	1003.5559	1039.2316	1072.1376	1104.1465	1127.3104	1181.8279	1193.5345	1224.2708	1248.1447	1282.3746	1311.8392	1328.0102	1348.1204	1382.4794	1386.3023	1407.8467	1446.2503	1454.0528	1474.0741	1489.3676	1498.8336	1516.0979	1815.6422	2952.1512	2989.4078	3000.1351	3014.8388	3042.1132	3065.5749	3078.0142	3084.1415	3095.0314	3112.8675
O=C1CCCOCOC1	O=C1CCCOCOC1	
InChI=1S/C6H10O3/c7-6-2-1-3-8-5-9-4-6/h1-5H2	InChI=1S/C6H10O3/c7-6-2-1-3-8-5-9-4-6/h1-5H2
