21
gdb 110944	2.53962	1.17224	0.9853	1.3643	79.29	-0.2451	0.0761	0.3211	1306.2444	0.181845	-424.174556	-424.165103	-424.164159	-424.209356	34.801	
C	-0.172034043	 1.3877668141	 0.1618251404	-0.238548
O	 0.3453088975	 0.1078654565	-0.125999617	-0.240111
C	 0.7510353142	-0.5960284362	 1.0241560103	 0.14587
C	-0.3268022035	-1.266743244	 1.9494732406	-0.286606
C	 0.3910632964	-2.604223233	 1.742105717	-0.057174
C	 0.4221890148	-2.9999160656	 0.2955596506	 0.015011
C	-0.6927409925	-2.7915245472	-0.6989797287	-0.118777
O	-1.658879026	-3.8159440279	-0.4757106401	-0.424901
C	 1.394757188	-1.9507361532	 0.7681015049	-0.139675
H	 0.5699544514	 2.0171349319	 0.6784606559	 0.10405
H	-0.431039257	 1.8578322093	-0.7899574153	 0.125846
H	-1.0748522009	 1.338092093	 0.7890864954	 0.108295
H	 1.4170792304	 0.0396547855	 1.6269055523	 0.070702
H	-0.2847817313	-0.899762582	 2.9770408443	 0.100257
H	-1.3627586869	-1.2212268861	 1.6013503199	 0.106654
H	 0.5996328518	-3.3186164841	 2.5283568972	 0.087172
H	 0.9151131884	-3.9602844105	 0.1541097629	 0.091184
H	-1.1301344845	-1.7925597484	-0.5980664885	 0.100719
H	-0.2755806308	-2.8555804874	-1.7166807038	 0.084075
H	-2.3426512356	-3.7259231812	-1.1459604511	 0.283146
H	 2.4641172891	-2.1019542636	 0.6797851826	 0.082813
54.1696	89.7322	132.6324	172.4969	204.3039	252.6578	274.6373	295.9461	420.0614	446.7924	495.6084	584.58	710.4727	763.5549	818.8407	842.3619	907.1659	960.8372	974.4948	987.4239	1034.1505	1047.6546	1059.7932	1066.6478	1075.3299	1110.2493	1134.9055	1172.4944	1184.2377	1189.939	1221.4006	1242.2151	1251.4362	1276.5796	1279.7308	1318.7047	1347.5045	1392.2345	1426.086	1478.3616	1482.746	1486.8974	1489.1461	1508.9808	1528.4483	2972.2168	2976.8408	2985.864	3020.9164	3056.1896	3063.551	3111.6678	3113.885	3128.4201	3176.1774	3193.772	3826.5167
COC1CC2C(CO)C12	CO[C@H]1C[C@H]2[C@@H](CO)[C@@H]12	
InChI=1S/C7H12O2/c1-9-6-2-4-5(3-8)7(4)6/h4-8H,2-3H2,1H3	InChI=1S/C7H12O2/c1-9-6-2-4-5(3-8)7(4)6/h4-8H,2-3H2,1H3/t4-,5+,6-,7-/m0/s1
