19
gdb 70911	2.73529	1.69082	1.2937	2.4062	74.51	-0.2266	0.068	0.2946	1028.6594	0.159206	-422.997387	-422.98949	-422.988545	-423.029126	31.896	
C	-0.0478054494	 1.5083291201	-0.01561859	-0.503268
C	 0.0315015867	 0.0089553536	-0.0280564725	 0.300842
C	 0.8923660812	-0.8253245924	-0.9853487199	-0.344185
C	-0.0804692989	-2.0270283039	-0.7669861204	 0.378016
O	-0.4505837943	-2.8230281596	-1.8490514487	-0.490122
C	 0.4097950202	-2.8824534441	 0.4022586057	-0.098492
O	 0.5063182765	-1.9652712387	 1.493107486	-0.269935
C	-0.3093645182	-0.8546319864	 1.1719137142	 0.07682
C	-1.0895208179	-1.0450592709	-0.0815902397	-0.271355
H	 0.9040950424	 1.9506291005	 0.3013685046	 0.125395
H	-0.2835425005	 1.904454449	-1.0105073921	 0.114857
H	-0.822621961	 1.8605826971	 0.6736437938	 0.119281
H	 0.8093588525	-0.4468173806	-2.0108339542	 0.087407
H	 1.9499888107	-0.9753101591	-0.7401817083	 0.099322
H	-0.7097465239	-2.2480871137	-2.5761759638	 0.281012
H	-0.3092507727	-3.685624455	 0.6207859681	 0.097881
H	 1.3959770773	-3.3211134372	 0.2216867579	 0.109888
H	-0.7341980061	-0.3722710522	 2.0449575287	 0.09921
H	-2.1625792845	-0.9805362265	-0.2143409892	 0.087426
183.5082	199.9135	246.8216	262.2691	275.8922	327.9006	377.303	439.9621	476.6595	556.5182	603.3879	708.0932	718.2751	773.3333	841.0158	887.5538	914.2652	934.0774	978.4953	991.3628	1003.1324	1026.2806	1072.1192	1093.0691	1104.8988	1116.2353	1158.462	1167.5504	1204.6916	1217.6085	1273.3083	1285.644	1303.6679	1357.3957	1405.8913	1414.698	1432.2272	1484.5009	1489.7524	1499.2929	1516.582	2998.5369	3019.0475	3025.6326	3076.5917	3079.0232	3083.1714	3092.8262	3178.3801	3190.0552	3816.6542
CC12CC3(O)COC1C23	C[C@@]12C[C@@]3(O)CO[C@@H]1[C@@H]23	
InChI=1S/C7H10O2/c1-6-2-7(8)3-9-5(6)4(6)7/h4-5,8H,2-3H2,1H3	InChI=1S/C7H10O2/c1-6-2-7(8)3-9-5(6)4(6)7/h4-5,8H,2-3H2,1H3/t4-,5+,6-,7+/m0/s1
