23
gdb 69764	2.8674	1.57794	1.40703	0.1487	88.02	-0.2458	0.0858	0.3316	1065.5713	0.208995	-351.147658	-351.140059	-351.139115	-351.178972	32.601	
C	 0.0778676355	 1.5035018058	-0.0108794172	-0.468639
C	-0.0149677318	-0.0093950367	 0.0221192638	 0.371533
C	-0.886876677	-0.62252796	 1.0991553235	-0.355294
C	 0.6145759524	-0.7660102587	 1.1747539258	-0.048377
C	 1.3306346163	-2.0569185334	 0.7957976723	-0.027316
C	 2.2501520431	-1.7404417261	-0.4254748882	-0.220166
C	 0.9802484253	-1.970764335	-1.2997904539	 0.002613
C	 0.4997292087	-2.9336414145	-0.1822560075	-0.23378
C	 0.116202766	-0.6970572	-1.3476800574	-0.288567
H	 1.0297114396	 1.8365926134	-0.4418917088	 0.111056
H	-0.7275652382	 1.9376083815	-0.6164353115	 0.112276
H	 0.0003813309	 1.9297074806	 0.9948442961	 0.108816
H	-1.3597157186	 0.0619689607	 1.7966831901	 0.099829
H	-1.4932199409	-1.4898035328	 0.8656968121	 0.107583
H	 1.1248661097	-0.1761367923	 1.9326912398	 0.073944
H	 1.7666047832	-2.5488935421	 1.668764817	 0.05592
H	 2.7309425732	-0.7581213814	-0.4566328555	 0.086371
H	 2.9978937201	-2.5203188025	-0.5942095957	 0.090357
H	 1.117428278	-2.3808208173	-2.3037812658	 0.053907
H	 0.9559064446	-3.9217837152	-0.2897153837	 0.092907
H	-0.5723569325	-3.0633784758	-0.0171818382	 0.089355
H	-0.8717720446	-0.9293735678	-1.7675872935	 0.092985
H	 0.585256667	 0.0093817495	-2.0440525136	 0.092688
164.4564	225.3266	243.9811	335.5213	362.1075	404.4932	428.1085	454.6167	512.2068	556.9623	694.1245	764.1008	821.7802	833.5242	858.2452	876.1579	896.5523	911.1398	925.8277	941.6952	969.8623	991.9019	1007.4377	1054.3159	1061.4714	1072.9107	1088.8263	1108.9771	1120.7607	1130.2945	1145.7266	1154.6402	1215.2521	1247.5851	1259.2437	1265.3011	1301.625	1307.1139	1336.1563	1349.709	1376.1013	1407.6663	1417.3186	1475.1953	1484.4215	1492.865	1498.7305	1503.6707	1522.4053	3008.3196	3015.6296	3044.9579	3046.2721	3054.3686	3067.7863	3072.3129	3073.7527	3093.0873	3103.4338	3105.235	3126.4365	3133.2626	3214.7237
CC12CC1C1CC(C1)C2	C[C@]12C[C@H]1[C@@H]1C[C@@H](C1)C2	
InChI=1S/C9H14/c1-9-4-6-2-7(3-6)8(9)5-9/h6-8H,2-5H2,1H3	InChI=1S/C9H14/c1-9-4-6-2-7(3-6)8(9)5-9/h6-8H,2-5H2,1H3/t6-,7+,8-,9-/m0/s1
