14
gdb 25390	2.95308	1.39383	0.9469	4.6684	77.49	-0.2355	-0.0946	0.1409	1139.4733	0.102861	-436.772972	-436.765819	-436.764875	-436.804851	26.902	
O	 0.0382459991	-0.0398409012	-0.001572594	-0.276893
C	 0.0065630709	 1.16961565	 0.0088254655	 0.105537
C	 1.2241431219	 2.0031161978	 0.0021917334	 0.321169
C	 1.188230005	 3.3682593617	 0.0142299232	-0.240805
C	 2.4257732816	 4.0727710361	 0.0061947463	-0.041547
C	 3.6091163197	 3.4006676529	-0.0129072441	-0.2366
C	 3.6807526866	 1.9409549676	-0.0260685356	 0.436175
O	 4.6962568694	 1.2713124858	-0.0433030758	-0.386405
N	 2.4126179721	 1.3393277396	-0.0169297339	-0.429134
H	-0.9442365312	 1.7384625218	 0.0241622819	 0.099694
H	 0.2367589929	 3.8842508581	 0.0293651826	 0.121311
H	 2.4189131318	 5.1582217632	 0.0154921876	 0.122247
H	 4.5617275654	 3.9165348867	-0.0193032406	 0.130358
H	 2.3790094247	 0.3252686201	-0.0252028065	 0.274895
124.8514	160.2773	184.3276	269.4206	427.6286	435.801	479.6222	547.9476	600.2066	652.9225	722.7646	756.7459	764.287	814.91	885.934	949.5872	1009.7245	1018.095	1029.1029	1073.791	1164.9269	1208.3148	1244.6255	1344.0767	1404.0945	1438.5274	1501.1018	1581.4363	1664.8106	1784.0301	1790.6926	2940.9914	3180.2605	3215.3012	3218.8446	3560.573
O=CC1=CC=CC(=O)N1	O=Cc1cccc(=O)[nH]1	
InChI=1S/C6H5NO2/c8-4-5-2-1-3-6(9)7-5/h1-4H,(H,7,9)	InChI=1S/C6H5NO2/c8-4-5-2-1-3-6(9)7-5/h1-4H,(H,7,9)
