20
gdb 110452	3.03915	1.33018	1.10367	1.9132	78.61	-0.2025	0.0764	0.2789	1160.9334	0.170944	-403.063435	-403.055081	-403.054137	-403.096242	32.473	
C	 0.0344021	 1.5458599493	 0.0751580246	-0.330816
N	 0.1257432823	 0.0930597805	 0.0227570423	-0.082239
C	 0.7704247591	-0.5466396734	-1.1171155546	-0.035535
C	 2.300352205	-0.6582173845	-0.8525391508	-0.108337
C	 1.3067771998	-1.6639114787	-0.2920966732	-0.109063
C	 1.1161052319	-0.6208332954	 0.8788040835	-0.018702
C	 2.5326573538	-0.0536149309	 0.5312133569	-0.006736
C	 3.636991395	-0.7360165585	 1.3183600045	-0.096672
O	 3.5141544404	-0.3226545389	 2.6751077695	-0.426135
H	 0.9644250309	 2.080906482	-0.1713345236	 0.102688
H	-0.7374768486	 1.8746660867	-0.6292420345	 0.116644
H	-0.280623862	 1.8477864058	 1.0795602362	 0.120846
H	 0.3491742661	-0.5558796246	-2.1154672375	 0.093256
H	 3.0130712604	-0.8020811252	-1.6559035514	 0.080179
H	 1.2054604121	-2.7361420632	-0.3657794558	 0.09365
H	 0.8378547054	-0.8112588951	 1.9133692563	 0.084186
H	 2.6615042336	 1.030971895	 0.6143729136	 0.068762
H	 3.5436904839	-1.8295560478	 1.2225133148	 0.085374
H	 4.6196719321	-0.4526872524	 0.9081254289	 0.082676
H	 4.2228466889	-0.7321356805	 3.1795460703	 0.285972
104.7225	140.2579	184.0975	222.5358	251.313	271.0039	333.7449	426.064	548.7052	597.8792	671.5546	769.3844	788.2596	793.4524	815.357	875.3474	879.3643	957.5986	968.2118	1003.326	1023.3431	1035.2005	1064.6113	1070.6972	1084.8629	1107.1875	1134.672	1161.8715	1170.5167	1194.3213	1203.3679	1219.9852	1245.9566	1252.8906	1285.2235	1303.8089	1359.2365	1376.9922	1445.1157	1457.0916	1484.5752	1508.9229	1521.3164	2964.1807	2983.471	2992.764	3050.3638	3062.9664	3097.8871	3140.3277	3180.7704	3188.1257	3228.9189	3831.8103
CN1C2C3C2C1C3CO	CN1[C@H]2[C@@H]3[C@H]2[C@H]1[C@H]3CO	
InChI=1S/C7H11NO/c1-8-6-3(2-9)4-5(6)7(4)8/h3-7,9H,2H2,1H3	InChI=1S/C7H11NO/c1-8-6-3(2-9)4-5(6)7(4)8/h3-7,9H,2H2,1H3/t3-,4-,5-,6+,7-/m0/s1
