21
gdb 94858	3.2965	1.22736	1.13319	1.2642	77.91	-0.2422	0.0696	0.3118	1177.5028	0.183473	-424.222836	-424.214424	-424.21348	-424.256487	32.916	
O	-0.6690720875	 1.4080125537	 0.3108666232	-0.444257
C	-0.1422774938	 0.1441044663	-0.0624465277	 0.136739
C	 0.8006352792	-0.407559118	 1.006173081	-0.124562
O	-0.086140948	-0.8912833053	 2.0122063158	-0.312237
C	-1.2483601899	-1.4486206138	 1.3901231545	 0.438499
C	-1.4809909995	-2.9733876771	 1.5924349704	-0.283807
C	-2.969669866	-2.6612914328	 1.9065323428	-0.215052
C	-2.5596541585	-1.1881631226	 2.1757326503	-0.280284
C	-1.2129607935	-0.962065276	-0.0798026431	-0.324644
H	-0.9231336632	 1.3430834554	 1.2391155221	 0.287803
H	 0.3372893939	 0.2870666875	-1.0338260528	 0.084481
H	 1.4352118572	-1.2137492757	 0.605574723	 0.090001
H	 1.4387574649	 0.3611748966	 1.4495647932	 0.112962
H	-1.2561780988	-3.6405602104	 0.7557484316	 0.090765
H	-0.9439551254	-3.3167982488	 2.4805883782	 0.110434
H	-3.6049827057	-2.7563994655	 1.0220061086	 0.105056
H	-3.4341812292	-3.2085732564	 2.728456018	 0.102602
H	-2.3285233155	-1.0215322276	 3.2313834554	 0.111149
H	-3.2154865251	-0.3885606446	 1.8203349422	 0.095953
H	-2.1731687245	-0.5793253573	-0.4310091118	 0.115945
H	-0.902562851	-1.7727825977	-0.7477140149	 0.102454
33.598	123.4708	146.4711	271.8536	361.0364	374.4044	395.6905	419.8032	428.9135	488.4156	682.2181	750.1673	792.9376	801.0851	837.3298	871.1937	878.5102	919.019	927.5239	954.6297	961.5934	994.4648	1030.9546	1036.2647	1077.311	1109.1259	1144.4847	1182.6372	1190.1308	1221.2289	1229.0978	1246.0886	1257.5903	1270.4782	1280.4943	1293.0105	1311.9823	1339.4475	1374.0104	1432.9089	1469.2788	1475.9022	1486.7924	1506.0875	1511.234	2981.8279	3047.5524	3051.6272	3056.3389	3068.0972	3091.6439	3098.7275	3104.7761	3109.8719	3116.2335	3127.3725	3790.3287
OC1COC2(CCC2)C1	O[C@H]1COC2(CCC2)C1	
InChI=1S/C7H12O2/c8-6-4-7(9-5-6)2-1-3-7/h6,8H,1-5H2	InChI=1S/C7H12O2/c8-6-4-7(9-5-6)2-1-3-7/h6,8H,1-5H2/t6-/m1/s1
