19
gdb 105379	3.14895	0.97988	0.83262	0.8677	70.99	-0.2669	0.0772	0.3442	1388.6116	0.157638	-460.110019	-460.100879	-460.099935	-460.144844	33.395	
O	 0.3095303101	 1.2410789432	 0.1351482441	-0.416719
C	 0.0676582585	-0.1137486425	 0.4365302588	-0.130547
C	-1.3704902859	-0.5195653654	 0.1315864844	 0.366217
C	-1.7049129625	-1.9959042693	 0.232169379	-0.319603
C	-1.0093975623	-2.8334445632	-0.8206399734	 0.100287
C	 0.1826421883	-3.6440301666	-0.5362735793	-0.174945
O	-1.105497911	-4.2481484438	-0.656336064	-0.238025
C	-2.4282688623	 0.4900477375	 0.2553070332	-0.228834
O	-1.8939602034	 0.1446866384	-1.0364062493	-0.289706
H	-0.0871644949	 1.3866495471	-0.7344896958	 0.292502
H	 0.7497291548	-0.7772164123	-0.1191353351	 0.097669
H	 0.2717908342	-0.2553124101	 1.5041999412	 0.116224
H	-1.4433133507	-2.3719234682	 1.2285385452	 0.111956
H	-2.7866022251	-2.1228198829	 0.1138241055	 0.119744
H	-1.1606473943	-2.4919128633	-1.845275872	 0.111045
H	 0.8862854773	-3.8764564856	-1.3343511276	 0.119649
H	 0.6056854926	-3.6431678393	 0.4680673737	 0.112958
H	-3.4554131298	 0.1732688338	 0.4259466128	 0.11814
H	-2.1709898034	 1.4875101225	 0.6015610585	 0.131987
50.6276	77.829	107.2771	174.2763	246.8159	308.1534	338.8502	360.2739	396.5898	463.3868	489.0336	606.2008	721.4295	825.1356	829.2642	868.6655	885.8044	916.4614	941.0523	1000.9518	1045.9269	1079.2367	1100.2006	1123.83	1134.4509	1160.301	1175.3295	1183.2068	1194.2322	1234.7275	1274.7403	1289.6359	1320.0642	1368.8016	1425.2501	1438.4855	1442.05	1471.6485	1505.2764	1518.6108	1531.4671	2979.0386	3036.6454	3062.009	3079.2736	3080.8139	3099.3152	3111.1693	3166.8344	3195.6007	3758.8004
OCC1(CC2CO2)CO1	OC[C@@]1(C[C@H]2CO2)CO1	
InChI=1S/C6H10O3/c7-3-6(4-9-6)1-5-2-8-5/h5,7H,1-4H2	InChI=1S/C6H10O3/c7-3-6(4-9-6)1-5-2-8-5/h5,7H,1-4H2/t5-,6-/m0/s1
