17
gdb 36550	3.84765	0.76103	0.66324	2.0692	76.8	-0.2653	0.0022	0.2675	1652.767	0.134481	-417.993253	-417.984015	-417.98307	-418.028953	32.173	
N	 0.6679170504	-0.5644847803	-1.1536350629	-0.314194
C	 0.478280851	 0.3000009728	-0.4100124314	 0.230783
C	 0.2762176464	 1.4399608049	 0.5048465272	-0.239505
N	 0.9976796893	 2.6593528365	 0.2029196108	-0.240664
C	 1.7620412012	 2.7024149867	-0.8003074931	 0.139282
O	 2.4300960357	 3.8362656841	-1.0739025431	-0.20703
C	 3.2259635557	 3.805893164	-2.2409279568	 0.11562
C	 4.4289038463	 4.687198764	-2.2207391731	-0.280469
C	 4.5920443351	 3.1817975248	-2.1710467919	-0.284611
H	-0.797637551	 1.6626805364	 0.5357035741	 0.163576
H	 0.5420209193	 1.1121769752	 1.5176198605	 0.16311
H	 1.9469046672	 1.878057579	-1.4996434697	 0.117633
H	 2.646778589	 3.7191836654	-3.1563001832	 0.112047
H	 4.6908365495	 5.2170650005	-3.1288824686	 0.125586
H	 4.6076417884	 5.2345427618	-1.3027313527	 0.138787
H	 4.8865337292	 2.7482256901	-1.2221766093	 0.132572
H	 4.9634790272	 2.6610212341	-3.0462496369	 0.127478
31.8264	71.8455	94.989	158.212	178.8787	269.4463	321.0217	366.3188	377.1324	490.9947	499.6846	663.4551	761.7453	822.1545	850.392	901.3939	965.3932	981.9873	982.9818	1030.2194	1055.9486	1060.2153	1078.85	1126.2053	1187.4431	1193.0401	1223.7272	1267.9231	1272.4965	1349.2606	1383.8823	1426.1032	1455.6503	1466.1454	1496.5091	1770.1521	2350.0318	3032.5302	3054.9225	3056.8944	3140.2065	3143.3141	3149.6799	3227.3726	3241.8064
N#CCN=COC1CC1	N#CCN=COC1CC1	
InChI=1S/C6H8N2O/c7-3-4-8-5-9-6-1-2-6/h5-6H,1-2,4H2	InChI=1S/C6H8N2O/c7-3-4-8-5-9-6-1-2-6/h5-6H,1-2,4H2
