17
gdb 36253	5.36741	0.95647	0.92373	1.5066	77.1	-0.235	0.0474	0.2824	1266.8072	0.134638	-384.553758	-384.546161	-384.545217	-384.586299	29.664	
C	-0.0092417386	-1.2098113182	-0.2532908664	-0.450212
C	-0.0390659087	-0.0320349925	-0.0148707721	 0.305653
C	-0.035314504	 1.3989635453	 0.2686388348	-0.381128
C	 1.3649141325	 2.0157712508	 0.1601930758	-0.026631
C	 1.9672042705	 2.2480194736	-1.2432293519	-0.089796
C	 1.1779746531	 3.583670435	-1.4482489432	 0.086445
O	 2.3545698039	 4.3698375643	-1.7951036446	-0.327258
C	 2.8049901292	 3.4656761787	-0.7439818813	 0.084782
C	 1.4865135864	 3.5550882457	 0.0857866216	-0.115932
H	 0.00299744	-2.2508669662	-0.4613562446	 0.196587
H	-0.7226986676	 1.9095856246	-0.4184124751	 0.127992
H	-0.4314652615	 1.5723001434	 1.2780282485	 0.131809
H	 2.0451677876	 1.5343780808	 0.8703932548	 0.083354
H	 2.2497926402	 1.5294794773	-2.0114925518	 0.091564
H	 0.2484931142	 3.7829184511	-1.9798870134	 0.099477
H	 3.8420987306	 3.5132414881	-0.4137080916	 0.098658
H	 1.2272711622	 4.3183954781	 0.8197991607	 0.084636
59.3861	114.8361	207.0271	281.1756	346.5322	432.6843	535.2831	575.4156	621.4495	638.9257	743.003	759.8913	798.3794	822.5335	840.6612	879.0604	896.0525	931.3833	958.3785	983.8468	1007.5002	1031.0115	1074.8215	1105.3563	1133.4678	1149.2679	1162.5861	1172.9322	1182.6419	1214.078	1247.9012	1280.7058	1327.6994	1336.9355	1405.7253	1469.8518	2238.2536	3015.923	3041.6925	3061.1187	3114.2505	3125.0056	3126.1763	3141.4899	3507.1185
C#CCC1C2C3OC2C13	C#CC[C@H]1[C@H]2[C@@H]3O[C@H]2[C@H]13	
InChI=1S/C8H8O/c1-2-3-4-5-7-6(4)8(5)9-7/h1,4-8H,3H2	InChI=1S/C8H8O/c1-2-3-4-5-7-6(4)8(5)9-7/h1,4-8H,3H2/t4-,5-,6+,7-,8+
