13
gdb 130363	5.76862	0.9809	0.84084	8.1134	76.24	-0.2367	-0.0754	0.1613	1262.0567	0.089519	-445.065904	-445.058116	-445.057172	-445.098855	27.458	
N	 0.0466196913	 1.3348729002	 0.0795063237	-0.480755
C	-0.021923447	 0.0030291749	-0.0446686998	 0.154691
N	-1.1354246945	-0.6327740462	 0.1257210908	-0.354704
C	-1.1025830339	-2.0058122507	 0.0590077043	 0.422869
C	-2.3012454678	-2.7271012941	-0.0793920209	-0.012104
N	-2.2993908612	-4.0414261839	-0.1228855446	-0.169739
N	-1.1239093674	-4.6845176362	-0.0458892352	-0.076311
N	-0.001595454	-4.0231376669	 0.0866062997	-0.0687
N	 0.0382299388	-2.6974797459	 0.1561897403	-0.269564
H	 0.902866396	 1.8320085902	-0.0869880431	 0.28245
H	-0.7809122191	 1.8534015773	 0.3293011664	 0.280145
H	 0.9170295613	-0.4934844949	-0.3004634289	 0.15257
H	-3.2577768625	-2.217110244	-0.1495973928	 0.139151
69.2548	114.0729	159.7964	219.338	291.7505	342.8052	407.6769	454.1366	575.5279	656.8234	665.2017	707.2396	837.9021	865.626	942.1098	975.4562	1043.747	1066.3716	1083.1898	1114.3192	1230.3475	1302.2633	1333.8495	1357.7431	1437.2203	1490.1726	1587.1142	1621.4113	1703.1492	3114.1436	3175.8877	3603.6289	3745.0898
NC=NC1=CN=NN=N1	NC=Nc1cnnnn1	
InChI=1S/C3H4N6/c4-2-5-3-1-6-8-9-7-3/h1-2H,(H2,4,5,7,8)	InChI=1S/C3H4N6/c4-2-5-3-1-6-8-9-7-3/h1-2H,(H2,4,5,7,8)
