21
gdb 112820	2.35234	1.20665	0.95064	3.5688	75.2	-0.2452	0.0658	0.311	1328.25	0.180637	-461.331013	-461.320872	-461.319928	-461.366738	36.224	
C	-0.1967989686	 1.5725830062	-0.1937448479	-0.243072
O	-0.1370219353	 0.24977309	 0.2993860624	-0.2354
C	-1.3371959959	-0.4626818305	 0.1705208117	 0.037656
C	-1.5523707009	-1.3154813331	-1.1192903999	 0.125818
C	-0.4687022752	-1.3094987779	-2.1782754414	-0.406273
O	-1.5550336486	-2.5367652656	-0.3313146536	-0.328394
C	-1.3277973151	-1.8156097252	 0.9083491371	 0.077538
C	-0.0347072883	-2.2895692844	 1.5564983468	-0.065008
O	-0.0958163612	-3.6906537596	 1.7529753308	-0.426377
H	 0.7718976036	 2.034994441	 0.0082258935	 0.134047
H	-0.3849333925	 1.6045994818	-1.2761107088	 0.1125
H	-0.9830310816	 2.1526976073	 0.312697946	 0.111848
H	-2.1914089949	 0.1805894711	 0.4195740659	 0.074031
H	-2.5393755962	-1.168088754	-1.5772791241	 0.074863
H	 0.5256322484	-1.3090065256	-1.7262571365	 0.133057
H	-0.5699678597	-2.1996963374	-2.8067317668	 0.128214
H	-0.5596773885	-0.4289894017	-2.823288552	 0.114846
H	-2.1668124055	-1.9691509911	 1.5980937237	 0.08241
H	 0.8241366685	-2.0016996268	 0.9356059649	 0.097906
H	 0.0923581718	-1.8266001393	 2.5403765791	 0.108822
H	-0.3447434945	-4.0614864851	 0.896966309	 0.290967
46.8571	95.9375	117.0226	137.9433	171.2685	208.8494	247.5205	273.9326	336.963	389.8377	466.3425	474.4807	507.4595	594.6346	779.5757	829.4472	856.1816	894.7142	949.9017	998.0626	1037.9945	1072.4633	1083.5189	1102.7411	1125.9734	1148.6088	1175.7961	1183.1126	1214.0776	1233.3997	1259.6208	1279.8096	1320.0818	1340.8498	1371.9755	1391.2386	1406.2294	1412.1265	1435.4511	1480.3403	1483.2678	1488.8996	1492.9849	1502.7545	1508.6493	2984.4562	3005.1986	3014.8959	3019.4995	3036.2844	3036.7991	3041.7276	3084.1235	3106.9003	3121.8964	3131.3708	3778.6099
COC1C(C)OC1CO	CO[C@H]1[C@@H](C)O[C@H]1CO	
InChI=1S/C6H12O3/c1-4-6(8-2)5(3-7)9-4/h4-7H,3H2,1-2H3	InChI=1S/C6H12O3/c1-4-6(8-2)5(3-7)9-4/h4-7H,3H2,1-2H3/t4-,5+,6+/m1/s1
