19
gdb 69431	2.82323	1.28701	1.21698	3.2159	79.25	-0.2456	0.0283	0.2739	1128.4288	0.161048	-382.08001	-382.07173	-382.070786	-382.112704	32.047	
C	 0.0865893381	 1.5184532434	 0.2054315534	-0.48918
C	 0.112389484	 0.0173476538	 0.0609020356	 0.363452
C	-0.941398327	-0.8458019862	 0.7141029874	-0.350359
C	 0.4886283781	-0.9162503529	 1.1925830531	-0.059374
C	 1.3380740406	-2.0316111882	 0.5895762469	-0.138006
N	 0.9813074195	-1.9831812867	-0.8329265738	-0.312911
C	 0.7430435094	-0.5768740986	-1.1921741971	-0.230792
C	 2.7748341035	-1.7790464	 0.8462055325	 0.256429
N	 3.9056544436	-1.5931617879	 1.0020897965	-0.328133
H	 1.0907906128	 1.9449798509	 0.1032554173	 0.126275
H	-0.5519534358	 1.9800027853	-0.5566828467	 0.122256
H	-0.3046399819	 1.8126552656	 1.1840321557	 0.119757
H	-1.6432987326	-0.3462771826	 1.3735534872	 0.112677
H	-1.3478825554	-1.6886428741	 0.1661292598	 0.129576
H	 0.7534899668	-0.5501352258	 2.1766052499	 0.104805
H	 1.097848548	-3.0210368092	 0.9978216841	 0.124911
H	 1.6645433359	-2.4390150063	-1.4246535999	 0.237453
H	 0.090345777	-0.5303250609	-2.0718084175	 0.108706
H	 1.6656357455	-0.0191930097	-1.4241108746	 0.102456
89.6395	141.6549	204.2653	236.9556	293.8862	319.8626	377.129	414.5108	469.9472	537.8821	582.6553	661.9694	742.8938	799.3553	824.9433	878.7217	930.8615	943.6166	954.5874	990.0726	1038.5263	1050.1915	1060.9946	1075.8876	1091.5276	1133.1909	1142.5005	1216.2272	1231.7546	1275.3779	1302.6413	1341.6171	1355.9533	1394.3963	1423.8746	1447.6882	1486.1978	1489.0271	1500.8928	1517.9607	2341.9287	2965.44	3026.0261	3032.8566	3049.7524	3086.2688	3102.8876	3133.5465	3191.7266	3222.5305	3567.211
CC12CC1C(NC2)C#N	C[C@]12C[C@H]1[C@@H](NC2)C#N	
InChI=1S/C7H10N2/c1-7-2-5(7)6(3-8)9-4-7/h5-6,9H,2,4H2,1H3	InChI=1S/C7H10N2/c1-7-2-5(7)6(3-8)9-4-7/h5-6,9H,2,4H2,1H3/t5-,6-,7+/m0/s1
