24
gdb 122528	3.08753	0.6944	0.60471	0.585	88.09	-0.2231	0.0858	0.3089	1943.0674	0.215459	-405.507503	-405.496574	-405.49563	-405.54461	38.715	
C	-0.1809648077	 1.5630380919	 0.3821757307	-0.371679
C	-0.081735745	 0.0616150762	 0.6447884235	-0.118537
N	-1.3226562332	-0.5963156159	 0.2490463192	-0.077174
C	-1.4295716061	-1.0578841415	-1.1308084661	-0.26837
C	-1.3586225755	-2.039458221	-0.0111365202	 0.013462
C	-0.1709417491	-2.9667190487	 0.15038959	-0.237176
C	 0.0145699984	-3.4373941821	 1.5899769723	-0.045671
O	 1.086460907	-4.3535568312	 1.6245302964	-0.230506
C	 1.346146317	-4.8439326525	 2.9169369431	-0.228302
H	 0.7246446234	 2.0761219542	 0.7201939789	 0.109419
H	-0.305375797	 1.7644286175	-0.6869361004	 0.117552
H	-1.0414974951	 1.9871384577	 0.9069698853	 0.126003
H	 0.8047789327	-0.3409633242	 0.1275248689	 0.083731
H	 0.0645783077	-0.1171366109	 1.7170510919	 0.101359
H	-2.3675336114	-0.8524750548	-1.6406996333	 0.111112
H	-0.5443878423	-0.9745642079	-1.7626671146	 0.10324
H	-2.2983340033	-2.4871449242	 0.3151225597	 0.086233
H	-0.325455397	-3.850246418	-0.4810017926	 0.110914
H	 0.7558147152	-2.4994647424	-0.1949057018	 0.108549
H	 0.2187096222	-2.5815558692	 2.2558831248	 0.090131
H	-0.9119172935	-3.9132069747	 1.9578063309	 0.084481
H	 2.1898134715	-5.5346457722	 2.843151215	 0.126012
H	 1.6099072773	-4.0348575685	 3.6170294633	 0.102494
H	 0.4802179538	-5.3842047675	 3.3323500252	 0.102725
52.7124	77.3706	85.779	113.2127	130.2584	196.995	227.9222	230.8455	273.0526	323.5416	379.7179	420.4064	493.8518	549.94	736.4583	787.7835	816.8904	828.1298	918.7028	964.8631	985.4472	1030.362	1050.4256	1069.3607	1100.3407	1104.8815	1121.0921	1149.5899	1164.1355	1175.1415	1195.5497	1201.2165	1226.8929	1241.9995	1302.6899	1310.0983	1312.5322	1339.4357	1386.63	1408.9032	1420.3188	1432.3498	1480.2083	1484.2195	1485.4699	1488.6804	1492.4027	1504.6162	1505.8957	1520.1198	1530.3888	2943.4734	2965.117	2967.6821	2972.6247	3008.8039	3038.4889	3039.4393	3046.2111	3078.2261	3081.6148	3098.3571	3107.4788	3112.0923	3119.6932	3166.4493
CCN1CC1CCOC	CCN1C[C@H]1CCOC	
InChI=1S/C7H15NO/c1-3-8-6-7(8)4-5-9-2/h7H,3-6H2,1-2H3	InChI=1S/C7H15NO/c1-3-8-6-7(8)4-5-9-2/h7H,3-6H2,1-2H3/t7-,8?/m1/s1
