19
gdb 50074	3.38705	1.0318	0.90456	4.8634	77.33	-0.2349	-0.0093	0.2256	1322.2302	0.158771	-423.002453	-422.993737	-422.992793	-423.036798	31.586	
O	-0.1715366034	 0.186122267	-0.6435088759	-0.277345
C	-0.0663928917	 1.2612201213	-0.1004747026	 0.141563
C	 1.22643107	 1.9780920758	 0.0351517789	-0.117623
C	 1.2419712307	 3.5055735438	-0.012240227	-0.30557
C	 1.569628772	 2.8151183412	 1.2665997289	-0.030457
C	 0.6750957306	 2.9249744634	 2.4779195656	 0.118041
C	 0.8100670754	 4.2072395937	 3.3366021477	-0.288055
C	-0.6978264298	 4.372648813	 3.0713067255	-0.062707
O	-0.7047727342	 3.2411399585	 2.171082349	-0.286609
H	-0.9447055458	 1.7850279042	 0.3269822831	 0.104921
H	 2.0533537172	 1.4560805812	-0.4352145795	 0.104011
H	 2.0282230998	 3.9769784373	-0.5899952633	 0.12303
H	 0.2717947724	 3.9876815907	-0.0669545931	 0.137448
H	 2.6201998656	 2.7602205389	 1.5438054369	 0.1028
H	 0.7321591611	 2.001182742	 3.0707450159	 0.086272
H	 1.1106058636	 4.0638977258	 4.3749275502	 0.114671
H	 1.4339050639	 4.9763556545	 2.8777387759	 0.11622
H	-1.3451023465	 4.1980005377	 3.939227006	 0.109013
H	-1.0129896108	 5.29403146	 2.5699505378	 0.110375
70.3275	78.7407	97.9497	171.493	219.6899	263.3492	323.7069	406.1024	533.0909	585.3642	702.0715	796.3855	832.4062	847.2323	866.3779	895.3963	940.395	957.9895	995.5459	1022.0025	1058.5382	1061.2245	1082.5711	1108.4547	1125.8638	1139.4789	1169.201	1187.1293	1217.0422	1220.4906	1258.3232	1283.9102	1339.6277	1353.7014	1379.1734	1406.7593	1447.7764	1479.8409	1489.8203	1530.6961	1806.184	2944.6103	3001.3089	3024.9337	3069.4026	3082.7959	3135.2496	3139.7974	3140.7462	3170.7148	3231.2169
O=CC1CC1C1CCO1	O=C[C@H]1C[C@H]1[C@H]1CCO1	
InChI=1S/C7H10O2/c8-4-5-3-6(5)7-1-2-9-7/h4-7H,1-3H2	InChI=1S/C7H10O2/c8-4-5-3-6(5)7-1-2-9-7/h4-7H,1-3H2/t5-,6-,7-/m1/s1
