17
gdb 39526	3.06682	2.03163	1.60067	2.0038	71.25	-0.2319	-0.0092	0.2227	862.7044	0.139324	-417.956506	-417.950199	-417.949254	-417.98686	26.206	
C	-0.1363144917	 1.4135459412	 0.0344770553	-0.197973
N	 1.2147295025	 1.9574008197	 0.253278701	-0.2294
C	 2.0350877897	 1.0639290092	-0.1352527517	 0.30676
O	 3.2882995675	 0.9576349976	 0.3748191141	-0.266603
C	 3.219044327	-0.1815910927	 1.2997346752	-0.067422
C	 1.7627297061	-0.5247902582	 1.6909693167	-0.189896
N	 1.0131221828	-0.9417913387	 0.4771280141	-0.116117
C	 0.051381849	-0.076110652	-0.2753345839	-0.045769
C	 1.4573688542	-0.20090457	-0.7099723465	-0.146996
H	-0.7200157515	 1.6080916522	 0.9416209507	 0.123149
H	-0.6656264543	 1.8982597997	-0.7962748337	 0.122584
H	 3.6802339713	-1.04990153	 0.8143241767	 0.121772
H	 3.8112813861	 0.0958052553	 2.1748283235	 0.128941
H	 1.782901258	-1.3716401575	 2.3846180708	 0.115828
H	 1.3044177732	 0.3228919458	 2.2121251059	 0.132054
H	-0.7590325173	-0.6411287266	-0.7221766796	 0.106085
H	 1.8708870275	-0.7326681349	-1.5602347187	 0.103003
173.5754	279.6745	304.0387	421.9216	468.8483	497.6017	542.5339	635.7136	721.6575	768.2729	803.3317	836.4607	851.5853	882.2788	927.1823	954.9567	974.0437	988.5051	1021.193	1053.2334	1072.1822	1104.7636	1108.7774	1185.7169	1204.8741	1224.3662	1254.1414	1283.9883	1299.78	1314.9676	1354.6212	1375.1357	1403.4264	1478.8693	1498.0705	1501.6859	1679.6673	3026.5261	3036.215	3041.7575	3063.5911	3083.966	3109.7157	3161.9653	3180.6974
C1N=C2OCCN3C1C23	C1[N][C]2OCCN3[C@@H]1[C@@H]23	
InChI=1S/C6H8N2O/c1-2-9-6-5-4(3-7-6)8(1)5/h4-5H,1-3H2	InChI=1S/C6H8N2O/c1-2-9-6-5-4(3-7-6)8(1)5/h4-5H,1-3H2/t4-,5-,8?/m0/s1
