17
gdb 84900	2.85932	1.42234	1.07824	5.8486	74.75	-0.2438	-0.0046	0.2392	1111.8732	0.137395	-418.007352	-417.99906	-417.998116	-418.04016	31.088	
N	 0.0012842515	 1.4945174163	-0.1250329552	-0.501082
C	 0.009067554	 0.0292216953	-0.0539865747	-0.019614
C	 0.7625834197	-0.5372693684	 1.1323162	-0.093617
C	 0.1360463305	-1.0036941458	 2.210672152	-0.067149
C	-1.3627329251	-1.0041758654	 2.3172667596	-0.128524
O	-1.9865316245	-0.2243068897	 1.3071271537	-0.259898
C	-1.4388661137	-0.4964872007	 0.0246730445	-0.048104
C	-2.3214399128	 0.1043503181	-0.9836324789	 0.3075
N	-3.0203936107	 0.518147926	-1.8036725062	-0.322343
H	-0.3550232617	 1.861989402	 0.7532066198	 0.236219
H	 0.9500080922	 1.8429450567	-0.2227886276	 0.232682
H	 0.4512908724	-0.3401823797	-0.9869411839	 0.102227
H	 1.8481797118	-0.5206529145	 1.0815458333	 0.097079
H	 0.684904761	-1.4073278301	 3.0573523275	 0.103833
H	-1.7479042065	-2.0398852893	 2.2911088179	 0.111493
H	-1.6865147508	-0.5686266583	 3.2687758158	 0.131824
H	-1.4258920474	-1.5839590326	-0.1553901976	 0.117473
101.0225	145.9834	169.8917	225.9925	272.3564	283.4025	367.9596	435.339	486.0856	509.8507	563.4428	666.4597	738.9625	819.4127	844.2677	889.4918	919.2333	970.9214	993.5022	1018.775	1033.5566	1067.6593	1113.5962	1130.5636	1189.0667	1207.5788	1261.3915	1308.8608	1340.8921	1368.8634	1392.846	1402.9756	1415.0055	1484.7688	1653.0149	1716.0979	2374.0749	2944.6316	2975.9342	3042.9222	3067.1031	3153.0473	3175.8051	3492.3256	3574.2866
NC1C=CCOC1C#N	N[C@H]1C=CCO[C@H]1C#N	
InChI=1S/C6H8N2O/c7-4-6-5(8)2-1-3-9-6/h1-2,5-6H,3,8H2	InChI=1S/C6H8N2O/c7-4-6-5(8)2-1-3-9-6/h1-2,5-6H,3,8H2/t5-,6-/m0/s1
