18
gdb 55547	4.30251	0.83151	0.75655	3.3257	75.19	-0.2421	-0.0318	0.2103	1504.2636	0.146914	-439.133218	-439.124004	-439.12306	-439.168866	33.373	
N	 0.6690582462	 0.2241978906	-0.5373927657	-0.512647
C	-0.2323576531	 0.2142042985	 0.4782953457	 0.383824
O	-0.2080105399	 0.9760221599	 1.4247963366	-0.359704
C	-1.3816882391	-0.7967757343	 0.3276975576	-0.416272
C	-1.0744074679	-2.1654684628	-0.2671977109	 0.379339
O	-0.2032849374	-2.3373394306	-1.1047356781	-0.353024
C	-1.9207840291	-3.2934882698	 0.2009609453	-0.098246
C	-2.2133995395	-4.4117825509	-0.7929414898	-0.246733
C	-1.2552574231	-4.6636811364	 0.3142418808	-0.246362
H	 1.4809864088	 0.8092558857	-0.4186636186	 0.254834
H	 0.7107001332	-0.5816066637	-1.1486609061	 0.276462
H	-1.8516690959	-0.8909108663	 1.3080325364	 0.142903
H	-2.1334934437	-0.3394828603	-0.3325540615	 0.162843
H	-2.6890678703	-3.0549162911	 0.9262430446	 0.098506
H	-3.2004556882	-4.8569247885	-0.7482149563	 0.124631
H	-1.8043202634	-4.2694827524	-1.7863185884	 0.14158
H	-0.2000156898	-4.6903673449	 0.0689576016	 0.142058
H	-1.560671698	-5.2851006726	 1.1477871368	 0.126009
28.9352	60.1504	75.4406	170.3846	258.409	299.9033	320.7726	379.295	476.0455	523.8975	568.6761	619.8087	689.9273	718.3139	793.2542	825.4449	827.8923	858.9609	891.2485	932.8399	968.7826	1054.3368	1092.6255	1097.6119	1113.5257	1126.0992	1149.8902	1182.5057	1211.8091	1224.4234	1323.0143	1357.4335	1408.4597	1432.6332	1454.2102	1484.8518	1610.1502	1757.9927	1807.0492	3023.2707	3122.6036	3144.4111	3145.8291	3186.5847	3232.3764	3246.8321	3523.2216	3685.68
NC(=O)CC(=O)C1CC1	NC(=O)CC(=O)C1CC1	
InChI=1S/C6H9NO2/c7-6(9)3-5(8)4-1-2-4/h4H,1-3H2,(H2,7,9)	InChI=1S/C6H9NO2/c7-6(9)3-5(8)4-1-2-4/h4H,1-3H2,(H2,7,9)
