15
gdb 11258	5.42107	1.29194	1.14114	3.2623	66.76	-0.2744	-0.017	0.2575	1006.7952	0.11995	-362.682758	-362.675389	-362.674445	-362.714749	27.174	
O	-0.3236045537	 1.5469666521	-0.4868938872	-0.431096
C	 0.0803758776	 0.2740542796	 0.0113715986	 0.09638
C	-1.0948498956	-0.6907792583	 0.3196174536	-0.257448
C	-1.13509596	-1.7013662921	-0.8675942828	-0.188525
C	 0.2382435313	-1.5340927462	-1.5045597653	-0.062465
C	 0.8960999084	-0.4911982743	-1.0049717124	-0.112063
C	-1.4086372803	-3.0755385041	-0.4453198961	 0.264195
N	-1.6213068759	-4.1624135078	-0.1142414222	-0.322808
H	-0.6435445953	 1.4227644232	-1.3875370907	 0.27813
H	 0.6423949961	 0.5083795418	 0.9202313146	 0.101837
H	-0.8973731372	-1.2337705015	 1.2466498375	 0.13441
H	-2.0314038077	-0.1440464841	 0.4416604051	 0.125534
H	-1.9166041677	-1.436179836	-1.5931299552	 0.132849
H	 0.5855786036	-2.2026930544	-2.2831187575	 0.125743
H	 1.8736774164	-0.152287878	-1.32793236	 0.115327
64.0242	142.9297	190.1669	300.6717	332.9979	381.7771	485.8462	525.5422	556.2959	692.1302	754.7651	805.1669	845.6591	862.8709	943.101	980.1943	1001.7005	1040.2035	1061.9711	1070.6288	1138.8475	1178.487	1255.5158	1274.2841	1278.2988	1320.7754	1331.8146	1370.6248	1431.5533	1480.7676	1681.3581	2356.8963	3012.5261	3067.7905	3082.402	3133.1718	3197.2231	3221.5023	3799.298
OC1CC(C=C1)C#N	O[C@H]1C[C@@H](C=C1)C#N	
InChI=1S/C6H7NO/c7-4-5-1-2-6(8)3-5/h1-2,5-6,8H,3H2	InChI=1S/C6H7NO/c7-4-5-1-2-6(8)3-5/h1-2,5-6,8H,3H2/t5-,6-/m1/s1
