17
gdb 54603	2.73582	1.57983	1.21839	5.4978	67.92	-0.2324	0.0079	0.2403	1030.2248	0.137753	-455.11645	-455.108727	-455.107783	-455.148892	29.64	
O	 0.4584642283	 1.6196125373	 1.4603497937	-0.381308
C	-0.0041616979	 1.4411695705	 0.1940773961	 0.377263
O	 0.6972265978	 0.9933137977	-0.6662588987	-0.322926
C	-1.434690614	 1.8848194331	 0.00988003	 0.175007
C	-1.7332639667	 3.3663656358	 0.4685642217	-0.23488
N	-2.5480435132	 2.8266813296	 1.5852039951	-0.324617
H	-0.2475597091	 1.9681267939	 2.0258067055	 0.313504
H	-3.4315241526	 3.2879038575	 1.7822024583	 0.224025
C	-2.6028733084	 1.4962446736	 0.9710456278	-0.051802
C	-3.4328574559	 1.2948057814	-0.3372766976	-0.188465
N	-2.178837853	 1.3754142511	-1.1310910195	-0.344527
H	-0.8856039911	 3.9756439094	 0.7974656842	 0.120702
H	-2.2830719316	 3.9164281818	-0.3060313662	 0.104853
H	-2.5780956343	 0.653570521	 1.6643350679	 0.098775
H	-3.9459240341	 0.3339220644	-0.4446905828	 0.116783
H	-4.1599842333	 2.1023973986	-0.5017739069	 0.093519
H	-2.1859767707	 1.9473071931	-1.9687989886	 0.224094
89.5533	123.9949	174.7962	265.2092	343.6356	381.9751	455.4792	485.7897	610.3372	624.4948	717.9027	719.9326	733.9058	824.2842	869.5369	917.5623	936.8926	952.7671	994.1249	1011.7232	1053.5063	1103.9908	1114.53	1156.9201	1167.3916	1179.225	1192.6926	1278.6726	1293.2954	1310.4116	1340.3835	1364.1794	1372.6023	1380.1753	1510.179	1523.1154	1881.3835	3000.795	3014.7988	3067.1754	3073.0772	3095.9519	3505.705	3530.1515	3722.3074
[O-]C(=O)C12C[NH2+]C1CN2	OC(=O)[C@]12CN[C@H]1CN2	
InChI=1S/C5H8N2O2/c8-4(9)5-2-6-3(5)1-7-5/h3,6-7H,1-2H2,(H,8,9)	InChI=1S/C5H8N2O2/c8-4(9)5-2-6-3(5)1-7-5/h3,6-7H,1-2H2,(H,8,9)/t3-,5-/m0/s1
