14
gdb 47303	3.52666	1.36064	1.04115	3.4358	60.33	-0.2811	-0.0261	0.2549	1067.5166	0.101517	-510.979076	-510.971525	-510.970581	-511.012022	27.209	
N	-0.1279440941	 1.4464551954	-0.1626080387	-0.494487
C	 0.0413797492	 0.2254827763	 0.0840334273	 0.44749
O	 1.2845612601	-0.3371156841	 0.2459661763	-0.245454
C	 1.4983771979	-1.3554887859	 1.1901422813	 0.003495
O	 1.0210078078	-2.6251117503	 0.7912242138	-0.20615
C	-0.319946299	-2.8623852178	 0.8082957023	 0.421253
O	-0.7349348547	-3.9754054025	 0.6787089805	-0.294897
C	-1.2272240819	-1.6439306564	 0.9903521801	-0.230393
O	-1.0183332648	-0.6116310749	 0.0323339625	-0.227107
H	 0.7718799402	 1.9233525915	-0.1815732059	 0.238785
H	 2.5793468038	-1.4654350667	 1.2610595028	 0.155864
H	 1.083637044	-1.0767421885	 2.1664331396	 0.122258
H	-2.2472984804	-1.9885377786	 0.8289507344	 0.169034
H	-1.153856288	-1.2548306873	 2.0148447537	 0.140307
60.3302	90.5723	168.1042	288.2341	349.2557	390.5321	436.3607	539.2269	562.0477	649.9317	734.1471	760.1032	816.359	835.6183	876.3011	987.1592	1001.1529	1060.1272	1112.7975	1141.4235	1153.2896	1235.4113	1273.7908	1314.8643	1345.6984	1386.9063	1456.3275	1488.1468	1519.7268	1769.5677	1872.255	3018.4929	3036.1626	3153.3221	3155.4929	3521.5573
N=C1OCOC(=O)CO1	[NH][C]1OCOC(=O)CO1	
InChI=1S/C4H5NO4/c5-4-7-1-3(6)8-2-9-4/h5H,1-2H2	InChI=1S/C4H5NO4/c5-4-7-1-3(6)8-2-9-4/h5H,1-2H2
