18
gdb 94356	2.85287	1.08435	0.99627	2.45	73.86	-0.2522	-0.0343	0.2179	1259.852	0.145669	-439.046255	-439.037321	-439.036376	-439.080473	32.265	
C	-0.2564942842	 1.4266524859	-0.0376914866	-0.393683
C	 0.098202769	-0.0449873606	-0.0472093827	 0.083971
O	 1.3151037756	-0.3301755417	-0.7928706088	-0.292709
C	 1.9601734128	-0.9397718053	 0.3402990119	-0.143749
C	 0.7464619584	-0.6349155942	 1.2124743172	 0.256168
N	 0.698759297	-0.0433232219	 2.5232799853	-0.366092
C	 0.1978056998	-1.4325175774	 2.3490022324	-0.201737
C	-1.2718160838	-1.5952859409	 2.5218605493	 0.182069
O	-1.8070928219	-2.6382913153	 2.7995730509	-0.257688
H	 0.5507781654	 2.0200118052	 0.3994408817	 0.124211
H	-0.4345171895	 1.7721070382	-1.0603918168	 0.130029
H	-1.1649395959	 1.5970146144	 0.5484261234	 0.126931
H	-0.7326837661	-0.6459307442	-0.4410927844	 0.088819
H	 2.1761382689	-2.0033028236	 0.1771207651	 0.114612
H	 2.887946868	-0.4226371733	 0.6217077753	 0.108155
H	 1.6107547987	-0.0509674898	 2.9742975011	 0.245409
H	 0.7972939642	-2.2686006046	 2.7020954804	 0.110201
H	-1.8463577665	-0.6549148009	 2.3666802755	 0.085084
71.974	85.1012	144.8361	189.3371	202.1755	233.9464	355.6806	387.7907	411.4447	472.8065	552.6002	571.7794	792.6683	840.8263	875.4923	910.372	959.7947	970.0324	1009.3807	1026.494	1063.9955	1076.9812	1089.016	1093.506	1142.7633	1155.3193	1203.4509	1254.5802	1279.8899	1310.8946	1349.2161	1376.9869	1403.5241	1406.9614	1470.6568	1484.2275	1489.9585	1518.4784	1825.6631	2889.9487	3000.2753	3013.639	3043.5687	3045.6182	3116.7253	3126.1698	3145.1278	3499.585
CC1OCC11NC1C=O	C[C@H]1OC[C@]21N[C@H]2C=O	
InChI=1S/C6H9NO2/c1-4-6(3-9-4)5(2-8)7-6/h2,4-5,7H,3H2,1H3	InChI=1S/C6H9NO2/c1-4-6(3-9-4)5(2-8)7-6/h2,4-5,7H,3H2,1H3/t4-,5+,6-/m1/s1
