17
gdb 51921	3.85718	0.63276	0.57421	2.3215	81.81	-0.2474	0.0088	0.2562	1890.9875	0.135296	-417.93584	-417.926321	-417.925377	-417.97271	32.337	
N	-0.7613651609	 0.9057137456	-0.766295405	-0.435438
C	-0.8751054446	-0.1443197205	-0.0779395693	 0.136721
O	-0.3857010754	-1.311380155	-0.5514757629	-0.170697
C	-0.6047835974	-2.4619600518	 0.273228798	-0.242857
C	-1.9874538187	-2.9240161929	 0.2746922628	 0.086445
C	-3.1378841811	-3.2860779099	 0.2681800116	 0.072454
C	-4.4967900185	-3.7442940267	 0.2670475518	-0.161525
C	-5.3384007072	-3.5532599294	-0.9549865183	-0.224619
N	-4.8931420178	-4.8962502656	-0.5816885993	-0.303139
H	-1.1621406016	 1.6953686374	-0.2643747743	 0.230616
H	-1.341060813	-0.2319295177	 0.9126854195	 0.092064
H	 0.0584814481	-3.2285061889	-0.1372723258	 0.154902
H	-0.2721753452	-2.2588394254	 1.3008334371	 0.138135
H	-4.9934829912	-3.7371807295	 1.2337094056	 0.120786
H	-6.4020095363	-3.37034013	-0.8328168919	 0.130195
H	-4.8777406772	-3.0589870705	-1.8048851556	 0.13269
H	-4.099406952	-5.1667817192	-1.1578877641	 0.243267
28.3787	51.3684	77.8559	109.1034	137.0208	232.6489	301.3043	330.7579	423.3642	528.6386	549.6649	659.1322	731.7267	815.2419	820.2507	875.1025	949.4067	961.7434	995.17	1026.4134	1040.0528	1084.647	1116.1145	1120.8136	1156.6219	1220.0082	1242.2133	1258.4583	1299.693	1317.9692	1390.6992	1396.1176	1426.4584	1481.8689	1504.6894	1749.4917	2353.6153	3011.4636	3031.4533	3089.6604	3117.3527	3141.7384	3209.0853	3504.8556	3518.5497
N=COCC#CC1CN1	[NH][CH]OCC#C[C@H]1CN1	
InChI=1S/C6H8N2O/c7-5-9-3-1-2-6-4-8-6/h5-8H,3-4H2	InChI=1S/C6H8N2O/c7-5-9-3-1-2-6-4-8-6/h5-8H,3-4H2/t6-/m0/s1
