17
gdb 24231	3.92542	1.54909	1.20814	1.8735	78.83	-0.1894	0.0454	0.2348	1006.5101	0.140556	-380.879935	-380.873387	-380.872443	-380.910596	27.258	
C	-0.0596019248	 1.5182600461	-0.007715725	-0.364519
C	 1.4338286159	 1.8973556983	-0.0297984424	-0.01603
N	 2.1943430892	 1.4690325078	 1.162146067	-0.330999
C	 2.2776902852	 0.6622152969	-0.0924115886	-0.229766
C	 1.3216741937	-0.4726290977	-0.0969570124	 0.363454
C	 0.0407506582	 0.019584877	-0.0274618347	 0.284319
N	-0.8223803664	-1.0331217918	 0.0708760072	-0.366027
C	-0.0921040181	-2.2070540933	 0.0395439265	-0.072251
C	 1.2473672512	-1.8907592196	-0.0569700739	-0.341036
H	-0.5515722331	 1.91253378	 0.8894935578	 0.119082
H	-0.5828137269	 1.9323734361	-0.880182841	 0.102805
H	 1.7281274523	 2.8139818707	-0.5300465931	 0.083606
H	 3.0258136132	 2.0544888904	 1.233487026	 0.222066
H	 3.2188178068	 0.6372957347	-0.6315550426	 0.083377
H	-1.8245871537	-0.9818788183	 0.1236845006	 0.257461
H	-0.5891709242	-3.1632647835	 0.0772071442	 0.113313
H	 2.0576383714	-2.6029481635	-0.0904916355	 0.091147
152.9079	218.0408	349.4283	417.4795	456.3906	469.028	600.658	630.4134	683.0346	701.2582	721.7628	781.1046	808.3416	817.9196	848.2977	886.0532	929.8094	937.1266	995.8354	1042.5541	1081.894	1084.632	1126.3774	1149.6939	1179.809	1181.8731	1216.5189	1249.6567	1298.5474	1321.0407	1368.3268	1397.5833	1457.8377	1477.9868	1483.3825	1524.7711	1599.7721	3011.7057	3053.1068	3159.3612	3169.0454	3243.1491	3266.4879	3466.6469	3680.3695
C1C2NC2C2=C1NC=C2	C1[C@H]2N[C@H]2c2c1[nH]cc2	
InChI=1S/C7H8N2/c1-2-8-5-3-6-7(9-6)4(1)5/h1-2,6-9H,3H2	InChI=1S/C7H8N2/c1-2-8-5-3-6-7(9-6)4(1)5/h1-2,6-9H,3H2/t6-,7+/m1/s1
