19
gdb 92979	2.83465	1.44546	1.1393	1.8605	74.91	-0.2409	0.0125	0.2534	1113.5141	0.161238	-419.195357	-419.187101	-419.186156	-419.228868	30.855	
C	-0.1987325516	 1.5819411601	-0.0567775561	-0.407927
C	 0.0615541914	 0.0842251154	-0.0456074597	 0.093448
O	 1.0779878657	-0.2234488787	-1.0525966644	-0.225669
C	 2.0803925722	-0.8284988462	-0.3916993047	 0.117291
N	 1.985729006	-1.0537700223	 0.8531929582	-0.284777
C	 0.6631781647	-0.5394496691	 1.2632607729	-0.03641
C	 0.7834875217	 0.4046676583	 2.4493529648	 0.007694
C	 1.7473304837	 0.1276556674	 3.5380167561	-0.250193
N	 1.9667848195	 1.26102786	 2.6150061625	-0.321621
H	 0.6698561159	 2.1416701958	 0.2981435167	 0.149059
H	-0.4424010219	 1.9084575164	-1.0712348356	 0.127617
H	-1.0473225491	 1.8239310918	 0.5900333864	 0.125662
H	-0.8387332838	-0.4550218009	-0.3539865895	 0.096854
H	 2.934401138	-1.0883920644	-1.0087081192	 0.1446
H	 0.0462898386	-1.3911859802	 1.5771207252	 0.096061
H	-0.1497919688	 0.8984883901	 2.7131136009	 0.089465
H	 1.5047234057	 0.4076980154	 4.5590813713	 0.112963
H	 2.3856355018	-0.7433429179	 3.4285246688	 0.132423
H	 2.66565287	 0.965956439	 1.9339697353	 0.233461
48.5766	95.0016	185.9072	228.2038	241.3121	317.6092	387.6654	435.6815	507.5983	625.6669	736.8099	777.7435	826.8259	851.0995	862.8944	904.5683	957.7062	971.4435	978.5885	998.9274	1049.7395	1065.59	1106.6797	1134.0664	1146.6789	1152.7344	1161.7367	1199.8718	1277.9361	1298.5358	1309.4888	1316.5982	1339.4616	1359.9791	1384.3986	1413.2393	1417.2491	1488.7923	1494.3101	1502.8691	1701.2607	3015.3102	3048.6596	3064.4997	3115.394	3118.0102	3125.1682	3136.3478	3207.9463	3209.5955	3473.4598
CC1OC=NC1C1CN1	C[C@H]1OC=N[C@H]1[C@H]1CN1	
InChI=1S/C6H10N2O/c1-4-6(5-2-7-5)8-3-9-4/h3-7H,2H2,1H3	InChI=1S/C6H10N2O/c1-4-6(5-2-7-5)8-3-9-4/h3-7H,2H2,1H3/t4-,5-,6-/m1/s1
