18
gdb 20132	5.06474	1.38837	1.24979	1.7095	71.57	-0.247	0.0892	0.3362	1009.1196	0.154246	-347.747684	-347.740541	-347.739597	-347.779358	27.62	
C	-0.1829464391	 1.349058969	-0.2461810347	-0.273012
C	 1.2504404524	 1.1623027473	 0.1861180599	-0.274626
C	 0.3360330609	-0.0327275178	 0.0656992175	 0.029952
C	-0.1285614488	-0.7632389538	 1.2947689222	-0.020407
C	-1.4071332507	-1.6871793565	 1.1971211133	-0.279924
C	-0.5283224097	-2.8677321015	 1.6257919398	 0.036696
O	 0.5248429479	-2.9798277145	 0.6592881426	-0.247239
C	 0.6686148403	-2.0170762322	 1.711084484	 0.012432
H	-0.8685122565	 1.8053811896	 0.4609674628	 0.107084
H	-0.3812436336	 1.6044235783	-1.2812732726	 0.111111
H	 2.0337608241	 1.2880192747	-0.5530152189	 0.11261
H	 1.525348057	 1.4946055474	 1.1822835596	 0.106555
H	 0.5090310878	-0.6852713182	-0.7846988416	 0.095787
H	-0.2297542865	-0.0708749083	 2.1377309206	 0.069859
H	-2.1738669634	-1.4201213243	 1.9281788844	 0.103434
H	-1.8615441391	-1.786782069	 0.2083749247	 0.10993
H	-0.7973259679	-3.7669810983	 2.1674357711	 0.102109
H	 1.556890615	-2.0921652418	 2.3285061553	 0.09765
79.8725	134.3585	179.3472	299.023	382.8262	417.2685	558.7447	724.3679	768.1264	805.8822	827.8234	841.2017	860.4213	902.7863	909.9358	934.8859	953.3567	984.6727	1023.5162	1034.6139	1051.6092	1058.4951	1077.5084	1126.4039	1147.8757	1195.2765	1203.7699	1219.706	1235.0219	1238.4872	1240.6624	1277.8168	1297.8704	1387.78	1429.6153	1469.1366	1475.1851	1505.3088	3047.7667	3066.2211	3123.048	3126.286	3131.4145	3157.5121	3175.5198	3193.0467	3204.5125	3220.0672
C1CC1C1CC2OC12	C1CC1[C@H]1C[C@H]2O[C@@H]12	
InChI=1S/C7H10O/c1-2-4(1)5-3-6-7(5)8-6/h4-7H,1-3H2	InChI=1S/C7H10O/c1-2-4(1)5-3-6-7(5)8-6/h4-7H,1-3H2/t5-,6-,7+/m1/s1
