18
gdb 65642	2.91239	1.37765	1.27523	2.1513	72.53	-0.2349	-0.0337	0.2012	1064.187	0.14629	-439.041478	-439.033026	-439.032082	-439.074794	31.453	
C	 0.3151587087	 1.5566283834	-0.2313213021	-0.446451
C	 0.0783634668	 0.0633471499	-0.074134149	 0.205737
N	 0.9910213486	-0.8027811856	-0.9083747937	-0.377279
C	 1.3374758439	-1.6341626342	 0.2743303709	-0.051023
C	 2.6089941576	-1.1195401322	 0.9673860663	-0.069329
O	 1.8434768001	-0.1266588743	 1.7031513411	-0.300519
C	 0.5985692892	-0.6451462955	 1.2043172061	 0.072309
C	-1.3619240772	-0.3062812939	-0.37067058	 0.117092
O	-2.1419678175	-0.7829850552	 0.4138892982	-0.253369
H	 1.3574669479	 1.7803141739	 0.0045785388	 0.146855
H	 0.1103572422	 1.8756353124	-1.2586697181	 0.119164
H	-0.3289231305	 2.1289759256	 0.4449163673	 0.128045
H	 0.5186555893	-1.3079984986	-1.6531677984	 0.220886
H	 1.1570961513	-2.7064213022	 0.2022132086	 0.088967
H	 3.0815501177	-1.8335540922	 1.6534803677	 0.104001
H	 3.3583873316	-0.6710514344	 0.3078668394	 0.112794
H	-0.1274500044	-0.8758408346	 1.983375808	 0.102705
H	-1.6512095855	-0.1287072522	-1.4357115512	 0.079416
62.4975	125.7347	180.2578	200.4606	252.1176	279.5468	331.2465	423.2526	469.6364	594.5507	610.587	709.4988	797.5429	809.8906	882.474	914.013	936.6086	952.6909	995.1868	1007.6307	1012.0503	1038.6595	1079.18	1142.647	1156.8169	1171.461	1196.3518	1222.8016	1240.0995	1285.3564	1319.1972	1354.5112	1387.3536	1399.1427	1419.7786	1482.1402	1488.8139	1504.1142	1820.3174	2834.5697	3020.5245	3036.5037	3087.4627	3104.3291	3111.1654	3124.6796	3135.8902	3502.5302
CC1(NC2COC12)C=O	C[C@]1(N[C@H]2CO[C@@H]12)C=O	
InChI=1S/C6H9NO2/c1-6(3-8)5-4(7-6)2-9-5/h3-5,7H,2H2,1H3	InChI=1S/C6H9NO2/c1-6(3-8)5-4(7-6)2-9-5/h3-5,7H,2H2,1H3/t4-,5+,6-/m0/s1
