16
gdb 6350	4.18644	1.29358	1.00063	2.0059	64.26	-0.2498	-0.0091	0.2407	1148.0431	0.129689	-417.144421	-417.135188	-417.134244	-417.179763	30.857	
C	-0.3241794184	 1.297614329	-0.5199442315	-0.33245
N	-0.842385097	-0.0510763965	-0.4210190921	-0.340752
C	-1.3027032164	-0.5482186699	 0.7451647516	 0.490171
O	-1.347963345	 0.0267104477	 1.8162360365	-0.409262
N	-1.7777176486	-1.8915438751	 0.6759766023	-0.397314
C	-1.8398460757	-2.7546360237	-0.3925963878	 0.433485
C	-2.4193653282	-4.1164485652	-0.0586023054	-0.4932
O	-1.4642085551	-2.461465791	-1.5164709688	-0.369223
H	 0.7231744533	 1.295317002	-0.8417639005	 0.127788
H	-0.905395694	 1.8922015429	-1.2334930305	 0.127798
H	-0.391853494	 1.7595683599	 0.4652870091	 0.167454
H	-0.8766015956	-0.6697612293	-1.2239393272	 0.276876
H	-2.1085119039	-2.2059718307	 1.575971888	 0.262291
H	-2.4280834744	-4.7245139087	-0.9621790873	 0.158034
H	-1.8196544874	-4.6148029171	 0.7099163424	 0.149187
H	-3.4401217196	-4.0197474845	 0.3252196814	 0.149117
40.0454	68.6253	89.4355	109.5884	182.0648	190.2527	301.921	366.8141	435.0236	572.0685	592.3204	642.6036	697.3984	728.9107	770.8063	882.5359	984.1237	1014.6895	1055.1927	1144.0627	1156.7889	1189.8708	1246.5958	1259.2259	1388.5936	1443.776	1462.4838	1482.1955	1494.986	1500.0903	1504.215	1603.3347	1773.586	1819.0164	3029.0933	3046.5086	3079.5994	3110.2022	3155.7349	3167.5337	3515.2254	3629.7097
CNC(=O)NC(C)=O	CNC(=O)NC(=O)C	
InChI=1S/C4H8N2O2/c1-3(7)6-4(8)5-2/h1-2H3,(H2,5,6,7,8)	InChI=1S/C4H8N2O2/c1-3(7)6-4(8)5-2/h1-2H3,(H2,5,6,7,8)
