25
gdb 59936	2.15591	1.11303	0.91111	0.5692	94.68	-0.2546	0.0596	0.3141	1475.5313	0.224927	-352.337483	-352.325843	-352.324899	-352.374006	43.747	
C	-0.184978077	 0.9836861254	 0.7178429624	-0.381531
C	-0.0829508028	-0.4242098422	 0.1146664595	 0.023417
C	-1.484969175	-1.0353052863	-0.040127167	-0.385472
C	 0.6430068643	-0.4749855129	-1.2446593272	-0.184452
C	 2.1647370934	-0.1415341377	-1.3147879091	 0.056981
C	 2.9633550226	-0.9199509236	-0.2449937902	-0.403662
C	 2.6717676539	-0.5564091744	-2.7195856352	-0.397525
C	 2.418831012	 1.297072293	-1.1642521724	 0.355584
C	 2.6769513535	 2.4696274824	-1.0875253511	-0.508357
H	 0.7944288746	 1.4244678037	 0.91205715	 0.127547
H	-0.7190185104	 1.659705715	 0.0395169031	 0.109841
H	-0.7396062934	 0.9539007683	 1.6621257584	 0.101344
H	 0.4697378192	-1.057158824	 0.821535161	 0.072703
H	-2.0911065313	-0.4520212517	-0.7438086859	 0.111834
H	-1.4383697345	-2.0635745143	-0.4144535532	 0.106582
H	-2.0145696961	-1.0499011594	 0.9181180112	 0.108542
H	 0.5385940082	-1.4955470275	-1.636414152	 0.087921
H	 0.1187652559	 0.1786666851	-1.953929934	 0.096499
H	 2.7571869512	-1.992704143	-0.3280664776	 0.110443
H	 4.0370203936	-0.7651034967	-0.3837527822	 0.119677
H	 2.7072848773	-0.5967323648	 0.7664231469	 0.127459
H	 2.1022428881	-0.050748834	-3.5045685872	 0.12154
H	 3.7263267199	-0.2955342428	-2.8436216402	 0.120707
H	 2.5631579997	-1.6376230754	-2.8555909304	 0.109791
H	 2.8848497429	 3.5076932377	-1.0053798775	 0.192586
29.3696	106.3013	165.8619	178.4312	190.8396	222.0259	238.9851	242.6868	276.7055	300.6354	329.565	371.6858	380.5226	426.7213	436.3767	555.0246	591.9964	622.5409	630.2533	715.2037	819.4586	861.305	908.1441	929.8808	943.2372	946.2536	968.769	998.2361	1028.8678	1097.2221	1116.4617	1186.8887	1193.992	1217.2477	1231.8796	1307.7909	1332.7836	1377.1495	1382.9174	1395.8423	1401.0408	1417.9774	1424.9525	1471.0196	1481.0551	1485.7731	1488.0636	1493.251	1496.743	1503.6416	1507.5083	1512.0824	2224.8616	3009.0086	3014.4451	3022.8958	3030.1783	3033.4125	3038.5782	3052.5908	3085.8731	3092.3817	3097.9123	3105.8211	3109.6937	3118.0669	3124.6494	3130.0505	3501.7337
CC(C)CC(C)(C)C#C	CC(C)CC(C)(C)C#C	
InChI=1S/C9H16/c1-6-9(4,5)7-8(2)3/h1,8H,7H2,2-5H3	InChI=1S/C9H16/c1-6-9(4,5)7-8(2)3/h1,8H,7H2,2-5H3
