19
gdb 100222	2.62306	1.14707	0.98252	4.2487	81.34	-0.2444	0.0275	0.272	1289.625	0.156364	-382.037729	-382.027277	-382.026333	-382.072892	37.932	
C	 0.1574046435	 1.4401028229	 0.0774608261	-0.34107
N	-0.0420711248	-0.006654975	 0.0226015679	-0.297852
C	-1.4313257843	-0.4832770417	-0.025829739	 0.076196
C	-2.2433656658	 0.0010805699	-1.2484231302	-0.415044
C	-1.3487588239	-2.0414292372	-0.0001736283	-0.381728
C	-2.6357713492	-2.718853349	 0.0205632795	 0.311486
C	-3.7004579994	-3.2751414518	 0.0385408187	-0.437129
C	-2.1084766272	-0.0268150493	 1.2070199008	 0.323063
N	-2.6458508778	 0.3474158361	 2.1585730249	-0.346286
H	 1.2310354421	 1.6368648189	 0.1400621177	 0.128965
H	-0.2420468104	 1.9980342201	-0.7836872825	 0.105326
H	-0.307284207	 1.8364692855	 0.9846662902	 0.154845
H	 0.4470920656	-0.3916708911	-0.7793524605	 0.22237
H	-1.7355627954	-0.3157656719	-2.1657404946	 0.115036
H	-3.2475945412	-0.4279933051	-1.2418259176	 0.152129
H	-2.332589479	 1.0891609576	-1.2564854432	 0.136962
H	-0.784220642	-2.3479265366	-0.89093417	 0.12921
H	-0.7474032294	-2.3276586978	 0.8683787821	 0.159582
H	-4.6404370545	-3.7686202547	 0.0675770582	 0.203941
72.2028	97.8086	123.774	169.0523	191.1999	222.7665	264.3549	276.5082	336.5951	353.2217	392.568	412.2193	470.698	579.454	630.6128	633.0076	661.9498	700.3159	748.5672	882.5356	909.4455	962.0913	989.342	1069.1377	1107.2781	1130.503	1164.9733	1189.6386	1223.5686	1285.2475	1335.0604	1404.3574	1458.6379	1465.6444	1475.6895	1486.3292	1496.7409	1511.3813	1523.723	2243.3699	2360.56	2983.4224	3022.1539	3044.6756	3080.9313	3082.8417	3121.0406	3122.8064	3142.5444	3504.8412	3518.328
CNC(C)(CC#C)C#N	CN[C@@](C)(CC#C)C#N	
InChI=1S/C7H10N2/c1-4-5-7(2,6-8)9-3/h1,9H,5H2,2-3H3	InChI=1S/C7H10N2/c1-4-5-7(2,6-8)9-3/h1,9H,5H2,2-3H3/t7-/m0/s1
