22
gdb 58525	2.47975	1.44889	1.23051	1.9357	80.87	-0.2441	0.0283	0.2724	1153.2235	0.193774	-404.378695	-404.3692	-404.368256	-404.412722	36.145	
C	-0.2287952079	 1.550728318	 0.0167076178	-0.406112
C	-0.0185343632	 0.0298298476	-0.0557152384	 0.000378
C	 0.6308307228	-0.3379207058	-1.3994923286	-0.405503
C	 0.7727957876	-0.5314154188	 1.1500309019	 0.375585
C	 0.261602905	-0.0369851339	 2.5015499666	-0.447294
C	 0.9180123909	-2.0862864377	 1.1285553095	-0.236322
N	 2.3598619286	-2.3554447753	 1.0232350011	-0.265612
C	 2.9147249453	-1.2170844723	 0.9779128928	 0.112198
O	 2.1709450739	-0.0907033552	 1.0314330519	-0.256113
H	 0.7326552958	 2.0701158965	 0.0863883918	 0.130177
H	-0.7349505109	 1.9049007602	-0.8866581067	 0.111653
H	-0.8397795206	 1.8483461312	 0.8724752778	 0.114224
H	-1.004309271	-0.4553088734	-0.0060753866	 0.07683
H	 1.5882323877	 0.1782614507	-1.5152856642	 0.127049
H	 0.8145635584	-1.4105814647	-1.5031379482	 0.123842
H	-0.0177176619	-0.0316560971	-2.2256938369	 0.111655
H	-0.7983431166	-0.285695863	 2.6213522088	 0.119274
H	 0.8176756487	-0.5194054187	 3.3106213903	 0.124819
H	 0.3791082056	 1.0431841005	 2.6066563097	 0.131117
H	 0.5229911004	-2.5408421099	 2.043773825	 0.11059
H	 0.3894526308	-2.5492458061	 0.2885554803	 0.112692
H	 3.9829745007	-1.0451850928	 0.8964256746	 0.134873
71.8953	85.7708	207.162	222.9145	232.9523	258.4414	289.5437	352.888	371.897	388.4981	443.8583	497.3023	570.2226	617.1836	770.7789	842.0326	856.8158	924.6534	929.6527	949.5583	963.4606	967.467	980.8101	992.2529	1051.6028	1103.8763	1128.3619	1159.8161	1193.1178	1200.6873	1222.0116	1267.804	1325.5896	1333.8435	1342.8025	1360.9895	1399.2374	1408.8651	1420.754	1483.5538	1485.3495	1491.6846	1498.7433	1505.3993	1517.5538	1520.8684	1706.6231	3001.0767	3037.0321	3039.4875	3042.2953	3046.3831	3068.372	3105.0362	3109.1728	3112.8187	3116.2338	3120.2261	3133.9375	3207.6491
CC(C)C1(C)CN=CO1	CC(C)[C@@]1(C)CN=CO1	
InChI=1S/C7H13NO/c1-6(2)7(3)4-8-5-9-7/h5-6H,4H2,1-3H3	InChI=1S/C7H13NO/c1-6(2)7(3)4-8-5-9-7/h5-6H,4H2,1-3H3/t7-/m1/s1
