16
gdb 72016	2.5868	1.98976	1.48466	3.7415	68.	-0.2408	-0.022	0.2188	898.7724	0.125343	-437.828883	-437.821939	-437.820995	-437.86001	27.895	
O	-0.0162130426	 1.4268363439	-0.0608700001	-0.473631
C	 0.0386788602	 0.0469087334	-0.0741735272	 0.388724
C	 0.430919995	-0.8410147211	-1.2561159928	-0.247598
N	-0.3387932825	-1.9369569682	-0.5460847846	-0.148105
C	 0.5601168216	-2.1403966677	 0.6481001155	-0.17383
C	 0.4274074515	-0.7402864875	 1.2736170794	-0.25549
C	-1.0883190149	-0.7664711198	 1.5372298804	 0.444415
O	-1.8061364588	-0.5768019658	 2.472089697	-0.315862
C	-1.2631285581	-0.8361003775	 0.0256385422	-0.165963
H	 0.8208321972	 1.7756761879	 0.2636944788	 0.292157
H	-0.0885520085	-0.5518896796	-2.1725355643	 0.123497
H	 1.4784312842	-1.0721472396	-1.4738934766	 0.101801
H	 0.1815615276	-2.942668776	 1.288190188	 0.123185
H	 1.5672888391	-2.4012046833	 0.3166996449	 0.11311
H	 1.1504268973	-0.3692947698	 1.9973013147	 0.087319
H	-2.1826515684	-0.6780177092	-0.5305572853	 0.10627
131.0702	194.868	275.4526	346.9332	385.0272	468.9323	522.921	539.8009	623.0665	660.222	724.1193	785.9044	824.7689	854.149	861.0212	923.6161	953.3924	989.7328	1024.572	1065.4471	1079.2545	1095.2082	1117.2381	1154.8064	1166.1353	1186.9318	1216.0337	1239.3076	1244.7856	1285.2039	1322.4305	1361.116	1505.5762	1529.7732	1900.3259	3048.6538	3060.069	3111.1754	3118.2584	3143.8437	3169.5848	3808.3884
OC12CN3CC1C(=O)C23	O[C@@]12CN3C[C@@H]1C(=O)[C@@H]23	
InChI=1S/C6H7NO2/c8-4-3-1-7-2-6(3,9)5(4)7/h3,5,9H,1-2H2	InChI=1S/C6H7NO2/c8-4-3-1-7-2-6(3,9)5(4)7/h3,5,9H,1-2H2/t3-,5+,6+/m1/s1
