13
gdb 14007	4.75792	1.43802	1.25586	2.8875	59.07	-0.2742	-0.0164	0.2578	925.7444	0.094714	-398.554415	-398.547385	-398.546441	-398.58616	24.882	
N	-0.0807790625	-1.159419052	 0.0893835279	-0.317995
C	-0.0475606075	-0.0043550031	 0.0692945095	 0.309929
C	-0.0001206495	 1.4397259314	 0.009424748	-0.200772
O	 0.6125968805	 2.1092639664	 1.1254346163	-0.243998
C	 1.2922246128	 2.1349801584	-0.1041188842	 0.3669
C	 2.6984292175	 1.6105742982	-0.3637676761	-0.154893
O	 2.9770927475	 2.7760503658	-1.1742789159	-0.268781
C	 1.6982059359	 3.3798611578	-0.884375043	-0.153504
H	-0.9012932203	 1.9126920757	-0.3756129838	 0.149069
H	 3.3276251813	 1.5595613697	 0.5328156079	 0.129628
H	 2.7790066351	 0.6756894356	-0.9287879765	 0.134472
H	 1.126720149	 3.6070576339	-1.7913447778	 0.122469
H	 1.7865302201	 4.2815111823	-0.2654377323	 0.127474
91.1535	127.3045	160.9459	303.4843	359.9302	377.402	499.6399	577.0527	620.2337	816.839	861.9357	918.3922	939.3549	994.0804	1024.5529	1029.5979	1057.7563	1122.0878	1141.2645	1168.1798	1178.3092	1299.6496	1315.8748	1361.3509	1496.3262	1496.8702	1523.7368	2362.1112	3020.3516	3033.1237	3073.5113	3083.171	3139.13
N#CC1OC11COC1	N#C[C@H]1OC21COC2	
InChI=1S/C5H5NO2/c6-1-4-5(8-4)2-7-3-5/h4H,2-3H2	InChI=1S/C5H5NO2/c6-1-4-5(8-4)2-7-3-5/h4H,2-3H2/t4-/m1/s1
