17
gdb 131860	5.63234	0.77121	0.69674	2.6211	71.79	-0.2033	0.01	0.2132	1554.1182	0.138264	-451.313615	-451.304951	-451.304006	-451.348027	30.917	
O	-0.0200316865	 1.3921888209	-0.3329847703	-0.419851
C	-0.0373380062	 0.0259858862	 0.0630039732	-0.091827
C	-1.4926867573	-0.4104241862	 0.1058868704	-0.128995
N	-2.0802148369	-0.2568217253	-1.2139245734	-0.391363
C	-3.4093897412	-0.5793008697	-1.397062767	 0.384985
N	-4.1271814887	-0.0658140548	-2.4014366501	-0.314542
N	-5.3125594293	-0.6666555948	-2.2573283623	-0.075762
N	-5.433320249	-1.5113066502	-1.252944547	-0.195831
C	-4.2290814757	-1.4793130746	-0.6772005324	-0.12978
H	 0.8852163949	 1.6407406049	-0.5391875462	 0.294523
H	 0.5087105165	-0.6016654028	-0.6558507157	 0.102906
H	 0.4143861984	-0.1106515455	 1.0567087264	 0.094683
H	-1.5334686062	-1.4637136232	 0.4069795056	 0.111566
H	-2.0230403462	 0.1749669967	 0.8752769954	 0.106352
H	-1.8221384624	 0.6222645059	-1.6429959683	 0.251689
H	-6.075799511	-0.473554602	-2.883396156	 0.288698
H	-4.0132052632	-2.0783253355	 0.1916018476	 0.112552
54.3824	69.6391	126.3094	177.1401	254.0926	293.3497	345.1156	440.2564	451.8663	484.6984	649.2791	702.962	740.5144	779.086	830.5765	901.7479	930.7008	992.6066	1022.7543	1087.3456	1101.0955	1150.0912	1178.5321	1198.3996	1219.1254	1256.9089	1276.8941	1303.6578	1339.1695	1392.3412	1416.1333	1458.9104	1487.5399	1505.0294	1512.7453	1521.4358	1612.5253	2967.6571	2988.0083	3029.0332	3057.364	3276.5923	3583.662	3683.241	3840.2099
OCCNC1=NNN=C1	OCCNc1n[nH]nc1	
InChI=1S/C4H8N4O/c9-2-1-5-4-3-6-8-7-4/h3,9H,1-2H2,(H2,5,6,7,8)	InChI=1S/C4H8N4O/c9-2-1-5-4-3-6-8-7-4/h3,9H,1-2H2,(H2,5,6,7,8)
