16
gdb 28354	3.21506	1.40501	0.98403	2.0823	79.57	-0.194	-0.0273	0.1667	1156.1049	0.126257	-434.150281	-434.142091	-434.141147	-434.182699	31.268	
C	-0.0192450973	 1.5195675198	 0.0652328888	-0.497202
C	-0.0099532922	 0.0289780274	-0.0637957583	 0.351889
C	-0.0415918802	-0.6684279436	-1.2273742625	-0.131045
N	-0.035349465	-2.038040309	-1.2956868464	-0.344751
C	-0.0060494866	-2.7086575948	-0.1785601089	 0.286991
N	-0.0424630889	-4.065511531	-0.1486399756	-0.545408
C	 0.0495693441	-2.0843447827	 1.1660422813	 0.385019
O	 0.1112491777	-2.717977173	 2.2124896265	-0.41134
N	 0.0369546956	-0.7116246809	 1.1079541727	-0.40711
H	 0.8758609626	 1.8881132146	 0.5822997893	 0.134172
H	-0.0499825766	 1.9816045188	-0.9233416577	 0.145308
H	-0.8914774961	 1.8725785581	 0.6299151684	 0.135237
H	-0.0741355508	-0.1415305502	-2.174036313	 0.103865
H	 0.1179997473	-4.5698851991	-1.0034902587	 0.261769
H	 0.164216943	-4.4981561968	 0.737454363	 0.274504
H	 0.0763245836	-0.2440080077	 2.0039095911	 0.258104
120.8518	166.5977	182.288	284.7851	295.1197	329.8714	366.5025	454.0668	481.3534	527.5942	554.294	589.7134	604.2283	696.4793	707.5653	799.703	816.7859	870.6344	997.3071	1033.7656	1064.8624	1066.0216	1221.8601	1265.7774	1314.6373	1369.9153	1391.4343	1419.2583	1470.4103	1476.6752	1502.9195	1567.8388	1643.8394	1668.762	1764.4881	3016.8427	3063.0872	3131.6446	3192.8742	3595.7464	3597.1527	3734.7746
CC1=CN=C(N)C(=O)N1	Cc1cnc(N)c(=O)[nH]1	
InChI=1S/C5H7N3O/c1-3-2-7-4(6)5(9)8-3/h2H,1H3,(H2,6,7)(H,8,9)	InChI=1S/C5H7N3O/c1-3-2-7-4(6)5(9)8-3/h2H,1H3,(H2,6,7)(H,8,9)
