16
gdb 123594	4.18351	1.70465	1.46724	2.3777	74.1	-0.2279	0.0197	0.2476	889.697	0.12879	-396.872019	-396.865974	-396.86503	-396.903193	24.486	
C	-0.0149366666	 1.5217911178	-0.0753692459	-0.175642
C	 1.5272269341	 1.3100628517	-0.0283257647	-0.033739
C	 1.1566730447	 0.1644025442	 0.9590689643	-0.175556
N	-0.0890047835	-0.0191656936	 0.0580700271	-0.242513
C	 0.6056230584	-0.3592128088	-1.1759148768	 0.437559
C	 0.6570887893	-1.1576840733	-2.2935121181	-0.449743
C	 1.8138845718	-0.6735896485	-2.9716344878	 0.006013
N	 2.4240957667	 0.3359551791	-2.3331821844	-0.306461
N	 1.654231561	 0.4894357465	-1.2477626998	 0.098005
H	-0.4419079063	 1.9950213108	 0.8107361006	 0.121733
H	-0.4494799893	 1.9188447272	-0.9938675523	 0.132462
H	 2.2903254102	 2.0723763371	 0.1078877809	 0.10963
H	 1.8148432058	-0.7043689368	 1.0055335778	 0.132352
H	 0.8530706485	 0.4947028911	 1.9541149906	 0.121754
H	-0.0049962714	-1.9526062258	-2.5912911221	 0.11291
H	 2.2230498765	-1.0279361286	-3.9063845496	 0.111236
35.1358	305.5924	428.7788	510.55	533.0326	646.2318	688.1559	715.1883	740.434	787.5495	818.9274	821.9091	829.4112	862.1939	913.5456	952.7894	1009.9672	1018.7297	1031.9528	1051.6289	1086.4684	1112.8521	1190.3932	1195.9729	1202.8868	1229.6324	1252.0176	1287.0798	1319.5579	1345.9396	1409.8807	1449.9904	1485.5472	1521.1467	1592.8748	3072.9723	3081.5181	3149.619	3154.4096	3160.0089	3246.3902	3283.3815
C1C2CN1C1=CC=NN21	C1[C@H]2CN1c1ccnn21	
InChI=1S/C6H7N3/c1-2-7-9-5-3-8(4-5)6(1)9/h1-2,5H,3-4H2	InChI=1S/C6H7N3/c1-2-7-9-5-3-8(4-5)6(1)9/h1-2,5H,3-4H2
