18
gdb 70496	2.70638	1.5242	1.11147	1.7757	86.99	-0.2235	-0.0196	0.2038	1119.3417	0.147152	-364.773534	-364.765182	-364.764238	-364.806025	32.754	
C	-0.0600860445	 1.5373663221	-0.0164239122	-0.49809
C	 0.0884198246	 0.040100293	-0.0117743752	 0.191733
N	-0.7649447478	-0.804610121	 0.8690291572	-0.361994
C	 0.7009310198	-0.7677293952	 1.0785443577	-0.088957
C	 1.431428127	-1.9545113094	 0.4624344426	-0.256173
C	 1.1395143532	-1.8057094762	-1.0122549142	-0.193598
C	 0.4224648794	-0.7024288803	-1.2877696614	 0.212018
C	-0.0090228978	-0.2595690936	-2.5596550497	 0.223519
C	-0.3924330928	 0.1645861905	-3.6210717282	-0.443897
H	 0.8242068834	 2.019940914	-0.4454071917	 0.130168
H	-0.9253814129	 1.8421163527	-0.6144682005	 0.136858
H	-0.1950539845	 1.9181964003	 1.0010388704	 0.111475
H	-1.2022165595	-0.2025986202	 1.5661836252	 0.222826
H	 1.0865906119	-0.3010066727	 1.9790686755	 0.08659
H	 2.5101694677	-1.9183067823	 0.6661117096	 0.110408
H	 1.0638481357	-2.9099130967	 0.8567281006	 0.124879
H	 1.4551556476	-2.531632438	-1.7519915544	 0.10197
H	-0.7275157606	 0.5198965031	-4.5637178613	 0.190264
118.1838	135.942	200.5857	241.7413	278.5471	331.5827	400.9082	447.9359	510.562	528.4552	577.1972	635.9588	647.5089	676.1029	737.9628	817.5254	830.2637	851.6649	906.5667	936.5972	975.0351	1014.7763	1050.9861	1071.1472	1107.1583	1137.478	1178.0357	1190.3102	1252.2992	1306.8447	1330.2383	1358.961	1411.9155	1430.3596	1460.9139	1481.5277	1499.1657	1657.3053	2219.0967	3017.7553	3031.7601	3054.3978	3099.2033	3104.1421	3162.0535	3208.2871	3466.2085	3502.9988
CC12NC1CC=C2C#C	C[C@]12N[C@H]1CC=C2C#C	
InChI=1S/C8H9N/c1-3-6-4-5-7-8(6,2)9-7/h1,4,7,9H,5H2,2H3	InChI=1S/C8H9N/c1-3-6-4-5-7-8(6,2)9-7/h1,4,7,9H,5H2,2H3/t7-,8+/m0/s1
