18
gdb 54537	2.89264	1.46178	1.18435	4.9894	71.5	-0.2469	0.0129	0.2599	1068.6303	0.150043	-439.1033	-439.0955	-439.094555	-439.136039	29.993	
O	-0.00321807	 0.4409123949	 1.1608443926	-0.381672
C	-0.0234214	 1.3360513789	 0.1372513265	 0.349621
O	 0.9610337559	 1.5456947829	-0.5164977357	-0.33101
C	-1.3413554503	 2.025588417	-0.0263713821	 0.20701
C	-1.454936718	 3.3353687864	-0.7474129369	-0.335961
C	-1.5419865379	 3.3261485783	 0.7561759265	-0.05714
C	-2.8837565863	 3.1809197174	 1.4707181214	-0.19124
N	-3.0940153723	 1.718674181	 1.4988395507	-0.305207
H	-0.8200989326	 0.5266601922	 1.6761583665	 0.309775
H	-4.0622457987	 1.4731709549	 1.6848254777	 0.221466
C	-2.6345293988	 1.2341093847	 0.1879982517	-0.284844
H	-0.5441420963	 3.728236481	-1.1852088459	 0.143518
H	-2.3577878151	 3.5118911473	-1.3241635372	 0.112941
H	-0.7079076396	 3.7411329111	 1.3097925849	 0.114715
H	-2.8496267072	 3.5793594934	 2.488827373	 0.113938
H	-3.6790379369	 3.7177140634	 0.9265284552	 0.094304
H	-3.3399307238	 1.4459409365	-0.6326762024	 0.099729
H	-2.4707843522	 0.1526326487	 0.2071223737	 0.120057
70.1172	103.0125	191.8527	250.2852	329.707	396.9518	459.9432	515.238	619.1145	645.4475	681.9114	749.4304	754.4805	816.7959	853.4536	915.9113	926.9467	935.6546	986.7763	1000.2172	1048.744	1061.6067	1082.5031	1087.9269	1142.1695	1164.6167	1196.7653	1249.7293	1265.563	1278.2689	1290.8121	1342.806	1382.2184	1403.2632	1435.0199	1481.7806	1512.7461	1530.6035	1865.2027	2956.8248	2961.1586	3076.928	3078.4545	3127.9487	3181.8368	3223.3569	3511.2945	3717.865
[O-]C(=O)C12CC1C[NH2+]C2	OC(=O)[C@]12C[C@H]1CNC2	
InChI=1S/C6H9NO2/c8-5(9)6-1-4(6)2-7-3-6/h4,7H,1-3H2,(H,8,9)	InChI=1S/C6H9NO2/c8-5(9)6-1-4(6)2-7-3-6/h4,7H,1-3H2,(H,8,9)/t4-,6-/m0/s1
