20
gdb 122465	3.86352	0.69977	0.62581	1.3107	83.65	-0.2481	0.0346	0.2827	1814.6659	0.168405	-403.076234	-403.06604	-403.065096	-403.112556	36.251	
C	 0.2344049314	 1.5500969907	-0.0069532259	-0.385144
C	-0.0283155087	 0.0552702649	-0.0737435833	-0.023927
O	 0.6480326431	-0.4708014944	-1.1975474292	-0.249618
C	 0.4620390323	-1.8604077672	-1.3558339231	-0.061446
C	 1.2365853375	-2.2964986237	-2.5693524984	-0.021037
N	 2.6116822674	-2.748473435	-2.3529310073	-0.318822
C	 1.5954217885	-3.7301479448	-2.8054978454	-0.253255
C	 1.2305481877	-4.7852259772	-1.8987297002	 0.383475
C	 0.9012420621	-5.6841169847	-1.1713322679	-0.448329
H	 1.3063149549	 1.7463062706	 0.0855021909	 0.128442
H	-0.1272416988	 2.0443386862	-0.9132407853	 0.124158
H	-0.2756287491	 1.9892768125	 0.8556453492	 0.113779
H	 0.3219559562	-0.4414390412	 0.8467587119	 0.08878
H	-1.1109298324	-0.1450032453	-0.1534117765	 0.083107
H	 0.8169334028	-2.4150030509	-0.4750390979	 0.107455
H	-0.6085044877	-2.0950584199	-1.4906146952	 0.087144
H	 1.0276183699	-1.706559237	-3.4601351972	 0.096745
H	 3.2043257734	-2.4891369559	-3.1374224501	 0.23835
H	 1.6307255217	-4.0361282464	-3.8492312535	 0.11141
H	 0.6212120078	-6.4746347815	-0.5200472959	 0.198733
46.8322	72.9849	80.632	133.9591	156.3817	214.3565	243.2597	301.4077	328.492	447.8131	458.3069	552.0977	602.9295	622.5037	659.0216	805.3621	821.262	836.1447	891.2496	912.4494	952.2039	1020.0638	1040.988	1047.0092	1131.8672	1143.5615	1163.0411	1184.8007	1196.8226	1228.6332	1251.2213	1280.9251	1296.4647	1361.4297	1397.5071	1408.978	1435.9396	1481.8433	1482.9296	1498.8801	1504.526	1534.4091	2240.0791	2948.3626	2958.5955	2978.1405	3019.7968	3044.4882	3118.5551	3120.2444	3121.3005	3130.8126	3503.9878	3505.3447
CCOCC1NC1C#C	CCOC[C@H]1N[C@H]1C#C	
InChI=1S/C7H11NO/c1-3-6-7(8-6)5-9-4-2/h1,6-8H,4-5H2,2H3	InChI=1S/C7H11NO/c1-3-6-7(8-6)5-9-4-2/h1,6-8H,4-5H2,2H3/t6-,7+/m0/s1
