17
gdb 47267	2.32322	1.87353	1.23341	2.5995	74.46	-0.253	-0.0306	0.2224	1020.4922	0.136425	-421.838096	-421.830198	-421.829253	-421.870717	29.948	
O	-0.1343787221	 0.0145438802	 0.2953027417	-0.326222
C	 0.0030100044	 1.1837947144	 0.055687412	 0.380569
O	-1.022589633	 2.0762883324	-0.0041272662	-0.231414
C	-1.9260334842	 2.1277432598	 1.1201756903	-0.158177
C	-1.5368584942	 3.3164390499	 1.9692071676	-0.050237
C	-0.3022477147	 3.5772739515	 2.4055297349	-0.033943
C	 0.9144435914	 2.6704853663	 2.2875091469	-0.32095
C	 1.6845634519	 2.6423371245	 0.9681295951	-0.04594
C	 1.3038305875	 1.9132903872	-0.0806035671	-0.152532
H	-2.9349363255	 2.2458185521	 0.7193787676	 0.123288
H	-1.884663883	 1.1722411542	 1.6563205624	 0.138351
H	-2.32375554	 4.0377847655	 2.1732437381	 0.096082
H	-0.1419988323	 4.5081915134	 2.9440102864	 0.09872
H	 1.6155073631	 2.9436511957	 3.081387628	 0.110139
H	 0.6008849217	 1.6420276492	 2.5078326644	 0.140795
H	 2.624885081	 3.1852334771	 0.9351045026	 0.108281
H	 1.894121808	 1.8098188467	-0.9833283248	 0.123188
79.5827	114.0942	199.4079	232.6476	305.6613	373.0818	424.4718	482.1906	574.1539	637.4923	658.1074	727.9738	732.344	770.4577	869.0497	888.1981	928.2075	971.1503	981.2933	999.2684	1010.3957	1023.3159	1096.5031	1166.1602	1202.1647	1243.8823	1258.9523	1280.339	1326.7452	1377.2916	1387.4411	1412.6932	1494.2483	1501.323	1677.9546	1706.5051	1822.6053	3023.8432	3043.0395	3080.7827	3107.3667	3147.3578	3166.7936	3171.7485	3205.2266
O=C1OCC=CCC=C1	O=C1OCC=CCC=C1	
InChI=1S/C7H8O2/c8-7-5-3-1-2-4-6-9-7/h2-5H,1,6H2/b4-2-,5-3-	InChI=1S/C7H8O2/c8-7-5-3-1-2-4-6-9-7/h2-5H,1,6H2/b4-2-,5-3-
