21
gdb 119196	1.9336	1.18465	0.84032	3.0706	84.75	-0.2657	0.0192	0.2848	1471.9783	0.181487	-383.273953	-383.26366	-383.262716	-383.309623	37.006	
C	 0.0604767188	 1.573305695	 0.1644351572	-0.385225
C	-0.0298874134	 0.0494262641	 0.2720317301	-0.172943
C	-1.3432772298	-0.5037569589	-0.2969763571	-0.253498
C	-1.4492652858	-2.0157008359	-0.1719625591	 0.154646
N	-1.7834226795	-2.5503249438	 1.1694851085	-0.35554
C	-2.7355596481	-2.7603348928	 0.0760765152	-0.038102
C	-4.0866290983	-2.0960651718	 0.174342085	-0.406241
C	-0.4594362438	-2.7517710249	-0.9337119757	 0.250726
N	 0.3397370812	-3.335116105	-1.5342479453	-0.349775
H	 1.0026306553	 1.9429388881	 0.5799155502	 0.11755
H	 0.0055416618	 1.9023827605	-0.8792343608	 0.116966
H	-0.7568737413	 2.0597086419	 0.7085372146	 0.115359
H	 0.8163431859	-0.4088331122	-0.2540966403	 0.118356
H	 0.0514778728	-0.2576957434	 1.3213137795	 0.113364
H	-2.1867115153	-0.0544595965	 0.2340279953	 0.111206
H	-1.4429783294	-0.2271907774	-1.3540755514	 0.110755
H	-1.2524607498	-3.3946613882	 1.3666950985	 0.249403
H	-2.7612858007	-3.7577100036	-0.3604139001	 0.106674
H	-4.0258015543	-1.1262348954	 0.6706873845	 0.13564
H	-4.5259626473	-1.9597405368	-0.8189894822	 0.129135
H	-4.7647666491	-2.7263639932	 0.7590066235	 0.131542
68.1285	83.3766	123.8835	146.0928	171.2853	187.2352	242.395	270.1539	323.0671	380.8703	398.4189	490.4341	573.2909	597.8532	710.1292	746.195	798.2755	860.5788	879.944	912.0027	972.938	1016.4399	1036.2119	1053.9287	1098.2979	1109.8775	1123.0454	1151.8565	1240.0312	1245.4869	1292.3324	1307.8103	1337.5985	1345.7639	1394.5683	1409.457	1413.9537	1453.4524	1472.0987	1489.1611	1494.1458	1499.6975	1501.3626	1509.9979	2341.9452	3029.3968	3030.1265	3038.3471	3044.1289	3064.2899	3093.082	3104.0039	3105.0481	3106.2723	3118.4397	3144.3348	3510.8297
CCCC1(NC1C)C#N	CCC[C@]1(N[C@H]1C)C#N	
InChI=1S/C7H12N2/c1-3-4-7(5-8)6(2)9-7/h6,9H,3-4H2,1-2H3	InChI=1S/C7H12N2/c1-3-4-7(5-8)6(2)9-7/h6,9H,3-4H2,1-2H3/t6-,7-/m0/s1
