21
gdb 121757	6.79007	0.53699	0.50675	4.2921	78.73	-0.2447	-0.0111	0.2337	2217.4956	0.17765	-461.348556	-461.337203	-461.336258	-461.387136	37.639	
C	 0.0530637273	 1.4353760976	-0.0913361372	-0.384595
C	-0.0398158468	-0.0721394621	 0.0668913964	-0.028362
O	 0.7463399474	-0.4532013979	 1.1805214163	-0.222385
C	 0.7284038172	-1.8239014372	 1.4249517794	-0.161565
C	 1.5299083582	-2.1473871249	 2.6853055492	 0.33277
O	 1.8816930217	-1.3139761135	 3.4742977369	-0.256169
C	 1.8406889909	-3.6353431759	 2.8449751222	-0.159708
O	 2.290639497	-3.8981185816	 4.1373441883	-0.210264
C	 2.6460572902	-5.2476822857	 4.329542241	-0.225988
H	 1.0905453848	 1.7397327448	-0.2543954703	 0.131177
H	-0.5461228184	 1.7656310102	-0.9450456747	 0.114441
H	-0.3132928653	 1.9370928204	 0.8083322213	 0.133956
H	-1.087097964	-0.3844192535	 0.2192749844	 0.087412
H	 0.3180997725	-0.5819410217	-0.8440662342	 0.085698
H	-0.3011322597	-2.2001849668	 1.5822715844	 0.109273
H	 1.1351815127	-2.4034006681	 0.5746940033	 0.098592
H	 0.9403453223	-4.2265583747	 2.5916419617	 0.099297
H	 2.6007152931	-3.8996388619	 2.0842640804	 0.109917
H	 2.9833398881	-5.34791199	 5.3634365275	 0.136001
H	 1.7921787626	-5.9242407303	 4.1654585208	 0.104381
H	 3.4618006782	-5.5550530972	 3.656080193	 0.106122
32.2553	56.7053	75.8307	83.2458	110.1877	135.0628	192.9007	235.3257	245.0907	294.3335	318.0622	378.487	475.4005	489.8496	712.6139	820.2919	841.722	888.1374	927.0768	976.5446	1052.3253	1070.9956	1098.29	1154.7792	1174.9245	1183.0138	1188.1108	1197.5671	1240.3333	1242.7486	1276.4601	1297.6438	1379.1273	1401.5557	1410.5878	1439.0318	1468.3846	1482.6725	1486.4687	1487.9011	1491.8564	1499.5945	1516.7221	1531.6625	1853.5877	2917.7501	2926.7053	2938.092	2948.4093	2953.5762	2970.2501	2977.1472	3014.3091	3047.4073	3121.6701	3122.0394	3126.3864
CCOCC(=O)COC	CCOCC(=O)COC	
InChI=1S/C6H12O3/c1-3-9-5-6(7)4-8-2/h3-5H2,1-2H3	InChI=1S/C6H12O3/c1-3-9-5-6(7)4-8-2/h3-5H2,1-2H3
