17
gdb 79544	2.48892	1.711	1.21824	5.1895	76.77	-0.2801	0.0104	0.2905	1035.9508	0.13715	-380.824913	-380.817185	-380.816241	-380.857055	29.85	
C	-0.0570243121	 1.5364789947	-0.0156335756	-0.424582
C	 0.096490361	 0.0317949696	 0.0565898292	-0.000598
C	 1.373443296	-0.7303542719	-0.2020824161	-0.106165
C	 2.5847674118	-0.028951165	 0.372204747	-0.101297
N	 3.1970415746	-0.7553834283	 1.4755858952	-0.351283
C	 1.9477350988	-0.0348767566	 1.7526757581	 0.19064
C	 1.9534670727	 0.9782633346	 2.7660187577	 0.251802
N	 1.9139685487	 1.7968083762	 3.5823112319	-0.352161
C	 0.7204495479	-0.7342422797	 1.1988615731	-0.171349
H	 0.8039626728	 2.0664187569	 0.3965182202	 0.138977
H	-0.1836246311	 1.8566153082	-1.0552490059	 0.122915
H	-0.9414078084	 1.8580367887	 0.5436193013	 0.131383
H	-0.7674443349	-0.5005140175	-0.3415028334	 0.098085
H	 1.422803748	-1.5555049612	-0.9034212743	 0.103671
H	 3.1632666934	 0.7671661298	-0.080193325	 0.125468
H	 3.0316544682	-1.7588483323	 1.4189301624	 0.239404
H	 0.2114178126	-1.5506804962	 1.6981103141	 0.10509
110.3166	153.8012	193.4655	231.0505	275.4815	415.1988	450.4924	530.7037	574.3877	585.9484	661.6991	736.4011	778.1694	822.4265	853.0532	903.0185	954.3666	975.5532	997.3519	1014.6803	1062.2229	1073.7633	1084.0325	1117.9076	1135.5595	1140.4148	1206.8383	1243.0126	1270.1431	1304.7361	1328.0046	1388.1186	1418.4881	1439.0888	1493.7818	1501.767	2356.0787	3041.549	3101.2523	3110.7558	3134.4381	3175.1958	3185.5211	3198.4822	3473.2475
CC1C2C3NC3(C#N)C12	C[C@H]1[C@H]2[C@@H]3N[C@]3(C#N)[C@@H]12	
InChI=1S/C7H8N2/c1-3-4-5(3)7(2-8)6(4)9-7/h3-6,9H,1H3	InChI=1S/C7H8N2/c1-3-4-5(3)7(2-8)6(4)9-7/h3-6,9H,1H3/t3-,4+,5-,6-,7+/m0/s1
