19
gdb 99937	3.66647	0.72844	0.70343	1.859	94.93	-0.2413	-0.0153	0.226	1690.5223	0.154256	-385.826533	-385.815643	-385.814699	-385.862883	39.07	
C	-0.0749579202	 1.3832221492	 0.1188452872	-0.240665
O	 0.0132222331	-0.0200908309	-0.0134703784	-0.274907
C	 0.6754600805	-0.5319945101	-1.1790240553	 0.102899
C	-0.0578575165	-0.1253077166	-2.475060012	-0.415292
C	 2.1575767335	-0.1031014329	-1.2262514879	-0.415325
C	 0.60720595	-1.9917050601	-1.0319364849	 0.515147
C	 0.5745346995	-3.1981393045	-0.9525451939	-0.29923
C	 0.535811074	-4.5555014446	-0.8598323591	 0.298671
C	 0.5030946261	-5.7598879175	-0.7801763353	-0.583231
H	 0.908515241	 1.86835473	 0.1821996501	 0.108796
H	-0.6452900529	 1.8533028469	-0.6937719535	 0.108787
H	-0.6056779952	 1.5618314862	 1.0571737704	 0.133625
H	 0.0357996688	 0.9491560296	-2.6556229006	 0.11783
H	 0.3738967592	-0.6502506913	-3.3306732472	 0.131267
H	-1.1165792298	-0.3847778346	-2.4032773982	 0.135885
H	 2.6480760709	-0.346732181	-0.2810375176	 0.135885
H	 2.6740611864	-0.6275059901	-2.033897133	 0.131281
H	 2.2472717359	 0.9712492772	-1.409465136	 0.117834
H	 0.4728919356	-6.8185992049	-0.7080136346	 0.190744
41.5377	76.737	89.8255	174.1512	218.505	224.3839	257.4126	264.3951	310.922	341.8475	388.7351	403.3246	499.6088	506.9884	547.7865	554.2457	601.5171	608.5023	654.4909	801.7995	917.4371	928.4927	1012.7736	1067.9794	1110.5774	1168.0527	1178.7022	1180.3785	1211.2546	1300.1531	1387.71	1407.7889	1471.5114	1474.2959	1478.2198	1497.2658	1499.312	1503.7443	1514.4355	2182.3741	2366.0233	2997.7149	3043.9396	3051.6467	3053.2796	3114.0258	3120.968	3126.4355	3135.0281	3136.9913	3505.4303
COC(C)(C)C#CC#C	COC(C)(C)C#CC#C	
InChI=1S/C8H10O/c1-5-6-7-8(2,3)9-4/h1H,2-4H3	InChI=1S/C8H10O/c1-5-6-7-8(2,3)9-4/h1H,2-4H3
