24
gdb 118871	2.85168	1.02295	0.90935	1.5851	89.34	-0.2242	0.0878	0.3121	1446.3891	0.217133	-368.377106	-368.367422	-368.366478	-368.411455	37.464	
C	-0.0990162951	 1.6204437795	 0.0823574456	-0.376507
C	-0.0238676808	 0.0904610119	 0.0884590754	-0.173782
C	-1.3927860106	-0.5673687131	-0.1307705432	-0.227383
C	-1.4038858753	-2.0964097242	-0.0419214854	 0.349124
C	-0.5714798537	-2.766276074	-1.1357804737	-0.457219
C	-1.1098715791	-2.7323658466	 1.3801061172	-0.277152
C	-2.5011957575	-3.3680997482	 1.3453155316	-0.038258
N	-3.4654052108	-2.2414831182	 1.2651817603	-0.339784
C	-2.8081234047	-2.7401076793	 0.0343903777	-0.101517
H	 0.8859644341	 2.0710958837	 0.2412323823	 0.106529
H	-0.485689125	 1.99365791	-0.8727079676	 0.111104
H	-0.7653615033	 1.9859121317	 0.8715143752	 0.115182
H	 0.6821845511	-0.2374877774	-0.6843439356	 0.092403
H	 0.3942851811	-0.2484037156	 1.0454563168	 0.095732
H	-2.1012056203	-0.1834168548	 0.6113754627	 0.114768
H	-1.781510298	-0.2686184915	-1.1157084455	 0.079262
H	 0.4918061787	-2.5276113007	-1.034961721	 0.118049
H	-0.672582965	-3.8564042385	-1.0932010215	 0.108878
H	-0.896286042	-2.4390961369	-2.1308514896	 0.108932
H	-0.2917200064	-3.4558513848	 1.3506524592	 0.096873
H	-0.9496863472	-2.0325306014	 2.204397394	 0.101639
H	-2.8076738742	-4.3254886164	 1.7488731146	 0.088102
H	-4.4017187951	-2.6452186952	 1.2855671471	 0.22514
H	-3.3979045807	-3.1074095201	-0.7986980666	 0.079884
83.4392	98.6831	136.6823	202.9127	243.1519	257.6053	282.2649	318.6086	349.4802	398.2754	449.6546	530.3926	656.5833	749.1688	776.9463	810.03	840.5916	853.6739	899.6342	902.1473	928.1968	950.5206	964.6822	981.1075	1012.8387	1046.4248	1050.5787	1085.9909	1097.4606	1118.366	1152.1772	1163.6217	1214.6254	1231.0443	1265.266	1287.0609	1299.7082	1319.069	1332.3671	1342.9018	1380.9052	1394.3453	1408.8853	1412.6454	1474.1543	1484.4246	1494.6948	1497.0194	1498.9268	1501.3191	1511.7548	2998.3047	3019.9191	3022.2707	3027.9466	3047.2182	3058.997	3073.3015	3085.2559	3095.6039	3098.6887	3100.7335	3115.8649	3166.1192	3187.5489	3469.4966
CCCC1(C)CC2NC12	CCC[C@@]1(C)C[C@H]2N[C@@H]12	
InChI=1S/C8H15N/c1-3-4-8(2)5-6-7(8)9-6/h6-7,9H,3-5H2,1-2H3	InChI=1S/C8H15N/c1-3-4-8(2)5-6-7(8)9-6/h6-7,9H,3-5H2,1-2H3/t6-,7-,8+/m1/s1
