19
gdb 69724	3.59841	1.57362	1.38147	2.1443	77.53	-0.2283	0.0825	0.3107	984.7754	0.160377	-385.810901	-385.803995	-385.803051	-385.841739	29.132	
C	-0.0284073974	 1.5193445238	 0.0535074602	-0.482286
C	-0.005193229	 0.0114241279	 0.0150373498	 0.328585
C	-0.8834239444	-0.8127924295	 0.9309171455	-0.343244
C	 0.6222876477	-0.8551649905	 1.0956492816	-0.110568
C	 1.3862139922	-1.8729206262	 0.2711907863	-0.044905
C	 0.5650603857	-2.2337267021	-1.0019643547	 0.029434
O	 1.7833847527	-2.3562797449	-1.8121895883	-0.319963
C	 1.9849746966	-1.1598528444	-0.9946977095	 0.051603
C	 0.5018142559	-0.6963732937	-1.2345879814	-0.100525
H	 0.9315707427	 1.9418202801	-0.2660173264	 0.116834
H	-0.8037421935	 1.9259421178	-0.6067110173	 0.119444
H	-0.2319779671	 1.8852758266	 1.0650639488	 0.115806
H	-1.4359269806	-0.2651571712	 1.6883811105	 0.109279
H	-1.4095178918	-1.6836924414	 0.5534298541	 0.110592
H	 1.0746466204	-0.4213998796	 1.9804981289	 0.086707
H	 1.9680277035	-2.6610797213	 0.7475563423	 0.077891
H	-0.2070225372	-2.9908673958	-1.141653795	 0.091653
H	 2.921140962	-0.6120922893	-1.115071596	 0.089791
H	 0.2246460019	-0.3348245864	-2.2248297992	 0.073869
193.6646	203.848	251.3415	333.1617	400.8603	502.6336	513.6524	562.5227	666.5556	763.7012	766.6955	819.4073	845.0295	878.6472	882.4485	891.5898	913.2436	954.2975	961.6765	977.7122	992.9149	1018.2428	1053.2012	1072.3119	1094.0625	1121.5897	1128.3092	1157.0907	1161.9616	1184.9213	1211.9053	1226.7179	1267.691	1290.8447	1321.7779	1340.1272	1398.0233	1420.5996	1487.6408	1496.7147	1501.9027	3020.2268	3077.9268	3094.9241	3102.0041	3107.354	3124.3217	3126.7071	3134.2904	3172.0995	3206.1517
CC12CC1C1C3OC1C23	C[C@]12C[C@H]1[C@H]1[C@@H]3O[C@H]1[C@H]23	
InChI=1S/C8H10O/c1-8-2-3(8)4-6-5(8)7(4)9-6/h3-7H,2H2,1H3	InChI=1S/C8H10O/c1-8-2-3(8)4-6-5(8)7(4)9-6/h3-7H,2H2,1H3/t3-,4-,5+,6-,7+,8-/m0/s1
