20
gdb 109732	1.97973	1.57493	1.03	4.711	76.96	-0.2476	0.0013	0.2489	1223.3824	0.16929	-440.293196	-440.2833	-440.282355	-440.328209	35.75	
C	 0.0400348529	 1.4288799166	 0.3996408812	-0.41879
C	-0.1280278378	-0.0200056962	 0.0000571177	-0.03255
C	 0.4999080476	-0.6261520759	-1.238768439	-0.04655
C	 1.4166874735	 0.1173831798	-2.1933578212	-0.079185
O	 2.3855897481	-0.7452141589	-2.7405480503	-0.425422
N	 0.9609133008	-0.9764834442	 0.0884571335	-0.086999
C	 2.2316158275	-0.8902846827	 0.6058318831	 0.381169
C	 2.304478337	-0.5759148481	 2.0865714506	-0.470707
O	 3.2290508307	-1.129412565	-0.0594125631	-0.368077
H	 1.0148213985	 1.8309654882	 0.1160356809	 0.13518
H	-0.7330608481	 2.037315287	-0.0808846108	 0.135937
H	-0.0754771896	 1.5468319516	 1.4820170605	 0.131292
H	-1.0901806388	-0.4403975843	 0.2935895504	 0.103806
H	-0.0579340686	-1.4268235327	-1.7237886198	 0.109541
H	 0.8198987949	 0.5029977746	-3.0282430628	 0.108497
H	 1.8762629177	 0.9820840891	-1.6925569104	 0.085093
H	 2.9072025718	-1.0590573603	-1.9816066756	 0.300111
H	 2.2110449173	 0.5047784097	 2.2404753586	 0.144502
H	 1.4975487781	-1.0633668719	 2.6384839419	 0.141199
H	 3.2736380067	-0.8956446464	 2.4698473845	 0.151954
62.6104	105.0926	141.1483	160.4306	176.9499	189.6065	240.6325	277.0987	370.0374	451.7015	468.2052	528.5143	603.7726	629.997	675.1558	691.8854	807.3496	860.9909	976.5653	999.7728	1011.4471	1051.2985	1060.7208	1089.8406	1102.1107	1134.706	1159.2562	1189.5113	1225.7567	1249.4806	1353.8885	1383.4068	1402.244	1413.8701	1416.9604	1460.9946	1474.8549	1479.9046	1480.6413	1491.5975	1496.6876	1507.6162	1737.6469	2993.8374	3042.5288	3049.1832	3059.7748	3098.7592	3101.8574	3116.7481	3117.8458	3134.9709	3161.1294	3641.2723
CC1C(CO)N1C(C)=O	C[C@H]1[C@@H](CO)N1C(=O)C	
InChI=1S/C6H11NO2/c1-4-6(3-8)7(4)5(2)9/h4,6,8H,3H2,1-2H3	InChI=1S/C6H11NO2/c1-4-6(3-8)7(4)5(2)9/h4,6,8H,3H2,1-2H3/t4-,6+,7?/m0/s1
