22
gdb 116956	6.10099	0.47153	0.46072	1.6224	93.12	-0.2409	0.0513	0.2922	2470.6886	0.193285	-367.165326	-367.154718	-367.153774	-367.203442	37.178	
C	-0.0361515771	 1.4541842624	 0.3746132778	-0.381384
C	-0.0555413465	-0.068379346	 0.2272650312	-0.152984
C	-1.4318852081	-0.5963953753	-0.2268689694	-0.334325
C	-1.4756420658	-2.0476720003	-0.3685368875	 0.043399
C	-1.4825825988	-3.2474053933	-0.4764853969	 0.10419
C	-1.5310437042	-4.7023448884	-0.6038767493	-0.390425
C	-2.8324406682	-5.3044746804	-0.0948238721	 0.052568
C	-2.8364372775	-6.6634659754	 0.4976145972	-0.249615
N	-3.0619590417	-5.4761910556	 1.3440035741	-0.306183
H	 0.9476627018	 1.8081205834	 0.6970926827	 0.114133
H	-0.2732154371	 1.9487244868	-0.5740750624	 0.115507
H	-0.7703161642	 1.7909949177	 1.1151288845	 0.116205
H	 0.7022628875	-0.3875825471	-0.4970153629	 0.107333
H	 0.2085460648	-0.543063643	 1.1789188782	 0.107321
H	-2.1968036896	-0.2754403595	 0.4933239659	 0.126203
H	-1.7026561761	-0.1240080362	-1.1811053395	 0.123042
H	-1.392650703	-4.9876210852	-1.6559922445	 0.13115
H	-0.6912674588	-5.1538902129	-0.05653614	 0.116995
H	-3.7159612309	-4.9684524736	-0.6332321604	 0.100637
H	-3.6987547912	-7.3134982091	 0.3798219614	 0.118984
H	-1.8856789381	-7.1866898351	 0.5723787199	 0.10789
H	-2.2130831374	-5.248461844	 1.857327102	 0.229357
18.5146	51.2276	66.4183	92.0182	137.	231.342	242.9594	302.937	312.3048	382.3156	384.2711	498.744	519.4789	743.6819	778.0804	800.3486	829.9369	873.4862	894.3581	923.3681	938.9552	977.0901	1041.2721	1049.643	1108.3991	1122.0909	1124.69	1149.0001	1162.2424	1176.0894	1246.0895	1259.6846	1265.8794	1307.1055	1311.006	1321.9065	1324.2683	1381.6494	1413.7015	1419.3179	1463.4147	1474.1959	1492.0149	1499.4687	1509.234	1513.8174	2367.8181	3000.4767	3008.3656	3029.9444	3031.8962	3034.7662	3040.7468	3072.7891	3100.1903	3104.1975	3105.0744	3133.0367	3188.7042	3489.3169
CCCC#CCC1CN1	CCCC#CC[C@H]1CN1	
InChI=1S/C8H13N/c1-2-3-4-5-6-8-7-9-8/h8-9H,2-3,6-7H2,1H3	InChI=1S/C8H13N/c1-2-3-4-5-6-8-7-9-8/h8-9H,2-3,6-7H2,1H3/t8-/m0/s1
