17
gdb 6943	2.65901	2.34615	1.70542	3.0818	69.3	-0.2157	0.0006	0.2162	840.2354	0.141997	-363.917072	-363.909065	-363.908121	-363.948922	30.319	
C	-0.0353133658	 1.5468233039	 0.0117618336	-0.413324
C	-0.0117969825	 0.007324294	-0.04558312	 0.121082
C	-1.4471100863	-0.5527532319	-0.055167607	-0.413328
C	 0.8433412331	-0.5317543934	-1.1730416261	-0.171233
C	 1.8590745875	-1.2311469632	-0.6602737227	-0.040359
N	 1.8087913246	-1.2419853493	 0.7435292	-0.334552
C	 0.7233101159	-0.5269821855	 1.2092806617	 0.408327
O	 0.4189123988	-0.359017805	 2.3688350191	-0.38774
H	 0.9770364957	 1.9607991127	-0.0054691241	 0.120807
H	-0.5845560805	 1.9529968745	-0.8435587649	 0.11191
H	-0.5258944254	 1.8745382134	 0.9330870072	 0.136924
H	-2.005198629	-0.1598194708	-0.9109471818	 0.111911
H	-1.4473453208	-1.6446673825	-0.120343992	 0.120806
H	-1.9629035112	-0.262439868	 0.8649315191	 0.13692
H	 0.6496742497	-0.3680614888	-2.2228245277	 0.102866
H	 2.6601120766	-1.7537525748	-1.1636106655	 0.128725
H	 2.4632138894	-1.7013742152	 1.354539251	 0.260258
96.526	203.7036	221.8387	242.2147	267.7114	289.8739	329.0532	450.9579	514.5098	585.9024	607.1476	714.1595	724.876	771.4387	788.5878	902.9302	914.1351	957.7656	969.5006	1029.0589	1070.6773	1113.7227	1160.5205	1172.3684	1244.7199	1265.4916	1372.5603	1388.4976	1401.8617	1421.296	1481.5455	1485.3091	1498.9722	1508.2739	1665.9501	1828.7008	3033.9395	3037.1636	3107.552	3110.3223	3115.6179	3118.6744	3228.3445	3251.4261	3664.072
CC1(C)C=CNC1=O	CC1(C)C=CNC1=O	
InChI=1S/C6H9NO/c1-6(2)3-4-7-5(6)8/h3-4H,1-2H3,(H,7,8)	InChI=1S/C6H9NO/c1-6(2)3-4-7-5(6)8/h3-4H,1-2H3,(H,7,8)
