21
gdb 111248	3.28895	1.17533	1.08175	2.4476	78.01	-0.2446	0.0735	0.3181	1202.2845	0.184576	-424.204689	-424.196453	-424.195509	-424.237528	32.062	
O	-0.1239697975	 1.4037485631	-0.2685900708	-0.423486
C	-0.0186508695	 0.032745267	 0.0941880879	-0.129032
C	-1.4089331606	-0.5693781198	 0.0118968995	 0.056402
C	-1.9926090043	-0.7295791989	-1.4208932216	-0.031298
C	-1.3308470564	-2.1375329504	-1.477674974	-0.237237
C	-1.4792955884	-2.1215633524	 0.0716622737	-0.059432
C	-2.9217219047	-2.5167954977	 0.4151066047	-0.072131
O	-3.8302433033	-2.1272594427	-0.6078094821	-0.263512
C	-3.5081173914	-0.9208635753	-1.294107213	-0.078255
H	 0.7523097243	 1.796739115	-0.2205444138	 0.286839
H	 0.67937453	-0.4980686764	-0.5714500354	 0.084397
H	 0.3649827073	-0.0791195341	 1.1219427372	 0.083593
H	-2.0550147068	-0.0369284839	 0.7210272034	 0.066036
H	-1.7416967391	 0.0267705733	-2.1672587597	 0.074598
H	-1.8579843965	-2.921972476	-2.0253121869	 0.104126
H	-0.2899237075	-2.101007505	-1.8015865558	 0.097389
H	-0.7603394837	-2.6609805643	 0.6957887604	 0.059085
H	-3.0227332939	-3.605068762	 0.4979669722	 0.102401
H	-3.2081479321	-2.0762943457	 1.384964097	 0.086174
H	-3.9526665412	-0.0496867719	-0.7853037147	 0.090662
H	-3.9799602348	-1.011684362	-2.2790911882	 0.102682
86.9266	143.2122	181.9131	240.9048	285.5689	302.8647	375.1968	413.706	490.3783	543.2161	646.5293	816.3152	828.5552	854.2416	863.929	901.0231	917.9573	967.7825	990.9118	1011.3701	1039.5397	1067.9572	1081.4611	1089.0722	1096.3113	1136.0358	1149.7704	1160.2422	1213.0199	1237.9479	1247.0162	1249.5051	1271.1543	1282.5754	1304.1792	1314.2921	1323.4419	1377.0072	1387.534	1419.7633	1459.4336	1493.163	1506.1786	1515.2559	1522.6357	2960.5629	2961.7858	2970.6226	2991.4407	3028.4307	3051.0433	3055.7927	3062.7978	3075.7228	3094.1435	3130.6059	3829.4896
OCC1C2CC1COC2	OC[C@H]1[C@H]2C[C@@H]1COC2	
InChI=1S/C7H12O2/c8-2-7-5-1-6(7)4-9-3-5/h5-8H,1-4H2	InChI=1S/C7H12O2/c8-2-7-5-1-6(7)4-9-3-5/h5-8H,1-4H2/t5-,6+,7-
