19
gdb 69957	3.49781	1.43814	1.24527	1.9099	73.42	-0.2432	0.0702	0.3134	1038.5898	0.160596	-422.998824	-422.991293	-422.990349	-423.030612	30.359	
O	-0.1615277454	 1.3893471399	-0.1384389351	-0.468654
C	-0.0436062484	 0.0096653442	 0.0494440783	 0.396219
C	-0.3054842125	-0.902869909	-1.1120400447	-0.345654
C	-1.2972603577	-0.8383457595	 0.0367701553	-0.093759
C	-1.1590445235	-1.9126103197	 1.0974379138	 0.103429
O	-0.7502831449	-3.2211156318	 0.615184971	-0.290888
C	 0.5402143287	-3.1084044762	 1.2505826664	-0.088653
C	 0.2130988763	-1.7060063382	 1.8019252937	-0.065265
C	 0.8775782777	-0.4634263928	 1.1788766667	-0.319727
H	 0.5537562474	 1.6745327132	-0.7168265007	 0.282941
H	-0.6187856736	-0.4232073445	-2.0331299657	 0.111621
H	 0.2654941883	-1.8154897996	-1.2419336686	 0.126172
H	-2.2622087819	-0.3814877037	-0.1465569695	 0.092135
H	-2.0518338775	-1.9919517375	 1.7257608028	 0.075
H	 0.6870265225	-3.8871247516	 2.0092792414	 0.099932
H	 1.3657258519	-3.1610748064	 0.527311801	 0.093806
H	 0.1895800452	-1.6561497997	 2.8910447711	 0.082792
H	 1.8989920298	-0.6692328491	 0.8358340867	 0.096164
H	 0.9382398077	 0.3489683719	 1.9094650464	 0.11239
107.2708	159.7776	262.717	292.6372	348.0732	378.2899	417.6253	523.987	568.8765	651.8193	696.2357	796.2953	824.2538	873.1185	885.5038	913.5645	924.28	928.8818	951.2961	1003.1849	1023.5151	1043.0729	1065.6382	1071.4885	1080.301	1111.578	1162.6336	1188.3388	1197.1038	1247.5638	1264.0922	1279.9906	1299.722	1336.0039	1339.7747	1344.218	1366.8693	1402.4857	1479.0333	1495.3676	1526.6985	3000.1141	3031.5303	3043.6258	3054.2541	3080.5079	3103.55	3134.1959	3186.9103	3224.0049	3801.5593
OC12CC1C1OCC1C2	O[C@]12C[C@H]1[C@H]1OC[C@H]1C2	
InChI=1S/C7H10O2/c8-7-1-4-3-9-6(4)5(7)2-7/h4-6,8H,1-3H2	InChI=1S/C7H10O2/c8-7-1-4-3-9-6(4)5(7)2-7/h4-6,8H,1-3H2/t4-,5+,6+,7-/m1/s1
