18
gdb 19470	4.7315	1.5007	1.4389	1.7558	71.3	-0.2339	0.0026	0.2365	951.3847	0.154349	-347.756193	-347.749094	-347.74815	-347.787477	27.915	
C	-0.004586772	 1.5489879579	-0.1025513589	-0.382518
C	-0.0203012121	 0.039565608	 0.1667623839	-0.208523
C	-1.4188975086	-0.5582626611	 0.0985243214	 0.042312
C	-2.0056289624	-0.8414381924	-1.3337739741	 0.00839
O	-1.1529366787	-2.032392079	-1.3849633787	-0.286371
C	-1.5155323893	-2.1238796922	 0.0332199265	-0.003382
C	-3.036747076	-2.3350418418	-0.0456731886	-0.082773
C	-3.3744940928	-1.4507714051	-0.9873440521	-0.081045
H	 1.0096069445	 1.9526007055	-0.0264301007	 0.115028
H	-0.3770003767	 1.7796091711	-1.1065434535	 0.116095
H	-0.6326029822	 2.0891829173	 0.6148527689	 0.113191
H	 0.623969941	-0.4810456143	-0.5482077961	 0.116443
H	 0.3931671387	-0.1532946511	 1.1658147132	 0.09286
H	-2.1023741964	-0.0697157757	 0.8000323246	 0.067752
H	-1.8991910599	-0.1695258591	-2.1848005917	 0.077615
H	-0.8903561778	-2.7965918463	 0.6199062514	 0.076309
H	-3.635843373	-3.0182663132	 0.5376020428	 0.109489
H	-4.3341019364	-1.1913192184	-1.4089854483	 0.109127
95.3399	166.5238	203.5215	296.3322	372.1932	484.4416	537.1452	621.9513	699.1559	744.757	768.9942	854.5461	858.5851	871.9343	885.419	906.0601	908.3219	950.619	960.8408	1006.8243	1069.4685	1087.6765	1119.428	1154.916	1162.0508	1201.6354	1236.6678	1238.3893	1285.908	1298.9407	1300.4294	1341.6113	1394.0944	1411.8835	1488.4524	1500.4898	1506.132	1613.4478	3019.8209	3030.4816	3059.1964	3080.0375	3101.7568	3104.6319	3126.8809	3131.0051	3232.527	3259.8077
CCC1C2OC1C=C2	CC[C@H]1[C@H]2O[C@@H]1C=C2	
InChI=1S/C7H10O/c1-2-5-6-3-4-7(5)8-6/h3-7H,2H2,1H3	InChI=1S/C7H10O/c1-2-5-6-3-4-7(5)8-6/h3-7H,2H2,1H3/t5-,6-,7+
