19
gdb 107490	2.31229	1.69716	1.27061	1.2733	75.69	-0.2237	0.0742	0.2979	1071.7663	0.157261	-422.945957	-422.937385	-422.936441	-422.978983	32.788	
C	 0.0659092923	 1.4129420081	 0.2291834445	-0.253454
O	-0.0397658518	 0.0097897152	 0.0186507794	-0.274424
C	 0.5899527276	-0.4527550212	-1.1087879209	 0.268007
C	 1.5217035601	-1.6380086773	-1.0655084495	-0.343755
C	 1.9973285972	-0.336435091	-1.6616573076	-0.000291
O	 1.5219224211	-0.1891466723	-3.0060462045	-0.31406
C	 0.1573385532	-0.240086279	-2.5465537326	 0.39997
C	-0.9290299791	-0.8588075169	-3.3580548366	-0.339484
C	-0.8942172843	 0.6467605844	-3.1219513699	-0.352193
H	 1.1143397377	 1.7154368433	 0.3502992203	 0.112989
H	-0.3701171445	 1.9880635523	-0.595621055	 0.122982
H	-0.4814424303	 1.6316477535	 1.1484900195	 0.129893
H	 1.9066474623	-1.8425262526	-0.0707231631	 0.118875
H	 1.3633833733	-2.5053348231	-1.7004375129	 0.115496
H	 2.8877220981	 0.2085114668	-1.3749236455	 0.110725
H	-0.6622559557	-1.2129361151	-4.3476719082	 0.126799
H	-1.6858914015	-1.4459016448	-2.8481837859	 0.122112
H	-1.6337285537	 1.0753963975	-2.4540123191	 0.122378
H	-0.6026746821	 1.2807078222	-3.9523500623	 0.127438
109.8285	141.8482	157.8798	176.6262	222.5793	268.0253	402.9706	440.6928	470.6555	533.8345	607.8142	630.9144	760.1536	808.9121	865.0454	880.1471	884.8306	957.0111	965.4652	983.467	999.3534	1021.2757	1046.8653	1061.2121	1070.6128	1085.9425	1088.5515	1155.6394	1178.6599	1189.543	1213.9817	1251.2014	1274.455	1367.7383	1405.6316	1445.6309	1464.5749	1485.9361	1493.7083	1506.5683	1511.3197	3011.3729	3074.8818	3114.2828	3128.0453	3130.6432	3132.5296	3195.8142	3211.9401	3214.6385	3228.4303
COC12CC1OC21CC1	CO[C@]12C[C@H]1OC12CC1	
InChI=1S/C7H10O2/c1-8-7-4-5(7)9-6(7)2-3-6/h5H,2-4H2,1H3	InChI=1S/C7H10O2/c1-8-7-4-5(7)9-6(7)2-3-6/h5H,2-4H2,1H3/t5-,7-/m1/s1
