19
gdb 121194	2.50836	1.06151	0.80978	2.0611	78.12	-0.2524	0.0187	0.2711	1435.3011	0.156846	-422.951688	-422.941933	-422.940989	-422.98745	34.269	
C	 0.0699600217	 1.359237187	-0.1206891483	-0.227933
O	 0.0237985554	-0.0437432248	-0.0096851051	-0.238015
C	 0.6975023286	-0.5273720269	 1.1326314912	-0.078883
C	 0.5964096285	-2.0397700532	 1.1086986185	-0.074446
C	 1.4682336596	-2.7444345484	 0.052201723	-0.071504
O	 2.3275345047	-3.3123672222	 1.0684005588	-0.280862
C	 1.4782798106	-2.8179905557	 2.1324037485	-0.066455
C	 2.1939455526	-2.0738574442	 3.1566417679	 0.344313
C	 2.7740050409	-1.4655349761	 4.0162821586	-0.458042
H	 1.1045192075	 1.7292646361	-0.1970622048	 0.106461
H	-0.4717457311	 1.6336820112	-1.0290444153	 0.128065
H	-0.4068965713	 1.8526519691	 0.7409294505	 0.105373
H	 1.7541837171	-0.2132660718	 1.1252433174	 0.10104
H	 0.2478268038	-0.1239806386	 2.0552172851	 0.094637
H	-0.4539391929	-2.3362943618	 1.1130576567	 0.091851
H	 0.9615626571	-3.521522449	-0.5321497836	 0.103507
H	 2.016416198	-2.0827241583	-0.6271562051	 0.113674
H	 0.9346363813	-3.6473817554	 2.6060357088	 0.104332
H	 3.292811258	-0.931819237	 4.774124447	 0.202888
51.8252	84.6083	95.6074	104.9948	180.2464	225.592	242.0078	328.3558	361.4917	463.126	526.6874	557.935	626.6354	673.5128	799.1026	854.9766	892.632	934.04	974.6054	999.0883	1018.6774	1065.8763	1120.956	1144.5891	1157.0314	1172.4372	1192.9022	1216.7985	1242.4788	1249.8146	1277.3545	1337.5011	1359.0414	1369.5826	1428.0398	1482.7392	1486.5684	1503.4992	1521.3369	1530.5638	2232.2162	2960.274	2974.4105	2993.8085	3000.7958	3016.7701	3025.9266	3071.9682	3099.7177	3115.3328	3501.4046
COCC1COC1C#C	COC[C@H]1CO[C@H]1C#C	
InChI=1S/C7H10O2/c1-3-7-6(4-8-2)5-9-7/h1,6-7H,4-5H2,2H3	InChI=1S/C7H10O2/c1-3-7-6(4-8-2)5-9-7/h1,6-7H,4-5H2,2H3/t6-,7-/m0/s1
