16
gdb 62553	2.27299	1.58217	1.32123	3.1433	67.39	-0.2672	-0.0641	0.2032	1031.2068	0.121524	-475.022169	-475.01319	-475.012245	-475.056225	32.351	
C	-0.1410340751	 1.5585410489	 0.019468515	-0.423061
C	-0.0266473524	 0.0475967339	 0.1143788506	 0.253206
O	-1.2935519938	-0.4719142529	 0.3554130623	-0.45077
C	 0.8508769599	-0.6240879708	-1.0392593791	-0.03415
O	 1.8784368501	-0.9210391208	-0.057434881	-0.256944
C	 1.1150721084	-0.4588126908	 0.9989728026	 0.389891
N	 1.3171520469	-0.4838898642	 2.2315021801	-0.539268
C	 0.2221802595	-1.8764594565	-1.6045137138	 0.161709
O	-0.0919979456	-2.8087324112	-0.9059090177	-0.26109
H	 0.8245271535	 2.015693853	-0.2101432261	 0.129231
H	-0.8603308222	 1.8263378089	-0.7596876145	 0.133022
H	-0.4975514537	 1.9504627463	 0.9750256606	 0.155529
H	-1.2097956533	-1.419153632	 0.5279922262	 0.306167
H	 1.2279428564	 0.0433208685	-1.8178638892	 0.099387
H	 2.2010422733	-0.9369924166	 2.4692531411	 0.236756
H	 0.0146201282	-1.8720002838	-2.6951232171	 0.100386
63.5186	74.9163	182.2937	211.1886	226.5609	276.8683	287.9366	324.7089	413.9837	474.9419	539.3738	657.3626	682.353	705.7378	822.283	828.0942	867.0226	907.7039	984.9835	991.6256	1004.8453	1058.23	1116.2087	1130.3475	1185.0147	1258.3866	1275.6309	1365.0156	1397.9276	1414.279	1423.6634	1479.2361	1492.4365	1811.352	1837.2422	2913.0502	3050.227	3089.9931	3128.7394	3136.8116	3480.6994	3769.9078
CC1(O)C(OC1=N)C=O	C[C@@]1(O)[C@@H](O[C]1[NH])C=O	
InChI=1S/C5H7NO3/c1-5(8)3(2-7)9-4(5)6/h2-3,6,8H,1H3	InChI=1S/C5H7NO3/c1-5(8)3(2-7)9-4(5)6/h2-3,6,8H,1H3/t3-,5+/m0/s1
