15
gdb 66052	2.52614	1.33507	1.139	2.1081	73.93	-0.2601	0.0022	0.2623	1113.3885	0.108513	-420.521898	-420.51272	-420.511776	-420.555993	33.498	
O	 0.1255788452	 1.4086233653	 0.0300788882	-0.438991
C	 0.0728683972	 0.0040469177	 0.0034732312	 0.139597
C	 0.0812865582	-0.5313722697	 1.4532993192	-0.100411
O	-1.3180309244	-0.8731153434	 1.3985977905	-0.277561
C	-1.3916945615	-0.5943038427	-0.0155047596	-0.111845
C	-2.4495363139	 0.3134545951	-0.4074600887	 0.304872
C	-3.3014253964	 1.0792954986	-0.7727797104	-0.412201
C	 0.9990566774	-0.5763969645	-0.9582441606	 0.308781
C	 1.7440706765	-1.0507212519	-1.773781157	-0.46829
H	-0.2258671016	 1.7394315255	-0.8058110269	 0.2901
H	 0.7164968891	-1.4083191793	 1.6153855165	 0.113844
H	 0.2931049657	 0.2440370845	 2.1947682909	 0.130323
H	-1.4475833552	-1.524449553	-0.5951310397	 0.108914
H	-4.0690954934	 1.7459663993	-1.0810278295	 0.207125
H	 2.4123233672	-1.4669876014	-2.4871013939	 0.205742
59.3051	119.1693	136.5692	163.2235	221.788	257.6519	350.3517	389.8915	445.9381	498.3069	554.9424	604.2126	630.6672	644.8988	649.2185	669.7126	683.4959	839.9521	935.0268	965.1012	987.739	1019.8814	1057.4591	1137.9614	1146.7824	1193.7442	1267.8746	1332.667	1357.4506	1377.9765	1506.6678	2231.0488	2235.2025	3024.7532	3042.6991	3105.3038	3498.9851	3499.4619	3788.6305
OC1(COC1C#C)C#C	O[C@]1(CO[C@H]1C#C)C#C	
InChI=1S/C7H6O2/c1-3-6-7(8,4-2)5-9-6/h1-2,6,8H,5H2	InChI=1S/C7H6O2/c1-3-6-7(8,4-2)5-9-6/h1-2,6,8H,5H2/t6-,7-/m0/s1
