16
gdb 126914	3.4091	1.03356	0.80462	4.2747	71.51	-0.199	-0.0155	0.1835	1381.57	0.122675	-471.176039	-471.166795	-471.165851	-471.211094	32.33	
C	 0.1018043121	 1.5042787989	-0.046232813	-0.400265
C	-0.0051544423	 0.0077522074	 0.2221182267	-0.123727
N	-1.3419121054	-0.4755581446	-0.121527953	-0.410556
C	-1.6333482196	-1.8049076409	-0.1166796061	 0.450009
C	-2.8343495312	-2.4787951827	-0.0863560107	 0.201587
O	-4.073489652	-1.9319814562	 0.0026259706	-0.448161
N	-2.5637637235	-3.7960035861	-0.165079989	-0.186931
N	-1.3168576248	-4.0180561389	-0.236391611	-0.065976
O	-0.6656242323	-2.7092710236	-0.2061752079	-0.228013
H	 1.1049932654	 1.8611160331	 0.2010421495	 0.131452
H	-0.0983910362	 1.7280912323	-1.0977640226	 0.135947
H	-0.6105081925	 2.069062939	 0.5660640382	 0.120668
H	 0.7129928415	-0.5428471311	-0.3915954695	 0.141583
H	 0.2399729272	-0.2106181714	 1.2725616577	 0.112948
H	-2.111045522	 0.1054968447	 0.180818662	 0.25866
H	-4.7073060443	-2.6561658299	 0.0572788882	 0.310773
45.0267	77.1758	116.4732	149.7302	249.7417	271.5339	288.3686	337.3167	362.1876	486.2132	534.7315	634.5419	659.8642	672.0769	716.8596	804.5053	841.97	929.1917	992.3242	1073.4937	1137.0558	1152.7711	1170.6443	1254.0813	1300.6427	1355.8239	1385.3198	1415.182	1418.5232	1486.45	1496.8756	1502.6689	1514.0628	1526.1043	1714.2777	2991.2088	3037.7527	3085.652	3110.7504	3127.7274	3599.5477	3821.6904
CCNC1=C(O)N=NO1	CCNc1c(O)nno1	
InChI=1S/C4H7N3O2/c1-2-5-4-3(8)6-7-9-4/h5,8H,2H2,1H3	InChI=1S/C4H7N3O2/c1-2-5-4-3(8)6-7-9-4/h5,8H,2H2,1H3
