21
gdb 105035	2.2313	1.13593	1.11756	3.1436	79.13	-0.2298	-0.0156	0.2142	1287.1286	0.178748	-424.207369	-424.196873	-424.195929	-424.243855	37.38	
C	 0.8742027429	-0.3320537231	-0.995832046	-0.254628
O	-0.1120169772	 0.0684225917	-0.0726560664	-0.296848
C	-1.3717392211	-0.5548700799	-0.1155685822	 0.438342
C	-1.8737081038	-1.3098226271	-1.3191544585	-0.342482
C	-1.5180621313	-2.0521148893	-0.0397082138	-0.335002
C	-2.3633827414	 0.3037087064	 0.6630060159	-0.112156
C	-1.8839190711	 0.5775026892	 2.1002752109	-0.413973
C	-2.5929754769	 1.618575792	-0.0645023972	 0.161196
O	-3.6752133316	 2.0368863934	-0.3899108732	-0.257642
H	 1.7800646997	 0.2193900361	-0.7334887967	 0.133183
H	 1.0972207093	-1.4068519712	-0.9380725002	 0.112495
H	 0.59954647	-0.0835477471	-2.0298352085	 0.117132
H	-2.9183275491	-1.1956609956	-1.5882899061	 0.128631
H	-1.2156659871	-1.4523673923	-2.1676805558	 0.11929
H	-0.6173462547	-2.6560385019	-0.0570755211	 0.119542
H	-2.3140733209	-2.4616862513	 0.5726687506	 0.119491
H	-3.3274591281	-0.2134597534	 0.687035226	 0.091044
H	-2.6347428631	 1.1463174612	 2.6560653698	 0.124041
H	-1.7081803601	-0.3665622801	 2.6246239005	 0.124033
H	-0.9470725712	 1.1396402238	 2.0987026512	 0.138892
H	-1.6638635634	 2.1918287184	-0.2761361291	 0.085419
38.4686	56.8473	76.2836	180.1533	202.0278	213.6203	230.5224	272.6806	310.8216	343.2932	414.9152	434.162	511.2355	565.0151	714.8794	769.6322	862.7525	889.9779	907.8924	930.904	959.9452	967.0127	1036.5954	1065.1397	1074.6269	1108.1467	1135.5668	1162.0058	1178.1563	1186.4907	1212.6284	1252.3787	1295.3254	1306.0627	1376.3662	1398.9756	1418.7604	1457.5853	1484.9986	1493.2214	1493.988	1499.7367	1502.6496	1510.9762	1828.7753	2895.8069	2993.9941	3044.695	3047.7408	3068.3107	3114.304	3117.3849	3131.0287	3132.9896	3140.5625	3213.4997	3228.5863
COC1(CC1)C(C)C=O	COC1(CC1)[C@@H](C)C=O	
InChI=1S/C7H12O2/c1-6(5-8)7(9-2)3-4-7/h5-6H,3-4H2,1-2H3	InChI=1S/C7H12O2/c1-6(5-8)7(9-2)3-4-7/h5-6H,3-4H2,1-2H3/t6-/m0/s1
