18
gdb 111340	2.43888	1.54954	1.12261	2.4051	72.74	-0.2342	0.0638	0.2981	1123.9346	0.146384	-438.990461	-438.982067	-438.981122	-439.023805	31.225	
C	-0.3034760162	 1.3556126068	 0.1843956053	-0.236843
O	 0.2266162414	 0.0831258967	-0.1167751624	-0.238201
C	 0.7535146156	-0.5748806364	 0.9925126936	 0.064862
C	-0.1771878671	-1.1939358057	 2.0636192588	-0.104307
N	-0.9578676127	-2.265963615	 1.4047225203	-0.327971
C	 0.4348718498	-2.5398980729	 1.8471824429	-0.178398
C	 1.2989182772	-1.9919528415	 0.7274165544	 0.453297
C	 1.7823880688	-2.6014712247	-0.5028210683	-0.252332
O	 2.6769083792	-2.2504364578	 0.5753653909	-0.292245
H	 0.4584706757	 2.0188088133	 0.6236933698	 0.104387
H	-0.6536595733	 1.7909392213	-0.7540664497	 0.130824
H	-1.1513165465	 1.2908054839	 0.882043479	 0.110706
H	 1.5340391334	 0.0260902696	 1.4882971036	 0.080675
H	-0.5121905825	-0.7391189803	 2.987221525	 0.097751
H	-1.577479558	-2.6585011678	 2.1139318241	 0.232817
H	 0.6764103377	-3.3183956605	 2.558835216	 0.108384
H	 1.6470855783	-3.6689661689	-0.6666568655	 0.117322
H	 1.8744414594	-1.98946503	-1.3972249578	 0.129274
71.6476	124.9927	159.9821	191.4859	260.5174	282.8382	315.6563	464.5989	495.5438	578.5709	648.3857	760.1581	823.884	836.517	884.1925	890.974	917.3269	963.3075	984.7013	1032.806	1050.1808	1098.8757	1113.6982	1122.2313	1141.2349	1158.1987	1178.7227	1182.0192	1214.2445	1235.0231	1294.6077	1313.5162	1357.7217	1379.0563	1458.7466	1482.3846	1489.5917	1507.3099	1542.0575	2971.0703	2978.7635	3027.1196	3094.486	3120.3838	3187.609	3191.757	3209.8685	3466.4911
COC1C2NC2C11CO1	CO[C@H]1[C@H]2N[C@H]2[C@]21CO2	
InChI=1S/C6H9NO2/c1-8-5-3-4(7-3)6(5)2-9-6/h3-5,7H,2H2,1H3	InChI=1S/C6H9NO2/c1-8-5-3-4(7-3)6(5)2-9-6/h3-5,7H,2H2,1H3/t3-,4+,5-,6-/m0/s1
