18
gdb 49195	4.24255	1.10426	0.98507	3.4018	80.73	-0.2231	-0.0611	0.162	1212.1958	0.149118	-401.945365	-401.937748	-401.936804	-401.977838	28.918	
O	 0.0215197708	-0.1048119406	-0.1949669438	-0.267179
C	 0.0824296889	 1.0718917121	 0.0881734864	 0.070553
C	 1.2994143197	 1.8774515735	-0.0288629411	 0.233573
C	 1.3970610682	 3.1825252341	 0.2655988935	-0.184663
C	 2.7851909338	 3.6858365855	-0.0070196602	-0.015701
C	 3.7113151168	 3.9460046331	 1.2133177785	-0.246292
C	 4.2477573683	 2.5125320797	 0.9777097285	-0.163457
N	 3.568443952	 2.4566075219	-0.3466153077	-0.09619
C	 2.6266787847	 1.3421174848	-0.5391175197	-0.283275
H	-0.8091047557	 1.6208009732	 0.4654075551	 0.06962
H	 0.5858546809	 3.8094556423	 0.6212650415	 0.114718
H	 2.7835674686	 4.4703149156	-0.7760076168	 0.091428
H	 4.4464472181	 4.730362932	 1.0262253573	 0.116364
H	 3.2190411899	 4.134088511	 2.1684844692	 0.108507
H	 5.3340713044	 2.394131224	 0.9210030949	 0.108425
H	 3.8542251772	 1.7835909676	 1.6993500863	 0.098477
H	 2.9579248618	 0.4519381294	 0.0078734906	 0.123449
H	 2.5515094317	 1.0504734707	-1.5948760326	 0.121646
89.5917	126.5312	173.4224	210.331	356.9829	389.1684	443.2602	505.1511	677.9286	688.2894	752.1002	778.6563	849.5603	878.8477	891.5352	925.7353	957.1844	971.2061	1029.4667	1039.2623	1068.3281	1084.0342	1120.5759	1181.8068	1189.0658	1209.8199	1231.3667	1247.0292	1267.5005	1281.9822	1326.1543	1333.5415	1352.5088	1417.6973	1484.65	1495.524	1519.6684	1670.0043	1781.4644	2881.4149	3004.7814	3008.6248	3020.225	3061.5947	3070.709	3081.9246	3137.0896	3192.1459
O=CC1=CC2CCN2C1	O=CC1=C[C@H]2CCN2C1	
InChI=1S/C7H9NO/c9-5-6-3-7-1-2-8(7)4-6/h3,5,7H,1-2,4H2	InChI=1S/C7H9NO/c9-5-6-3-7-1-2-8(7)4-6/h3,5,7H,1-2,4H2/t7-/m1/s1
