18
gdb 71091	2.54901	1.58569	1.32212	4.4268	82.06	-0.2579	0.0163	0.2742	1039.4488	0.148651	-364.792104	-364.784355	-364.783411	-364.824144	30.44	
C	 0.0156308334	 1.5797209563	 0.0183879154	-0.501589
C	-0.0397921635	 0.0780246362	 0.0083491894	 0.250228
C	 0.3830461958	-0.7516795504	-1.240501075	-0.268197
C	-0.5727971344	-1.8322941764	-0.7441774039	-0.117766
C	-0.4967121256	-1.8452955466	 0.7776386854	-0.117772
C	 0.5046712041	-0.7723960877	 1.1945884752	-0.268191
C	-1.3684045074	-0.8178897501	 0.0671306819	 0.248633
C	-2.7445373298	-0.5213772122	 0.1384659057	 0.1154
N	-3.8702025813	-0.2496251749	 0.1970939141	-0.371373
H	 1.0557148559	 1.9233558289	-0.0303066058	 0.126072
H	-0.5181776872	 2.0043186573	-0.8379395151	 0.130866
H	-0.4303933296	 1.9892364563	 0.9304691003	 0.130877
H	 0.0222148229	-0.2971738748	-2.1670133004	 0.112107
H	 1.4463036709	-0.9986624918	-1.3360947735	 0.097899
H	-0.987114971	-2.6679775663	-1.2923394655	 0.111401
H	-0.8549953132	-2.6905714002	 1.3500447817	 0.1114
H	 1.5719637713	-1.0200092027	 1.1795701469	 0.097891
H	 0.2383028688	-0.3340117809	 2.1600264031	 0.112114
121.3565	131.035	205.3551	283.5765	299.2331	408.1488	436.5412	530.7115	552.6846	557.569	616.8046	710.6515	771.7847	815.2548	885.2732	893.9514	901.6301	948.8002	992.1836	1001.7436	1020.7201	1034.6805	1091.0121	1121.2403	1124.1723	1143.9319	1209.9814	1223.4211	1247.2467	1248.2211	1303.1958	1341.0049	1411.5766	1419.7542	1485.2083	1491.0241	1492.7615	1509.3366	2333.1251	3028.2377	3035.8131	3042.7488	3094.0239	3101.152	3105.1235	3105.3581	3206.1227	3215.6281
CC12CC3C(C1)C23C#N	C[C@@]12C[C@H]3[C@@H](C1)[C@@]23C#N	
InChI=1S/C8H9N/c1-7-2-5-6(3-7)8(5,7)4-9/h5-6H,2-3H2,1H3	InChI=1S/C8H9N/c1-7-2-5-6(3-7)8(5,7)4-9/h5-6H,2-3H2,1H3/t5-,6+,7+,8-
