17
gdb 13432	3.82602	1.24704	1.11388	5.466	68.79	-0.2666	0.0442	0.3107	1098.6239	0.141195	-363.860645	-363.851879	-363.850934	-363.894469	31.205	
C	-0.0253940769	 1.571834605	-0.1433208331	-0.418932
C	 0.0222267701	 0.0646478477	-0.0100783008	-0.079236
C	 1.3289699934	-0.6929618179	-0.1414669741	 0.082037
O	 2.5261937476	 0.0238478413	-0.2329923733	-0.412731
C	 0.6368054368	-0.6326382987	 1.1934491941	-0.046273
C	 1.2583600853	 0.1591205258	 2.3366484727	-0.354489
C	 1.9885539999	-0.7069398933	 3.2634348798	 0.25972
N	 2.5505399239	-1.4004441596	 3.9971788443	-0.309572
H	 0.9305041906	 2.0326251073	 0.1158051683	 0.128188
H	-0.2602074806	 1.8583403962	-1.1742724721	 0.119182
H	-0.7982843972	 2.0064170678	 0.4994324409	 0.124566
H	-0.8474884469	-0.4433499107	-0.4191677007	 0.092398
H	 1.3287877855	-1.6446123781	-0.6711110127	 0.094942
H	 2.6064694756	 0.3660645826	-1.1294725819	 0.294905
H	 0.1427820493	-1.5437596393	 1.5150671406	 0.10836
H	 1.9555532619	 0.9051817706	 1.9473608073	 0.169062
H	 0.4873401216	 0.6924348832	 2.9051225308	 0.147873
43.6359	117.5499	147.8029	189.1886	219.9824	266.1165	305.3235	385.0865	441.605	511.0395	562.8363	598.2112	761.9524	801.4221	894.2092	918.9373	936.1281	995.0652	1010.8027	1069.287	1120.3529	1146.827	1153.1111	1180.9672	1248.6389	1250.1203	1290.8925	1312.4161	1379.6812	1392.7341	1418.4358	1452.5912	1469.1205	1498.6569	1506.6861	2362.8162	3035.2925	3044.9114	3090.5119	3106.7847	3107.9745	3119.9367	3139.5476	3162.5543	3809.5577
CC1C(O)C1CC#N	C[C@H]1[C@@H](O)[C@H]1CC#N	
InChI=1S/C6H9NO/c1-4-5(2-3-7)6(4)8/h4-6,8H,2H2,1H3	InChI=1S/C6H9NO/c1-4-5(2-3-7)6(4)8/h4-6,8H,2H2,1H3/t4-,5+,6-/m1/s1
