17
gdb 45172	2.93419	1.93438	1.64505	2.916	72.72	-0.2327	0.0155	0.2482	871.6001	0.140147	-417.976282	-417.970096	-417.969152	-418.006642	26.099	
N	-0.0728684546	 1.2666957993	-0.1239066798	-0.54675
C	-0.0358362105	 0.0116755076	 0.0209966218	 0.402867
O	 1.1314503744	-0.7149881355	 0.0731424087	-0.257016
C	 0.9435289167	-2.017246731	 0.6454176401	 0.066108
C	 0.1798114944	-1.8800494416	 1.9842703736	-0.261369
C	-1.1103167225	-1.9929684465	 1.1569810972	-0.048776
C	-0.3455788407	-2.725687763	 0.0225603072	-0.004282
N	-1.0487675411	-1.94552063	-0.9912922828	-0.304148
C	-1.2487428835	-0.8785646183	 0.0419492091	-0.077507
H	 0.8758119824	 1.6482125988	-0.1498874411	 0.220317
H	 1.9110120523	-2.5160597854	 0.6090024755	 0.089821
H	 0.3122067752	-2.7620488421	 2.6175868797	 0.111919
H	 0.3755732516	-0.9755079811	 2.5664832594	 0.117031
H	-2.0495081387	-2.3402688196	 1.5836153812	 0.086991
H	-0.282666138	-3.8073615235	-0.1104707964	 0.079257
H	-0.4963791418	-1.6560997823	-1.797622473	 0.225306
H	-2.1714664656	-0.3052075259	-0.0331517003	 0.10023
137.0546	324.529	384.0146	411.489	450.5524	542.813	631.7317	674.6396	754.9408	766.9117	805.2072	819.2661	840.2084	884.4425	910.4428	950.7251	971.8015	997.9952	1014.6973	1039.8399	1047.7811	1084.8907	1095.3063	1129.9869	1151.9755	1191.8654	1217.2808	1238.9991	1263.4813	1277.3851	1294.793	1314.7928	1322.0857	1369.4187	1391.4488	1479.2213	1765.0479	3055.6644	3092.275	3112.5935	3125.5975	3125.9452	3135.1772	3455.7158	3465.271
N=C1OC2CC3C2NC13	[NH][C]1O[C@H]2C[C@@H]3[C@H]2N[C@H]13	
InChI=1S/C6H8N2O/c7-6-5-2-1-3(9-6)4(2)8-5/h2-5,7-8H,1H2	InChI=1S/C6H8N2O/c7-6-5-2-1-3(9-6)4(2)8-5/h2-5,7-8H,1H2/t2-,3+,4-,5+/m1/s1
