12
gdb 130720	2.54272	1.8961	1.23975	4.8303	65.91	-0.2657	-0.1018	0.1639	935.7518	0.078644	-468.815267	-468.808216	-468.807272	-468.847153	25.576	
O	-0.0078857891	-0.0163911832	-0.5631103341	-0.311747
C	 0.0155866693	 1.1312371567	-0.2045765801	 0.353509
N	-1.1795983708	 1.8294095504	 0.0349046791	-0.258373
N	-1.4496463586	 3.0672190141	 0.4881352572	-0.150225
C	-0.6407569454	 4.0618097302	 0.3303042085	-0.003335
C	 0.6277139097	 4.078480641	-0.3901315973	-0.005717
N	 1.4644977072	 3.1206720446	-0.5243676034	-0.209401
C	 1.3008568224	 1.9040539965	 0.1327629232	 0.286847
O	 2.1246127647	 1.4225310652	 0.8628843116	-0.27231
H	-1.9858029194	 1.2168280931	 0.0803735457	 0.285653
H	-1.0307895025	 5.0135933508	 0.6807224821	 0.140828
H	 0.8668038925	 5.0207873405	-0.8889713825	 0.14427
89.3276	128.5893	265.5243	309.3982	333.9617	400.8337	482.3543	576.83	627.8094	677.943	707.7213	790.0023	840.8694	853.4851	931.3383	939.9886	1000.134	1071.5083	1168.0269	1248.0728	1406.455	1417.2085	1461.1415	1606.5937	1702.9334	1810.6953	1827.1823	3105.3682	3171.9466	3567.4734
O=C1NN=CC=NC1=O	O=c1[nH]nccnc1=O	
InChI=1S/C4H3N3O2/c8-3-4(9)7-6-2-1-5-3/h1-2H,(H,5,7,8,9)	InChI=1S/C4H3N3O2/c8-3-4(9)7-6-2-1-5-3/h1-2H,(H,5,7,8,9)
