15
gdb 66533	2.98001	1.65247	1.25993	1.3458	77.16	-0.2146	0.0293	0.2439	983.0118	0.110422	-383.339423	-383.332002	-383.331058	-383.370942	29.938	
O	 0.2824895374	 1.3391345079	 0.280116849	-0.43875
C	 0.1442404146	-0.0056816037	 0.1112909642	 0.309409
C	 0.941400679	-1.0166823788	-0.7050767455	-0.194913
C	 0.8980068336	-1.0947706268	 0.8306385493	-0.146515
C	-0.3356543045	-2.0362705217	 0.7383601134	-0.145815
C	-0.2977848452	-1.9518589037	-0.7712372891	-0.150987
C	-1.1360113351	-0.9332115481	 0.0230551775	 0.25368
C	-2.5214102326	-0.6741323248	-0.0026735941	 0.020616
C	-3.7000454751	-0.4232153458	-0.0291964564	-0.379717
H	 0.0459592581	 1.7804744992	-0.5446833956	 0.295161
H	 1.7929597125	-0.8789450858	-1.3567438517	 0.097318
H	 1.7059664023	-1.0137902596	 1.543661864	 0.101109
H	-0.7220912484	-2.8068228306	 1.3920996557	 0.101907
H	-0.6566065114	-2.6420553485	-1.523069143	 0.101501
H	-4.7392748554	-0.2081576992	-0.0459633178	 0.175997
120.8614	149.7861	285.5203	311.2127	376.6387	479.4283	486.1168	543.5409	548.5835	626.0812	653.4383	653.5563	744.7914	798.2668	838.8077	845.9576	875.5049	877.7651	888.9653	905.4907	934.9388	965.5142	1015.1961	1043.399	1156.7587	1175.2494	1201.7179	1230.6216	1238.3913	1305.5822	1380.4257	1471.9048	2222.2787	3195.2931	3207.6148	3212.5349	3223.0293	3503.5401	3775.3084
OC12C3C1C1C3C21C#C	O[C@@]12[C@H]3[C@@H]1[C@@H]1[C@H]3[C@]21C#C	
InChI=1S/C8H6O/c1-2-7-3-4(7)6-5(3)8(6,7)9/h1,3-6,9H	InChI=1S/C8H6O/c1-2-7-3-4(7)6-5(3)8(6,7)9/h1,3-6,9H/t3-,4+,5-,6+,7+,8+
