14
gdb 25684	6.21371	0.77787	0.69433	4.3175	80.6	-0.2154	-0.026	0.1894	1561.6329	0.099811	-436.682372	-436.673919	-436.672975	-436.717509	29.503	
C	-0.1321647711	 1.432907996	 0.0479196708	-0.511723
C	-0.0283956121	-0.0151899947	 0.0104004079	 0.242404
C	 0.0552903546	-1.2184449506	-0.0201939718	-0.10752
C	 0.142486248	-2.6152092067	-0.0534896396	 0.185292
C	 1.1529429562	-3.4607986698	-0.2882573554	-0.164468
O	 0.6994198483	-4.7551580287	-0.199364813	-0.209487
C	-0.6469545388	-4.6877036953	 0.1030235621	 0.489186
N	-1.4490971542	-5.6368219411	 0.2734418943	-0.584595
O	-1.0013840687	-3.3772812482	 0.1953520803	-0.227503
H	 0.5257788942	 1.8593846927	 0.8130620722	 0.159279
H	 0.139774164	 1.8765093663	-0.9161762599	 0.159279
H	-1.1577048894	 1.7391254696	 0.2798711782	 0.165354
H	 2.1915663442	-3.3078972436	-0.5195074521	 0.16692
H	-0.978859035	-6.5305870059	 0.159262236	 0.237581
16.5367	85.4422	93.4645	192.4798	300.4482	302.5613	436.8237	455.4357	464.8079	564.0784	633.6265	728.3516	750.0111	761.1437	774.7661	898.2471	939.2377	1008.9558	1027.8101	1049.7764	1050.0034	1113.9349	1208.369	1313.0303	1336.1596	1411.4137	1470.0284	1473.7461	1698.8381	1815.7276	2359.7247	3029.2253	3090.5262	3097.7016	3308.5387	3550.9122
CC#CC1=COC(=N)O1	CC#CC1=CO[C@@H]([NH])O1	
InChI=1S/C6H5NO2/c1-2-3-5-4-8-6(7)9-5/h4,7H,1H3	InChI=1S/C6H6NO2/c1-2-3-5-4-8-6(7)9-5/h4,6-7H,1H3/t6-/m1/s1
