20
gdb 86255	3.01735	1.15339	0.8755	5.6665	90.22	-0.1988	-0.0251	0.1737	1345.5295	0.170735	-403.180484	-403.171061	-403.170117	-403.214888	34.048	
C	-0.1702940332	 1.5671209606	-0.0133374143	-0.401846
C	 0.0561779127	 0.0520487106	-0.0144339452	-0.102736
C	 0.9423316205	-0.4434556763	-1.1945993736	-0.185082
N	 1.8356040617	-1.4471070099	-0.5955669589	-0.030463
C	 2.959790503	-1.9649148513	-1.3361948313	-0.331143
C	 1.7886268074	-1.3252676937	 0.7569376336	-0.071622
C	 0.8097126598	-0.4908952536	 1.1951205213	 0.135287
C	 0.4814111992	-0.2709249624	 2.5752285815	 0.061133
O	-0.4331527388	 0.4253113123	 2.9883595461	-0.321843
H	 0.7846197761	 2.1025343371	 0.0285064999	 0.106827
H	-0.6997839024	 1.885396711	-0.9183077773	 0.104102
H	-0.7596505418	 1.8523570956	 0.8597862038	 0.156585
H	-0.9255833075	-0.4379288946	-0.0657298048	 0.09364
H	 0.3707781269	-0.8802538491	-2.0196853286	 0.114587
H	 1.5447477935	 0.3824966295	-1.6061993398	 0.101952
H	 3.6589256922	-1.1695619456	-1.6397363444	 0.123872
H	 3.5033713816	-2.6881424032	-0.7233784162	 0.138071
H	 2.6153527399	-2.474730108	-2.2424242982	 0.135444
H	 2.4793697546	-1.8989742666	 1.3652614811	 0.131764
H	 1.1519897544	-0.8036692722	 3.2911069953	 0.04147
77.1962	97.883	155.9238	175.2683	205.4613	235.744	257.5098	315.363	378.5631	407.8562	473.2734	538.8358	602.0509	737.795	786.2732	905.5669	917.9317	927.9994	953.1485	1022.2146	1062.7851	1082.5341	1120.3009	1130.6247	1161.6207	1174.7112	1224.5967	1291.9536	1303.5752	1310.2964	1352.224	1374.1361	1405.4113	1414.2435	1453.5526	1472.5473	1480.1561	1490.7107	1506.1554	1510.8622	1537.7743	1650.9632	1747.0678	2836.8939	2973.0943	2980.271	3006.494	3030.824	3063.545	3067.2747	3093.5249	3120.7118	3140.9961	3199.5095
CC1CN(C)C=C1C=O	C[C@H]1CN(C)C=C1C=O	
InChI=1S/C7H11NO/c1-6-3-8(2)4-7(6)5-9/h4-6H,3H2,1-2H3	InChI=1S/C7H11NO/c1-6-3-8(2)4-7(6)5-9/h4-6H,3H2,1-2H3/t6-/m0/s1
