24
gdb 117082	2.73795	0.98176	0.86958	1.1712	87.09	-0.256	0.0375	0.2935	1518.2857	0.214706	-405.576029	-405.564748	-405.563804	-405.612618	41.38	
C	-0.2349754348	 1.5133450175	 0.0126551329	-0.391391
C	-0.034709975	 0.0093123289	 0.0025380687	-0.026667
O	-1.3334573658	-0.6001551451	 0.0115559515	-0.256557
C	-1.3774255208	-1.9499192275	 0.0043953903	 0.412116
N	-0.3022267266	-2.6264627448	-0.0093817349	-0.557158
C	-2.8333463113	-2.4316852964	 0.0160131517	 0.176864
C	-2.9006822797	-3.9660112898	 0.0087040584	-0.434621
C	-3.5243119177	-1.8918061886	 1.2876049961	-0.404653
C	-3.5488149059	-1.8787091533	-1.2362542952	-0.40466
H	 0.7359748962	 2.0177661838	 0.0062297528	 0.119366
H	-0.7977956764	 1.8396594392	-0.8668188295	 0.124761
H	-0.7810254666	 1.8299646796	 0.9061341208	 0.124763
H	 0.5123631408	-0.3270517298	-0.8844638427	 0.117372
H	 0.5290992753	-0.3366437918	 0.8752591815	 0.117365
H	-0.4981623407	-3.6233237751	-0.012726633	 0.220548
H	-2.4145454009	-4.3973981554	 0.8899671626	 0.118842
H	-3.9458052332	-4.2903649377	 0.0172068152	 0.115311
H	-2.4318576056	-4.3881790044	-0.8862964197	 0.11884
H	-3.4878329819	-0.8012136036	 1.3194719657	 0.130457
H	-4.5734785661	-2.204917771	 1.3074541665	 0.108925
H	-3.0401815697	-2.2757629261	 2.1916831042	 0.115399
H	-3.0823043771	-2.2531424436	-2.1534943488	 0.115402
H	-4.5981729551	-2.1917974217	-1.23902129	 0.108932
H	-3.5129435914	-0.7878405735	-1.2574620153	 0.130445
34.7872	88.8996	111.198	144.3126	197.2335	244.1641	253.4991	283.5014	295.1793	305.6994	330.0628	365.7588	377.137	397.1694	501.2274	574.6793	737.0151	786.1718	804.5541	861.5895	878.3958	907.0205	937.5611	946.6925	965.2676	1033.1533	1051.8625	1057.5975	1115.0662	1136.0812	1183.4177	1229.8955	1243.8249	1254.0925	1286.4558	1350.224	1393.2651	1394.7408	1404.0099	1419.6349	1437.3258	1476.9002	1485.5268	1490.4296	1492.7647	1495.7249	1500.9118	1505.6023	1520.1825	1526.0221	1709.0629	3030.4081	3033.8397	3039.025	3043.215	3046.0592	3080.9322	3097.1568	3098.9851	3101.6159	3106.2203	3117.6686	3120.8657	3131.0235	3134.7395	3540.6164
CCOC(=N)C(C)(C)C	CCO[C]([NH])C(C)(C)C	
InChI=1S/C7H15NO/c1-5-9-6(8)7(2,3)4/h8H,5H2,1-4H3	InChI=1S/C7H15NO/c1-5-9-6(8)7(2,3)4/h8H,5H2,1-4H3
