13
gdb 25946	3.01442	1.64095	1.06254	0.9151	60.12	-0.2405	-0.0066	0.2338	1016.5932	0.09049	-489.979038	-489.971664	-489.97072	-490.011164	27.465	
N	-0.0061146432	 1.335230717	 0.0114569959	-0.572913
C	 0.1085878894	-0.0074008261	 0.0015036854	 0.499671
O	 1.1330446775	-0.6519683706	-0.0118832362	-0.38498
N	-1.1526011485	-0.6842346112	 0.0111081848	-0.229592
C	-1.2696594814	-2.0803903297	 0.0078282083	-0.089083
C	-2.5757066497	-2.3502075244	 0.017835435	-0.053698
O	-3.3038345861	-1.1722962846	 0.0272724261	-0.209142
C	-2.4257719278	-0.1261470843	 0.02283158	 0.536695
O	-2.7502552273	 1.0365930625	 0.0286293321	-0.420785
H	 0.8439429078	 1.8706093096	-0.0010347036	 0.274253
H	-0.918860993	 1.7733417844	 0.0164285975	 0.296951
H	-0.3945313818	-2.7041094403	-0.0013173793	 0.186265
H	-3.1415514959	-3.2642819022	 0.0199890137	 0.166356
88.7153	135.02	249.8266	266.1885	344.955	406.1958	442.3516	586.8725	620.5979	642.1238	652.0459	716.8543	770.696	781.3324	789.0533	832.0175	909.8781	1024.0101	1084.9372	1129.1137	1139.7113	1220.334	1277.2085	1364.7277	1405.6915	1608.4317	1662.6201	1831.9537	1858.6242	3303.3711	3326.9796	3523.8787	3724.3816
NC(=O)N1C=COC1=O	NC(=O)n1ccoc1=O	
InChI=1S/C4H4N2O3/c5-3(7)6-1-2-9-4(6)8/h1-2H,(H2,5,7)	InChI=1S/C4H4N2O3/c5-3(7)6-1-2-9-4(6)8/h1-2H,(H2,5,7)
