16
gdb 50725	2.3867	1.60633	1.0735	3.8605	67.63	-0.2534	-0.0257	0.2277	1095.6902	0.124006	-475.025007	-475.016861	-475.015917	-475.058902	29.28	
N	-0.0110276446	 1.1839183177	-0.5585817651	-0.514333
C	 0.0352591354	 0.0431315504	-0.0126584612	 0.357508
O	 1.1934611597	-0.5086469249	 0.4214677545	-0.251662
C	 1.1745411959	-1.7655105095	 1.1195666796	-0.075808
C	 0.0285045864	-2.6323838459	 0.6459597557	-0.100274
O	-1.1836596714	-1.9385037011	 0.8629317292	-0.239803
C	-1.2639787783	-0.7585903903	 0.1075296776	-0.059004
C	-2.3579798635	 0.1408783205	 0.7045154092	 0.141275
O	-3.0387442024	-0.1805981446	 1.6366599503	-0.228902
H	 0.918852082	 1.6039915691	-0.6009272638	 0.227346
H	 2.146843532	-2.2281238868	 0.9301720231	 0.125307
H	 1.0731058038	-1.5701658158	 2.1935089169	 0.131289
H	 0.1531331619	-2.8978410625	-0.4163595423	 0.106467
H	-0.0218107311	-3.5543383072	 1.2313297729	 0.129689
H	-1.5796462157	-0.978304779	-0.9293798527	 0.126231
H	-2.4503080199	 1.1107399099	 0.1811281862	 0.124673
36.6469	101.4714	124.4069	230.0112	290.4216	347.1695	414.342	481.0282	488.7829	572.2594	662.5753	711.6548	757.1873	883.916	890.2888	923.105	956.2388	1024.3847	1049.6539	1088.6742	1134.1642	1158.8455	1190.9295	1257.3129	1271.6136	1284.8727	1326.0625	1335.9209	1391.7911	1414.2472	1431.3294	1493.6629	1503.3756	1737.15	1848.8948	2937.732	2972.2465	2983.1305	3041.8696	3100.8569	3104.8952	3477.189
N=C1OCCOC1C=O	[NH][C]1OCCO[C@H]1C=O	
InChI=1S/C5H7NO3/c6-5-4(3-7)8-1-2-9-5/h3-4,6H,1-2H2	InChI=1S/C5H7NO3/c6-5-4(3-7)8-1-2-9-5/h3-4,6H,1-2H2/t4-/m0/s1
