16
gdb 20952	7.35129	1.12603	0.98858	1.2881	67.39	-0.2075	0.025	0.2325	1157.2322	0.131937	-379.929972	-379.922335	-379.921391	-379.962502	27.598	
C	-0.062637938	 1.5351618317	 0.0110727875	-0.39121
C	-0.001575549	 0.0189193639	 0.0028640069	-0.049186
O	-1.3369709981	-0.4738786501	 0.0106341586	-0.276078
C	-1.4681716043	-1.8226630178	 0.0047313297	 0.285125
C	-2.6806016225	-2.4876902428	 0.0106151035	-0.153299
N	-2.3690656527	-3.8106570524	 0.0014758064	-0.171627
N	-1.0531390098	-4.0544489756	-0.0099014773	-0.22924
C	-0.488560983	-2.8444171198	-0.0079896494	-0.11902
H	 0.9484925402	 1.9527416966	 0.0053280795	 0.119126
H	-0.5959134018	 1.9036912075	-0.869562085	 0.130638
H	-0.5821151325	 1.8946653467	 0.9036045539	 0.130637
H	 0.5242024501	-0.348507572	-0.890648756	 0.103888
H	 0.5378731877	-0.3575676354	 0.8843757449	 0.103888
H	-3.6938589533	-2.1231133026	 0.0202489952	 0.132971
H	-3.0080890171	-4.5866430283	 0.0024056391	 0.275048
H	 0.5861846643	-2.7554269198	-0.0157676176	 0.10834
64.9414	94.5628	160.0051	250.0025	336.962	350.9808	455.0253	490.9863	650.4175	695.1818	710.1995	752.0599	824.0852	849.4742	917.7305	943.6229	1017.4161	1060.1415	1092.8871	1141.8139	1168.0297	1186.5127	1266.0913	1296.0643	1338.434	1381.8689	1401.087	1406.5746	1435.1333	1484.1919	1500.8396	1508.7565	1526.8515	1631.7664	2987.5782	3021.7133	3047.3025	3122.3325	3125.4621	3260.2598	3277.5103	3680.797
CCOC1=CNN=C1	CCOc1c[nH]nc1	
InChI=1S/C5H8N2O/c1-2-8-5-3-6-7-4-5/h3-4H,2H2,1H3,(H,6,7)	InChI=1S/C5H8N2O/c1-2-8-5-3-6-7-4-5/h3-4H,2H2,1H3,(H,6,7)
