23
gdb 112698	2.90761	0.9924	0.79766	1.4244	89.05	-0.2353	0.0221	0.2574	1528.5788	0.205111	-388.316033	-388.305945	-388.305001	-388.351135	37.772	
C	-0.0310841201	 1.5298529973	 0.1850712992	-0.38663
C	 0.0053577869	 0.0077779436	 0.0206863867	-0.175359
C	 0.6685093039	-0.4676079869	-1.2834026668	-0.009381
C	 0.8268385441	-2.0065818729	-1.3758345882	-0.269085
C	 0.5915734926	-2.3778139312	-2.8584321456	 0.055972
O	-0.0879335894	-3.6139881062	-3.0544081611	-0.432608
C	-0.1426764721	-1.1679044073	-3.4119314062	 0.267369
C	-0.7579706715	-1.2037917925	-4.7747792353	-0.485321
C	-0.0955231473	-0.1491573044	-2.5510731126	-0.177064
H	 0.9793704067	 1.9534458955	 0.1650448789	 0.114326
H	-0.6063476806	 2.0105871146	-0.6128671512	 0.117741
H	-0.490687464	 1.8132997878	 1.1370640776	 0.112229
H	 0.5480839328	-0.4330012517	 0.8670643216	 0.094479
H	-1.0146780054	-0.3964788024	 0.0665107248	 0.089964
H	 1.6622575423	 0.0054077264	-1.3366704957	 0.074676
H	 1.7837552543	-2.3678259807	-0.9907655723	 0.100008
H	 0.0399014671	-2.4873540821	-0.7796441465	 0.089057
H	 1.5417081251	-2.5187523514	-3.391822721	 0.088991
H	-0.9340746487	-3.5497270624	-2.5968106038	 0.272251
H	-1.43613461	-2.0581263742	-4.8752598447	 0.127957
H	-1.3109645254	-0.2870496282	-4.9958793969	 0.117744
H	 0.0113388236	-1.333580554	-5.5474431472	 0.126814
H	-0.5184417551	 0.8324061832	-2.7431003436	 0.085869
57.7806	104.8505	136.0311	163.9383	203.3	245.6723	247.744	322.2272	340.6035	368.9835	432.8421	474.6646	564.6325	612.7719	630.8402	779.5823	811.6875	855.2571	872.0724	949.0881	958.6514	990.6999	1006.227	1030.1374	1062.3905	1065.2299	1089.4879	1108.6551	1132.6326	1186.0067	1213.7025	1261.2164	1274.2556	1278.7857	1299.4177	1327.3388	1339.0326	1367.4776	1377.8712	1411.5496	1413.1996	1425.2256	1474.772	1483.8896	1488.1891	1489.5597	1500.4618	1507.0311	1720.8906	2968.9535	3011.4175	3013.7327	3021.8033	3026.2892	3032.1708	3047.2989	3074.677	3096.6901	3098.2822	3103.1465	3115.1668	3173.9711	3791.101
CCC1CC(O)C(C)=C1	CC[C@H]1C[C@@H](O)C(=C1)C	
InChI=1S/C8H14O/c1-3-7-4-6(2)8(9)5-7/h4,7-9H,3,5H2,1-2H3	InChI=1S/C8H14O/c1-3-7-4-6(2)8(9)5-7/h4,7-9H,3,5H2,1-2H3/t7-,8-/m1/s1
