21
gdb 84161	2.58987	1.29741	0.97327	2.8808	85.73	-0.2323	-0.0105	0.2218	1287.829	0.182319	-387.139647	-387.13039	-387.129445	-387.173742	34.889	
C	-0.2187664931	 1.5026281525	 0.0792509482	-0.395537
C	 0.0317081639	-0.0222707267	 0.005464759	-0.123592
C	 0.7632164992	-0.4167894161	-1.2528063842	-0.146929
C	 1.9294058219	-1.0658691066	-1.3015967828	 0.297882
C	 2.5740674688	-1.4709157958	-2.5991957949	-0.475961
C	 2.6650355066	-1.4590237348	-0.0398636077	-0.302498
C	 2.254393449	-0.6046892655	 1.1718140286	-0.308745
C	 0.7459419071	-0.47942404	 1.2775733664	 0.383396
O	 0.1391940817	-0.6965792819	 2.300973402	-0.323541
H	 0.7243775971	 2.057512548	 0.1138884962	 0.11898
H	-0.7703879591	 1.8392532867	-0.8040349211	 0.119557
H	-0.8037468485	 1.7499657969	 0.9690824485	 0.135512
H	-0.9524814514	-0.5091152875	 0.0230829629	 0.104082
H	 0.2633714763	-0.1542409876	-2.1843573325	 0.079545
H	 1.9635657372	-1.1899844678	-3.4611695164	 0.121836
H	 3.5628009538	-1.0077170357	-2.7122114241	 0.123285
H	 2.7355914409	-2.5562469544	-2.6359872128	 0.125273
H	 2.4823231932	-2.5223423257	 0.1734894062	 0.121387
H	 3.7472879616	-1.3756943334	-0.1975047595	 0.10668
H	 2.6437750315	-1.0016533719	 2.1118172567	 0.117461
H	 2.6584597722	 0.4082219573	 1.0368602013	 0.121927
54.394	129.2977	159.0025	203.9184	230.2575	248.1745	322.9767	361.6432	405.1278	451.3389	484.8688	517.4879	640.6286	707.9515	739.7759	782.7371	867.71	888.0923	942.9615	979.0276	984.0551	1015.6129	1053.0333	1064.6616	1090.3223	1112.421	1169.249	1185.7343	1209.2207	1258.6971	1301.195	1314.9328	1329.6138	1357.5814	1391.4727	1402.2924	1414.0608	1463.7622	1479.068	1486.19	1491.7273	1496.4978	1499.9269	1740.1096	1815.4629	3004.5222	3014.7382	3018.6591	3020.2871	3036.3251	3046.9962	3059.9993	3106.0702	3110.5794	3113.1016	3121.8577	3131.3905
CC1C=C(C)CCC1=O	C[C@H]1C=C(C)CCC1=O	
InChI=1S/C8H12O/c1-6-3-4-8(9)7(2)5-6/h5,7H,3-4H2,1-2H3	InChI=1S/C8H12O/c1-6-3-4-8(9)7(2)5-6/h5,7H,3-4H2,1-2H3/t7-/m0/s1
