16
gdb 46448	3.58423	1.2032	1.10363	2.1825	76.69	-0.2185	-0.0245	0.1939	1116.949	0.124051	-400.714111	-400.706205	-400.705261	-400.746515	30.691	
O	 0.0025608099	 0.0173238409	 0.1465090819	-0.322486
C	 0.0051742587	 1.2143032662	 0.0063535936	 0.413654
C	-1.2479015996	 2.0941519044	-0.1868139879	-0.304215
N	-0.8078986635	 3.3947006342	-0.7176218568	-0.355936
C	 0.6491655956	 3.4670352746	-0.5587812644	 0.179036
C	 1.1371133463	 3.3368687921	 0.8487255948	-0.312838
C	 1.1931665564	 2.112352045	-0.0592431686	-0.219146
C	 1.3538844348	 4.2629269133	-1.5162129435	 0.206187
C	 1.9217689021	 4.9295295054	-2.3401995618	-0.395503
H	-1.9526023064	 1.5969877192	-0.8569616463	 0.140395
H	-1.7533832297	 2.2065696041	 0.7815148533	 0.139325
H	-1.0095438031	 3.4406797259	-1.7100587296	 0.234033
H	 2.0941371256	 3.7845267575	 1.0857682138	 0.1423
H	 0.40400195	 3.3702081657	 1.6478472706	 0.133607
H	 2.1530756544	 1.7036403607	-0.3447809699	 0.122868
H	 2.4317645485	 5.520656551	-3.0602212594	 0.198719
95.393	133.8861	160.5768	258.8	379.7875	416.5385	483.0846	527.8729	539.628	583.572	597.9677	636.3733	676.3313	686.2125	770.4173	810.99	852.2443	911.9081	935.0776	984.0382	1024.901	1048.648	1069.0437	1076.1495	1166.0748	1202.2238	1235.7622	1258.0314	1317.1939	1352.2528	1458.0661	1475.1419	1490.0059	1836.4831	2241.6269	3024.8822	3107.3325	3139.6093	3211.5198	3236.7775	3501.2031	3538.4229
O=C1CNC2(CC12)C#C	O=C1CN[C@]2(C[C@@H]12)C#C	
InChI=1S/C7H7NO/c1-2-7-3-5(7)6(9)4-8-7/h1,5,8H,3-4H2	InChI=1S/C7H7NO/c1-2-7-3-5(7)6(9)4-8-7/h1,5,8H,3-4H2/t5-,7-/m0/s1
