16
gdb 128678	3.36981	1.32628	0.9633	3.4812	67.25	-0.2101	0.0472	0.2572	1173.4091	0.124612	-471.243826	-471.234652	-471.233708	-471.278222	31.4	
C	-0.0087499505	 1.3784569847	 0.0227585538	-0.239907
O	 0.0260111913	-0.0533903909	-0.0151163451	-0.26497
C	 0.6412804588	-0.5736776638	-1.0732089577	 0.523192
N	 1.1982346312	 0.0718179931	-2.0496101286	-0.340817
N	 1.6762583693	-0.9549390718	-2.8604915478	-0.32967
C	 1.4142859283	-2.2131059666	-2.3865255855	 0.466122
O	 1.6871982147	-3.3039424924	-2.8424750424	-0.430969
N	 0.7217929042	-1.9344543384	-1.189974023	-0.203687
C	 0.2149830644	-2.9518191922	-0.2959145972	-0.348166
H	 1.0063209521	 1.7850372298	 0.0374685507	 0.146993
H	-0.5362792306	 1.7711033323	-0.8509958392	 0.146963
H	-0.5389167379	 1.6360766724	 0.9391499417	 0.139589
H	 2.1628345272	-0.7377867409	-3.7109569497	 0.2782
H	 0.4803162019	-3.9131398462	-0.7398748009	 0.17177
H	 0.6696934168	-2.8674757408	 0.6950401809	 0.142682
H	-0.8716703113	-2.8818865083	-0.1950298998	 0.142677
82.4225	104.9586	130.1029	154.119	181.8967	196.6166	275.0373	277.2002	397.6742	453.014	580.6749	668.3666	694.4769	758.3371	782.3599	801.6931	957.9821	1058.0962	1105.7525	1162.462	1182.3925	1211.7948	1218.5071	1251.7004	1329.2794	1392.4037	1429.0135	1462.064	1477.6193	1492.0407	1500.716	1511.6981	1554.097	1672.5499	1846.4313	3046.1062	3046.6497	3110.7984	3119.9521	3147.6322	3162.5512	3709.099
COC1=NNC(=O)N1C	COc1n[nH]c(=O)n1C	
InChI=1S/C4H7N3O2/c1-7-3(8)5-6-4(7)9-2/h1-2H3,(H,5,8)	InChI=1S/C4H7N3O2/c1-7-3(8)5-6-4(7)9-2/h1-2H3,(H,5,8)
