16
gdb 35890	2.09074	1.669	1.0124	6.6917	73.11	-0.2681	0.0032	0.2713	1132.3248	0.126967	-396.952267	-396.944053	-396.943109	-396.987768	29.511	
N	-0.2848442373	-1.1808441442	-0.253132547	-0.314836
C	-0.1359231538	-0.0460766886	-0.0930236876	 0.291253
C	-0.0042723918	 1.3849122355	 0.1431716508	-0.179789
C	-0.5518293939	 1.8225860626	 1.5505250007	-0.189158
N	 0.2450303262	 2.9678889766	 1.9652387806	-0.271115
C	 1.5990444337	 2.65445581	 1.5326346907	-0.189186
C	 1.468474037	 1.9529962198	 0.1314307179	-0.179872
C	 2.5236846501	 0.9792258174	-0.1118433362	 0.291278
N	 3.3938283926	 0.2371286763	-0.2781212267	-0.314849
H	-0.5703414674	 1.8993312067	-0.638789697	 0.137339
H	-1.6163561436	 2.0594816233	 1.5214641309	 0.132012
H	-0.4040764486	 1.0021947549	 2.2604066095	 0.143999
H	-0.0842991203	 3.8093206265	 1.5012870515	 0.229548
H	 2.226333351	 3.5459459337	 1.4886741096	 0.131989
H	 2.0523313356	 1.9528897185	 2.2405338636	 0.144018
H	 1.5322613707	 2.7087833312	-0.6567412112	 0.137369
5.0724	113.1582	182.5039	186.6725	281.8778	310.411	466.8032	473.9939	540.8374	554.3771	595.1955	684.3363	761.5587	819.4685	897.2772	917.8878	992.2211	999.5218	1044.3189	1049.4917	1087.9334	1128.3241	1181.3313	1252.6012	1275.1905	1312.9232	1325.1137	1335.4004	1364.4176	1375.5167	1471.7066	1492.1819	1506.0513	2359.6142	2361.56	3054.7338	3059.3886	3062.7148	3076.2161	3130.1062	3131.1164	3511.038
N#CC1CNCC1C#N	N#C[C@H]1CNC[C@H]1C#N	
InChI=1S/C6H7N3/c7-1-5-3-9-4-6(5)2-8/h5-6,9H,3-4H2	InChI=1S/C6H7N3/c7-1-5-3-9-4-6(5)2-8/h5-6,9H,3-4H2/t5-,6+
