23
gdb 84368	2.26091	1.5266	1.2223	1.2538	86.8	-0.238	0.0251	0.2632	1174.6382	0.204455	-388.308208	-388.298186	-388.297242	-388.342183	38.757	
C	 0.811017336	 1.6028870523	-0.0146550216	-0.379466
C	 0.0652748855	 0.2596511095	-0.0715320013	-0.09111
C	 0.4752956841	-0.5967517955	-1.2475089382	-0.086355
C	 1.1807313082	-1.6646590992	-0.8809058705	-0.090115
C	 1.3872884001	-1.7607655905	 0.6176484087	 0.244545
C	 1.056289135	-3.1601937896	 1.1647856186	-0.435167
C	 2.8405457649	-1.4049780682	 0.9938095346	-0.414031
C	 0.355226934	-0.7041771557	 1.1262115162	 0.072825
O	 0.8259910658	-0.0854315564	 2.3120343057	-0.426915
H	 1.8943309782	 1.4614018619	 0.008331199	 0.127485
H	 0.5684870468	 2.2099172533	-0.893171767	 0.107958
H	 0.5314442691	 2.1734796846	 0.8761934319	 0.101827
H	-1.0102294872	 0.4834052895	-0.110902919	 0.064894
H	 0.2367376757	-0.3263986714	-2.2713975527	 0.08876
H	 1.6035516875	-2.3996336676	-1.5593098416	 0.086303
H	 1.7669537047	-3.9072878227	 0.7943797423	 0.106914
H	 1.1065117627	-3.1652203333	 2.2590687467	 0.12017
H	 0.0511962723	-3.4766674422	 0.8671709672	 0.108663
H	 3.1239182586	-0.4152411114	 0.6288166415	 0.117863
H	 2.9717178082	-1.4153264913	 2.078916095	 0.125902
H	 3.5298721949	-2.1348454382	 0.5552558393	 0.101318
H	-0.5785298829	-1.2455788906	 1.3398491172	 0.06335
H	 0.1075649178	 0.4320546525	 2.6875689779	 0.28438
80.978	165.6853	193.2337	212.6405	237.5428	255.2745	269.4387	285.5589	308.7403	336.033	358.5679	466.6498	525.8201	565.9527	628.6474	739.6027	758.3735	786.5453	832.8842	888.5653	932.9148	945.104	981.8176	985.7606	1019.9281	1046.4916	1085.8718	1096.0668	1130.0257	1137.0344	1158.6441	1229.8087	1245.1952	1277.2861	1302.3518	1327.8724	1363.4435	1374.4946	1391.9371	1406.795	1412.3942	1437.181	1481.04	1483.1474	1490.1654	1495.4449	1502.0701	1508.3975	1687.2942	2972.6047	3000.2525	3024.0596	3038.2803	3040.0821	3092.7857	3098.1926	3102.275	3108.6295	3122.0011	3130.0127	3165.4481	3191.1777	3826.9634
CC1C=CC(C)(C)C1O	C[C@H]1C=CC(C)(C)[C@H]1O	
InChI=1S/C8H14O/c1-6-4-5-8(2,3)7(6)9/h4-7,9H,1-3H3	InChI=1S/C8H14O/c1-6-4-5-8(2,3)7(6)9/h4-7,9H,1-3H3/t6-,7-/m0/s1
