16
gdb 102901	1.85988	1.25497	0.87071	3.6431	69.92	-0.2611	-0.0164	0.2446	1330.1159	0.123375	-434.062943	-434.053197	-434.052253	-434.098798	33.276	
N	-0.1246177102	 1.5064114799	-0.7421188384	-0.511473
C	-0.1841823195	 0.1556551311	-0.2018463628	-0.168714
C	-1.6403683514	-0.3185906916	-0.2213773842	-0.017584
O	-2.0208526691	-0.4293726511	-1.5897616992	-0.239682
C	-3.3924990553	-0.6780172476	-1.8176071666	-0.204085
C	-4.2494941909	 0.4626994848	-1.4470153261	 0.257503
N	-4.9146092212	 1.3581724584	-1.1470284193	-0.294104
C	-1.800198893	-1.6154846584	 0.4663498655	 0.273527
N	-1.9399200064	-2.6351038916	 0.9916150161	-0.316536
H	 0.8144828129	 1.8780335629	-0.6513938637	 0.239154
H	-0.3451353274	 1.4878708988	-1.7323571198	 0.243209
H	 0.4212333921	-0.5960910693	-0.7336359354	 0.11366
H	 0.1507668993	 0.1709135952	 0.84009684	 0.132596
H	-2.2613370485	 0.4323395707	 0.2863443594	 0.152234
H	-3.4956614068	-0.8702435331	-2.8888219663	 0.171329
H	-3.7370337046	-1.5710139792	-1.2775152592	 0.168967
36.932	79.5196	115.9858	138.4225	183.4879	226.3274	280.647	289.3693	352.843	375.2408	454.2349	530.7706	594.5856	633.116	817.2899	846.6663	908.5755	965.1641	996.0121	1033.3189	1078.2795	1107.9214	1136.763	1204.2144	1273.4195	1301.0416	1343.2933	1366.3885	1395.5891	1429.208	1473.8195	1494.9094	1651.9574	2356.3396	2361.5753	2975.5301	3021.5748	3029.1912	3083.446	3104.3792	3513.7329	3594.1336
NCC(OCC#N)C#N	NC[C@@H](OCC#N)C#N	
InChI=1S/C5H7N3O/c6-1-2-9-5(3-7)4-8/h5H,2-3,7H2	InChI=1S/C5H7N3O/c6-1-2-9-5(3-7)4-8/h5H,2-3,7H2/t5-/m1/s1
