12
gdb 132664	3.19222	1.39725	0.97251	2.8089	61.86	-0.227	-0.0495	0.1774	1059.6262	0.077689	-518.112922	-518.105945	-518.105001	-518.144364	26.694	
N	-0.0284762341	 1.3875886185	 0.1716084388	-0.570662
C	-0.0224260816	 0.0163004116	 0.0632874158	 0.262417
N	-1.1701719165	-0.6525342081	 0.0440443822	-0.29692
C	-1.1210296008	-1.9894557903	 0.0020830635	-0.154317
C	 0.0948966294	-2.6486235666	-0.0303805461	 0.288625
F	 0.144687338	-3.9748014624	-0.0739132398	-0.065786
N	 1.25416405	-2.0069489077	-0.0271858794	-0.336317
C	 1.1881038494	-0.7083576883	 0.0201901202	 0.280623
F	 2.3303186265	-0.0192512532	 0.0150059973	-0.070521
H	 0.7978179579	 1.865789601	-0.1503130332	 0.265301
H	-0.9041587721	 1.8249116768	-0.0720399969	 0.264761
H	-2.057473726	-2.5359497414	-0.0115049525	 0.132795
130.6773	250.4764	292.7539	350.2815	385.6533	409.0652	478.6339	502.7933	530.4223	559.083	592.1905	665.9976	729.319	791.332	837.9057	914.1751	1035.8731	1067.963	1227.7625	1285.969	1322.051	1379.2782	1484.0139	1511.8277	1598.5359	1624.7521	1659.5171	3194.6274	3585.0963	3703.4203
NC1=NC=C(F)N=C1F	Nc1ncc(F)nc1F	
InChI=1S/C4H3F2N3/c5-2-1-8-4(7)3(6)9-2/h1H,(H2,7,8)	InChI=1S/C4H3F2N3/c5-2-1-8-4(7)3(6)9-2/h1H,(H2,7,8)
