18
gdb 116872	4.10711	0.54783	0.50637	4.3867	82.87	-0.2762	-0.0085	0.2677	2167.5664	0.145166	-401.928167	-401.917545	-401.916601	-401.967171	36.102	
C	 0.1585539121	 1.6232219531	-0.020399907	-0.383083
C	 0.2575770627	 0.0986044744	-0.0936117614	-0.159174
C	 0.325198386	-0.5476517139	 1.3059562787	-0.340386
C	 0.4195391865	-2.0012869214	 1.2649650359	 0.033786
C	 0.4921490132	-3.2014456301	 1.1997163539	 0.129604
C	 0.6120311907	-4.6597519273	 1.1562470457	-0.181643
O	 1.8409782084	-5.1449366379	 1.6679231826	-0.384974
C	-0.5395148007	-5.2909345588	 1.8515569729	 0.279163
N	-1.4200731013	-5.7941847166	 2.4042690901	-0.31987
H	 1.0260857404	 2.0543053448	 0.4914231188	 0.118712
H	 0.1109406724	 2.0616943138	-1.0213062473	 0.12021
H	-0.7383685134	 1.9379506626	 0.5243385867	 0.120048
H	-0.6049367337	-0.3109460707	-0.6306422443	 0.114911
H	 1.1458858592	-0.1964498867	-0.6627894151	 0.113675
H	 1.189043378	-0.1468712993	 1.8529013467	 0.135073
H	-0.5605851324	-0.2596019257	 1.8873326471	 0.138496
H	 0.5851748066	-5.0021369645	 0.1142545334	 0.166822
H	 1.9600099652	-4.7697274357	 2.5486600325	 0.298629
5.2129	61.7238	76.9589	108.8747	165.0495	218.2266	241.6847	274.5811	309.4221	356.6971	366.8101	483.4761	521.8181	571.1617	615.7301	742.5526	800.9607	871.51	887.4069	928.0868	1038.9093	1045.2904	1107.9166	1122.1712	1166.7057	1258.3122	1262.0108	1304.2255	1315.2117	1322.7822	1380.7821	1413.7186	1414.701	1468.7212	1491.835	1499.1822	1508.4815	2358.9599	2366.4997	3015.9373	3031.6535	3041.8415	3043.8594	3044.7851	3076.81	3102.9281	3109.5705	3798.926
CCCC#CC(O)C#N	CCCC#C[C@@H](O)C#N	
InChI=1S/C7H9NO/c1-2-3-4-5-7(9)6-8/h7,9H,2-3H2,1H3	InChI=1S/C7H9NO/c1-2-3-4-5-7(9)6-8/h7,9H,2-3H2,1H3/t7-/m1/s1
