15
gdb 32505	2.21913	1.5887	0.93136	1.5308	76.8	-0.2183	-0.0053	0.213	1195.5475	0.111551	-420.605961	-420.597645	-420.596701	-420.639016	30.765	
C	 0.0350321793	 1.3368582018	 0.007095865	-0.256118
O	 0.0108439939	-0.0805238486	 0.0026009684	-0.253892
C	-1.2160282093	-0.6318145653	 0.0102563895	 0.209995
C	-2.4501205492	-0.0540230624	 0.02180645	-0.156058
O	-3.4127501218	-1.0316309713	 0.0259299182	-0.144569
C	-2.7822458268	-2.2205288235	 0.0169819461	-0.093162
C	-1.4234483351	-2.0636091719	 0.0070577876	 0.018163
C	-0.4336413749	-3.0698169796	-0.0039910895	 0.244727
C	 0.4174516046	-3.9211631868	-0.013559346	-0.439123
H	 1.0847786155	 1.6320782096	-0.0001038783	 0.141451
H	-0.4666988623	 1.7419975167	-0.881757711	 0.125216
H	-0.452769582	 1.7360911466	 0.9063160076	 0.125216
H	-2.8051296836	 0.9602466689	 0.0280012433	 0.140428
H	-3.406277401	-3.0985237095	 0.0188107957	 0.150311
H	 1.1685764026	-4.6711778946	-0.0222468765	 0.187416
100.6917	118.0205	165.766	215.8266	241.683	337.1731	400.7567	483.4038	542.0035	555.2245	604.7375	614.0529	654.4518	655.0836	721.466	723.2363	787.3289	890.4676	1063.9625	1077.5576	1181.7574	1191.6074	1203.4925	1233.3216	1255.0072	1331.3072	1389.965	1473.6697	1485.2041	1506.0583	1581.2852	1648.2784	2238.3126	3001.9629	3059.8734	3143.4779	3281.6106	3301.0816	3504.9429
COC1=COC=C1C#C	COc1cocc1C#C	
InChI=1S/C7H6O2/c1-3-6-4-9-5-7(6)8-2/h1,4-5H,2H3	InChI=1S/C7H6O2/c1-3-6-4-9-5-7(6)8-2/h1,4-5H,2H3
