16
gdb 124888	3.68882	1.26478	1.03006	4.2473	70.37	-0.2666	-0.0403	0.2263	1133.3736	0.124715	-434.003755	-433.99602	-433.995076	-434.036488	28.839	
C	-0.3013584152	 1.3376847776	-0.8336285701	-0.473041
C	-0.0517116746	 0.0667554307	-0.0502659883	 0.189528
C	 1.0626666309	-0.8380042226	-0.4707081297	-0.26427
N	 1.1680521914	-0.0675820231	 0.7734979037	-0.342092
C	-1.2426052227	-0.5433052323	 0.5883003807	 0.34715
N	-2.4668923585	-0.3111955095	 0.1938263576	-0.18045
O	-3.2732720778	-1.0518408232	 1.0144208285	-0.150269
N	-2.540232597	-1.7482516859	 1.9340259177	-0.064368
C	-1.2969913607	-1.4483923764	 1.6899541476	-0.118288
H	 0.6257234351	 1.6892839257	-1.2964258525	 0.112084
H	-1.040125174	 1.1695343894	-1.6218484621	 0.152883
H	-0.6883824763	 2.1274320983	-0.1821274816	 0.137962
H	 0.9715681666	-1.9126101217	-0.3403778565	 0.1279
H	 1.6472251879	-0.5330615818	-1.3348641927	 0.12447
H	 1.7622586048	 0.7468669767	 0.6396982489	 0.239141
H	-0.4877115799	-1.8461486721	 2.2801883888	 0.161658
57.504	160.7609	185.5618	220.319	316.2944	351.608	432.5801	482.254	550.4365	646.5064	734.0767	826.2004	840.4275	891.1641	913.3317	928.337	942.848	975.6581	998.7319	1021.8615	1047.5124	1068.445	1121.3629	1139.5623	1166.1776	1261.7216	1293.1904	1347.832	1418.919	1440.9315	1478.3818	1481.4994	1505.6201	1512.567	1614.2923	3040.5004	3109.3312	3111.315	3120.8744	3197.2929	3285.255	3504.6662
CC1(CN1)C1=NON=C1	C[C@]1(CN1)c1nonc1	
InChI=1S/C5H7N3O/c1-5(3-6-5)4-2-7-9-8-4/h2,6H,3H2,1H3	InChI=1S/C5H7N3O/c1-5(3-6-5)4-2-7-9-8-4/h2,6H,3H2,1H3/t5-/m0/s1
