19
gdb 97375	1.98411	1.10277	0.74509	4.0808	80.73	-0.2537	0.016	0.2697	1542.3364	0.156501	-419.222736	-419.212311	-419.211367	-419.25925	35.969	
C	-0.3348302891	 1.29267501	-0.0497305624	-0.315627
N	 0.3516641322	 0.0293672615	 0.1247504303	-0.207692
C	 0.6391159295	-0.6205579254	-0.9088271643	 0.131749
O	 1.2990192666	-1.802341219	-0.8089471013	-0.214802
C	 1.5404523963	-2.5399358405	-2.0022596851	 0.100139
C	 2.924385894	-3.1657453189	-1.884023339	-0.39978
C	 0.4480387393	-3.6215544565	-2.1714194283	-0.330218
C	-0.8687951696	-3.0559534812	-2.451177015	 0.261797
N	-1.8973476464	-2.5853257922	-2.6875168451	-0.303986
H	 0.2573062191	 2.0967314276	 0.4017618692	 0.127125
H	-0.5326494782	 1.5551543715	-1.1014781802	 0.101108
H	-1.2921432937	 1.2640267263	 0.482260232	 0.133433
H	 0.4112077732	-0.3139834593	-1.9404466744	 0.089253
H	 1.5071244434	-1.8650683509	-2.8677473089	 0.10408
H	 3.1707732894	-3.7371740083	-2.7835685802	 0.123658
H	 3.675420559	-2.3841726544	-1.7494254146	 0.139487
H	 2.9693375263	-3.8346579045	-1.0194950835	 0.139216
H	 0.7211290915	-4.2954804642	-2.9906424814	 0.153585
H	 0.3981200572	-4.2178629516	-1.2542171578	 0.167474
38.6334	72.3766	109.7024	142.6768	169.8152	205.3419	230.8041	296.6107	300.4137	362.5597	392.5325	396.9533	491.4698	556.4005	585.0457	859.1467	899.2936	931.3361	971.1358	976.832	1052.4031	1083.362	1129.5065	1141.7231	1147.7805	1159.6655	1230.4214	1254.2018	1303.3628	1371.1651	1373.1951	1411.9673	1423.9436	1451.2695	1452.1604	1481.5267	1486.2675	1498.249	1505.3812	1781.757	2362.9664	2973.7314	3007.3022	3023.9402	3047.3248	3053.1765	3062.2157	3082.0051	3097.8738	3123.1366	3133.8661
CN=COC(C)CC#N	CN=CO[C@@H](C)CC#N	
InChI=1S/C6H10N2O/c1-6(3-4-7)9-5-8-2/h5-6H,3H2,1-2H3	InChI=1S/C6H10N2O/c1-6(3-4-7)9-5-8-2/h5-6H,3H2,1-2H3/t6-/m0/s1
