19
gdb 31229	1.79003	1.67818	0.96037	3.7723	78.49	-0.2127	0.0263	0.2391	1258.1637	0.160559	-419.249541	-419.240318	-419.239374	-419.284284	33.471	
C	-0.3595914902	 1.451943642	-0.0064686764	-0.367988
C	 0.1266465686	-0.007233939	 0.0680252136	-0.313945
C	 0.8448420829	-0.4686762092	-1.160182551	 0.240755
C	 2.177997048	-0.6972246983	-1.426768575	 0.144841
C	 3.3489505688	-0.5666718495	-0.4974152913	-0.17333
O	 3.1351227371	-1.1767620016	 0.7763067185	-0.411614
N	 2.350364288	-1.102025164	-2.7359705983	-0.304302
C	 1.1495442606	-1.1132651487	-3.2618368289	-0.006968
N	 0.203045719	-0.7400687626	-2.3532607587	-0.293097
H	 0.4807221744	 2.1351357948	-0.1607393486	 0.128051
H	-1.062811879	 1.6010730949	-0.8329889183	 0.106391
H	-0.867470701	 1.7380933089	 0.9196906045	 0.117028
H	 0.8131698247	-0.1309839831	 0.9093859949	 0.143514
H	-0.7315225768	-0.6636787388	 0.2686643908	 0.09873
H	 4.2309030765	-0.9797166737	-1.0056263151	 0.111038
H	 3.5665795817	 0.4830074299	-0.2692803941	 0.112934
H	 2.8869056221	-2.0922973196	 0.6091437887	 0.279502
H	 0.9005443312	-1.3858132593	-4.2766976122	 0.126844
H	-0.7901181567	-0.6927882332	-2.5115805132	 0.261617
56.7783	65.2076	150.2154	167.0079	202.8478	256.4147	340.2812	360.95	418.1807	445.341	538.1895	655.2825	682.0807	693.2203	770.6151	795.9448	801.9953	957.3925	963.9567	971.9826	1042.5629	1052.6431	1080.3338	1113.8761	1159.2036	1204.2099	1250.1467	1274.5394	1307.7379	1355.2994	1370.174	1391.0809	1411.3076	1421.3324	1455.9079	1490.8257	1497.6821	1503.6621	1506.8233	1522.5767	1619.8347	3011.0218	3015.2379	3034.6863	3059.9804	3091.9948	3110.7066	3116.2401	3248.916	3654.9878	3807.665
CCC1=C(CO)N=CN1	CCc1c(CO)nc[nH]1	
InChI=1S/C6H10N2O/c1-2-5-6(3-9)8-4-7-5/h4,9H,2-3H2,1H3,(H,7,8)	InChI=1S/C6H10N2O/c1-2-5-6(3-9)8-4-7-5/h4,9H,2-3H2,1H3,(H,7,8)
