20
gdb 102501	2.10047	1.19009	0.83517	3.7454	75.37	-0.2655	0.0368	0.3023	1388.8781	0.169304	-440.286814	-440.276242	-440.275298	-440.322548	37.808	
C	 0.1676172471	 1.4497589246	-0.1679791037	-0.412679
C	 0.006553629	-0.0638495468	 0.0946121563	-0.120838
C	 0.5612688046	-0.3617779142	 1.4210108013	 0.280292
N	 0.9708023244	-0.5269232984	 2.4898438505	-0.343919
C	-1.4572700262	-0.5958172033	 0.0092527336	-0.071016
C	-2.2522564888	 0.0414643304	-1.1445437044	-0.091077
O	-3.5506284859	-0.5163162835	-1.2791490456	-0.413178
C	-1.480823729	-2.1312115611	-0.1489092901	-0.050489
O	-0.5634848497	-2.8236325038	 0.6752695901	-0.414619
H	 1.2053046892	 1.7505532829	-0.0050386829	 0.141437
H	-0.0980955605	 1.6967419291	-1.1980038935	 0.131992
H	-0.4616931297	 2.0375975043	 0.5066296342	 0.135729
H	 0.6096625342	-0.61179402	-0.6402671321	 0.133434
H	-1.9601515298	-0.324119955	 0.9498631722	 0.078845
H	-2.3071495977	 1.1309413179	-1.0244420747	 0.101543
H	-1.7470678669	-0.1580523574	-2.0975706191	 0.117389
H	-4.075246934	-0.2378427808	-0.52138956	 0.286375
H	-2.5082459553	-2.4903257314	-0.0147375227	 0.105896
H	-1.18953798	-2.3816541534	-1.1764714276	 0.111526
H	-0.7673952352	-2.64632806	 1.5997507184	 0.293358
61.4116	91.2307	123.227	158.7283	211.0121	223.4844	238.1846	274.1343	309.3375	326.0429	355.2336	410.9194	433.6316	505.8701	573.2483	605.1997	799.0974	862.008	904.7018	973.8298	1023.0213	1039.3488	1080.1084	1085.5582	1102.4175	1112.6598	1143.2445	1180.5422	1227.8525	1306.6379	1317.7015	1343.5235	1360.9377	1384.738	1407.1739	1412.806	1416.2991	1430.1932	1496.5916	1499.3121	1504.0911	1513.0195	2350.423	2990.0346	3014.7313	3025.4184	3038.0004	3051.1269	3062.6212	3070.3327	3124.1949	3133.5455	3812.742	3814.4385
CC(C#N)C(CO)CO	C[C@@H](C#N)C(CO)CO	
InChI=1S/C6H11NO2/c1-5(2-7)6(3-8)4-9/h5-6,8-9H,3-4H2,1H3	InChI=1S/C6H11NO2/c1-5(2-7)6(3-8)4-9/h5-6,8-9H,3-4H2,1H3/t5-/m0/s1
