17
gdb 23461	3.29478	1.34137	1.03075	2.9669	81.48	-0.1861	-0.0075	0.1785	1134.8265	0.138076	-417.969117	-417.961438	-417.960493	-418.001054	30.566	
O	-0.0309054998	 1.3295607977	-0.2417991203	-0.403628
N	 0.0168800752	-0.0801194515	-0.2357426455	-0.250181
C	-1.1273248909	-0.5888945806	 0.0727576756	 0.369352
C	-2.3485638909	 0.1248350707	 0.3740058875	-0.216454
C	-3.4119287586	-0.5251956338	 0.8996808765	 0.002221
N	-3.4270132302	-1.857636351	 1.2252747691	-0.307393
C	-2.3826737452	-2.7259688042	 0.7618660771	 0.000831
C	-2.1086595911	-2.875738224	-0.7163741706	-0.310651
C	-1.1577118652	-2.0769025267	 0.1578264831	-0.110909
H	 0.8706899905	 1.55437843	-0.4910685798	 0.30081
H	-2.3859349054	 1.1927445201	 0.2235235848	 0.1098
H	-4.3293788961	 0.0034138997	 1.138118589	 0.115065
H	-4.3350360597	-2.2824696474	 1.3336423352	 0.245265
H	-2.2373799069	-3.5917735596	 1.3997202237	 0.103665
H	-1.7708818002	-3.8398340134	-1.079201755	 0.118668
H	-2.7416536183	-2.3209717238	-1.3999295913	 0.126783
H	-0.1957271173	-2.5283362122	 0.369575711	 0.106757
104.0152	198.2716	243.0234	313.9247	324.9569	399.5328	426.2905	474.0435	494.7638	558.6391	608.0277	699.4218	766.5894	794.1731	804.5247	829.6049	892.4893	939.1156	961.773	994.0222	1006.651	1045.7492	1063.6361	1081.3788	1126.1649	1167.173	1211.1228	1275.9426	1282.3805	1340.1712	1398.2188	1417.8493	1436.2837	1471.5645	1519.4978	1668.4673	1685.8415	3137.0874	3155.2171	3182.2324	3183.2856	3230.2234	3253.1753	3610.7696	3830.9908
ON=C1C=CNC2CC12	ON=C1C=CN[C@H]2C[C@@H]12	
InChI=1S/C6H8N2O/c9-8-5-1-2-7-6-3-4(5)6/h1-2,4,6-7,9H,3H2	InChI=1S/C6H8N2O/c9-8-5-1-2-7-6-3-4(5)6/h1-2,4,6-7,9H,3H2/t4-,6-/m0/s1
