15
gdb 53987	1.9801	1.49959	1.29167	3.2288	68.64	-0.2471	-0.0535	0.1936	1079.0033	0.105863	-457.73774	-457.727322	-457.726378	-457.774079	35.651	
C	 0.2767386529	 1.5299480923	 0.0429973805	-0.496471
C	-0.0239152633	 0.0522753412	 0.1287126174	 0.373638
O	-0.2275954544	-0.5334895131	 1.1590430835	-0.27632
C	-0.0449796744	-0.7096174399	-1.2376864154	-0.037941
O	-0.735684592	 0.0367312337	-2.2396228717	-0.452362
C	 1.3999081069	-0.8497126517	-1.7851693962	 0.148337
O	 2.3915486566	-0.6741591396	-1.1365959541	-0.22857
C	-0.5796638	-2.0584741809	-1.1035439152	 0.312922
C	-1.0251426866	-3.1738405141	-1.0611261971	-0.435213
H	 1.3297903717	 1.6578079435	-0.2316812665	 0.166271
H	-0.3246658821	 2.0073086342	-0.7334863509	 0.151495
H	 0.0999834853	 1.9907126234	 1.0150961338	 0.143727
H	-1.6524211426	-0.2597446491	-2.2496341379	 0.301618
H	 1.4080749154	-1.1234299711	-2.8603970208	 0.113594
H	-1.4220601336	-4.1574289788	-0.9940470593	 0.215276
26.8593	79.5007	119.6755	135.7699	166.8749	173.3866	249.0934	271.729	323.669	398.9624	424.7638	468.9493	504.7967	591.0161	645.1442	648.3094	678.4985	687.1844	924.2832	968.214	985.7987	1059.2616	1069.8625	1132.376	1205.9859	1337.3714	1376.8306	1391.1295	1466.8671	1470.5769	1827.6187	1845.1158	2232.1206	2929.8893	3051.5077	3123.888	3164.2894	3496.9124	3814.3075
CC(=O)C(O)(C=O)C#C	CC(=O)[C@@](O)(C=O)C#C	
InChI=1S/C6H6O3/c1-3-6(9,4-7)5(2)8/h1,4,9H,2H3	InChI=1S/C6H6O3/c1-3-6(9,4-7)5(2)8/h1,4,9H,2H3/t6-/m0/s1
