20
gdb 45583	2.87553	1.48468	1.10511	3.9438	80.28	-0.2352	0.0374	0.2726	1131.1825	0.174352	-403.196835	-403.189206	-403.188262	-403.228973	30.262	
O	 0.059630516	 0.0562866137	 0.4548877467	-0.370761
C	-0.024400476	 1.20509971	 0.1078555846	 0.400038
C	-1.1626341449	 2.2262739297	-0.1506046301	-0.411439
C	-0.0209110247	 3.2653610258	-0.348267344	 0.046257
C	 0.2045022779	 4.3331099189	 0.7224509439	-0.213239
C	 1.7084672419	 4.6533928649	 0.8305079922	-0.19764
C	 2.5261449995	 3.3944598921	 1.1749838261	-0.193646
C	 2.3330467658	 2.285895962	 0.1238089461	-0.180091
N	 0.9291270933	 2.1526144188	-0.1930839218	-0.06464
H	-1.7732071301	 2.0162397151	-1.0306165624	 0.128783
H	-1.8097152031	 2.3983666109	 0.7119673295	 0.127911
H	 0.0199949251	 3.7112258379	-1.3505204783	 0.076956
H	-0.3734342595	 5.2349995942	 0.493838992	 0.099753
H	-0.1504170243	 3.9560993076	 1.6907630726	 0.099872
H	 2.0639805072	 5.0757795941	-0.1200814973	 0.097854
H	 1.8726529186	 5.4222914566	 1.5924216783	 0.101376
H	 3.5906559748	 3.6389038314	 1.2549358062	 0.100103
H	 2.2067475447	 3.0170332978	 2.1544379565	 0.109446
H	 2.8963063257	 2.5321572244	-0.7875621099	 0.106796
H	 2.6906625123	 1.3171316541	 0.483089629	 0.136312
90.9214	154.1464	225.6082	300.7216	318.674	433.619	446.2862	470.4736	549.4018	581.1276	701.7856	744.3723	808.1026	824.3814	857.2082	905.263	943.4375	977.7858	993.3087	1016.1363	1057.524	1077.8984	1081.8565	1105.4213	1161.9368	1195.6591	1206.7446	1250.0873	1254.0664	1285.5307	1310.6455	1344.0869	1364.3125	1372.6602	1384.6726	1397.1718	1412.8612	1461.5466	1480.2436	1486.9658	1487.8082	1498.4981	1875.0097	3003.2196	3011.8153	3015.2182	3023.9574	3030.514	3072.4328	3075.2834	3080.3093	3082.8583	3099.942	3140.0818
O=C1CC2CCCCN12	O=C1C[C@H]2CCCCN12	
InChI=1S/C7H11NO/c9-7-5-6-3-1-2-4-8(6)7/h6H,1-5H2	InChI=1S/C7H11NO/c9-7-5-6-3-1-2-4-8(6)7/h6H,1-5H2/t6-/m1/s1
