19
gdb 39299	2.62086	2.07063	1.82224	2.3706	72.87	-0.2303	0.0809	0.3113	867.9235	0.163651	-423.014129	-423.007871	-423.006927	-423.044428	26.748	
C	 0.0487175956	 1.528423602	 0.1956744972	-0.283355
C	 1.5812461507	 1.3505917286	 0.0077426016	 0.072173
O	 2.2262572084	 0.9949691254	 1.2169821713	-0.263387
C	 1.4176479877	 0.1574481414	 2.0400943816	-0.077793
C	 0.5732100581	-0.8099389763	 1.1959135793	-0.079826
C	 1.4752248106	-1.8083389372	 0.4493796806	-0.069002
O	 2.0199125441	-1.0858123772	-0.6582483934	-0.26437
C	 1.234919228	 0.0642202449	-0.8412301204	 0.137063
C	-0.0507370431	-0.0084886529	 0.0126184636	-0.080867
H	-0.3040065085	 1.9875063029	 1.1211150095	 0.107014
H	-0.3961999607	 2.0545309208	-0.6527151447	 0.106032
H	 2.1730438335	 2.1478787692	-0.4440576179	 0.07815
H	 2.102511695	-0.379722199	 2.7035968022	 0.10693
H	 0.7576870365	 0.7693624796	 2.6717780917	 0.093498
H	-0.167278601	-1.3104899022	 1.8261688036	 0.075081
H	 2.2989866377	-2.181369681	 1.0670067762	 0.107092
H	 0.8997209336	-2.6716095995	 0.0833903024	 0.090509
H	 1.1129844177	 0.2763013101	-1.9063360082	 0.077237
H	-0.962387154	-0.4568929198	-0.3864663361	 0.067822
177.4254	272.5931	379.9959	402.9713	434.2852	537.2807	585.8522	679.1358	743.4816	766.5376	816.8959	834.5949	891.5554	892.9278	940.4945	951.3384	966.0263	982.5613	1007.6842	1020.3153	1063.8702	1091.7423	1115.2293	1132.3373	1139.3172	1186.6841	1203.937	1217.2698	1229.9956	1255.9286	1264.5828	1293.9575	1299.8796	1334.2646	1344.6565	1360.4344	1393.7148	1415.3298	1487.2679	1517.1353	1529.34	2991.816	2996.943	3067.1991	3068.1994	3072.6824	3077.0871	3079.671	3092.8186	3105.5786	3121.8652
C1C2OCC3COC2C13	C1[C@H]2OC[C@@H]3CO[C@H]2[C@H]13	
InChI=1S/C7H10O2/c1-5-4-2-8-6(1)7(5)9-3-4/h4-7H,1-3H2	InChI=1S/C7H10O2/c1-5-4-2-8-6(1)7(5)9-3-4/h4-7H,1-3H2/t4-,5-,6-,7+/m1/s1
