21
gdb 120607	3.40934	0.77627	0.70746	2.6132	81.44	-0.246	-0.0249	0.221	1675.3796	0.17942	-424.229615	-424.219239	-424.218295	-424.265459	37.429	
C	-0.1239791543	 1.4559797998	 0.0320644035	-0.381244
C	-0.1778115597	-0.0588980703	-0.180289141	-0.158663
C	 0.9134415157	-0.5657741013	-1.13419911	-0.215519
C	 0.8684370882	-2.0655830726	-1.3309164074	-0.053044
C	-0.0405189523	-2.6908560712	-2.3427399449	-0.304195
C	 1.4557539634	-2.6890831906	-2.5987488458	 0.254664
O	 1.9037156411	-1.8703125732	-3.6398163238	-0.462914
C	 2.1681185185	-3.9883208343	-2.4613693051	 0.102073
O	 1.9152253327	-4.8246642137	-1.6269520027	-0.271133
H	 0.8373124092	 1.7632962553	 0.4590014226	 0.114085
H	-0.2515140848	 1.9937074054	-0.9141237135	 0.115138
H	-0.911997761	 1.7905027811	 0.713636905	 0.114878
H	-0.0798160952	-0.5705312738	 0.7857367099	 0.099805
H	-1.1598921772	-0.3446422439	-0.5768879923	 0.102723
H	 0.8129315544	-0.0682022025	-2.1058274526	 0.106521
H	 1.8971893113	-0.2773226784	-0.7369193128	 0.092471
H	 1.0503400533	-2.6663355109	-0.4429538279	 0.110902
H	-0.4911847569	-3.6504881127	-2.117482359	 0.13622
H	-0.6097571847	-2.0331340018	-2.9909495505	 0.128267
H	 2.6837084927	-1.3911290301	-3.3393300627	 0.290985
H	 2.9749109954	-4.1305723103	-3.2155376689	 0.07798
67.4002	80.9605	103.6855	130.2914	198.8422	231.142	245.7921	268.3896	307.254	339.1252	400.337	468.7454	510.8189	627.3643	724.8782	750.1972	805.6589	864.3255	891.389	907.071	944.4195	984.5444	1044.1762	1045.5452	1078.5972	1090.6093	1098.8419	1133.1785	1197.3294	1243.5433	1261.4838	1272.006	1305.8679	1329.0843	1340.4714	1384.3751	1409.1417	1412.9806	1415.3705	1465.423	1486.7848	1496.7589	1499.3889	1511.7335	1808.6401	2882.5986	3004.7198	3023.3751	3029.5056	3048.3787	3068.2976	3096.4973	3103.7756	3136.7869	3144.919	3235.275	3798.3862
CCCC1CC1(O)C=O	CCC[C@H]1C[C@]1(O)C=O	
InChI=1S/C7H12O2/c1-2-3-6-4-7(6,9)5-8/h5-6,9H,2-4H2,1H3	InChI=1S/C7H12O2/c1-2-3-6-4-7(6,9)5-8/h5-6,9H,2-4H2,1H3/t6-,7-/m0/s1
