23
gdb 103601	2.739	1.23388	1.02755	2.4339	82.33	-0.2437	0.0733	0.317	1292.4725	0.202666	-425.417417	-425.407187	-425.406242	-425.451605	39.641	
C	 0.0866238621	 1.3050355657	-0.0847358779	-0.253829
O	-0.0511108972	-0.0942759681	 0.0703105555	-0.294602
C	-1.3957305394	-0.6018428862	 0.0654500567	 0.397908
C	-2.2521205414	 0.0072862167	 1.1633470171	-0.470946
C	-1.9575376186	-0.6577609955	-1.3906069406	-0.315932
C	-1.3106529589	-2.0727616703	-1.5414830715	 0.427667
C	-2.0836976356	-3.1412923363	-2.2871300714	-0.433693
O	-0.0189724635	-2.0086494403	-2.1217219517	-0.491001
C	-1.2499701726	-2.1447193297	 0.0168642872	-0.300035
H	 1.1523128552	 1.5023959823	-0.2245628502	 0.129351
H	-0.4585895054	 1.6835232435	-0.9605952473	 0.111356
H	-0.2552000837	 1.8536930748	 0.8023160173	 0.115585
H	-2.4510676491	 1.0699900939	 0.991910643	 0.118269
H	-3.2185376678	-0.5028725219	 1.2088904358	 0.117925
H	-1.7613636015	-0.0988412904	 2.1367171529	 0.124478
H	-3.0510366613	-0.6933743612	-1.4011695884	 0.092885
H	-1.6156024712	 0.1025789314	-2.0974014818	 0.099089
H	-2.1433018706	-2.891916492	-3.3513593471	 0.121751
H	-1.5784323019	-4.1079442803	-2.1953550513	 0.122185
H	-3.0997215053	-3.2386579167	-1.8939235417	 0.103189
H	 0.4818086993	-1.3685975263	-1.5987155209	 0.280265
H	-0.3345000411	-2.552651756	 0.4514641691	 0.105625
H	-2.1213124406	-2.6458351072	 0.4469156772	 0.092509
101.3477	139.8719	174.4755	205.7908	215.0852	239.4244	293.2747	312.8842	326.1388	340.3365	418.705	443.029	461.7206	504.0301	533.8083	609.2091	712.3113	804.0875	823.0095	879.284	901.51	934.2328	947.8103	965.5436	997.7752	1066.3451	1092.5114	1103.7309	1143.151	1181.2873	1194.9886	1208.0989	1217.2327	1240.2879	1244.2669	1280.966	1307.0449	1395.2246	1404.6829	1446.463	1449.226	1471.4553	1480.2224	1480.8982	1485.919	1487.3066	1496.3152	1503.7482	1512.677	2997.9766	3033.8857	3036.3255	3051.7275	3055.1126	3061.7872	3102.5637	3107.9725	3109.3607	3112.5396	3114.3542	3116.1579	3124.7906	3756.7623
COC1(C)CC(C)(O)C1	CO[C@@]1(C)C[C@@](C)(O)C1	
InChI=1S/C7H14O2/c1-6(8)4-7(2,5-6)9-3/h8H,4-5H2,1-3H3	InChI=1S/C7H14O2/c1-6(8)4-7(2,5-6)9-3/h8H,4-5H2,1-3H3/t6-,7+
