15
gdb 29158	3.14517	1.47555	1.0057	1.4607	76.46	-0.1809	-0.0338	0.1471	1108.6725	0.114201	-450.160388	-450.152164	-450.15122	-450.192857	31.561	
N	 0.0717248209	 1.434308584	 0.0931429186	-0.57686
C	-0.0228775643	 0.0452746947	-0.0385710727	 0.277331
C	-1.1872485558	-0.6222556335	-0.160782601	-0.076707
O	-1.197896151	-1.9909078698	-0.379853537	-0.218794
C	-0.0433224036	-2.6802789969	-0.4589557066	 0.357292
N	 0.0254489591	-3.9357193573	-0.6724005306	-0.563447
C	 1.1954434471	-1.8802643974	-0.279452872	 0.356673
N	 2.3344935828	-2.6004233172	-0.3155043446	-0.546673
N	 1.2007694936	-0.597102844	-0.0908442032	-0.387224
H	 0.9201741514	 1.6959625166	 0.577521424	 0.248772
H	-0.739755875	 1.8715430874	 0.5070502503	 0.243305
H	-2.1840377529	-0.2111826566	-0.1295607502	 0.11385
H	-0.902784924	-4.3446479057	-0.7771965635	 0.225001
H	 2.2603324632	-3.5753653092	-0.5572724759	 0.283495
H	 3.2197126085	-2.1251521352	-0.3064471956	 0.263986
92.3132	182.3727	232.0933	239.9452	318.1941	342.8895	365.8653	442.8251	487.5982	521.3013	581.5727	591.4682	632.0875	675.7833	687.0534	736.1575	801.0914	818.2431	846.0176	973.8251	1027.4654	1096.5146	1177.9897	1212.6354	1260.2602	1355.6822	1410.3616	1448.1304	1575.3716	1629.0986	1674.7118	1677.8299	1722.2326	3251.3825	3495.4024	3549.5367	3598.6134	3652.6278	3743.8468
NC1=COC(=N)C(N)=N1	NC1=COC(=C(N)[N]1)[NH]	
InChI=1S/C4H6N4O/c5-2-1-9-4(7)3(6)8-2/h1,7H,5H2,(H2,6,8)	InChI=1S/C4H6N4O/c5-2-1-9-4(7)3(6)8-2/h1,7H,5H2,(H2,6,8)
