19
gdb 89600	4.37065	0.9262	0.87879	3.562	80.53	-0.2191	0.0299	0.249	1364.254	0.159066	-382.037272	-382.028482	-382.027538	-382.071154	32.684	
C	-0.2552967787	 1.5051555324	 0.1491130568	-0.325739
N	 0.060840906	 0.0897089346	 0.092015395	-0.068797
C	 1.0411116066	-0.3915045551	-0.9230722251	-0.234935
C	 1.8360554319	-1.0933416878	 0.1858142003	 0.344368
C	 2.3922588784	-2.4928602986	 0.0995429882	-0.460877
C	 3.6049563834	-2.5622113668	-0.7227183663	 0.26483
N	 4.5554924046	-2.5995908107	-1.3785374716	-0.307246
C	 2.2928520871	-0.0601984099	 1.1849846862	-0.336537
C	 0.8461783291	-0.5001136085	 1.1719246602	-0.078361
H	 0.6238979347	 2.1633956643	 0.2623863013	 0.096604
H	-0.7804945088	 1.7963955964	-0.7661960686	 0.124304
H	-0.927184054	 1.6900702828	 0.9936978149	 0.123816
H	 0.5767207313	-1.0668554799	-1.6504513737	 0.110612
H	 1.5844759	 0.3946072692	-1.4632177393	 0.106544
H	 2.6323736735	-2.8706443645	 1.1000174006	 0.153098
H	 1.6491551302	-3.1782365924	-0.3263694453	 0.155548
H	 2.8800956048	-0.445990123	 2.0133223082	 0.117249
H	 2.5856222243	 0.9326781619	 0.8552220166	 0.117701
H	 0.3608330858	-0.9428025744	 2.0364277116	 0.097818
54.7822	90.9598	174.1121	211.0081	242.6218	312.0759	372.3148	391.5331	398.3022	446.917	510.9069	665.0517	726.8186	832.7702	863.5645	897.2708	923.2432	934.2161	971.1069	996.5903	1010.4774	1056.4493	1068.4558	1084.2304	1128.3325	1167.9696	1181.2541	1211.4484	1231.3976	1273.1144	1297.7263	1320.385	1338.8339	1403.6354	1450.7013	1456.355	1484.4342	1488.7155	1502.1173	1513.9794	2361.9319	2951.6328	3013.5211	3034.7904	3061.263	3062.1427	3074.6412	3103.0338	3116.2773	3155.074	3201.547
CN1CC2(CC#N)CC12	CN1C[C@@]2(CC#N)C[C@@H]12	
InChI=1S/C7H10N2/c1-9-5-7(2-3-8)4-6(7)9/h6H,2,4-5H2,1H3	InChI=1S/C7H10N2/c1-9-5-7(2-3-8)4-6(7)9/h6H,2,4-5H2,1H3/t6-,7-/m1/s1
