13
gdb 133598	2.70565	1.38592	1.12056	4.1575	51.78	-0.2689	0.0162	0.2851	1027.9816	0.085944	-584.273932	-584.265984	-584.26504	-584.30743	28.133	
F	-0.0841977967	 0.0938267545	-0.1690687413	-0.082618
C	-0.0134948753	 1.4263182147	-0.014878195	 0.286206
F	 1.2766856551	 1.7676445563	 0.0263308915	-0.063421
F	-0.5505496284	 1.9829118763	-1.1151182135	-0.081387
C	-0.7404331314	 1.876276914	 1.2299304761	-0.303945
C	-2.1800469439	 1.3215807843	 1.4197535099	-0.181386
N	-1.6990413067	 0.6893079778	 2.6514475468	-0.317677
C	-0.3936620354	 1.0910080048	 2.5373032055	 0.426326
O	 0.5917298951	 0.9058806077	 3.1912879945	-0.343568
H	-0.6422190983	 2.9578229674	 1.3286987284	 0.136322
H	-2.9504294384	 2.0818149347	 1.572462887	 0.126254
H	-2.4990127411	 0.6154650657	 0.648505884	 0.137175
H	-2.1485855444	 0.0733698318	 3.3121673561	 0.261719
57.721	108.7616	128.2339	214.159	306.9307	364.5008	413.496	497.0284	532.6756	567.7992	619.0958	732.4613	761.7642	826.6654	925.6586	988.5159	1006.412	1071.7259	1144.2556	1163.3872	1171.0877	1193.6626	1212.0051	1277.08	1305.6604	1378.7636	1403.1474	1526.2608	1913.2905	3058.8319	3107.8294	3125.7581	3620.2365
FC(F)(F)C1CNC1=O	FC(F)(F)[C@H]1CNC1=O	
InChI=1S/C4H4F3NO/c5-4(6,7)2-1-8-3(2)9/h2H,1H2,(H,8,9)	InChI=1S/C4H4F3NO/c5-4(6,7)2-1-8-3(2)9/h2H,1H2,(H,8,9)/t2-/m0/s1
