22
gdb 59503	2.3467	1.18198	0.89563	3.5083	83.64	-0.2477	0.024	0.2717	1382.8444	0.193158	-404.369291	-404.35917	-404.358225	-404.404469	37.365	
C	 0.1253780291	 1.3133858778	-0.1956418499	-0.381883
C	 0.0238064178	-0.1561715958	 0.239139974	 0.01743
C	 0.5610120117	-0.3539751801	 1.6650792972	-0.406437
C	-1.4059219199	-0.6556563736	 0.1322209498	 0.035258
C	-2.0222288634	-0.9950687664	-1.2041001874	-0.359069
C	-1.7450346429	-2.0910482624	-0.210734522	 0.030506
N	-0.7202336897	-3.0437351356	-0.5363198595	-0.277226
C	-0.1347867255	-3.843415142	 0.3968618557	 0.150467
O	-0.3054835801	-3.7586636125	 1.5943949642	-0.313913
H	 1.1601123201	 1.6673760829	-0.1391376819	 0.109346
H	-0.2262612136	 1.4549278585	-1.2227004068	 0.107511
H	-0.47979659	 1.9558339132	 0.4550457565	 0.111111
H	 0.6384465217	-0.7568639358	-0.4442983633	 0.063428
H	 0.4673519166	-1.3956768089	 1.9817635039	 0.15461
H	 1.6138723674	-0.0597065265	 1.7306175736	 0.102367
H	 0.0015304457	 0.2660460042	 2.3764337749	 0.105331
H	-2.0817945727	-0.2087141142	 0.8586493682	 0.086639
H	-3.0532913525	-0.7302658275	-1.4089715523	 0.119049
H	-1.3688223552	-0.9421480698	-2.0709460109	 0.110165
H	-2.589568333	-2.5269598504	 0.3155739849	 0.110711
H	-0.5908001896	-3.2913639074	-1.5051998382	 0.248644
H	 0.5357218179	-4.5943309375	-0.0683484507	 0.075956
59.6037	93.5659	140.3667	155.0528	230.8913	234.6767	252.8379	282.9709	337.8473	364.0255	394.3722	470.3342	510.0727	610.4872	754.8922	767.2993	844.5596	847.4344	904.7538	936.8638	964.4427	989.1017	1014.1926	1032.3313	1041.1502	1076.3535	1126.1295	1143.7564	1151.8793	1190.0947	1196.5663	1227.2931	1273.8644	1313.8029	1345.9519	1393.1134	1402.5084	1417.7726	1429.7656	1430.4469	1488.6184	1491.0108	1493.2317	1505.1775	1506.2358	1517.08	1804.2301	2927.73	3016.3706	3024.2435	3028.4835	3086.3779	3093.6791	3100.6324	3122.9402	3126.4092	3127.4754	3143.5821	3211.3395	3618.2068
CC(C)C1CC1NC=O	CC(C)[C@H]1C[C@H]1NC=O	
InChI=1S/C7H13NO/c1-5(2)6-3-7(6)8-4-9/h4-7H,3H2,1-2H3,(H,8,9)	InChI=1S/C7H13NO/c1-5(2)6-3-7(6)8-4-9/h4-7H,3H2,1-2H3,(H,8,9)/t6-,7-/m1/s1
