20
gdb 81946	2.273	1.79367	1.18074	3.8278	78.32	-0.2364	-0.0114	0.225	1103.5934	0.17128	-403.165938	-403.157284	-403.156339	-403.199052	33.236	
C	 0.2461414929	 1.6466286989	 0.0041761685	-0.39663
C	 0.0887604979	 0.1267512626	-0.0228230715	-0.090798
C	 0.7273121673	-0.5948026354	-1.1929061777	-0.056377
N	 2.2034273129	-0.5758427121	-1.1180125782	-0.334857
C	 1.4683177161	-1.7928078389	-0.7136668954	-0.056377
C	 1.3497745716	-1.911973204	 0.7927296509	-0.090798
C	 2.6392654912	-2.2224176011	 1.5519147845	-0.39663
C	 0.733880746	-0.5572218854	 1.2007663144	 0.383114
O	 0.7527114694	-0.1002470946	 2.3139985618	-0.324231
H	 1.2952748658	 1.9155578685	-0.1459547843	 0.136381
H	-0.3504976606	 2.1219282085	-0.78017103	 0.106141
H	-0.0734238312	 2.0369444865	 0.9737567592	 0.135956
H	-0.9806182409	-0.1337733446	 0.0112854287	 0.097908
H	 0.2499782811	-0.5795053039	-2.1674457205	 0.088028
H	 2.6007345826	-0.7009101092	-2.0449857713	 0.234753
H	 1.5526484665	-2.6855704126	-1.3249543219	 0.088028
H	 0.590963138	-2.6746027679	 1.0276952939	 0.097908
H	 3.4318332104	-1.5386895591	 1.2358524594	 0.136381
H	 2.4801772285	-2.0915525681	 2.6252833969	 0.135956
H	 2.9713439646	-3.248606998	 1.3682093824	 0.106141
71.9205	185.3556	208.8184	213.1517	221.7697	240.0007	280.802	460.1642	502.4538	538.2884	548.2799	608.2331	690.3113	797.805	820.69	845.7626	896.5115	902.6752	924.8393	985.8756	1002.7566	1042.7217	1065.5942	1103.7258	1110.1278	1124.163	1133.5345	1166.5616	1166.9664	1238.3865	1285.4681	1300.5975	1305.0485	1338.3024	1380.9891	1398.3246	1403.7233	1428.3617	1491.9878	1492.5258	1503.9033	1504.937	1843.9361	2993.6262	2997.7577	3044.3948	3044.8288	3116.2058	3116.4796	3128.8991	3129.1181	3155.7286	3166.2826	3513.4366
CC1C2NC2C(C)C1=O	C[C@H]1[C@H]2N[C@H]2[C@@H](C)C1=O	
InChI=1S/C7H11NO/c1-3-5-6(8-5)4(2)7(3)9/h3-6,8H,1-2H3	InChI=1S/C7H11NO/c1-3-5-6(8-5)4(2)7(3)9/h3-6,8H,1-2H3/t3-,4+,5+,6-
