13
gdb 128260	1.88371	0.96353	0.66044	3.8937	62.17	-0.269	-0.01	0.259	1587.1971	0.084359	-486.174325	-486.162674	-486.16173	-486.217856	33.4	
C	-0.1599731949	 1.5120993646	 0.1663367276	-0.332486
N	-0.1760228165	 0.0694312007	 0.0390560793	-0.321318
C	 0.2779469059	-0.5686758406	-1.0658012227	 0.46854
N	 0.1355935677	-1.9785147361	-0.9061661014	-0.473739
C	 0.4350216655	-2.8731290174	-1.674355961	 0.596256
O	 0.6740218545	-3.8101913858	-2.3202564445	-0.26963
N	 3.2423796186	-1.5211645314	-3.1688553259	 0.000866
N	 3.5956291711	-0.9013627119	-4.0042334974	-0.004478
O	 0.738070629	-0.0412687058	-2.0533671142	-0.370079
H	 0.2675665196	 1.9195526004	-0.7500151558	 0.175683
H	-1.1724517826	 1.9096631148	 0.2952667213	 0.133883
H	 0.4530459481	 1.8274544556	 1.017495168	 0.133857
H	-0.535387656	-0.5004119672	 0.7866438569	 0.262645
12.8831	16.1791	33.7889	46.4538	63.5361	75.5097	86.9856	111.5815	165.9408	289.4591	453.2501	507.59	556.2121	627.8508	729.0113	751.1906	882.5613	1060.3428	1157.0275	1178.5513	1234.0008	1444.5124	1462.6403	1494.4564	1497.7453	1564.6548	1806.7433	2351.7933	2433.1928	3032.4393	3085.9843	3158.6114	3656.8002	12.8822	16.1787	33.7888	46.4537	63.5352	75.5078	86.9854	111.5813	165.9405	289.459	453.25	507.5896	556.2121	627.8512	729.0115	751.1907	882.5616	1060.3428	1157.0276	1178.5514	1234.0006	1444.5126	1462.6403	1494.4566	1497.7457	1564.6547	1806.7431	2351.7932	2433.1928	3032.4393	3085.9843	3158.6114	3656.8002
CNC1=NC(=O)N=NO1	CNC(=O)N=C=O.N#N	
InChI=1S/C3H4N4O2/c1-4-3-5-2(8)6-7-9-3/h1H3,(H,4,5,8)	InChI=1S/C3H4N2O2.N2/c1-4-3(7)5-2-6;1-2/h1H3,(H,4,7);
