21
gdb 117077	2.94443	0.85853	0.78505	0.9203	75.16	-0.2349	-0.0149	0.2199	1556.4574	0.177605	-461.380007	-461.368648	-461.367703	-461.417348	40.421	
C	-0.2219771028	 1.5012272881	-0.0892969713	-0.423027
C	-0.0060676731	-0.0132900939	 0.0089251315	 0.255035
C	 0.7983235883	-0.384087081	 1.2620307603	-0.388811
O	-1.2477871345	-0.705730402	 0.1232901939	-0.451163
C	 0.8041346224	-0.4947019135	-1.2210092428	 0.333254
O	 1.8316131578	 0.0702548463	-1.5290924436	-0.330802
C	 0.2820570422	-1.6934841708	-1.9865448956	-0.283222
C	 1.2245858738	-2.1466259668	-3.0903664226	-0.079105
O	 0.6043068662	-3.2431792175	-3.7465252234	-0.425117
H	 0.7341467553	 2.0133108437	-0.2117596825	 0.147198
H	-0.8452681468	 1.7514802777	-0.95692656	 0.10622
H	-0.7215534344	 1.8676049277	 0.8117579864	 0.12195
H	 0.2774587962	-0.0219744214	 2.1525302522	 0.122826
H	 0.8981753657	-1.4704410549	 1.3445740873	 0.125173
H	 1.7949224321	 0.0594702341	 1.2157908413	 0.137079
H	-1.8773540126	-0.3054422617	-0.4852136203	 0.280187
H	 0.0758982212	-2.5092882815	-1.2842434245	 0.144355
H	-0.6991380687	-1.4466472835	-2.4134418776	 0.121137
H	 1.4141261129	-1.3122637244	-3.7801839425	 0.100844
H	 2.1946899636	-2.4280793481	-2.6554604324	 0.099159
H	 1.1904608551	-3.5396927164	-4.4486417438	 0.28683
23.3866	78.7515	98.4311	135.7282	211.5178	236.677	254.3872	272.8749	281.7016	285.2342	290.3904	358.4558	390.6462	417.4859	514.1385	572.2542	585.2336	784.6153	801.469	856.5735	938.685	971.2657	1002.1725	1019.276	1049.2084	1058.293	1102.6039	1121.6985	1204.1568	1223.4574	1233.763	1265.3167	1295.4125	1347.0149	1353.6054	1387.8203	1405.895	1435.7263	1465.5243	1479.623	1480.7843	1497.3594	1505.9731	1521.6107	1789.9009	2993.9653	3022.3119	3027.8928	3037.0137	3046.6402	3076.8151	3100.3929	3117.6658	3140.1143	3145.2212	3814.0614	3831.5047
CC(C)(O)C(=O)CCO	CC(C)(O)C(=O)CCO	
InChI=1S/C6H12O3/c1-6(2,9)5(8)3-4-7/h7,9H,3-4H2,1-2H3	InChI=1S/C6H12O3/c1-6(2,9)5(8)3-4-7/h7,9H,3-4H2,1-2H3
