21
gdb 102179	2.05902	1.15119	0.80495	2.6094	82.97	-0.2552	0.0275	0.2827	1451.9219	0.182467	-383.259819	-383.249845	-383.248901	-383.295815	35.794	
C	-1.4243298181	-0.3671669091	 0.0973505035	-0.397381
C	 0.0982527239	-0.2045990633	 0.0595022476	-0.175462
C	 0.7404376496	-0.5372566121	-1.3046099816	-0.01937
C	 2.2442057445	-0.1650666147	-1.317878087	-0.379915
C	 2.4820485075	 1.2474280348	-1.0315130036	 0.27331
N	 2.6632724127	 2.3681619608	-0.8150652357	-0.311481
C	 0.4845726587	-1.9888559532	-1.6976610926	 0.020507
C	 1.4487009199	-2.8726245132	-2.4001061636	-0.256713
N	 1.0974555826	-3.1261365524	-0.9888140345	-0.317638
H	-1.9066451881	 0.2378967456	-0.6786321579	 0.118371
H	-1.7305063169	-1.4073319274	-0.0459800024	 0.131048
H	-1.8191347762	-0.0394404559	 1.0633601804	 0.121681
H	 0.353603794	 0.8284385818	 0.3194548646	 0.126944
H	 0.5544931029	-0.8401841889	 0.8301369405	 0.099909
H	 0.2539177625	 0.0858754397	-2.0672276969	 0.099474
H	 2.8002591434	-0.7577990962	-0.5805628975	 0.144579
H	 2.6803251935	-0.3822690687	-2.2976262397	 0.15611
H	-0.5662377415	-2.1706692405	-1.9120134065	 0.103933
H	 1.0816468123	-3.6158608391	-3.1023955926	 0.122846
H	 2.4452243031	-2.5063160786	-2.6277449483	 0.111766
H	 1.8526683997	-2.8049547694	-0.3866440762	 0.227482
40.1817	76.934	90.7614	135.5132	208.7023	229.4713	250.5917	280.2148	383.7599	397.2691	465.9679	543.1042	559.5715	727.1916	810.3166	828.5192	837.1424	927.322	941.1562	953.27	974.3231	994.7108	1029.5291	1061.6686	1107.0024	1127.7414	1151.1409	1169.5565	1193.6002	1238.7472	1251.9304	1284.0586	1305.381	1309.2807	1341.4152	1376.3979	1394.3917	1415.5063	1421.1406	1467.4412	1487.4926	1501.5331	1509.7688	1516.9032	2360.9246	3013.971	3024.8017	3036.1635	3037.4679	3070.4422	3086.7559	3104.0608	3113.7165	3115.3066	3130.3479	3194.8189	3487.437
CCC(CC#N)C1CN1	CC[C@@H](CC#N)[C@H]1CN1	
InChI=1S/C7H12N2/c1-2-6(3-4-8)7-5-9-7/h6-7,9H,2-3,5H2,1H3	InChI=1S/C7H12N2/c1-2-6(3-4-8)7-5-9-7/h6-7,9H,2-3,5H2,1H3/t6-,7+/m0/s1
