18
gdb 70695	2.18464	1.98012	1.31456	3.2498	71.88	-0.2426	0.0018	0.2444	1011.8603	0.148296	-439.097197	-439.089137	-439.088193	-439.129815	30.712	
C	 0.1942462037	 1.4960770568	-0.0138685336	-0.456447
C	-0.0095487926	-0.0043794507	 0.0160927909	 0.160147
C	-0.8957361634	-0.6330436898	 1.0410409005	-0.274576
N	 0.5561066236	-0.7331286713	 1.1646406213	-0.134835
C	 1.1513047194	-2.0397618383	 0.8485599697	-0.171682
C	 1.7952627364	-1.9910999826	-0.5219420474	-0.079165
O	 0.8151184563	-1.7108642708	-1.5378698732	-0.229818
C	-0.0030203092	-0.6449334601	-1.3547285023	 0.385928
O	-0.6795618421	-0.2459654899	-2.2625427667	-0.333335
H	 1.1852495179	 1.7514370097	-0.4039238756	 0.123182
H	-0.5557713403	 1.9601944852	-0.6589441782	 0.14812
H	 0.1107962571	 1.9047870599	 0.9955791499	 0.127017
H	-1.3932875262	 0.0010917822	 1.7702729134	 0.12367
H	-1.4489328083	-1.5285934411	 0.762890614	 0.123884
H	 1.9062782684	-2.2760010705	 1.6067378486	 0.119975
H	 0.4026870054	-2.843131139	 0.863941309	 0.112989
H	 2.5799422132	-1.2251915455	-0.5551983155	 0.12478
H	 2.2368543904	-2.9508359641	-0.7979035646	 0.130163
70.8063	167.5114	200.7684	242.1094	290.1518	311.7692	424.8561	457.0373	480.5489	524.2468	626.3355	696.41	749.5743	773.3081	850.3673	915.9345	941.8317	967.4562	1001.3222	1069.0197	1079.4619	1105.1285	1114.1879	1137.2627	1158.2958	1175.054	1252.3762	1280.4462	1312.4265	1365.876	1381.8562	1406.7116	1418.6943	1482.6321	1492.1377	1496.2573	1506.516	1518.4554	1844.4616	3014.9209	3035.9898	3043.156	3067.0803	3094.2791	3112.8739	3115.3587	3138.6814	3182.5043
CC12CN1CCOC2=O	C[C@]12CN1CCOC2=O	
InChI=1S/C6H9NO2/c1-6-4-7(6)2-3-9-5(6)8/h2-4H2,1H3	InChI=1S/C6H9NO2/c1-6-4-7(6)2-3-9-5(6)8/h2-4H2,1H3/t6-,7?/m1/s1
