15
gdb 54392	2.69337	1.38021	1.29618	3.6647	67.14	-0.2508	-0.0137	0.2371	1031.9577	0.112656	-453.914569	-453.906554	-453.905609	-453.947607	29.755	
N	-0.1132356053	 1.2971443205	 0.1327933881	-0.535687
C	 0.0600951745	-0.0439661811	-0.0196026496	 0.257155
O	 1.1344892945	-0.5969158033	-0.1453116593	-0.358073
C	-1.2318282286	-0.8076541914	-0.0336297269	 0.116175
C	-1.5354185645	-2.2435525299	 0.4810959571	-0.272996
C	-2.9193638389	-1.6683629884	 0.0323508692	-0.165674
N	-2.5274811952	-0.306177759	 0.613651941	-0.369248
C	-2.1756589677	-1.1853197163	-1.2241145471	 0.491699
O	-2.2428266533	-1.1468181925	-2.404149462	-0.29685
H	 0.687324656	 1.9010373392	 0.0418202535	 0.266776
H	-1.0387571336	 1.6938053945	 0.1373381016	 0.27547
H	-1.1089164547	-3.0979490795	-0.0492892407	 0.13518
H	-1.4378429754	-2.3412375787	 1.5659585504	 0.119745
H	-3.9154676754	-2.0864051169	 0.1582946459	 0.112787
H	-2.4213681724	-0.4333800574	 1.6263368386	 0.223542
56.9068	134.2838	171.2104	196.2863	313.2835	358.5019	458.7515	480.8055	544.6087	596.7587	646.9306	680.9225	771.57	788.6721	801.634	815.8698	924.4773	943.0085	999.0724	1031.4112	1065.0598	1100.0644	1115.4978	1167.9026	1190.8176	1232.7478	1256.557	1294.1496	1407.2255	1498.8817	1610.0193	1800.5475	1954.3171	3057.3539	3133.0793	3153.6748	3379.3333	3590.0204	3728.0044
NC(=O)C12CC(N1)C2=O	NC(=O)[C@@]12C[C@@H](N1)C2=O	
InChI=1S/C5H6N2O2/c6-4(9)5-1-2(7-5)3(5)8/h2,7H,1H2,(H2,6,9)	InChI=1S/C5H6N2O2/c6-4(9)5-1-2(7-5)3(5)8/h2,7H,1H2,(H2,6,9)/t2-,5+/m1/s1
