21
gdb 111230	3.20831	1.22345	1.12797	1.4869	82.95	-0.2281	0.0249	0.253	1182.5944	0.184724	-387.079426	-387.071387	-387.070443	-387.11188	32.201	
O	-0.0854529177	 1.4168825117	 0.2538228306	-0.423657
C	-0.0096706891	 0.0306011654	-0.0558843937	-0.121345
C	-1.4132008289	-0.5385016006	 0.0293650114	 0.055761
C	-1.4926840747	-2.0976302299	 0.0275804675	-0.03819
C	-1.3629993367	-2.0372512426	 1.5789129333	-0.230997
C	-2.0248562656	-0.6281392692	 1.4679259796	-0.049211
C	-3.5173933799	-0.8354164941	 1.3130891606	-0.067519
C	-3.9371940777	-1.7507222635	 0.4381207468	-0.06057
C	-2.9174403538	-2.5370631946	-0.3589591475	-0.262619
H	 0.8001753846	 1.7868583463	 0.1954351973	 0.28529
H	 0.3805298588	-0.1279281301	-1.0754002141	 0.081956
H	 0.6722130521	-0.489080888	 0.6346947157	 0.082303
H	-2.0429349991	-0.0233798941	-0.7026336467	 0.070514
H	-0.7343436391	-2.6503660337	-0.5354986729	 0.053281
H	-1.895556952	-2.7903757056	 2.1648743998	 0.091654
H	-0.3221694102	-1.9931373326	 1.9060118798	 0.094586
H	-1.7603460389	 0.1460898059	 2.1880369713	 0.06733
H	-4.2085423275	-0.2444311248	 1.9061015639	 0.084265
H	-4.9919404986	-1.9537212537	 0.2764647615	 0.083526
H	-3.0812144139	-2.3903666996	-1.4362712647	 0.102263
H	-3.0430021322	-3.6148040526	-0.1811717197	 0.10138
86.2578	151.2888	225.3225	273.156	283.6697	355.2394	416.1713	472.0141	503.6919	518.0472	691.2363	712.4942	817.9215	852.2049	853.8634	888.3762	916.732	936.3063	956.1303	977.0867	993.247	1044.9132	1058.483	1071.4471	1087.3568	1096.1991	1121.911	1135.8067	1165.7327	1189.4228	1223.2244	1244.0893	1246.8263	1277.9591	1289.0937	1305.8265	1319.3307	1356.3471	1376.4672	1400.2346	1457.4997	1474.7885	1496.4574	1521.8955	1697.7414	2958.0033	2991.5293	2998.8734	3023.1225	3052.1967	3059.0711	3065.0902	3108.5452	3117.1802	3158.7636	3183.3605	3829.3948
OCC1C2CC1C=CC2	OC[C@H]1[C@H]2C[C@@H]1C=CC2	
InChI=1S/C8H12O/c9-5-8-6-2-1-3-7(8)4-6/h1-2,6-9H,3-5H2	InChI=1S/C8H12O/c9-5-8-6-2-1-3-7(8)4-6/h1-2,6-9H,3-5H2/t6-,7+,8+/m0/s1
