20
gdb 17918	3.03633	2.12286	2.02622	1.6466	72.93	-0.2336	0.0792	0.3128	826.1629	0.180369	-349.021992	-349.015131	-349.014187	-349.052545	28.033	
C	-0.1416959077	 1.5406497722	-0.0018561063	-0.434847
C	 0.0607128482	 0.0279655579	 0.0096116032	 0.034314
C	 1.0508849999	-0.576171096	-1.020200238	-0.045801
C	 2.417076901	-0.0163042994	-0.5509266555	-0.216958
C	 2.2727211187	-0.028553738	 1.0059941246	-0.216107
C	 0.8468107813	-0.5844391853	 1.1852234941	 0.108384
O	 0.8762419462	-1.9818882779	 0.8523993029	-0.285055
C	 0.9881146166	-2.0479161854	-0.5841283831	-0.077734
H	 0.7965850396	 2.0968792801	 0.0714272683	 0.119918
H	-0.6396502185	 1.8560736447	-0.9249038789	 0.116974
H	-0.7760155664	 1.8523890603	 0.8349935571	 0.117282
H	-0.915920336	-0.4638709621	-0.0631225362	 0.073988
H	 0.8234721113	-0.4152605487	-2.0755905486	 0.060326
H	 3.2463096416	-0.6379234198	-0.9000486642	 0.097743
H	 2.5883882157	 0.9930865737	-0.9342741605	 0.096486
H	 2.9945744916	-0.6864133786	 1.494540151	 0.106314
H	 2.3822101751	 0.9697642107	 1.4407677726	 0.094284
H	 0.4198234769	-0.4838793973	 2.1844501281	 0.067034
H	 0.1131900603	-2.5699778098	-0.9950925305	 0.09136
H	 1.8870845645	-2.6139443115	-0.8596522402	 0.092095
185.5772	217.1562	246.9064	275.3017	377.5095	418.1677	529.2223	600.3689	727.4893	756.5849	808.6747	840.0737	879.0178	897.6053	909.3904	956.9022	963.5536	974.4594	1015.2358	1030.8327	1057.0529	1080.6658	1105.51	1134.2192	1160.2829	1182.3319	1212.2011	1242.3071	1257.56	1277.3546	1297.6453	1309.5778	1338.055	1346.0385	1371.9444	1402.4226	1413.4836	1479.3178	1497.7131	1503.5242	1509.0631	1531.8271	3001.3063	3035.2017	3037.9464	3044.0627	3052.1713	3060.5175	3090.5528	3093.8057	3100.0031	3107.7219	3112.0191	3117.484
CC1C2CCC1OC2	C[C@H]1[C@H]2CC[C@@H]1OC2	
InChI=1S/C7H12O/c1-5-6-2-3-7(5)8-4-6/h5-7H,2-4H2,1H3	InChI=1S/C7H12O/c1-5-6-2-3-7(5)8-4-6/h5-7H,2-4H2,1H3/t5-,6-,7-/m0/s1
