20
gdb 54249	2.46894	1.45756	1.25572	3.5183	80.38	-0.2279	0.0104	0.2384	1110.4379	0.171092	-403.202879	-403.193587	-403.192643	-403.237318	35.037	
C	 0.0550392892	 1.5608392301	-0.447235213	-0.434108
C	-0.0094350374	 0.0718048271	-0.0801934612	 0.167945
C	 0.7395505113	-0.8298927556	-1.1234152621	-0.24474
C	 1.5057940212	-1.9015190533	-0.3078520403	-0.261295
C	 1.5438135139	-1.3082333184	 1.0808464839	-0.080546
C	 0.7342495355	-0.2556370365	 1.2002375484	-0.130148
C	-1.5020816333	-0.3507433043	-0.0481694728	 0.383253
N	-1.8171390028	-1.3411452781	 0.8316103876	-0.531695
O	-2.3252159263	 0.1382149942	-0.7994566146	-0.379977
H	 1.095941116	 1.8771296774	-0.5631103105	 0.105235
H	-0.4862100432	 1.7404761265	-1.3781151853	 0.142761
H	-0.4076339231	 2.1804203317	 0.3280180267	 0.113467
H	 0.0593486479	-1.2553544633	-1.8644102838	 0.117213
H	 1.4532634819	-0.2020946741	-1.6656389691	 0.105959
H	 0.985865569	-2.8693134696	-0.3048351335	 0.109108
H	 2.5062580448	-2.0955729148	-0.7102455146	 0.108493
H	 2.1540999296	-1.7188945263	 1.8785990552	 0.097553
H	 0.5874883627	 0.3237991672	 2.1065357298	 0.097525
H	-1.1390694955	-1.7049810945	 1.4779975749	 0.257475
H	-2.7702726816	-1.6624310755	 0.8662865442	 0.256521
34.903	83.8089	202.494	223.1748	241.951	252.4575	303.5868	329.2131	424.2189	448.5443	535.8636	604.5817	636.81	686.4183	761.4307	778.4243	797.7477	844.9281	879.2843	918.1787	954.8582	979.0618	999.6804	1027.3388	1085.0548	1111.7885	1120.8385	1180.7706	1190.1628	1209.0993	1249.8874	1305.3806	1318.937	1340.079	1381.1721	1405.0639	1481.469	1486.5348	1495.7299	1502.0132	1598.0488	1677.471	1786.0223	3015.0936	3039.2524	3050.1133	3063.6854	3104.379	3110.8512	3137.1771	3171.9466	3197.9599	3598.6491	3737.1472
CC1(CCC=C1)C(N)=O	C[C@]1(CCC=C1)C(=O)N	
InChI=1S/C7H11NO/c1-7(6(8)9)4-2-3-5-7/h2,4H,3,5H2,1H3,(H2,8,9)	InChI=1S/C7H11NO/c1-7(6(8)9)4-2-3-5-7/h2,4H,3,5H2,1H3,(H2,8,9)/t7-/m0/s1
