19
gdb 47491	2.81346	1.41133	1.08158	2.7975	75.85	-0.237	0.0303	0.2672	1138.8547	0.162432	-419.231278	-419.223372	-419.222428	-419.263813	30.937	
O	-0.0303824105	-0.0675592248	 0.114287012	-0.37518
C	-0.0268294711	 1.1478271897	 0.0501831275	 0.39203
C	-1.3276734386	 1.9506179237	-0.019622485	-0.39158
C	-1.1780155941	 3.4140217024	 0.344519551	 0.332237
C	-2.3703725527	 4.2077105231	 0.7187397474	-0.303673
N	-1.3718798388	 3.8388876515	 1.7444243379	-0.353194
C	 0.0217189455	 4.0443077186	-0.3316984379	-0.255915
C	 1.2844955919	 3.3122102783	 0.1231650126	-0.155608
N	 1.1332225349	 1.8679481843	-0.0327119538	-0.309405
H	-1.6919573604	 1.8560389485	-1.0513886769	 0.135783
H	-2.059554679	 1.4408512313	 0.613624992	 0.122532
H	-2.4164769509	 5.2686499564	 0.4865131987	 0.117672
H	-3.3356722674	 3.7070603152	 0.7286364643	 0.113255
H	-1.7247424195	 3.0644414992	 2.3020190146	 0.231353
H	-0.0849335458	 3.9721589873	-1.4209648311	 0.105446
H	 0.1007965706	 5.1011557831	-0.0653048741	 0.113074
H	 2.1499398307	 3.6356688936	-0.4644245454	 0.110067
H	 1.4813262048	 3.5692806934	 1.173406783	 0.125551
H	 1.9615461004	 1.2955155152	 0.0516060533	 0.245556
88.3304	118.0406	206.1529	282.7861	365.918	369.2281	455.0795	474.0746	482.8276	541.5019	646.8594	672.928	742.1801	819.9266	841.4925	888.9354	933.3212	944.3081	961.1032	990.1259	1005.1133	1083.0533	1089.2507	1113.4773	1141.2168	1179.0759	1220.4773	1255.7777	1260.7674	1291.4621	1319.6777	1353.5276	1374.707	1394.7876	1423.4567	1454.5776	1475.0247	1483.6057	1515.3561	1527.7494	1789.7966	3007.1958	3028.5553	3037.6064	3067.1454	3093.695	3101.989	3105.6791	3185.6178	3493.8832	3600.8071
O=C1CC2(CN2)CCN1	O=C1C[C@]2(CN2)CCN1	
InChI=1S/C6H10N2O/c9-5-3-6(4-8-6)1-2-7-5/h8H,1-4H2,(H,7,9)	InChI=1S/C6H10N2O/c9-5-3-6(4-8-6)1-2-7-5/h8H,1-4H2,(H,7,9)/t6-/m0/s1
