15
gdb 133021	3.98592	1.12195	0.88038	3.7721	74.57	-0.2149	-0.0411	0.1738	1231.4444	0.113489	-458.132516	-458.124799	-458.123855	-458.16495	28.64	
C	-0.0273522528	 1.4441157582	 0.0331565841	-0.346306
N	-0.028191116	-0.00397506	 0.0543394856	-0.319635
C	 0.5247507418	-0.6307430879	-0.9129089116	 0.426762
N	 1.1507827492	-0.00545936	-2.025618522	-0.370102
C	 1.7293748403	-0.6963803508	-3.0373957738	 0.110666
N	 1.7820661355	-1.9859344994	-3.1132750429	-0.32504
C	 1.1958020431	-2.643134733	-2.0701206241	 0.348842
F	 1.2637097239	-3.9622653805	-2.1721381197	-0.061029
C	 0.5885256707	-2.0720513035	-1.0061434429	-0.3477
H	 0.988830734	 1.8764022	 0.0400381238	 0.103756
H	-0.5577805742	 1.8646685143	-0.8394163515	 0.103646
H	-0.5369005226	 1.8189202543	 0.924196191	 0.132704
H	 1.1619344549	 1.0020887196	-2.0583867922	 0.26849
H	 2.172614507	-0.0950561391	-3.8273715706	 0.142931
H	 0.143989705	-2.6572131522	-0.2139279734	 0.132016
112.5913	142.0187	193.3929	221.7531	296.8164	381.6654	425.5408	475.2055	549.8894	611.0075	620.6086	707.3535	747.6056	782.2823	870.2769	929.3662	962.5858	981.7086	1037.5436	1105.5891	1148.2377	1190.3745	1220.4429	1286.2235	1370.5563	1422.92	1447.324	1465.2244	1506.3246	1508.6774	1623.4552	1675.8658	1737.1389	2935.7889	2975.4522	3099.0925	3168.575	3241.8223	3637.7412
CN=C1NC=NC(F)=C1	CN=c1[nH]cnc(F)c1	
InChI=1S/C5H6FN3/c1-7-5-2-4(6)8-3-9-5/h2-3H,1H3,(H,7,8,9)	InChI=1S/C5H6FN3/c1-7-5-2-4(6)8-3-9-5/h2-3H,1H3,(H,7,8,9)
