21
gdb 41957	2.24864	1.94814	1.64463	2.2977	77.16	-0.2264	0.0708	0.2973	963.6805	0.186915	-424.236852	-424.229752	-424.228808	-424.267936	29.481	
C	-0.0187881927	 1.5595930369	-0.0122401986	-0.069292
O	 1.259765135	 2.1624687343	-0.1017249858	-0.238558
C	 2.0627731096	 1.6583234451	-1.1539523514	-0.069292
C	 2.1789756228	 0.1248930147	-1.149724952	-0.030037
C	 2.8574585283	-0.4287606694	 0.1144181097	-0.069288
O	 2.1401617805	-0.1497542441	 1.3034511044	-0.238558
C	 0.775888437	-0.5274880848	 1.256141183	-0.069288
C	 0.0342535531	 0.0231675206	 0.026633814	-0.030037
C	 0.7625878622	-0.4665578779	-1.2355176267	-0.236774
H	-0.4720834336	 1.9624810539	 0.8993643557	 0.104245
H	-0.6482330704	 1.8691097454	-0.8663401476	 0.078967
H	 1.6578703563	 1.9784900758	-2.1312107553	 0.078967
H	 3.0432884178	 2.1292146803	-1.0287743131	 0.104245
H	 2.7827387449	-0.1720439077	-2.0166140405	 0.068298
H	 2.9897925738	-1.5194530079	-0.0054442691	 0.078966
H	 3.8487627094	 0.0137899227	 0.2568406171	 0.104245
H	 0.683609799	-1.6288330204	 1.2594792366	 0.078967
H	 0.3334074674	-0.1529357686	 2.184979165	 0.104245
H	-0.9967998358	-0.3513172181	 0.0564314296	 0.068298
H	 0.2488923328	-0.126020404	-2.1426273262	 0.090839
H	 0.7957454327	-1.5621951367	-1.2698174488	 0.09084
167.5778	241.2538	256.8044	347.1517	397.5867	401.2899	403.733	481.7751	568.7738	698.1235	775.9612	791.5717	871.8368	875.164	920.7675	930.4533	945.2145	969.4065	985.4642	1008.2539	1031.4801	1081.7325	1101.2574	1136.4709	1142.052	1146.8258	1227.4799	1228.9573	1241.9225	1290.646	1301.1171	1317.3065	1352.0435	1357.403	1364.5795	1371.8547	1380.7472	1409.976	1414.426	1434.9073	1486.8515	1491.0215	1497.2331	1498.5504	1513.2695	2936.2199	2937.272	2940.6769	2944.9431	3017.2918	3031.1054	3035.3946	3060.4059	3067.2767	3070.0727	3072.1513	3075.0894
C1OCC2COCC1C2	C1OC[C@H]2COC[C@@H]1C2	
InChI=1S/C7H12O2/c1-6-2-8-4-7(1)5-9-3-6/h6-7H,1-5H2	InChI=1S/C7H12O2/c1-6-2-8-4-7(1)5-9-3-6/h6-7H,1-5H2/t6-,7+
