17
gdb 75789	2.34783	1.31968	1.16355	2.5779	70.2	-0.2498	-0.0452	0.2045	1133.5692	0.131706	-458.978279	-458.968761	-458.967817	-459.012935	34.088	
C	-0.6456957715	 1.1566245587	 0.0052608451	-0.413179
C	 0.1347044136	-0.145167584	-0.0462614244	-0.11095
C	 1.4489913014	-0.2117502193	-0.8405183244	 0.3897
O	 1.8220989372	 0.3026242034	-1.8522752429	-0.291167
C	 2.1286051371	-1.0572608899	 0.2440017442	-0.393032
C	 0.974559842	-0.6283753142	 1.2047003749	 0.259689
O	 1.2747104313	 0.4834021206	 2.0192641689	-0.477379
C	 0.324014403	-1.7416839886	 2.000206434	 0.092656
O	 0.1671156157	-2.862115498	 1.5857902809	-0.252403
H	-0.0397505727	 1.9542962469	 0.4388098225	 0.144573
H	-0.9285874857	 1.4506216467	-1.0096918633	 0.138963
H	-1.5583886565	 1.0539487514	 0.5991977879	 0.123719
H	-0.4948786696	-0.9835465075	-0.3709592284	 0.125022
H	 2.072280028	-2.1277189753	 0.0213155188	 0.155153
H	 3.1469837046	-0.7849266497	 0.5312272857	 0.127233
H	 2.041777396	 0.272444382	 2.5620059658	 0.289207
H	-0.0165365039	-1.4288704935	 3.0132242549	 0.092197
61.4569	77.5981	163.8686	182.8563	222.5841	237.7079	270.3927	281.9512	375.1072	412.6351	500.5172	554.1566	587.7573	662.0307	737.3362	747.826	847.3694	863.6427	978.9477	1021.5375	1038.8818	1068.1369	1117.1083	1141.8506	1171.1401	1194.7851	1214.8011	1267.3058	1317.3017	1338.8173	1391.0529	1405.5154	1422.7671	1486.7141	1499.6583	1821.0932	1901.0862	2884.0836	3039.4968	3049.8417	3059.3897	3116.4582	3126.2056	3140.2096	3811.2362
CC1C(=O)CC1(O)C=O	C[C@H]1C(=O)C[C@]1(O)C=O	
InChI=1S/C6H8O3/c1-4-5(8)2-6(4,9)3-7/h3-4,9H,2H2,1H3	InChI=1S/C6H8O3/c1-4-5(8)2-6(4,9)3-7/h3-4,9H,2H2,1H3/t4-,6-/m0/s1
