16
gdb 22957	2.83158	0.89227	0.72675	1.4745	78.77	-0.252	-0.0055	0.2465	1552.823	0.121201	-437.786196	-437.77653	-437.775585	-437.822924	32.957	
C	 0.0228548879	 1.5162915719	-0.2029591248	-0.499379
C	 0.0019250203	 0.0692582562	-0.058568306	 0.068187
C	-0.0183521999	-1.1281198866	 0.0648289	 0.117092
C	-0.038914599	-2.5707205473	 0.2080417824	-0.152335
O	 0.0243725688	-3.037091737	 1.5944587107	-0.283447
C	-1.2412225483	-3.7338550799	 1.5014030142	-0.162331
C	-1.3759504722	-3.2866111542	 0.0709671492	 0.353232
N	-2.1771193756	-3.3968260576	-0.8952175144	-0.21513
O	-3.2894013506	-4.1757442404	-0.5392872575	-0.387642
H	 0.8548236943	 1.8424175655	-0.8362935358	 0.15248
H	-0.9060412643	 1.8825504358	-0.6533776491	 0.154045
H	 0.1344728307	 2.0038711614	 0.7716214875	 0.156207
H	 0.7643005929	-3.0306512392	-0.3842174286	 0.123091
H	-1.1434433764	-4.8160757414	 1.6530400938	 0.129219
H	-1.9941289942	-3.3385571332	 2.1947594862	 0.134315
H	-3.8096582843	-4.1732228642	-1.350253458	 0.312395
18.3422	63.1304	82.5533	144.6701	196.1806	220.1349	304.6072	336.0509	374.089	428.8698	479.5717	485.5046	618.7003	741.3895	789.7538	893.7434	956.6555	979.6751	1008.7203	1028.1319	1050.2407	1054.0002	1129.0369	1156.7124	1188.1645	1238.2087	1315.0467	1342.4672	1412.0423	1413.2432	1474.6976	1477.0796	1498.5374	1816.854	2370.6107	3006.0818	3019.1334	3029.5901	3058.8089	3092.4349	3092.921	3814.707
CC#CC1OCC1=NO	CC#C[C@H]1OCC1=NO	
InChI=1S/C6H7NO2/c1-2-3-6-5(7-8)4-9-6/h6,8H,4H2,1H3	InChI=1S/C6H7NO2/c1-2-3-6-5(7-8)4-9-6/h6,8H,4H2,1H3/t6-/m1/s1
