18
gdb 54835	2.60065	1.44505	1.11137	3.1327	72.64	-0.2325	0.029	0.2615	1127.7055	0.147479	-439.078605	-439.070015	-439.069071	-439.111967	32.553	
C	-0.4429887832	 1.4333275101	-0.0264018142	-0.496051
C	-0.0398442427	-0.008335959	 0.0665975176	 0.243315
C	-0.9737686996	-1.1618836373	 0.428668065	-0.142124
O	 0.0903019807	-1.8501090152	 1.1551414043	-0.298721
C	 0.9753315434	-0.7457225129	 0.9061590212	 0.016141
C	 1.2435375751	-0.5641730091	-0.5632095536	-0.175436
C	 1.3596093373	-1.6254902535	-1.633195759	 0.389013
N	 0.9454289046	-2.8782143036	-1.2927838479	-0.544186
O	 1.7992004384	-1.345999445	-2.7337640093	-0.377675
H	 0.4329099346	 2.0885138139	-0.0109796681	 0.130584
H	-0.9847653778	 1.632423671	-0.9579824249	 0.136305
H	-1.0925061315	 1.7175624346	 0.8090961555	 0.123156
H	-1.7652131098	-0.865005589	 1.1252548788	 0.117771
H	-1.3880256464	-1.7734747298	-0.3788157016	 0.122271
H	 1.6451455462	-0.4529841352	 1.707088674	 0.114735
H	 1.9411109004	 0.2432738448	-0.7680598982	 0.116183
H	 0.7016937488	-3.0923791482	-0.3364162638	 0.270823
H	 1.0895117515	-3.6116825564	-1.9672798658	 0.253896
56.8581	146.3458	187.534	206.3512	287.3397	310.9197	347.3591	395.5895	436.1217	485.9301	612.5157	637.3066	674.629	743.4133	818.2291	833.7005	892.6333	928.6919	940.9385	982.7742	1004.712	1013.8052	1051.5133	1093.1321	1123.9576	1134.7898	1169.231	1233.2335	1266.8942	1293.9977	1333.3043	1378.3547	1420.5144	1458.8667	1486.5225	1497.3296	1507.7213	1606.9501	1785.6921	3028.102	3038.8767	3088.6837	3095.0322	3107.9438	3160.5948	3178.7832	3546.46	3705.5422
CC12COC1C2C(N)=O	C[C@]12CO[C@H]1[C@H]2C(=O)N	
InChI=1S/C6H9NO2/c1-6-2-9-4(6)3(6)5(7)8/h3-4H,2H2,1H3,(H2,7,8)	InChI=1S/C6H9NO2/c1-6-2-9-4(6)3(6)5(7)8/h3-4H,2H2,1H3,(H2,7,8)/t3-,4-,6+/m0/s1
