21
gdb 95854	2.3664	1.32888	1.07793	1.4917	83.95	-0.2435	0.0547	0.2982	1234.6032	0.182733	-387.070761	-387.06178	-387.060836	-387.104103	34.858	
C	 0.0247358648	 1.5937904627	-0.0237196187	-0.407204
C	 0.0310250605	 0.0639957859	-0.0336823778	 0.021943
C	 0.7779352248	-0.4818989872	-1.257778635	-0.069043
O	 0.8053361001	-1.8987539583	-1.2873610734	-0.240729
C	 1.455607709	-2.4494888233	-0.1647244774	-0.076997
C	 0.7585857289	-2.0658034647	 1.1607702618	-0.192053
C	 0.6615279839	-0.52142067	 1.2393837884	-0.213902
C	-0.5492999286	-2.7042108697	 1.2885805432	 0.358583
C	-1.6247557116	-3.2293451196	 1.403361043	-0.496279
H	 1.0438339765	 1.9955152274	 0.026341523	 0.113319
H	-0.4475925607	 1.9957220405	-0.9265606854	 0.114599
H	-0.5258842066	 1.9791204803	 0.8404168284	 0.11711
H	-1.0029427232	-0.2979666035	-0.096799832	 0.095726
H	 0.290486237	-0.1692876287	-2.1863317385	 0.105583
H	 1.809786427	-0.0841899479	-1.2680378767	 0.07788
H	 1.4551296094	-3.5332263694	-0.3039490674	 0.115634
H	 2.5030845499	-2.1031673761	-0.1168834545	 0.082435
H	 1.3955350016	-2.4203542015	 1.982368501	 0.100929
H	 1.6781515543	-0.1213709638	 1.357410824	 0.091318
H	 0.0932188021	-0.2240345131	 2.1262364502	 0.105727
H	-2.572211329	-3.6986486599	 1.5005148339	 0.195419
99.6951	113.7754	194.4281	220.3845	261.1645	295.3049	339.651	383.7891	405.8613	439.9939	524.741	579.741	623.1561	632.1815	733.7819	774.6165	865.5384	877.4955	915.3728	934.8215	972.1479	983.0387	1008.8259	1086.9347	1109.4017	1124.4632	1159.4702	1178.0243	1222.7126	1264.5347	1275.61	1325.4891	1329.5577	1344.001	1355.6846	1384.339	1400.6535	1412.0968	1423.3961	1482.5735	1485.7009	1497.4526	1501.2612	1502.0146	2233.3822	2936.7089	2952.6962	3009.4247	3020.9085	3025.3836	3035.8326	3076.3958	3078.8165	3092.4209	3099.1193	3100.1671	3504.5867
CC1COCC(C1)C#C	C[C@H]1COC[C@@H](C1)C#C	
InChI=1S/C8H12O/c1-3-8-4-7(2)5-9-6-8/h1,7-8H,4-6H2,2H3	InChI=1S/C8H12O/c1-3-8-4-7(2)5-9-6-8/h1,7-8H,4-6H2,2H3/t7-,8-/m1/s1
