23
gdb 112723	2.34958	1.12286	0.95038	1.7937	81.63	-0.2452	0.0686	0.3138	1375.86	0.203407	-425.417631	-425.407049	-425.406104	-425.452654	39.932	
C	-0.1118993541	 1.5501683648	-0.1366784116	-0.424417
C	 0.0883154	 0.0490770515	 0.0076728532	 0.001073
C	 1.1332550833	-0.6805617056	-0.8793375426	-0.257467
C	 1.4451123151	-1.6153786528	 0.318093566	-0.012674
C	 2.8678188336	-2.0999423728	 0.5429772822	-0.093696
O	 3.322671074	-2.9432467926	-0.5083297554	-0.419996
C	 0.7959324217	-0.5661433717	 1.2668916748	 0.352673
C	 1.7780455672	 0.3684645834	 1.9698831784	-0.452928
O	-0.0523120121	-1.1950820873	 2.2148535854	-0.479381
H	 0.8344157199	 2.0969313537	-0.0697878716	 0.112625
H	-0.5592751023	 1.7889665665	-1.10790921	 0.117778
H	-0.7821397774	 1.945262817	 0.6359633189	 0.107662
H	-0.8758646084	-0.4638086134	-0.07965657	 0.077289
H	 0.7813684798	-1.1404518749	-1.80444541	 0.098827
H	 1.9872177446	-0.0370116031	-1.1184503996	 0.096864
H	 0.7694080292	-2.4797742048	 0.2999451679	 0.073902
H	 3.5664128425	-1.2565839424	 0.5550929506	 0.102492
H	 2.9461371919	-2.6026593339	 1.5207034902	 0.091678
H	 2.7357802489	-3.7055579842	-0.5437906018	 0.279791
H	 2.4843939283	 0.8297241135	 1.2737435278	 0.123317
H	 1.2405829217	 1.1825804767	 2.4719458863	 0.106635
H	 2.3476316477	-0.1787005848	 2.7266428471	 0.125906
H	-0.3950848551	-0.519227373	 2.8099374339	 0.272046
77.6466	105.3668	158.4307	206.1022	221.0964	242.7986	267.7307	292.3041	295.527	308.0207	345.5916	396.2446	443.1154	482.0647	549.2542	600.6791	736.3864	822.9823	874.2572	883.6906	914.7896	952.5672	973.1412	1008.3919	1042.0749	1081.0852	1110.0783	1119.5849	1151.5307	1154.1037	1168.1628	1193.028	1227.9519	1251.369	1262.9462	1304.0842	1348.9824	1365.7042	1376.7332	1398.3849	1411.4576	1413.0603	1425.8527	1487.408	1490.3456	1496.7265	1501.0036	1503.4168	1509.8404	2972.5358	3022.9806	3026.873	3029.2605	3043.0837	3050.7765	3070.4819	3084.7992	3093.0585	3096.7203	3112.4111	3118.4252	3798.4665	3812.2324
CC1CC(CO)C1(C)O	C[C@H]1C[C@@H](CO)[C@]1(C)O	
InChI=1S/C7H14O2/c1-5-3-6(4-8)7(5,2)9/h5-6,8-9H,3-4H2,1-2H3	InChI=1S/C7H14O2/c1-5-3-6(4-8)7(5,2)9/h5-6,8-9H,3-4H2,1-2H3/t5-,6-,7+/m0/s1
