24
gdb 58247	2.62312	1.05333	0.84211	2.3486	85.94	-0.2422	0.0689	0.3111	1489.2799	0.215157	-405.529626	-405.51848	-405.517536	-405.565924	40.872	
C	 0.0718343914	 1.5508022976	 0.040723894	-0.391491
C	 0.0318402326	 0.0172815814	 0.0627940307	 0.008124
C	 0.6766879837	-0.5301398103	 1.3438162256	-0.379957
C	-1.4114234251	-0.4953768303	-0.1269830039	 0.150864
O	-2.00543012	 0.0463866381	-1.3100958327	-0.4367
C	-1.5065109683	-2.0098775423	-0.1442078465	-0.063698
N	-1.8367865491	-2.6971225859	 1.1184645007	-0.33623
C	-2.7939847596	-2.7419187171	-0.0015441737	-0.000428
C	-4.1327090503	-2.0711396753	 0.192479584	-0.386765
H	 1.1037919085	 1.9154040885	 0.0673857776	 0.103776
H	-0.4163963249	 1.9433869626	-0.8535505892	 0.12271
H	-0.4484425751	 1.9628721939	 0.9138284591	 0.111472
H	 0.6151074015	-0.3521336136	-0.797512919	 0.053173
H	 0.74450744	-1.6207992418	 1.3407624888	 0.111322
H	 1.6886453238	-0.1292464647	 1.462038653	 0.10657
H	 0.0965160861	-0.2407777154	 2.226938348	 0.122499
H	-2.0267899162	-0.1171606701	 0.6959860315	 0.092619
H	-1.5161762759	-0.2978345155	-2.065741521	 0.273978
H	-0.7614120474	-2.485954494	-0.7859179078	 0.068467
H	-1.3249034807	-3.5718567136	 1.1938265099	 0.228209
H	-2.8462572288	-3.681078902	-0.5524416933	 0.07723
H	-4.0432433844	-1.1817809111	 0.8188166308	 0.128792
H	-4.5564748103	-1.7703795398	-0.7705852942	 0.123615
H	-4.8355996218	-2.7548131292	 0.6805726876	 0.111848
57.5797	70.6026	117.1598	161.1476	188.8174	207.0069	232.8044	246.4781	279.9067	332.3401	357.9733	389.4554	405.0627	456.9697	517.8	583.4571	789.5741	836.9427	847.9182	903.5307	930.5451	944.3319	966.3025	978.163	1010.3407	1045.4089	1055.3647	1091.2857	1126.6245	1134.2679	1158.5362	1193.4527	1202.6731	1250.5817	1268.5087	1278.5823	1299.4353	1344.552	1380.7374	1397.7854	1403.153	1410.4518	1424.7489	1429.8193	1467.2437	1485.5684	1488.2384	1490.7647	1500.611	1503.7095	1510.6419	2961.2836	3029.595	3036.7615	3040.7911	3063.1728	3076.0951	3091.0346	3099.9719	3100.5719	3104.008	3117.7427	3128.5794	3138.441	3503.2194	3796.6319
CC(C)C(O)C1NC1C	CC(C)[C@@H](O)[C@H]1N[C@H]1C	
InChI=1S/C7H15NO/c1-4(2)7(9)6-5(3)8-6/h4-9H,1-3H3	InChI=1S/C7H15NO/c1-4(2)7(9)6-5(3)8-6/h4-9H,1-3H3/t5-,6-,7+/m0/s1
