23
gdb 96260	2.23767	1.42709	0.97902	1.2729	86.91	-0.2373	0.0205	0.2578	1275.2226	0.20812	-388.30018	-388.291397	-388.290452	-388.333091	35.308	
O	-0.1103646076	 1.4855896449	-0.0844900799	-0.443316
C	 0.0357185202	 0.063240604	-0.0433414982	 0.145682
C	-1.3902405965	-0.4894058141	 0.1492230951	-0.180847
C	-1.5399008413	-1.6729022017	 1.1190874573	-0.201579
C	-0.6578858008	-2.9073526474	 0.8153733602	-0.246052
C	-0.7338205031	-3.3384311267	-0.6228466313	-0.036581
C	 0.0609407217	-2.8720395034	-1.5868744158	-0.045248
C	 1.1883395947	-1.8864364767	-1.3860028119	-0.264404
C	 0.7599297871	-0.4032559824	-1.3214434014	-0.203849
H	 0.7549554012	 1.8669234457	-0.2660032172	 0.27425
H	 0.6514670098	-0.2137182351	 0.8310179508	 0.05553
H	-1.9898159854	 0.3406612864	 0.5348536487	 0.110206
H	-1.8118911157	-0.75218084	-0.8261671829	 0.099191
H	-1.3189909918	-1.3385644349	 2.1407226486	 0.096728
H	-2.5943026095	-1.9757608718	 1.118259565	 0.095589
H	 0.3799194754	-2.6722158327	 1.0769820798	 0.101573
H	-0.9619827683	-3.7265040856	 1.4768555453	 0.094799
H	-1.5320308884	-4.0293085012	-0.8877703407	 0.081542
H	-0.109465917	-3.2007051924	-2.6100638736	 0.083104
H	 1.7491503635	-2.1287930153	-0.4742771106	 0.105605
H	 1.9003419649	-1.9923717628	-2.211643635	 0.098036
H	 0.127848848	-0.1547298971	-2.1826659703	 0.104971
H	 1.6706743389	 0.2060089804	-1.418343752	 0.075069
107.1768	184.0567	208.7474	234.9233	283.1323	309.5936	322.4551	378.1583	422.7494	473.3235	500.878	556.7413	598.817	748.3149	773.8856	807.5996	856.3668	874.5506	897.177	970.8986	997.3503	1001.2055	1004.2049	1031.9049	1066.6433	1085.7737	1100.2804	1133.6667	1154.6876	1201.9714	1240.5076	1255.4177	1270.4155	1285.9033	1300.5365	1336.7869	1340.2887	1357.7307	1370.4533	1382.7209	1396.2269	1426.1417	1438.3597	1479.276	1480.0143	1488.2882	1496.6799	1504.3349	1722.0096	2934.2394	2994.0254	3018.6395	3021.5839	3032.5071	3048.5791	3056.3846	3058.1921	3065.5953	3073.1873	3094.5652	3132.8394	3157.1996	3807.4263
OC1CCCC=CCC1	O[C@H]1CCCC=CCC1	
InChI=1S/C8H14O/c9-8-6-4-2-1-3-5-7-8/h1-2,8-9H,3-7H2/b2-1-	InChI=1S/C8H14O/c9-8-6-4-2-1-3-5-7-8/h1-2,8-9H,3-7H2/b2-1-/t8-/m1/s1
