12
gdb 132218	2.08338	1.86461	0.98397	3.9795	61.26	-0.243	-0.0222	0.2209	1061.5907	0.077895	-513.942663	-513.935655	-513.934711	-513.974381	26.345	
O	 0.0554990944	 1.2754966612	 0.0070572388	-0.382154
C	-0.0488465823	-0.0487021486	 0.0008046484	 0.502935
N	-1.1629832527	-0.6416107814	 0.0035926375	-0.37628
C	-1.1934642744	-2.0562516018	-0.0034428709	 0.35392
N	-2.2768183306	-2.7289569588	-0.0012051359	-0.527563
C	 0.106904615	-2.7306343943	-0.0136167099	-0.359886
C	 1.2063493405	-1.9862157039	-0.0155406689	 0.386936
F	 2.4420810067	-2.4187086121	-0.0241533702	-0.033079
O	 1.2031935606	-0.6262094893	-0.008617025	-0.257512
H	 0.9904747486	 1.5190738138	 0.00343436	 0.322149
H	-3.0687783388	-2.0833973679	 0.006202768	 0.224212
H	 0.1625119729	-3.8088428869	-0.0193803918	 0.146323
129.3434	185.8463	213.9913	345.0449	371.8337	432.6804	498.2761	545.6854	600.9264	636.3869	646.3942	686.1095	747.1136	863.075	915.7033	920.0219	972.5914	1014.631	1129.8674	1236.9772	1262.4168	1281.6932	1383.9264	1407.7955	1697.3874	1741.0712	1803.2311	3253.8288	3469.6972	3798.2002
OC1=NC(=N)C=C(F)O1	OC1=NC(=C[C@@H](F)O1)[NH]	
InChI=1S/C4H3FN2O2/c5-2-1-3(6)7-4(8)9-2/h1H,(H2,6,7,8)	InChI=1S/C4H4FN2O2/c5-2-1-3(6)7-4(8)9-2/h1-2,6H,(H,7,8)/t2-/m0/s1
