12
gdb 130289	3.67883	1.62105	1.12656	4.5626	61.74	-0.252	-0.0255	0.2265	962.1767	0.079729	-468.755682	-468.74927	-468.748326	-468.78639	24.888	
N	-0.0047967101	 1.3943801495	 0.1623215748	-0.584873
C	 0.0527746748	 0.0273973887	 0.037941564	 0.265032
N	-1.0594622554	-0.6887016803	 0.0033026696	-0.222838
O	-0.6584481225	-2.0843524186	-0.0301707728	-0.246894
C	 0.6546953201	-2.0580239046	-0.0358969909	 0.571623
C	 1.211537698	-0.8130172145	 0.0044977656	 0.042192
C	 2.5994685165	-1.1121391715	 0.0061018153	-0.136209
N	 2.8221361891	-2.4060027686	-0.0351011431	-0.13039
O	 1.5272708917	-3.0440683049	-0.0610454663	-0.242614
H	 0.7248077424	 1.9023723436	-0.3145383687	 0.264911
H	-0.9249689034	 1.7806243512	 0.0000147701	 0.27117
H	 3.4612557387	-0.4599403099	 0.0350753125	 0.148889
191.5226	244.4252	272.6483	342.1484	409.1896	538.7389	597.9799	608.4909	638.0904	676.1364	690.5605	766.95	782.763	808.3065	887.2267	905.3028	966.535	1126.3968	1156.0753	1208.0025	1354.8251	1426.3263	1479.1564	1551.1763	1606.1923	1626.0902	1655.8423	3242.7473	3565.486	3671.7009
NC1=NOC2=C1C=NO2	Nc1noc2c1cno2	
InChI=1S/C4H3N3O2/c5-3-2-1-6-8-4(2)9-7-3/h1H,(H2,5,7)	InChI=1S/C4H3N3O2/c5-3-2-1-6-8-4(2)9-7-3/h1H,(H2,5,7)
