19
gdb 84117	2.33982	1.69701	1.14783	1.0742	76.67	-0.2452	0.0035	0.2486	1104.2419	0.15982	-423.017782	-423.00943	-423.008485	-423.050799	31.774	
C	 0.1923159473	 1.4295311962	 0.119160429	-0.499619
C	 0.0066280838	-0.0493759438	 0.0077769781	 0.321244
C	 0.0493229061	-0.8119875173	-1.0889896581	-0.234136
C	-0.1186356741	-2.2912751538	-0.8211848463	 0.085145
O	 0.9050259007	-3.0901657475	-1.405987338	-0.431392
C	-0.205899959	-2.3564724436	 0.72671048	-0.109916
C	 1.1102074791	-2.442902686	 1.5312131103	-0.081741
O	 0.9681463248	-1.0932191969	 2.0305748884	-0.297184
C	-0.2323320782	-0.9000770435	 1.2338903347	 0.030114
H	 1.0095281933	 1.655116197	 0.8144622318	 0.146257
H	 0.420952277	 1.8875454942	-0.8465176551	 0.124921
H	-0.7067533407	 1.9112224226	 0.5237887679	 0.128813
H	 0.2154419798	-0.4456528612	-2.0979023912	 0.096161
H	-1.0407533522	-2.681125644	-1.2685877056	 0.091798
H	 1.7463142163	-2.6506176209	-1.2416484007	 0.27867
H	-0.9900961841	-3.023489548	 1.082507072	 0.081047
H	 1.1156802385	-3.1738823209	 2.3469773271	 0.107942
H	 2.0255613556	-2.5751473181	 0.940585761	 0.086216
H	-1.065634914	-0.5548786545	 1.8576380547	 0.075661
76.0479	141.2044	183.54	217.6185	259.7021	307.4024	325.7571	428.1841	520.9788	562.5059	587.3954	717.6992	768.4988	847.3314	859.1836	887.4171	948.5131	965.0895	1002.8119	1004.193	1025.6853	1030.9238	1064.4675	1084.132	1106.5546	1154.9864	1180.2554	1231.1144	1249.6837	1263.5369	1291.6407	1296.3823	1335.4544	1355.0303	1366.8968	1408.7741	1428.5885	1477.9025	1488.7838	1526.7845	1712.8987	3017.1909	3023.0396	3033.1895	3035.6047	3062.5643	3075.3571	3116.2774	3117.563	3177.6814	3802.655
CC1=CC(O)C2COC12	CC1=C[C@@H](O)[C@H]2CO[C@@H]12	
InChI=1S/C7H10O2/c1-4-2-6(8)5-3-9-7(4)5/h2,5-8H,3H2,1H3	InChI=1S/C7H10O2/c1-4-2-6(8)5-3-9-7(4)5/h2,5-8H,3H2,1H3/t5-,6-,7+/m1/s1
