19
gdb 108113	3.3785	1.40525	1.3584	2.2018	73.4	-0.2379	0.0848	0.3227	1028.784	0.16182	-423.024408	-423.017141	-423.016197	-423.056147	29.484	
O	-0.0048943077	 1.3978573771	 0.2642275964	-0.417027
C	-0.0373375333	 0.0313164358	-0.1135922256	-0.182188
C	-1.4111959538	-0.5484696541	-0.0095608868	 0.449049
O	-2.3573146691	 0.0805556375	-0.8699821989	-0.311138
C	-3.5328158078	-0.6713709928	-0.5182787536	 0.049534
C	-3.0661195395	-2.1312732254	-0.7162008663	-0.228084
C	-1.812588778	-1.9973714028	 0.1422341888	-0.165538
C	-2.1388323567	-0.9780627826	 1.2427365967	-0.145056
C	-3.5786175065	-0.532539468	 1.01961386	-0.227187
H	-0.7074541313	 1.831694312	-0.2328842666	 0.291221
H	 0.3379381209	-0.1057249132	-1.1404093353	 0.094976
H	 0.6396322957	-0.5019157153	 0.561086824	 0.10963
H	-4.3853798681	-0.3194027281	-1.0950686665	 0.081035
H	-3.7861317555	-2.8600030361	-0.3333044605	 0.102267
H	-2.844908025	-2.3527577375	-1.7638336918	 0.10664
H	-1.0936707012	-2.7940274445	 0.2791202234	 0.089674
H	-1.6588098533	-0.9932936513	 2.2116649332	 0.093753
H	-3.7571443519	 0.4995272026	 1.3335522727	 0.107256
H	-4.323554638	-1.1878713732	 1.4798272567	 0.101182
92.4124	135.1258	276.1129	358.9278	387.9273	422.7445	460.1401	574.9222	629.0238	698.0497	747.1936	801.475	869.1847	873.2672	893.4948	914.9225	940.1718	946.6802	963.7439	992.7118	1003.114	1021.0557	1039.887	1062.6056	1087.3032	1139.3457	1144.6279	1164.9746	1193.4393	1213.7647	1249.7679	1270.4387	1312.7054	1319.0936	1338.0068	1376.9905	1410.3079	1464.2722	1476.395	1495.3224	1495.9832	2978.9403	3056.7428	3061.9665	3081.6902	3108.0468	3112.3255	3150.7088	3204.1916	3213.4425	3805.229
OCC12OC3CC1C2C3	OC[C@@]12O[C@H]3C[C@@H]1[C@@H]2C3	
InChI=1S/C7H10O2/c8-3-7-5-1-4(9-7)2-6(5)7/h4-6,8H,1-3H2	InChI=1S/C7H10O2/c8-3-7-5-1-4(9-7)2-6(5)7/h4-6,8H,1-3H2/t4-,5+,6-,7+
