21
gdb 70841	2.99364	1.73956	1.40751	0.0637	85.62	-0.2321	0.0954	0.3275	1019.7858	0.182721	-349.896342	-349.888627	-349.887683	-349.927714	32.301	
C	-0.0435158315	 1.4878202707	 0.004152765	-0.509896
C	-0.0153671262	-0.0171735777	-0.0580706434	 0.34592
C	 0.54920425	-0.8146431736	-1.2626257215	-0.330651
C	-0.3233237997	-1.9813384981	-0.7306406527	 0.345967
C	-0.7694411696	-3.1421053535	-1.5811085044	-0.509906
C	 0.1531873778	-2.2473068938	 0.7232584351	-0.114609
C	-0.9804213867	-1.4738532354	 1.3621121606	-0.106923
C	 0.376559867	-0.819955289	 1.2121972357	-0.114583
C	-1.3040889719	-0.9354077144	-0.0611991661	-0.151153
H	 0.9695772293	 1.9003915265	 0.088382895	 0.113778
H	-0.502363019	 1.9168338977	-0.8934710639	 0.1112
H	-0.6146256622	 1.8353629667	 0.872872532	 0.116462
H	 0.1644733052	-0.4285619038	-2.2142159486	 0.086547
H	 1.6328394067	-0.9600924533	-1.3340629464	 0.08356
H	 0.0788212301	-3.7808858732	-1.8569295462	 0.11378
H	-1.4930063424	-3.7675144611	-1.0454388485	 0.116468
H	-1.2420431714	-2.8002575309	-2.5085314258	 0.11121
H	 0.7025594433	-3.0977601192	 1.1077515309	 0.0765
H	-1.5780999669	-1.6809683933	 2.2396692404	 0.081914
H	 1.0993077451	-0.5620246604	 1.9764077559	 0.076501
H	-2.2669787069	-0.6425284409	-0.4755851933	 0.057915
209.2458	215.9255	231.4867	247.7151	278.9273	328.1231	415.7803	564.7737	567.0331	585.9973	734.3726	781.9764	788.0349	793.2631	850.2158	854.8967	857.3509	890.2501	892.1169	937.0528	991.8971	1000.2788	1002.2038	1016.2392	1038.1652	1045.6366	1065.7243	1120.2021	1167.9547	1172.5858	1179.3549	1197.7452	1222.704	1240.1789	1246.5036	1300.4986	1338.0105	1372.8084	1411.027	1414.4936	1486.8955	1491.1681	1492.1463	1492.4394	1493.4338	3016.8987	3017.019	3026.2635	3077.8371	3078.3113	3081.0816	3088.5632	3089.3424	3131.2594	3182.5403	3187.035	3204.3281
CC12CC3(C)C4C(C14)C23	C[C@@]12C[C@@]3(C)[C@@H]4[C@@H]([C@H]14)[C@@H]23	
InChI=1S/C9H12/c1-8-3-9(2)6-4(5(6)8)7(8)9/h4-7H,3H2,1-2H3	InChI=1S/C9H12/c1-8-3-9(2)6-4(5(6)8)7(8)9/h4-7H,3H2,1-2H3/t4-,5+,6-,7+,8-,9+
