15
gdb 83108	2.652	1.80742	1.30078	2.1504	66.12	-0.2487	-0.0241	0.2247	951.0535	0.114146	-453.95308	-453.945651	-453.944707	-453.985387	27.391	
O	 0.1703092891	 1.3758864587	 0.2840628905	-0.415867
C	 0.0771681055	-0.0185339581	 0.1396898493	-0.032451
C	-1.3799610471	-0.538144959	-0.0238811281	-0.015225
C	-2.5506274764	 0.4240596683	-0.3276744721	-0.192829
N	-2.896835928	 0.2022596717	-1.7505734447	-0.199632
C	-2.027730602	-0.5632731877	-2.2658257214	 0.024567
N	-1.0232596593	-1.0573333779	-1.3824501604	-0.144457
C	 0.2851448104	-0.4996244787	-1.3216604205	 0.368481
O	 1.1405121555	-0.3700854298	-2.1453560169	-0.319217
H	 1.0129692199	 1.6552415257	-0.0928084882	 0.305373
H	 0.6698642648	-0.5555281183	 0.8922793753	 0.09917
H	-1.6486607311	-1.3365751871	 0.6697907411	 0.099335
H	-3.4211670146	 0.2189360513	 0.2991099962	 0.125366
H	-2.2790658189	 1.4759267179	-0.1932979579	 0.14506
H	-2.0007158279	-0.845096667	-3.3121438222	 0.152326
75.2719	148.6531	180.3967	241.9303	288.4173	396.2099	490.0958	572.1966	640.7322	664.2215	729.9645	832.3894	847.4786	890.7905	929.5132	944.4546	969.6324	1037.028	1044.281	1099.228	1159.3877	1170.3994	1185.718	1227.4845	1266.6637	1302.7538	1316.7007	1329.8166	1363.2518	1395.1354	1488.1753	1684.4766	1893.7673	3015.9447	3064.4608	3089.7014	3112.2178	3214.3229	3801.1115
OC1C2CN=CN2C1=O	O[C@H]1[C@H]2CN=CN2C1=O	
InChI=1S/C5H6N2O2/c8-4-3-1-6-2-7(3)5(4)9/h2-4,8H,1H2	InChI=1S/C5H6N2O2/c8-4-3-1-6-2-7(3)5(4)9/h2-4,8H,1H2/t3-,4+/m1/s1
