19
gdb 101422	3.15764	1.03161	0.93686	3.3331	71.82	-0.2555	-0.0335	0.222	1310.3757	0.158001	-460.164071	-460.154817	-460.153873	-460.198664	34.143	
O	 0.1245538268	 1.4390624241	 0.0054319817	-0.424976
C	 0.1026753344	 0.0304589571	 0.0798593626	-0.075777
C	-1.3359287722	-0.4925006258	 0.0161661487	 0.069365
O	-1.9788308983	 0.0336906032	-1.1486861793	-0.451735
C	-1.4185032708	-2.01692422	 0.0625886736	-0.112751
C	-2.8047882367	-2.7372689146	 0.1451297361	-0.262179
C	-2.3628699478	-3.7353070296	-0.9703378806	-0.32845
C	-1.2266963347	-2.7561093598	-1.2741102913	 0.393441
O	-0.5965012058	-2.4862199172	-2.2608243962	-0.31685
H	-0.519944866	 1.6704949129	-0.676049297	 0.285559
H	 0.6864774965	-0.4328513027	-0.7341415366	 0.100411
H	 0.5696157536	-0.2556948335	 1.0293323869	 0.102761
H	-1.8966550137	-0.0684223425	 0.8576347772	 0.102281
H	-1.532824977	-0.3543622348	-1.9143756149	 0.296831
H	-0.7303628546	-2.4157928937	 0.8179420237	 0.106106
H	-3.0675449349	-3.169616415	 1.1104812256	 0.11356
H	-3.6060775868	-2.0789184024	-0.195614395	 0.133978
H	-1.9814702446	-4.6779499408	-0.5643621497	 0.134857
H	-3.0489573375	-3.9543183149	-1.7912526555	 0.133568
58.6094	95.4456	113.6095	175.084	181.8458	281.6774	349.0591	415.3142	438.7357	454.0917	513.055	581.0133	633.0866	700.3628	751.85	790.4155	875.0592	911.6448	930.0104	989.9314	1010.2022	1031.2279	1082.9602	1096.0213	1103.3718	1135.4462	1190.9141	1201.1507	1221.4923	1230.7516	1252.7777	1293.7749	1306.0702	1337.7883	1388.0912	1433.9391	1441.7987	1443.4019	1487.5524	1510.749	1860.9576	2964.271	3042.8871	3046.0622	3060.1448	3065.3983	3085.662	3121.0723	3148.0583	3752.1898	3768.396
OCC(O)C1CCC1=O	OC[C@@H](O)[C@H]1CCC1=O	
InChI=1S/C6H10O3/c7-3-6(9)4-1-2-5(4)8/h4,6-7,9H,1-3H2	InChI=1S/C6H10O3/c7-3-6(9)4-1-2-5(4)8/h4,6-7,9H,1-3H2/t4-,6+/m0/s1
