18
gdb 11380	4.38802	1.24457	1.12234	2.3345	70.05	-0.2337	0.0272	0.2609	1095.5515	0.153635	-384.944593	-384.936317	-384.935373	-384.977434	30.727	
O	-0.0171509271	 1.4152250146	-0.0402506919	-0.413968
C	-0.0344272869	-0.0004364275	-0.054308815	-0.183721
C	-1.4437139074	-0.4938723094	-0.0385759982	 0.311122
C	-2.5569452892	 0.2424136269	 0.0075700568	-0.166944
C	-3.7970788989	-0.6201133994	 0.0540611646	-0.278764
C	-3.2703447922	-2.0049674688	-0.3996773792	 0.132253
O	-3.4560437275	-2.1999902039	-1.7958276038	-0.436708
C	-1.7656883209	-1.974625519	-0.0295833982	-0.328558
H	 0.8997875492	 1.7033461174	-0.0427156728	 0.28991
H	 0.4789538039	-0.4006718366	-0.9475221593	 0.093547
H	 0.5038668565	-0.4188715325	 0.8155928131	 0.095242
H	-2.5723295679	 1.3241146756	 0.0441763355	 0.106787
H	-4.2123579921	-0.6596910231	 1.0713215546	 0.105117
H	-4.6058754932	-0.2843278822	-0.6040772696	 0.106651
H	-3.8000052517	-2.8352973131	 0.0733834789	 0.081403
H	-3.0333078551	-1.4573886326	-2.2430430242	 0.278511
H	-1.1839310809	-2.5667890835	-0.7454873058	 0.104127
H	-1.5847629486	-2.4077779829	 0.9647520145	 0.103994
71.0573	118.5751	200.2334	212.6845	239.0252	358.7373	372.768	409.9514	441.7878	477.6081	656.77	769.1609	808.4825	855.7515	885.1155	894.3054	951.3864	974.8543	1018.0852	1047.7718	1069.7425	1083.4013	1142.3574	1170.3099	1184.8956	1215.3429	1252.8754	1259.5716	1285.035	1304.1473	1319.9882	1353.2816	1433.2244	1467.0097	1471.789	1481.7626	1507.501	1715.7712	2934.8099	2945.4082	3005.9255	3006.572	3060.443	3066.1069	3088.1645	3220.7463	3788.8497	3838.6782
OCC1=CCC(O)C1	OCC1=CC[C@@H](O)C1	
InChI=1S/C6H10O2/c7-4-5-1-2-6(8)3-5/h1,6-8H,2-4H2	InChI=1S/C6H10O2/c7-4-5-1-2-6(8)3-5/h1,6-8H,2-4H2/t6-/m1/s1
