16
gdb 55419	2.75089	1.55047	1.01363	2.591	66.31	-0.2703	-0.0147	0.2557	1116.3252	0.124781	-475.110291	-475.101884	-475.10094	-475.144014	29.569	
C	 0.0400917189	 1.4925569707	-0.0778158367	-0.474611
C	 0.0433991057	-0.0146634621	-0.0253853088	 0.398411
O	 1.0516355986	-0.6874947978	-0.0369462216	-0.337963
N	-1.1930719798	-0.6712595412	 0.0300899542	-0.208434
C	-1.2438282397	-2.1267542081	 0.1062828827	-0.184733
C	-2.7501301806	-2.3777636029	-0.0666392256	-0.105745
O	-3.3775466515	-1.1126037601	 0.1961425744	-0.237317
C	-2.4672069258	-0.1078673111	 0.1558169883	 0.511294
O	-2.7606586732	 1.0509431012	 0.229686571	-0.380157
H	 1.0761755449	 1.8194677346	-0.1620581578	 0.139825
H	-0.5482872092	 1.8567917243	-0.923052784	 0.157487
H	-0.4232216131	 1.9120331231	 0.8180033485	 0.163831
H	-0.6368664495	-2.5799433283	-0.6784681298	 0.149101
H	-0.8620977777	-2.4754418993	 1.0712420476	 0.138235
H	-3.0040691797	-2.6842437392	-1.0863970704	 0.132496
H	-3.1495592685	-3.110753084	 0.635720358	 0.13828
74.7915	101.5802	151.4538	157.6627	214.7059	230.3267	381.7991	409.6693	599.7505	614.4708	626.7606	710.7593	760.8742	770.4945	872.8712	960.5936	997.0571	1052.906	1061.9292	1082.6804	1141.6421	1159.2595	1220.2672	1240.428	1264.1205	1338.6656	1385.676	1405.5598	1415.1148	1448.8011	1471.5379	1522.0235	1531.6637	1788.3347	1878.7648	3054.5687	3057.35	3066.3066	3116.3965	3129.1337	3134.8759	3168.7563
CC(=O)N1CCOC1=O	CC(=O)N1CCOC1=O	
InChI=1S/C5H7NO3/c1-4(7)6-2-3-9-5(6)8/h2-3H2,1H3	InChI=1S/C5H7NO3/c1-4(7)6-2-3-9-5(6)8/h2-3H2,1H3
