19
gdb 43671	4.62559	0.80367	0.72783	4.1072	76.42	-0.2388	-0.0162	0.2226	1531.0148	0.157522	-423.011184	-423.002367	-423.001423	-423.046113	32.259	
O	 0.2859674911	 0.2241232569	 0.5421751492	-0.289782
C	 0.1226032005	 1.3409336306	 0.1454407164	 0.404096
C	-1.1265540235	 2.1792561738	-0.1806810397	-0.374417
C	-0.1848023755	 3.2279118303	-0.8546520822	 0.025712
C	-0.3514336571	 4.6830711003	-0.4217679727	-0.247946
C	 0.7055829986	 5.5928975801	-1.0012491228	 0.101858
C	 1.2532507615	 6.7360763249	-0.2618653918	-0.182455
O	 2.0050216382	 5.528642388	-0.4017456681	-0.230865
C	 1.0665432005	 2.4602896152	-0.3136781531	-0.348121
H	-1.8822672617	 1.6908735819	-0.8014274597	 0.127971
H	-1.6145324652	 2.5516826189	 0.7278131595	 0.127042
H	-0.2426962692	 3.1565011575	-1.9453670837	 0.081124
H	-1.3403371489	 5.0482418896	-0.7305527238	 0.106037
H	-0.312995279	 4.7494521346	 0.6730371078	 0.100826
H	 0.7328403685	 5.6405390708	-2.0921022639	 0.092427
H	 1.6457791522	 7.5964543546	-0.8018383957	 0.116975
H	 0.8907342719	 6.9464052604	 0.7437635789	 0.114404
H	 1.5566917612	 2.9687415046	 0.5227773017	 0.144559
H	 1.8388298461	 2.1689826068	-1.0299710463	 0.130555
40.1347	73.0125	83.0513	158.4874	277.4875	331.2383	403.856	421.1958	452.1537	493.9003	648.8645	672.8538	767.8636	792.7574	857.6134	884.9196	917.2991	942.5687	959.1076	1008.2503	1025.777	1082.6011	1091.4658	1117.5421	1129.5742	1158.8245	1169.0432	1192.9195	1199.755	1237.6872	1253.4057	1276.8981	1294.6802	1325.8408	1380.5619	1427.3423	1444.6389	1450.6091	1470.8181	1530.4781	1894.0002	3015.2812	3045.4824	3047.7566	3062.8075	3063.8701	3082.4103	3091.0113	3108.5596	3116.6032	3169.1833
O=C1CC(CC2CO2)C1	O=C1CC(C[C@H]2CO2)C1	
InChI=1S/C7H10O2/c8-6-1-5(2-6)3-7-4-9-7/h5,7H,1-4H2	InChI=1S/C7H10O2/c8-6-1-5(2-6)3-7-4-9-7/h5,7H,1-4H2/t7-/m0/s1
