18
gdb 67252	3.07515	1.54886	1.29766	2.8034	75.87	-0.2285	0.0709	0.2994	1017.2778	0.148486	-401.852826	-401.845498	-401.844554	-401.884191	30.108	
O	-0.1089962012	 1.4396771854	-0.0206141429	-0.449324
C	 0.0229465737	 0.0795135651	 0.0131468583	 0.379375
C	 0.0204351279	-1.0059672582	-1.0327433622	-0.163728
C	 1.266454395	-1.6688991325	-0.4441474266	-0.225813
C	 0.9210027972	-0.9353407168	 0.8828779838	-0.248054
C	-0.4006384817	-1.5909060013	 1.3125275062	 0.430701
C	-0.6350237579	-2.8373614911	 2.0645174825	-0.32798
N	-1.0021264988	-1.5124323606	 2.6359012257	-0.38973
C	-1.0503823532	-0.9645051645	 0.102643046	-0.190575
H	 0.6399241744	 1.8106834559	-0.5014905731	 0.290485
H	-0.2905496433	-0.9419191649	-2.0680065433	 0.089576
H	 1.3055716803	-2.762596491	-0.3980995266	 0.094899
H	 2.1810903516	-1.2863746734	-0.9069404187	 0.091818
H	 1.6864455324	-0.6831964205	 1.6159819476	 0.068698
H	-1.481521207	-3.4772497034	 1.8297773295	 0.117409
H	 0.225503266	-3.3603097046	 2.4763061525	 0.106413
H	-0.3065693694	-1.2311094742	 3.3236837825	 0.227213
H	-2.1026184259	-0.8579028192	-0.1233040911	 0.098616
129.0188	235.9618	277.2557	302.899	335.24	375.5583	478.1997	491.0563	574.9855	638.4913	717.9851	786.0029	842.9663	874.2914	897.799	901.554	925.8287	942.2995	958.5913	981.4986	986.4445	1012.8101	1047.694	1061.3267	1095.5555	1106.2461	1124.4585	1141.4923	1183.2818	1205.2459	1245.9225	1256.6526	1269.9107	1298.726	1312.3968	1440.467	1483.9361	1500.6849	1520.3746	3038.2764	3092.3792	3099.1975	3124.4633	3183.1836	3195.1886	3216.9421	3485.1111	3781.7547
OC12C3CC1C1(CN1)C23	O[C@@]12[C@H]3C[C@@H]1[C@]1(CN1)[C@@H]23	
InChI=1S/C7H9NO/c9-7-3-1-4(7)6(2-8-6)5(3)7/h3-5,8-9H,1-2H2	InChI=1S/C7H9NO/c9-7-3-1-4(7)6(2-8-6)5(3)7/h3-5,8-9H,1-2H2/t3-,4+,5-,6+,7-/m0/s1
