16
gdb 123555	3.97069	1.54792	1.21985	3.5765	73.66	-0.2324	-0.0075	0.225	985.9469	0.127659	-400.732375	-400.726116	-400.725172	-400.762907	25.586	
C	-0.0218915581	 1.4771191128	 0.0714554314	-0.280481
C	 1.3044032869	 0.7605705488	 0.0325892999	-0.028362
C	 2.0260278543	 0.4296875107	 1.3568569022	-0.375634
C	 1.0225423058	-0.4851354775	 1.9889478702	 0.376845
C	-0.0662560211	-0.7667200444	 1.2287593246	 0.190338
C	-0.8280155259	-1.6152513497	 2.0687350686	-0.136664
N	-0.2344084914	-1.8162601939	 3.2279399694	-0.145249
O	 0.9625744061	-1.0706870548	 3.1826444176	-0.226859
C	-0.0098401443	-0.0324534323	-0.0601090416	-0.198762
H	-0.3693518233	 1.8983323922	 1.0096805525	 0.119598
H	-0.286399147	 2.0568354188	-0.8070035085	 0.116503
H	 1.9180884589	 0.8947030898	-0.8497963338	 0.096185
H	 2.9862532637	-0.0698058785	 1.1808739268	 0.129955
H	 2.2322095496	 1.3206579189	 1.9602559266	 0.133868
H	-1.77780238	-2.1015124233	 1.8943205053	 0.131453
H	-0.3307049444	-0.4923932176	-0.9870560712	 0.097267
158.0826	225.4416	336.8058	412.1258	439.3099	582.6179	635.3957	691.7004	701.7127	767.4437	788.2689	812.1958	865.1817	876.4575	908.8779	965.4276	973.6262	987.461	1040.9455	1074.8537	1086.3829	1098.283	1158.4376	1175.5745	1195.2875	1199.0496	1265.8664	1296.259	1347.2548	1377.697	1435.8243	1474.8142	1484.9004	1507.8655	1640.1229	3035.568	3070.7914	3124.035	3179.2988	3185.8456	3213.0729	3239.8266
C1C2CC3=C(C=NO3)C12	C1[C@H]2Cc3c(cno3)[C@@H]12	
InChI=1S/C7H7NO/c1-4-2-7-6(5(1)4)3-8-9-7/h3-5H,1-2H2	InChI=1S/C7H7NO/c1-4-2-7-6(5(1)4)3-8-9-7/h3-5H,1-2H2/t4-,5-/m0/s1
