18
gdb 53941	1.73329	1.20539	0.97148	2.2084	72.09	-0.1663	0.0331	0.1994	1327.973	0.14432	-472.453268	-472.44141	-472.440465	-472.492683	39.587	
C	-0.0741844118	 1.7223746787	 0.4935110837	-0.471931
C	-0.3593290056	 0.259210753	 0.6886410913	 0.291676
N	 0.5592528815	-0.3923782581	 1.5437238249	-0.572725
C	-1.4447812705	-0.3774736005	 0.2020131643	 0.138448
N	-2.5913243811	 0.256827163	-0.3475048982	-0.563617
N	-1.5677976725	-1.7950263446	 0.3703058285	-0.572358
H	-2.507532661	-2.0209520494	 0.685569293	 0.233462
H	-1.4307233474	-2.2762389281	-0.5158651805	 0.23566
C	 0.9955414164	-1.0796278263	-1.9536716682	 0.587319
O	 1.9312850248	-0.5404885566	-1.5233418009	-0.291732
O	 0.0827686784	-1.6340851661	-2.4175626812	-0.300883
H	 0.9840918071	 1.8703795603	 0.2420967889	 0.120313
H	-0.6616364966	 2.1583999324	-0.3182023455	 0.105602
H	-0.2644114123	 2.2971223822	 1.4079557338	 0.133766
H	 0.3440132469	-1.3823557748	 1.5920964759	 0.240235
H	 1.5212585638	-0.2601200327	 1.250063391	 0.229874
H	-2.5191809169	 1.2661168238	-0.3707388468	 0.231344
H	-2.8061070533	-0.0812060062	-1.2818401039	 0.225547
27.6168	33.595	61.1485	84.1243	105.6966	155.9601	160.4908	232.3726	275.7374	309.2672	346.8739	386.2947	419.0963	479.4856	553.399	577.4371	660.8741	687.4269	736.2095	781.8549	845.3725	875.6543	978.1176	1037.8848	1058.8886	1143.2093	1209.6867	1244.9855	1301.9022	1344.269	1373.1008	1416.6348	1481.1042	1493.1566	1633.6291	1635.1889	1638.0026	1767.1743	2424.901	3017.6467	3063.9132	3111.8958	3469.1797	3477.9371	3497.8858	3537.6885	3593.1452	3602.237
CC(N)(C(N)=[NH2+])C([O-])=O	C[C](N)C(=[NH2])N.C(=O)=O	
InChI=1S/C4H9N3O2/c1-4(7,2(5)6)3(8)9/h7H2,1H3,(H3,5,6)(H,8,9)	InChI=1S/C3H9N3.CO2/c1-2(4)3(5)6;2-1-3/h4-6H2,1H3;
