16
gdb 46766	2.80844	1.79717	1.2955	1.6491	67.79	-0.2427	-0.0394	0.2033	956.7486	0.126639	-437.928129	-437.921152	-437.920207	-437.960132	26.595	
O	-0.0064470525	 0.1343463082	-0.7729145022	-0.298498
C	-0.0274390421	 1.2089342724	-0.2374395764	 0.396745
C	-1.2513380455	 2.0127645899	 0.1907967296	-0.328856
C	-0.802658395	 3.4771189571	 0.0547821679	-0.229697
C	 0.7054380929	 3.4800232551	 0.4118962071	-0.019564
N	 0.9336723277	 3.6409005025	 1.8628868589	-0.265155
C	 1.4985675535	 2.5762867248	 2.2509829406	 0.116616
O	 1.7702486874	 1.5869101356	 1.3624335591	-0.225953
C	 1.2276214309	 2.0524448154	 0.0997575537	-0.020119
H	-2.1300998044	 1.7373062582	-0.394018667	 0.13174
H	-1.4597759095	 1.7701434192	 1.2414662101	 0.143594
H	-0.9339452286	 3.8149199368	-0.9787815801	 0.111489
H	-1.3513333575	 4.1615993243	 0.7038025517	 0.128564
H	 1.2336424579	 4.276720264	-0.1181519452	 0.096316
H	 1.8116408782	 2.3583346237	 3.2660116462	 0.149545
H	 1.9998721265	 1.9496662427	-0.663358164	 0.113233
58.7326	142.3187	217.0815	338.815	421.4172	492.8708	533.538	600.8329	680.3119	741.7416	796.5118	829.6554	878.4847	897.9803	931.4181	961.7574	964.352	972.9654	1046.9173	1069.744	1114.7322	1152.7961	1162.2227	1186.2193	1249.5366	1285.6894	1294.036	1314.9523	1324.1931	1339.5211	1351.8481	1452.8729	1487.7794	1698.9715	1857.488	3033.6286	3051.4532	3073.3061	3112.9277	3120.3084	3127.1648	3219.2152
O=C1CCC2N=COC12	O=C1CC[C@H]2N=CO[C@@H]12	
InChI=1S/C6H7NO2/c8-5-2-1-4-6(5)9-3-7-4/h3-4,6H,1-2H2	InChI=1S/C6H7NO2/c8-5-2-1-4-6(5)9-3-7-4/h3-4,6H,1-2H2/t4-,6-/m1/s1
