18
gdb 81193	3.10244	1.59644	1.4515	1.9278	77.64	-0.2074	0.0098	0.2172	967.8361	0.148661	-401.848596	-401.84151	-401.840566	-401.879576	29.498	
O	-0.1427849374	 1.5060641197	-0.0988717155	-0.444693
C	-0.0115288111	 0.1102141945	 0.0015478209	 0.122176
C	-0.033129942	-0.5927573712	 1.3811018651	-0.092388
C	-1.533846914	-0.1474050303	 1.5270455014	-0.288579
C	-1.3445957723	-0.7212696923	 0.0911910198	 0.273444
C	-1.9844395041	-1.3421356281	-1.1076568655	-0.215241
C	-1.260769556	-2.4290786265	-1.4058640394	-0.057937
C	-0.1267550102	-2.6688625329	-0.4032153782	-0.24983
N	-0.6023032652	-1.8535822253	 0.7345250413	-0.118494
H	 0.7362863732	 1.896940615	-0.0778921522	 0.284724
H	 0.7226077236	-0.2732260767	-0.713591135	 0.067932
H	 0.729862227	-0.6278659127	 2.1603386351	 0.078407
H	-2.1340134132	-0.766271626	 2.193539649	 0.105277
H	-1.7119532848	 0.9216988607	 1.6222405321	 0.115007
H	-2.8050345552	-0.9351534215	-1.6826033006	 0.109215
H	-1.4105255639	-3.0686484844	-2.2684598235	 0.100761
H	-0.0460843382	-3.7181598965	-0.0978335011	 0.109138
H	 0.8421610438	-2.3941552354	-0.8518573038	 0.101082
199.9956	218.639	248.4572	311.1935	358.6873	440.758	516.0053	544.0853	605.8537	638.0477	714.9506	777.3315	809.5756	849.2261	860.7703	904.4075	912.3706	941.781	955.2521	989.3533	1022.2823	1049.9615	1093.7605	1102.2768	1121.3196	1124.6253	1165.3943	1171.7711	1191.3153	1209.121	1226.8121	1256.4468	1292.0094	1315.5983	1361.1317	1431.2334	1484.1627	1510.4358	1627.7762	2961.9431	3047.5067	3062.9468	3094.9489	3106.4529	3184.9884	3194.7376	3231.1488	3815.5827
OC1C2CC11C=CCN21	O[C@H]1[C@H]2C[C@]31C=CCN23	
InChI=1S/C7H9NO/c9-6-5-4-7(6)2-1-3-8(5)7/h1-2,5-6,9H,3-4H2	InChI=1S/C7H9NO/c9-6-5-4-7(6)2-1-3-8(5)7/h1-2,5-6,9H,3-4H2/t5-,6+,7+/m1/s1
