19
gdb 39381	2.44011	1.8434	1.21691	1.7218	76.91	-0.2314	0.0063	0.2377	1045.4148	0.160409	-422.983273	-422.975519	-422.974575	-423.015598	30.592	
C	-0.0558015798	 1.4692759423	 0.4728549707	-0.355517
C	 1.2774468025	 0.838025567	 0.2009578148	 0.079305
O	 2.0356715338	 0.4805680995	 1.3163017709	-0.241339
C	 3.098312512	-0.4066081089	 1.0123688641	-0.13489
C	 2.6912141505	-1.792784656	 0.5891321884	-0.040589
C	 1.4993825858	-2.3707069388	 0.734804935	-0.081413
C	 0.2818504846	-1.7443953594	 1.3685332951	-0.117888
O	-0.5302108307	-1.0136777746	 0.4399480651	-0.265878
C	 0.0061198259	 0.1064271948	-0.1901967332	 0.103365
H	-0.3587438402	 1.4628621253	 1.5148119048	 0.129793
H	-0.3698399982	 2.339475003	-0.0926210569	 0.112945
H	 1.8787179505	 1.2298475847	-0.6222178432	 0.085842
H	 3.7378256339	 0.0306015009	 0.2259010197	 0.10047
H	 3.7120257722	-0.450510129	 1.9213791547	 0.124637
H	 3.4903671123	-2.3541048497	 0.1065332199	 0.091976
H	 1.3648394217	-3.3728161183	 0.3344658482	 0.09396
H	-0.3866594105	-2.5292864031	 1.7328537164	 0.103981
H	 0.560472522	-1.1132937648	 2.2162389113	 0.115981
H	-0.1935102883	 0.0762871851	-1.2593550059	 0.095258
60.8072	221.0738	233.4702	284.4025	293.8372	336.573	413.2527	472.5411	526.6424	672.9124	724.4065	741.7972	756.4789	787.5514	836.729	875.2311	951.16	997.73	1000.2776	1007.1731	1032.5237	1046.23	1074.4204	1101.8645	1123.0404	1138.4247	1168.7061	1179.216	1254.0541	1272.6224	1302.973	1313.1539	1365.4077	1391.4191	1408.1896	1417.5857	1432.5966	1474.5255	1484.9903	1503.577	1728.1604	2956.9726	3040.9277	3058.4843	3073.1495	3100.4515	3122.501	3131.8161	3133.6737	3160.6879	3225.0456
C1C2OCC=CCOC12	C1[C@H]2OCC=CCO[C@@H]12	
InChI=1S/C7H10O2/c1-2-4-9-7-5-6(7)8-3-1/h1-2,6-7H,3-5H2/b2-1-	InChI=1S/C7H10O2/c1-2-4-9-7-5-6(7)8-3-1/h1-2,6-7H,3-5H2/b2-1-/t6-,7+
