18
gdb 74193	2.34018	1.58167	0.99924	3.6435	82.36	-0.2186	-0.0269	0.1918	1183.4038	0.149115	-402.000428	-401.992118	-401.991174	-402.033429	31.608	
C	 0.0363182755	 1.5306207493	 0.0075122047	-0.473794
C	-0.0231856835	 0.0288251783	 0.0016020428	 0.291616
C	-0.0048930241	-0.6603145577	-1.1482064997	-0.215557
C	-0.0047937832	-2.122177582	-1.3651948023	 0.361661
O	 0.464328499	-2.6088273909	-2.3817280193	-0.375934
N	-0.5988783921	-2.9639865292	-0.4302011548	-0.343051
C	-1.3741072682	-2.6670725965	 0.6909661757	 0.023176
C	-1.2029701714	-1.6224457883	 1.5013386864	-0.101066
C	-0.0610650287	-0.6462698379	 1.3603285168	-0.370516
H	 0.911535814	 1.8818795789	 0.5691369658	 0.133993
H	 0.0832147863	 1.9453149755	-1.0019137325	 0.130073
H	-0.8434286701	 1.9474144654	 0.5144552648	 0.133838
H	 0.1020383735	-0.1255926888	-2.0871385784	 0.107137
H	-0.6283847278	-3.9138442928	-0.7744328742	 0.250566
H	-2.1672158401	-3.3862516025	 0.8727592993	 0.109916
H	-1.9124793395	-1.4785806611	 2.3076758424	 0.098007
H	 0.8924595252	-1.1725893742	 1.518182521	 0.132269
H	-0.1237557449	 0.1126701545	 2.1444192414	 0.107664
81.2467	138.6768	156.587	217.9851	306.6923	352.204	374.8514	462.0173	495.305	519.436	601.5826	640.0317	718.1131	734.991	799.5089	865.7353	887.8691	902.8192	921.5336	949.6911	1012.162	1054.904	1061.8665	1119.1483	1159.4484	1234.438	1256.4362	1326.6085	1348.4588	1372.4355	1408.4379	1431.1062	1472.1017	1476.1546	1482.2653	1484.6291	1701.2496	1731.7345	1760.6916	2993.6711	3017.3586	3065.1232	3087.1091	3122.1266	3169.4052	3178.6723	3201.53	3597.9127
CC1=CC(=O)NC=CC1	CC1=CC(=O)NC=CC1	
InChI=1S/C7H9NO/c1-6-3-2-4-8-7(9)5-6/h2,4-5H,3H2,1H3,(H,8,9)	InChI=1S/C7H9NO/c1-6-3-2-4-8-7(9)5-6/h2,4-5H,3H2,1H3,(H,8,9)
