21
gdb 78758	2.90379	1.47455	1.16481	1.769	82.64	-0.2393	0.0789	0.3182	1138.1152	0.181559	-387.050288	-387.041532	-387.040588	-387.082789	34.987	
C	 0.0641018169	 1.4414731695	 0.0932164682	-0.503805
C	-0.0046384969	-0.0546190008	 0.0055898696	 0.349855
C	-1.2515258985	-0.9092027594	-0.2354295887	-0.329755
C	-0.4020255192	-2.1205103916	 0.2344874764	 0.285252
C	-1.017878438	-3.3514794791	 0.8395569192	-0.506827
C	 0.584319791	-1.0835476567	 0.9414503183	-0.212322
C	 1.1939403789	-0.9001954163	-0.4413113745	-0.157226
C	 0.6665283142	-2.2546684925	-0.9005224682	 0.117948
O	 1.5798462812	-3.3170621322	-0.7217815855	-0.446022
H	 1.0510709079	 1.7754461837	 0.4311092749	 0.117754
H	-0.1278351796	 1.907183045	-0.8806137381	 0.120837
H	-0.6786446882	 1.829340609	 0.7997159382	 0.117814
H	-2.0427603553	-0.6616483463	 0.4806426902	 0.091127
H	-1.6772438876	-0.9550581724	-1.2465654028	 0.083452
H	-1.7222868259	-3.8137988395	 0.1375764113	 0.119388
H	-0.2510060603	-4.096943025	 1.0728138876	 0.119269
H	-1.5667117127	-3.1185112791	 1.7581475526	 0.113027
H	 0.9963051699	-0.9902874609	 1.9368389462	 0.085387
H	 2.1403178429	-0.4394290252	-0.6997232042	 0.083132
H	 0.2864785685	-2.3621930967	-1.9229929553	 0.074135
H	 2.0539330608	-3.1509367036	 0.1022155746	 0.277579
179.5408	196.7144	203.1215	213.5573	243.2455	247.559	351.8877	358.2719	425.3089	444.8897	494.4058	588.7103	659.3277	751.465	789.3876	832.7998	854.6922	879.8477	894.0551	922.7224	956.1503	988.798	1007.6551	1027.4711	1057.7165	1083.4042	1120.5851	1130.6682	1152.2324	1185.8691	1196.6391	1233.9039	1252.5248	1277.4554	1299.3947	1342.8236	1401.1772	1411.145	1423.7617	1434.0101	1486.2983	1487.1566	1490.8019	1498.2029	1506.2191	3011.563	3021.5858	3025.499	3045.9587	3071.8018	3081.4956	3087.8411	3092.5515	3102.1576	3181.9625	3209.4166	3779.7025
CC12CC3(C)C1C2C3O	C[C@]12C[C@]3(C)[C@H]1[C@H]2[C@H]3O	
InChI=1S/C8H12O/c1-7-3-8(2)5(7)4(7)6(8)9/h4-6,9H,3H2,1-2H3	InChI=1S/C8H12O/c1-7-3-8(2)5(7)4(7)6(8)9/h4-6,9H,3H2,1-2H3/t4-,5-,6+,7+,8+/m0/s1
