19
gdb 91497	2.58926	1.85828	1.48482	0.9008	75.24	-0.2395	0.044	0.2835	963.3796	0.159949	-422.903605	-422.896356	-422.895412	-422.934794	30.014	
C	 0.0641856172	 1.546792532	 0.0882938573	-0.425535
C	 0.1438458047	 0.0362784517	-0.0394267079	 0.119334
O	 1.0604960433	-0.3883081413	-1.0775606427	-0.272091
C	 1.888822606	-1.2826335594	-0.3654562127	 0.049126
C	 2.2807129659	-0.4526505159	 0.9587581683	-0.340494
C	 0.749814606	-0.7371999403	 1.1676537928	 0.359077
O	-0.2655428318	-1.1743945825	 2.1128587523	-0.359758
C	-0.4581258884	-2.3588091328	 1.2335411696	-0.185071
C	 0.9743305736	-2.113342556	 0.6401712552	-0.063141
H	 1.0259034786	 1.9928375499	 0.3527895023	 0.120986
H	-0.2660106272	 1.9879870868	-0.8568130838	 0.127472
H	-0.6661630702	 1.8093939168	 0.8608849027	 0.129622
H	-0.8515152793	-0.3485721212	-0.2866094534	 0.078206
H	 2.6343699641	-1.7308077871	-1.0211775035	 0.095257
H	 2.9292370502	-0.993820885	 1.6451444732	 0.118606
H	 2.6387291248	 0.5642094928	 0.786458441	 0.108463
H	-0.560586599	-3.2701277526	 1.8263983399	 0.120665
H	-1.3244778944	-2.2283383007	 0.5818662119	 0.123724
H	 1.6584785659	-2.6474725653	 1.3022809972	 0.095555
180.5678	198.1479	249.2549	294.8008	361.5632	429.1986	486.7537	551.3914	586.6732	630.6692	648.8865	755.5766	790.04	838.1005	857.3368	881.275	940.3641	973.2934	994.3003	1001.7665	1030.3101	1067.5825	1085.942	1095.6077	1119.8056	1133.9374	1146.5957	1154.0894	1186.6065	1199.0448	1233.8925	1283.0371	1298.7434	1343.4525	1395.8177	1406.4286	1408.2333	1483.9104	1491.8521	1502.9316	1508.7288	3039.8101	3044.2644	3067.9697	3075.1191	3085.5172	3111.5473	3127.918	3131.1059	3133.0879	3166.6345
CC1OC2CC11OCC21	C[C@H]1O[C@H]2C[C@]31OC[C@@H]23	
InChI=1S/C7H10O2/c1-4-7-2-6(9-4)5(7)3-8-7/h4-6H,2-3H2,1H3	InChI=1S/C7H10O2/c1-4-7-2-6(9-4)5(7)3-8-7/h4-6H,2-3H2,1H3/t4-,5+,6+,7-/m1/s1
