20
gdb 61236	2.87567	0.97187	0.79598	5.481	79.79	-0.2702	0.0407	0.3109	1449.1528	0.169584	-403.151775	-403.141886	-403.140942	-403.186937	36.136	
C	 0.0147061261	 1.4662466187	-0.2134710999	-0.409053
C	 0.0467211748	-0.0412197904	 0.0631332238	 0.017015
C	 0.7951079958	-0.379313846	 1.3792261385	-0.34489
C	 2.1750057122	 0.100441474	 1.3939617274	 0.260077
N	 3.2653048127	 0.4845570536	 1.3868056328	-0.319449
C	-1.3550475759	-0.6215449408	 0.1254334979	-0.017591
C	-2.0303074526	-1.1188785076	-1.1385828418	-0.34558
C	-1.5844061172	-2.0919103568	-0.0758231853	 0.083855
O	-0.4413876684	-2.8725533796	-0.2832543587	-0.417282
H	 1.0253031291	 1.8791727689	-0.2780323902	 0.14115
H	-0.5008970163	 1.6728530544	-1.1558105245	 0.12062
H	-0.5172154501	 2.0014547267	 0.582086347	 0.113139
H	 0.5888891558	-0.5407350122	-0.7457018016	 0.101773
H	 0.2675949514	 0.0578633593	 2.236304157	 0.139801
H	 0.8008988591	-1.4647902381	 1.5179041504	 0.16997
H	-2.0014099412	-0.1406388885	 0.857007408	 0.087975
H	-3.0912827697	-0.9433438903	-1.2781774711	 0.115574
H	-1.4396923614	-1.0904025636	-2.0489887812	 0.119254
H	-2.3561751714	-2.5696105264	 0.5274251872	 0.090199
H	-0.653742773	-3.5594828953	-0.9233945557	 0.293445
60.5783	81.3471	120.6661	163.6301	228.0354	244.4862	290.5088	318.5839	350.4742	395.7102	403.5578	452.7305	555.4897	612.0902	775.7021	826.1307	844.0638	883.3971	894.3005	948.2242	988.4151	1004.1486	1028.6246	1060.852	1108.5594	1126.1006	1137.3297	1174.511	1190.1886	1236.4438	1248.8669	1282.933	1304.2999	1335.9113	1363.4632	1404.2847	1414.981	1431.7653	1466.6091	1488.8471	1499.3633	1500.2788	2357.781	3031.8782	3036.5895	3064.4173	3095.1334	3098.9747	3101.6677	3118.4226	3127.5392	3130.474	3218.6535	3810.8513
CC(CC#N)C1CC1O	C[C@@H](CC#N)[C@H]1C[C@H]1O	
InChI=1S/C7H11NO/c1-5(2-3-8)6-4-7(6)9/h5-7,9H,2,4H2,1H3	InChI=1S/C7H11NO/c1-5(2-3-8)6-4-7(6)9/h5-7,9H,2,4H2,1H3/t5-,6+,7+/m0/s1
