18
gdb 31766	5.14559	0.99038	0.85965	3.2892	81.67	-0.1985	0.046	0.2445	1334.7768	0.149342	-401.943564	-401.935353	-401.934409	-401.977056	30.483	
O	 0.500152105	 0.903444262	 0.7026462836	-0.415571
C	 0.0659074565	-0.0530412344	-0.2578595625	-0.148816
C	-1.3919827958	-0.3925515301	-0.1286109319	 0.234053
C	-2.0961849131	-0.4228634424	 1.0722962923	-0.249275
N	-3.3590069478	-0.8251888804	 0.7422302363	 0.022943
C	-4.7874469344	-1.0172946923	 1.040309374	-0.170307
C	-4.9767539805	-1.2930401795	-0.5021714044	-0.374272
C	-3.4841649833	-1.0183800168	-0.598337264	 0.365875
C	-2.2756485798	-0.7558394298	-1.201225149	-0.467063
H	-0.1278156521	 1.6331416094	 0.66703953	 0.275026
H	 0.2736679652	 0.2859099608	-1.2858712459	 0.086546
H	 0.6990071225	-0.9323789526	-0.0852700554	 0.114886
H	-1.7710814311	-0.2226024788	 2.0793718195	 0.129913
H	-4.9936348077	-1.8584107194	 1.7082104091	 0.126028
H	-5.2862075094	-0.1185316917	 1.4143653677	 0.127086
H	-5.3020442379	-2.3079179058	-0.7463331568	 0.123543
H	-5.6325181898	-0.5796456281	-1.008385064	 0.124202
H	-2.0193986164	-0.80606305	-2.2482528885	 0.0952
59.2628	79.6535	158.5789	225.5294	250.3721	337.8586	394.6485	490.769	604.3802	639.8053	671.9868	717.8793	773.5365	810.2059	815.1672	820.9095	913.5896	983.1601	1006.9511	1053.5303	1056.3842	1082.6638	1134.9232	1138.262	1178.4403	1185.804	1208.4212	1230.9407	1271.7902	1322.7593	1383.1512	1420.0832	1427.2726	1439.1055	1489.8133	1493.0836	1509.6116	1535.7661	1582.9675	2969.8895	3037.4484	3051.5391	3060.6817	3096.6251	3111.4128	3248.8423	3275.2842	3802.6705
OCC1=CN2CCC2=C1	OCc1cn2CCc2c1	
InChI=1S/C7H9NO/c9-5-6-3-7-1-2-8(7)4-6/h3-4,9H,1-2,5H2	InChI=1S/C7H9NO/c9-5-6-3-7-1-2-8(7)4-6/h3-4,9H,1-2,5H2
