13
gdb 129059	5.34602	1.11719	0.92408	2.9085	75.55	-0.2596	-0.0765	0.1831	1154.9374	0.091068	-448.942834	-448.935737	-448.934793	-448.974936	25.812	
N	-0.0914164644	 1.2877777007	 0.3490755968	-0.503874
C	 0.0140379703	 0.0562786055	 0.0325847214	 0.316723
C	-1.2003632478	-0.7382961298	-0.1986505331	 0.037262
N	-1.2223874534	-1.981011406	-0.5206951826	-0.15964
N	 0.0143916275	-2.5741012456	-0.6480610598	-0.082553
C	 0.0510411251	-3.9391909774	-1.0005302189	 0.188752
O	-0.9109680492	-4.6192672179	-1.1968064215	-0.250016
C	 1.176842871	-1.8610215371	-0.439005913	 0.132311
N	 1.2398373934	-0.6243870243	-0.1176772153	-0.332955
H	 0.8430534309	 1.6857990794	 0.4718064515	 0.231485
H	-2.1629479227	-0.2473959969	-0.0919282828	 0.161386
H	 1.0962228497	-4.2907336636	-1.0694371175	 0.109791
H	 2.0907118996	-2.4391104471	-0.5693199252	 0.151328
64.062	155.1484	229.1213	289.0781	426.3062	435.1201	446.4474	450.6641	650.3201	673.1948	770.3876	828.4279	836.9151	920.5254	968.5261	970.4928	983.9769	1017.1918	1097.1787	1233.5651	1281.7143	1318.1733	1370.7015	1440.5564	1454.5056	1645.1291	1681.4268	1707.8531	1857.734	2978.1594	3143.4695	3192.4035	3455.8169
N=C1C=NN(C=O)C=N1	[NH]C1=NCN(N=C1)C=O	
InChI=1S/C4H4N4O/c5-4-1-7-8(3-9)2-6-4/h1-3,5H	InChI=1S/C4H5N4O/c5-4-1-7-8(3-9)2-6-4/h1,3,5H,2H2
