16
gdb 7410	3.58812	0.8617	0.8072	0.4099	65.03	-0.1856	0.0459	0.2315	1434.602	0.127558	-417.121047	-417.110588	-417.109644	-417.159144	34.229	
C	-0.3499187095	 2.4346017354	-1.0294594197	-0.442653
C	-0.5578250529	 0.9595127827	-0.839106587	-0.133943
C	 0.3541768704	 0.0008122574	-1.0682686432	 0.328267
N	 1.5988953555	 0.1749216409	-1.6852239743	-0.563887
N	 0.1688327204	-1.3516057257	-0.7004457616	-0.554743
H	 0.3514821937	-1.9783583202	-1.4777233388	 0.242802
H	-0.7555593842	-1.5237837835	-0.3271073828	 0.244728
C	 2.1706112744	-2.1628228006	 1.3270157351	 0.592232
O	 1.3864675006	-2.7970324104	 1.903000293	-0.295532
O	 2.9961645635	-1.5447830619	 0.784912522	-0.307375
H	 0.7128130201	 2.705516994	-1.0366470863	 0.101446
H	-0.7848783968	 2.8138023182	-1.9650769623	 0.117666
H	-0.8132216148	 3.005998915	-0.2162682212	 0.117417
H	-1.5380490197	 0.6421135971	-0.4947680692	 0.056432
H	 1.819077013	 1.1394839038	-1.8868846896	 0.241888
H	 2.3506821564	-0.2716744723	-1.1722420543	 0.255254
23.8877	34.3706	72.7918	88.8464	118.3683	133.9055	226.0784	281.5162	378.274	399.0826	467.1099	556.9449	586.1467	657.5904	688.4939	734.504	777.6804	831.6734	860.9741	1017.4702	1053.5371	1095.7381	1151.1908	1194.7127	1315.1301	1375.814	1403.4658	1439.5376	1484.1716	1502.2417	1628.5532	1640.6289	1759.2104	2430.888	2999.5099	3046.5515	3073.2441	3158.3579	3506.9624	3531.9459	3618.7744	3645.6496
CC(C(N)=[NH2+])C([O-])=O	C[CH]C(=[NH2])N.C(=O)=O	
InChI=1S/C4H8N2O2/c1-2(3(5)6)4(7)8/h2H,1H3,(H3,5,6)(H,7,8)	InChI=1S/C3H8N2.CO2/c1-2-3(4)5;2-1-3/h2H,4-5H2,1H3;
