20
gdb 69830	3.06858	1.5396	1.22999	2.7551	77.38	-0.2345	0.0661	0.3007	1068.6848	0.172938	-403.124209	-403.116471	-403.115527	-403.155962	31.323	
C	-0.0369056193	 1.5170127898	 0.0370515944	-0.446541
C	 0.01217335	 0.0037686255	 0.0318273382	 0.317124
C	-1.2139113411	-0.6625605504	-0.5755745596	-0.269525
C	-1.1874778756	-2.203865698	-0.5925983138	-0.274503
C	-0.7219403698	-2.8119110246	 0.7212575971	 0.037759
O	 0.6606566791	-3.1933789525	 0.7950523428	-0.258173
C	 0.2260990245	-2.0668552214	 1.5680166377	 0.047511
C	 0.7169156641	-0.709300953	 1.141898508	-0.07942
N	 1.3564851937	-0.5558814897	-0.1766850204	-0.372854
H	 0.8676092938	 1.9274705156	 0.4921746354	 0.12759
H	-0.1053708036	 1.9074844074	-0.9848404409	 0.117638
H	-0.9068876385	 1.880803571	 0.5954386764	 0.111171
H	-2.0898816344	-0.3219715104	-0.0070161774	 0.104494
H	-1.3579401994	-0.2948766018	-1.5990636206	 0.105689
H	-2.1899070818	-2.5705725253	-0.8338685481	 0.106955
H	-0.5302320794	-2.568894571	-1.3899090864	 0.122854
H	-1.3927857022	-3.5263802359	 1.1965786766	 0.095225
H	 0.2230557335	-2.2416670878	 2.6431176394	 0.090231
H	 1.1798888701	-0.125203752	 1.9341875004	 0.081131
H	 1.3265689264	-1.4588984754	-0.6469373192	 0.235644
158.8063	174.4463	207.9217	275.9902	346.3067	371.6877	400.2815	480.5564	486.5692	590.0731	681.0985	706.134	783.285	797.6216	825.7568	877.3643	902.704	946.4203	963.183	1024.6729	1038.8215	1039.5201	1070.5044	1085.6612	1108.8068	1136.282	1159.0186	1183.2856	1220.6812	1262.2281	1280.3119	1295.7623	1335.5833	1358.2675	1381.6559	1392.6354	1414.4424	1439.8625	1458.0538	1482.2904	1489.52	1491.3917	1500.608	3014.816	3029.2081	3040.649	3054.6184	3083.6996	3089.2117	3109.7327	3119.1275	3122.0757	3132.937	3488.8476
CC12CCC3OC3C1N2	C[C@]12CC[C@H]3O[C@H]3[C@H]1N2	
InChI=1S/C7H11NO/c1-7-3-2-4-5(9-4)6(7)8-7/h4-6,8H,2-3H2,1H3	InChI=1S/C7H11NO/c1-7-3-2-4-5(9-4)6(7)8-7/h4-6,8H,2-3H2,1H3/t4-,5-,6-,7+/m1/s1
