19
gdb 67472	2.50336	1.69353	1.57407	1.0213	73.6	-0.2222	0.0738	0.296	967.8223	0.161138	-422.989619	-422.982049	-422.981105	-423.021367	30.353	
O	 0.002479266	 1.4136792533	-0.0663843469	-0.46665
C	 0.0214907636	 0.0298512996	-0.0385493133	 0.335401
C	-1.150093137	-0.9722748938	 0.0885262851	-0.162688
C	-0.6527296554	-1.7143003192	-1.1521682695	-0.248438
C	 0.6518986956	-0.8473472706	-1.1443001613	-0.090729
C	 1.9230994215	-1.5474892959	-0.6552174092	-0.239451
C	 1.6247574942	-2.4059239088	 0.5814850171	-0.064162
O	 0.8866211562	-1.7292758989	 1.5946385901	-0.268346
C	-0.0884803996	-0.8161173996	 1.1708252713	 0.042245
H	 0.6400471876	 1.7424758254	 0.5760374498	 0.288399
H	-2.1905170785	-0.786743197	 0.3312105734	 0.088649
H	-0.5454199014	-2.8003600337	-1.0895344646	 0.097259
H	-1.2693205419	-1.4789234292	-2.0232504882	 0.105813
H	 0.8137627381	-0.3048308592	-2.0771041873	 0.07963
H	 2.3478675401	-2.1963641359	-1.4303607468	 0.098804
H	 2.6820530085	-0.7919777944	-0.4155569961	 0.099972
H	 1.0847288783	-3.3147341403	 0.2798633709	 0.098937
H	 2.554308001	-2.7281161751	 1.0607526079	 0.103529
H	-0.4803029068	-0.3056805267	 2.0467375174	 0.101828
121.8381	152.4994	253.7504	294.1232	321.6247	387.5591	434.9108	497.1346	542.4243	641.6959	697.4887	750.4057	796.041	820.7711	874.4087	907.1028	914.8902	954.0652	988.2506	1015.2351	1031.4557	1063.6777	1082.7288	1110.7011	1142.5155	1158.7007	1172.7451	1200.2958	1240.2594	1257.5073	1275.2817	1295.7734	1323.1627	1338.0389	1348.8694	1372.6923	1414.5785	1471.7479	1479.9552	1506.3357	1526.3807	2999.2979	3022.7306	3057.2697	3064.6783	3075.3129	3092.9653	3106.3403	3153.7089	3175.3277	3804.0479
OC12C3CC1CCOC23	O[C@@]12[C@H]3C[C@@H]1CCO[C@@H]23	
InChI=1S/C7H10O2/c8-7-4-1-2-9-6(7)5(7)3-4/h4-6,8H,1-3H2	InChI=1S/C7H10O2/c8-7-4-1-2-9-6(7)5(7)3-4/h4-6,8H,1-3H2/t4-,5-,6+,7+/m0/s1
