18
gdb 43915	4.22702	1.1867	1.08583	4.1124	82.04	-0.2395	-0.0323	0.2072	1155.9512	0.149196	-401.964596	-401.957085	-401.956141	-401.996657	29.674	
N	 0.2278414171	 1.3248569133	 0.0084502312	-0.526753
C	 0.2033749666	 0.0574987441	 0.000212177	 0.352107
O	-0.9957320643	-0.60205097	 0.0017542416	-0.256483
C	-0.7923156745	-2.0116295813	-0.008436212	 0.389311
C	-1.5689655491	-2.8182757496	 1.0749582049	-0.275711
C	-1.9343410576	-3.8612906246	-0.0149920366	-0.217393
C	-1.5794727681	-2.804099082	-1.0947076927	-0.275709
C	 0.6966568413	-2.1694531332	-0.016691396	-0.135048
C	 1.26718454	-0.9654247604	-0.0115505116	-0.203297
H	 1.1926559952	 1.6510251345	 0.0059998963	 0.219328
H	-1.0110578082	-3.148271078	 1.9538393659	 0.105312
H	-2.4382878359	-2.2402538346	 1.3963881544	 0.128126
H	-1.245280181	-4.7099751802	-0.0238751149	 0.106106
H	-2.9551001291	-4.2459945372	-0.0125629395	 0.110809
H	-2.4518288471	-2.2219799036	-1.4001250718	 0.128124
H	-1.0301203203	-3.1225465113	-1.9831855411	 0.105311
H	 1.1848751215	-3.135610856	-0.0253589705	 0.125987
H	 2.3208075336	-0.7232832597	-0.0150257447	 0.119872
103.4098	119.0556	200.6427	325.8182	326.0485	421.4652	495.3764	499.7114	688.7279	705.3479	716.5741	782.0083	799.9605	841.8166	852.4265	872.017	918.0428	930.7991	948.5355	957.3118	989.107	1037.9576	1048.2514	1049.4856	1086.4797	1175.6706	1194.7997	1199.1669	1243.7823	1259.876	1270.1312	1281.719	1357.89	1374.7125	1470.6315	1487.1241	1507.0028	1654.2261	1743.5693	3067.3025	3068.4331	3073.2278	3115.7162	3128.4274	3136.8045	3214.1698	3242.1298	3506.5001
N=C1OC2(CCC2)C=C1	[NH]C1=C[CH]C2(O1)CCC2	
InChI=1S/C7H9NO/c8-6-2-5-7(9-6)3-1-4-7/h2,5,8H,1,3-4H2	InChI=1S/C7H9NO/c8-6-2-5-7(9-6)3-1-4-7/h2,5,8H,1,3-4H2
