18
gdb 99790	2.42202	0.96216	0.84556	4.4509	82.46	-0.242	0.0078	0.2498	1473.0557	0.146283	-398.100554	-398.089706	-398.088762	-398.137846	37.644	
C	 0.044452839	 1.4836072931	 0.0127469865	-0.501373
C	 0.0331729168	 0.0285434232	 0.0077291614	 0.084036
C	 0.0301898609	-1.175936146	 0.0229482052	 0.089112
C	-0.0065862578	-2.6427608055	-0.03676641	-0.148153
N	-1.3689280383	-3.2152856211	 0.0094485184	-0.52113
C	 0.6659769359	-3.1451036914	-1.3717488331	-0.148541
N	 0.7476622684	-4.578903402	-1.5265394301	-0.505743
C	 0.7554988006	-3.2048281791	 1.0981007089	 0.306928
N	 1.3751657896	-3.6577327533	 1.9615929527	-0.343496
H	 0.6729566348	 1.8665582628	 0.8237713788	 0.161053
H	 0.4361897218	 1.8806072062	-0.9297727863	 0.155879
H	-0.9638853687	 1.8877079847	 0.1529259701	 0.154075
H	-1.7942898999	-3.0111753994	 0.9096925827	 0.248259
H	-1.9302296895	-2.7283780865	-0.6857408554	 0.240409
H	 0.0653124061	-2.7182749184	-2.1839373462	 0.11403
H	 1.6636317601	-2.7040036981	-1.439208376	 0.129107
H	 1.4017253108	-4.9698538914	-0.854624791	 0.243277
H	-0.1597282407	-4.9894164779	-1.3234585368	 0.242272
18.2089	79.4106	94.3114	122.6719	174.8839	220.7789	261.7878	264.7401	308.7621	323.7143	377.4152	407.622	465.6843	509.0246	542.3014	602.6216	689.5916	841.9318	874.8321	898.243	956.8494	970.1633	1051.1173	1053.1899	1100.8697	1142.9571	1186.8164	1209.143	1320.0914	1369.7026	1396.762	1413.3932	1475.229	1476.1505	1478.4153	1654.6585	1674.9075	2358.7978	2363.0412	3031.3903	3038.5916	3094.1812	3096.3099	3106.6643	3483.2225	3493.4612	3564.3896	3571.7004	18.2273	79.4111	94.3116	122.6718	174.8838	220.7789	261.7869	264.7391	308.7611	323.7133	377.4147	407.6219	465.6841	509.0237	542.3011	602.6214	689.5915	841.9315	874.8321	898.2427	956.8491	970.1632	1051.1168	1053.1894	1100.8697	1142.9571	1186.8163	1209.143	1320.0916	1369.7028	1396.7624	1413.3929	1475.2283	1476.1499	1478.4155	1654.6588	1674.9079	2358.7974	2363.0407	3031.3903	3038.5916	3094.1812	3096.3099	3106.6642	3483.2223	3493.461	3564.3895	3571.7002
CC#CC(N)(CN)C#N	CC#C[C@@](N)(CN)C#N	
InChI=1S/C6H9N3/c1-2-3-6(9,4-7)5-8/h4,7,9H2,1H3	InChI=1S/C6H9N3/c1-2-3-6(9,4-7)5-8/h4,7,9H2,1H3/t6-/m1/s1
