21
gdb 117374	4.8397	0.67056	0.63781	1.6985	80.35	-0.2627	0.0211	0.2838	1848.5724	0.180704	-424.256063	-424.245848	-424.244903	-424.293613	35.803	
C	-0.1199948583	 1.4865376028	-0.3613931477	-0.390889
C	-0.1342834034	-0.0163443381	-0.1582723168	-0.041832
O	 0.6650132374	-0.6055750147	-1.2032682216	-0.247144
C	 0.779392841	-1.9489834311	-1.1691063178	 0.452568
O	 0.2442737127	-2.6447887281	-0.3427670563	-0.357311
C	 1.6904573253	-2.4410740337	-2.2797493308	-0.357444
C	 1.5179376105	-3.9137632832	-2.5684323631	 0.05436
C	 0.5381789187	-4.3714628522	-3.6176894671	-0.251892
C	 2.0230690816	-4.4901192717	-3.8650956154	-0.284813
H	 0.8994943725	 1.8785830833	-0.3058975213	 0.128931
H	-0.5378280184	 1.7529858771	-1.3363368359	 0.129042
H	-0.7189052184	 1.9722369033	 0.4147555297	 0.122738
H	 0.2822958622	-0.3037437394	 0.8123559517	 0.120845
H	-1.1470135633	-0.4282069113	-0.2121461632	 0.121748
H	 1.5194527271	-1.8330068731	-3.1740383325	 0.121718
H	 2.7204771326	-2.2231189952	-1.9633016897	 0.131754
H	 1.5994376059	-4.5432278583	-1.6888948675	 0.102272
H	-0.0297813445	-5.275750719	-3.4314339881	 0.115856
H	-0.006682645	-3.6123155219	-4.1700227056	 0.108348
H	 2.4721057502	-3.8119354803	-4.5838599412	 0.108219
H	 2.4730011538	-5.4766220551	-3.8492274799	 0.112924
18.5095	55.5011	63.0065	109.6549	151.7918	217.864	259.6834	311.0942	357.8806	369.2931	440.7413	590.1275	715.1803	773.7303	805.8967	812.343	844.1692	874.2533	909.0765	934.1758	976.6396	1014.4899	1057.192	1059.0614	1079.923	1133.7924	1134.4412	1147.7902	1183.0208	1196.6566	1206.6658	1233.0356	1258.0471	1291.1447	1340.837	1396.1455	1418.3347	1429.2956	1457.0821	1472.3092	1485.9068	1496.0727	1509.4631	1520.1055	1817.4877	3018.7328	3045.9114	3050.849	3079.0664	3088.2445	3120.207	3125.58	3128.4845	3134.0484	3170.235	3206.9037	3222.9058
CCOC(=O)CC1CC1	CCOC(=O)CC1CC1	
InChI=1S/C7H12O2/c1-2-9-7(8)5-6-3-4-6/h6H,2-5H2,1H3	InChI=1S/C7H12O2/c1-2-9-7(8)5-6-3-4-6/h6H,2-5H2,1H3
