14
gdb 131601	4.56326	1.10416	0.89396	4.3762	66.51	-0.2826	-0.061	0.2216	1207.9326	0.101206	-470.011291	-470.003311	-470.002367	-470.044606	27.842	
O	 0.0265288681	 1.3370705432	 0.0094440317	-0.395146
C	-0.0217823977	-0.0650944306	 0.0032453742	-0.194148
C	-1.4885369044	-0.4688327214	 0.0128094094	 0.456154
O	-2.4209822723	 0.2737034465	 0.02355774	-0.251936
N	-1.6788352101	-1.8939790336	 0.0081988268	 0.028023
N	-0.6441887511	-2.7516408176	-0.0041261729	-0.214113
C	-1.2249830408	-3.9394916237	-0.0045111434	-0.054858
C	-2.6270052125	-3.7562618513	 0.0077612237	-0.042434
N	-2.8918530628	-2.4605793538	 0.0156937688	-0.182688
H	 0.9518990079	 1.5983031414	-0.0009338231	 0.297533
H	 0.45116621	-0.5140149295	-0.8830534451	 0.135067
H	 0.4649090475	-0.5221776797	 0.8778968481	 0.135058
H	-0.6416435086	-4.8468663942	-0.0132997899	 0.141514
H	-3.4212298332	-4.4861571355	 0.0110700215	 0.141974
73.6409	102.1958	164.0192	181.4009	208.6403	307.8703	389.4074	512.9244	557.9595	674.9114	685.919	761.9235	868.8799	914.0973	948.3829	974.5492	1024.3014	1026.2261	1079.1602	1143.4061	1197.1042	1234.6985	1250.609	1288.5986	1300.5878	1367.5861	1431.9149	1457.3938	1482.974	1537.2653	1880.7496	2994.9795	3021.9601	3261.4023	3277.5009	3839.2896
OCC(=O)N1N=CC=N1	OCC(=O)n1nccn1	
InChI=1S/C4H5N3O2/c8-3-4(9)7-5-1-2-6-7/h1-2,8H,3H2	InChI=1S/C4H5N3O2/c8-3-4(9)7-5-1-2-6-7/h1-2,8H,3H2
