19
gdb 115174	2.55217	1.37412	1.05056	5.0374	71.84	-0.261	0.0165	0.2775	1194.4987	0.158551	-460.202235	-460.193089	-460.192145	-460.23647	32.927	
C	 0.2058259621	 1.3484445684	 0.2444199792	-0.239815
O	 0.001804094	-0.0346005636	 0.0576033816	-0.239239
C	 0.565821083	-0.5533156574	-1.1280605626	 0.088408
C	 2.0699604744	-0.84953731	-0.971188695	-0.10307
O	 2.1537818896	-2.154644133	-0.3823056686	-0.223617
C	 0.9848371308	-2.8339760507	-0.5539650771	 0.45676
O	 0.8191442505	-3.942549107	-0.137504103	-0.343192
C	 0.0113239732	-1.9660000311	-1.35308461	-0.172203
C	-1.4526172968	-2.2188002253	-1.010360438	-0.404833
H	 1.2697019212	 1.608147714	 0.3474488803	 0.109423
H	-0.2129920796	 1.9325014028	-0.5894238326	 0.110856
H	-0.3087353433	 1.6261032819	 1.1667409419	 0.138443
H	 0.3735985549	 0.1248327672	-1.9715772537	 0.073096
H	 2.5827780059	-0.8555293221	-1.9408878196	 0.112979
H	 2.5766597741	-0.1472905505	-0.3061092692	 0.126363
H	 0.1934458326	-2.2217003012	-2.4069237514	 0.112694
H	-1.6740921792	-1.8862571713	 0.0046172124	 0.145305
H	-2.1139723316	-1.6863106218	-1.699692771	 0.111477
H	-1.6607276158	-3.2891455395	-1.0787542237	 0.140166
70.1563	105.2471	162.5436	181.0382	199.3701	222.3891	252.3789	326.3331	411.6709	477.3507	533.8873	619.9478	732.0194	766.5972	784.8854	856.4891	935.8819	957.6799	1020.1194	1057.8244	1074.2524	1112.776	1125.2637	1164.575	1182.6605	1186.0875	1211.5211	1251.0369	1270.1428	1311.5855	1347.252	1380.891	1398.5672	1412.4104	1479.9039	1487.9492	1490.4548	1502.5039	1504.8623	1510.3126	1885.3385	2979.4253	3001.8904	3016.5069	3028.8109	3037.1718	3055.6154	3112.7342	3123.6519	3125.9592	3149.8868
COC1COC(=O)C1C	CO[C@H]1COC(=O)[C@H]1C	
InChI=1S/C6H10O3/c1-4-5(8-2)3-9-6(4)7/h4-5H,3H2,1-2H3	InChI=1S/C6H10O3/c1-4-5(8-2)3-9-6(4)7/h4-5H,3H2,1-2H3/t4-,5-/m0/s1
