14
gdb 131283	3.03727	1.29961	1.04718	2.1633	67.95	-0.2433	0.0162	0.2596	1116.8837	0.101623	-432.852618	-432.844603	-432.843659	-432.886313	28.947	
O	-0.0263118865	 1.3328744539	 0.0783846097	-0.420204
C	 0.011511983	 0.0010209114	-0.0316612172	 0.468422
N	 0.0180888128	-0.7111053475	-1.1361438039	-0.377172
C	 0.0590878603	-1.9866844015	-0.6437708835	 0.039699
N	 0.0749399646	-2.0940182189	 0.6685273089	-0.254935
N	 0.0353524024	-0.7810411535	 1.0642727519	-0.017479
C	 0.087718951	-0.4038462989	 2.4670179144	-0.3123
C	 1.4470298804	-0.2811722473	 2.9891783437	 0.323388
C	 2.559133412	-0.1710492388	 3.427083974	-0.444739
H	-0.0549038409	 1.686971837	-0.8195941486	 0.323203
H	 0.0723876842	-2.857381811	-1.2821858744	 0.129733
H	-0.4455098479	 0.5460242485	 2.5745981072	 0.164806
H	-0.4680031833	-1.1654675526	 3.0213489192	 0.168231
H	 3.5451563278	-0.0803938408	 3.8114750288	 0.209346
31.1442	85.2886	228.1054	254.5415	317.943	320.0089	408.1426	443.7754	513.7964	627.0929	669.6516	678.6127	715.5486	744.5865	802.7014	903.597	947.5852	956.3245	984.8709	1113.0223	1181.325	1230.8327	1286.7449	1319.488	1337.6624	1383.9057	1451.5032	1473.6571	1593.8176	1619.3444	2248.1682	3059.5795	3104.3362	3260.5715	3504.9083	3805.1859
OC1=NC=NN1CC#C	Oc1ncnn1CC#C	
InChI=1S/C5H5N3O/c1-2-3-8-5(9)6-4-7-8/h1,4H,3H2,(H,6,7,9)	InChI=1S/C5H5N3O/c1-2-3-8-5(9)6-4-7-8/h1,4H,3H2,(H,6,7,9)
