14
gdb 129402	2.92926	1.66545	1.06376	1.4108	64.78	-0.2381	-0.0088	0.2293	1032.3111	0.103688	-466.2411	-466.233512	-466.232568	-466.273336	28.654	
N	 0.7396928789	 0.0757449283	-0.8522342654	-0.570877
C	-0.0358689339	 0.1677097548	 0.264308649	 0.453004
N	 0.0731116227	 0.9129714923	 1.2924334769	-0.557211
N	-1.1654437696	-0.6983355967	 0.2214844285	-0.182493
C	-2.1815601932	-0.7116710702	 1.1568411199	 0.085716
N	-3.0754196511	-1.6095939012	 0.9013040035	-0.226799
N	-2.6228903377	-2.2144031408	-0.250342129	-0.314307
C	-1.446652062	-1.7025858337	-0.7252199133	 0.521543
O	-0.8016086781	-2.0279797784	-1.7091860404	-0.449936
H	 1.6565628563	 0.4856420192	-0.814469148	 0.257266
H	 0.5725869385	-0.7024988337	-1.4833295463	 0.290914
H	 0.8932213818	 1.511526822	 1.2312301458	 0.215836
H	-2.1896686287	-0.0325824415	 1.9915512934	 0.190035
H	-3.144876994	-2.9625554005	-0.6720093144	 0.287309
79.226	149.0795	248.8352	261.1925	362.923	409.5004	445.3623	454.9252	585.8599	599.4308	653.0308	666.5311	719.1884	755.8066	784.3031	796.7247	889.1774	934.0388	1074.7879	1113.3678	1134.7691	1178.3611	1222.6637	1274.892	1358.5467	1387.9295	1451.0327	1625.2015	1634.9866	1741.8142	1818.7098	3309.4749	3474.5683	3522.0678	3694.0499	3701.2387
NC(=N)N1C=NNC1=O	NC(=N)n1cn[nH]c1=O	
InChI=1S/C3H5N5O/c4-2(5)8-1-6-7-3(8)9/h1H,(H3,4,5)(H,7,9)	InChI=1S/C3H5N5O/c4-2(5)8-1-6-7-3(8)9/h1H,(H3,4,5)(H,7,9)
