17
gdb 67222	2.57202	2.00648	1.44594	1.502	71.1	-0.2335	-0.0161	0.2174	927.3123	0.136654	-421.801841	-421.794687	-421.793742	-421.833206	28.422	
C	-0.0405429451	 1.5741507887	 0.053699586	-0.520372
C	-0.0519911559	 0.0727242544	 0.0602342521	 0.17581
C	 0.9141411949	-0.7518979541	-0.8897384253	 0.028182
C	 0.2542717965	-2.1480646172	-0.8810647838	-0.224899
C	-0.295151688	-1.9914883416	 0.5594530251	-0.220683
C	 0.7520425121	-0.8685945524	 1.0344730298	 0.059897
O	 1.8945119422	-0.8957212688	 0.1794558787	-0.290209
C	-1.2576136756	-0.8170051503	 0.3398918137	 0.392429
O	-2.423345695	-0.6142334678	 0.5256750233	-0.328227
H	 0.9840091454	 1.9539046067	 0.1210824027	 0.135262
H	-0.4871804338	 1.964758382	-0.8668106608	 0.131983
H	-0.6159709766	 1.9728894373	 0.8945390117	 0.135486
H	 1.3218386526	-0.3367711086	-1.8107664519	 0.090375
H	-0.5328159305	-2.28940839	-1.6262372637	 0.116357
H	 1.0101317984	-2.9287304188	-0.9844904621	 0.120716
H	-0.5553966189	-2.8693024101	 1.1433649096	 0.092738
H	 0.9377366472	-0.6971642292	 2.0922728948	 0.105155
139.6615	194.4469	208.5504	255.0335	364.7161	436.1193	556.0816	574.8379	642.4229	692.5302	759.6922	793.0545	824.8675	841.9206	866.5084	918.0409	921.2607	966.9014	985.9722	1016.0599	1031.9704	1078.4984	1100.7742	1136.5381	1159.1054	1197.5214	1204.1267	1224.0896	1239.5064	1294.2713	1322.8314	1371.1027	1412.7968	1486.0034	1488.0977	1491.5756	1887.3938	3035.2877	3069.244	3101.036	3110.9671	3127.8893	3131.4304	3152.4775	3170.8156
CC12C3CC(C1O3)C2=O	C[C@@]12[C@@H]3C[C@@H]([C@H]1O3)C2=O	
InChI=1S/C7H8O2/c1-7-4-2-3(5(7)8)6(7)9-4/h3-4,6H,2H2,1H3	InChI=1S/C7H8O2/c1-7-4-2-3(5(7)8)6(7)9-4/h3-4,6H,2H2,1H3/t3-,4+,6-,7+/m1/s1
