23
gdb 97972	6.70336	0.45299	0.4492	0.1574	96.69	-0.2377	0.0631	0.3008	2547.5852	0.204466	-351.126396	-351.115589	-351.114645	-351.165307	38.19	
C	 0.4265063768	 1.3943985389	-0.2751583456	-0.362326
C	-0.3041569077	 0.1392319549	 0.2359102201	-0.312799
C	 0.312472927	-0.4387628427	 1.4261060383	 0.124057
C	 0.834708883	-0.8892301675	 2.4142656512	 0.005223
C	 1.4725295087	-1.4728388659	 3.5894067678	-0.348585
C	 2.2107289859	-2.795621489	 3.2877641367	-0.194031
C	 2.8682763178	-3.3841405242	 4.5164873006	 0.037587
C	 2.0730108642	-4.2407118202	 5.4719407792	-0.255675
C	 3.1415964462	-4.863074893	 4.6061272659	-0.282524
H	 1.4633890002	 1.1618136599	-0.5329323099	 0.125755
H	-0.0700337893	 1.7910704889	-1.1660090334	 0.111146
H	 0.4376640719	 2.175393555	 0.4900640824	 0.126298
H	-1.3513159712	 0.3893287755	 0.4510151513	 0.124935
H	-0.3353292452	-0.6141967314	-0.5620541573	 0.124708
H	 2.1845466307	-0.7541387411	 4.0177386496	 0.121018
H	 0.7228857721	-1.6524491883	 4.3711255419	 0.126344
H	 1.4958444664	-3.5146194148	 2.8702001275	 0.101765
H	 2.9588349624	-2.6147720898	 2.5065722792	 0.105889
H	 3.614892535	-2.7393337959	 4.975342496	 0.079809
H	 2.2602409973	-4.1470692407	 6.5359286378	 0.110004
H	 1.037374067	-4.4485279331	 5.2214691052	 0.110297
H	 2.8214206379	-5.4870015767	 3.7778747719	 0.110909
H	 4.0609835128	-5.1919429689	 5.0778899937	 0.110198
8.2236	47.4776	75.2595	99.984	139.6897	186.5529	225.3667	292.529	319.6557	368.0836	406.7113	499.051	515.1583	734.0672	760.118	780.4531	785.4636	822.2557	841.4454	917.2585	951.9872	966.515	1023.4961	1041.0336	1058.7345	1079.0187	1079.2567	1104.5494	1137.4297	1143.8675	1166.5781	1198.548	1227.1181	1240.1002	1282.9098	1287.0681	1315.47	1351.0544	1367.6174	1407.7365	1416.6998	1468.8214	1474.061	1476.6272	1492.4391	1494.378	1505.8518	1508.0647	2365.9051	3009.7663	3015.2533	3029.6388	3037.4616	3041.1143	3042.0363	3070.6375	3114.6405	3121.4926	3126.276	3126.7757	3132.6736	3204.6166	3219.8681
CCC#CCCC1CC1	CCC#CCCC1CC1	
InChI=1S/C9H14/c1-2-3-4-5-6-9-7-8-9/h9H,2,5-8H2,1H3	InChI=1S/C9H14/c1-2-3-4-5-6-9-7-8-9/h9H,2,5-8H2,1H3
