17
gdb 55875	3.36295	0.89315	0.75646	3.3175	75.31	-0.2513	-0.0163	0.2349	1482.9725	0.131464	-421.788642	-421.77887	-421.777926	-421.824952	34.283	
C	-0.0506025069	 1.4398038468	 0.3246427354	-0.477087
C	 0.1151513307	-0.0408831304	 0.047772386	 0.391237
O	 1.1905852334	-0.59112523	 0.0882734191	-0.291347
C	-1.163088241	-0.801091064	-0.3124418727	-0.359782
C	-1.0283094624	-2.289904068	-0.1234915707	 0.091932
O	-1.4199726838	-2.8149749817	 1.1434424206	-0.243014
C	-2.2046626415	-3.1788689954	-0.0054171402	-0.166666
C	-3.5549086085	-2.6859395601	-0.0763122459	 0.339612
C	-4.6914516713	-2.302508835	-0.1580420547	-0.43428
H	 0.9262983643	 1.9166729344	 0.4108962608	 0.145319
H	-0.6386288341	 1.921538045	-0.4642843393	 0.136537
H	-0.6056038502	 1.5752208587	 1.2606360402	 0.149937
H	-2.0157041043	-0.420473855	 0.2570153492	 0.135868
H	-1.3763934252	-0.5774894241	-1.3685172781	 0.138491
H	-0.1106749899	-2.7208513147	-0.5202013474	 0.118991
H	-2.0822226276	-4.2179346869	-0.3105235437	 0.119532
H	-5.6965194217	-1.9647160095	-0.2214982985	 0.20472
31.0721	53.1856	90.8179	130.396	170.1926	216.9138	316.9525	343.4547	423.3334	472.9219	549.4725	575.7487	603.0929	628.5777	671.3725	797.1722	806.7529	823.391	886.8827	957.0105	963.1441	1038.4351	1064.1545	1128.0537	1139.7093	1179.6694	1229.4563	1285.5812	1325.2759	1380.9868	1385.913	1430.6135	1459.87	1467.8239	1475.4953	1816.4078	2238.9068	3015.5449	3035.4384	3094.1197	3098.5321	3111.1817	3138.0239	3153.5449	3501.6475
CC(=O)CC1OC1C#C	CC(=O)C[C@H]1O[C@H]1C#C	
InChI=1S/C7H8O2/c1-3-6-7(9-6)4-5(2)8/h1,6-7H,4H2,2H3	InChI=1S/C7H8O2/c1-3-6-7(9-6)4-5(2)8/h1,6-7H,4H2,2H3/t6-,7+/m0/s1
