20
gdb 83553	2.86082	1.34822	1.15085	4.2854	83.14	-0.295	0.036	0.331	1143.9927	0.173615	-366.026869	-366.018977	-366.018032	-366.059006	31.369	
C	-0.1144152279	 1.6953237346	-0.0012516692	-0.445436
C	 0.0201914607	 0.1811654351	 0.0144154206	 0.038254
C	 1.1246592962	-0.5608121415	-0.8059744603	-0.033355
C	 2.4359361328	 0.0373607572	-0.2622906159	-0.231846
C	 2.1028566378	 0.0234995862	 1.2677214265	-0.231851
C	 0.6864904559	-0.5790214272	 1.2067296259	-0.033363
C	 0.9224625445	-1.7561800736	 0.1933208054	-0.145358
C	-0.2262001166	-2.6061773909	-0.0644373826	 0.263058
N	-1.1274787727	-3.302608878	-0.2669491031	-0.340531
H	 0.8249421899	 2.2139731307	 0.2085107594	 0.118863
H	-0.4697191534	 2.0382188313	-0.9790333095	 0.123613
H	-0.8461541677	 2.0226120739	 0.745277919	 0.123613
H	-0.9523960964	-0.2703039025	-0.2013975279	 0.102321
H	 1.0392843368	-0.7146544675	-1.8814165682	 0.079328
H	 3.3033083865	-0.580208997	-0.5106074544	 0.104247
H	 2.6237461882	 1.0413189167	-0.6499565482	 0.107777
H	 2.7908287723	-0.6015697133	 1.8433704912	 0.104247
H	 2.1088037171	 1.0198770536	 1.7157004941	 0.107777
H	 0.1623971138	-0.7511035684	 2.1465408401	 0.079331
H	 1.7988695921	-2.3845535493	 0.378433637	 0.10931
138.8004	154.8981	188.1084	273.0344	281.782	354.4486	385.8247	476.4902	541.1096	590.8957	677.0796	727.281	803.8822	836.463	882.8204	886.832	908.718	939.22	957.0546	1004.6465	1016.7085	1029.0652	1058.2551	1070.5811	1121.1071	1147.444	1156.6076	1194.2309	1200.9969	1217.2496	1256.2635	1273.0012	1281.346	1316.0056	1317.1017	1365.9341	1410.4513	1425.4032	1487.572	1496.7092	1510.5231	1522.477	2349.6342	3036.4986	3060.9089	3065.8963	3068.6976	3071.2586	3095.738	3098.428	3112.1756	3118.2735	3121.3834	3124.7125
CC1C2CCC1C2C#N	C[C@H]1[C@H]2CC[C@@H]1[C@H]2C#N	
InChI=1S/C8H11N/c1-5-6-2-3-7(5)8(6)4-9/h5-8H,2-3H2,1H3	InChI=1S/C8H11N/c1-5-6-2-3-7(5)8(6)4-9/h5-8H,2-3H2,1H3/t5-,6+,7-,8-
