19
gdb 15367	3.1513	1.28349	0.9897	2.3334	72.99	-0.2318	-0.0243	0.2075	1205.8888	0.163232	-365.039809	-365.030734	-365.02979	-365.074664	31.915	
C	 0.4845910182	 1.4323669615	 0.0307034362	-0.372606
C	 0.6075329255	-0.0842339314	-0.0932763417	-0.12532
N	 0.9138139015	-0.6684319122	 1.2117838469	-0.070555
C	-0.2040026266	-1.1134251036	 2.0364870964	-0.263836
C	 0.7416434423	-2.1012134331	 1.4429640755	 0.004727
C	 0.2888281948	-3.0750435467	 0.3658500551	-0.311807
C	 1.4358113709	-3.4969096539	-0.5310641317	 0.170553
O	 1.4096890762	-3.4833164571	-1.7341233652	-0.239214
H	 1.4041259078	 1.8601983266	 0.4391466551	 0.127628
H	 0.2913033177	 1.8838150979	-0.9471728027	 0.113872
H	-0.340014066	 1.7035750725	 0.6982062128	 0.117211
H	-0.3169463757	-0.489108728	-0.5367842034	 0.086705
H	 1.426179823	-0.3400867787	-0.7757688358	 0.115059
H	-0.1598982732	-0.862174901	 3.0931962771	 0.117192
H	-1.2032152354	-1.0710659808	 1.6016296382	 0.107649
H	 1.5135385792	-2.5147645457	 2.0929217446	 0.094443
H	-0.080821217	-3.9826132914	 0.8663699908	 0.1273
H	-0.519976274	-2.6856965828	-0.2549855708	 0.125504
H	 2.3447638009	-3.836974852	 0.0194125326	 0.075495
43.7431	71.5692	85.2708	181.0132	202.7002	240.9801	337.2022	357.9555	430.4481	485.6413	550.4376	729.3085	744.0718	811.8826	855.9336	908.8848	967.8979	1009.3378	1028.9841	1058.0535	1099.675	1107.9894	1125.3066	1146.3193	1165.8969	1197.9788	1216.5399	1279.6523	1312.2012	1337.0498	1386.6198	1409.9696	1421.8591	1429.1479	1455.1564	1487.3678	1489.5476	1504.9132	1516.6474	1836.266	2854.7728	2961.3175	3010.6328	3039.4094	3057.0689	3080.4542	3093.4436	3108.646	3121.6372	3126.1233	3169.6993
CCN1CC1CC=O	CCN1C[C@H]1CC=O	
InChI=1S/C6H11NO/c1-2-7-5-6(7)3-4-8/h4,6H,2-3,5H2,1H3	InChI=1S/C6H11NO/c1-2-7-5-6(7)3-4-8/h4,6H,2-3,5H2,1H3/t6-,7?/m1/s1
