20
gdb 33528	2.42165	1.48385	1.17566	0.6484	85.41	-0.2359	0.0397	0.2756	1148.6461	0.169941	-365.932931	-365.924079	-365.923135	-365.966377	34.23	
C	 0.0137307429	-1.2589976619	 0.1544118252	-0.515629
C	-0.0082175255	-0.0554684059	 0.127274857	 0.324955
C	-0.0560446803	 1.4058216776	 0.0736853133	 0.165341
C	-0.14000378	 2.0434130491	 1.5021576242	-0.252036
C	 1.3981199981	 2.2375785695	 1.4837925017	-0.209044
C	 1.3725787025	 2.0359010666	-0.0532624957	-0.252026
N	-1.02439705	 1.9651993579	-0.8707360127	-0.113042
C	-1.2643172263	 1.2805530324	-2.1394395914	-0.235484
C	-2.3023518105	 1.2854395247	-1.0723283145	-0.235489
H	 0.0446613576	-2.3201182081	 0.1896334903	 0.197592
H	-0.678099089	 2.9913993001	 1.4319956787	 0.11371
H	-0.57468433	 1.4305932978	 2.2933069634	 0.103717
H	 1.7835906474	 3.1891300778	 1.8540529128	 0.101411
H	 1.9205931128	 1.4260883565	 1.9957986403	 0.111729
H	 2.14830817	 1.4170700173	-0.5068088469	 0.103718
H	 1.2919933337	 2.9816149053	-0.5938895706	 0.113711
H	-1.3540561067	 1.930961333	-3.0046322099	 0.114314
H	-0.7553681232	 0.3362086491	-2.3169572791	 0.124117
H	-2.470092003	 0.3442849965	-0.5542392594	 0.124122
H	-3.1666896007	 1.9395187347	-1.1412099268	 0.114313
79.1794	115.388	153.8201	184.782	224.0835	299.8756	377.9384	442.4251	483.8963	563.7827	596.8319	610.9391	654.1637	689.329	794.705	801.2356	840.6005	878.2292	902.7079	934.8515	942.6005	984.4657	1006.445	1057.2497	1075.2762	1107.8222	1125.7922	1126.4284	1169.3641	1177.2282	1202.5374	1211.2553	1253.6956	1273.7084	1278.673	1282.9711	1320.7159	1468.464	1483.0685	1483.2433	1503.257	1509.9252	2213.9374	3069.9891	3070.6366	3075.7078	3106.417	3108.318	3115.6676	3133.4221	3140.2577	3188.0769	3201.3853	3498.492
C#CC1(CCC1)N1CC1	C#CC1(CCC1)N1CC1	
InChI=1S/C8H11N/c1-2-8(4-3-5-8)9-6-7-9/h1H,3-7H2	InChI=1S/C8H11N/c1-2-8(4-3-5-8)9-6-7-9/h1H,3-7H2
