18
gdb 35719	2.34081	1.39497	0.97056	2.9171	76.5	-0.2661	0.0197	0.2858	1223.8456	0.147977	-401.927396	-401.918868	-401.917924	-401.961683	30.897	
N	-0.1429935011	-1.1464207134	-0.2805527079	-0.332514
C	-0.0925809344	-0.001244338	-0.1288163278	 0.292947
C	-0.0258980557	 1.4341274434	 0.0769473579	-0.246982
C	-0.0291148717	 1.9194814405	 1.5517386845	-0.075066
O	 1.3046831334	 2.4349181058	 1.437551086	-0.280758
C	 1.3968198278	 2.0954137576	 0.0332850618	 0.124276
C	 2.5810872975	 1.2508827138	-0.3045998859	 0.01879
C	 3.0997818979	 1.2434893267	-1.72464053	-0.269799
C	 3.8929053332	 1.9181025533	-0.6395314504	-0.278504
H	-0.7608439509	 1.9249777476	-0.563372715	 0.131688
H	-0.7663725004	 2.7036476882	 1.7599462673	 0.114168
H	-0.1095325927	 1.1318129312	 2.3074560662	 0.128414
H	 1.3939984659	 3.0043686074	-0.5847587433	 0.08124
H	 2.6334350353	 0.3127818576	 0.2388181772	 0.107097
H	 3.4547475385	 0.3005320836	-2.1229336109	 0.127647
H	 2.5984435745	 1.8719516208	-2.4536327727	 0.11435
H	 3.9262928797	 3.0024290435	-0.6298377838	 0.120148
H	 4.8015176731	 1.4428831004	-0.2887263231	 0.122856
50.0707	76.6903	115.4819	195.3723	219.5995	292.0295	363.8129	439.8536	527.7261	596.5418	751.4164	776.2596	827.3785	840.2003	874.7003	922.4736	926.5149	978.7207	1007.6395	1024.4592	1063.2	1068.5743	1082.9298	1106.3263	1130.2162	1168.1708	1182.4088	1196.6186	1218.789	1232.4578	1270.3382	1322.7682	1346.8134	1355.8644	1442.4097	1471.9591	1506.309	1527.3286	2355.3995	3002.2299	3029.325	3081.4218	3100.9561	3135.668	3139.798	3162.5472	3216.1496	3230.487
N#CC1COC1C1CC1	N#C[C@H]1CO[C@H]1C1CC1	
InChI=1S/C7H9NO/c8-3-6-4-9-7(6)5-1-2-5/h5-7H,1-2,4H2	InChI=1S/C7H9NO/c8-3-6-4-9-7(6)5-1-2-5/h5-7H,1-2,4H2/t6-,7-/m0/s1
