15
gdb 124719	4.77888	1.04259	0.86584	4.5599	74.06	-0.2252	-0.019	0.2061	1262.0679	0.112964	-450.141072	-450.132603	-450.131659	-450.175751	29.936	
C	-0.7264930653	 1.3631092902	 0.2525625393	-0.454763
C	 0.0448332438	 0.0863761591	 0.0013716497	 0.393747
N	 0.4589912305	-0.5603106691	 1.1217481874	-0.517986
N	 0.3656062168	-0.4505494978	-1.1291428452	-0.384785
C	 0.1022201505	 0.1184823725	-2.3386020512	 0.4339
N	 0.2653921635	-0.5984034054	-3.4368659923	-0.205994
O	-0.061038429	 0.297147156	-4.4667365091	-0.156014
C	-0.3755460246	 1.4469578462	-3.8783550129	 0.103953
N	-0.3042522268	 1.4317836478	-2.5897706047	-0.338071
H	-0.1387641381	 2.2256239632	-0.0675536936	 0.17117
H	-1.6417482842	 1.3782616415	-0.3406305468	 0.161054
H	-0.9776856886	 1.4727346361	 1.3107250059	 0.10584
H	 0.1113395077	-0.3082599613	 2.0285229972	 0.262794
H	 0.9111915104	-1.4529863402	 1.0057516825	 0.267813
H	-0.6526430265	 2.270364441	-4.5216862162	 0.157343
17.2129	127.6416	134.5014	179.9905	205.7391	355.3703	385.9833	415.1872	522.4537	550.2545	620.4937	646.6922	757.6576	794.5267	874.7596	899.4419	925.2573	966.9797	996.1142	1019.1681	1053.6428	1146.9847	1162.4566	1313.2313	1349.0836	1386.4746	1409.6371	1465.5671	1477.0368	1538.1488	1599.9415	1635.3957	1700.8061	3058.0177	3137.1157	3147.512	3251.0729	3607.9493	3749.7737
CC(N)=NC1=NOC=N1	CC(=Nc1nocn1)N	
InChI=1S/C4H6N4O/c1-3(5)7-4-6-2-9-8-4/h2H,1H3,(H2,5,7,8)	InChI=1S/C4H6N4O/c1-3(5)7-4-6-2-9-8-4/h2H,1H3,(H2,5,7,8)
