14
gdb 75108	3.1193	1.48585	1.01507	2.5417	67.57	-0.2477	-0.0535	0.1943	1079.8352	0.10193	-470.061584	-470.053726	-470.052782	-470.094626	29.079	
N	 0.0154711239	 1.3816892344	 0.051599979	-0.541603
C	-0.0419824888	 0.0240185839	-0.0097778734	 0.337562
N	-1.1498567685	-0.6128245978	 0.0231573908	-0.320501
C	-1.1339235999	-2.0461528421	-0.1006549027	-0.305368
C	 0.1787506332	-2.754831751	-0.3741827702	 0.391818
O	 0.2940229774	-3.9198989831	-0.5992063556	-0.293222
O	 1.3269299438	-1.9791603401	-0.3410933466	-0.231944
C	 1.300765164	-0.6260640613	-0.1329367318	 0.367428
N	 2.3634781115	 0.0499971199	-0.0425529577	-0.508064
H	 0.914884554	 1.7971437302	 0.2319751747	 0.279817
H	-0.8203216522	 1.8670136882	 0.3313799014	 0.263664
H	-1.5435228515	-2.5041217868	 0.8114258044	 0.15704
H	-1.8198043492	-2.3587575009	-0.8985645712	 0.159039
H	 3.1903896623	-0.5414751635	-0.1365095712	 0.244333
41.8774	117.9725	214.8657	334.2809	359.2469	380.2806	433.56	474.6065	495.1999	534.4204	553.2148	594.2015	677.3273	788.7339	803.027	888.7863	917.5783	986.7058	999.8255	1119.8638	1158.7307	1227.9267	1253.6997	1300.3034	1351.2146	1440.6253	1452.0762	1602.1079	1731.2735	1752.0723	1884.6602	3013.6762	3043.4725	3486.668	3597.3178	3730.8092
NC1=NCC(=O)OC1=N	NC1=C(OC(=O)C[N]1)[NH]	
InChI=1S/C4H5N3O2/c5-3-4(6)9-2(8)1-7-3/h6H,1H2,(H2,5,7)	InChI=1S/C4H5N3O2/c5-3-4(6)9-2(8)1-7-3/h6H,1H2,(H2,5,7)
