13
gdb 61700	2.29752	1.21739	0.97048	2.1641	63.95	-0.286	-0.0611	0.2249	1189.4535	0.085396	-452.74853	-452.739103	-452.738159	-452.783519	31.862	
O	 0.0215286007	 1.3744890869	 0.1598343501	-0.418142
C	-0.0399294736	-0.0290346606	-0.0040011438	 0.040206
C	 0.5175196563	-0.7717573057	 1.2388193788	-0.316479
C	-0.1336331525	-0.2766338828	 2.5259703401	 0.154252
O	 0.498872905	 0.0011570948	 3.5075178451	-0.22236
C	-1.4690151322	-0.3620459969	-0.1969629663	 0.332425
N	-2.577414819	-0.6591356023	-0.3174207803	-0.307484
C	 0.7150928771	-0.4570887854	-1.2069072075	 0.290455
N	 1.3629234096	-0.7675563384	-2.110915198	-0.304525
H	 0.9478008654	 1.6284418571	 0.2629875717	 0.313439
H	 0.334026279	-1.8479106299	 1.1322167033	 0.168293
H	 1.5975632034	-0.6145461796	 1.3029234361	 0.150525
H	-1.2412760491	-0.2116184171	 2.5016335107	 0.119395
62.467	86.54	128.6416	139.8765	186.4573	228.7174	268.1773	299.7823	403.6936	450.8546	501.1853	530.1189	577.6173	623.1624	730.912	801.5083	962.1104	997.5255	1062.7305	1089.7512	1120.0785	1210.9895	1300.6051	1381.1284	1429.2649	1452.6797	1842.671	2361.6989	2375.8983	2925.5471	3047.9621	3114.3999	3789.7164
OC(CC=O)(C#N)C#N	OC(CC=O)(C#N)C#N	
InChI=1S/C5H4N2O2/c6-3-5(9,4-7)1-2-8/h2,9H,1H2	InChI=1S/C5H4N2O2/c6-3-5(9,4-7)1-2-8/h2,9H,1H2
