16
gdb 45680	3.31536	1.59489	1.13649	3.2808	76.15	-0.2098	-0.0025	0.2073	1026.8778	0.126777	-400.792754	-400.785802	-400.784858	-400.824093	27.565	
O	-0.1760521401	-0.0559701712	-0.0451280462	-0.367884
C	-0.0694848482	 1.1454044693	 0.0108497985	 0.395474
N	-1.1136351155	 2.0636581164	-0.0083577154	-0.325781
C	-0.6603373692	 3.37701302	 0.238343523	-0.127474
C	 0.6737373942	 3.4263646686	 0.2124198402	 0.201208
C	 1.718130415	 4.274823738	 0.8838145045	-0.359097
C	 2.5781180664	 3.1786394521	 1.5093880183	-0.060164
C	 2.2794364092	 1.9567066574	 1.0573819148	-0.087723
C	 1.1998199221	 2.02272456	-0.0004632257	-0.218176
H	-2.0774024832	 1.7725690102	 0.0127563146	 0.258352
H	-1.3780749414	 4.1441254898	 0.4950268251	 0.125579
H	 2.3162851623	 4.8815548834	 0.1868450412	 0.11518
H	 1.3018649608	 4.9677133987	 1.6234648201	 0.114974
H	 3.3656881538	 3.4019148031	 2.2207407318	 0.100059
H	 2.7764644177	 1.0354755469	 1.335537308	 0.112616
H	 1.640725996	 1.8588195972	-0.9979265628	 0.122858
110.0737	185.6283	265.6978	327.0534	406.9056	487.3137	518.0882	585.4271	654.4774	660.0033	707.6341	775.8143	800.6708	845.8956	896.7157	908.9188	940.3676	968.1292	982.4313	1041.7859	1073.2043	1107.4354	1147.6278	1161.5568	1202.9851	1249.8707	1258.3128	1275.7053	1342.28	1360.2178	1394.0587	1479.591	1657.7653	1720.9318	1838.1578	2971.2377	2988.7213	3058.5298	3189.8548	3218.8659	3227.5486	3655.3848
O=C1NC=C2CC=CC12	O=C1N[CH][C]2CC=C[C@@H]12	
InChI=1S/C7H7NO/c9-7-6-3-1-2-5(6)4-8-7/h1,3-4,6H,2H2,(H,8,9)	InChI=1S/C7H7NO/c9-7-6-3-1-2-5(6)4-8-7/h1,3-4,6H,2H2,(H,8,9)/t6-/m1/s1
