17
gdb 13781	3.2529	1.56305	1.38678	4.9309	66.36	-0.2417	0.0193	0.261	965.6047	0.140288	-400.988625	-400.979924	-400.97898	-401.021923	30.95	
C	-0.1881923235	 1.4528847192	-0.1359191985	-0.416742
C	-0.0511364957	-0.0703165925	-0.0720293279	 0.10796
O	-1.3053494662	-0.7218306324	-0.1847614281	-0.424209
C	 0.8502795172	-0.6130782341	-1.1685392054	-0.007911
C	 0.7205538854	-2.0298058586	-1.6549992406	-0.251349
N	 0.3567035391	-0.9148717076	-2.4974522858	-0.064741
C	-0.9029617155	-0.7053278388	-3.0319711264	 0.157626
O	-1.5923939485	-1.5649754697	-3.5207115126	-0.298109
H	 0.7905799972	 1.9375114133	-0.0646874725	 0.126637
H	-0.6619296625	 1.7620334395	-1.0721153468	 0.13502
H	-0.7986556547	 1.8190698825	 0.6975590276	 0.114315
H	 0.4305459769	-0.3377082002	 0.8847640614	 0.082582
H	-1.939348417	-0.2720146083	 0.3811011591	 0.292075
H	 1.8458558042	-0.1706993832	-1.1522551914	 0.099397
H	 1.6096799697	-2.5831043793	-1.9449329173	 0.121842
H	-0.0997886068	-2.6188280335	-1.2566780083	 0.15256
H	-1.1662021793	 0.3691717736	-3.0549916665	 0.073048
73.8676	107.9017	190.9751	205.9671	213.2231	241.5274	294.4689	335.5593	403.5908	480.0095	566.3034	709.8296	745.4017	847.2908	918.9165	967.1601	995.4028	1031.6792	1053.9195	1085.7394	1106.3117	1129.9643	1146.2026	1161.8268	1179.1825	1241.4701	1354.9865	1383.2228	1399.9355	1407.5571	1420.9399	1442.4084	1493.8566	1498.5198	1507.2806	1805.1816	2948.7521	2950.8637	3031.8198	3099.2096	3112.7594	3117.1623	3121.1081	3213.5224	3836.5834
CC(O)C1CN1C=O	C[C@@H](O)[C@H]1CN1C=O	
InChI=1S/C5H9NO2/c1-4(8)5-2-6(5)3-7/h3-5,8H,2H2,1H3	InChI=1S/C5H9NO2/c1-4(8)5-2-6(5)3-7/h3-5,8H,2H2,1H3/t4-,5-,6?/m1/s1
