14
gdb 128954	7.47828	0.80112	0.72687	5.9757	69.03	-0.2394	0.0105	0.2499	1435.4801	0.10245	-432.884392	-432.876537	-432.875593	-432.917837	27.869	
N	-0.0675415248	-1.0826809462	-0.0034904746	-0.292143
C	-0.0118305947	 0.0702592257	 0.002845071	 0.274709
C	 0.0042470886	 1.5334802889	 0.0117233915	-0.204868
O	 1.3581337529	 1.963349083	-0.0014944422	-0.264301
C	 1.5192462204	 3.3049686337	 0.0049841969	 0.469446
N	 0.4948557054	 4.1455129439	 0.0222536002	-0.311578
N	 1.0870596056	 5.3651148814	 0.0228984527	-0.216745
C	 2.4374286023	 5.295237558	 0.0066276257	 0.010011
C	 2.7711958681	 3.9585481966	-0.0056306678	-0.338488
H	-0.5364892837	 1.9170562438	-0.8621605914	 0.164366
H	-0.5157903961	 1.9061343747	 0.9027279768	 0.164375
H	 0.5066549668	 6.1850852313	 0.034772088	 0.279318
H	 3.0506357564	 6.1825775741	 0.0049715872	 0.144574
H	 3.7512074428	 3.5142081111	-0.0198983439	 0.121323
44.9846	106.042	120.413	244.0864	330.6481	388.6332	420.6706	433.4228	537.509	651.22	716.536	769.0693	773.3554	841.4506	937.9801	963.407	1000.689	1021.7501	1063.0506	1077.3291	1121.8366	1225.9732	1246.1258	1312.6138	1382.6697	1417.897	1485.2588	1493.5766	1531.7255	1589.5014	2376.2986	3032.9786	3066.948	3262.0009	3291.4504	3691.388
N#CCOC1=NNC=C1	N#CCOc1n[nH]cc1	
InChI=1S/C5H5N3O/c6-2-4-9-5-1-3-7-8-5/h1,3H,4H2,(H,7,8)	InChI=1S/C5H5N3O/c6-2-4-9-5-1-3-7-8-5/h1,3H,4H2,(H,7,8)
