22
gdb 122835	6.61334	0.5211	0.49966	3.9514	82.51	-0.2428	0.0302	0.273	2280.8122	0.191396	-441.507926	-441.496316	-441.495372	-441.547322	38.724	
C	-0.001497548	 1.4877979876	-0.06368541	-0.383728
C	-0.0611244064	-0.0412974846	-0.0896919861	-0.182603
C	-1.4794637667	-0.56961014	 0.0708164865	-0.025586
O	-1.4413301726	-1.9819127616	 0.0413959949	-0.225502
C	-2.6978674642	-2.5726606423	 0.20292154	-0.166486
C	-2.5162033426	-4.0879097964	 0.3527002644	 0.393487
O	-1.6047644441	-4.5742370393	 0.9895877234	-0.354066
N	-3.5014067456	-4.8214768928	-0.2448191661	-0.316206
C	-3.5533164349	-6.267692742	-0.1588931543	-0.332407
H	 1.0264981867	 1.8419697316	-0.1814798312	 0.118717
H	-0.5975979677	 1.9259695746	-0.8720451136	 0.114344
H	-0.3829956546	 1.8870332394	 0.8826752224	 0.116408
H	 0.3470300399	-0.4229188995	-1.0324191564	 0.108209
H	 0.5568562309	-0.4622968871	 0.7110018575	 0.115419
H	-1.9158687643	-0.2214390729	 1.0236394509	 0.084813
H	-2.1268739527	-0.184141929	-0.7372189419	 0.07941
H	-3.196711227	-2.2072799528	 1.1185471832	 0.110438
H	-3.365856087	-2.3317646935	-0.6436180209	 0.077872
H	-4.1824039559	-4.3460168218	-0.8127724061	 0.244123
H	-2.7492471621	-6.5797850074	 0.508569673	 0.173136
H	-4.512791486	-6.606779056	 0.2467012565	 0.12382
H	-3.4016967552	-6.7355064245	-1.1384414959	 0.126388
19.9158	43.1974	80.3585	82.4631	108.153	139.1886	160.8356	229.8054	234.5901	274.1661	344.4554	406.4196	438.1439	498.3678	631.6315	742.7339	765.3478	894.4205	901.2393	927.0981	999.4131	1028.8949	1056.6363	1089.3573	1149.7391	1155.5583	1170.8479	1186.4986	1191.6292	1227.3391	1266.0541	1274.3032	1315.6425	1333.3395	1399.2462	1413.1659	1437.6591	1450.0175	1489.3965	1492.5374	1495.102	1500.8693	1500.8902	1508.2776	1530.0681	1559.9709	1802.1181	2930.7503	2944.1614	2961.129	2966.0508	3026.5242	3030.8464	3042.4259	3074.2218	3078.5107	3100.0727	3108.409	3153.1628	3649.6232
CCCOCC(=O)NC	CCCOCC(=O)NC	
InChI=1S/C6H13NO2/c1-3-4-9-5-6(8)7-2/h3-5H2,1-2H3,(H,7,8)	InChI=1S/C6H13NO2/c1-3-4-9-5-6(8)7-2/h3-5H2,1-2H3,(H,7,8)
