19
gdb 68777	2.40123	1.45899	1.33121	2.6883	71.85	-0.2213	0.0622	0.2835	1076.6442	0.156123	-460.12662	-460.117162	-460.116218	-460.159852	36.78	
C	-0.1051650659	 1.5880229753	 0.0365250905	-0.462376
C	 0.062664551	 0.0763468757	 0.0274659863	 0.335097
O	-1.2007950338	-0.5767853998	-0.0865684704	-0.493099
C	 1.1335799431	-0.5636646515	-0.9318041315	-0.350327
C	 1.74768932	-1.2936132359	 0.2694825791	 0.313154
O	 2.1957126418	-2.599044302	 0.2441319121	-0.463928
C	 2.2028335635	-0.285292028	 1.3036448751	-0.413414
C	 0.7443845096	-0.6151873816	 1.2138028632	 0.364832
O	 0.0487265268	-1.0344495841	 2.3208403829	-0.462097
H	 0.8535897373	 2.0967283802	 0.1707393542	 0.121451
H	-0.5321881333	 1.9385306929	-0.9115658468	 0.106262
H	-0.7754758615	 1.8892122532	 0.8469440845	 0.131387
H	-1.6519943603	-0.2391132141	-0.8669069572	 0.280271
H	 0.6533398437	-1.2510949594	-1.6313240675	 0.105969
H	 1.7868499841	 0.1290950973	-1.4757441474	 0.082336
H	 3.1485193887	-2.5957123052	 0.1009419559	 0.284853
H	 2.6651909452	-0.7476762981	 2.1713957812	 0.124328
H	 2.6096929276	 0.6889098269	 1.0351072046	 0.098071
H	-0.7820414477	-1.399264952	 1.9880514413	 0.297229
123.6275	180.1644	208.8838	225.2481	230.1534	251.2949	279.9333	347.0986	396.0185	430.5984	437.5034	452.743	516.193	555.0227	612.6586	686.498	751.7848	804.8996	840.1679	896.7892	942.5621	953.3243	992.9183	1045.3629	1082.5415	1094.0517	1142.3001	1158.0362	1208.4914	1211.1086	1245.3017	1287.3174	1309.2672	1378.0152	1394.4648	1405.9775	1433.1764	1468.8905	1489.261	1492.9514	1531.7223	3024.6735	3029.498	3086.1625	3093.0154	3112.6091	3119.3152	3191.1017	3772.6151	3789.6012	3817.3675
CC1(O)CC2(O)CC12O	C[C@@]1(O)C[C@@]2(O)C[C@@]12O	
InChI=1S/C6H10O3/c1-4(7)2-5(8)3-6(4,5)9/h7-9H,2-3H2,1H3	InChI=1S/C6H10O3/c1-4(7)2-5(8)3-6(4,5)9/h7-9H,2-3H2,1H3/t4-,5-,6-/m1/s1
