25
gdb 119050	1.9491	1.10027	0.86901	1.0849	89.73	-0.2389	0.0823	0.3212	1542.1107	0.226214	-389.478426	-389.467175	-389.466231	-389.514955	40.991	
C	-1.1438097286	 1.2750203876	-0.2284373977	-0.384657
C	-0.7786756752	-0.207859334	-0.3267750319	-0.153356
C	 0.5353561401	-0.4514795197	-1.0819638228	-0.258129
C	 0.9139492111	-1.9199407279	-1.1472689858	 0.42781
C	 0.2991030453	-2.8176425066	-2.1834321037	-0.344172
C	 1.7811999577	-2.4946649487	-2.2487848418	-0.061469
C	 2.3696599222	-1.685617986	-3.3838715795	-0.413696
O	 1.0404591241	-2.5478374031	 0.1078155019	-0.282266
C	 2.1952771282	-2.1822079009	 0.8357797228	-0.247889
H	-0.3661989976	 1.8425418232	 0.2957035499	 0.110489
H	-1.2633454938	 1.7236202444	-1.2214165622	 0.110128
H	-2.0825533705	 1.4193397357	 0.3156407034	 0.110826
H	-0.6980323927	-0.6427038123	 0.6752924974	 0.109433
H	-1.5853395661	-0.7566243358	-0.8290300375	 0.096891
H	 0.4507836359	-0.0557267877	-2.0998945783	 0.094672
H	 1.342178563	 0.1226933114	-0.6055778039	 0.090755
H	 0.0053068353	-3.810734874	-1.8639606607	 0.117732
H	-0.3528312065	-2.3630289116	-2.9234160202	 0.104096
H	 2.4198593336	-3.303156679	-1.9012020935	 0.088783
H	 1.6788531192	-0.9154689917	-3.7388721878	 0.116579
H	 3.2987527202	-1.1864979436	-3.0860902786	 0.115401
H	 2.5999461314	-2.3320696652	-4.2382431122	 0.117793
H	 3.1130823236	-2.3461394589	 0.2528182869	 0.103909
H	 2.1744932303	-1.1318053085	 1.1592363826	 0.10655
H	 2.2228106199	-2.8166855871	 1.7252847632	 0.123785
70.3486	75.6312	115.8954	128.9088	170.9526	192.5578	206.9473	239.9528	253.5971	312.9433	327.0965	416.4619	436.6463	468.8846	550.0465	727.1828	746.2996	810.124	861.2472	886.7496	902.7436	907.7951	955.5747	1015.8403	1027.0828	1052.7094	1065.1652	1111.1358	1121.458	1124.6412	1143.6877	1179.5786	1189.3209	1216.7825	1235.527	1274.0876	1296.154	1328.9263	1337.7867	1391.5315	1402.1803	1412.1545	1422.4211	1468.0031	1478.1569	1488.0427	1492.5983	1493.8278	1497.2313	1499.2379	1505.8783	1509.8969	1513.0685	2987.2192	3012.56	3025.5925	3028.4486	3032.5349	3038.1237	3057.297	3073.1318	3084.8079	3095.2068	3099.3517	3104.5915	3111.2755	3127.7326	3139.6097	3220.3144
CCCC1(CC1C)OC	CCC[C@]1(C[C@H]1C)OC	
InChI=1S/C8H16O/c1-4-5-8(9-3)6-7(8)2/h7H,4-6H2,1-3H3	InChI=1S/C8H16O/c1-4-5-8(9-3)6-7(8)2/h7H,4-6H2,1-3H3/t7-,8-/m1/s1
