16
gdb 47869	2.47224	1.71958	1.22476	4.4742	66.86	-0.2693	-0.0455	0.2238	1018.6049	0.126026	-475.051482	-475.043825	-475.042881	-475.084049	28.688	
N	-0.1950349242	 0.8359132569	 1.0270399351	-0.48889
C	-0.0913578637	-0.0569853582	 0.1397889839	 0.279509
O	-1.2186547788	-0.5265121262	-0.443539722	-0.217989
C	-1.0861991034	-1.3481826668	-1.6079952436	-0.092442
C	-0.7643355071	-2.7949110644	-1.2306460265	-0.223058
C	 0.3047277381	-2.8263864095	-0.1423086053	-0.085212
O	 1.4048433553	-1.9529097329	-0.4595456638	-0.221843
C	 1.2766726685	-0.6210867904	-0.2791815946	 0.316548
O	 2.2282892151	 0.0995876271	-0.3966726208	-0.316811
H	 0.734078586	 1.1011723131	 1.3520460854	 0.249564
H	-2.0436085723	-1.2737767025	-2.1264568772	 0.135322
H	-0.3163636044	-0.9377347705	-2.271422692	 0.136407
H	-1.6570223255	-3.304656099	-0.8531324961	 0.125364
H	-0.4279901465	-3.3299223163	-2.1249731417	 0.123877
H	-0.1185742559	-2.5455721632	 0.8270626867	 0.143288
H	 0.7514839087	-3.8165832872	-0.0425665274	 0.136365
65.9469	119.3321	248.7638	278.7242	349.1991	368.2338	394.7531	439.5097	598.3468	601.2089	661.9197	738.3461	798.9963	805.1218	879.9649	890.9959	956.5316	1019.4068	1050.0855	1086.5874	1125.4719	1133.9028	1190.8615	1255.4476	1288.0478	1304.919	1374.6817	1378.3595	1397.4012	1428.139	1477.1726	1516.6222	1518.605	1726.7785	1834.7966	3044.6891	3050.0522	3062.524	3096.635	3122.1594	3129.889	3509.9369
N=C1OCCCOC1=O	[NH][C]1OCCCOC1=O	
InChI=1S/C5H7NO3/c6-4-5(7)9-3-1-2-8-4/h6H,1-3H2	InChI=1S/C5H7NO3/c6-4-5(7)9-3-1-2-8-4/h6H,1-3H2
