12
gdb 19217	3.38628	2.01464	1.4934	3.86	58.94	-0.2767	-0.0414	0.2354	804.9713	0.084192	-377.505235	-377.498687	-377.497743	-377.53626	23.725	
O	 0.0943763844	 0.0077150237	-0.014985408	-0.264263
C	 0.0389995224	 1.1887917008	 0.035584236	 0.406344
C	-1.127558683	 2.2376781688	 0.1339478973	-0.302902
C	-2.0077732301	 2.2243137439	 1.2867127364	 0.292055
N	-2.6806136269	 2.2098620117	 2.2266148548	-0.316385
C	 0.0049973447	 3.2688504558	 0.0733506067	-0.026501
C	 1.0090408146	 3.0262459765	 1.1115925309	-0.246008
N	 1.0705740231	 2.1867490016	-0.1332643844	-0.168247
H	-1.7084913116	 2.1982702426	-0.7924247122	 0.167648
H	-0.0053532132	 4.1440680867	-0.5626591254	 0.137151
H	 1.8515154962	 3.7050494126	 1.1789469914	 0.15827
H	 0.7256916594	 2.5506469352	 2.0465210267	 0.162838
111.1809	138.9692	204.363	375.4247	408.3144	528.1261	560.0182	651.1944	682.4638	751.7396	825.8652	855.3686	945.3471	985.8964	1012.0898	1054.5483	1069.3026	1121.0932	1141.783	1162.608	1237.628	1319.6564	1356.7313	1506.1823	1940.0168	2357.4972	3083.862	3129.3529	3211.5077	3227.9676
O=C1C(C#N)C2CN12	O=C1[C@@H](C#N)[C@H]2CN12	
InChI=1S/C5H4N2O/c6-1-3-4-2-7(4)5(3)8/h3-4H,2H2	InChI=1S/C5H4N2O/c6-1-3-4-2-7(4)5(3)8/h3-4H,2H2/t3-,4+,7?/m0/s1
