17
gdb 88336	2.58796	1.13676	0.95077	0.8956	73.55	-0.2423	-0.0342	0.2081	1272.5258	0.134115	-455.129302	-455.120141	-455.119196	-455.164046	32.309	
C	 0.4158123887	 1.7017516104	-0.3326780198	-0.327901
N	 0.2136403439	 0.2988056971	 0.0166843545	-0.082034
C	 1.3486425468	-0.5914373287	 0.092945875	-0.258239
C	 0.580046851	-0.2387961823	 1.3331536195	-0.039922
C	 1.1910088685	 0.5549374037	 2.4291883462	 0.381043
N	 0.7409062509	 0.4895889736	 3.6084164564	-0.489968
O	 2.2539113434	 1.3633905945	 2.0181795241	-0.2061
C	 3.3721369821	 1.4368862284	 2.7995604049	 0.152856
O	 4.2548387759	 2.1979520115	 2.5624502701	-0.246858
H	 1.3861263115	 2.1150513251	-0.0346296223	 0.134649
H	 0.3167187306	 1.788904771	-1.4188991472	 0.130354
H	-0.3778189687	 2.2984830708	 0.1269779387	 0.130755
H	 1.2202776527	-1.5792229826	-0.3428929174	 0.125779
H	 2.3460346184	-0.1665652025	-0.0060071771	 0.126869
H	-0.1466727554	-0.9380138977	 1.7343165504	 0.123963
H	 1.2253535445	 1.1078199456	 4.2582498639	 0.23456
H	 3.3557270051	 0.7070315022	 3.62611024	 0.110196
62.9344	78.0154	122.3253	172.7167	194.9281	256.7151	280.1865	343.754	397.8573	467.8514	560.665	602.6419	707.1253	781.1396	836.4215	891.1316	917.8413	974.8588	1034.8687	1048.7079	1075.8758	1107.3248	1117.45	1130.4998	1144.8283	1170.68	1210.055	1300.7841	1337.4797	1383.9627	1414.2453	1452.058	1491.3369	1505.6792	1510.0213	1729.5981	1875.7402	3005.4884	3026.6103	3095.479	3096.4591	3110.0339	3164.7928	3183.476	3496.9077
CN1CC1C(=N)OC=O	CN1C[C@H]1[C]([NH])OC=O	
InChI=1S/C5H8N2O2/c1-7-2-4(7)5(6)9-3-8/h3-4,6H,2H2,1H3	InChI=1S/C5H8N2O2/c1-7-2-4(7)5(6)9-3-8/h3-4,6H,2H2,1H3/t4-,7?/m0/s1
