17
gdb 72954	2.64122	1.51861	1.20499	4.5869	73.62	-0.2425	0.0238	0.2663	1059.4851	0.13527	-417.968187	-417.959487	-417.958543	-418.001046	32.851	
C	 0.0077336699	 1.5274118281	-0.0254803968	-0.479384
C	 0.0353345742	 0.0090928193	 0.0586205636	 0.081693
C	-1.1260515024	-0.6400263525	-0.4990037866	 0.257334
N	-2.0709244701	-1.1043353215	-0.9789290202	-0.347091
C	 1.3292697093	-0.7852674535	-0.1309965909	 0.039674
O	 2.4402247133	-0.019011628	 0.3099789142	-0.282155
C	 1.9323987568	-0.0285820682	 1.6740235958	-0.153806
C	 0.6679985354	-0.7770199363	 1.2256633829	 0.19296
N	-0.0570183691	-1.7855015642	 1.8966565038	-0.580113
H	 1.0088468572	 1.9295486769	 0.1388582007	 0.148329
H	-0.321631369	 1.8411965544	-1.0193251064	 0.143827
H	-0.67927602	 1.9557518675	 0.7102559097	 0.13017
H	 1.4748966935	-1.5382726203	-0.8956598891	 0.13364
H	 2.5746669408	-0.6456434152	 2.3135280115	 0.115593
H	 1.8358653213	 0.9763985751	 2.0981339602	 0.114517
H	 0.5494650875	-2.4394956731	 2.3785436646	 0.240373
H	-0.7284032485	-1.4102211486	 2.5574236831	 0.24444
127.11	154.7089	171.5886	203.996	274.1081	286.9674	321.508	351.8298	426.2728	481.9752	546.2627	556.5774	657.7533	706.7266	723.1055	767.839	902.3874	932.0885	977.0794	1009.1158	1023.1033	1042.2019	1078.9348	1110.1541	1148.1367	1212.4088	1214.5415	1259.0252	1302.6441	1310.5852	1410.0402	1453.0173	1488.475	1498.6901	1513.3118	1657.5283	2348.8165	3027.709	3050.7091	3083.9778	3117.7811	3142.3389	3199.6297	3510.1797	3593.7139
CC1(C#N)C2OCC12N	C[C@@]1(C#N)[C@H]2OC[C@@]12N	
InChI=1S/C6H8N2O/c1-5(2-7)4-6(5,8)3-9-4/h4H,3,8H2,1H3	InChI=1S/C6H8N2O/c1-5(2-7)4-6(5,8)3-9-4/h4H,3,8H2,1H3/t4-,5-,6+/m1/s1
