19
gdb 126998	5.05613	0.82743	0.72068	3.0785	79.77	-0.2096	0.0464	0.256	1594.7591	0.159213	-419.233989	-419.224515	-419.223571	-419.268927	33.861	
C	-0.0476135966	 1.4533339225	-0.14331617	-0.392958
C	-0.8769783248	 0.2192797866	-0.4418473614	-0.049175
O	-0.4609806616	-0.8173821639	 0.4510584448	-0.268271
C	-1.1028939378	-1.9891226121	 0.3168895037	 0.495291
C	-2.1081598758	-2.4529345173	-0.5080276111	-0.441117
C	-2.2981790531	-3.8012110592	-0.0991230502	 0.359641
C	-3.2690846312	-4.7970420555	-0.6502742193	-0.489334
N	-1.4811747986	-4.1380342324	 0.8916548634	-0.290471
N	-0.7560329063	-3.0115069847	 1.1319825363	-0.294989
H	-0.3398282706	 2.2696870394	-0.809964773	 0.124263
H	-0.1971127977	 1.7788487959	 0.8897882358	 0.133459
H	 1.0163620763	 1.2489698986	-0.2909812384	 0.133455
H	-1.9480711094	 0.4125707726	-0.2956821406	 0.113395
H	-0.7337180872	-0.1177562218	-1.4771470055	 0.113397
H	-2.6267909516	-1.913972368	-1.2825001229	 0.097684
H	-3.0993723183	-4.9748765003	-1.7181431037	 0.123965
H	-3.1634254632	-5.7467008997	-0.1214180219	 0.137969
H	-4.3036137536	-4.452942678	-0.5399118994	 0.124049
H	-0.0527954387	-3.0019324026	 1.8499050135	 0.269745
61.851	84.2714	115.1076	132.3639	202.9786	242.9416	304.4855	345.3892	361.9433	457.3026	474.8911	634.171	684.5988	694.7852	751.0332	770.551	824.3511	923.3762	987.3313	1002.3261	1049.9771	1065.2178	1085.1715	1135.1186	1154.7523	1186.7488	1192.7564	1296.7902	1309.2781	1399.932	1404.6921	1424.2614	1432.4106	1481.6557	1483.0985	1483.4795	1490.804	1500.0815	1523.9948	1550.2662	1623.502	3008.1307	3032.2665	3046.0633	3048.5821	3082.196	3124.3225	3126.7557	3130.8451	3271.1282	3686.1902
CCOC1=CC(C)=NN1	CCOc1cc(C)n[nH]1	
InChI=1S/C6H10N2O/c1-3-9-6-4-5(2)7-8-6/h4H,3H2,1-2H3,(H,7,8)	InChI=1S/C6H10N2O/c1-3-9-6-4-5(2)7-8-6/h4H,3H2,1-2H3,(H,7,8)
