17
gdb 44045	2.65977	1.75812	1.60063	4.2982	73.49	-0.2347	0.0244	0.259	927.6951	0.136642	-417.923284	-417.915816	-417.914872	-417.955099	29.379	
N	 0.0617509366	 1.1693707906	 0.5745657517	-0.556803
C	 0.0806223124	-0.0139716186	 0.1367814528	 0.324659
N	 1.0425886806	-0.9164167807	-0.3493093436	-0.376681
C	 0.0993558896	-1.983948495	-0.6256426999	 0.181598
C	-0.2156154453	-3.053388617	 0.4696061139	-0.278276
C	-1.381594439	-2.1327203813	 1.0012455107	-0.30225
C	-0.9947103294	-1.0913095841	-0.0821233951	 0.318808
O	-1.7272716583	-1.0698537141	-1.323540354	-0.325075
C	-0.7204736471	-1.9346299191	-1.9399055678	-0.132305
H	 0.9875810642	 1.6011762429	 0.5561889473	 0.209707
H	 2.0247479158	-0.8018951935	-0.5557458236	 0.238693
H	-0.5293905772	-4.0276937951	 0.0885960263	 0.110901
H	 0.6049105004	-3.1973938953	 1.1737053196	 0.115786
H	-2.3820042935	-2.5382334671	 0.8425845697	 0.125223
H	-1.29227514	-1.7919972652	 2.0337757079	 0.124983
H	-0.2261990309	-1.4480713207	-2.7871882778	 0.111662
H	-1.1574388288	-2.8869494866	-2.2611141982	 0.109369
80.9712	178.7805	272.796	304.7122	313.2107	363.45	392.8663	612.4851	643.5888	653.9346	717.098	738.8212	742.8478	833.7154	856.6657	881.7995	905.8788	920.1547	955.1878	1008.0169	1031.5657	1117.6894	1140.3803	1151.5169	1174.4962	1205.7344	1226.054	1237.62	1246.7454	1263.3616	1300.2102	1335.8786	1361.808	1460.1416	1472.7202	1502.7663	1788.1122	3027.4329	3073.0714	3082.5756	3083.6437	3128.6819	3146.7408	3457.4361	3585.6669
N=C1NC23CCC12OC3	[NH][C]1N[C@@]23CC[C@@]12OC3	
InChI=1S/C6H8N2O/c7-4-6-2-1-5(6,8-4)3-9-6/h1-3H2,(H2,7,8)	InChI=1S/C6H8N2O/c7-4-6-2-1-5(6,8-4)3-9-6/h1-3H2,(H2,7,8)/t5-,6-/m1/s1
