15
gdb 28170	5.31105	1.30798	1.05644	6.7607	74.61	-0.1934	0.0239	0.2173	1081.3531	0.115516	-413.035567	-413.028001	-413.027057	-413.067672	28.09	
C	-0.0198253054	 1.464783491	 0.0287526414	-0.502927
C	-0.0030048003	-0.025324709	-0.0298279098	 0.317297
N	-0.0501806608	-0.7539382727	-1.1216416548	-0.367095
C	-0.0084336827	-2.0549814094	-0.6694921893	 0.288864
C	 0.0644130143	-2.0923174814	 0.7035844995	 0.398311
N	 0.1014516506	-3.4080562314	 1.070210455	-0.416993
C	 0.047002856	-4.1039665194	-0.1406456211	-0.014126
N	-0.0189085623	-3.3268119651	-1.1948454015	-0.329577
N	 0.0693989991	-0.7962091188	 1.1409404677	-0.451056
H	 0.8888142236	 1.8685629311	 0.4915317219	 0.129047
H	-0.0858884797	 1.8472090564	-0.9902651124	 0.162983
H	-0.8773648822	 1.8444189036	 0.5972946073	 0.128712
H	 0.1553774324	-3.8149942337	 1.9872035261	 0.266039
H	 0.0612427879	-5.1833990063	-0.1492845222	 0.127723
H	 0.1142813496	-0.4410287949	 2.0798304723	 0.262798
88.0099	131.3837	203.4527	286.9925	331.7315	357.9114	389.3819	531.2915	578.9587	642.6125	666.8383	751.0778	772.4502	793.0691	833.9618	935.8857	981.9855	1017.1673	1053.8696	1058.5477	1174.6734	1207.5919	1301.3037	1348.3304	1380.0667	1399.4307	1418.8092	1480.6351	1484.7365	1498.8826	1536.692	1583.7042	1624.5195	3024.2377	3071.1611	3151.3026	3255.412	3676.9003	3680.6152
CC1=NC2=C(NC=N2)N1	Cc1nc2c([nH]cn2)[nH]1	
InChI=1S/C5H6N4/c1-3-8-4-5(9-3)7-2-6-4/h2H,1H3,(H,6,7)(H,8,9)	InChI=1S/C5H6N4/c1-3-8-4-5(9-3)7-2-6-4/h2H,1H3,(H,6,7)(H,8,9)
