21
gdb 105011	2.00184	1.36968	1.23783	0.6429	84.04	-0.2437	0.0482	0.2919	1203.6869	0.178947	-387.032112	-387.02171	-387.020766	-387.067354	38.453	
C	 0.4310957913	 0.2340039129	 1.0029947628	-0.251714
O	-0.0614619142	-0.6548165149	 0.0107912646	-0.292912
C	 0.7301797906	-0.7986481102	-1.1328967374	 0.441147
C	 2.0253595942	-1.5546672805	-0.9978278423	-0.323219
C	 0.8136952588	-2.2126778857	-1.629953243	-0.318985
C	 0.6174472672	 0.3232698882	-2.1774735753	-0.219026
C	-0.8581737643	 0.6376627043	-2.4942254513	-0.389885
C	 1.3590428982	 1.5329447048	-1.8101132533	 0.334288
C	 1.9704568127	 2.5340658664	-1.5439592087	-0.478703
H	 1.4708818452	 0.0029583018	 1.2699615155	 0.108025
H	 0.3806861047	 1.2799331023	 0.6823092131	 0.126756
H	-0.2031676562	 0.0951821592	 1.8822801335	 0.119969
H	 2.8589516753	-1.2720412119	-1.6316422679	 0.117894
H	 2.3055062067	-1.8869873353	-0.0048193491	 0.118369
H	 0.2906666129	-2.9570852083	-1.0414772706	 0.123582
H	 0.8154175902	-2.3921090005	-2.6997692465	 0.110145
H	 1.0849934765	-0.0658107	-3.0920002713	 0.104318
H	-0.9312937328	 1.4059866722	-3.2675975856	 0.119442
H	-1.3644569974	-0.2665434749	-2.8444254346	 0.119125
H	-1.3746572438	 0.9908939482	-1.5995930337	 0.137064
H	 2.5134236841	 3.4132616419	-1.2995855287	 0.194321
51.9351	98.9122	137.57	179.6395	198.815	220.0565	233.7235	270.542	329.0133	346.6747	403.6651	509.6943	541.3012	573.2624	620.0059	630.9916	730.6288	770.896	838.3856	908.6544	913.7403	954.5758	991.7639	1016.6879	1049.7438	1078.0186	1090.7418	1103.6791	1125.5953	1182.7242	1187.2224	1222.4733	1251.5961	1288.1727	1318.8937	1366.0628	1405.8099	1455.6996	1475.0229	1489.654	1491.5888	1496.2011	1498.3232	1510.5483	2227.9629	3011.1359	3013.9681	3050.6287	3079.119	3116.0122	3123.7378	3134.715	3138.2566	3139.1502	3218.8938	3232.7398	3503.3313
COC1(CC1)C(C)C#C	COC1(CC1)[C@@H](C)C#C	
InChI=1S/C8H12O/c1-4-7(2)8(9-3)5-6-8/h1,7H,5-6H2,2-3H3	InChI=1S/C8H12O/c1-4-7(2)8(9-3)5-6-8/h1,7H,5-6H2,2-3H3/t7-/m0/s1
