20
gdb 33151	4.60047	0.78584	0.71456	1.834	83.01	-0.1825	0.0481	0.2306	1626.4149	0.170877	-403.182319	-403.172779	-403.171835	-403.217496	35.027	
C	-0.0160387737	 1.5640842473	 0.0187726831	-0.380102
C	-0.0057295449	 0.0340267266	 0.047284037	-0.164566
C	-1.4195975736	-0.557690439	-0.036067732	-0.160645
N	-1.4464199284	-2.0079189885	-0.0092832259	 0.033687
C	-1.4629927137	-2.8230702248	-1.1049819172	-0.077208
C	-1.3737506914	-4.1340578962	-0.6840245974	-0.316833
C	-1.2955569541	-4.0997664351	 0.7345498559	 0.302487
O	-1.2072151907	-5.1545625478	 1.5993170646	-0.449568
C	-1.3370032034	-2.781970242	 1.1307927879	-0.193485
H	 0.9991827695	 1.966024561	 0.0816859855	 0.120207
H	-0.4665197236	 1.9433220271	-0.9054171967	 0.116444
H	-0.5884619842	 1.9751326537	 0.8578670788	 0.117665
H	 0.5886567423	-0.3574553648	-0.7864516401	 0.108616
H	 0.4742407686	-0.3243018738	 0.9651163853	 0.111332
H	-2.0306273618	-0.184887207	 0.7944956712	 0.115193
H	-1.9085587186	-0.2320012143	-0.9606273401	 0.113146
H	-1.5395232035	-2.4077801188	-2.0976516698	 0.112299
H	-1.3840257355	-5.0107736139	-1.3147549507	 0.085993
H	-1.1966813732	-5.9654374948	 1.0835447618	 0.293818
H	-1.3079810361	-2.3415827749	 2.1131926888	 0.111519
47.103	80.1732	83.1769	204.4206	231.1266	267.4955	291.4073	312.3468	382.3879	446.3812	610.5566	619.9108	651.6288	666.1691	741.6815	748.7972	754.4252	762.3883	880.8621	896.8805	999.7807	1014.1727	1043.1249	1083.8927	1121.3296	1136.8574	1168.1118	1214.5819	1251.4627	1303.4571	1323.9144	1330.3208	1379.4015	1403.2858	1414.9763	1438.9387	1458.126	1481.06	1493.9516	1499.799	1511.1433	1542.4291	1641.8349	3029.7576	3031.3899	3041.4926	3063.0585	3083.0435	3101.305	3108.9369	3233.2822	3259.2211	3272.5573	3846.9731
CCCN1C=CC(O)=C1	CCCn1ccc(O)c1	
InChI=1S/C7H11NO/c1-2-4-8-5-3-7(9)6-8/h3,5-6,9H,2,4H2,1H3	InChI=1S/C7H11NO/c1-2-4-8-5-3-7(9)6-8/h3,5-6,9H,2,4H2,1H3
