17
gdb 76289	2.43322	1.631	1.10018	3.2901	73.05	-0.2382	-0.0049	0.2334	1089.8118	0.138353	-451.3424	-451.333867	-451.332923	-451.375459	32.503	
N	 0.1786636216	 1.3010339923	 0.5016638595	-0.527612
C	-0.0275023239	-0.0432969566	 0.010803728	-0.037149
C	-1.5051263008	-0.4311880544	-0.167260345	 0.058744
O	-2.2112468874	 0.7026014854	-0.6518991766	-0.435476
C	-1.4731912657	-1.4876995273	-1.2699186017	 0.360699
N	-2.4615992744	-2.2419577426	-1.5281086299	-0.54605
N	-0.2514557559	-1.35209592	-1.9174491118	-0.370312
C	 0.590954937	-0.397852093	-1.3477348163	 0.366235
N	 1.6740102726	 0.0966771944	-1.7802674525	-0.542048
H	 1.1432543961	 1.561010168	 0.3115618863	 0.245428
H	-0.4054409433	 1.932719412	-0.0384820786	 0.245248
H	 0.4105172556	-0.7549718051	 0.726074055	 0.11341
H	-1.9625492698	-0.8244261382	 0.7457311229	 0.100177
H	-3.0850785972	 0.3965328091	-0.9202122347	 0.299587
H	-2.2988192744	-2.8323161584	-2.3462044112	 0.21046
H	-0.0393774441	-1.825954881	-2.7836701779	 0.248077
H	 1.9397558739	-0.2697914246	-2.6954499853	 0.210581
74.3067	128.7655	246.6042	254.2247	273.2077	280.7349	359.9396	364.1054	467.8729	526.3878	536.5518	611.1788	642.4019	708.4036	764.2453	816.4083	865.7752	874.4471	925.2691	930.9329	992.9776	1066.0224	1092.1353	1115.4448	1181.9944	1204.8302	1235.1699	1283.5242	1325.0588	1337.2954	1375.2882	1387.7204	1394.8455	1435.3585	1656.7872	1754.5214	1781.2598	3002.9803	3064.8461	3451.1849	3462.3703	3493.5585	3571.0334	3604.6969	3807.1096
NC1C(O)C(=N)NC1=N	N[C@H]1[C@@H](O)[C]([NH])N[C]1[NH]	
InChI=1S/C4H8N4O/c5-1-2(9)4(7)8-3(1)6/h1-2,9H,5H2,(H3,6,7,8)	InChI=1S/C4H8N4O/c5-1-2(9)4(7)8-3(1)6/h1-2,9H,5H2,(H3,6,7,8)/t1-,2+/m0/s1
