18
gdb 126983	3.20755	1.08689	0.82435	3.2562	76.4	-0.2134	0.0034	0.2168	1394.5321	0.147438	-435.270628	-435.261306	-435.260362	-435.305856	32.515	
C	-0.0211332688	 1.4888761208	 0.0413978046	-0.391774
C	 0.0173752182	-0.0271179037	 0.0186175355	-0.043081
O	-1.3401809037	-0.491654804	 0.0196708785	-0.285734
C	-1.5069007227	-1.8246611475	 0.000839264	 0.340487
C	-2.723771675	-2.4799816118	-0.0012313146	 0.21546
C	-4.1275576795	-1.9846137217	 0.0148865337	-0.513156
N	-2.3388231717	-3.7849507866	-0.023274098	-0.221869
N	-1.0068020855	-3.9321735419	-0.0335743806	-0.139156
N	-0.4943491085	-2.7255904889	-0.0189470597	-0.283793
H	 0.9977909658	 1.887022283	 0.0413396191	 0.12117
H	-0.5445789602	 1.877998896	-0.8366446844	 0.126655
H	-0.5341719778	 1.851624087	 0.936705677	 0.126645
H	 0.5305235326	-0.4065562872	-0.8726440349	 0.118864
H	 0.5408846536	-0.432813455	 0.8921166391	 0.118838
H	-4.6876431357	-2.2976433707	-0.8739669105	 0.137245
H	-4.6793830264	-2.3322228699	 0.8959896653	 0.137096
H	-4.1173774986	-0.8928266069	 0.0360861855	 0.158561
H	-2.920508216	-4.6078288709	-0.0318861498	 0.277543
63.2098	70.281	81.1353	133.8457	237.4712	245.1913	262.3392	349.6971	349.7397	509.4729	561.9275	650.9091	699.6869	742.0989	782.4605	812.9197	926.2002	983.024	1021.9744	1064.9726	1073.0106	1113.0645	1130.6937	1183.2241	1209.2336	1271.2823	1292.5518	1340.3713	1370.5438	1394.6068	1419.581	1422.4797	1484.0955	1486.063	1489.3139	1498.3756	1520.8785	1538.2074	1656.3016	3026.619	3032.6232	3045.2973	3069.0338	3075.5444	3120.8358	3122.3891	3131.146	3651.6773
CCOC1=C(C)NN=N1	CCOc1c(C)[nH]nn1	
InChI=1S/C5H9N3O/c1-3-9-5-4(2)6-8-7-5/h3H2,1-2H3,(H,6,7,8)	InChI=1S/C5H9N3O/c1-3-9-5-4(2)6-8-7-5/h3H2,1-2H3,(H,6,7,8)
