16
gdb 125057	2.65842	1.56831	0.99383	1.5659	74.45	-0.2294	-0.0071	0.2223	1135.0232	0.126205	-430.271336	-430.262833	-430.261889	-430.304942	31.162	
C	-0.0439152132	 1.562208842	 0.1753501005	-0.518093
C	-0.0105457248	 0.0858807526	-0.0235262767	 0.249402
C	-0.0106944279	-0.7188985928	-1.1495455848	 0.270225
N	 0.0276011486	-2.0270844298	-0.7528195691	-0.283535
N	 0.0519560242	-2.0920730053	 0.5415718156	-0.120033
N	 0.028138172	-0.8164650741	 0.9856697393	-0.224703
C	-0.0379141167	-0.3571720122	-2.5788501464	 0.25955
N	-0.1644624049	-1.4462381878	-3.4074466031	-0.551005
N	 0.0229082441	 0.8795002912	-2.9209786348	-0.544966
H	 0.8495584031	 1.911625971	 0.7050957587	 0.135902
H	-0.0824541981	 2.0397754795	-0.8036494665	 0.196644
H	-0.9192288567	 1.8652111914	 0.7608516178	 0.134286
H	 0.0409578112	-0.6436722897	 1.9789073996	 0.280042
H	 0.0005065702	-2.3533003862	-2.9972520058	 0.271659
H	 0.0690358212	-1.3327580336	-4.3796960364	 0.24637
H	-0.0131630324	 0.9821187138	-3.936207348	 0.198255
66.3326	73.1677	197.6601	211.568	271.6889	310.3192	372.6385	424.2733	495.799	522.9604	599.2631	638.715	659.4662	704.4487	717.8573	795.6828	839.6548	999.7951	1028.1084	1071.6969	1076.9848	1096.2964	1138.3573	1197.6438	1261.9929	1310.8565	1376.7299	1400.3368	1414.3818	1478.899	1501.3632	1510.3309	1615.7157	1642.7843	1707.7096	3031.8877	3085.36	3157.633	3458.7721	3577.4574	3648.6033	3706.5433
CC1=C(N=NN1)C(N)=N	Cc1c(nn[nH]1)C(=N)N	
InChI=1S/C4H7N5/c1-2-3(4(5)6)8-9-7-2/h1H3,(H3,5,6)(H,7,8,9)	InChI=1S/C4H7N5/c1-2-3(4(5)6)8-9-7-2/h1H3,(H3,5,6)(H,7,8,9)
