16
gdb 131504	4.60826	1.19316	0.97871	3.3632	70.66	-0.2412	-0.0084	0.2328	1141.9867	0.126394	-437.8795	-437.872311	-437.871367	-437.911395	27.717	
O	 0.3900320347	 1.072083101	-0.6272239095	-0.423053
C	-0.0134721624	-0.0833866857	 0.0763942464	 0.131789
C	 0.5073518508	-0.1481870205	 1.5604201247	-0.398075
C	-0.6890039453	-0.7359155097	 2.224323898	 0.393157
C	-1.8195739932	-0.7363825542	 1.4777441312	 0.162238
C	-1.5750377916	-0.1252632449	 0.1301076546	-0.371419
C	-2.7787292515	-1.3000216154	 2.3552629565	-0.129378
N	-2.2503265403	-1.6111594064	 3.5206956521	-0.144458
O	-0.8914567042	-1.241248479	 3.4394175319	-0.229166
H	 1.3322195917	 1.0064844312	-0.8115980378	 0.288052
H	 0.3350802098	-0.9902249599	-0.4387194497	 0.085003
H	 1.4208779558	-0.7414667513	 1.6646500168	 0.121581
H	 0.7188163956	 0.865684053	 1.9226157151	 0.13434
H	-1.9597337438	 0.8992570026	 0.0596747864	 0.130303
H	-1.9874037212	-0.6863536124	-0.7129786449	 0.117056
H	-3.829701805	-1.5045509484	 2.2044617282	 0.13203
69.4141	229.9862	251.6183	288.1893	313.1666	447.8138	465.8335	513.1014	638.9523	665.3375	718.39	775.5006	821.379	866.2409	906.748	932.111	975.1329	999.0583	1023.447	1101.1744	1132.0863	1168.9171	1189.0179	1199.8826	1236.888	1263.8553	1283.6784	1349.7593	1367.0264	1421.4208	1426.6003	1482.26	1495.9162	1508.6515	1653.6839	2991.7676	3033.1619	3039.6604	3084.0108	3088.432	3239.7028	3821.502
OC1CC2=C(C1)C=NO2	O[C@H]1Cc2c(C1)cno2	
InChI=1S/C6H7NO2/c8-5-1-4-3-7-9-6(4)2-5/h3,5,8H,1-2H2	InChI=1S/C6H7NO2/c8-5-1-4-3-7-9-6(4)2-5/h3,5,8H,1-2H2/t5-/m1/s1
