16
gdb 18810	3.08815	3.0021	2.40072	0.1832	61.79	-0.24	0.0637	0.3037	669.0421	0.133652	-383.703923	-383.69852	-383.697575	-383.733087	22.869	
C	-0.0155258712	 1.5080258921	-0.006063777	-0.211361
C	 1.4567056944	 1.9989451995	 0.0297747493	-0.211362
C	 2.2534816948	 0.9423528641	 0.7905615426	 0.057245
O	 1.4892511903	 0.5668804975	 1.9846174387	-0.304781
C	 0.9135619651	-0.5074554716	 1.2378579863	 0.069781
C	 0.0294243366	-0.0174466855	 0.0247182465	 0.057245
O	 1.0611263651	-0.4624633518	-0.9178053328	-0.304781
C	 1.9940995492	-0.4841269544	 0.164948652	 0.069781
H	-0.566663447	 1.8723538399	 0.8662353123	 0.115164
H	-0.5315510258	 1.8604283621	-0.9033732156	 0.105357
H	 1.8576051496	 2.0954822362	-0.9838096536	 0.115164
H	 1.5405029721	 2.9724394897	 0.5206111422	 0.105357
H	 3.2780211375	 1.2251130262	 1.0419545787	 0.080191
H	 0.5719983226	-1.3471049313	 1.8436780912	 0.088404
H	-0.9254238177	-0.5139911647	-0.1611356235	 0.080191
H	 2.8321645845	-1.1675357979	 0.0260444027	 0.088404
252.2892	368.1118	410.4802	465.3599	595.7707	692.2464	746.4031	772.9607	800.4863	822.7984	837.4071	884.4586	897.0574	961.4291	981.2646	993.8989	1037.982	1055.5191	1071.8768	1087.4708	1134.8866	1149.3716	1193.4727	1237.1963	1246.3423	1270.3694	1303.5477	1307.2619	1324.9221	1359.6999	1359.7047	1369.2204	1468.0355	1484.036	3053.2243	3060.2809	3086.9753	3088.1373	3096.1762	3107.1552	3110.617	3120.7341
C1CC2OC3C1OC23	C1C[C@H]2O[C@H]3[C@@H]1O[C@@H]23	
InChI=1S/C6H8O2/c1-2-4-6-5(8-4)3(1)7-6/h3-6H,1-2H2	InChI=1S/C6H8O2/c1-2-4-6-5(8-4)3(1)7-6/h3-6H,1-2H2/t3-,4-,5+,6+/m1/s1
