24
gdb 57380	2.6894	1.2669	1.26682	1.975	88.14	-0.222	0.0626	0.2847	1198.8024	0.216875	-368.345105	-368.335646	-368.334701	-368.378905	37.367	
C	-0.0355144957	 1.5332251599	-0.0038009043	-0.41195
C	 0.0046933927	-0.0060694223	 0.0074814036	 0.106109
C	 0.7632920402	-0.4953178785	 1.2551424121	-0.411874
C	-1.4314935033	-0.5615352037	 0.0245376313	-0.411881
C	 0.7216758958	-0.5010898304	-1.2439196182	 0.365482
C	 0.364992572	-0.2834453421	-2.7394998997	-0.226422
N	 1.6401377355	-1.1352940517	-2.8455584066	-0.147056
C	 2.1731558793	-0.2289871695	-1.7242494229	-0.226126
C	 1.0225170325	-1.9542096767	-1.7007984036	-0.226148
H	 0.9737858493	 1.9580724421	-0.0191918796	 0.11245
H	-0.5732477438	 1.9115790656	-0.8796278353	 0.11245
H	-0.5434862311	 1.9134937574	 0.8889475077	 0.110225
H	 0.2664163067	-0.1525176523	 2.1690225481	 0.110194
H	 0.8083553892	-1.5889719932	 1.2907585064	 0.112463
H	 1.7904443996	-0.1158075577	 1.2717201539	 0.112431
H	-1.9967203085	-0.2307989586	-0.8532177114	 0.112415
H	-1.4354323539	-1.656660526	 0.0344050992	 0.112445
H	-1.9688543952	-0.2186001193	 0.9152227033	 0.110213
H	-0.5231019636	-0.7816427841	-3.1390798426	 0.097461
H	 0.4784912556	 0.7200872707	-3.1597847274	 0.097464
H	 2.4265178415	 0.7789648005	-2.0653868761	 0.097399
H	 2.9979920653	-0.6758570729	-1.1616916348	 0.097443
H	 1.758797917	-2.5339204629	-1.1365171974	 0.097442
H	 0.185419553	-2.5817337543	-2.0199953258	 0.097373
51.1759	181.1539	182.8103	211.9495	262.6043	269.5606	310.9082	331.7955	332.6136	442.1719	442.7233	567.0072	594.6249	597.2157	799.8532	801.0069	805.1561	888.8193	932.3518	938.237	938.4002	959.9791	975.0914	978.205	980.1527	1028.2174	1048.3876	1049.3777	1149.81	1151.1412	1169.5956	1171.3481	1185.1933	1200.5873	1203.4593	1248.854	1250.0594	1289.4802	1348.462	1397.1272	1398.5418	1431.0441	1480.9398	1485.4522	1486.1794	1504.5567	1505.003	1511.5045	1513.1135	1519.9673	1564.925	3025.1937	3025.5375	3032.3946	3040.8327	3041.4423	3052.4273	3093.2418	3093.7145	3095.3194	3099.9747	3100.0453	3100.3409	3105.2297	3111.6541	3111.8337
CC(C)(C)C12CN(C1)C2	CC(C)(C)[C@@]12CN(C1)C2	
InChI=1S/C8H15N/c1-7(2,3)8-4-9(5-8)6-8/h4-6H2,1-3H3	InChI=1S/C8H15N/c1-7(2,3)8-4-9(5-8)6-8/h4-6H2,1-3H3
