23
gdb 101084	2.52382	0.99881	0.9662	2.8145	86.28	-0.2455	-0.0208	0.2247	1423.2104	0.203357	-388.300807	-388.290304	-388.289359	-388.336392	38.599	
C	-0.1931176651	 1.7044103038	 0.1952753693	-0.390485
C	-0.1081316309	 0.1745944236	 0.2057824713	-0.177994
C	-1.4303314792	-0.5406480372	-0.1443276123	-0.069761
C	-1.9020547016	-0.2624476897	-1.5816646936	-0.406535
C	-1.3458554502	-2.0404632717	 0.1362009962	 0.272928
C	-1.5783754599	-2.5405287084	 1.5602232531	-0.297392
C	-2.6186995487	-2.7908124665	 0.5251087631	-0.30067
C	-0.3729471789	-2.8509865472	-0.6488718125	 0.093167
O	-0.2070437025	-4.0420137645	-0.5137467489	-0.279233
H	 0.7513471232	 2.1486147507	 0.5241551407	 0.115436
H	-0.4091474587	 2.0977806865	-0.8026086571	 0.120061
H	-0.9799302459	 2.0603567059	 0.8702830954	 0.113562
H	 0.6800743827	-0.148406827	-0.4870927349	 0.097243
H	 0.2088360145	-0.1593339146	 1.2013027954	 0.100367
H	-2.1988556601	-0.1441060549	 0.5343781517	 0.069941
H	-2.8334430565	-0.7962264466	-1.794582346	 0.118943
H	-2.0851807901	 0.8033357165	-1.7433683379	 0.119291
H	-1.1585588064	-0.5829700438	-2.3200257601	 0.117195
H	-0.9719030221	-3.3812277297	 1.8767896371	 0.138325
H	-1.7633545975	-1.783578752	 2.3148825145	 0.116809
H	-3.5336129732	-2.2086286794	 0.5517117576	 0.117205
H	-2.7143592485	-3.8002348838	 0.1423057762	 0.13803
H	 0.2210422855	-2.2865874297	-1.4001088183	 0.073568
69.2921	76.706	119.3285	169.9123	203.9008	213.5335	246.3159	281.5225	288.7668	312.148	358.8182	456.2274	477.2883	637.0388	734.733	779.8788	797.6584	825.9603	841.4619	920.9272	952.6584	970.1431	987.0491	1006.974	1034.7163	1058.6195	1062.8964	1086.8021	1098.2371	1151.9406	1184.7115	1204.9566	1261.4445	1295.8667	1301.2521	1348.2218	1370.7548	1392.4723	1408.9596	1415.3517	1443.7023	1451.2477	1481.6572	1483.1515	1496.292	1501.7631	1505.7231	1511.2895	1799.7358	2890.9262	2996.5605	3020.938	3032.9845	3036.532	3055.3289	3099.0616	3100.5877	3107.2245	3114.9573	3133.5309	3135.6066	3222.7099	3236.4958
CCC(C)C1(CC1)C=O	CC[C@@H](C)C1(CC1)C=O	
InChI=1S/C8H14O/c1-3-7(2)8(6-9)4-5-8/h6-7H,3-5H2,1-2H3	InChI=1S/C8H14O/c1-3-7(2)8(6-9)4-5-8/h6-7H,3-5H2,1-2H3/t7-/m1/s1
