21
gdb 91183	2.05749	1.75551	1.54265	1.8387	82.11	-0.2368	0.0131	0.2499	1046.0937	0.182826	-387.095165	-387.08675	-387.085805	-387.127722	33.326	
C	 0.3603209037	 1.4717627735	-0.2688320428	-0.409042
C	 0.0525923562	 0.0389855409	 0.1237816055	 0.12126
O	 0.5441448713	-0.9146992071	-0.8517112271	-0.320792
C	 1.3630906948	-1.5816916894	 0.1433257228	 0.067546
C	 2.8308709076	-1.275998412	 0.0392977273	-0.08999
C	 3.2103917591	-0.3855146084	 0.9566179637	-0.060635
C	 2.0793309647	 0.0668458445	 1.8511439947	-0.339428
C	 0.8390749881	-0.6619427549	 1.2810388483	 0.258866
C	-0.0445364617	-1.2954696487	 2.3455077643	-0.485113
H	 1.4345382852	 1.6307508424	-0.3934447629	 0.12535
H	-0.1261895564	 1.699335455	-1.2227407061	 0.125213
H	-0.0214461469	 2.1746342985	 0.4801967744	 0.110425
H	-1.0338377076	-0.0794215542	 0.2457286404	 0.066988
H	 1.1286631841	-2.6527796044	 0.1832727144	 0.069482
H	 3.4752683974	-1.7302574815	-0.7048921595	 0.098225
H	 4.2215869527	-0.0088002564	 1.0755553183	 0.096762
H	 2.2600386256	-0.2159442339	 2.8971884526	 0.102853
H	 1.9691977465	 1.1581839578	 1.851725867	 0.108503
H	-0.4912172557	-0.5318609364	 2.9934904234	 0.115922
H	-0.8610547642	-1.869258544	 1.8948565298	 0.121173
H	 0.5324367454	-1.9746878114	 2.9830667914	 0.116434
83.7618	203.4991	231.8032	234.2245	252.9272	303.0997	324.9763	412.7168	482.3746	497.0167	584.0767	659.06	732.7053	790.4102	806.3714	883.2042	892.0529	929.5763	959.7886	972.1182	977.8435	987.6089	1024.8882	1031.7209	1091.4915	1111.2581	1126.6792	1140.0005	1180.021	1221.1843	1252.4902	1260.0467	1296.7552	1322.8173	1352.363	1370.1217	1395.4017	1408.759	1413.0808	1477.1395	1485.9904	1493.0324	1497.0846	1500.42	1678.0803	2991.2358	3012.972	3020.9609	3027.0167	3033.9899	3046.1676	3085.5866	3096.704	3101.8309	3120.7485	3175.9813	3205.9511
CC1OC2C=CCC12C	C[C@H]1O[C@H]2C=CC[C@@]12C	
InChI=1S/C8H12O/c1-6-8(2)5-3-4-7(8)9-6/h3-4,6-7H,5H2,1-2H3	InChI=1S/C8H12O/c1-6-8(2)5-3-4-7(8)9-6/h3-4,6-7H,5H2,1-2H3/t6-,7+,8+/m1/s1
