19
gdb 39435	2.46097	1.94925	1.33856	1.5608	74.36	-0.2266	0.0715	0.2981	989.9542	0.161429	-422.988238	-422.981072	-422.980128	-423.019625	29.074	
C	-0.0658063342	 1.4753359754	-0.0554435452	-0.390596
C	 1.2786651611	 0.7478275112	 0.0326918804	-0.119845
C	 2.0581545094	 0.6145142945	 1.3299820484	-0.107592
O	 2.0112686514	-0.7214799355	 1.8272788987	-0.237654
C	 0.7126539807	-1.0724005477	 2.2641029214	-0.107765
C	-0.3406402851	-0.9784212297	 1.1544675635	-0.141021
C	-0.3653465704	-1.9962996288	-0.0109576084	-0.103288
O	-0.3720491858	-0.9241972997	-0.9913859249	-0.313382
C	-0.0189271221	-0.0020266854	 0.0321449478	 0.477093
H	-0.4223059893	 2.0407882321	 0.8019029939	 0.111699
H	-0.3142437653	 1.9106225822	-1.0175588398	 0.127867
H	 1.8529588453	 0.7099076703	-0.8870076549	 0.101642
H	 3.1170504171	 0.8385474688	 1.1812997528	 0.114493
H	 1.6718577126	 1.3057074358	 2.0977812645	 0.087618
H	 0.7805163635	-2.0937939894	 2.6526173341	 0.110688
H	 0.4139649277	-0.4171085435	 3.1008606296	 0.087257
H	-1.3367269852	-0.8354325279	 1.5835402258	 0.085557
H	 0.5466144033	-2.6020365043	-0.0871236962	 0.110229
H	-1.2486748046	-2.6343807982	-0.1023966912	 0.106998
131.8446	181.2667	246.766	361.3245	387.9194	398.308	471.6259	503.8454	572.3079	702.7423	747.5551	816.4705	863.611	876.9591	890.4399	923.0433	934.5165	991.4511	1006.3222	1019.2477	1053.0462	1068.1726	1097.8886	1122.7837	1141.7716	1158.7568	1165.732	1211.5167	1232.7162	1275.	1312.9318	1327.5292	1338.9842	1365.808	1385.2847	1406.0774	1427.1449	1479.2908	1488.3032	1497.2945	1520.4861	2953.4627	2964.0095	3022.4049	3062.2298	3072.4068	3092.6084	3096.888	3115.1752	3167.0726	3208.9506
C1C2COCC3COC123	C1[C@H]2COC[C@@H]3CO[C@]123	
InChI=1S/C7H10O2/c1-5-2-8-3-6-4-9-7(1,5)6/h5-6H,1-4H2	InChI=1S/C7H10O2/c1-5-2-8-3-6-4-9-7(1,5)6/h5-6H,1-4H2/t5-,6+,7+/m0/s1
