15
gdb 14543	4.68848	1.58056	1.45348	3.8753	66.05	-0.2753	0.0133	0.2886	879.1	0.119146	-362.639324	-362.632162	-362.631218	-362.670426	27.28	
O	-0.124177316	 1.3624834514	-0.0209548479	-0.452257
C	-0.0677778092	-0.0310780364	 0.0389099067	 0.2705
C	 1.0263857056	-0.6123432892	-0.7155763462	 0.236062
N	 1.9211295971	-1.0505147127	-1.3031561468	-0.339752
C	-0.4695386522	-0.8180473493	 1.2737581394	-0.121534
C	-1.5432865646	-0.0406600392	 2.0442204818	-0.241492
C	-2.4415110896	-0.0397653018	 0.7657956292	-0.23951
C	-1.3516137065	-0.8155153134	 0.0155715563	-0.093503
H	 0.6365900209	 1.7195509369	 0.4520381224	 0.296695
H	 0.1761244598	-1.5937040648	 1.6675625263	 0.111255
H	-1.9734411956	-0.629440565	 2.8560249512	 0.115279
H	-1.2408395291	 0.9347668384	 2.432561875	 0.10563
H	-3.3470064101	-0.634598622	 0.8963863827	 0.113993
H	-2.703949067	 0.9332448862	 0.3474648723	 0.124396
H	-1.5083188635	-1.590165259	-0.7247570625	 0.114238
147.0637	159.0509	235.2202	265.4308	318.7782	418.7393	464.8227	552.0499	580.776	677.0921	745.9545	781.4428	850.9368	877.2607	940.4647	979.6766	996.9099	1017.2382	1026.2765	1095.0982	1099.3792	1169.47	1225.4925	1243.7517	1255.2707	1265.1442	1287.0587	1314.2838	1406.9359	1472.2504	1495.203	2349.0661	3069.7412	3081.0895	3119.8481	3139.001	3184.9183	3196.2046	3794.8151
OC1(C#N)C2CCC12	O[C@@]1(C#N)[C@H]2CC[C@@H]12	
InChI=1S/C6H7NO/c7-3-6(8)4-1-2-5(4)6/h4-5,8H,1-2H2	InChI=1S/C6H7NO/c7-3-6(8)4-1-2-5(4)6/h4-5,8H,1-2H2/t4-,5+,6-
