17
gdb 97904	5.39529	0.54959	0.52197	2.887	80.8	-0.2509	0.0234	0.2744	2044.0682	0.132082	-421.745184	-421.734475	-421.733531	-421.782942	36.83	
O	 0.2587492999	 0.9765706778	-0.8043147521	-0.402447
C	 0.0046583613	 0.1509809002	 0.3248293341	-0.194024
C	-1.3400745996	-0.4225650688	 0.3407063747	 0.112779
C	-2.4646133937	-0.8544027434	 0.3447117898	 0.012927
C	-3.8131345541	-1.4024361565	 0.3305700388	-0.372797
C	-3.8489183115	-2.901832407	-0.0776268328	-0.045307
O	-3.070531879	-3.7097652429	 0.7892446018	-0.405238
C	-5.2361110142	-3.3683664153	-0.1646714839	 0.295173
C	-6.3803060489	-3.7366709526	-0.1843275014	-0.440518
H	-0.4582872233	 1.6168275022	-0.85817864	 0.286185
H	 0.7526305988	-0.648554504	 0.2825010996	 0.142911
H	 0.1786485536	 0.6967763299	 1.2662849275	 0.116032
H	-4.2823534986	-1.3022951873	 1.318009334	 0.129172
H	-4.4446094898	-0.8388603118	-0.3671677365	 0.142085
H	-3.3692624172	-2.9964405994	-1.0580180101	 0.133213
H	-3.5472221745	-3.7907923526	 1.6231570504	 0.286537
H	-7.3859807594	-4.0767642884	-0.2228343537	 0.203316
20.117	46.3677	76.2982	136.6907	161.4008	210.4247	246.4802	305.064	314.112	343.5917	377.5051	458.6521	536.5523	567.0799	570.2961	645.5755	675.9857	787.3735	853.4757	944.5002	988.0619	1026.9729	1045.9046	1080.8463	1159.5407	1193.9936	1215.1569	1272.964	1311.6617	1356.1345	1358.3345	1417.7785	1422.5309	1461.1418	1492.4869	2232.6321	2364.0266	2973.68	3021.9595	3052.539	3063.1002	3066.9052	3501.9739	3802.3951	3817.1836
OCC#CCC(O)C#C	OCC#CC[C@@H](O)C#C	
InChI=1S/C7H8O2/c1-2-7(9)5-3-4-6-8/h1,7-9H,5-6H2	InChI=1S/C7H8O2/c1-2-7(9)5-3-4-6-8/h1,7-9H,5-6H2/t7-/m0/s1
