19
gdb 7652	4.56881	1.24791	1.06511	4.0404	73.8	-0.2313	0.0364	0.2677	1154.9133	0.164308	-365.089373	-365.080203	-365.079259	-365.124571	31.64	
C	 0.2715436846	 1.5155158579	 0.107015956	-0.402551
C	-0.0909252398	 0.0460804286	-0.0408346589	 0.013517
C	 0.8426005695	-0.8188886261	-0.9460615138	-0.180436
N	 1.1080661006	-1.6697496006	 0.2101211871	-0.054959
C	 0.2953645061	-0.8926856513	 1.1456017545	-0.19464
C	 1.9749831029	-2.7095275785	 0.3216286815	 0.363114
C	 2.0695591725	-3.3208495943	 1.7116039436	-0.488869
O	 2.6164878575	-3.1091888946	-0.6357857317	-0.370559
H	 1.325042715	 1.6353539703	 0.3836151066	 0.122185
H	 0.1095059303	 2.0568068743	-0.8311397192	 0.123766
H	-0.3357651787	 1.9983307192	 0.8801676057	 0.1199
H	-1.1426890974	-0.0604961538	-0.3164187448	 0.085786
H	 0.3635851844	-1.3399148969	-1.7811879427	 0.11823
H	 1.7332022482	-0.3016805977	-1.3221383084	 0.115806
H	 0.8705083354	-0.4032089611	 1.9428419013	 0.107007
H	-0.5305409441	-1.4503931027	 1.602823791	 0.110212
H	 1.0873062452	-3.6433635721	 2.0723114692	 0.132327
H	 2.7401296249	-4.1784921803	 1.6678846067	 0.146445
H	 2.4610498529	-2.5947331104	 2.4325630463	 0.13372
32.7336	70.455	83.1974	134.9639	169.5427	247.5581	329.2495	356.0695	419.2656	550.3048	592.5349	634.7226	771.0959	892.6744	896.7462	914.5776	928.0525	966.0953	1048.8819	1068.4637	1123.6152	1128.9458	1144.9292	1155.8462	1209.5706	1213.791	1277.5947	1296.4301	1324.7978	1371.8293	1379.7747	1414.0444	1451.6741	1473.6683	1481.8986	1495.8389	1497.38	1509.5366	1528.9248	1766.3898	3005.8609	3027.6451	3032.592	3039.84	3047.8368	3070.2796	3081.5214	3099.0622	3100.345	3103.1171	3160.9412
CC1CN(C1)C(C)=O	CC1CN(C1)C(=O)C	
InChI=1S/C6H11NO/c1-5-3-7(4-5)6(2)8/h5H,3-4H2,1-2H3	InChI=1S/C6H11NO/c1-5-3-7(4-5)6(2)8/h5H,3-4H2,1-2H3
