17
gdb 57072	3.15089	1.18599	1.03354	1.1757	70.05	-0.2599	0.0248	0.2846	1177.0532	0.134587	-458.896578	-458.887824	-458.886879	-458.930198	32.823	
O	 0.2249505476	 1.5320343237	 0.131813228	-0.431321
C	 0.0789672982	 0.1116862083	 0.0389626169	-0.106665
C	 0.6510318041	-0.4138624396	-1.2010085625	 0.303898
C	 1.1421047506	-0.849642548	-2.2071910994	-0.412894
C	 0.7066863848	-0.5422820495	 1.2797157033	 0.070597
O	 2.0166502282	 0.0132422392	 1.5380989337	-0.304436
C	 1.6143261609	 0.5064273717	 2.8417218628	-0.115229
C	 0.1735157164	-0.0246025632	 2.650637044	 0.08009
O	-0.8788801021	 0.8941457728	 2.639553865	-0.431055
H	 1.1761337414	 1.6762122823	 0.2416817464	 0.299025
H	-1.0002511115	-0.0782213651	 0.0614111229	 0.137228
H	 1.5681140058	-1.2308395546	-3.1025246774	 0.203149
H	 0.7412345498	-1.631171344	 1.1615881045	 0.092852
H	 2.2004113718	 0.0457130456	 3.6447843114	 0.112244
H	 1.6880141991	 1.5980776045	 2.9139265529	 0.105498
H	-0.1087614961	-0.8180924166	 3.3454171263	 0.101563
H	-0.6869646991	 1.5351257927	 1.9373082411	 0.295455
76.4569	106.4279	135.9856	229.4985	232.3966	284.2804	377.4935	422.582	497.5812	525.4073	574.603	631.0793	659.3724	678.9083	703.9703	801.7003	831.0855	889.977	936.7725	978.8578	1010.3897	1033.4531	1051.923	1092.2936	1153.0092	1173.7762	1229.1525	1241.0755	1267.194	1302.6318	1336.9982	1353.4013	1362.9362	1425.125	1473.0151	1514.4933	2237.7585	3023.2836	3046.595	3057.7584	3073.8105	3098.8845	3502.2981	3695.1298	3746.0867
OC(C#C)C1OCC1O	O[C@@H](C#C)[C@H]1OC[C@H]1O	
InChI=1S/C6H8O3/c1-2-4(7)6-5(8)3-9-6/h1,4-8H,3H2	InChI=1S/C6H8O3/c1-2-4(7)6-5(8)3-9-6/h1,4-8H,3H2/t4-,5+,6+/m0/s1
