16
gdb 67206	2.93969	1.48332	1.21416	5.3351	72.8	-0.2568	0.0332	0.29	1029.6712	0.125125	-400.701598	-400.694258	-400.693314	-400.733322	28.861	
O	-0.0671859119	 1.4745845626	-0.1577724781	-0.444887
C	 0.0514831399	 0.1205289136	-0.059805199	 0.386929
C	 0.0370933693	-1.0156825377	-1.0542878369	-0.166138
C	 1.2734890524	-1.6598390416	-0.4344011362	-0.243196
C	 0.9368848053	-0.8606377458	 0.8520675848	-0.138391
C	-0.4017689717	-1.5190469505	 1.3337492412	-0.15878
C	-0.9219176649	-0.9563251039	 2.5713734421	 0.270694
N	-1.3313941108	-0.5215437363	 3.5613529952	-0.328515
C	-1.0290578058	-0.9035959452	 0.0761095761	-0.105723
H	 0.6819607779	 1.8209324926	-0.6562573601	 0.295626
H	-0.2835516337	-1.0041294148	-2.0880067279	 0.100532
H	 1.311548185	-2.750819675	-0.3426874415	 0.100587
H	 2.1934215914	-1.3020241067	-0.9046046875	 0.105486
H	 1.6966500896	-0.5843660396	 1.5782975877	 0.098441
H	-0.3885661527	-2.61189794	 1.4125209844	 0.114274
H	-2.0801171793	-0.8014565516	-0.1560502245	 0.113059
106.2475	159.7331	262.1033	320.4929	352.8992	398.669	479.2217	491.8164	540.8376	621.546	724.2903	782.2864	830.893	861.2342	893.0674	925.8921	959.8022	980.6652	997.7428	1023.1023	1035.8205	1064.5788	1101.6733	1120.8544	1133.4629	1191.5965	1216.4398	1222.074	1273.6738	1280.4821	1307.9684	1348.0879	1492.1867	1507.7034	2355.7618	3040.4	3049.2859	3100.2861	3158.2735	3202.9832	3220.2097	3787.2885
OC12C3CC1C(C#N)C23	O[C@@]12[C@H]3C[C@@H]1[C@@H](C#N)[C@@H]23	
InChI=1S/C7H7NO/c8-2-3-4-1-5-6(3)7(4,5)9/h3-6,9H,1H2	InChI=1S/C7H7NO/c8-2-3-4-1-5-6(3)7(4,5)9/h3-6,9H,1H2/t3-,4-,5+,6-,7-/m1/s1
