17
gdb 6828	2.84403	1.79117	1.44595	1.7602	65.16	-0.2371	-0.029	0.2081	923.3961	0.140191	-400.982214	-400.973743	-400.972799	-401.015287	30.961	
C	-0.1918718375	 1.5087514124	 0.1045147504	-0.459158
C	 0.0079696896	 0.0025832006	 0.022400458	 0.386511
O	-1.2037986966	-0.6851483831	-0.1362640362	-0.459995
C	 1.0703142221	-0.4564867293	-1.0044247002	-0.195851
N	 2.0665293807	-0.5578587351	 0.0894462015	-0.331157
C	 1.0019339997	-0.5946569886	 1.1076473212	-0.109859
C	 1.2566158647	 0.2189481335	 2.3500362951	 0.136016
O	 0.4790047344	 0.2904865662	 3.270300403	-0.260553
H	 0.7705657449	 2.0263333607	 0.1593448056	 0.135396
H	-0.7283085943	 1.8590654177	-0.7825241545	 0.12613
H	-0.7706203231	 1.7807911034	 0.9947683086	 0.129262
H	-1.8419913187	-0.3260726132	 0.4905203752	 0.286142
H	 0.7723864375	-1.4156520334	-1.4452628437	 0.108898
H	 1.3377832479	 0.2454923005	-1.8013369972	 0.104321
H	 2.6654065825	-1.3748180982	 0.0536010238	 0.22595
H	 0.6362875979	-1.5912822674	 1.3885363553	 0.096547
H	 2.2118215785	 0.7920190432	 2.334791644	 0.0814
58.5495	104.4868	198.7312	226.8414	282.0409	308.5036	337.7488	392.8134	441.815	475.3904	516.1946	637.3676	700.2254	863.8795	907.5081	936.7947	977.8044	993.9038	1027.9558	1036.2299	1108.2213	1126.6892	1138.1184	1167.6357	1189.9675	1267.0286	1305.6726	1337.8431	1363.6581	1399.8525	1403.1451	1407.8337	1492.0326	1495.0561	1516.9012	1814.2763	2876.468	3018.7648	3024.0382	3030.8348	3074.6615	3101.3748	3116.8289	3535.1111	3800.0682
CC1(O)CNC1C=O	C[C@@]1(O)CN[C@H]1C=O	
InChI=1S/C5H9NO2/c1-5(8)3-6-4(5)2-7/h2,4,6,8H,3H2,1H3	InChI=1S/C5H9NO2/c1-5(8)3-6-4(5)2-7/h2,4,6,8H,3H2,1H3/t4-,5+/m0/s1
