15
gdb 17480	3.64118	2.56837	1.99363	2.3126	64.42	-0.2286	-0.0051	0.2236	703.2692	0.120109	-362.607153	-362.601178	-362.600234	-362.636669	24.997	
O	 0.1001171643	 1.4120846032	-0.1069444726	-0.48994
C	 0.025423958	 0.0268359091	 0.0154849687	 0.359996
C	 0.3033427752	-0.7709233971	-1.297612948	-0.166402
N	-0.8404149493	-1.6934458134	-1.047259733	-0.1587
C	-0.8748904718	-2.0699213572	 0.4524131948	-0.064693
C	 0.3371843532	-1.8854942981	 1.2867458857	-0.075386
C	 0.83065757	-0.6553580846	 1.0947279336	-0.198249
C	-1.3430485531	-0.7475443445	-0.0107490759	-0.125316
H	-0.0155715281	 1.7995721995	 0.7673848545	 0.281864
H	 0.0424314531	-0.1636599119	-2.1675986218	 0.126022
H	 1.2873454665	-1.2321787247	-1.4269360798	 0.100259
H	-1.5612010625	-2.8919170203	 0.6135759271	 0.100097
H	 0.7739374352	-2.6731496448	 1.8871676048	 0.107221
H	 1.7706645603	-0.2585449286	 1.4602838235	 0.106726
H	-2.3533774411	-0.3494246467	 0.0067817984	 0.096499
280.1879	306.8123	341.612	403.4587	433.8843	555.5138	604.0958	674.8731	716.1709	742.8953	791.045	806.0975	844.5544	911.5628	928.0757	974.5506	985.4024	1000.1573	1027.5249	1072.3195	1088.1876	1128.0875	1161.1327	1192.7345	1243.8501	1265.0983	1283.2804	1345.5925	1363.2748	1380.5229	1490.3794	1635.3495	3049.317	3119.8695	3153.4395	3192.8184	3198.1783	3224.6563	3805.3283
OC12CN3C(C=C1)C23	O[C@@]12CN3[C@@H](C=C1)[C@@H]23	
InChI=1S/C6H7NO/c8-6-2-1-4-5(6)7(4)3-6/h1-2,4-5,8H,3H2	InChI=1S/C6H7NO/c8-6-2-1-4-5(6)7(4)3-6/h1-2,4-5,8H,3H2/t4-,5-,6+,7?/m0/s1
