18
gdb 98565	4.22801	0.97932	0.81105	2.7474	74.96	-0.2562	-0.0587	0.1976	1421.0124	0.146902	-439.121629	-439.112375	-439.111431	-439.15734	31.822	
C	-0.0086243598	 1.5337762874	-0.0310229606	-0.382788
C	 0.0718348333	 0.0117212944	 0.0437635188	-0.277935
C	 0.9104446905	-0.4771091491	 1.2071868422	 0.30311
O	 1.4601354589	 0.2534012131	 1.9964702785	-0.291256
C	 1.0367329907	-1.9759089513	 1.3462292482	 0.342577
N	 0.4927053729	-2.8189626276	 0.5624027585	-0.305041
C	 0.8732021649	-4.1492056359	 1.0623061652	-0.193142
C	 1.7556842022	-3.8605597418	 2.3055605364	-0.112783
O	 1.7842021211	-2.416022714	 2.3827225689	-0.239329
H	 0.9855272372	 1.9749019474	-0.1407412633	 0.130901
H	-0.6202331206	 1.8426883375	-0.8829383962	 0.111924
H	-0.448490716	 1.9492952604	 0.8793834611	 0.130865
H	-0.9205658555	-0.44755296	 0.1320423004	 0.138571
H	 0.4887785637	-0.4224931327	-0.8733968645	 0.138568
H	-0.0270976583	-4.7237204037	 1.3036476545	 0.126461
H	 1.4070011528	-4.6983616387	 0.2797980551	 0.126461
H	 1.3366885348	-4.243229055	 3.2398751639	 0.126426
H	 2.7844218674	-4.2165615604	 2.2059639528	 0.126411
38.4753	53.7982	97.5869	150.8796	159.1992	201.3499	283.8315	353.6421	486.9902	488.6493	664.0201	712.2038	757.1986	812.6166	827.268	907.2795	948.5094	980.0987	1003.669	1010.738	1045.5958	1086.4992	1114.4767	1116.6701	1212.6604	1246.3643	1264.0093	1266.7954	1339.4852	1371.5311	1407.1834	1414.8861	1440.8241	1492.2032	1496.0353	1498.1674	1525.7317	1701.0868	1805.6552	3042.0868	3045.384	3051.2293	3061.3176	3066.1398	3074.2244	3109.8469	3123.4009	3124.8809
CCC(=O)C1=NCCO1	CCC(=O)C1=NCCO1	
InChI=1S/C6H9NO2/c1-2-5(8)6-7-3-4-9-6/h2-4H2,1H3	InChI=1S/C6H9NO2/c1-2-5(8)6-7-3-4-9-6/h2-4H2,1H3
