19
gdb 102232	2.19469	1.11897	0.77067	4.286	78.82	-0.2464	-0.0351	0.2113	1464.6629	0.155593	-423.011799	-423.001457	-423.000513	-423.047856	36.957	
C	 0.2706398243	 1.3149961865	 0.0881198924	-0.477035
C	-0.1185466822	-0.1482511031	 0.1441140655	 0.383904
O	-0.4060420976	-0.6742843365	 1.2006281299	-0.303123
C	-0.1303303147	-0.8731309501	-1.1919316266	-0.305895
C	-0.0686013305	-2.4221552475	-1.184095257	-0.224268
C	-1.3221686238	-3.1262872784	-0.5779513497	-0.060931
O	-1.2706334942	-3.2676397852	 0.814546074	-0.424161
C	 0.1440772916	-2.8746074504	-2.5571638486	 0.313384
C	 0.2802850107	-3.2360753363	-3.6958467092	-0.443669
H	 1.3415200164	 1.3970051986	-0.1330611202	 0.15309
H	-0.2596047178	 1.8318820684	-0.7184612759	 0.143847
H	 0.063419056	 1.7938107877	 1.0454338922	 0.15034
H	-1.0446602284	-0.5514302883	-1.7124829909	 0.145828
H	 0.6909484692	-0.4777973748	-1.8002636056	 0.132076
H	 0.782893601	-2.7405272818	-0.568615661	 0.122295
H	-2.2232979447	-2.5860106144	-0.9185197942	 0.080226
H	-1.3785778885	-4.1357778232	-0.9947474763	 0.116698
H	-1.0666341468	-2.3934458912	 1.1835837183	 0.301276
H	 0.4155550498	-3.5717653698	-4.6941557171	 0.196118
51.9063	74.8053	115.1576	134.4315	145.9628	214.4534	230.9488	297.0363	374.7165	409.6796	471.0763	515.6068	535.7358	599.4671	634.333	636.3423	644.4483	798.8728	839.1076	890.7739	952.8051	973.5133	1027.7052	1077.4515	1106.48	1111.6125	1186.0439	1203.35	1270.188	1277.6112	1326.5651	1368.8297	1386.1021	1402.8534	1442.7874	1461.8932	1475.5961	1482.4055	1511.3522	1792.9571	2232.907	2945.6452	3014.9144	3031.7719	3038.8306	3068.3878	3084.3389	3100.396	3157.1757	3504.5728	3665.6133
CC(=O)CC(CO)C#C	CC(=O)C[C@@H](CO)C#C	
InChI=1S/C7H10O2/c1-3-7(5-8)4-6(2)9/h1,7-8H,4-5H2,2H3	InChI=1S/C7H10O2/c1-3-7(5-8)4-6(2)9/h1,7-8H,4-5H2,2H3/t7-/m0/s1
