18
gdb 79720	2.46352	1.80943	1.44327	4.008	75.04	-0.2194	-0.0103	0.2091	975.5501	0.147763	-401.89561	-401.887923	-401.886979	-401.927597	30.175	
C	-0.3058983965	 1.6035062275	 0.0699655033	-0.415011
C	 0.0373675898	 0.1243855846	-0.0218244235	-0.098986
C	 0.7141907581	-0.5212263823	-1.2720074665	-0.064935
C	 1.8950458639	 0.207698502	-1.959972168	-0.051768
N	 2.6578270507	 0.9295061472	-0.9124197503	-0.33252
C	 2.8897609465	-0.5185506289	-1.122851484	-0.046559
C	 1.7638888204	-1.2552887136	-0.3620918357	-0.174369
C	 1.1746461221	-0.4705817011	 0.8449564686	 0.408527
O	 1.4563055431	-0.3927466878	 2.0032467467	-0.308551
H	 0.5713205341	 2.2148075775	-0.1478143415	 0.143478
H	-1.1036966373	 1.8658429314	-0.6328941716	 0.109031
H	-0.6527445408	 1.8473458056	 1.0790539494	 0.129075
H	-0.8525795626	-0.4799927525	 0.2113474942	 0.101949
H	 0.0810420796	-1.088338486	-1.952471141	 0.076327
H	 1.949832963	 0.5242857081	-2.9943718191	 0.096039
H	 3.411944346	 1.4348585739	-1.3749872831	 0.234821
H	 3.8774104738	-0.8945859629	-1.3576225708	 0.100799
H	 1.834967726	-2.3401554229	-0.294195457	 0.092655
117.1725	178.3378	188.7972	206.9732	280.9975	364.4164	485.1804	579.7892	601.8693	654.0155	745.4208	776.5968	786.2777	810.2501	870.3726	886.108	923.2723	933.1608	950.3033	1006.244	1008.4836	1045.2204	1082.698	1092.1028	1108.8657	1130.0456	1153.4013	1182.6223	1200.0489	1230.1639	1259.772	1295.2552	1329.7489	1334.7119	1372.2987	1399.818	1489.0995	1507.1081	1892.7436	2999.6218	3040.2039	3102.0488	3122.6095	3130.6113	3140.6567	3182.9259	3198.1516	3484.0435
CC1C2C3NC3C2C1=O	C[C@H]1[C@H]2[C@H]3N[C@H]3[C@H]2C1=O	
InChI=1S/C7H9NO/c1-2-3-4(7(2)9)6-5(3)8-6/h2-6,8H,1H3	InChI=1S/C7H9NO/c1-2-3-4(7(2)9)6-5(3)8-6/h2-6,8H,1H3/t2-,3+,4-,5+,6-/m0/s1
