17
gdb 84783	2.17877	1.5938	1.31759	3.3909	68.98	-0.2532	-0.0353	0.2179	1038.2593	0.134341	-458.97312	-458.964515	-458.963571	-459.006484	32.468	
O	 0.1010412907	 1.2978756252	-0.2950270808	-0.437481
C	 0.0303223916	-0.0824986504	-0.0408417989	 0.073311
C	 0.6066404672	-0.5482702667	 1.2837134544	-0.119423
C	-0.1413598815	-1.4992573376	 1.8401103116	-0.090736
C	-1.36199868	-1.8174105925	 1.0017350391	-0.316119
C	-1.4541018368	-0.601581739	 0.0536483369	 0.237243
O	-2.2678151758	 0.4405090351	 0.5967860339	-0.484339
C	-2.0367151105	-0.9201088012	-1.3116921602	 0.132891
O	-1.6941142108	-1.8658182832	-1.9727836528	-0.261937
H	-0.695398116	 1.6784934558	 0.1018900392	 0.28219
H	 0.5441833832	-0.5877405596	-0.8689961607	 0.114874
H	 1.5482903348	-0.1637659405	 1.6574953492	 0.1106
H	 0.0902159465	-2.0346964529	 2.7541003273	 0.105721
H	-1.2199743178	-2.7334113561	 0.4158183547	 0.145299
H	-2.2867056591	-1.9403468888	 1.5770190791	 0.113403
H	-2.1075132023	 0.4703984924	 1.5471842187	 0.293854
H	-2.8044452535	-0.1962463701	-1.6585315506	 0.100653
61.0993	107.0976	211.9628	245.6713	288.0025	301.7824	333.2747	393.719	465.4947	519.128	528.8046	574.4627	699.3106	716.1093	760.4161	833.5291	870.4212	944.2657	962.8261	976.2614	1016.9456	1055.1332	1089.7104	1106.1739	1134.963	1147.5884	1208.7446	1249.158	1295.4709	1321.028	1348.9047	1377.7353	1408.2732	1434.7138	1480.6766	1675.993	1832.5193	2914.311	3029.4979	3035.0921	3072.9034	3188.9002	3215.7352	3733.4286	3801.6359
OC1C=CCC1(O)C=O	O[C@H]1C=CC[C@]1(O)C=O	
InChI=1S/C6H8O3/c7-4-6(9)3-1-2-5(6)8/h1-2,4-5,8-9H,3H2	InChI=1S/C6H8O3/c7-4-6(9)3-1-2-5(6)8/h1-2,4-5,8-9H,3H2/t5-,6-/m0/s1
