18
gdb 36242	4.27241	1.18521	1.10695	1.1926	80.56	-0.2137	0.0459	0.2596	1131.7373	0.147395	-364.696534	-364.6889	-364.687956	-364.729038	30.328	
C	 0.0321087059	-1.1190920891	 0.3346175642	-0.443058
C	 0.0023498434	 0.0516632162	 0.0658557357	 0.316882
C	-0.032819617	 1.4793892239	-0.2334418832	-0.322441
N	 1.2960670953	 2.0880486416	-0.1000356897	-0.08245
C	 1.3853570096	 3.543935416	-0.0937794744	-0.018878
C	 1.1815048484	 4.0666237708	 1.3560106229	-0.088958
C	 0.9800332704	 2.8294780502	 2.228685985	-0.248405
C	 1.9565816903	 2.1194988442	 1.2411582742	-0.015922
C	 2.5227033715	 3.5454136145	 0.8688184184	-0.10577
H	 0.0552391526	-2.1559049934	 0.5620456756	 0.196319
H	-0.3533985794	 1.6298313905	-1.2727298254	 0.131377
H	-0.7992521965	 1.9611460786	 0.3967988617	 0.116209
H	 1.2126229717	 4.1541147808	-0.9721335903	 0.095274
H	 0.9024501364	 5.0926688993	 1.5597174745	 0.085802
H	 1.4615527243	 2.9576561038	 3.2014236181	 0.10426
H	-0.0212444702	 2.4101939734	 2.3726082449	 0.095487
H	 2.5128479232	 1.2299360757	 1.5273099959	 0.086406
H	 3.5160974001	 3.9652522629	 0.8243912421	 0.097866
49.481	119.3851	235.3791	297.4731	349.1433	447.0711	502.6766	579.2312	610.6112	655.5364	717.5427	748.7738	783.9237	792.4921	808.7395	863.9577	892.6852	950.4554	962.8627	991.1586	1004.7013	1019.3249	1027.4876	1056.4796	1073.7996	1095.7307	1120.511	1155.746	1171.7242	1185.5959	1226.6595	1252.6382	1261.8088	1317.2953	1352.7309	1380.4414	1479.2883	1508.2834	2241.4732	2957.6767	3030.7609	3045.8294	3103.3762	3146.0853	3186.5401	3198.1659	3233.3021	3507.0647
C#CCN1C2C3CC1C23	C#CCN1[C@H]2[C@H]3C[C@@H]1[C@@H]23	
InChI=1S/C8H9N/c1-2-3-9-6-4-5-7(6)8(5)9/h1,5-8H,3-4H2	InChI=1S/C8H9N/c1-2-3-9-6-4-5-7(6)8(5)9/h1,5-8H,3-4H2/t5-,6+,7-,8-/m0/s1
