16
gdb 68512	2.66376	1.86664	1.43828	0.4329	68.36	-0.2508	-0.0069	0.2439	925.0914	0.124498	-437.83453	-437.827304	-437.82636	-437.865994	28.393	
C	 0.0267465555	 1.5251227232	 0.004640024	-0.517503
C	-0.0181712657	 0.0240022797	 0.0309758184	 0.154828
N	 0.4410090976	-0.7682738772	-1.1771009318	-0.310107
C	-0.3218733247	-1.9316945713	-0.5972301206	-0.192895
C	 0.4443903933	-2.1625674848	 0.7155588039	 0.050791
O	 1.7549023653	-1.5992185589	 0.7560117155	-0.227947
C	 0.6592248544	-0.7788697322	 1.1612250785	 0.011863
C	-1.3321293295	-0.8238946107	-0.1413587114	 0.372487
O	-2.4998549113	-0.6026570273	-0.2330701125	-0.31934
H	 1.0491270024	 1.8805826075	-0.1550919431	 0.144097
H	-0.6132312463	 1.9263678288	-0.7872763147	 0.131129
H	-0.3308004891	 1.9307006045	 0.9562190715	 0.136538
H	-0.0695843904	-0.4263272331	-1.9922650234	 0.238514
H	-0.5766261099	-2.764840623	-1.2471238366	 0.097973
H	 0.2409669544	-3.0110886836	 1.3577145701	 0.116984
H	 0.6437838041	-0.4327509616	 2.1885835522	 0.112588
143.2798	176.9817	203.8791	299.8544	310.163	425.3762	529.1238	561.179	612.2249	710.3241	739.6902	749.6908	829.8901	847.6387	875.6151	882.9251	917.1789	940.1725	983.1222	1022.933	1048.3099	1073.1859	1106.7178	1150.9074	1154.9302	1235.9277	1243.299	1260.1058	1312.366	1358.8431	1401.0572	1418.0099	1486.285	1489.6702	1881.6883	3039.732	3109.9792	3114.889	3162.22	3180.1464	3195.4723	3463.4191
CC12NC(C3OC13)C2=O	C[C@@]12N[C@@H]([C@H]3O[C@@H]13)C2=O	
InChI=1S/C6H7NO2/c1-6-4(8)2(7-6)3-5(6)9-3/h2-3,5,7H,1H3	InChI=1S/C6H7NO2/c1-6-4(8)2(7-6)3-5(6)9-3/h2-3,5,7H,1H3/t2-,3+,5+,6-/m0/s1
