19
gdb 78039	2.51265	1.42778	1.26491	3.1575	77.23	-0.2407	0.	0.2406	1105.8263	0.157883	-419.165577	-419.156478	-419.155534	-419.198784	34.705	
C	 0.0447464236	 1.5249874395	 0.065932201	-0.475623
C	 0.0547864791	 0.0156829876	-0.0988384732	 0.315604
C	-1.1878572172	-0.650328929	 0.4618617352	-0.446057
C	 0.704431264	-0.7015043699	-1.2220050041	-0.133919
C	 2.0086691312	-0.0841189607	-1.7288362456	 0.026117
O	 2.0511785606	 1.0286735209	-2.5799462533	-0.423245
C	 2.4158254035	-0.0114313738	-0.2459267698	 0.299059
N	 3.346584119	 0.4521308214	 0.4600687606	-0.510125
N	 1.2827053806	-0.7878081006	 0.2112271144	-0.175388
H	 0.9737009783	 2.0074666241	-0.2434022359	 0.122411
H	-0.7857474274	 1.9581752167	-0.5018384949	 0.125513
H	-0.1039470258	 1.781589319	 1.1200833369	 0.140832
H	-2.0812080777	-0.3018405726	-0.0676684255	 0.118993
H	-1.1245253891	-1.736621397	 0.3694648095	 0.133624
H	-1.3027439713	-0.4067305138	 1.5225532933	 0.131589
H	 0.2392725461	-1.573471355	-1.6703243796	 0.101253
H	 2.6085679972	-0.8579321387	-2.2201825562	 0.128221
H	 1.4511676609	 1.7000453557	-2.2408833625	 0.290778
H	 4.0230884743	 0.9405670562	-0.1316036003	 0.230362
119.3422	164.7454	175.2238	202.4204	216.5952	253.0964	326.2273	352.1015	374.4872	413.2815	515.8535	567.3529	617.8492	677.9439	695.9919	825.1287	845.5946	886.1399	913.3964	957.3966	974.0581	988.3221	1029.8619	1043.6941	1069.5358	1129.7144	1149.7724	1200.6761	1243.7926	1276.84	1285.1095	1319.2617	1403.9627	1409.1227	1423.5936	1429.8258	1475.5165	1488.6474	1502.2139	1511.6182	1796.823	3036.2104	3041.2647	3062.8673	3098.7467	3106.0977	3126.5782	3130.4465	3166.9587	3451.4965	3829.7143
CC1(C)C2C(O)C(=N)N12	CC1(C)[C@H]2[C@@H](O)[C]([NH])N12	
InChI=1S/C6H10N2O/c1-6(2)4-3(9)5(7)8(4)6/h3-4,7,9H,1-2H3	InChI=1S/C6H10N2O/c1-6(2)4-3(9)5(7)8(4)6/h3-4,7,9H,1-2H3/t3-,4-,8?/m1/s1
