17
gdb 29981	3.3211	1.66332	1.11605	0.1036	82.77	-0.1694	0.0366	0.206	1053.3863	0.138954	-380.917031	-380.909264	-380.90832	-380.949738	29.705	
C	-0.012451231	 1.449961621	 0.0169879854	-0.342035
N	-0.0093732682	 0.0070369755	 0.0102409794	-0.135387
C	-0.0533534881	-0.8041495393	-1.110852093	-0.082384
C	-0.0358266773	-2.1373679173	-0.7505652434	-0.350159
C	 0.0220384436	-2.1331169156	 0.6684149476	 0.318741
C	 0.037450243	-0.8118792017	 1.1163208014	 0.325526
C	 0.0951652449	-0.8020220687	 2.5368556065	-0.326638
C	 0.1130774245	-2.1315351197	 2.9074374271	-0.063648
N	 0.0690937586	-2.9381200865	 1.7835436606	-0.402173
H	 0.8947576632	 1.8470295948	 0.4875977298	 0.133655
H	-0.054200995	 1.8134721464	-1.0116736739	 0.135022
H	-0.8811145406	 1.8430440535	 0.5583617016	 0.133637
H	-0.0942923792	-0.3578564925	-2.0925432936	 0.110428
H	-0.0616315892	-2.9746200232	-1.4296597872	 0.090345
H	 0.1207950505	 0.0391468597	 3.2111373338	 0.088293
H	 0.1540366497	-2.5708019885	 3.8915487935	 0.111425
H	 0.0719258306	-3.941424608	 1.7966618244	 0.25535
40.8438	145.3703	222.076	255.8371	322.0316	368.7632	522.1739	574.8232	601.734	617.3869	670.4136	689.52	695.5507	744.3433	759.2182	780.8082	807.0817	926.7485	1026.1293	1063.4269	1085.1249	1107.0396	1152.5717	1155.8764	1230.511	1258.0049	1329.0786	1380.8501	1394.7634	1451.0008	1470.8039	1478.9524	1498.9913	1520.4619	1532.7342	1562.31	1610.0343	3019.5928	3069.0747	3128.9367	3244.4787	3248.7032	3263.0651	3267.9727	3698.4477
CN1C=CC2=C1C=CN2	Cn1ccc2c1cc[nH]2	
InChI=1S/C7H8N2/c1-9-5-3-6-7(9)2-4-8-6/h2-5,8H,1H3	InChI=1S/C7H8N2/c1-9-5-3-6-7(9)2-4-8-6/h2-5,8H,1H3
