21
gdb 100157	3.70477	0.82248	0.80989	4.5069	76.19	-0.2691	0.017	0.2861	1520.9616	0.178842	-461.392889	-461.381977	-461.381033	-461.429112	38.831	
C	-0.2840256615	 1.4876353855	 0.3286780441	-0.404392
C	 0.0628880068	 0.0247719187	 0.0402704406	-0.181802
C	 0.9183143144	-0.6575690778	 1.1304429129	 0.336936
C	 2.3095573864	-0.0314615203	 1.2676161942	-0.450263
O	 0.2231107015	-0.6234987827	 2.384223203	-0.46658
C	 1.0246925373	-2.1530330832	 0.7922014989	-0.101161
O	 1.8482874267	-2.8509423603	 1.7247309646	-0.187496
C	 1.2458082998	-3.3627347364	 2.8210544362	 0.175057
O	 1.8647880129	-3.8530060513	 3.7167767842	-0.283629
H	 0.6022502489	 2.1298398286	 0.3394608064	 0.118903
H	-0.9607471563	 1.8789717557	-0.4361855435	 0.120728
H	-0.7873112747	 1.5802978283	 1.295751617	 0.121437
H	-0.8690030672	-0.5453111706	-0.0581301809	 0.102024
H	 0.5849818435	-0.0538333057	-0.9216135984	 0.096235
H	 2.2369076446	 1.0124317129	 1.5907239825	 0.114554
H	 2.9039667487	-0.5839901202	 1.9981806982	 0.150562
H	 2.8423030532	-0.0436297688	 0.3116793623	 0.122892
H	 0.5384674938	 0.1289816557	 2.8924586109	 0.289408
H	 0.0180957628	-2.5888937273	 0.7765589096	 0.116515
H	 1.4828287537	-2.2970718862	-0.1891671407	 0.120816
H	 0.1448508547	-3.2958324646	 2.7763915279	 0.089255
67.8814	76.1914	84.7526	169.1645	197.9563	205.9652	223.3411	255.2786	298.9899	315.9841	357.7672	379.2042	413.5701	446.2876	581.389	681.7483	761.0999	784.2193	894.1892	943.305	953.6631	1006.3514	1030.1041	1040.5752	1048.0109	1087.0233	1145.6037	1155.008	1187.3763	1217.2459	1300.5263	1338.2226	1361.0665	1386.0727	1399.6332	1410.1729	1416.4167	1432.9103	1474.5048	1486.9606	1496.585	1500.2954	1507.4955	1511.1608	1864.0971	2989.7313	3022.5296	3034.2429	3039.7111	3043.3354	3061.1116	3103.3539	3110.4489	3110.9315	3115.0766	3135.2202	3841.361
CCC(C)(O)COC=O	CC[C@@](C)(O)COC=O	
InChI=1S/C6H12O3/c1-3-6(2,8)4-9-5-7/h5,8H,3-4H2,1-2H3	InChI=1S/C6H12O3/c1-3-6(2,8)4-9-5-7/h5,8H,3-4H2,1-2H3/t6-/m1/s1
