15
gdb 44250	3.2666	1.48834	1.21004	2.1387	66.69	-0.2608	0.0005	0.2613	1000.1392	0.115062	-453.979529	-453.972365	-453.971421	-454.011593	26.961	
N	-0.0480523102	 1.1986596606	 0.3959781901	-0.537009
C	-0.032402281	 0.0243412749	-0.0647302111	 0.413311
O	 1.0127419779	-0.5518737989	-0.7281216534	-0.240505
C	 0.8403402641	-1.9769232914	-0.8507300918	-0.108537
C	-0.6466819152	-2.2520697845	-0.6179579274	-0.214254
C	-1.2028505023	-0.9349377307	-0.012575065	-0.067472
N	-2.0892218447	-0.8387731117	-1.1855581932	-0.316813
C	-1.5584233005	-1.9322427393	-1.8370342345	 0.419552
O	-1.7262885798	-2.4010501319	-2.927122465	-0.346254
H	 0.844052694	 1.6679043296	 0.228576154	 0.228804
H	 1.17744651	-2.2738815793	-1.8467164084	 0.146515
H	 1.4673184106	-2.4707954257	-0.1001268229	 0.122899
H	-0.8568415635	-3.1902887322	-0.107466395	 0.118242
H	-1.7166975672	-0.9365809839	 0.9479349629	 0.117807
H	-2.5690804421	-0.0298824457	-1.5569357996	 0.263714
81.6035	121.8363	218.9777	267.7446	415.3731	453.5218	489.018	596.7041	660.2972	699.8787	748.5647	790.753	849.4208	891.1699	907.6662	917.6206	973.3338	1011.9583	1053.367	1056.6223	1117.8313	1166.275	1175.4495	1225.6329	1252.4113	1285.9044	1297.8851	1329.4406	1363.0903	1408.2711	1518.0428	1777.6297	1903.3313	3042.1675	3107.1835	3125.0673	3139.8915	3470.9108	3594.4523
N=C1OCC2C1NC2=O	[NH][C]1OC[C@H]2[C@@H]1NC2=O	
InChI=1S/C5H6N2O2/c6-4-3-2(1-9-4)5(8)7-3/h2-3,6H,1H2,(H,7,8)	InChI=1S/C5H6N2O2/c6-4-3-2(1-9-4)5(8)7-3/h2-3,6H,1H2,(H,7,8)/t2-,3-/m0/s1
