15
gdb 18109	3.75797	2.43369	1.83582	1.0282	59.53	-0.2594	0.0164	0.2758	728.5758	0.122509	-399.827847	-399.821958	-399.821014	-399.857981	22.752	
C	 0.1221781742	 1.2446819702	 0.2915094047	-0.097704
C	 1.4593465934	 1.8691669692	-0.1172439909	-0.223957
C	 2.2465747551	 0.6497522552	-0.6317049823	-0.055809
N	 3.0050714976	-0.0279969351	 0.4319668153	-0.26911
C	 2.4725503742	-1.1725942214	 0.5585960485	 0.111484
O	 1.4306966452	-1.5292004201	-0.2277752454	-0.232481
C	 1.1204263021	-0.352956542	-1.0266645786	 0.200962
O	-0.1007738376	 0.2021222684	-0.670888293	-0.242713
H	 0.1637777704	 0.8245167392	 1.3051094657	 0.113508
H	-0.7272135209	 1.9278233769	 0.2308911315	 0.117915
H	 1.3084683805	 2.590119329	-0.9261035047	 0.111463
H	 1.9781042153	 2.3632688075	 0.7053224009	 0.125516
H	 2.9189026345	 0.9038558006	-1.4540892643	 0.095099
H	 2.7874062162	-1.9354260517	 1.2628173383	 0.14213
H	 1.0605377602	-0.6881404061	-2.0624600757	 0.103696
117.0809	198.0602	338.5301	461.9863	555.4568	593.027	669.8731	814.1199	844.2938	870.4266	897.0011	917.496	939.2177	968.9097	970.2037	987.2036	1054.5778	1077.896	1114.9712	1166.7209	1203.4727	1231.2549	1284.033	1291.4544	1308.3506	1330.558	1351.8692	1373.0052	1402.5092	1478.9472	1522.0198	1695.6969	3022.2688	3063.5729	3085.0549	3111.8654	3118.1261	3134.2721	3209.8722
C1CC2N=COC2O1	C1C[C@H]2N=CO[C@H]2O1	
InChI=1S/C5H7NO2/c1-2-7-5-4(1)6-3-8-5/h3-5H,1-2H2	InChI=1S/C5H7NO2/c1-2-7-5-4(1)6-3-8-5/h3-5H,1-2H2/t4-,5-/m1/s1
