18
gdb 43989	3.20022	1.53074	1.35996	3.7856	75.12	-0.2411	0.0146	0.2558	997.3492	0.150427	-401.948933	-401.941857	-401.940913	-401.980133	28.927	
O	-0.0700607128	 0.0054919679	 0.4375483938	-0.347126
C	-0.0563197451	 1.1821456342	 0.2134804705	 0.36486
N	-1.0826002036	 2.1501213118	 0.2217808294	-0.387931
C	-0.1575751167	 3.2311709678	-0.1358411279	 0.278477
C	 0.9717769418	 3.3422233704	 0.8388527406	-0.359688
C	 0.98494215	 2.2215800012	-0.2022347274	 0.08479
C	 1.7351927577	 2.4031930773	-1.5053324247	-0.296589
C	 1.2547469332	 3.7994453757	-2.0115329571	-0.219848
C	-0.1822060593	 3.9975424107	-1.4403892128	-0.279464
H	-1.8089973861	 2.2082759265	 0.9269011335	 0.239327
H	 1.7014903358	 4.1326315892	 0.6910930887	 0.126519
H	 0.7943101559	 3.0905571793	 1.8790075969	 0.125331
H	 2.8242290646	 2.3544470062	-1.4136848475	 0.110071
H	 1.4347188561	 1.6149432848	-2.2034880656	 0.121099
H	 1.9177539389	 4.5831764009	-1.6299502334	 0.10975
H	 1.2801522357	 3.8784680935	-3.1018316227	 0.10848
H	-0.9234027338	 3.5246333186	-2.0929314894	 0.118423
H	-0.4457813824	 5.055891534	-1.3490679649	 0.103519
136.1405	213.9273	237.7413	342.5477	375.0568	449.9236	532.2995	589.3698	624.3041	663.2155	712.5744	727.8226	795.0737	837.1587	855.1485	876.6465	918.1606	934.4186	963.966	980.3897	1009.1939	1043.3044	1071.0471	1129.5328	1186.9664	1200.5175	1219.5571	1258.4303	1272.851	1324.4229	1328.4824	1333.0308	1351.3338	1358.9906	1480.9859	1490.9284	1494.0738	1511.6755	1890.7835	3047.0454	3049.1615	3051.8313	3084.9523	3089.9871	3103.7756	3128.19	3214.4466	3538.3645
O=C1NC23CC12CCC3	O=C1N[C@@]23C[C@@]12CCC3	
InChI=1S/C7H9NO/c9-5-6-2-1-3-7(6,4-6)8-5/h1-4H2,(H,8,9)	InChI=1S/C7H9NO/c9-5-6-2-1-3-7(6,4-6)8-5/h1-4H2,(H,8,9)/t6-,7-/m0/s1
