21
gdb 72994	2.33798	1.55412	1.2439	2.5558	84.07	-0.2457	-0.022	0.2237	1125.1328	0.180735	-387.082556	-387.073178	-387.072234	-387.116131	35.519	
C	 0.0988366686	 1.5354744476	 0.146641353	-0.509267
C	 0.0723870032	 0.0331738691	 0.104035596	 0.315777
C	-1.2401085234	-0.7710811078	 0.0275448683	-0.29001
C	-0.6287382998	-1.8358898316	 0.9931349369	-0.253859
C	 0.6669090516	-1.0234693796	 1.0191364186	-0.107961
C	 1.2382812343	-0.8514172228	-0.388299869	 0.171685
C	 1.1121147438	-1.8784963996	-1.5007324317	-0.496655
C	 2.5693304541	-0.1782633507	-0.377559667	 0.094907
O	 3.0000453167	 0.5377763704	 0.4977241753	-0.276513
H	 1.0884299719	 1.9200429798	 0.3962490866	 0.155615
H	-0.207193621	 1.958994623	-0.8179480647	 0.114305
H	-0.6060881354	 1.9013360079	 0.9020676853	 0.115333
H	-2.0659338661	-0.2233960781	 0.4885094434	 0.107457
H	-1.5653077279	-1.1064050239	-0.9617456122	 0.098406
H	-1.1307793265	-1.8428828618	 1.9630879885	 0.109592
H	-0.5610526401	-2.8675872661	 0.6348408577	 0.099954
H	 1.3309499408	-0.8827840754	 1.8639126245	 0.104613
H	 0.1472028243	-2.3855598862	-1.5000302723	 0.129445
H	 1.2321307871	-1.4058699438	-2.4822925505	 0.122313
H	 1.8851730158	-2.6499868496	-1.4095827091	 0.123743
H	 3.1890794081	-0.3975459209	-1.2772304275	 0.071119
114.2236	128.1046	167.9753	197.7927	221.9784	250.1151	277.1996	306.6405	354.1607	408.5985	451.017	601.9351	647.5674	679.4696	699.2797	792.2356	891.5091	922.8496	942.0424	961.9143	971.0916	991.7595	1010.6235	1037.708	1107.3825	1109.7375	1127.2751	1172.8343	1201.8146	1216.9152	1231.051	1253.3268	1275.079	1294.3148	1391.3989	1413.54	1423.0558	1448.0177	1473.0694	1490.1469	1497.5148	1501.7567	1503.1826	1508.1839	1797.4918	2865.7358	3024.9409	3032.4827	3049.8665	3056.1448	3076.6954	3085.3087	3094.4521	3112.618	3141.3269	3143.0694	3186.1102
CC12CCC1C2(C)C=O	C[C@]12CC[C@H]1[C@]2(C)C=O	
InChI=1S/C8H12O/c1-7-4-3-6(7)8(7,2)5-9/h5-6H,3-4H2,1-2H3	InChI=1S/C8H12O/c1-7-4-3-6(7)8(7,2)5-9/h5-6H,3-4H2,1-2H3/t6-,7+,8+/m1/s1
