15
gdb 133853	3.76654	1.88673	1.71541	2.8744	68.51	-0.2087	-0.0889	0.1198	806.6963	0.113228	-416.642338	-416.636198	-416.635254	-416.672291	26.155	
O	 0.8185041235	-0.5540340094	 0.0062240463	-0.4404
C	 2.1363227887	-0.2598706898	-0.0192660829	 0.360386
C	 2.8625398952	 1.0040261041	 0.5637267516	-0.154626
C	 3.1830814209	-0.4169238643	 1.0163392739	-0.094421
N	 4.244991129	-0.7589610177	 0.030088501	-0.090299
C	 5.1512762116	 0.4305641463	-0.0105489436	-0.183647
C	 4.057523906	 1.3841477332	-0.4955869616	-0.032448
N	 3.5240566806	 0.6767051206	-1.7103022638	-0.228298
C	 3.3161814683	-0.4269064193	-1.0651211905	 0.011457
H	 0.3473154898	 0.0900935275	-0.5361690885	 0.309575
H	 2.3564770496	 1.7100731988	 1.2126314079	 0.101017
H	 3.170575307	-0.8385621904	 2.0123004455	 0.115012
H	 5.950329393	 0.2889222856	-0.7399847914	 0.126676
H	 5.5593406177	 0.6322608073	 0.9806107748	 0.116422
H	 4.2512657393	 2.4443947075	-0.6506032887	 0.083593
252.3765	286.7836	373.3739	398.6133	468.4017	572.2208	583.4698	617.0945	684.5047	736.2304	781.9204	809.6146	833.2325	876.2875	883.9982	894.36	917.0026	938.8278	976.9777	1028.5696	1053.8743	1062.4479	1107.1819	1155.956	1192.651	1205.092	1218.4681	1234.3762	1274.988	1295.2163	1453.2674	1484.2911	1492.8352	3086.5811	3137.1506	3148.9888	3187.5179	3208.3366	3788.482
OC12C3C1N1CC3N=C21	O[C@@]12[C@H]3[C@@H]1N1C[C@H]3[N][C]21	
InChI=1S/C6H6N2O/c9-6-3-2-1-8(4(3)6)5(6)7-2/h2-4,9H,1H2	InChI=1S/C6H6N2O/c9-6-3-2-1-8(4(3)6)5(6)7-2/h2-4,9H,1H2/t2-,3-,4+,6+/m1/s1
