21
gdb 59005	3.24267	0.95218	0.88555	2.9072	85.42	-0.2382	-0.014	0.2242	1427.2916	0.18104	-387.136708	-387.127137	-387.126193	-387.171812	35.469	
C	-0.0255545602	 1.5521073654	 0.0392109705	-0.390248
C	-0.0250938231	 0.0134827813	-0.0365955482	-0.074045
C	-1.4617724184	-0.5371992145	 0.0405331136	-0.390123
C	 0.6976257712	-0.4843855209	-1.2615154293	 0.355694
C	 1.7985066095	-1.2451051229	-1.2658660761	-0.20578
C	 2.2922929597	-1.5850330597	-2.6436468509	-0.36749
C	 1.2771325095	-0.8835019313	-3.5601275711	 0.396745
O	 1.2860260916	-0.8894534845	-4.7623660381	-0.303214
C	 0.2454413119	-0.1702691943	-2.6712110537	-0.430085
H	 0.9928723492	 1.950999318	 0.0091369869	 0.117478
H	-0.5855921517	 1.9923116923	-0.7929684156	 0.117517
H	-0.496529629	 1.8902236784	 0.9678767202	 0.114676
H	 0.5253603906	-0.3644252403	 0.8348507972	 0.075985
H	-2.0733122731	-0.1743175879	-0.7926866294	 0.117487
H	-1.469125137	-1.6309906872	 0.0132285324	 0.117501
H	-1.9463312668	-0.2162419229	 0.9683011436	 0.114656
H	 2.2977928731	-1.590881645	-0.3666734001	 0.09153
H	 3.304884954	-1.2185677867	-2.8589135011	 0.134919
H	 2.3087643243	-2.6615370728	-2.8600201458	 0.134905
H	-0.7614166306	-0.5383168329	-2.9064390783	 0.135916
H	 0.2359619351	 0.9020687485	-2.9048748267	 0.135975
44.1915	61.1767	150.587	180.7538	221.35	244.4957	311.4669	311.8562	448.3899	462.6458	489.9845	540.9187	566.3896	663.2994	787.487	809.4836	844.0587	863.2637	902.7034	927.8334	963.5371	996.2754	1003.1285	1040.6257	1111.5223	1130.0106	1131.3989	1169.7997	1186.2358	1213.3618	1266.7642	1284.5974	1336.0299	1341.2089	1380.0193	1394.3834	1416.9213	1440.7737	1446.5343	1487.1274	1491.0787	1502.8053	1509.7391	1704.5267	1853.613	3017.9311	3021.2289	3027.621	3029.6663	3034.6781	3047.1646	3055.8946	3096.1932	3102.4958	3107.1738	3109.1412	3183.7909
CC(C)C1=CCC(=O)C1	CC(C)C1=CCC(=O)C1	
InChI=1S/C8H12O/c1-6(2)7-3-4-8(9)5-7/h3,6H,4-5H2,1-2H3	InChI=1S/C8H12O/c1-6(2)7-3-4-8(9)5-7/h3,6H,4-5H2,1-2H3
