20
gdb 7284	3.38844	1.10713	1.00197	4.1929	72.28	-0.2448	-0.0154	0.2294	1243.7786	0.173377	-386.154725	-386.144621	-386.143677	-386.190254	35.488	
C	-0.0763859765	 1.5638578528	 0.0152855272	-0.419775
C	 0.0238311078	 0.0376287881	-0.0212045772	 0.131084
O	 0.691624853	-0.4096200138	-1.1985713385	-0.434526
C	 0.7695863206	-0.5796771258	 1.1767873444	 0.019883
C	 0.5827050031	-2.104232517	 1.2014820414	-0.403561
C	 2.2690686118	-0.2108178251	 1.1887722516	-0.268994
C	 2.9268606822	-0.5708844865	 2.499863461	 0.158831
O	 3.924879181	-1.2326389751	 2.6241442335	-0.243162
H	 0.9096036438	 2.0333835922	-0.0453813752	 0.128562
H	-0.6679769005	 1.9263685986	-0.8333878492	 0.108873
H	-0.5724473094	 1.9050335596	 0.9300573462	 0.117982
H	-1.0014888681	-0.3697280949	 0.0012963909	 0.064815
H	 0.2251461644	-0.0562653521	-1.9619745172	 0.284268
H	 0.306697232	-0.1568838682	 2.0800457374	 0.072345
H	-0.4768467124	-2.3673348755	 1.2847844658	 0.109538
H	 0.971214357	-2.5475898693	 0.2807242599	 0.14105
H	 1.1086621169	-2.5595824668	 2.046284236	 0.121979
H	 2.8034653852	-0.6942863119	 0.3685672742	 0.135466
H	 2.3842530254	 0.8760296419	 1.0748260379	 0.111799
H	 2.4045072727	-0.1558133911	 3.3968559599	 0.063542
54.41	65.7368	82.1009	189.9334	212.1527	231.6901	247.8171	276.1477	299.4598	345.3759	414.6172	489.796	503.3395	621.7995	753.1958	819.9639	900.6245	941.1752	961.0804	1003.47	1025.3147	1044.4209	1076.8783	1147.1811	1151.187	1176.205	1209.214	1250.1419	1291.2977	1337.2893	1371.5876	1391.3155	1405.9196	1409.5343	1422.7101	1429.481	1461.8226	1490.7803	1494.0564	1500.3186	1505.9982	1835.5324	2829.3318	2949.5135	3005.6223	3021.5369	3031.3204	3038.5081	3092.8797	3103.4873	3115.5874	3121.8163	3124.6089	3827.2029
CC(O)C(C)CC=O	C[C@@H](O)[C@@H](C)CC=O	
InChI=1S/C6H12O2/c1-5(3-4-7)6(2)8/h4-6,8H,3H2,1-2H3	InChI=1S/C6H12O2/c1-5(3-4-7)6(2)8/h4-6,8H,3H2,1-2H3/t5-,6+/m0/s1
