14
gdb 132173	3.21937	1.32042	0.93637	5.2692	70.6	-0.1909	-0.0018	0.1891	1126.9642	0.101182	-477.993916	-477.986064	-477.98512	-478.026226	29.782	
O	-0.0844686966	 1.3408578145	 0.0109688594	-0.409123
C	-0.0061302332	-0.0123458588	 0.0030004731	 0.308825
C	 1.1657161821	-0.6880466152	-0.0077505923	-0.136055
N	 1.1959405204	-2.0787701873	-0.0157047884	-0.405075
C	 0.0289088654	-2.767564988	-0.0125722641	 0.409866
F	 0.19445781	-4.0859665903	-0.0209085863	-0.064367
C	-1.1785696832	-2.1696703028	-0.0020458721	-0.411411
C	-1.3042155655	-0.7166211213	 0.0068678253	 0.26389
N	-2.3924435821	-0.0271411689	 0.0172601694	-0.549541
H	 0.8034276372	 1.7147062277	 0.0077574412	 0.293795
H	 2.132420032	-0.2008792974	-0.010820373	 0.116877
H	 2.06548945	-2.5831723985	-0.0234651584	 0.271947
H	-2.0682328824	-2.7862289508	-0.000240962	 0.110033
H	-3.1986009941	-0.655833403	 0.018578808	 0.200338
108.4673	157.1013	213.7705	332.7824	352.0417	352.8569	392.641	428.5731	445.5869	509.5758	598.9717	642.3978	739.265	746.6515	785.8785	786.3989	810.7898	874.1792	999.7814	1100.7932	1171.4963	1210.0275	1231.7632	1303.9157	1329.3393	1366.9033	1469.1132	1565.7102	1641.9909	1675.9162	1715.0427	3207.6588	3215.018	3440.4667	3678.1582	3812.7202
OC1=CNC(F)=CC1=N	OC1=CN[C@H](F)C=C1[NH]	
InChI=1S/C5H5FN2O/c6-5-1-3(7)4(9)2-8-5/h1-2,9H,(H2,7,8)	InChI=1S/C5H6FN2O/c6-5-1-3(7)4(9)2-8-5/h1-2,5,7-9H/t5-/m0/s1
