22
gdb 85910	2.5258	1.47671	1.29523	2.5829	81.95	-0.2355	0.0745	0.31	1136.3284	0.193457	-404.345212	-404.336031	-404.335086	-404.378354	36.06	
C	 0.2552817308	 1.5810632219	-0.0838703825	-0.401649
C	 0.0535813173	 0.0798111622	 0.0586946109	 0.135628
O	 0.6116605497	-0.5630255724	-1.0895863769	-0.315711
C	 1.1362475116	-1.8641111106	-0.7617408058	 0.390786
C	 0.0727265588	-2.9395441689	-1.0227940876	-0.424828
C	 2.379645983	-2.0706275384	-1.6228055751	-0.420773
C	 1.4333887625	-1.7731760384	 0.7322861281	-0.086471
N	 2.2229324224	-0.5767407517	 1.0868518221	-0.341595
C	 0.7522727924	-0.5678245383	 1.2425174064	-0.066575
H	 1.3233104326	 1.8109914117	-0.0748193333	 0.138547
H	-0.1740129955	 1.9328414187	-1.0259102075	 0.122
H	-0.2338099997	 2.1153929616	 0.7373981713	 0.103977
H	-1.0241451059	-0.1461937252	 0.1347439197	 0.062236
H	-0.234602232	-2.9108269571	-2.0718369918	 0.123521
H	 0.459392895	-3.9410276305	-0.8048020343	 0.108435
H	-0.8140032497	-2.7757581974	-0.402211024	 0.11248
H	 3.1247396417	-1.3111574295	-1.3781681782	 0.137646
H	 2.810505771	-3.0627234483	-1.4521847262	 0.10251
H	 2.1234000973	-1.9856665689	-2.682824201	 0.118088
H	 1.5361039638	-2.6829508569	 1.3150848515	 0.084126
H	 2.6521263685	-0.7205662003	 1.9978199081	 0.230161
H	 0.3109094743	-0.5114656932	 2.2321573362	 0.08746
104.9956	178.201	201.5164	225.1027	234.598	251.718	294.6104	323.696	382.266	424.3482	514.4425	529.0521	608.6852	693.523	799.3394	811.4056	856.2832	875.2263	899.8952	915.0711	929.775	955.4967	988.5477	1013.0214	1042.2342	1082.0974	1111.762	1123.8675	1135.889	1167.8983	1208.8214	1220.8572	1251.5456	1270.2543	1349.8981	1360.2099	1384.5993	1392.6769	1404.8472	1410.1564	1433.8312	1477.2035	1483.0442	1485.6368	1495.8394	1499.6434	1506.4428	2949.5043	3032.7113	3042.1286	3042.5696	3100.5493	3109.3588	3112.3977	3116.8514	3134.4604	3137.8884	3159.3212	3170.5702	3499.377
CC1OC(C)(C)C2NC12	C[C@H]1OC(C)(C)[C@H]2N[C@@H]12	
InChI=1S/C7H13NO/c1-4-5-6(8-5)7(2,3)9-4/h4-6,8H,1-3H3	InChI=1S/C7H13NO/c1-4-5-6(8-5)7(2,3)9-4/h4-6,8H,1-3H3/t4-,5+,6+/m1/s1
