17
gdb 67982	3.10564	1.73765	1.29397	4.459	71.85	-0.2605	0.0053	0.2658	976.2357	0.137203	-421.828825	-421.821912	-421.820968	-421.859871	28.017	
C	 0.0395455975	 1.4938135873	-0.123195623	-0.497147
C	 0.0220285042	 0.0002768327	 0.0369955245	 0.467503
O	 0.4372200621	-0.6374145401	-1.1947316328	-0.290163
C	 0.3710858125	-1.974003111	-0.8956632016	 0.440963
O	 0.6395204909	-2.8520848995	-1.659780089	-0.347606
C	-0.0956524821	-1.9801927724	 0.5397329814	-0.202736
C	 0.6467612972	-0.7821501102	 1.2365611351	-0.102327
C	-0.627486732	-0.5073595933	 2.0705883878	-0.270181
C	-1.1551346671	-0.8237897258	 0.6506273391	-0.102292
H	 1.0458610044	 1.8356548733	-0.3816011628	 0.140217
H	-0.6378340071	 1.7970717229	-0.9266250961	 0.140183
H	-0.2700575426	 1.9925919467	 0.7979421223	 0.130022
H	-0.2372732249	-2.9328762444	 1.042885528	 0.098688
H	 1.6888883723	-0.7714813237	 1.5581548985	 0.090694
H	-0.860040277	-1.2478143695	 2.8383897091	 0.109872
H	-0.7748672528	 0.5056056542	 2.4518306091	 0.103617
H	-2.1865416257	-0.8610224873	 0.2979508004	 0.090693
167.6184	199.7335	269.514	297.8768	370.2812	443.1857	535.287	619.7008	635.5407	699.2111	729.1095	815.5535	834.0807	892.0669	893.9516	909.0151	934.1426	942.9957	1013.0736	1045.8026	1060.963	1078.5699	1098.4107	1122.9228	1162.5414	1180.19	1197.1012	1236.6381	1242.8997	1256.2781	1279.4895	1343.1357	1421.046	1479.6372	1494.4817	1527.292	1906.0926	3050.9518	3068.0418	3110.8524	3113.7945	3118.2671	3126.8439	3134.8415	3166.0145
CC12OC(=O)C3C1CC23	C[C@@]12OC(=O)[C@H]3[C@@H]1C[C@@H]23	
InChI=1S/C7H8O2/c1-7-3-2-4(7)5(3)6(8)9-7/h3-5H,2H2,1H3	InChI=1S/C7H8O2/c1-7-3-2-4(7)5(3)6(8)9-7/h3-5H,2H2,1H3/t3-,4+,5-,7+
