23
gdb 98190	2.96856	1.01263	0.91714	1.627	82.36	-0.2621	0.0182	0.2802	1434.4798	0.202467	-425.473462	-425.462054	-425.46111	-425.510328	40.603	
C	 0.0760332645	 1.5791920117	 0.0097529938	-0.411023
C	-0.0208416196	 0.0502618691	 0.0026785196	-0.172729
C	-1.4531208037	-0.535524308	 0.0131886011	 0.120984
C	-2.2251148031	-0.1220403555	 1.2857811043	-0.419996
C	-2.2491511246	-0.1085773758	-1.2400080791	-0.419995
C	-1.3248383583	-2.0650466783	 0.003788594	 0.457413
O	-0.2928304048	-2.688584213	-0.0095386928	-0.371835
O	-2.5368665202	-2.6646411215	 0.0121272079	-0.241792
C	-2.5143239981	-4.0959927352	 0.0041255126	-0.239933
H	 1.1270012279	 1.8844630752	 0.0014965233	 0.11644
H	-0.3981491667	 2.0294777029	-0.8677496357	 0.116222
H	-0.3815756475	 2.0202566259	 0.9006366355	 0.116219
H	 0.5016946012	-0.3430137802	-0.8756629925	 0.105398
H	 0.5182099098	-0.352127867	 0.8667994855	 0.105383
H	-2.3793996873	 0.9603757763	 1.3042610784	 0.118102
H	-3.2038458901	-0.6049571477	 1.3206951909	 0.129355
H	-1.6740974839	-0.3996246661	 2.1907546298	 0.117585
H	-1.7154408426	-0.3763622451	-2.1582101795	 0.117588
H	-3.2283824912	-0.591267307	-1.2614780025	 0.129355
H	-2.4037311706	 0.9739472602	-1.2439620013	 0.118104
H	-3.5582962307	-4.4101940688	 0.0123355589	 0.130519
H	-2.0091431504	-4.4698883898	-0.8901934451	 0.13932
H	-1.9922846001	-4.4795421024	 0.8845674629	 0.139317
42.0466	66.1113	120.2377	136.5291	166.8774	198.2563	247.2552	254.3901	283.367	302.2937	329.9506	356.2128	365.4668	377.5994	486.9351	630.2233	771.7228	775.0865	784.0317	857.5649	937.2866	949.5834	1003.3247	1012.9813	1034.1429	1060.4648	1081.8659	1168.6551	1179.6367	1210.3817	1211.6007	1254.4142	1278.3756	1319.9994	1372.2634	1392.7101	1408.8644	1422.0874	1471.5617	1476.4338	1481.734	1483.8478	1491.1348	1497.6929	1506.431	1508.0892	1509.5949	1518.3496	1810.3697	3038.4365	3038.7002	3042.658	3047.0355	3050.3056	3077.2258	3102.6198	3105.833	3110.3648	3112.3318	3123.9045	3129.2699	3132.5882	3155.6224
CCC(C)(C)C(=O)OC	CCC(C)(C)C(=O)OC	
InChI=1S/C7H14O2/c1-5-7(2,3)6(8)9-4/h5H2,1-4H3	InChI=1S/C7H14O2/c1-5-7(2,3)6(8)9-4/h5H2,1-4H3
