20
gdb 80098	2.17529	1.79923	1.36954	2.5552	79.97	-0.2136	0.0073	0.2208	1038.7613	0.172049	-403.120867	-403.112476	-403.111532	-403.153443	32.946	
C	-0.1656258561	 1.4535823176	 0.0020652835	-0.322403
N	 0.0146269613	 0.0080375865	 0.0209619089	-0.097191
C	 1.3186184097	-0.6328441912	-0.2672704293	-0.08362
C	 2.5668347347	 0.1543246381	-0.4147741004	-0.049941
C	 3.0613353231	 0.9308587886	 0.5522511158	-0.074192
C	 2.3905856681	 1.0941171424	 1.8884194274	-0.316447
C	 1.4203370633	-0.0490871122	 2.2560869617	 0.106872
O	 0.4236906898	 0.3943799759	 3.1771947817	-0.436331
C	 0.6928688235	-0.6925719245	 1.092121045	-0.029118
H	 0.7657620477	 2.0299316473	-0.0683137037	 0.111121
H	-0.7818005358	 1.7128464712	-0.8655144054	 0.116084
H	-0.6988407817	 1.7561479764	 0.9074723515	 0.136637
H	 1.2321477419	-1.4927015767	-0.9278935335	 0.0857
H	 3.0797151554	 0.0849478508	-1.3701012596	 0.090293
H	 3.9723826319	 1.4983026148	 0.3811830388	 0.092458
H	 3.1461729834	 1.1970248826	 2.6783772953	 0.097695
H	 1.816367539	 2.0297668721	 1.9043343761	 0.125185
H	 2.0092882593	-0.8618521082	 2.7132569195	 0.072767
H	 0.8696892016	 0.6969225441	 3.9751592044	 0.281378
H	 0.1845310697	-1.6088006554	 1.3917333621	 0.093055
97.4808	144.5294	220.2175	254.0757	286.9059	317.7368	374.6581	397.1789	439.1392	518.9256	556.1676	666.6703	711.7713	726.5809	765.0512	847.1276	879.8333	930.4668	962.862	988.5982	1018.8307	1047.308	1073.7504	1100.6857	1115.6557	1156.0157	1157.009	1174.4251	1202.4873	1219.4625	1255.7546	1324.4533	1345.4525	1355.9101	1374.6218	1415.9007	1423.5059	1440.0508	1456.119	1478.2993	1489.8699	1526.0128	1709.1056	2954.0347	3011.9111	3015.2609	3042.9585	3070.0994	3103.7407	3112.8952	3124.7001	3152.4823	3175.4973	3810.4197
CN1C2C=CCC(O)C12	CN1[C@H]2C=CC[C@@H](O)[C@@H]12	
InChI=1S/C7H11NO/c1-8-5-3-2-4-6(9)7(5)8/h2-3,5-7,9H,4H2,1H3	InChI=1S/C7H11NO/c1-8-5-3-2-4-6(9)7(5)8/h2-3,5-7,9H,4H2,1H3/t5-,6+,7-,8?/m0/s1
