16
gdb 35563	3.44092	1.28974	1.08203	4.352	75.24	-0.2611	-0.0202	0.2408	1112.0373	0.125478	-400.72273	-400.715335	-400.71439	-400.754922	28.036	
N	 0.2800947806	-1.0853478769	-0.0258694503	-0.317226
C	 0.1346369293	 0.0606220034	-0.0253427851	 0.298782
C	-0.0401980763	 1.5130323887	-0.0500954865	-0.089492
O	-0.3059529418	 2.0946641094	 1.2611726181	-0.314147
C	 0.6781275346	 3.1744852482	 1.0095955336	 0.113883
C	 1.9057903176	 3.3858107713	 1.906767316	-0.25171
C	 3.0921753551	 3.2593171255	 0.8871085678	-0.248691
C	 2.533666744	 2.3052283142	-0.1695025331	-0.185072
C	 1.2098516836	 2.364376951	-0.1242223218	 0.168904
H	-0.8401964547	 1.7709820656	-0.7562476132	 0.131159
H	 0.1308384226	 4.0969075564	 0.7806693078	 0.091268
H	 1.9023930484	 4.3314093727	 2.4545315719	 0.105562
H	 1.9582371953	 2.5656472593	 2.6293201009	 0.132059
H	 3.3696793042	 4.2356564458	 0.4692842119	 0.120271
H	 3.9948803142	 2.8521540385	 1.3523734946	 0.121567
H	 3.1456305933	 1.6229486369	-0.7461169727	 0.122882
91.5543	118.097	205.5106	290.2471	335.3514	380.2238	515.0147	547.923	593.6581	677.9788	770.5667	824.566	852.7638	867.4187	892.9227	919.2974	945.0538	960.1821	987.5054	1051.0239	1064.6216	1097.0825	1158.2213	1208.6087	1218.6909	1243.3197	1271.6154	1306.8938	1327.829	1342.2204	1378.1717	1478.3075	1493.103	1741.2726	2362.5063	3022.1637	3027.6845	3031.4946	3061.5209	3083.5813	3117.2619	3215.6485
N#CC1OC2CCC=C12	N#C[C@H]1O[C@H]2CC[CH][C]12	
InChI=1S/C7H7NO/c8-4-7-5-2-1-3-6(5)9-7/h2,6-7H,1,3H2	InChI=1S/C7H7NO/c8-4-7-5-2-1-3-6(5)9-7/h2,6-7H,1,3H2/t6-,7+/m0/s1
