20
gdb 118390	3.02259	0.79114	0.66151	5.1555	80.75	-0.2639	-0.0392	0.2247	1701.7695	0.16815	-403.180302	-403.169642	-403.168698	-403.217573	36.404	
C	-0.0205102817	 1.5471635813	 0.0470768168	-0.384081
C	-0.0730596712	 0.0184195458	-0.0152694788	-0.182796
C	 0.732437044	-0.5482779229	-1.1902224434	-0.196605
C	 0.7372370583	-2.0943694832	-1.2580282816	-0.072146
C	 1.3093909688	-2.5680740179	-2.613143092	-0.374781
C	 1.2876320783	-4.0212964483	-2.7724362457	 0.26051
N	 1.2649079275	-5.1711999549	-2.8828719617	-0.295182
C	 1.5713988497	-2.6315296994	-0.1049601234	 0.174694
O	 1.1267224545	-2.9995498835	 0.9488881379	-0.23881
H	 1.0070775218	 1.9043437092	 0.1770987781	 0.117486
H	-0.4141115669	 1.9981735707	-0.8706891714	 0.115522
H	-0.6124362898	 1.9271271747	 0.8847639128	 0.121812
H	 0.295945378	-0.4054350342	 0.9251197427	 0.124837
H	-1.1151537554	-0.3128104125	-0.1058551449	 0.106121
H	 0.3242374496	-0.1628345025	-2.1336198434	 0.105305
H	 1.7697820233	-0.1860936147	-1.1407776582	 0.104045
H	-0.2830312502	-2.4698977233	-1.1329381668	 0.118561
H	 0.73706485	-2.1177678923	-3.4309870905	 0.159781
H	 2.3440870868	-2.2208107783	-2.7267913432	 0.155963
H	 2.6723087443	-2.6157823938	-0.2930706835	 0.079764
50.6784	52.755	78.6999	105.1558	111.6829	197.5197	244.4541	276.1097	313.8544	347.2934	390.2279	393.6153	516.9961	599.2249	741.732	832.9534	861.456	886.1986	952.745	967.4528	1001.355	1028.4551	1058.8202	1087.7688	1127.3252	1159.0255	1218.5385	1242.2816	1275.2767	1324.091	1330.8694	1350.8226	1358.8066	1396.1733	1415.2641	1427.9326	1462.476	1485.7679	1493.8155	1500.4266	1511.2144	1839.2885	2363.6184	2843.3492	3003.3989	3029.9992	3033.314	3037.7476	3040.1159	3071.5998	3074.3067	3086.3155	3100.0192	3108.8938
CCCC(CC#N)C=O	CCC[C@@H](CC#N)C=O	
InChI=1S/C7H11NO/c1-2-3-7(6-9)4-5-8/h6-7H,2-4H2,1H3	InChI=1S/C7H11NO/c1-2-3-7(6-9)4-5-8/h6-7H,2-4H2,1H3/t7-/m0/s1
