16
gdb 20177	3.54109	2.71568	2.01814	1.7485	67.43	-0.2202	0.0064	0.2265	711.2622	0.133092	-346.567458	-346.561713	-346.560769	-346.596981	23.891	
C	 0.0454509896	 1.5061903802	 0.1790237288	-0.282238
C	 1.3578459704	 2.1993410188	-0.0891585381	-0.052982
C	 2.5137481866	 1.5395514833	-0.1538117186	-0.051443
C	 2.5076701966	 0.053031291	 0.0498179293	 0.0548
O	 2.0116299363	-0.3235981228	 1.3887817873	-0.304059
C	 0.8843314756	-0.9630434756	 0.795267089	 0.088793
C	 0.0859931153	-0.0053698077	-0.0533617371	-0.067828
C	 1.3244704085	-0.6758975243	-0.6101796828	-0.163471
H	-0.2702537146	 1.7148171425	 1.2107791123	 0.126046
H	-0.7276762668	 1.9514302435	-0.4601603211	 0.106446
H	 1.3244666869	 3.2770405348	-0.2260926437	 0.093374
H	 3.4531837171	 2.0496675553	-0.3399417377	 0.089242
H	 3.4805027804	-0.4140117795	-0.1187674386	 0.080561
H	 0.4886295409	-1.8468435847	 1.2822140257	 0.098773
H	-0.8406353423	-0.4400196986	-0.4202172154	 0.089422
H	 1.3629409094	-1.2743076664	-1.5099089993	 0.094565
171.0416	289.1102	436.9082	476.4312	521.8991	652.515	692.9499	720.0049	741.6891	799.3955	857.2739	893.5584	923.1322	928.1915	961.8405	987.6137	994.7606	1015.407	1042.0089	1052.8398	1074.1156	1089.6198	1144.8033	1187.6352	1229.7917	1241.076	1272.1156	1309.6279	1342.7466	1360.2692	1406.4557	1427.2416	1467.4928	1706.512	3010.6918	3038.973	3082.0809	3142.5958	3157.5083	3179.0045	3186.6862	3204.8123
C1C=CC2OC3C1C23	C1C=C[C@H]2O[C@H]3[C@@H]1[C@@H]23	
InChI=1S/C7H8O/c1-2-4-6-5(3-1)8-7(4)6/h1,3-7H,2H2	InChI=1S/C7H8O/c1-2-4-6-5(3-1)8-7(4)6/h1,3-7H,2H2/t4-,5+,6-,7-/m0/s1
