18
gdb 20022	3.98308	1.36408	1.19745	1.8103	68.5	-0.2628	0.0762	0.339	1070.4361	0.152499	-384.896849	-384.888545	-384.887601	-384.930146	29.846	
C	 0.5716311791	 1.2243592324	 0.3552379806	-0.376005
C	-0.1723377267	-0.0637760682	-0.0194569942	-0.230027
C	 0.287944386	-0.5997215796	-1.3528085404	 0.079979
O	 1.5505066833	-1.2899624532	-1.3951999392	-0.259729
C	 0.3769857556	-2.023947968	-1.7259333791	 0.015113
C	 0.0140005802	-3.1933107191	-0.8602935383	 0.048091
C	 1.052199666	-3.9775720386	-0.1742413361	-0.173879
O	 0.1864034459	-3.0994758079	 0.5490004358	-0.222673
H	 1.6474050609	 1.0391195446	 0.4312307957	 0.131983
H	 0.4187878642	 2.0088919665	-0.394558499	 0.110632
H	 0.2252039249	 1.6107273004	 1.3181536313	 0.114245
H	-0.0243323163	-0.8275054084	 0.7448851693	 0.143242
H	-1.2507002374	 0.1333549079	-0.0836898308	 0.096101
H	 0.167602525	 0.1005965902	-2.1845956608	 0.085243
H	 0.2802807414	-2.2656200251	-2.7887909187	 0.088718
H	-0.8995525201	-3.7040676855	-1.1702955861	 0.097931
H	 0.8986685232	-5.0394695071	 0.0089530747	 0.116364
H	 2.0847274648	-3.6439278512	-0.2461849346	 0.13467
70.4451	84.8299	151.6871	200.9099	233.5884	248.4512	341.8958	452.4562	551.6604	661.8466	735.4168	763.0437	837.7885	855.7478	907.361	947.9009	970.2377	998.544	1047.5763	1084.4142	1096.4228	1120.5678	1152.4482	1168.1562	1174.5932	1185.5395	1280.6783	1294.891	1305.128	1344.563	1406.1521	1409.6946	1432.2498	1481.3202	1492.5372	1499.1885	1509.0566	1517.9201	3028.157	3033.7247	3056.8391	3070.1902	3093.1865	3096.3932	3100.298	3114.0671	3137.5184	3192.2319
CCC1OC1C1CO1	CC[C@H]1O[C@H]1[C@H]1CO1	
InChI=1S/C6H10O2/c1-2-4-6(8-4)5-3-7-5/h4-6H,2-3H2,1H3	InChI=1S/C6H10O2/c1-2-4-6(8-4)5-3-7-5/h4-6H,2-3H2,1H3/t4-,5-,6-/m1/s1
