17
gdb 99208	4.13684	0.81918	0.80388	4.3373	65.99	-0.2623	-0.027	0.2354	1481.3112	0.131905	-496.145483	-496.135256	-496.134312	-496.182407	34.432	
C	-0.4299076994	 1.1432608582	-0.1180962576	-0.484296
C	-0.1286196524	-0.3359650929	-0.23642645	 0.381212
O	-0.6328554092	-1.1766603584	 0.4639838946	-0.277217
C	 0.8718267105	-0.7120273444	-1.3347285828	-0.188862
O	 1.0854391113	-2.1162608693	-1.3886387564	-0.219392
C	 0.1117322459	-2.829804553	-1.9776963291	 0.432527
O	-0.8372391845	-2.354373536	-2.5533773728	-0.379094
C	 0.3379859917	-4.3218558413	-1.8481070729	-0.14857
O	-0.6049346615	-5.0360944777	-2.5955639239	-0.418876
H	 0.4904731638	 1.736176755	-0.0851401959	 0.138634
H	-0.9941738801	 1.4725324068	-0.998526657	 0.156615
H	-1.0245781162	 1.3264521216	 0.7771862984	 0.154935
H	 0.5153555008	-0.3347509791	-2.2989190828	 0.150666
H	 1.8456518284	-0.2631234609	-1.11825823	 0.142305
H	 1.3582213147	-4.5571849003	-2.1800797344	 0.127532
H	 0.2876881664	-4.5662339823	-0.7750262584	 0.134622
H	-1.26103464	-4.3849737458	-2.8833992688	 0.29726
41.4328	58.9676	78.2562	94.8914	104.6781	221.2469	277.4305	317.9595	328.7712	374.2292	459.5543	480.847	570.4288	634.8402	695.9199	809.6671	846.3502	925.7815	957.2772	1036.4752	1067.7707	1103.0966	1130.6905	1187.7748	1239.9803	1253.5447	1295.0937	1321.4218	1383.1651	1390.4814	1445.252	1462.804	1468.983	1475.9525	1495.855	1809.1327	1836.8373	2990.3777	3034.6143	3037.3834	3056.718	3098.2446	3110.6257	3156.6482	3732.0442
CC(=O)COC(=O)CO	CC(=O)COC(=O)CO	
InChI=1S/C5H8O4/c1-4(7)3-9-5(8)2-6/h6H,2-3H2,1H3	InChI=1S/C5H8O4/c1-4(7)3-9-5(8)2-6/h6H,2-3H2,1H3
