20
gdb 103798	3.50498	0.94485	0.88883	19.0389	85.37	-0.1488	-0.0441	0.1046	1371.6447	0.170113	-440.22023	-440.210506	-440.209562	-440.254984	35.886	
C	 0.0346999652	 1.6622427965	 0.0305463195	-0.508299
C	-0.092646474	 0.1496699735	 0.0972928112	 0.360389
C	-1.3949197948	-0.3899950987	-0.388090794	-0.279741
N	-1.4580849015	-0.1388493005	-1.921444426	-0.412386
H	-0.6372714735	-0.5906652025	-2.3360149791	 0.325141
H	-2.310545848	-0.4747878571	-2.3746206064	 0.318636
H	-1.3594536225	 0.8677046527	-2.0805900302	 0.328866
C	 1.109566604	-0.7420691609	-0.1800192555	-0.345199
C	 0.5692581362	-0.6478900121	 1.2196080662	-0.188649
C	 1.4159217741	 0.1134238081	 2.3045053584	 0.356534
O	 2.2174960173	 0.9540755469	 1.8329975099	-0.484943
O	 1.1615297521	-0.2301645914	 3.4627240621	-0.461816
H	 0.9672251171	 1.9337544568	 0.5391659204	 0.219278
H	 0.0752947503	 2.0480223644	-1.0028940436	 0.057041
H	-0.8004881026	 2.1535152148	 0.5455955591	 0.110898
H	-1.4970763634	-1.4697967969	-0.2672414647	 0.158679
H	-2.2738610705	 0.1188827871	 0.0180605607	 0.157111
H	 0.972925767	-1.6607309404	-0.7513914217	 0.066587
H	 2.0549157374	-0.227113105	-0.3162947648	 0.150785
H	-0.0028071301	-1.4875507054	 1.6047925885	 0.071089
69.6499	82.8295	126.8808	198.9864	224.2814	250.3702	278.6266	310.4033	358.9277	383.071	435.1211	510.6535	655.9579	672.4071	746.3063	786.9854	820.5639	831.2478	870.3342	917.6711	950.3587	971.5009	987.3307	1050.1727	1067.1423	1103.8249	1124.1139	1141.877	1215.4428	1289.7491	1308.2305	1328.4022	1352.7635	1369.5156	1405.1328	1429.4346	1449.0041	1476.5175	1484.9351	1522.6405	1622.7273	1656.7957	1775.5662	2946.0206	3035.9311	3069.429	3074.0637	3079.8509	3140.1966	3147.3481	3203.4695	3383.5564	3476.7417	3500.0324
CC1(C[NH3+])CC1C([O-])=O	C[C@@]1(C[NH3])C[C@H]1C(=O)[O]	
InChI=1S/C6H11NO2/c1-6(3-7)2-4(6)5(8)9/h4H,2-3,7H2,1H3,(H,8,9)	InChI=1S/C6H11NO2/c1-6(3-7)2-4(6)5(8)9/h4H,2-3H2,1,7H3/t4-,6-/m0/s1
