21
gdb 106507	3.19938	1.40928	1.22361	1.1398	83.09	-0.2334	0.0195	0.2529	1112.8006	0.183858	-387.079814	-387.071823	-387.070879	-387.111873	32.369	
C	 0.1071193463	 1.3768716687	 0.1352983114	-0.261465
O	-0.1512099498	 0.0112723265	-0.1142428618	-0.307976
C	 0.593313198	-0.5341520783	-1.1686467775	 0.417113
C	 2.156082382	-0.5462612378	-1.1154477671	-0.277469
C	 2.0418405568	-1.8847379303	-1.9052753915	-0.036567
C	 0.6611371326	-2.0811905136	-1.2090027834	-0.26847
C	 1.8602593901	-1.6059958121	-3.4085201432	-0.252411
C	 0.7785799255	-0.5700678343	-3.6147957132	-0.07357
C	 0.1704005847	-0.051909137	-2.5484629393	-0.120706
H	 1.1594724756	 1.5489593441	 0.4042174006	 0.109492
H	-0.1336128644	 2.0142305043	-0.72811322	 0.105895
H	-0.525018158	 1.6739224268	 0.975386239	 0.125651
H	 2.6960933168	 0.2843589831	-1.5761133485	 0.091413
H	 2.5135249254	-0.716833368	-0.096089773	 0.09881
H	 2.8077533426	-2.6411096418	-1.725461898	 0.065546
H	 0.7773254127	-2.4889163972	-0.2017334153	 0.100773
H	-0.1309118558	-2.6084372576	-1.7452113025	 0.0951
H	 2.8081279705	-1.2668904451	-3.8503390453	 0.104136
H	 1.5996340817	-2.5335079767	-3.937916092	 0.105247
H	 0.5094634743	-0.2846699623	-4.6277672666	 0.087713
H	-0.6369459978	 0.6697853285	-2.6207907227	 0.091743
120.4905	177.5575	187.5753	281.5014	336.6565	360.3935	415.3734	457.296	490.3252	523.8258	631.5005	694.4917	709.5822	822.1032	860.0422	888.6293	906.5336	936.4796	964.5607	975.8405	997.4242	999.0192	1060.8277	1077.6913	1088.4683	1100.3628	1155.7386	1167.6518	1183.4058	1210.9059	1218.3075	1220.5519	1256.3534	1273.9416	1280.2576	1323.0719	1362.4704	1400.6705	1472.0411	1473.2811	1480.0857	1489.2812	1507.1357	1510.3649	1698.6134	2987.1245	3001.8766	3025.8403	3034.5234	3052.1148	3061.4625	3089.1757	3115.0042	3116.213	3123.2431	3160.7129	3188.4675
COC12CC(C1)CC=C2	CO[C@@]12C[C@@H](C1)CC=C2	
InChI=1S/C8H12O/c1-9-8-4-2-3-7(5-8)6-8/h2,4,7H,3,5-6H2,1H3	InChI=1S/C8H12O/c1-9-8-4-2-3-7(5-8)6-8/h2,4,7H,3,5-6H2,1H3/t7-,8-
