18
gdb 126752	2.11762	1.61604	0.98684	3.5546	76.6	-0.2132	0.0052	0.2183	1220.9589	0.147074	-435.257581	-435.248246	-435.247302	-435.292936	32.407	
C	-0.1214777985	 1.5418139423	 0.1680097694	-0.380619
C	 0.0662180454	 0.0292943302	 0.0464989533	-0.155369
N	 0.7721131244	-0.5445478272	 1.1824735339	-0.126747
C	 2.0762530839	-0.9188393047	 1.2909024451	 0.057964
N	 2.399392231	-1.3813716397	 2.4504986361	-0.146556
O	 1.1871293707	-1.3046587996	 3.204843552	-0.259875
C	 0.1869834517	-0.7887697576	 2.421321218	 0.544447
N	-1.0184254587	-0.5725368838	 2.7256407828	-0.401861
C	-1.4514986616	-0.913099747	 4.0730885686	-0.321916
H	 0.8419403359	 2.0588770654	 0.2108755082	 0.12127
H	-0.6766512289	 1.9188456706	-0.6959864571	 0.124069
H	-0.6877989486	 1.7734075103	 1.0726826144	 0.158613
H	-0.9072160351	-0.4669208894	-0.0054141623	 0.147385
H	 0.6282322323	-0.230858598	-0.8553918355	 0.117989
H	 2.7825218745	-0.843883109	 0.4768854292	 0.162024
H	-0.947164422	-0.3030499006	 4.8350857221	 0.120554
H	-2.5262231049	-0.7336007791	 4.1550115908	 0.117892
H	-1.2603632514	-1.9658977629	 4.3218319311	 0.120736
52.1056	55.4893	99.5397	167.8748	181.1632	230.9901	263.5802	306.0857	405.9641	543.0337	596.3104	637.1721	729.7012	743.7176	790.613	878.8002	891.7668	924.7784	964.7905	1071.551	1093.8158	1120.8143	1124.0276	1140.9348	1178.9984	1230.1294	1282.7667	1376.3789	1393.3308	1411.5965	1443.5543	1448.3513	1475.6295	1490.0972	1491.1784	1501.7561	1508.1802	1649.9462	1792.8744	2997.5688	3045.7509	3045.9356	3057.2407	3101.5417	3103.6633	3119.5236	3140.7581	3256.6413
CCN1C=NOC1=NC	CCn1cnoc1=NC	
InChI=1S/C5H9N3O/c1-3-8-4-7-9-5(8)6-2/h4H,3H2,1-2H3	InChI=1S/C5H9N3O/c1-3-8-4-7-9-5(8)6-2/h4H,3H2,1-2H3
