23
gdb 112700	2.9245	1.03364	0.82621	1.2111	89.88	-0.2332	0.0254	0.2586	1496.4967	0.204556	-388.305529	-388.295395	-388.294451	-388.340795	37.405	
C	-0.1383063071	 1.3907269596	 0.019302268	-0.234615
O	 0.1436099806	 0.0136960221	 0.07188986	-0.244309
C	 0.6896570093	-0.5133740522	-1.1328153498	 0.106465
C	 1.2449194996	-1.9221656682	-0.8488331141	-0.259827
C	 0.8870094586	-2.7907553413	-2.0794161908	-0.066317
C	 0.5118180921	-4.2349290175	-1.7243903216	-0.402063
C	-0.2170281478	-1.9872873143	-2.7531758329	 0.337211
C	-1.0147580686	-2.5430424236	-3.8923636982	-0.494653
C	-0.3139236545	-0.7613093537	-2.2351309249	-0.215387
H	 0.7566609994	 1.9814707354	-0.2359224925	 0.099665
H	-0.9259377873	 1.6348123361	-0.7099482326	 0.102624
H	-0.4839488304	 1.6895962246	 1.0124790235	 0.123422
H	 1.4809231623	 0.1760518424	-1.4791617588	 0.059725
H	 2.3131674158	-1.9215808686	-0.6187321403	 0.09468
H	 0.7166976491	-2.2960136164	 0.0346461166	 0.115568
H	 1.747755787	-2.8311633849	-2.7653157108	 0.075118
H	-0.3700506314	-4.2604930637	-1.0744464483	 0.117695
H	 0.2926893925	-4.8296227731	-2.6170207683	 0.111535
H	 1.3327892155	-4.7277562864	-1.1932329363	 0.114804
H	-1.5851159386	-3.4291324202	-3.58874694	 0.129893
H	-1.7193056598	-1.8058276308	-4.2863625784	 0.121822
H	-0.3607084107	-2.8622189531	-4.7144439402	 0.123282
H	-0.9996690555	 0.0032763778	-2.5852447992	 0.083662
52.9379	94.5519	135.3546	177.6902	205.6228	233.3662	254.3715	263.1495	333.8513	349.0261	440.8692	479.0193	551.2561	599.8699	657.2197	768.5648	854.3015	885.1556	916.1021	952.14	982.6765	1014.4632	1030.0807	1053.2529	1073.97	1121.0992	1132.3558	1142.9615	1177.058	1182.4875	1224.6715	1241.1209	1277.1526	1300.077	1323.4771	1337.9959	1358.1975	1385.6847	1406.5343	1414.8567	1477.1081	1479.7941	1485.6059	1487.121	1490.5094	1499.5534	1502.4137	1509.8556	1718.3024	2928.1973	2967.5101	2975.4116	3012.5481	3018.4972	3028.5451	3054.1511	3066.4515	3097.4768	3099.8581	3105.3234	3106.3413	3111.6226	3182.8324
COC1CC(C)C(C)=C1	CO[C@H]1C[C@@H](C)C(=C1)C	
InChI=1S/C8H14O/c1-6-4-8(9-3)5-7(6)2/h4,7-8H,5H2,1-3H3	InChI=1S/C8H14O/c1-6-4-8(9-3)5-7(6)2/h4,7-8H,5H2,1-3H3/t7-,8-/m1/s1
