19
gdb 122262	2.76418	0.83351	0.70554	2.7864	78.33	-0.2612	0.0255	0.2867	1614.1691	0.155874	-422.961342	-422.951194	-422.950249	-422.997302	36.274	
O	 0.0442882138	 1.349470623	 0.4260868731	-0.420262
C	 0.0571018465	-0.0025776239	-0.0037868015	-0.07614
C	-1.35352403	-0.5543421169	 0.1508578575	-0.165501
C	-1.4638801442	-2.0155794118	-0.2975162451	-0.293092
C	-2.8643633846	-2.5783652117	-0.121852112	 0.21353
C	-3.0572370724	-3.97078621	 0.3349068831	-0.216442
O	-3.2277356334	-2.8855311674	 1.2397126588	-0.262261
C	-3.9055007304	-1.9593848846	-0.9118825222	 0.318053
C	-4.7458570728	-1.4328037609	-1.5911401759	-0.44543
H	 0.9355029853	 1.7005324839	 0.3428199624	 0.285268
H	 0.3757942244	-0.0834575881	-1.0568523246	 0.082174
H	 0.7613650206	-0.6049140927	 0.5942078478	 0.083578
H	-1.6549211907	-0.4691174415	 1.2004833944	 0.123065
H	-2.0408576509	 0.0695676991	-0.4305424391	 0.121005
H	-1.1782595891	-2.1126342749	-1.3526637425	 0.108481
H	-0.777056503	-2.6409351768	 0.2842110038	 0.105282
H	-3.9668234031	-4.5015489734	 0.0601176531	 0.123005
H	-2.1793899445	-4.594147311	 0.5030307905	 0.114849
H	-5.4971195217	-0.9684035005	-2.1811706115	 0.200838
53.4077	74.7408	107.7524	132.9629	172.8154	221.4551	261.4835	294.1833	325.9999	393.5986	472.2579	550.6173	582.1534	624.0236	663.9496	713.4618	758.3137	823.0504	886.0856	915.0117	958.1359	1030.2815	1051.9422	1083.8683	1099.1456	1133.9047	1168.3567	1205.4983	1233.389	1256.04	1296.5813	1309.9167	1317.7053	1365.356	1399.6212	1465.0553	1471.1233	1500.7462	1519.3683	1528.9648	2237.6469	2952.7528	2977.4356	3026.1347	3049.5549	3067.5251	3081.5665	3098.5148	3174.6496	3501.0814	3831.4872
OCCCC1(CO1)C#C	OCCC[C@]1(CO1)C#C	
InChI=1S/C7H10O2/c1-2-7(6-9-7)4-3-5-8/h1,8H,3-6H2	InChI=1S/C7H10O2/c1-2-7(6-9-7)4-3-5-8/h1,8H,3-6H2/t7-/m0/s1
