20
gdb 12565	3.10295	1.83099	1.26515	2.194	70.8	-0.2529	0.0791	0.332	1002.5266	0.178691	-386.141595	-386.133647	-386.132703	-386.173835	30.156	
C	 0.0207038409	 1.5571089168	 0.0498255155	-0.402327
C	-0.0152475251	 0.0231036063	-0.006597528	 0.01998
C	 0.6381745939	-0.4878657453	-1.304564927	-0.232291
C	 0.2590662224	-1.9196482421	-1.7114964324	-0.075568
O	 0.0889432038	-2.8472518099	-0.6462078143	-0.234994
C	 0.9804901769	-2.7724543659	 0.4302054888	 0.015173
O	 0.5305334168	-1.9324590727	 1.4571828631	-0.232803
C	 0.6946236628	-0.54375678	 1.2365154476	-0.06915
H	 1.0514094614	 1.9306633034	 0.0176105867	 0.115282
H	-0.5142119559	 1.993273919	-0.7993159132	 0.116175
H	-0.441503819	 1.935383799	 0.9673266144	 0.115754
H	-1.0605338123	-0.3093070862	 0.027064317	 0.09087
H	 0.3633424013	 0.1636874861	-2.1433078129	 0.098355
H	 1.727498407	-0.3946853308	-1.2048053707	 0.099204
H	-0.7089653002	-1.9138772592	-2.223575363	 0.111601
H	 1.0024267859	-2.3025346197	-2.4281130489	 0.091806
H	 1.0191416261	-3.7736830482	 0.8671179085	 0.112932
H	 1.9897337096	-2.47446804	 0.0949513268	 0.072797
H	 1.7693523053	-0.2946186841	 1.1741891185	 0.082004
H	 0.2995042585	-0.0662188764	 2.1386109935	 0.105199
83.2436	166.3937	206.0888	225.8177	311.0042	334.8559	371.1979	425.5214	450.6517	567.0127	621.8905	806.0451	829.6246	888.4862	943.3135	952.1568	977.2428	988.2646	1037.5284	1070.0479	1120.6655	1129.0326	1158.1742	1172.0271	1211.9132	1258.5111	1279.9873	1297.9393	1323.9827	1344.6968	1353.7528	1391.2222	1405.9869	1413.0249	1427.4282	1445.655	1483.6385	1494.4901	1499.8623	1503.0249	1506.0378	1516.1333	2943.4482	2949.9628	2981.7664	3017.6178	3026.7013	3034.5605	3047.381	3071.4019	3076.1505	3093.5564	3095.1459	3104.8556
CC1CCOCOC1	C[C@H]1CCOCOC1	
InChI=1S/C6H12O2/c1-6-2-3-7-5-8-4-6/h6H,2-5H2,1H3	InChI=1S/C6H12O2/c1-6-2-3-7-5-8-4-6/h6H,2-5H2,1H3/t6-/m0/s1
