20
gdb 56884	3.01603	1.05068	0.9049	1.403	81.02	-0.2268	0.0437	0.2705	1346.3311	0.168967	-403.082445	-403.072782	-403.071838	-403.11698	36.166	
C	-0.001025015	 1.5230588527	-0.0685460039	-0.388011
C	-0.0560071157	-0.0109227912	-0.0040191264	-0.124072
C	-1.4359464813	-0.4835893578	 0.2179506882	 0.341805
C	-2.5609191721	-0.8868315385	 0.3590094305	-0.499503
N	 0.5702688121	-0.5859731163	-1.191538752	-0.087114
C	-0.0834876781	-0.4726379086	-2.5182302805	-0.211819
C	 0.5082321079	-1.8632705707	-2.8693136447	 0.146357
O	 1.7123844484	-1.8371336842	-3.5975525673	-0.437834
C	 0.6621893939	-2.0563851704	-1.3381137053	-0.211985
H	 1.0350164396	 1.8458905687	-0.1983093801	 0.122494
H	-0.5923161863	 1.8946105488	-0.9104869489	 0.129345
H	-0.4048900324	 1.9616634326	 0.8471674489	 0.126596
H	 0.5507504165	-0.3394362151	 0.8509461117	 0.109865
H	-3.5529914776	-1.2385617079	 0.5015771409	 0.198782
H	-1.1822562609	-0.4869876836	-2.4686892256	 0.10218
H	 0.247614147	 0.3713456964	-3.1324008155	 0.100861
H	-0.1499238091	-2.5600096586	-3.3888991267	 0.093574
H	 2.3057134099	-1.2231896726	-3.1495478022	 0.286844
H	 1.599832762	-2.5002972805	-0.9854644566	 0.099375
H	-0.1909335488	-2.5942337432	-0.8987107845	 0.102258
75.472	86.8549	140.809	173.6648	215.6642	242.4034	309.3228	361.3917	391.2912	432.6205	447.5429	551.9487	560.1757	628.875	656.2247	705.3294	818.3701	851.2842	859.4076	923.8612	973.5629	1008.7859	1021.6824	1053.548	1092.0654	1127.6925	1136.387	1150.1131	1193.434	1213.4097	1245.0894	1275.1447	1316.3729	1326.1051	1333.306	1361.323	1401.8409	1441.0495	1486.7724	1491.3994	1497.1784	1515.614	2218.1479	2991.5095	2999.6192	3013.4258	3047.6952	3063.8785	3069.6632	3115.3718	3123.2095	3132.495	3501.1821	3797.2473
CC(C#C)N1CC(O)C1	C[C@@H](C#C)N1C[C@@H](O)C1	
InChI=1S/C7H11NO/c1-3-6(2)8-4-7(9)5-8/h1,6-7,9H,4-5H2,2H3	InChI=1S/C7H11NO/c1-3-6(2)8-4-7(9)5-8/h1,6-7,9H,4-5H2,2H3/t6-/m0/s1
