14
gdb 14542	4.93456	1.6084	1.46477	1.7993	64.1	-0.2326	0.0207	0.2533	856.2965	0.105354	-382.445497	-382.438328	-382.437384	-382.476526	27.628	
O	-0.0340942624	 1.3802340212	 0.0024137508	-0.472904
C	-0.0233924784	-0.0144343758	 0.0109638236	 0.21806
C	 1.0708295871	-0.6025374396	 0.7328439109	 0.274622
C	 1.9762505354	-1.1176984412	 1.3331382679	-0.397483
C	-1.3344434364	-0.8160791651	 0.0565839985	-0.186026
C	-2.3690992122	-0.0465393887	-0.7508225865	-0.121748
O	-1.4567651821	 0.0478347196	-1.8929681381	-0.306234
C	-0.5048178127	-0.7681383789	-1.2078208714	 0.010261
H	-0.3150417698	 1.6352573552	-0.8880734547	 0.296857
H	 2.7820499372	-1.5599686991	 1.8649761808	 0.195532
H	-1.5138899615	-1.6109977335	 0.7664500436	 0.118323
H	-3.2474784328	-0.6376715912	-1.0250887741	 0.124074
H	-2.6673537865	 0.9377885267	-0.3776418041	 0.124737
H	 0.0645946152	-1.4926855496	-1.7778604471	 0.121929
145.2051	149.6249	254.6576	271.2971	419.3817	426.5014	489.0485	532.5535	569.9096	586.027	687.7956	700.6971	777.5086	846.4161	908.3754	934.865	966.4697	995.0533	1029.8606	1062.7703	1095.5536	1133.1476	1163.0445	1229.525	1241.8331	1300.0098	1377.0486	1407.6696	1503.3783	2238.853	3048.7651	3105.3886	3186.3206	3219.0496	3502.1636	3739.3293
OC1(C#C)C2COC12	O[C@@]1(C#C)[C@H]2CO[C@@H]12	
InChI=1S/C6H6O2/c1-2-6(7)4-3-8-5(4)6/h1,4-5,7H,3H2	InChI=1S/C6H6O2/c1-2-6(7)4-3-8-5(4)6/h1,4-5,7H,3H2/t4-,5+,6-/m0/s1
