21
gdb 105395	2.54137	1.07713	0.86436	3.6102	79.29	-0.2436	-0.0204	0.2233	1385.4461	0.179302	-424.219716	-424.209302	-424.208358	-424.256004	37.498	
C	-1.5641876484	 0.0593814129	-0.3717950219	-0.389526
C	-0.0734809425	-0.0394032832	-0.0237888298	-0.24429
C	 0.7743666155	-0.6868372292	-1.1133192829	 0.316929
C	 0.8305387245	 0.0588256656	-2.4418922154	-0.355172
C	 1.4952261642	 1.4141839237	-2.3106238554	 0.170435
O	 1.038967073	 2.4492440926	-2.7234409998	-0.244787
C	 2.0336027005	-1.4290074106	-0.679330023	-0.385293
C	 0.8265818295	-2.1907447049	-1.1700180075	 0.063514
O	 0.0282048521	-2.8924973119	-0.2622456785	-0.420628
H	-1.7406790228	 0.6906028669	-1.2482655384	 0.122577
H	-1.9783692914	-0.932784113	-0.5731168818	 0.133813
H	-2.1227391866	 0.4968967094	 0.461330331	 0.112377
H	 0.3242723208	 0.9617298801	 0.1898219586	 0.099277
H	 0.0372004167	-0.6220804155	 0.8943016952	 0.107497
H	 1.4293628881	-0.5221045304	-3.1580820349	 0.113646
H	-0.1612257865	 0.1998197907	-2.8809575592	 0.125339
H	 2.4791804514	 1.3904201678	-1.7867085496	 0.074745
H	 2.9177432248	-1.3936983648	-1.3078710996	 0.109155
H	 2.2374397899	-1.4673616359	 0.3857343239	 0.11587
H	 0.8893847047	-2.6465101459	-2.1589770779	 0.084126
H	 0.5282279323	-3.6533619845	 0.0507637569	 0.290395
36.5376	65.5583	94.2865	159.1354	190.3679	253.5886	269.2949	285.3871	296.3578	335.5598	414.2538	468.9941	487.0561	588.1628	699.414	781.254	787.0715	844.5724	905.1603	920.2344	955.9995	1020.7632	1024.3289	1042.2275	1061.8947	1085.4996	1108.7041	1129.8333	1176.4628	1204.413	1254.6667	1285.5681	1295.0593	1333.088	1339.659	1383.7353	1409.878	1425.6069	1428.8275	1458.6065	1479.1395	1491.7513	1504.6003	1506.6817	1833.0539	2861.6008	3013.4618	3021.271	3041.0082	3086.8486	3088.3261	3094.9483	3108.9892	3119.6504	3125.1486	3213.184	3807.7726
CCC1(CC=O)CC1O	CC[C@@]1(CC=O)C[C@H]1O	
InChI=1S/C7H12O2/c1-2-7(3-4-8)5-6(7)9/h4,6,9H,2-3,5H2,1H3	InChI=1S/C7H12O2/c1-2-7(3-4-8)5-6(7)9/h4,6,9H,2-3,5H2,1H3/t6-,7-/m1/s1
