25
gdb 112969	4.70473	0.72461	0.6781	0.1217	94.06	-0.2629	0.0859	0.3488	1792.2325	0.22908	-352.340203	-352.330347	-352.329403	-352.375548	37.398	
C	 0.4412149327	 1.7666475486	 0.5240739619	-0.377976
C	 0.5389431917	 0.3295555696	 0.001755531	-0.195839
C	 0.390969945	-0.7198429924	 1.0959868321	 0.078263
C	-0.9990120637	-0.9063052899	 1.7736390016	-0.247462
C	-0.8001945638	-2.4523786963	 1.7141405908	-0.000266
C	 0.3518711026	-2.2201797576	 0.688716672	-0.265303
C	-0.3620679337	-3.0762083079	 3.0163464027	 0.048177
C	-1.3794863857	-3.659158314	 3.9645569085	-0.276065
C	-0.4382285015	-4.5695609093	 3.2114689571	-0.275782
H	 1.2300818866	 1.9755854518	 1.2555214212	 0.111903
H	 0.5381137176	 2.4951206292	-0.2870411435	 0.109655
H	-0.5206653074	 1.9440808983	 1.0173899471	 0.117891
H	-0.2351462828	 0.1616454263	-0.7599596153	 0.08766
H	 1.5020980681	 0.1877031876	-0.5070758502	 0.091751
H	 1.1615483555	-0.5554947091	 1.8591823027	 0.063966
H	-1.147332566	-0.4679965769	 2.7643549315	 0.093399
H	-1.8126607034	-0.571010143	 1.1215519871	 0.089801
H	-1.6573704928	-3.0120189029	 1.324788712	 0.055501
H	 0.0147924939	-2.349007522	-0.345107064	 0.090065
H	 1.2636211974	-2.8073323839	 0.8302625523	 0.092747
H	 0.488273229	-2.5847837099	 3.4851810203	 0.075452
H	-1.2304157952	-3.531943083	 5.0312477457	 0.107652
H	-2.4209253577	-3.645028036	 3.6589827514	 0.108574
H	-0.8501834256	-5.1640420294	 2.4021638428	 0.108601
H	 0.3531696892	-5.063794958	 3.7642974111	 0.107636
56.0021	67.5547	116.0123	147.831	215.0165	235.8368	274.1749	290.811	391.2458	432.0755	468.6438	665.7935	743.5984	780.7405	806.6069	813.133	825.1894	868.7213	923.1525	924.1623	939.7654	962.8342	978.2206	989.8884	1026.2223	1037.8561	1056.4154	1073.4017	1079.6555	1117.2912	1137.2193	1143.9725	1196.6406	1209.9478	1215.8397	1227.1075	1256.6291	1261.9103	1273.9066	1277.5102	1304.0211	1316.6274	1344.9005	1390.8305	1410.3167	1429.708	1469.6716	1471.1199	1483.9453	1495.3154	1499.9372	1506.1882	1507.4759	3005.9123	3021.343	3029.6857	3033.9812	3039.3203	3042.643	3050.1181	3094.6838	3095.3511	3097.8563	3101.1704	3123.5429	3126.2251	3131.7751	3203.5004	3218.7167
CCC1CC(C1)C1CC1	CC[C@H]1C[C@@H](C1)C1CC1	
InChI=1S/C9H16/c1-2-7-5-9(6-7)8-3-4-8/h7-9H,2-6H2,1H3	InChI=1S/C9H16/c1-2-7-5-9(6-7)8-3-4-8/h7-9H,2-6H2,1H3/t7-,9-
