23
gdb 121397	4.08494	0.7862	0.69364	1.9475	82.03	-0.2554	0.0813	0.3367	1687.8997	0.207042	-425.435329	-425.425972	-425.425028	-425.470011	34.967	
C	-0.085083687	 1.611437472	 0.0574804924	-0.380302
C	-0.0029664473	 0.0840264131	-0.0135585372	-0.174706
C	 0.7597772618	-0.5240452304	 1.1714382109	-0.185875
C	 0.7987817814	-2.0572453205	 1.192637605	-0.007984
C	 1.6149031458	-2.6599270445	 0.0390761862	-0.087854
O	 1.7138639076	-4.0722799097	 0.1669399919	-0.236357
C	 2.2736866933	-4.432366034	 1.4003494497	 0.015228
O	 1.5089085246	-3.9991268072	 2.4923891644	-0.235658
C	 1.397338041	-2.5826671543	 2.5053463071	-0.100925
H	 0.9135031471	 2.0624867382	 0.056470234	 0.114773
H	-0.6359711348	 2.0216501812	-0.7944535638	 0.113739
H	-0.5930116391	 1.9376916314	 0.9718776659	 0.115191
H	-1.0162232885	-0.3375771687	-0.0430476276	 0.09957
H	 0.4749020717	-0.2070528386	-0.9569867079	 0.101639
H	 1.7871206996	-0.1319886897	 1.1825333768	 0.093482
H	 0.296634026	-0.1730128653	 2.1044006929	 0.094516
H	-0.2232208322	-2.4505343383	 1.1162584287	 0.086174
H	 1.1524035009	-2.4730578787	-0.9327089307	 0.112019
H	 2.6251607987	-2.2116653598	 0.0284901895	 0.083501
H	 2.2978058519	-5.5232859314	 1.4365815455	 0.116111
H	 3.3008563938	-4.0227042351	 1.4779880259	 0.069883
H	 2.3922039724	-2.1299202318	 2.6678424873	 0.083684
H	 0.7669693912	-2.3266308681	 3.3617472831	 0.110151
69.1581	80.4778	119.5348	197.1932	248.1358	259.9678	296.1227	333.0265	395.8625	450.3129	473.9332	534.9472	677.359	741.6189	844.0462	895.4234	910.7385	911.685	964.7078	968.3991	1020.0561	1044.03	1066.673	1073.0945	1090.0724	1144.6267	1161.7992	1189.4372	1214.1928	1239.6385	1254.6503	1291.585	1322.8025	1328.2473	1336.003	1347.2734	1364.8933	1387.2269	1401.2896	1411.9332	1421.8758	1444.4616	1482.3164	1492.0967	1495.1507	1498.0053	1499.6928	1509.6533	1512.0611	2903.1234	2942.9031	2951.7131	2998.8617	3021.3338	3023.0849	3029.7343	3035.3843	3059.3197	3085.1931	3096.3486	3099.693	3103.5611	3113.0807
CCCC1COCOC1	CCCC1COCOC1	
InChI=1S/C7H14O2/c1-2-3-7-4-8-6-9-5-7/h7H,2-6H2,1H3	InChI=1S/C7H14O2/c1-2-3-7-4-8-6-9-5-7/h7H,2-6H2,1H3
