19
gdb 110875	2.47685	1.53008	1.25374	2.3805	70.46	-0.2465	0.0775	0.324	1080.882	0.1592	-460.137178	-460.128758	-460.127814	-460.170457	32.061	
C	 0.374071191	 1.4989154276	 0.2433483095	-0.41421
C	 0.2123924561	-0.0006553391	 0.2098480579	 0.226021
O	 0.6825103112	-0.5381934523	-1.0219418807	-0.262254
C	 1.0957592229	-1.8546826411	-0.7373333015	 0.026193
C	 2.4991423678	-2.0111848296	-0.1660051963	-0.099427
C	 3.5094425152	-0.8742873065	-0.2030448747	-0.096026
O	 3.957501911	-0.4923153569	 1.0868835863	-0.428917
C	 1.2914323431	-1.9184244155	 0.7426084031	 0.024423
O	 1.0008402513	-0.6201222317	 1.2284154379	-0.279176
H	 1.4260253957	 1.768152895	 0.1222419882	 0.140126
H	-0.2064903873	 1.9507199016	-0.5645958165	 0.136393
H	 0.0111133266	 1.8894413025	 1.197353911	 0.133824
H	-0.8406199807	-0.2995652844	 0.3521476517	 0.077573
H	 0.6267333974	-2.6257460228	-1.3385125809	 0.107306
H	 2.9057255396	-3.016201256	-0.2470880922	 0.096483
H	 4.3984016422	-1.1969822389	-0.7529330458	 0.108392
H	 3.0793623385	-0.0252453949	-0.7492107269	 0.104458
H	 3.1672437628	-0.2129199376	 1.5649825979	 0.29015
H	 0.9760870556	-2.7318228893	 1.3862523819	 0.108669
66.5506	122.8988	159.996	212.4129	261.7793	315.9834	348.1045	493.8185	514.4356	559.8569	627.3275	707.5297	751.4105	781.7083	792.7509	849.5253	880.7369	898.1184	998.2617	1036.8406	1054.8014	1071.1809	1087.3353	1101.5936	1108.4853	1126.7638	1130.4311	1163.0075	1191.4536	1240.3119	1302.1127	1338.3099	1370.4921	1390.7052	1399.8887	1405.52	1431.9842	1441.5981	1484.0105	1485.5007	1509.8953	2955.4395	3023.8362	3055.9957	3082.8603	3136.5068	3139.4932	3143.3745	3165.5797	3176.9927	3785.2664
CC1OC2C(CO)C2O1	C[C@H]1O[C@H]2[C@@H](CO)[C@H]2O1	
InChI=1S/C6H10O3/c1-3-8-5-4(2-7)6(5)9-3/h3-7H,2H2,1H3	InChI=1S/C6H10O3/c1-3-8-5-4(2-7)6(5)9-3/h3-7H,2H2,1H3/t3-,4+,5-,6+
