19
gdb 88018	2.79841	1.32291	1.12115	1.2855	76.07	-0.2501	0.0654	0.3155	1150.4217	0.157805	-422.97004	-422.96143	-422.960486	-423.003513	32.945	
O	 0.0409005878	 1.3253558535	 0.053859835	-0.422582
C	-0.0174264981	-0.0675638996	 0.1552077195	 0.019746
C	-0.7546437132	-0.7090735355	 1.3049018346	-0.381837
C	-1.3615970689	-0.67422512	-0.0767090772	 0.28469
C	-2.6554833672	 0.038391892	-0.4994959614	-0.313345
C	-3.1300650085	-1.2885412734	-1.1800348945	-0.325687
C	-1.7419149557	-1.8818076192	-0.9067110008	 0.391683
C	-0.9126146251	-2.7557896221	-1.7381024858	-0.269425
O	-1.5051637235	-3.2229401789	-0.5149346156	-0.273214
H	 0.6507366841	 1.6479475266	 0.7256556356	 0.289365
H	 0.8514500838	-0.595170264	-0.2421294501	 0.083899
H	-0.4035658415	-1.6678192316	 1.673291782	 0.125451
H	-1.1875616853	-0.0483150936	 2.0496471513	 0.113832
H	-3.2873042054	 0.4027507515	 0.3128981312	 0.10568
H	-2.4809523848	 0.8560761429	-1.2019958027	 0.119695
H	-3.910220582	-1.8075915299	-0.6176035562	 0.119331
H	-3.4331804006	-1.2204034542	-2.2271916211	 0.107129
H	-1.3250118912	-3.1854821813	-2.6506275015	 0.113727
H	 0.1724343653	-2.6580404432	-1.7230648522	 0.111861
53.9584	134.8741	157.2255	233.6513	282.8508	302.0556	333.7328	434.6642	466.5166	517.1702	552.4154	635.0986	757.919	816.1208	837.2762	879.4517	887.4249	909.4859	927.5061	950.9419	1009.4799	1024.4319	1077.5736	1107.28	1116.0182	1125.4375	1146.9252	1162.7777	1181.4858	1194.8743	1222.9704	1249.0275	1252.6194	1298.6959	1342.3656	1412.8671	1436.7516	1469.9427	1487.9911	1497.9417	1539.0724	3065.0662	3072.5719	3076.135	3082.8319	3111.9712	3121.6485	3128.8711	3161.7313	3215.6227	3804.9144
OC1CC11CCC11CO1	O[C@H]1C[C@]21CC[C@]12CO1	
InChI=1S/C7H10O2/c8-5-3-6(5)1-2-7(6)4-9-7/h5,8H,1-4H2	InChI=1S/C7H10O2/c8-5-3-6(5)1-2-7(6)4-9-7/h5,8H,1-4H2/t5-,6-,7+/m0/s1
