13
gdb 8963	5.33332	1.00092	0.84727	2.7685	68.15	-0.2585	-0.0455	0.213	1244.3455	0.093962	-357.616445	-357.607706	-357.606762	-357.650865	29.542	
N	-0.0439741856	 1.3621280801	 0.1352693984	-0.528859
C	-0.0237561273	 0.0853457727	 0.0299346021	 0.313781
N	-1.1651815391	-0.6535558076	-0.0234907498	-0.325892
C	-2.4648301295	-0.0093131847	 0.125502068	-0.27309
C	-3.5374573034	-0.9897976472	 0.0386159107	 0.249649
C	-4.4115143567	-1.8103778029	-0.0277332329	-0.398198
C	 1.1978658439	-0.7009053161	-0.0578444542	 0.230963
N	 2.1909662921	-1.2897461142	-0.1189935803	-0.317577
H	 0.8957346401	 1.7490968013	 0.1324705974	 0.242776
H	-1.1165038883	-1.6566922958	 0.0230607373	 0.274732
H	-2.5103527706	 0.5299243237	 1.0821075496	 0.157628
H	-2.5728222965	 0.7562981592	-0.6528247725	 0.164772
H	-5.195102429	-2.5251552084	-0.0876465138	 0.209315
35.7749	83.8661	103.0292	198.3625	226.7377	268.0125	325.6155	358.0737	470.7183	526.4334	620.9098	622.7641	686.9342	724.109	821.7718	897.4157	997.4898	1002.9241	1086.3896	1170.8601	1244.3383	1295.5498	1386.5554	1496.666	1535.3113	1681.0082	2250.3449	2350.0872	3013.5489	3045.6041	3503.0674	3539.6846	3674.6436
N=C(NCC#C)C#N	N=C(NCC#C)C#N	
InChI=1S/C5H5N3/c1-2-3-8-5(7)4-6/h1H,3H2,(H2,7,8)	InChI=1S/C5H5N3/c1-2-3-8-5(7)4-6/h1H,3H2,(H2,7,8)
