18
gdb 16499	3.61103	2.28285	1.9214	1.5781	70.02	-0.24	0.0919	0.3319	779.7881	0.155605	-347.754709	-347.748272	-347.747328	-347.784771	26.801	
C	 0.0306855368	 1.4612176003	 0.0008051591	-0.482486
C	-0.0337954443	-0.0443738752	-0.0089874697	 0.36473
C	-0.9046874721	-0.8241662329	 0.9443004392	-0.359052
C	 0.599602491	-0.9365870761	 1.0475539455	-0.081647
C	 1.3613643928	-1.8926889543	 0.1095588425	 0.067231
C	 0.3594593756	-2.2916752746	-0.9953654448	-0.24515
C	 0.5294780312	-0.779921863	-1.2514165139	 0.008067
O	 1.9432804924	-0.9461580583	-0.864321325	-0.304562
H	 1.0143169646	 1.8032783422	-0.3385910704	 0.131633
H	-0.7281961282	 1.9026583583	-0.6564459616	 0.114096
H	-0.1344784612	 1.8588383916	 1.0072695236	 0.11375
H	-1.3776853742	-0.2333650271	 1.7246072356	 0.108779
H	-1.5136158368	-1.6595542279	 0.619822208	 0.111457
H	 1.1181367342	-0.5282085388	 1.9071731313	 0.091881
H	 2.0878363588	-2.5806386283	 0.5408533494	 0.078093
H	 0.8585851408	-2.8685924585	-1.7730641426	 0.113253
H	-0.6119114322	-2.7244906432	-0.7549710678	 0.095924
H	 0.3937174907	-0.3129302441	-2.2273880183	 0.074002
200.9488	215.444	286.0218	383.9804	458.9684	512.6385	593.8128	613.7515	708.1796	769.2514	821.9356	840.2246	860.6024	901.607	912.6113	928.1723	969.0153	976.4602	1026.015	1034.021	1048.9557	1082.5644	1089.9254	1115.9475	1126.6988	1183.0942	1219.0579	1239.9433	1272.3545	1291.5625	1298.7322	1303.7274	1391.4156	1417.5847	1484.6657	1489.8013	1500.3277	1526.5029	3022.8699	3084.151	3089.9214	3100.9452	3118.1186	3123.7983	3128.1512	3153.3313	3179.8013	3204.9725
CC12CC1C1CC2O1	C[C@]12C[C@H]1[C@H]1C[C@@H]2O1	
InChI=1S/C7H10O/c1-7-3-4(7)5-2-6(7)8-5/h4-6H,2-3H2,1H3	InChI=1S/C7H10O/c1-7-3-4(7)5-2-6(7)8-5/h4-6H,2-3H2,1H3/t4-,5+,6-,7-/m0/s1
