17
gdb 20153	3.49568	3.01902	2.72296	1.7933	68.52	-0.2245	0.0961	0.3206	642.072	0.14722	-326.697136	-326.692244	-326.6913	-326.725703	22.017	
C	-0.0620937218	 1.5834296478	 0.0025211336	-0.214347
C	 1.4596522553	 1.8128763974	 0.0320483438	-0.070076
C	 1.9201731543	 0.9883894672	 1.244062123	-0.034356
C	 1.1186238662	-0.2469050335	 1.038441955	-0.044231
C	 0.0332957882	 0.0377470938	-0.037173134	-0.057249
C	 0.8485220682	-0.1647155711	-1.338356387	-0.209289
C	 2.0523293592	 0.6275839087	-0.8363365029	 0.010852
N	 2.4792766333	-0.1203103446	 0.4138543999	-0.152404
H	-0.5477488088	 1.9639576581	 0.9067203489	 0.096005
H	-0.5654874801	 1.9989882022	-0.8770946388	 0.091462
H	 1.844910524	 2.8195550142	-0.1116087123	 0.068954
H	 2.3761112603	 1.3194501284	 2.1711849965	 0.085559
H	 1.0192389307	-1.0175397815	 1.792268825	 0.090756
H	-0.8929028623	-0.5250989891	 0.0679137901	 0.06342
H	 1.112467598	-1.2074986354	-1.535184691	 0.107331
H	 0.3597714048	 0.2628661142	-2.2190486753	 0.094291
H	 2.8797480207	 0.8285291834	-1.5140900147	 0.07332
398.8468	469.3691	544.0631	639.6233	677.7419	773.4971	789.3977	814.1859	829.6613	855.6901	894.6421	899.3424	909.6729	932.1166	943.7552	963.0524	980.2684	996.0422	1033.7119	1050.7552	1063.8785	1110.0349	1144.4064	1166.6389	1179.7992	1202.1853	1239.2268	1249.7836	1264.0252	1278.1543	1282.3457	1306.5297	1337.4243	1359.765	1475.8236	1499.371	3041.6627	3055.5683	3093.6457	3110.4619	3128.8419	3133.4611	3144.9594	3163.3877	3195.1665
C1C2C3C4C1CC2N34	C1[C@H]2[C@H]3[C@H]4[C@@H]1C[C@@H]2N34	
InChI=1S/C7H9N/c1-3-2-5-4(1)7-6(3)8(5)7/h3-7H,1-2H2	InChI=1S/C7H9N/c1-3-2-5-4(1)7-6(3)8(5)7/h3-7H,1-2H2/t3-,4+,5-,6+,7-,8?/m0/s1
