16
gdb 84549	3.79292	1.29617	1.09286	2.4354	70.29	-0.2426	-0.0084	0.2341	1075.6486	0.12574	-437.911644	-437.904106	-437.903162	-437.943768	29.045	
O	 0.0568272362	 1.4467284859	-0.0701294984	-0.423735
C	 0.0577269815	 0.0232757619	-0.0502480904	 0.080887
C	 0.7245741371	-0.5455984715	 1.1802794877	-0.119647
C	-0.1201603283	-1.22479636	 1.9620541068	-0.07215
C	-1.4920956629	-1.3370679416	 1.3673326664	-0.243912
C	-1.367440281	-0.5793581297	 0.0039141186	-0.021263
N	-1.5521981317	-1.8754111908	-0.6541547549	-0.324499
C	-1.6977433955	-2.6193312553	 0.4902903384	 0.43043
O	-1.8955088393	-3.7837496454	 0.6969646785	-0.355091
H	-0.1520223678	 1.7467260606	 0.8215882304	 0.280031
H	 0.5626040836	-0.2732957786	-0.9773727748	 0.094473
H	 1.7752546186	-0.3755663226	 1.3876660932	 0.107158
H	 0.1405236434	-1.6980536427	 2.9018729275	 0.116678
H	-2.3238743053	-1.1110354352	 2.0371631796	 0.104058
H	-2.1280446839	 0.1650965792	-0.2446904234	 0.094523
H	-1.4994088047	-2.150023864	-1.6243869652	 0.25206
86.6736	134.3122	277.2081	298.1053	340.655	354.5461	403.5785	479.8093	562.0537	675.5382	721.6216	731.2295	809.5493	820.8106	867.7623	928.5443	947.591	981.9126	1016.1467	1024.9367	1052.096	1068.7532	1131.2259	1154.6097	1173.2848	1217.5559	1251.6017	1281.4086	1302.0079	1330.2493	1362.1796	1388.1879	1419.7707	1662.299	1899.6448	3044.6854	3081.1175	3102.2823	3189.1007	3212.7293	3605.027	3801.0672
OC1C=CC2C1NC2=O	O[C@H]1C=C[C@H]2[C@@H]1NC2=O	
InChI=1S/C6H7NO2/c8-4-2-1-3-5(4)7-6(3)9/h1-5,8H,(H,7,9)	InChI=1S/C6H7NO2/c8-4-2-1-3-5(4)7-6(3)9/h1-5,8H,(H,7,9)/t3-,4-,5-/m0/s1
