16
gdb 100454	4.2852	0.60198	0.56251	2.6374	73.2	-0.2647	-0.0316	0.2332	1898.5127	0.12196	-475.011416	-475.000978	-475.000033	-475.048792	35.628	
N	 0.0757575417	 1.2238860977	-0.2945944944	-0.52081
C	 0.0659256359	-0.1160938673	-0.0433005354	 0.268064
O	 1.0679729959	-0.7726597948	 0.1615617216	-0.331327
C	-1.2675635419	-0.7053365726	-0.0282112131	 0.079765
C	-2.3391778701	-1.2590739059	-0.0158562027	 0.006921
C	-3.6112312444	-1.9671407881	 0.0704721754	-0.072959
O	-3.4712561754	-3.3721091921	-0.1615278032	-0.426175
C	-4.2981150608	-1.7458439229	 1.4347316889	-0.056545
O	-5.4956007271	-2.479378357	 1.4914891626	-0.413846
H	 0.9664208758	 1.6885571171	-0.3637999711	 0.269725
H	-0.7645370965	 1.7242768575	-0.5255891416	 0.268964
H	-4.2948136595	-1.6181164715	-0.7121878146	 0.130468
H	-2.6739237093	-3.6671230748	 0.2944662104	 0.296835
H	-3.5938233008	-2.0316889497	 2.233814115	 0.092285
H	-4.544506972	-0.6877150409	 1.5655941549	 0.118653
H	-5.2770821415	-3.3619394248	 1.1639673772	 0.28998
21.3894	69.1752	76.3419	144.7546	146.278	216.8726	219.8509	309.3014	317.6592	368.5156	505.4465	516.9069	528.8914	533.9772	570.4577	628.7453	754.6917	772.746	863.4225	1025.366	1065.3703	1089.7154	1090.532	1110.3754	1202.1313	1268.7492	1294.7051	1350.0433	1376.4735	1417.8955	1433.1278	1503.0541	1609.2266	1776.3885	2339.1256	2969.075	3052.1647	3087.1562	3601.9229	3743.2142	3767.0162	3795.7955
NC(=O)C#CC(O)CO	NC(=O)C#C[C@@H](O)CO	
InChI=1S/C5H7NO3/c6-5(9)2-1-4(8)3-7/h4,7-8H,3H2,(H2,6,9)	InChI=1S/C5H7NO3/c6-5(9)2-1-4(8)3-7/h4,7-8H,3H2,(H2,6,9)/t4-/m1/s1
