21
gdb 112084	3.11157	1.28573	1.01434	1.1128	84.82	-0.2413	0.0223	0.2636	1240.0511	0.183654	-387.080081	-387.071557	-387.070612	-387.113394	32.841	
C	 0.047966576	 1.7470934321	-0.7139860961	-0.235087
O	-0.3203612214	 0.4216997122	-0.4190422595	-0.245935
C	 0.5965703903	-0.5658082342	-0.9001299221	 0.071654
C	 1.7714641894	-0.7233407328	 0.0317776554	-0.06853
C	 2.3393730157	-1.8899267854	 0.3330022251	-0.068504
C	 1.8746431646	-3.2133092216	-0.2087486687	-0.275133
C	 0.4575517968	-3.1756916482	-0.7528771638	-0.035121
C	-0.6635840642	-2.6269145444	 0.090876579	-0.277566
C	-0.1779035123	-1.8489257927	-1.1067300776	-0.044762
H	 0.9873990921	 2.0508501268	-0.226928307	 0.102109
H	 0.1619541025	 1.9071497125	-1.7985221658	 0.100517
H	-0.7526167027	 2.3942109244	-0.34592069	 0.125493
H	 0.9726152928	-0.2286924455	-1.8834781719	 0.068396
H	 2.1663998326	 0.1953767283	 0.4569938169	 0.087672
H	 3.1969733962	-1.9104777843	 1.0016005798	 0.086553
H	 2.5633044989	-3.5376685589	-1.0033495593	 0.11145
H	 1.9560899891	-3.9798966679	 0.5741890915	 0.10662
H	 0.2043224095	-4.0105835136	-1.3994171079	 0.080066
H	-1.6368089367	-3.1002527075	 0.0274802448	 0.106305
H	-0.4156513732	-2.2349505825	 1.0710843919	 0.121886
H	-0.8358969662	-1.827376457	-1.9695085847	 0.081918
77.0316	96.0007	177.9314	207.6695	296.1784	314.1559	366.3196	394.3338	488.957	524.2111	614.1471	714.2418	756.0106	809.8255	833.23	865.2309	915.1383	949.0752	973.7924	998.735	1007.4167	1033.3732	1060.7595	1069.2644	1116.8653	1128.0254	1135.7734	1150.1484	1181.3699	1203.3043	1219.8264	1229.9421	1240.6419	1342.6941	1359.8464	1363.8014	1377.0951	1418.0633	1427.87	1476.0784	1476.4914	1490.0541	1494.7847	1510.04	1722.2391	2924.9672	2967.7868	2995.3923	3011.4809	3022.6118	3106.8484	3136.9934	3143.9438	3144.9113	3157.1444	3171.1059	3223.4168
COC1C=CCC2CC12	CO[C@H]1C=CC[C@H]2C[C@@H]12	
InChI=1S/C8H12O/c1-9-8-4-2-3-6-5-7(6)8/h2,4,6-8H,3,5H2,1H3	InChI=1S/C8H12O/c1-9-8-4-2-3-6-5-7(6)8/h2,4,6-8H,3,5H2,1H3/t6-,7+,8-/m0/s1
