21
gdb 112998	2.45066	1.04727	0.92891	2.8326	79.18	-0.244	-0.022	0.222	1364.7184	0.180657	-424.217431	-424.207412	-424.206468	-424.253068	36.131	
C	-0.6775184951	 1.2405271011	 0.2337514739	-0.420438
C	-0.0990365445	-0.1588031986	 0.0487686731	-0.000711
C	 0.6465381851	-0.5599632575	-1.2652881704	 0.013231
C	 1.1674270813	 0.5753574161	-2.1312659639	-0.096105
O	 1.9618067844	-0.0114021299	-3.1521062741	-0.421343
C	 1.7369673365	-1.2559266105	-0.4055480765	-0.252264
C	 1.1569308333	-0.6117562471	 0.8928440846	-0.100746
C	 1.9884003301	 0.5100348624	 1.4535940069	 0.15965
O	 2.1286489365	 0.738563147	 2.6288089274	-0.258288
H	 0.0511902783	 2.0306357204	 0.0293999817	 0.119265
H	-1.5336065249	 1.3988229376	-0.4307919076	 0.119043
H	-1.0273486648	 1.3769770986	 1.2624524632	 0.129918
H	-0.8931483702	-0.887480766	 0.2371717026	 0.088904
H	 0.0802843088	-1.2334254247	-1.9148064314	 0.07968
H	 0.3228758826	 1.1411945746	-2.5560165349	 0.088996
H	 1.7626051408	 1.2824953362	-1.5305088996	 0.083832
H	 2.3329527147	 0.6942256419	-3.6897357126	 0.288036
H	 1.6632592008	-2.3447140103	-0.3958000672	 0.110877
H	 2.7664631572	-0.9866228179	-0.6571938551	 0.113308
H	 0.9230701351	-1.2899064406	 1.7158746006	 0.088701
H	 2.496182864	 1.1484005273	 0.6912108195	 0.066455
50.4504	63.1313	122.2	172.4964	219.8659	222.4594	263.5799	286.7559	308.618	392.4783	440.0429	451.5987	527.6429	690.7213	811.7623	832.3102	856.2448	927.0823	939.6615	974.5464	980.728	1027.8261	1071.3606	1082.9018	1101.7389	1144.3127	1163.2009	1175.1775	1201.0948	1241.2222	1256.9968	1266.0507	1283.9303	1290.0519	1329.6012	1365.4142	1368.3124	1413.2636	1435.4715	1460.5263	1484.987	1496.6583	1499.4423	1522.0695	1822.7104	2841.9922	2961.0648	2989.5832	3034.3763	3049.2959	3064.8853	3069.758	3091.8927	3098.5425	3107.264	3122.1336	3829.9656
CC1C(CO)CC1C=O	C[C@H]1[C@@H](CO)C[C@H]1C=O	
InChI=1S/C7H12O2/c1-5-6(3-8)2-7(5)4-9/h3,5-7,9H,2,4H2,1H3	InChI=1S/C7H12O2/c1-5-6(3-8)2-7(5)4-9/h3,5-7,9H,2,4H2,1H3/t5-,6+,7-/m1/s1
