19
gdb 89879	2.99312	1.03546	0.90142	3.5708	78.59	-0.2354	-0.0195	0.2159	1350.4333	0.157038	-423.01038	-423.001431	-423.000487	-423.044695	33.178	
C	-0.784315373	 1.2505923088	 0.2647874048	-0.398276
C	-0.0131569777	-0.0372533796	 0.0712340922	 0.154432
C	 0.765467989	-0.2296515957	-1.253688775	-0.385393
C	 1.9894471999	-0.2603165335	-0.3453444544	 0.452193
C	 3.1973944112	-1.1062873922	-0.3668486811	-0.373237
C	 3.3458436378	 0.419800354	-0.4975422737	-0.182529
C	 3.7225360666	 0.9930838876	-1.8029605602	 0.164283
O	 4.3047586588	 2.0385128808	-1.9622671871	-0.268891
O	 1.2320945585	-0.0561960186	 0.8341406679	-0.314424
H	-0.1776790853	 2.1148033527	-0.0222288944	 0.12866
H	-1.6946577526	 1.243406313	-0.3447364159	 0.120217
H	-1.0757202349	 1.3668182213	 1.3130980132	 0.132298
H	-0.626692169	-0.9029448564	 0.3483427704	 0.086182
H	 0.5600275059	-1.1547591084	-1.7949795012	 0.118674
H	 0.7070295051	 0.6171668186	-1.9403298173	 0.123103
H	 3.5300587628	-1.5416132394	 0.5685293519	 0.139381
H	 3.3991401119	-1.7007915123	-1.2535504391	 0.124931
H	 3.6938065132	 0.9646414765	 0.3733982245	 0.119143
H	 3.4143988418	 0.3701015627	-2.6778581655	 0.059254
43.9446	104.4975	147.9663	195.7469	244.9583	306.0136	367.0139	376.0284	389.6872	451.901	522.1977	564.1517	779.2166	817.9058	851.8355	877.9804	909.67	920.6384	931.9445	975.1487	1043.4483	1048.8446	1063.3088	1080.5327	1102.3742	1127.5223	1166.0012	1191.876	1211.764	1249.2762	1286.3891	1331.9614	1366.4915	1398.9457	1414.9304	1444.0049	1473.6147	1483.2327	1496.3806	1498.9179	1813.5984	2831.7481	3030.1319	3036.034	3075.2593	3108.3489	3117.8602	3124.9834	3130.6347	3182.2424	3222.78
CC1CC2(CC2C=O)O1	C[C@H]1C[C@]2(C[C@H]2C=O)O1	
InChI=1S/C7H10O2/c1-5-2-7(9-5)3-6(7)4-8/h4-6H,2-3H2,1H3	InChI=1S/C7H10O2/c1-5-2-7(9-5)3-6(7)4-8/h4-6H,2-3H2,1H3/t5-,6-,7+/m0/s1
