19
gdb 125674	3.08866	0.98646	0.79687	2.123	77.89	-0.2307	0.0289	0.2596	1430.2644	0.159842	-419.231527	-419.222029	-419.221085	-419.266775	33.884	
C	-0.0133341079	 1.4776451156	-0.0934452774	-0.500678
C	-0.0048675659	-0.0161353976	 0.0018733699	 0.27896
N	 0.0028416764	-0.7611093026	-1.1022837536	-0.286654
N	 0.0194637797	-2.0319066583	-0.6546965257	-0.188473
C	 0.0273133647	-2.1158918905	 0.6967157288	-0.119138
C	 0.0111102319	-0.8212098354	 1.1759570004	 0.132833
C	-0.0100442779	-0.3704388152	 2.6056175243	-0.313031
C	-1.4266474312	-0.1297847335	 3.1333451544	-0.061084
O	-1.317746712	 0.3091392598	 4.4783008907	-0.418157
H	 0.8324215774	 1.9187348809	 0.4461730772	 0.128094
H	 0.0507514444	 1.7810445222	-1.1404225417	 0.139854
H	-0.9263748879	 1.9086385991	 0.3327632709	 0.126155
H	 0.0404139724	-2.7836429003	-1.3216260512	 0.271397
H	 0.051574929	-3.0660005489	 1.2082409354	 0.129075
H	 0.4723037451	-1.1117368752	 3.251914959	 0.108622
H	 0.5565303584	 0.5603659836	 2.7228306609	 0.111373
H	-1.9341543453	 0.6194867494	 2.5052395815	 0.08977
H	-2.0073838845	-1.0628456928	 3.0580617894	 0.08539
H	-2.2032810069	 0.4746586495	 4.8142226167	 0.285692
48.2468	90.0591	104.8887	124.6687	241.1588	255.9335	261.4566	344.8701	379.8161	418.3878	484.0807	656.1455	675.4171	713.1488	765.7975	794.4844	807.444	945.167	1005.9716	1007.1511	1043.4683	1066.0002	1077.1005	1087.0599	1162.3979	1212.8023	1234.3176	1239.6825	1303.2609	1317.9302	1349.843	1398.284	1411.0761	1452.8923	1476.67	1483.1433	1487.6179	1493.812	1513.4989	1524.9781	1609.0369	2968.6015	2996.439	3031.1114	3038.8672	3079.6545	3081.7615	3131.5145	3252.1043	3681.7078	3831.5366
CC1=NNC=C1CCO	Cc1n[nH]cc1CCO	
InChI=1S/C6H10N2O/c1-5-6(2-3-9)4-7-8-5/h4,9H,2-3H2,1H3,(H,7,8)	InChI=1S/C6H10N2O/c1-5-6(2-3-9)4-7-8-5/h4,9H,2-3H2,1H3,(H,7,8)
