15
gdb 25837	3.83469	1.30103	0.97723	4.3418	74.75	-0.2455	-0.0719	0.1736	1148.0001	0.113517	-416.877249	-416.869514	-416.868569	-416.910382	27.917	
C	 0.0600627676	 1.3630020162	 0.3365189938	-0.473189
C	 0.1058293763	-0.149249084	 0.3001376295	 0.334162
O	 1.1362834343	-0.7758436869	 0.342549542	-0.273835
C	-1.2324156084	-0.8731686013	 0.2053891149	 0.237938
N	-2.3295163237	-0.1091401242	 0.1625522618	-0.273983
C	-3.4978145929	-0.7481614609	 0.0796643105	 0.005191
C	-3.5794125672	-2.1339540611	 0.0396037376	-0.124292
C	-2.3725618807	-2.8270484784	 0.090595216	 0.011833
N	-1.1969698447	-2.2090079784	 0.1732278203	-0.246354
H	 1.0788575459	 1.7452366794	 0.4047456988	 0.134737
H	-0.434614995	 1.7534700541	-0.5579151141	 0.146923
H	-0.5347470016	 1.7085438528	 1.1873808212	 0.146917
H	-4.3907282547	-0.1281211254	 0.0446713916	 0.125839
H	-4.5306178556	-2.6480819564	-0.0276636691	 0.120803
H	-2.3489420897	-3.9144695655	 0.0642037453	 0.12731
42.0607	138.1646	146.18	208.2871	366.4691	407.2998	411.5686	479.0306	604.6172	607.4435	638.532	771.5423	823.9082	832.8824	963.5865	1008.6368	1009.4846	1013.1084	1047.2119	1087.9943	1119.8658	1147.9424	1253.2541	1292.761	1319.1	1385.9207	1447.4021	1455.6975	1464.9809	1466.343	1597.8689	1610.8789	1813.5401	3050.9981	3113.7556	3153.8458	3157.2066	3158.8244	3209.9611
CC(=O)C1=NC=CC=N1	CC(=O)c1ncccn1	
InChI=1S/C6H6N2O/c1-5(9)6-7-3-2-4-8-6/h2-4H,1H3	InChI=1S/C6H6N2O/c1-5(9)6-7-3-2-4-8-6/h2-4H,1H3
