19
gdb 68875	2.5156	1.83857	1.63929	2.2948	73.84	-0.2286	0.0617	0.2902	931.1255	0.160258	-422.974387	-422.966866	-422.965922	-423.005591	31.617	
O	-0.266605948	 1.2644807818	-0.1078424769	-0.477444
C	 0.0020118704	-0.1022179458	 0.0215783693	 0.308218
C	-0.3846406556	-0.8258535422	 1.3018283963	-0.441791
C	-1.1972883546	-1.0118338621	 0.0311356746	 0.415147
O	-2.4852159478	-0.4939180227	-0.0509367475	-0.488518
C	-0.7809896297	-2.0299512387	-1.0441508946	-0.081473
C	-0.2467376989	-1.0443561199	-2.1463620356	-0.223737
C	 0.8606747706	-0.7839899909	-1.0610668155	-0.088914
C	 0.7182110272	-2.2974129215	-0.7377683731	-0.241521
H	 0.3299714212	 1.7564113078	 0.4647925981	 0.29122
H	 0.2312038344	-1.6006538445	 1.7428201433	 0.112677
H	-0.884574391	-0.1907682205	 2.0270597527	 0.110789
H	-2.392984132	 0.4632066192	-0.1568524653	 0.289595
H	-1.4812270915	-2.8349666388	-1.2640770392	 0.069601
H	 0.1314322016	-1.5535181713	-3.0367614112	 0.090097
H	-0.8878438627	-0.2055673463	-2.4255511688	 0.10264
H	 1.8247433726	-0.332476983	-1.2988995912	 0.057839
H	 1.0150417446	-2.676228765	 0.2407041781	 0.094238
H	 1.1774538992	-2.9108434155	-1.5157360334	 0.101338
198.6253	206.1961	272.9695	303.2146	331.5655	393.743	480.0714	515.3606	529.8393	548.9966	552.6245	735.9255	770.3941	814.0566	839.9777	847.2156	891.7427	901.674	916.2739	941.2582	1006.8156	1025.899	1039.7513	1049.9614	1074.2865	1082.0838	1105.39	1155.2768	1197.5856	1217.4497	1219.6889	1237.8505	1247.6795	1267.2856	1280.8072	1332.2004	1386.4992	1392.1919	1478.7927	1496.8173	1535.9582	3061.8556	3075.9429	3105.3367	3123.316	3123.8366	3127.4042	3134.7096	3216.9762	3739.6587	3814.1174
OC12CC1(O)C1CC2C1	O[C@@]12C[C@]1(O)[C@H]1C[C@@H]2C1	
InChI=1S/C7H10O2/c8-6-3-7(6,9)5-1-4(6)2-5/h4-5,8-9H,1-3H2	InChI=1S/C7H10O2/c8-6-3-7(6,9)5-1-4(6)2-5/h4-5,8-9H,1-3H2/t4-,5+,6-,7+
