21
gdb 32622	2.91794	1.24128	0.94918	1.3735	87.31	-0.1847	0.055	0.2397	1316.2526	0.182668	-383.312068	-383.301915	-383.300971	-383.34782	36.718	
C	-0.099398339	 1.5800712578	 0.0271225419	-0.36997
C	 0.0240417306	 0.0541087238	-0.0172636163	-0.147833
N	 0.6957981267	-0.432995066	-1.2096343263	 0.001576
C	 0.1045389959	-0.6505746037	-2.4284450993	-0.103804
C	 1.0676852877	-1.0806908352	-3.3097761784	-0.269724
C	 2.3093491428	-1.1172341684	-2.6123095283	 0.24768
C	 3.6446300403	-1.5254153613	-3.1568092809	-0.505284
C	 2.0476756028	-0.7085541937	-1.3169206216	 0.143048
N	 2.8709592053	-0.5842215076	-0.1719341854	-0.616696
H	 0.8886917059	 2.0498482343	 0.0260463824	 0.121303
H	-0.654290455	 1.9553421502	-0.8379335799	 0.124344
H	-0.625346996	 1.8927184424	 0.9350587346	 0.11491
H	 0.5973016286	-0.3020795806	 0.8415291448	 0.134728
H	-0.9685982284	-0.4065985396	 0.0227248036	 0.108891
H	-0.9526397578	-0.4819230891	-2.5620352239	 0.107337
H	 0.9052931195	-1.3437341236	-4.3447233333	 0.084366
H	 3.8861458275	-0.9890879069	-4.0818170191	 0.122184
H	 4.444127308	-1.3128934188	-2.4390583131	 0.098238
H	 3.6911834036	-2.5968796463	-3.3894489669	 0.120925
H	 3.4154158436	 0.2732167544	-0.1712515721	 0.240055
H	 3.5215306076	-1.357356712	-0.0991501825	 0.243727
41.1938	73.4263	96.6549	142.9215	205.4369	218.4304	269.6038	281.199	319.6424	387.034	498.5794	577.0309	634.3038	654.938	708.0658	723.6757	731.1235	781.5787	794.5616	815.0499	952.7118	983.3163	1047.1104	1060.024	1072.2816	1100.4154	1127.6854	1204.9168	1229.0806	1244.0844	1306.5892	1364.2965	1392.9423	1405.7698	1417.4549	1432.8686	1469.352	1481.9011	1487.2407	1489.197	1499.1116	1502.5831	1526.4457	1611.2436	1660.2178	3015.9324	3037.7728	3050.4593	3064.0164	3089.1435	3102.7972	3111.3435	3125.7496	3233.2341	3258.1997	3492.2039	3577.7791
CCN1C=CC(C)=C1N	CCn1ccc(C)c1N	
InChI=1S/C7H12N2/c1-3-9-5-4-6(2)7(9)8/h4-5H,3,8H2,1-2H3	InChI=1S/C7H12N2/c1-3-9-5-4-6(2)7(9)8/h4-5H,3,8H2,1-2H3
