15
gdb 11483	3.36128	1.47076	1.09938	3.6637	66.34	-0.2856	-0.0852	0.2004	1044.9028	0.117899	-362.668231	-362.660148	-362.659204	-362.701952	28.177	
O	-0.6372395697	 0.2114703355	 1.1991892007	-0.257712
C	-0.0013838564	 1.0254360526	 0.579624161	 0.303718
C	 1.4112735617	 1.4604876017	 0.9037523818	-0.325863
C	 2.3993844225	 0.9782868996	-0.1473891476	 0.008091
C	 2.649834289	 1.775375515	-1.4055619746	-0.249318
C	 3.7085013965	 1.7041332065	-0.3368056098	-0.274634
C	-0.6018079449	 1.6682851887	-0.6150963307	 0.235582
N	-1.0817054856	 2.188521362	-1.529707644	-0.312358
H	 1.4378069051	 2.5561931809	 0.9560884596	 0.129572
H	 1.6519897984	 1.0569588163	 1.891594388	 0.137713
H	 2.4338217779	-0.1027040152	-0.249060012	 0.104803
H	 2.806774431	 1.2305054004	-2.3291306831	 0.126432
H	 2.1151297196	 2.710115019	-1.5320170572	 0.131485
H	 3.8863404307	 2.5903827674	 0.2633412435	 0.119026
H	 4.5951623741	 1.1088439997	-0.5222980457	 0.123463
34.9988	85.3126	142.0556	184.9698	281.6957	323.2488	363.9511	447.5576	611.0285	670.5162	753.855	776.1363	821.6726	842.5818	913.8882	940.2474	999.5543	1062.43	1085.6196	1094.9057	1142.9869	1180.7807	1197.2802	1229.8173	1271.3532	1302.4102	1400.5221	1460.9216	1474.1408	1506.4925	1799.4886	2335.1893	3033.9883	3100.3649	3135.8566	3144.6207	3150.6202	3216.4932	3232.309
O=C(CC1CC1)C#N	O=C(CC1CC1)C#N	
InChI=1S/C6H7NO/c7-4-6(8)3-5-1-2-5/h5H,1-3H2	InChI=1S/C6H7NO/c7-4-6(8)3-5-1-2-5/h5H,1-3H2
