22
gdb 117767	2.48689	0.95107	0.84167	3.1945	82.46	-0.2816	0.0319	0.3134	1513.0563	0.192083	-404.372857	-404.361845	-404.360901	-404.408969	39.6	
C	 0.0645564932	 1.6148309643	 0.026953985	-0.381254
C	-0.0196436013	 0.0855771737	 0.0180018947	-0.192349
C	 0.6446365034	-0.523475872	-1.2222763147	-0.198132
C	 0.6717310821	-2.0719887782	-1.2798647334	 0.055496
C	-0.7408704827	-2.6923687169	-1.271057283	-0.412459
C	 1.4259927231	-2.5150059541	-2.568770322	-0.078878
O	 1.565000208	-3.9123501528	-2.685083421	-0.419118
C	 1.4434051734	-2.6002658941	-0.1424528234	 0.268991
N	 2.0814373131	-3.0437265801	 0.7146810664	-0.357206
H	 1.1059692145	 1.9544636502	 0.0202602527	 0.11967
H	-0.4303390275	 2.0461187231	-0.8503968965	 0.115383
H	-0.4156762595	 2.0306878761	 0.9175392958	 0.118827
H	 0.4605272177	-0.3145300336	 0.9191047391	 0.122389
H	-1.0712987114	-0.2191723943	 0.0658391537	 0.104221
H	 0.1275333526	-0.1746203299	-2.125809672	 0.10274
H	 1.6759248755	-0.155253646	-1.2926137515	 0.109312
H	-1.3442901736	-2.2282644639	-2.0579981272	 0.120183
H	-0.6760924457	-3.7635522741	-1.4705934482	 0.14787
H	-1.245107499	-2.5427515303	-0.3145680601	 0.133875
H	 0.8373182741	-2.1908443983	-3.4331706503	 0.11768
H	 2.398560159	-2.0033766973	-2.6094450362	 0.104045
H	 2.1593073109	-4.2122534414	-1.9871121679	 0.298713
77.8823	84.1216	114.8087	132.6481	175.5616	199.6766	243.0396	250.1716	290.7682	320.7293	355.8554	366.7353	408.7257	463.8128	585.9443	672.0635	702.7923	750.0362	862.6164	883.6099	917.8218	943.5297	978.7058	1049.3764	1060.8893	1078.9994	1117.3124	1168.9124	1184.2571	1193.1178	1250.6922	1305.8382	1322.5837	1347.4816	1382.0585	1398.0831	1410.1965	1414.6064	1424.1807	1477.4952	1488.9583	1493.1201	1499.0552	1500.3727	1506.3662	1511.3516	2341.8373	2999.2033	3016.2498	3030.7857	3035.6821	3048.105	3050.5559	3072.7432	3081.4498	3100.6625	3107.9569	3123.9213	3145.1614	3793.331
CCCC(C)(CO)C#N	CCC[C@@](C)(CO)C#N	
InChI=1S/C7H13NO/c1-3-4-7(2,5-8)6-9/h9H,3-4,6H2,1-2H3	InChI=1S/C7H13NO/c1-3-4-7(2,5-8)6-9/h9H,3-4,6H2,1-2H3/t7-/m1/s1
