18
gdb 46881	3.04018	1.46657	1.09831	3.8311	81.43	-0.2276	-0.0445	0.1831	1097.6018	0.149534	-401.945434	-401.937777	-401.936833	-401.977811	29.643	
O	-0.0727676945	-0.1487573613	-0.1087659283	-0.332087
C	-0.0401963248	 1.0601072547	 0.0313443812	 0.353619
C	-1.3295157654	 1.8437396468	 0.2737519748	-0.323406
C	-1.6292189492	 2.9080584536	-0.7890839991	-0.243301
C	-0.7185255619	 4.1159062933	-0.8360973351	 0.016388
C	-0.2380838992	 4.9005672328	 0.3451620095	-0.258636
N	 0.6930337317	 4.1359142175	-0.4939101364	-0.094632
C	 1.4828663733	 3.0995729369	-0.0041413874	-0.004913
C	 1.2440287475	 1.7792893354	 0.1017624138	-0.17294
H	-2.1392088678	 1.1104900997	 0.2929248473	 0.124031
H	-1.2758619191	 2.3031813941	 1.268421153	 0.113206
H	-1.6078827395	 2.430927488	-1.776515447	 0.124104
H	-2.6558138489	 3.2717189967	-0.6553765033	 0.116675
H	-0.897113009	 4.7172593424	-1.7286033033	 0.105824
H	-0.1618704944	 5.9835515071	 0.2922471065	 0.126996
H	-0.4380768423	 4.5013670061	 1.3365170618	 0.128026
H	 2.4828604519	 3.4566210517	 0.2411299046	 0.115644
H	 2.0913616116	 1.1350853945	 0.3176575271	 0.1054
65.3233	175.9094	188.1529	288.6405	341.8531	389.5593	419.5461	483.0506	570.8691	678.417	694.36	722.9647	761.1665	816.146	872.973	903.0244	952.9488	971.7289	990.4365	1002.8243	1052.5709	1086.5639	1117.7852	1132.3192	1175.3393	1185.5735	1218.3864	1270.3967	1278.2903	1355.7947	1379.4417	1402.2847	1429.3079	1438.5313	1475.1443	1488.5403	1513.4088	1663.4662	1756.9413	3025.9811	3036.1244	3061.2902	3094.641	3102.7907	3107.8581	3128.4297	3178.6372	3191.9766
O=C1CCC2CN2C=C1	O=C1CC[C@H]2CN2[CH][CH]1	
InChI=1S/C7H9NO/c9-7-2-1-6-5-8(6)4-3-7/h3-4,6H,1-2,5H2	InChI=1S/C7H9NO/c9-7-2-1-6-5-8(6)4-3-7/h3-4,6H,1-2,5H2/t6-,8?/m0/s1
