19
gdb 89766	2.29972	1.51833	1.05571	2.1227	81.75	-0.2513	0.0451	0.2964	1184.3602	0.156981	-385.825697	-385.816654	-385.81571	-385.859505	34.308	
C	-0.7529171759	 1.1848716977	-0.0427275628	-0.412739
C	 0.1782786246	-0.0141371901	-0.0257561636	 0.034919
C	 1.5769515174	 0.1155664152	-0.7010963426	-0.33302
C	 2.1606426441	-0.6622031797	 0.4726438049	 0.481824
C	 3.012937006	-1.8512727664	 0.4676611462	-0.268821
O	 3.483350668	-0.5785321017	 0.9408222646	-0.262987
C	 0.8906196368	-0.4254969826	 1.3289159346	-0.339784
C	 1.0261553738	 0.629489535	 2.313934962	 0.372363
C	 1.140885739	 1.5083056024	 3.1268453595	-0.476883
H	-0.2672029676	 2.066895112	 0.3840109313	 0.131693
H	-1.0536970766	 1.4212426369	-1.0691830637	 0.114126
H	-1.6615531035	 0.9916558484	 0.5371276565	 0.119211
H	-0.3381742673	-0.8983333789	-0.4115432575	 0.081121
H	 1.7027991076	-0.2996818899	-1.7036249348	 0.10497
H	 1.9304678714	 1.1517689636	-0.6956664573	 0.121455
H	 2.8868625169	-2.6144411884	 1.2349326956	 0.117587
H	 3.4586433631	-2.1955571764	-0.4649600438	 0.116641
H	 0.4826701061	-1.3250583661	 1.800697341	 0.10164
H	 1.251705626	 2.2767205692	 3.8511160697	 0.196686
56.9752	118.3238	155.9617	213.703	251.4017	311.4338	336.6354	373.6279	395.3689	478.9399	547.0483	614.241	623.6843	630.4391	742.4135	805.8051	866.7911	873.4905	890.1921	941.5976	952.4428	994.9118	1090.5774	1103.615	1110.8022	1129.6011	1142.9669	1171.9043	1194.4759	1218.095	1250.5781	1271.5031	1319.5261	1367.2623	1414.3893	1435.1406	1481.2923	1492.546	1495.9972	1536.0009	2231.9763	3033.8982	3047.9486	3054.994	3061.5825	3078.1395	3097.9884	3111.0415	3117.4747	3165.6607	3504.4825
CC1CC2(CO2)C1C#C	C[C@H]1C[C@]2(CO2)[C@H]1C#C	
InChI=1S/C8H10O/c1-3-7-6(2)4-8(7)5-9-8/h1,6-7H,4-5H2,2H3	InChI=1S/C8H10O/c1-3-7-6(2)4-8(7)5-9-8/h1,6-7H,4-5H2,2H3/t6-,7-,8-/m0/s1
