16
gdb 8871	2.74689	1.57575	1.10302	0.9376	62.82	-0.2666	-0.1093	0.1573	1068.9955	0.127074	-420.895403	-420.886293	-420.885348	-420.929691	31.353	
C	-0.0836678578	 1.5680252176	-0.3147431711	-0.382666
C	-0.1192866823	 0.0448471884	-0.1761275509	-0.203185
C	 0.8276465777	-0.6369982608	-1.1934977303	 0.050058
O	 2.1499188269	-0.1832595672	-1.0529553345	-0.434358
C	 0.784271016	-2.1430323563	-1.0274741732	 0.264968
O	 1.7379082601	-2.7679344438	-0.6139311744	-0.301303
C	-0.4829179209	-2.9175622653	-1.3996060919	 0.097942
O	-1.4613467084	-2.4083754767	-1.8783572426	-0.214641
H	 0.9359467988	 1.9400088038	-0.191383489	 0.141839
H	-0.443336773	 1.8811532977	-1.3009039181	 0.118734
H	-0.7197108758	 2.0394386967	 0.440099026	 0.115141
H	 0.1944960363	-0.2479316653	 0.8335916228	 0.103911
H	-1.1354998939	-0.3303551206	-0.3319290529	 0.122181
H	 0.4658420278	-0.3994293189	-2.2057393556	 0.109037
H	 2.6546672395	-0.9262881748	-0.6900526846	 0.293926
H	-0.3911586313	-4.0055087444	-1.2000685798	 0.118415
63.0902	91.9605	118.512	161.6789	209.0468	233.2925	309.2147	345.5783	373.6116	440.0504	520.6041	585.0415	669.3896	771.8396	834.8072	913.4425	996.9243	1002.6163	1074.6313	1112.8918	1141.9608	1188.5449	1281.778	1286.1179	1340.0888	1364.2166	1368.5408	1405.347	1436.2755	1479.0821	1493.7524	1508.4952	1784.7641	1822.1519	2931.7799	2996.433	3033.4662	3040.8211	3089.0909	3107.5874	3132.6161	3717.7269
CCC(O)C(=O)C=O	CC[C@@H](O)C(=O)C=O	
InChI=1S/C5H8O3/c1-2-4(7)5(8)3-6/h3-4,7H,2H2,1H3	InChI=1S/C5H8O3/c1-2-4(7)5(8)3-6/h3-4,7H,2H2,1H3/t4-/m1/s1
