14
gdb 12955	2.73094	2.22704	1.70281	3.2076	57.76	-0.2354	-0.0016	0.2338	803.6887	0.107678	-415.83357	-415.826169	-415.825225	-415.864962	27.734	
N	-0.0503073497	 1.4619638139	-0.1660296334	-0.524118
C	-0.0612121795	 0.0336396691	-0.0242964079	-0.031849
C	-0.467261766	-0.7361646661	 1.1858584398	 0.021682
O	-1.5005499813	 0.0121289267	 1.8835357651	-0.275768
C	-2.3766490717	-0.1543246301	 0.8059733935	 0.400808
O	-3.5347082169	 0.1051956967	 0.774564254	-0.324875
C	-1.3408284342	-0.8139959548	-0.0779746589	 0.095674
N	-1.5135414711	-1.820416895	-1.053250138	-0.600396
H	-0.6574709764	 1.8824711034	 0.5327597165	 0.251123
H	 0.8852599646	 1.812164838	 0.0192057837	 0.23812
H	 0.7155168583	-0.456087684	-0.6075059258	 0.122904
H	 0.046865829	-1.5066553588	 1.7436634138	 0.128675
H	-2.2849783809	-2.4380847354	-0.823452706	 0.246972
H	-1.6945213043	-1.4206577838	-1.9680721166	 0.251048
127.1742	186.2269	237.1021	251.2179	278.7552	326.893	438.4222	503.6027	639.9428	657.7973	725.9705	738.4352	795.5003	838.0546	879.6729	903.7701	917.9471	978.5299	1017.8462	1047.8451	1135.9408	1198.6655	1246.2899	1253.4815	1292.58	1380.5096	1490.0146	1663.5465	1665.2555	1934.469	3152.0219	3218.7485	3488.2761	3506.2217	3565.0992	3583.3747
NC1C2OC(=O)C12N	N[C@H]1[C@H]2OC(=O)[C@@]12N	
InChI=1S/C4H6N2O2/c5-1-2-4(1,6)3(7)8-2/h1-2H,5-6H2	InChI=1S/C4H6N2O2/c5-1-2-4(1,6)3(7)8-2/h1-2H,5-6H2/t1-,2+,4+/m0/s1
