19
gdb 57326	1.79286	1.64272	1.06854	0.9927	82.78	-0.2557	0.0255	0.2812	1202.5542	0.153928	-385.825292	-385.814727	-385.813783	-385.859984	39.877	
C	 0.0176485895	 1.5907911188	 0.1464514337	-0.423998
C	 0.0024522908	 0.0631042785	 0.033924502	 0.333687
C	 0.6030675117	-0.5983997436	 1.2723161594	-0.40612
O	-1.3281578983	-0.4239086879	-0.0586391716	-0.459172
C	 0.7798864831	-0.4260123182	-1.2568925527	-0.367994
C	 0.084605292	 0.0154786927	-2.4704522633	 0.297063
C	-0.5318063364	 0.3783778081	-3.4368000661	-0.431802
C	 2.1889475904	-0.0301027689	-1.2722332554	 0.338465
C	 3.3466462913	 0.291043096	-1.2690478408	-0.450378
H	 1.0368868617	 1.9706606834	 0.2558902309	 0.129276
H	-0.421008174	 2.050147281	-0.7449990895	 0.120095
H	-0.569286739	 1.8954673993	 1.0168775333	 0.121844
H	 0.049842814	-0.2823127617	 2.160536927	 0.123521
H	 0.5275999974	-1.6870086491	 1.1956003206	 0.120884
H	 1.6531299975	-0.3234401817	 1.3928824315	 0.12947
H	-1.720568523	-0.0498612937	-0.8575622887	 0.280831
H	 0.7253749849	-1.5228449161	-1.2232319859	 0.141052
H	-1.0505380481	 0.6937907942	-4.3085634595	 0.202927
H	 4.3704763945	 0.573506689	-1.273031015	 0.20035
78.7386	129.3604	148.5306	162.0581	202.5527	243.9316	307.4965	319.5167	348.4073	377.7455	398.4733	411.684	450.5622	504.7153	563.0358	577.6689	629.5407	637.9753	652.4569	662.4506	769.6032	881.816	937.5508	950.332	995.0775	1012.8709	1054.4409	1125.9999	1197.9503	1209.9838	1283.5195	1308.8129	1380.7236	1406.4849	1419.9422	1479.9091	1484.5413	1497.9935	1506.5984	2231.0122	2239.4716	3014.9471	3042.9783	3049.9431	3115.2981	3120.3244	3127.1421	3138.2146	3499.7577	3502.7886	3773.6867
CC(C)(O)C(C#C)C#C	CC(C)(O)C(C#C)C#C	
InChI=1S/C8H10O/c1-5-7(6-2)8(3,4)9/h1-2,7,9H,3-4H3	InChI=1S/C8H10O/c1-5-7(6-2)8(3,4)9/h1-2,7,9H,3-4H3
