18
gdb 32259	2.5004	1.64232	1.00359	0.6559	83.4	-0.2218	-0.0104	0.2114	1174.4793	0.148805	-402.019828	-402.011372	-402.010428	-402.052949	31.237	
C	-0.059133443	 1.3904026797	 0.0170546001	-0.230648
O	 0.0003852758	-0.0337589106	 0.0362649039	-0.261086
C	 0.6397911119	-0.6102810885	 1.0773890067	 0.39697
N	 1.1720561961	 0.1552818664	 2.0146782779	-0.368063
C	 1.7994638723	-0.4515745455	 3.0335584018	-0.01615
C	 1.911648916	-1.8254271374	 3.1438321908	-0.135568
C	 1.3395219912	-2.612548712	 2.1385579335	-0.144429
C	 0.6837533939	-2.0230486612	 1.0709392855	 0.168126
C	 0.0470299013	-2.8063547506	-0.0429785609	-0.487979
H	 0.9431838125	 1.8275414518	-0.0080280951	 0.133264
H	-0.6076398888	 1.6468006138	-0.890738651	 0.124015
H	-0.5803791761	 1.7760780334	 0.8979338282	 0.133225
H	 2.2258191114	 0.2061731596	 3.7868551476	 0.10528
H	 2.4275679313	-2.2734683386	 3.9846758392	 0.0947
H	 1.4053591119	-3.6957864074	 2.1877498317	 0.098245
H	-1.023856842	-2.5891865849	-0.1186358195	 0.136968
H	 0.484440696	-2.5443883948	-1.0124429245	 0.136912
H	 0.1723889482	-3.8808006132	 0.1143449741	 0.116218
107.4317	130.4793	153.9298	191.6785	218.0069	296.1435	317.318	463.4278	509.7123	532.7546	574.34	617.5497	769.5998	795.8077	810.0134	862.5323	957.5972	975.0199	1005.6947	1054.9501	1067.2746	1090.8076	1139.3499	1178.7392	1201.7897	1213.8941	1297.2105	1312.0265	1350.4212	1415.4456	1441.0129	1474.7015	1478.3757	1480.2794	1490.4447	1501.7285	1513.3044	1620.7181	1639.8512	3034.2824	3041.1609	3088.0103	3111.474	3116.6368	3143.1941	3157.0715	3169.6888	3204.994
COC1=NC=CC=C1C	COc1ncccc1C	
InChI=1S/C7H9NO/c1-6-4-3-5-8-7(6)9-2/h3-5H,1-2H3	InChI=1S/C7H9NO/c1-6-4-3-5-8-7(6)9-2/h3-5H,1-2H3
