18
gdb 34677	4.98781	1.07882	1.07605	4.7406	80.9	-0.2799	0.0287	0.3086	1157.6113	0.151013	-364.789308	-364.782533	-364.781589	-364.820421	27.909	
N	 0.0869624449	-1.1243583152	 0.0447308105	-0.331483
C	 0.0257264835	 0.0308781235	 0.0195282321	 0.257697
C	-0.0441197366	 1.4666303094	-0.0075624441	-0.224481
C	 0.4276545836	 2.2058414652	 1.2415585384	-0.03021
C	 1.2809566059	 2.2238914	-0.0003590028	-0.030208
C	 1.2900144775	 3.7354818753	-0.3058751138	-0.053078
C	 1.5659040966	 4.2886930167	 1.139675937	-0.209257
C	 0.1252349437	 3.7108405299	 1.3893482378	-0.053078
C	-0.1725077856	 4.1931480499	-0.0561684575	-0.236065
H	-0.8847340493	 1.8391093823	-0.5797090692	 0.130299
H	 0.6799460634	 1.6211627895	 2.117324224	 0.114459
H	 2.1967771933	 1.6532364609	-0.0903264345	 0.114461
H	 1.8555387599	 4.0663032296	-1.1761109279	 0.073348
H	 2.39306648	 3.847062642	 1.7015960664	 0.098449
H	 1.6078802753	 5.3797636491	 1.1843757488	 0.100998
H	-0.4886426457	 4.0167118209	 2.2356150438	 0.073348
H	-0.256201793	 5.280444437	-0.0978676634	 0.104588
H	-0.9936136174	 3.7568867138	-0.6266943657	 0.100214
141.72	147.9597	329.0284	345.1291	462.9132	523.038	524.4096	578.9294	665.6109	798.6498	814.0305	838.1715	839.4432	874.6285	916.3478	918.0424	961.0043	963.0879	991.7628	1025.5537	1028.614	1050.9734	1070.7388	1093.5082	1105.0857	1107.0124	1123.065	1190.2355	1218.8878	1236.7059	1237.938	1262.9885	1278.1628	1312.4215	1314.162	1403.6	1494.0483	1537.8842	2352.2166	3058.8032	3079.6394	3121.5459	3123.3051	3125.0537	3129.2118	3182.4948	3190.2845	3199.0957
N#CC1C2C1C1CC2C1	N#C[C@H]1[C@H]2[C@@H]1[C@@H]1C[C@H]2C1	
InChI=1S/C8H9N/c9-3-6-7-4-1-5(2-4)8(6)7/h4-8H,1-2H2	InChI=1S/C8H9N/c9-3-6-7-4-1-5(2-4)8(6)7/h4-8H,1-2H2/t4-,5+,6-,7-,8+
