15
gdb 80232	2.31049	1.82931	1.33993	4.0917	65.91	-0.2614	-0.0436	0.2178	970.1516	0.112594	-457.788793	-457.781448	-457.780504	-457.820612	27.964	
C	-0.0887014476	 1.602472286	-0.0094633287	-0.438644
C	 0.0262420814	 0.0859018857	 0.0123781212	 0.002207
C	 1.1947376508	-0.6137328322	-0.7414613377	-0.050571
O	 2.3750569176	-0.0225303671	-0.1331715452	-0.239192
C	 2.0681156651	-0.0172080836	 1.2157965038	 0.460055
O	 2.8012167093	 0.3867110685	 2.0629306992	-0.338739
C	 0.6788511689	-0.635513168	 1.2649875158	-0.327514
C	 0.9268663953	-1.786338975	 0.2354964093	 0.444664
O	 0.7993882901	-2.9651020435	 0.2034392345	-0.290276
H	 0.8727460635	 2.0865359665	 0.1767555617	 0.154537
H	-0.4566566012	 1.9383351889	-0.9836626815	 0.133033
H	-0.7963952617	 1.9426012789	 0.752053769	 0.136998
H	-0.9267374265	-0.3894902658	-0.2391311619	 0.113434
H	 1.3079182271	-0.6761134642	-1.819670431	 0.11921
H	 0.2093361178	-0.7544787951	 2.2354628113	 0.120799
133.927	159.0975	200.1414	249.991	295.494	432.1395	497.7759	540.5786	623.9549	670.0241	695.1318	728.8512	804.3305	821.196	864.8386	917.5435	986.0047	1028.2601	1045.9763	1067.856	1085.9778	1108.5525	1147.1609	1171.2505	1200.6115	1262.5725	1309.6017	1384.6648	1416.1882	1492.416	1498.2538	1902.057	1943.3565	3047.802	3070.1416	3114.2972	3133.0811	3178.5766	3193.555
CC1C2OC(=O)C1C2=O	C[C@H]1[C@H]2OC(=O)[C@@H]1C2=O	
InChI=1S/C6H6O3/c1-2-3-4(7)5(2)9-6(3)8/h2-3,5H,1H3	InChI=1S/C6H6O3/c1-2-3-4(7)5(2)9-6(3)8/h2-3,5H,1H3/t2-,3+,5-/m1/s1
