25
gdb 121148	2.95446	0.8962	0.75952	0.1845	93.72	-0.2592	0.0887	0.3479	1642.1228	0.228701	-352.341125	-352.331153	-352.330209	-352.376456	37.83	
C	 0.0668251371	 1.579401543	 0.0671795945	-0.380229
C	 0.0036942647	 0.0498780857	 0.091068026	-0.164066
C	-1.417182023	-0.4991439647	-0.0910206332	-0.192967
C	-1.4826276514	-2.0206881077	-0.0604231824	-0.033532
C	-1.2214553667	-2.7535335584	 1.2923111479	-0.223242
C	-2.4171013834	-3.7027702896	 0.9923563149	-0.30213
C	-2.8508169066	-2.731305743	-0.1128545762	 0.362561
C	-4.1945595211	-2.0639357604	-0.1988014786	-0.318325
C	-3.7296958815	-2.9967928217	-1.2957200129	-0.32903
H	 1.0917151646	 1.9403572358	 0.199629135	 0.109658
H	-0.3055281688	 1.9763448262	-0.8839839583	 0.112155
H	-0.5446759384	 2.013374828	 0.8662121663	 0.112772
H	 0.6512831303	-0.35678797	-0.6971234526	 0.092946
H	 0.4149126002	-0.3187247009	 1.0397527534	 0.098935
H	-2.0691071493	-0.0929895043	 0.6946943125	 0.090338
H	-1.8240865073	-0.132226936	-1.0446803233	 0.087815
H	-0.8239946367	-2.4275220683	-0.8396568863	 0.063832
H	-0.2414865731	-3.2155127236	 1.4310600416	 0.093556
H	-1.4221995077	-2.0999831817	 2.1471205061	 0.097371
H	-2.09325879	-4.6716404891	 0.597900554	 0.097877
H	-3.1262335473	-3.8798182578	 1.8059668301	 0.095063
H	-4.9779644723	-2.4089052403	 0.4693534643	 0.106092
H	-4.2368664674	-1.0020582277	-0.4191526359	 0.110016
H	-3.4515294353	-2.5586167112	-2.2498288316	 0.105816
H	-4.2012304694	-3.9715878224	-1.3762178153	 0.106716
69.0192	85.9728	102.6348	114.8329	236.4579	244.5737	258.97	315.8966	336.4634	420.7079	491.5347	540.2704	733.8099	744.7518	776.5782	792.7393	854.9552	867.1247	892.8251	898.0267	919.2578	939.6762	959.5324	993.733	1010.2499	1044.1635	1052.4277	1075.0903	1100.1388	1103.0145	1148.9871	1181.969	1189.3173	1200.277	1238.9847	1248.9365	1266.0055	1270.855	1286.3543	1309.4319	1329.9074	1369.8757	1376.4854	1396.2056	1411.7995	1464.2377	1476.7597	1482.9031	1493.1511	1498.0878	1499.7077	1505.1473	1510.3076	2997.253	3006.4781	3016.004	3027.8454	3030.6361	3041.5783	3050.5063	3054.7401	3088.3014	3094.6231	3099.6482	3110.3357	3116.3037	3121.3043	3193.0606	3208.5837
CCCC1CCC11CC1	CCC[C@H]1CCC21CC2	
InChI=1S/C9H16/c1-2-3-8-4-5-9(8)6-7-9/h8H,2-7H2,1H3	InChI=1S/C9H16/c1-2-3-8-4-5-9(8)6-7-9/h8H,2-7H2,1H3/t8-/m0/s1
