17
gdb 70014	3.68821	1.4143	1.21087	2.0921	74.73	-0.2287	-0.0023	0.2264	1034.7508	0.136133	-421.755962	-421.748574	-421.747629	-421.787527	29.318	
O	-0.0782314629	 1.4577967517	-0.0625363293	-0.451568
C	-0.0051203294	 0.0946294872	 0.1107490799	 0.300965
C	-0.1125382076	-0.9025176843	-1.0259141111	-0.331327
C	-1.1643471528	-0.9244015625	 0.0544083451	-0.168195
C	-0.6443697478	-1.5224255973	 1.3809201724	 0.111027
O	-0.1913502237	-2.8459150881	 1.5997847183	-0.281195
C	 1.0953658329	-2.6990405339	 2.2343464712	-0.1085
C	 1.6317657638	-1.342082173	 1.76664845	-0.276141
C	 0.5929931807	-0.6855024874	 1.2667358213	 0.172998
H	 0.7089137652	 1.7489095181	-0.5367236632	 0.291332
H	-0.4546769114	-0.4656454426	-1.9599436016	 0.116747
H	 0.60340597	-1.7123453248	-1.126480505	 0.12106
H	-2.2079580951	-0.7420382695	-0.16850614	 0.096996
H	-1.3136497233	-1.1944434961	 2.1936247603	 0.083081
H	 0.990997911	-2.7656723977	 3.3304340729	 0.102376
H	 1.7361868829	-3.5279961191	 1.9109003082	 0.11513
H	 2.6836550575	-1.0866599608	 1.7791693005	 0.105213
147.8644	170.2799	239.8025	267.504	307.25	385.2253	489.6596	514.8897	583.5379	670.7728	729.3078	789.9424	816.2323	842.7264	892.6346	916.9929	938.0322	950.2804	984.6462	1004.1032	1020.0427	1053.0216	1079.0978	1088.3571	1103.4226	1182.8372	1207.8951	1230.6831	1240.2362	1275.9648	1319.468	1341.2159	1361.5655	1403.6298	1482.1874	1508.917	1718.4741	2961.1303	2964.7372	3049.3343	3116.5425	3194.7712	3208.2181	3213.0622	3788.812
OC12CC1C1OCC=C21	O[C@]12C[C@H]1[C@H]1OC[CH][C]21	
InChI=1S/C7H8O2/c8-7-3-5(7)6-4(7)1-2-9-6/h1,5-6,8H,2-3H2	InChI=1S/C7H8O2/c8-7-3-5(7)6-4(7)1-2-9-6/h1,5-6,8H,2-3H2/t5-,6-,7-/m0/s1
