18
gdb 36656	4.45708	0.78453	0.75735	5.0759	76.23	-0.249	0.036	0.285	1504.1688	0.147942	-401.915768	-401.907342	-401.906397	-401.950111	30.7	
N	-0.0929019634	-1.1227772115	-0.0092414287	-0.305569
C	-0.0187782181	 0.0262053683	-0.1085045561	 0.256843
C	 0.0967448975	 1.4782672974	-0.2199882014	-0.334292
C	 1.4634001283	 2.0037650406	 0.2713996637	-0.222019
C	 1.5311101916	 3.5119177495	 0.1792742594	-0.040012
C	 2.812847597	 4.328339454	 0.1381594316	-0.167585
C	 3.8415781916	 3.6570168832	-0.7655139495	-0.095133
O	 2.8685161246	 3.5160055324	-1.837567517	-0.281997
C	 1.9067063349	 4.248252615	-1.0728814207	 0.085606
H	-0.0550501901	 1.7635899054	-1.2668636783	 0.161836
H	-0.7181824874	 1.9345761611	 0.3544303508	 0.147413
H	 1.6281542671	 1.6775869935	 1.3037889066	 0.120844
H	 2.2475390426	 1.5533829547	-0.3413362099	 0.138415
H	 0.7579955054	 4.0336169912	 0.7429785113	 0.093955
H	 3.0094546782	 5.1439247203	 0.8205717828	 0.10457
H	 4.6464942973	 4.3332006241	-1.0728483659	 0.117462
H	 4.2665683836	 2.6965505889	-0.4526623016	 0.112235
H	 1.3001351093	 4.9809470519	-1.5933109472	 0.10743
54.5513	61.7813	109.3669	215.7784	240.5054	315.8079	399.6086	446.6217	529.4568	609.1151	744.8008	774.2273	787.8763	810.2191	898.907	944.9567	962.116	976.6139	1010.8477	1016.5901	1037.4039	1051.7083	1064.501	1080.8182	1123.6786	1165.3713	1170.3738	1228.9496	1260.9099	1285.3086	1313.9456	1324.9938	1352.8639	1381.7368	1450.1497	1466.8427	1484.6192	1519.7707	2362.1321	3031.0387	3040.5898	3055.4502	3079.3219	3080.6909	3110.4677	3123.9172	3175.6196	3206.3085
N#CCCC1C2COC12	N#CCC[C@H]1[C@H]2CO[C@@H]12	
InChI=1S/C7H9NO/c8-3-1-2-5-6-4-9-7(5)6/h5-7H,1-2,4H2	InChI=1S/C7H9NO/c8-3-1-2-5-6-4-9-7(5)6/h5-7H,1-2,4H2/t5-,6+,7-/m0/s1
