15
gdb 18746	3.99417	1.85619	1.42543	4.624	61.67	-0.2291	0.0023	0.2314	866.8024	0.11902	-399.781983	-399.775056	-399.774112	-399.813214	25.592	
C	-0.0474672066	 1.5533408487	 0.0805389274	-0.329577
N	 0.0946957732	 0.1152052856	 0.1378458286	-0.075149
C	-1.1255065024	-0.7080833064	 0.3142424996	-0.196106
C	-0.4180919216	-1.5194538047	 1.412206131	 0.099237
O	 0.4826835178	-2.5516112057	 0.909447783	-0.264062
C	 1.5728065519	-1.6958119467	 0.9152081327	 0.49112
O	 2.6963486794	-1.9546303967	 0.6402265383	-0.320926
C	 0.7241636231	-0.4851521421	 1.3410271758	-0.208954
H	 0.941214096	 2.020936227	 0.0473190405	 0.135226
H	-0.5766332986	 1.8282552976	-0.8373743899	 0.132573
H	-0.6050827383	 1.9780642747	 0.9366940985	 0.093375
H	-1.9701086459	-0.1395601624	 0.7322759895	 0.102862
H	-1.4542347618	-1.2514314411	-0.5766246444	 0.125957
H	-0.9523072864	-1.8529409703	 2.2981767488	 0.110049
H	 1.0680818802	 0.1815568925	 2.1326483508	 0.104375
117.4812	154.4952	219.0117	279.8796	332.2283	392.0508	483.5181	653.6375	695.3126	799.9344	835.4928	852.9179	905.9838	956.4578	995.2726	1006.8598	1034.6376	1096.3034	1137.5527	1164.2433	1189.681	1190.9593	1204.3782	1253.4614	1296.275	1328.6713	1337.7934	1453.0416	1484.0246	1499.2498	1501.7493	1947.8157	2927.681	2993.0915	3065.6646	3083.737	3108.323	3113.1187	3151.6063
CN1CC2OC(=O)C12	CN1C[C@H]2OC(=O)[C@@H]12	
InChI=1S/C5H7NO2/c1-6-2-3-4(6)5(7)8-3/h3-4H,2H2,1H3	InChI=1S/C5H7NO2/c1-6-2-3-4(6)5(7)8-3/h3-4H,2H2,1H3/t3-,4+/m1/s1
