24
gdb 103925	3.06341	1.10824	1.03104	1.6694	89.84	-0.2187	0.0818	0.3005	1343.7453	0.216239	-368.385883	-368.375947	-368.375003	-368.419921	38.659	
C	-0.0025667607	 1.5014239265	 0.2038499005	-0.388794
C	-0.0980792787	-0.0046005169	-0.0649296354	-0.229328
C	 0.6848185167	-0.4895688753	-1.2897775804	 0.369836
C	 0.1585703986	 0.0926389469	-2.6021565914	-0.456941
C	 2.2623751437	-0.3983105337	-1.2047020633	-0.327773
C	 2.3338041984	-1.9231428588	-1.3777248599	 0.361799
C	 3.4008414362	-2.7011483128	-2.0830106032	-0.508911
N	 1.6045962189	-2.477127205	-0.2067146014	-0.377654
C	 0.8488385855	-2.0211435942	-1.4024338001	-0.163443
H	 1.0395163617	 1.8198533443	 0.3182199919	 0.115027
H	-0.4429236627	 2.0951912635	-0.6036917711	 0.111368
H	-0.5292855061	 1.7641778069	 1.1267702057	 0.110248
H	 0.2699193419	-0.5563749959	 0.8055036772	 0.117944
H	-1.1534984332	-0.2853446863	-0.1896734551	 0.081504
H	 0.2897168099	 1.1786092524	-2.6413907088	 0.117124
H	 0.6859733062	-0.3353940736	-3.4618943241	 0.107437
H	-0.9098860754	-0.1211921752	-2.7263119927	 0.108836
H	 2.6939485959	 0.1579172732	-2.041158579	 0.093746
H	 2.679434471	-0.026661631	-0.2649360578	 0.098334
H	 4.3288524716	-2.7226925108	-1.4986776948	 0.126684
H	 3.0883119327	-3.7379753639	-2.2516955182	 0.114455
H	 3.6334617172	-2.2583008443	-3.0575519828	 0.122925
H	 1.6683372426	-3.4937423235	-0.2707296666	 0.21909
H	 0.2004864883	-2.7066056527	-1.939401229	 0.076488
97.7396	128.5807	162.5432	207.0972	224.7865	252.9205	285.8497	314.8376	327.2332	361.176	432.3414	438.3295	534.67	587.4212	675.7741	770.3951	787.0838	851.3424	882.716	895.0079	921.1985	940.5461	976.3666	1000.1162	1012.2695	1021.0271	1038.5636	1075.358	1094.7645	1121.7094	1150.8126	1170.6187	1210.0889	1238.1867	1268.2725	1293.2355	1323.6453	1351.6358	1368.6137	1404.5177	1409.2711	1413.2551	1442.1868	1477.4547	1482.1436	1485.8254	1494.3738	1499.3118	1500.6998	1505.3544	1509.6313	3009.6177	3019.4299	3022.0089	3032.264	3054.3191	3075.7725	3080.4619	3084.7963	3092.1427	3096.7642	3097.8305	3104.6609	3111.1329	3160.0148	3457.9971
CCC1(C)CC2(C)NC12	CC[C@@]1(C)C[C@@]2(C)N[C@@H]12	
InChI=1S/C8H15N/c1-4-7(2)5-8(3)6(7)9-8/h6,9H,4-5H2,1-3H3	InChI=1S/C8H15N/c1-4-7(2)5-8(3)6(7)9-8/h6,9H,4-5H2,1-3H3/t6-,7-,8+/m0/s1
