22
gdb 115725	2.83871	1.13646	0.94719	2.0299	81.62	-0.2402	0.0718	0.312	1345.6937	0.194928	-404.304439	-404.295108	-404.294164	-404.339205	34.312	
C	 0.1805059795	 1.5806872149	 0.1502081849	-0.388905
C	-0.2145169266	 0.1312032395	-0.1521342488	-0.197532
C	 0.6358872891	-0.4855318012	-1.259041039	-0.038184
C	 2.101977102	-0.835015482	-0.9210119133	-0.08415
O	 1.8816419763	-2.2412487725	-1.1779830885	-0.297088
C	 0.5022304198	-2.0107956543	-1.5517561885	 0.08094
C	-0.452770523	-2.8429641747	-0.7288362528	-0.004446
C	-0.1022324822	-4.2426116971	-0.3923161305	-0.250418
N	-0.1152461061	-3.2009083799	 0.6553786605	-0.319454
H	 1.2232534288	 1.6513097625	 0.4797626589	 0.117506
H	 0.0710147522	 2.2154970762	-0.7362478191	 0.114639
H	-0.4443142568	 2.0029993077	 0.9426928702	 0.118389
H	-0.1377908049	-0.4755461628	 0.7570553651	 0.121117
H	-1.2699972674	 0.096596845	-0.450229234	 0.100195
H	 0.5467872196	 0.117515305	-2.1676300122	 0.075308
H	 2.8642996809	-0.4194650535	-1.5901102775	 0.104884
H	 2.4055116923	-0.6552257522	 0.1185635895	 0.10057
H	 0.3452354785	-2.2313774181	-2.6173920699	 0.079181
H	-1.5014505729	-2.5938648684	-0.883329423	 0.091537
H	-0.8816642787	-4.9941892275	-0.3077283753	 0.114813
H	 0.86418919	-4.6097879734	-0.7256944747	 0.126426
H	 0.8539767896	-2.9257016531	 0.8108333278	 0.23467
65.7593	89.3515	118.6219	128.0236	218.9235	238.273	259.6928	326.8789	400.4378	507.5337	600.5341	746.8806	768.8059	815.444	854.9664	861.4418	901.8755	956.5572	960.5912	978.2892	987.0565	1011.9539	1026.6467	1053.5783	1098.2824	1128.1366	1142.6881	1148.7699	1162.2287	1186.279	1196.4415	1254.3192	1268.5242	1286.8541	1304.3647	1305.5286	1337.0722	1362.5815	1370.5214	1403.264	1413.5442	1417.4479	1487.5615	1501.3136	1503.4403	1507.0327	1527.5813	2994.8894	3012.6743	3028.2737	3030.6373	3049.3487	3062.3617	3074.7339	3097.5911	3106.3184	3113.3437	3122.7993	3203.0628	3475.4813
CCC1COC1C1CN1	CC[C@H]1CO[C@H]1[C@H]1CN1	
InChI=1S/C7H13NO/c1-2-5-4-9-7(5)6-3-8-6/h5-8H,2-4H2,1H3	InChI=1S/C7H13NO/c1-2-5-4-9-7(5)6-3-8-6/h5-8H,2-4H2,1H3/t5-,6+,7+/m0/s1
