21
gdb 106575	2.3589	1.58226	1.17698	1.5448	83.	-0.2192	0.0223	0.2415	1135.4665	0.182602	-387.051067	-387.042403	-387.041459	-387.084051	34.219	
C	-0.1817446449	 1.5480299572	-0.0315686371	-0.437136
C	 0.0137162799	 0.0364402102	 0.0140285296	 0.000777
C	 1.1872978042	-0.5976610794	-0.8314539382	-0.088273
C	 2.1349811757	-0.2071721995	 0.3527208633	-0.253881
C	 0.865994927	-0.5985278118	 1.1905401618	 0.328469
C	 0.6800326009	-0.2095625957	 2.6332931822	-0.216904
O	 1.6755482433	-0.87889366	 3.3988393375	-0.423452
C	 0.7546664834	-2.0831298072	 0.805058761	-0.113936
C	 0.9640010065	-2.0815970225	-0.5141616066	-0.101595
H	 0.7421194606	 2.1149361475	 0.1101605444	 0.118043
H	-0.6028701647	 1.8418333961	-0.9997489223	 0.116787
H	-0.8908494084	 1.870649543	 0.7394589442	 0.1148
H	-0.9503839671	-0.4594427264	-0.137260534	 0.063357
H	 1.3823696087	-0.3009326876	-1.86237816	 0.053906
H	 3.0266553324	-0.8187546662	 0.4982394007	 0.100941
H	 2.389345855	 0.8550636631	 0.398753977	 0.087935
H	 0.7638061204	 0.8833390022	 2.7424674873	 0.083765
H	-0.3334203594	-0.4941238993	 2.9641317306	 0.082953
H	 1.5618038271	-0.6310232384	 4.3210490349	 0.287212
H	 0.5567688304	-2.8963979704	 1.4884250355	 0.100869
H	 0.974632939	-2.900130075	-1.2200208915	 0.095363
83.2751	148.2498	195.9729	235.6702	258.1216	277.81	339.8181	430.0013	480.9883	533.1874	549.9952	651.7849	680.8099	720.6242	796.8372	835.8855	882.5144	903.8392	906.1222	923.2285	939.7979	1033.6785	1043.9015	1059.4669	1075.2828	1077.1847	1090.4111	1112.6406	1153.2249	1178.2422	1217.7667	1230.0063	1241.2367	1250.4819	1279.1878	1286.3324	1345.2268	1373.0062	1406.7449	1466.4946	1489.5579	1495.0121	1510.2973	1520.0872	1624.7829	2954.7683	2988.3908	3029.0689	3050.8594	3063.4337	3085.4125	3110.785	3111.9031	3131.4529	3218.2052	3246.0856	3827.9699
CC1C2CC1(CO)C=C2	C[C@H]1[C@H]2C[C@]1(CO)C=C2	
InChI=1S/C8H12O/c1-6-7-2-3-8(6,4-7)5-9/h2-3,6-7,9H,4-5H2,1H3	InChI=1S/C8H12O/c1-6-7-2-3-8(6,4-7)5-9/h2-3,6-7,9H,4-5H2,1H3/t6-,7+,8-/m0/s1
