19
gdb 96653	3.07961	1.21025	1.01847	2.9089	73.34	-0.2311	0.0285	0.2596	1233.7663	0.159467	-456.339822	-456.330544	-456.3296	-456.374973	33.324	
C	-0.3997575209	 1.154121824	-0.0583581143	-0.336853
N	-0.1039712597	-0.2675090737	-0.0224249264	-0.262553
C	 0.6010428016	-0.746941793	-0.9678947534	 0.285967
N	 1.1794415554	-0.0706852131	-2.0236007064	-0.549088
C	 0.985239412	-2.236446418	-0.9522170997	 0.144053
O	 0.1872900521	-3.0166411699	-0.1242760883	-0.214861
C	-0.9464163387	-3.3583943153	-0.9125590998	-0.112141
C	-0.3396367327	-3.5425144113	-2.3150852776	-0.089664
O	 0.8640701003	-2.7699606162	-2.2765289091	-0.284717
H	 0.5073035864	 1.7690953199	 0.0467738697	 0.115113
H	-0.8988753935	 1.4654551286	-0.9923501388	 0.097013
H	-1.0688892939	 1.4080642014	 0.7676362059	 0.12381
H	 0.8377203222	 0.8557819644	-2.2245619026	 0.25202
H	 1.3658199142	-0.6384209135	-2.8373706585	 0.262567
H	 2.0281506309	-2.3441822448	-0.6313715843	 0.113355
H	-1.3873528786	-4.2683472731	-0.5019412849	 0.118577
H	-1.6861035344	-2.5490103036	-0.8918014314	 0.117977
H	-0.081723356	-4.5878994479	-2.5195874557	 0.112155
H	-0.9971551965	-3.1765623249	-3.1108426246	 0.107269
39.645	58.716	138.9562	150.84	202.0125	251.4346	322.0542	364.0481	431.1803	480.9627	553.8643	606.4269	681.7259	703.896	796.2411	871.1229	898.071	944.1031	952.5064	1002.4858	1021.9193	1054.2032	1103.5451	1107.7005	1164.335	1175.0227	1195.4075	1220.4086	1244.9048	1311.838	1321.4669	1365.3867	1377.1613	1398.2295	1435.1595	1490.3853	1508.0668	1514.9431	1528.3971	1629.2186	1751.3079	2952.0944	3008.7106	3031.4121	3035.5462	3047.1068	3074.8245	3097.534	3121.0632	3573.8645	3686.3719
CN=C(N)C1OCCO1	CN=C(N)C1OCCO1	
InChI=1S/C5H10N2O2/c1-7-4(6)5-8-2-3-9-5/h5H,2-3H2,1H3,(H2,6,7)	InChI=1S/C5H10N2O2/c1-7-4(6)5-8-2-3-9-5/h5H,2-3H2,1H3,(H2,6,7)
