16
gdb 19775	3.07357	2.5535	1.70264	3.2919	67.47	-0.2326	-0.0184	0.2142	782.1326	0.132603	-346.600269	-346.594096	-346.593152	-346.630359	25.16	
O	 0.0018181579	 0.0145878885	 0.0028207578	-0.330615
C	-0.0146028813	 1.2214128288	 0.0191528248	 0.400314
C	-1.264002248	 2.0727878818	-0.0515439178	-0.143273
C	-1.5274076769	 3.1304176943	 1.00916555	-0.301737
C	-0.8161815049	 3.5062326903	-0.2557415044	-0.04229
C	 0.7151670825	 3.5273743031	-0.2782983819	-0.04229
C	 1.4734343057	 3.1718498994	 0.9649643484	-0.301737
C	 1.2081983465	 2.1069189607	-0.0879555744	-0.143273
H	-2.1154399896	 1.6249779931	-0.5495069899	 0.108414
H	-2.563564079	 3.4374493565	 1.1040196777	 0.12301
H	-1.0011451944	 3.0953571405	 1.954321023	 0.125126
H	-1.3228628152	 4.1532117801	-0.9615577407	 0.095901
H	 1.18279318	 4.1878020669	-0.9984688345	 0.095901
H	 2.5030662098	 3.5073994161	 1.029388742	 0.12301
H	 0.9764003468	 3.1226664145	 1.9251926822	 0.125126
H	 2.05663914	 1.6825766953	-0.6109556524	 0.108414
154.7511	203.9901	364.4873	436.4681	471.9668	565.5847	637.8104	701.1909	746.0825	782.5552	802.8645	837.4992	870.1097	925.1837	956.5093	972.1603	981.1332	1029.0366	1034.0459	1072.6358	1076.4258	1102.7335	1108.2758	1111.0981	1181.761	1193.9409	1209.1367	1307.3806	1339.3568	1349.6339	1375.0033	1479.3353	1514.48	1821.9267	3141.9224	3148.0314	3175.0903	3184.0985	3188.3026	3192.6627	3224.7938	3234.3781
O=C1C2CC2C2CC12	O=C1[C@H]2C[C@H]2[C@H]2C[C@@H]12	
InChI=1S/C7H8O/c8-7-5-1-3(5)4-2-6(4)7/h3-6H,1-2H2	InChI=1S/C7H8O/c8-7-5-1-3(5)4-2-6(4)7/h3-6H,1-2H2/t3-,4+,5-,6+
