17
gdb 19917	4.55024	1.50694	1.35643	1.3959	67.13	-0.2203	0.0598	0.2801	939.1785	0.142623	-363.747979	-363.740848	-363.739904	-363.779462	27.85	
O	 0.084497877	 1.4234178467	-0.3215117909	-0.424784
C	 0.1666439575	 0.0628975984	 0.0770191285	-0.114551
C	-1.2213445552	-0.5838860528	 0.0689261529	-0.017528
C	-1.7158669711	-1.9718356934	-0.1196998546	-0.06836
C	-0.9728539915	-3.1272052229	 0.5693618734	-0.063375
C	 0.2641575344	-2.6832371964	 1.2899017354	-0.303764
C	-1.0967823461	-2.3303644472	 1.8446613893	-0.008022
N	-1.9310595984	-1.240938103	 1.1922570303	-0.172206
H	-0.3821604033	 1.9038831822	 0.3701318987	 0.286106
H	 0.828839841	-0.4143862951	-0.6521836475	 0.127796
H	 0.6301010794	-0.0235123933	 1.0671796903	 0.112119
H	-1.9145175898	 0.1235284099	-0.3895729353	 0.107706
H	-2.5625383222	-2.1701976847	-0.7714018648	 0.098354
H	-1.216426827	-4.1633336986	 0.3780809155	 0.096872
H	 0.7377645004	-3.4771458353	 1.8618590467	 0.117814
H	 0.972395983	-1.9840259812	 0.8697349029	 0.120842
H	-1.4063838779	-2.6313920933	 2.8368459894	 0.10498
67.1835	200.5914	227.5555	329.1788	375.2091	400.8376	463.0499	631.6593	674.9036	698.7165	751.2639	785.0668	866.4871	890.4981	916.5326	948.5689	1002.9096	1017.3671	1029.0841	1056.3333	1062.5626	1074.242	1081.5097	1097.0103	1145.613	1190.8589	1227.9324	1259.4519	1277.4437	1329.6283	1350.0781	1383.7455	1415.8386	1432.2673	1494.2267	1511.8614	3021.8144	3083.0859	3095.4632	3138.2937	3142.1068	3193.3881	3206.8732	3241.2844	3814.8876
OCC1C2C3CC3N12	OC[C@H]1[C@H]2[C@H]3C[C@H]3N12	
InChI=1S/C6H9NO/c8-2-5-6-3-1-4(3)7(5)6/h3-6,8H,1-2H2	InChI=1S/C6H9NO/c8-2-5-6-3-1-4(3)7(5)6/h3-6,8H,1-2H2/t3-,4+,5-,6+,7?/m0/s1
