23
gdb 65560	3.7647	0.91471	0.8773	1.6509	85.8	-0.261	0.0806	0.3416	1448.1568	0.205086	-388.262061	-388.252633	-388.251689	-388.296596	35.867	
C	-0.1460325521	 1.5156555898	 0.1525097705	-0.441715
C	-0.0278717018	-0.0055765383	 0.0184844928	 0.359868
C	-1.4040597249	-0.6805478225	-0.0460275258	-0.295551
C	-2.2234074608	-0.3054718102	-1.2584982137	 0.09652
C	-3.6913357099	-0.3030538724	-1.2446308889	-0.18349
O	-2.960114653	 0.9229690025	-1.2050540341	-0.232032
C	 0.994987213	-0.4206320617	-1.0928305619	-0.249512
C	 2.0796083245	-0.6089116048	 0.000694355	-0.213574
C	 0.9591213166	-0.6026852027	 1.074372686	-0.264581
H	 0.842953039	 1.982088875	 0.2153411213	 0.104797
H	-0.6754506715	 1.9546778242	-0.6974821015	 0.135628
H	-0.6992679324	 1.7835512818	 1.0597880934	 0.110767
H	-1.2662842418	-1.7707904813	-0.0546956945	 0.092216
H	-1.9812925981	-0.4390196428	 0.8558738446	 0.098042
H	-1.7352936785	-0.4746601852	-2.2205679544	 0.09184
H	-4.2465800098	-0.489215079	-2.1631359696	 0.111218
H	-4.2170681378	-0.5628684141	-0.326189582	 0.110946
H	 0.7238748679	-1.3694823849	-1.5671545179	 0.089838
H	 1.1940490987	 0.3124484084	-1.8794199888	 0.095317
H	 2.6985706251	-1.5065066277	-0.0647556062	 0.095351
H	 2.7440550697	 0.2549401951	 0.0835657762	 0.104121
H	 1.1282549479	-0.0088490689	 1.9770750964	 0.093095
H	 0.67274196	-1.6148887802	 1.3767314831	 0.090892
59.0185	91.7784	131.5153	154.0146	262.0152	292.2019	307.1081	330.3173	386.3975	421.2553	466.3942	653.4823	719.3613	786.8457	799.1458	856.6894	866.8223	904.8981	923.973	935.2401	945.2987	947.5318	985.9532	1000.0412	1039.0266	1088.8041	1104.2144	1155.1707	1162.8641	1170.2697	1192.2176	1208.5211	1220.2979	1247.5591	1258.954	1274.7884	1296.4157	1306.5981	1321.3386	1342.513	1417.6935	1446.5216	1463.9086	1476.2076	1483.4356	1495.9103	1500.0383	1508.9144	1529.7065	3007.068	3029.8007	3041.7497	3046.8185	3050.7792	3063.3226	3078.5412	3089.3959	3091.075	3093.0693	3095.4187	3114.7281	3117.3852	3164.2046
CC1(CC2CO2)CCC1	CC1(C[C@H]2CO2)CCC1	
InChI=1S/C8H14O/c1-8(3-2-4-8)5-7-6-9-7/h7H,2-6H2,1H3	InChI=1S/C8H14O/c1-8(3-2-4-8)5-7-6-9-7/h7H,2-6H2,1H3/t7-/m0/s1
