16
gdb 29746	3.43081	1.26332	0.93132	7.3121	79.68	-0.2144	-0.0469	0.1675	1193.6287	0.125127	-434.106984	-434.098348	-434.097404	-434.140304	31.036	
C	-0.087144375	 1.4344871576	 0.0039910975	-0.360257
N	-0.0009738593	-0.0166753884	 0.0060907949	-0.070235
C	 0.0014738599	-0.7958518379	-1.1175690821	 0.276218
N	-0.0925707383	-0.2348389172	-2.3924749219	-0.609916
C	 0.0137170519	-2.1089929447	-0.6694116286	-0.143498
N	 0.0263225354	-2.1475204963	 0.6835131107	-0.267633
C	 0.0306910158	-0.8864349618	 1.091289454	 0.220116
C	 0.0994407051	-0.4275231167	 2.4736503836	 0.076601
O	 0.0993440509	-1.1461955651	 3.4475876916	-0.266436
H	 0.8962137717	 1.8999851145	 0.1291943394	 0.145081
H	-0.5128302618	 1.7486996461	-0.9512682267	 0.160002
H	-0.7424287506	 1.774878411	 0.8065539172	 0.159871
H	 0.7073300613	 0.333199905	-2.651313885	 0.256411
H	-0.2303473245	-0.9466436361	-3.0980815099	 0.261787
H	 0.0152520556	-3.0058648721	-1.2719102083	 0.108617
H	 0.1600939618	 0.6791906323	 2.5840027538	 0.053271
109.015	125.8298	154.7917	201.2593	231.2596	272.5391	307.1797	327.3627	394.2904	520.7636	656.6965	669.6303	697.8279	739.4832	785.8627	828.9575	840.0645	979.2118	1011.3051	1105.6574	1150.0979	1156.7464	1228.05	1259.1662	1332.9686	1352.6669	1447.184	1461.682	1484.5924	1495.0447	1508.7899	1513.6449	1589.9872	1656.6953	1788.4438	2863.0477	3042.9169	3117.1278	3148.3737	3237.2555	3514.1288	3616.8122
CN1C(N)=CN=C1C=O	Cn1c(N)cnc1C=O	
InChI=1S/C5H7N3O/c1-8-4(6)2-7-5(8)3-9/h2-3H,6H2,1H3	InChI=1S/C5H7N3O/c1-8-4(6)2-7-5(8)3-9/h2-3H,6H2,1H3
