21
gdb 65791	3.62927	1.16995	1.09858	1.43	83.07	-0.2457	0.0201	0.2658	1202.9263	0.182996	-387.088583	-387.080108	-387.079164	-387.121424	33.929	
O	 0.0061375614	 1.3515736232	-0.2297093621	-0.480112
C	 0.0227315648	-0.0734449706	-0.1176945818	 0.368689
C	 0.9851382553	-0.662256113	-1.1927733427	-0.293526
C	 2.3075029129	-0.736101057	-0.4664584194	-0.08089
C	 2.1490434854	-0.6341019159	 0.8546173987	-0.08089
C	 0.694546773	-0.4752054762	 1.2298854752	-0.293526
C	-1.4077375968	-0.5488472074	-0.2525701486	-0.008995
C	-2.5541320028	 0.2511699317	 0.310564569	-0.275455
C	-2.3748822642	 0.1357896783	-1.1838443692	-0.275455
H	 0.917301514	 1.6523913572	-0.1436382927	 0.280033
H	 0.6613627381	-1.660991838	-1.5168129696	 0.104866
H	 0.9934809002	-0.0265488978	-2.0842237647	 0.108565
H	 3.2532828131	-0.8882143284	-0.9750197149	 0.092293
H	 2.9458221392	-0.6903045373	 1.5882779045	 0.092293
H	 0.504604246	 0.2881351846	 1.9915350627	 0.108565
H	 0.2855873267	-1.4191092928	 1.6160242208	 0.104866
H	-1.4963889153	-1.6292606659	-0.1797870599	 0.076037
H	-3.3714787972	-0.2859985346	 0.7790946531	 0.101392
H	-2.3160960706	 1.2070597481	 0.760945223	 0.124929
H	-2.0203183745	 1.0166724011	-1.7049578639	 0.124929
H	-3.0687742587	-0.4808444794	-1.7445603174	 0.101392
89.0098	111.6567	188.3359	258.204	345.3747	364.8744	377.8824	398.8252	410.1099	499.6902	628.1316	700.8277	780.498	784.6632	798.8053	830.2313	887.3329	906.5126	930.2561	941.5747	964.9445	974.9957	976.46	1031.1573	1050.3917	1066.0277	1086.0458	1106.4343	1129.806	1140.1857	1141.7469	1175.4172	1207.5912	1227.6507	1239.3543	1278.2041	1303.3075	1351.3857	1363.8671	1444.3702	1458.3285	1470.8615	1479.1387	1501.8675	1674.4489	3013.6118	3014.8804	3072.2236	3072.8103	3138.0326	3138.9581	3146.4959	3179.2398	3204.3647	3224.1893	3237.7018	3806.5646
OC1(CC=CC1)C1CC1	O[C@]1(CC=CC1)C1CC1	
InChI=1S/C8H12O/c9-8(7-3-4-7)5-1-2-6-8/h1-2,7,9H,3-6H2	InChI=1S/C8H12O/c9-8(7-3-4-7)5-1-2-6-8/h1-2,7,9H,3-6H2
