19
gdb 72686	2.35499	1.43985	1.43071	1.1703	76.12	-0.249	-0.0365	0.2126	1060.7328	0.157535	-423.011198	-423.002475	-423.00153	-423.044734	32.577	
C	-0.1894514497	 1.5354941886	 0.1834407544	-0.473881
C	 0.0197385345	 0.0485275496	 0.0812993574	 0.404847
C	-1.199234076	-0.9048283298	 0.0225018792	-0.260864
C	-0.5461171977	-1.8267366982	 1.0952648707	-0.297749
C	 0.6904145856	-0.9037820431	 1.1768431511	 0.141849
C	 1.7449782792	-1.1173515069	 0.0800048458	-0.13828
O	 1.0334341417	-0.3121307943	-0.8815273851	-0.320918
C	 1.1252217929	-0.3964939925	 2.5080107096	 0.062864
O	 0.5141059213	-0.5560737785	 3.5373631024	-0.254751
H	 0.7558352841	 2.0607936704	 0.3450012463	 0.126355
H	-0.6265621777	 1.9051028348	-0.7516197727	 0.135651
H	-0.8762649494	 1.778771505	 0.9997151662	 0.129783
H	-2.1363102637	-0.4451521012	 0.3470410423	 0.107537
H	-1.3396770577	-1.3412163135	-0.968381062	 0.114457
H	-1.0840700439	-1.8450181484	 2.0441687239	 0.133717
H	-0.3350737325	-2.8534728245	 0.7870359398	 0.104773
H	 2.7273072004	-0.6823947762	 0.3128990906	 0.104086
H	 1.8827447496	-2.1519321861	-0.2562130748	 0.108336
H	 2.071053289	 0.194150215	 2.4936551748	 0.072188
74.877	86.1892	192.5794	211.0899	250.7819	270.2125	336.1676	369.1804	447.9566	481.5782	603.4278	666.3558	744.1769	762.7232	822.6847	878.0136	913.6975	937.0965	954.2318	986.1126	1020.3823	1042.3971	1071.4284	1145.8662	1166.7136	1179.7372	1212.7708	1226.8514	1240.3142	1257.8349	1288.5748	1314.5997	1360.5839	1406.9486	1428.7497	1465.5433	1479.3059	1486.1548	1487.4473	1519.8475	1805.9118	2855.7792	2996.55	3033.5054	3052.3604	3063.8201	3071.7493	3102.2009	3118.0777	3121.2707	3137.4723
CC12CCC1(CO2)C=O	C[C@]12CC[C@]1(CO2)C=O	
InChI=1S/C7H10O2/c1-6-2-3-7(6,4-8)5-9-6/h4H,2-3,5H2,1H3	InChI=1S/C7H10O2/c1-6-2-3-7(6,4-8)5-9-6/h4H,2-3,5H2,1H3/t6-,7+/m0/s1
