16
gdb 131645	4.02423	1.18827	0.9509	5.552	72.39	-0.248	0.0004	0.2484	1196.5716	0.126085	-434.020697	-434.012875	-434.011931	-434.054574	28.133	
O	 0.2966541907	 1.198999678	-0.7846853133	-0.417229
C	 0.0893935314	 0.1403517717	 0.1273457113	-0.152214
C	-1.3568498156	-0.2498967523	 0.2095891208	 0.107353
C	-2.1894610207	-0.6969306575	 1.2128201306	 0.273881
C	-2.7477795905	-1.1153172024	 2.5723185299	-0.386079
C	-4.1189010708	-1.3073284427	 1.8123786778	-0.166362
N	-3.3717489347	-0.8828946285	 0.6058928409	 0.088295
N	-3.3680151854	-0.5831469185	-0.6968692767	-0.180954
N	-2.1273104998	-0.2078829415	-0.9259333594	-0.262053
H	-0.322960263	 1.0540610913	-1.510959579	 0.299364
H	 0.6914383159	-0.7418213569	-0.1509592738	 0.101747
H	 0.4469172979	 0.4708239072	 1.1088803602	 0.108746
H	-2.3315846557	-2.032073465	 2.9936011437	 0.141805
H	-2.7599266765	-0.3356458902	 3.3359280604	 0.143833
H	-4.4957414641	-2.3296116666	 1.752416945	 0.149088
H	-4.9184343491	-0.618694106	 2.0902248416	 0.150779
20.4067	121.0372	179.8447	220.9198	279.5906	361.4073	395.091	502.5763	661.4211	680.7174	703.5962	755.1387	806.6895	868.6928	902.8954	1010.905	1060.114	1069.9541	1081.393	1133.3646	1137.2527	1179.3607	1207.6174	1218.3495	1239.2034	1273.4255	1294.1386	1333.8735	1362.7808	1448.4593	1471.3726	1483.7623	1513.5231	1519.1492	1608.861	2951.8842	3058.8568	3082.2949	3085.9167	3132.929	3149.87	3776.1585
OCC1=C2CCN2N=N1	OCc1c2CCn2nn1	
InChI=1S/C5H7N3O/c9-3-4-5-1-2-8(5)7-6-4/h9H,1-3H2	InChI=1S/C5H7N3O/c9-3-4-5-1-2-8(5)7-6-4/h9H,1-3H2
