18
gdb 38136	2.79229	1.9821	1.44013	0.9891	76.31	-0.2261	-0.0057	0.2205	928.7935	0.150652	-401.902848	-401.896122	-401.895178	-401.933787	27.511	
C	 0.2013037892	 1.6520079583	 0.1986547928	-0.249168
C	 1.3148334308	 0.6845530069	-0.0803317182	-0.07112
C	 2.2955737766	 0.4246944176	 0.9944240376	-0.029216
C	 1.9596073145	-0.0956300352	 2.1778182918	-0.124664
C	 0.5602515997	-0.5179803891	 2.4553641192	 0.091057
O	-0.3033550911	 0.4568623158	 3.1244296575	-0.298596
C	-1.3867051439	 0.1357761555	 2.2219900001	-0.091279
C	-0.4210433127	-0.561348192	 1.2520865131	-0.040132
N	-0.0749953006	 0.2280046989	 0.0723392714	-0.107841
H	 0.200465565	 2.1040690648	 1.1872594996	 0.140783
H	-0.1927168816	 2.2699786704	-0.604633362	 0.115699
H	 1.698577403	 0.6189517256	-1.0962598649	 0.09562
H	 3.3303625475	 0.6726406673	 0.7731048083	 0.100294
H	 2.7123357304	-0.2707352142	 2.9402161049	 0.097962
H	 0.547283755	-1.4551968488	 3.0311503275	 0.072037
H	-2.1173151185	-0.5408938684	 2.6854889362	 0.099498
H	-1.9005470169	 1.0279118059	 1.8504360699	 0.112292
H	-0.6974062665	-1.5624292093	 0.9140898951	 0.086775
127.747	200.3024	297.0961	355.3451	434.1171	475.8026	551.9949	588.3437	705.2991	746.4688	775.6863	816.9145	852.2562	879.5753	943.8906	946.8621	972.1356	994.95	999.2211	1017.7665	1062.0292	1081.9676	1116.9683	1126.6622	1136.6868	1165.545	1172.6007	1192.4143	1253.9695	1281.1201	1320.2851	1342.9381	1356.1288	1378.3167	1389.5514	1434.031	1497.3938	1517.6416	1703.1943	2988.5577	3011.4909	3076.161	3082.9469	3098.8329	3125.3019	3158.7966	3181.6372	3193.6055
C1C2C=CC3OCC3N12	C1[C@H]2C=C[C@H]3OC[C@H]3N12	
InChI=1S/C7H9NO/c1-2-7-6(4-9-7)8-3-5(1)8/h1-2,5-7H,3-4H2	InChI=1S/C7H9NO/c1-2-7-6(4-9-7)8-3-5(1)8/h1-2,5-7H,3-4H2/t5-,6-,7-,8?/m1/s1
