17
gdb 43198	2.63582	1.69872	1.24332	3.9213	73.49	-0.2312	-0.0336	0.1976	1021.104	0.135967	-421.78723	-421.779625	-421.77868	-421.819555	28.897	
O	 0.0089035989	 0.1058626923	-0.6707125304	-0.312368
C	-0.0445875724	 1.2259454719	-0.2498294766	 0.361683
C	-1.1817901802	 2.1680191183	 0.2311429246	-0.014291
O	-1.3832076522	 2.0244327949	 1.6553034226	-0.285905
C	-0.5079402712	 3.1433665971	 1.9448590328	-0.077796
C	-0.1057858048	 3.283138394	 0.4668205247	-0.208787
C	 0.9802813067	 2.3010539471	 0.0084007555	 0.236211
C	 2.3992009419	 2.1020433982	 0.4886675015	-0.310217
C	 2.1567710765	 2.5619255794	-0.9125961261	-0.320692
H	-2.1111469134	 2.253782636	-0.3371881043	 0.094258
H	-1.0797937926	 3.9909401055	 2.3419367938	 0.10631
H	 0.2888855341	 2.8780714682	 2.6487797454	 0.109824
H	-0.1351778451	 4.2659794127	 0.0004010532	 0.090579
H	 2.78142661	 2.8193004496	 1.2074229509	 0.125007
H	 2.7159188312	 1.0768256775	 0.6482990511	 0.139911
H	 2.3002462352	 1.8538417479	-1.7218804645	 0.140654
H	 2.3649721074	 3.5971207696	-1.1612321843	 0.12562
83.2887	169.7511	196.2961	219.3788	231.6808	367.6652	465.1328	608.5732	650.3871	747.3738	776.9207	809.6709	814.4815	857.2298	910.5125	947.894	952.2067	986.6678	998.779	1028.8058	1050.3134	1062.2992	1077.6879	1090.3405	1140.2729	1171.8435	1191.8989	1198.0854	1255.6264	1264.4454	1271.5049	1347.6161	1375.0694	1457.2758	1488.5636	1518.3992	1881.6974	3020.0045	3070.0757	3085.8716	3131.0468	3132.7494	3133.0727	3214.7507	3229.5175
O=C1C2OCC2C11CC1	O=C1[C@H]2OC[C@H]2C21CC2	
InChI=1S/C7H8O2/c8-6-5-4(3-9-5)7(6)1-2-7/h4-5H,1-3H2	InChI=1S/C7H8O2/c8-6-5-4(3-9-5)7(6)1-2-7/h4-5H,1-3H2/t4-,5+/m1/s1
