19
gdb 100479	4.06291	0.62347	0.57018	1.7548	83.97	-0.2505	0.0179	0.2684	1965.5625	0.155987	-422.955842	-422.945496	-422.944552	-422.993201	35.471	
C	 0.2495263816	 1.4476074119	 0.1472034256	-0.231713
O	 0.4691229219	 0.0607984067	 0.0168670746	-0.241403
C	 0.6307191732	-0.6208586722	 1.2572103921	-0.044394
C	-0.717434438	-0.8952585591	 1.9443892593	-0.392245
C	 1.353717676	-1.8656477478	 0.9981330133	 0.083009
C	 1.946505919	-2.8970529424	 0.8109284957	 0.132288
C	 2.6348254352	-4.1389878375	 0.5906044459	-0.122386
C	 3.5510786306	-4.3233306408	-0.552981901	-0.15812
O	 4.0633706787	-4.1507657177	 0.760806913	-0.214884
H	 1.0572483	 1.9352377596	 0.7152787553	 0.107275
H	 0.2323504056	 1.8609337799	-0.8639916145	 0.131695
H	-0.7071911727	 1.6849735429	 0.6350823619	 0.107208
H	 1.2498200191	-0.0006814381	 1.9284876715	 0.096625
H	-1.3490369612	-1.5035893781	 1.2924439298	 0.135068
H	-0.5614971695	-1.4308125024	 2.8847295479	 0.128646
H	-1.2358104613	 0.0415797677	 2.1658394144	 0.118778
H	 2.1422121556	-5.0258939143	 0.9877696829	 0.116822
H	 3.6676484312	-5.3181788376	-0.9813130978	 0.119176
H	 3.7121260051	-3.4907125706	-1.2347674096	 0.128554
24.5349	62.0127	79.3672	106.8258	183.6699	209.021	215.7957	248.5329	352.2595	375.4987	450.2161	530.7659	538.1308	577.3639	739.397	829.829	844.222	896.8243	972.9427	1023.3523	1066.2001	1086.2877	1103.956	1134.8657	1155.3162	1162.2736	1179.855	1194.5081	1217.7369	1283.359	1341.1387	1370.6706	1397.8643	1407.1673	1475.4267	1481.9712	1491.4209	1500.094	1510.9546	1520.0426	2366.5954	2951.5923	2977.6814	3026.4434	3049.8367	3086.0502	3114.6915	3116.3937	3124.0566	3134.4268	3180.8269
COC(C)C#CC1CO1	CO[C@@H](C)C#C[C@H]1CO1	
InChI=1S/C7H10O2/c1-6(8-2)3-4-7-5-9-7/h6-7H,5H2,1-2H3	InChI=1S/C7H10O2/c1-6(8-2)3-4-7-5-9-7/h6-7H,5H2,1-2H3/t6-,7-/m0/s1
