16
gdb 61198	3.86605	0.86517	0.80655	4.7663	71.43	-0.2854	0.0131	0.2985	1400.5082	0.121569	-437.854937	-437.845274	-437.84433	-437.889763	34.79	
O	 0.1320343021	 1.3978195629	-0.03735919	-0.444555
C	 0.0290374245	-0.0107124887	 0.0309381733	 0.112411
C	 0.6013121297	-0.6868643231	-1.2360072336	-0.378691
C	 0.0002931563	-0.1246678808	-2.4378170036	 0.242265
C	-0.5211089616	 0.4053418275	-3.3834912021	-0.403509
C	 0.8548754109	-0.4068389183	 1.272754799	-0.030119
O	 2.1551020318	 0.1269832097	 1.2018439698	-0.411842
C	 0.1570588851	 0.0150824836	 2.5088696725	 0.279074
N	-0.3854360279	 0.3331528956	 3.4776871778	-0.316252
H	-0.1761529381	 1.6763771377	-0.9092468963	 0.299626
H	-1.0148935462	-0.3247105858	 0.1714676813	 0.105099
H	 1.6869167883	-0.538250794	-1.2485134143	 0.156227
H	 0.4191286166	-1.7671660136	-1.1868314359	 0.139969
H	-0.969617996	 0.8400897219	-4.2429528501	 0.20929
H	 0.9575157877	-1.496997945	 1.306336025	 0.136675
H	 2.0409597568	 1.0563594604	 0.9551883872	 0.304332
64.5145	87.0032	108.6179	176.1468	224.8167	272.4096	318.3064	350.9844	373.2413	403.393	456.4616	496.6336	549.5225	605.209	633.6878	672.6077	741.211	860.4425	880.6256	955.3775	991.1772	1046.3435	1084.0738	1121.1421	1200.0283	1242.7106	1280.4283	1319.898	1330.6378	1378.7368	1423.5016	1438.1792	1470.5648	2233.0935	2359.8188	3009.8386	3035.4774	3064.9919	3081.1991	3501.5447	3747.7841	3770.2323
OC(CC#C)C(O)C#N	O[C@@H](CC#C)[C@@H](O)C#N	
InChI=1S/C6H7NO2/c1-2-3-5(8)6(9)4-7/h1,5-6,8-9H,3H2	InChI=1S/C6H7NO2/c1-2-3-5(8)6(9)4-7/h1,5-6,8-9H,3H2/t5-,6-/m0/s1
