21
gdb 120910	3.30975	0.96145	0.87596	1.6028	78.4	-0.233	0.0672	0.3003	1432.4973	0.181747	-424.18133	-424.172191	-424.171247	-424.215618	34.595	
C	-0.05616347	 1.5397146592	 0.053919136	-0.382372
C	-0.142603581	 0.0324497243	-0.1985066747	-0.162299
C	 0.9274477202	-0.4707953792	-1.1756318865	-0.210761
C	 0.8448839099	-1.9670836067	-1.4171665576	 0.132685
O	-0.4162952722	-2.4296592282	-2.0212371674	-0.325441
C	 0.3145043162	-3.2485207903	-2.9474479076	 0.019201
C	 1.0406881432	-2.3581458126	-3.8876918638	 0.128677
O	 0.5107820876	-1.134403882	-4.2893853827	-0.432428
C	 1.6521623151	-2.6440397887	-2.5216276309	-0.217451
H	 0.9144568965	 1.8156568462	 0.4812616902	 0.112884
H	-0.1776199995	 2.1041674677	-0.8772023566	 0.116594
H	-0.8330898366	 1.8727786848	 0.7490116521	 0.112544
H	-0.0474597236	-0.5070908218	 0.753297799	 0.093135
H	-1.1327357017	-0.2225683342	-0.594406824	 0.112599
H	 0.8612216997	 0.0609880197	-2.1294933533	 0.115129
H	 1.9282492662	-0.2607077277	-0.7722881166	 0.097974
H	 0.9639448492	-2.5071135683	-0.467568821	 0.084723
H	-0.0379346414	-4.2612930364	-3.1094251643	 0.103833
H	 1.5651466294	-2.8581759499	-4.697551302	 0.109866
H	-0.2968811054	-1.0185114792	-3.7700705523	 0.292896
H	 2.6255772383	-3.1008488566	-2.3986397757	 0.098012
71.6143	89.5181	118.1165	203.6155	242.31	254.751	325.0997	351.4457	453.8685	472.0278	582.9256	659.5711	732.138	740.7288	787.6918	820.9806	842.6056	904.6062	917.946	946.1816	983.2867	1022.6376	1029.7993	1052.483	1054.6162	1064.3824	1110.3684	1123.27	1170.1858	1190.3766	1249.3735	1260.3971	1264.8501	1311.5327	1318.1892	1325.0192	1372.7749	1383.7147	1410.5016	1417.6054	1456.1038	1483.8865	1494.5875	1500.6622	1511.18	3005.013	3017.8963	3020.3555	3029.6833	3057.5418	3090.4947	3099.7424	3102.882	3154.3433	3171.0118	3196.9462	3752.2606
CCCC1OC2C(O)C12	CCC[C@H]1O[C@H]2[C@@H](O)[C@@H]12	
InChI=1S/C7H12O2/c1-2-3-4-5-6(8)7(5)9-4/h4-8H,2-3H2,1H3	InChI=1S/C7H12O2/c1-2-3-4-5-6(8)7(5)9-4/h4-8H,2-3H2,1H3/t4-,5-,6+,7-/m1/s1
