15
gdb 123628	4.26226	1.58901	1.39533	3.992	70.36	-0.2209	-0.0028	0.2182	901.7107	0.117845	-412.912034	-412.906172	-412.905228	-412.942278	23.975	
C	-0.0407949408	 1.569527	-0.0703949528	-0.195194
C	 1.5112671734	 1.338983344	 0.0466717719	-0.148509
N	 1.1345170235	 0.2148860102	 0.9802358934	-0.286877
C	-0.0149565582	-0.0004744381	 0.0135236518	-0.136621
C	 0.7201162001	-0.3218985962	-1.2867807999	 0.315899
C	 1.7544162689	 0.5845975947	-1.2622832043	 0.361536
N	 2.3828409476	 0.3917952094	-2.4282919401	-0.364673
N	 1.7731144507	-0.6126357509	-3.1386949176	-0.141589
N	 0.7448158397	-1.0293400094	-2.4323795667	-0.313917
H	-0.4538904106	 2.0341151128	 0.8267335271	 0.121431
H	-0.4226274502	 2.0246969922	-0.9842148896	 0.114093
H	 2.2074845573	 2.0956851041	 0.4022396541	 0.088387
H	 1.8072079464	-0.5529771946	 0.9541307983	 0.213511
H	-0.8621011399	-0.5933328639	 0.3492242464	 0.093686
H	 3.2026541121	 0.8247189056	-2.8222392119	 0.278837
125.7437	312.6979	407.5354	487.3918	532.7457	578.2511	682.7327	698.9555	704.7845	776.239	796.5697	844.1164	904.9129	907.4782	964.9055	1009.2999	1026.8333	1048.9606	1059.2804	1121.0179	1123.5895	1150.5566	1191.6292	1219.4046	1251.8442	1262.1157	1264.2968	1341.0915	1349.9037	1414.4078	1483.839	1492.1942	1553.2635	3081.7397	3143.1026	3156.745	3157.9081	3440.1004	3659.9779
C1C2NC1C1=C2NN=N1	C1[C@H]2N[C@@H]1c1c2[nH]nn1	
InChI=1S/C5H6N4/c1-2-4-5(3(1)6-2)8-9-7-4/h2-3,6H,1H2,(H,7,8,9)	InChI=1S/C5H6N4/c1-2-4-5(3(1)6-2)8-9-7-4/h2-3,6H,1H2,(H,7,8,9)/t2-,3+
