20
gdb 84830	2.68934	1.52226	1.11648	2.9733	80.25	-0.2359	0.0124	0.2483	1136.7655	0.171672	-403.13913	-403.130547	-403.129603	-403.171944	33.579	
C	-0.0809895211	 1.4940950938	 0.0476643679	-0.450234
C	-0.0044934629	-0.0180838427	 0.0443019846	 0.314118
C	-1.104092243	-0.7063654831	-0.7504930988	-0.336096
C	-1.2143943354	-2.1842703466	-0.5053991978	-0.068947
C	-0.670701132	-2.79893534	 0.5428208967	-0.100251
C	 0.1182939379	-2.1000892762	 1.6194656574	 0.049381
O	 1.283461296	-2.8492471992	 1.9809047304	-0.433308
C	 0.5961825747	-0.7243201912	 1.2109527747	-0.046565
N	 1.3648849036	-0.5553166784	-0.0346589485	-0.363391
H	 0.7789760675	 1.9180846329	 0.5711949713	 0.129541
H	-0.0767292554	 1.8852389644	-0.9764524858	 0.11617
H	-0.9973827285	 1.8420097951	 0.5377550196	 0.11029
H	-2.0665218046	-0.2263154393	-0.5178721132	 0.117172
H	-0.9448103518	-0.5180026049	-1.8221021675	 0.112475
H	-1.7832334998	-2.7591957	-1.2321578175	 0.093434
H	-0.7951034768	-3.8729715092	 0.6693235793	 0.08213
H	-0.5254638354	-1.9779859441	 2.5088398359	 0.076419
H	 0.9942800325	-3.7004557699	 2.3259442059	 0.280873
H	 0.9769338415	-0.1322542988	 2.040572215	 0.086885
H	 1.3714011731	-1.4414925225	-0.5373279595	 0.229903
87.3627	168.2049	208.7641	247.5019	261.754	311.5712	353.9668	379.8271	430.1379	486.2552	510.156	623.4189	679.8728	743.9864	806.2695	858.305	882.0242	920.2671	947.6515	976.8689	999.608	1026.0726	1030.3169	1066.0588	1089.345	1110.3919	1141.3636	1179.3331	1197.4544	1226.9922	1247.9811	1297.7197	1336.4173	1342.5816	1375.2442	1409.8075	1419.6996	1428.7873	1452.5716	1473.6529	1489.3778	1497.0216	1725.3743	2935.2301	2996.383	3018.7342	3027.7331	3087.614	3123.1812	3127.5032	3135.4335	3162.8335	3481.9754	3811.3532
CC12CC=CC(O)C1N2	C[C@]12CC=C[C@@H](O)[C@H]1N2	
InChI=1S/C7H11NO/c1-7-4-2-3-5(9)6(7)8-7/h2-3,5-6,8-9H,4H2,1H3	InChI=1S/C7H11NO/c1-7-4-2-3-5(9)6(7)8-7/h2-3,5-6,8-9H,4H2,1H3/t5-,6-,7+/m1/s1
