16
gdb 24238	3.9754	1.55678	1.21366	3.0448	74.5	-0.1977	0.0356	0.2333	985.2665	0.127785	-400.764355	-400.757903	-400.756959	-400.794981	26.508	
C	-0.0611317375	 1.516031183	-0.0113004124	-0.396406
C	 1.43467694	 1.8912864672	-0.0207087538	 0.065576
O	 2.1729611869	 1.4699875505	 1.1229859788	-0.257056
C	 2.2650604138	 0.6670604786	-0.085581213	-0.144063
C	 1.3189362456	-0.4737629683	-0.098205386	 0.326591
C	 0.0360369609	 0.0174085647	-0.0330113001	 0.287224
N	-0.8236987915	-1.0357126416	 0.0672072907	-0.364836
C	-0.0910510845	-2.2093135529	 0.0380053988	-0.070085
C	 1.2477052458	-1.8919263122	-0.0573395278	-0.341575
H	-0.5575769902	 1.9147077828	 0.8815399109	 0.125596
H	-0.5711992502	 1.9378771428	-0.8872658099	 0.110214
H	 1.7382900803	 2.8437906809	-0.4483390035	 0.09219
H	 3.2511055131	 0.6404204674	-0.5385493681	 0.091987
H	-1.8266061504	-0.986700146	 0.1137965215	 0.260171
H	-0.5871831262	-3.1657652511	 0.0777233356	 0.117499
H	 2.059489894	-2.6022586258	-0.0886617116	 0.096972
152.8576	221.4291	350.5248	418.5148	456.7757	482.4487	609.8956	630.0314	685.8738	706.3773	724.7853	771.3504	820.1441	843.7058	861.3162	888.3228	934.0743	981.8815	1025.7736	1073.1722	1085.4138	1101.1374	1160.1864	1183.2017	1231.6241	1245.3351	1277.4167	1311.912	1352.7905	1395.461	1457.3057	1473.5012	1482.2199	1522.1592	1595.7786	3018.7828	3057.9726	3140.0062	3167.2301	3245.8398	3268.9189	3677.4673
C1C2OC2C2=C1NC=C2	C1[C@H]2O[C@H]2c2c1[nH]cc2	
InChI=1S/C7H7NO/c1-2-8-5-3-6-7(9-6)4(1)5/h1-2,6-8H,3H2	InChI=1S/C7H7NO/c1-2-8-5-3-6-7(9-6)4(1)5/h1-2,6-8H,3H2/t6-,7+/m1/s1
