17
gdb 20113	4.87282	1.35908	1.20051	2.9035	71.06	-0.2454	0.0057	0.2511	1036.2036	0.142429	-363.85056	-363.842798	-363.841853	-363.883256	28.23	
O	-0.1736988146	 0.1375261722	 0.5588045585	-0.361398
C	-0.0789961642	 1.2543411526	 0.0915798143	 0.380446
C	 1.1934242948	 2.028631385	 0.0671552537	-0.101853
C	 2.1220737894	 1.8711245044	 1.2621582127	-0.253282
C	 2.4842521078	 1.2346360461	-0.0369607676	-0.248378
N	-1.1504947164	 1.8936000735	-0.5407959523	-0.090716
C	-1.7982344176	 3.088876104	-0.0226815324	-0.234326
C	-2.5030799336	 1.7645850112	-0.0554906454	-0.215839
H	 1.1548862157	 2.9949028009	-0.4209246385	 0.092024
H	 2.6645579727	 2.7519721567	 1.5858814488	 0.115236
H	 1.7675248024	 1.2217010248	 2.0540881169	 0.136831
H	 2.3668629242	 0.1603891182	-0.1158223319	 0.141076
H	 3.282171179	 1.6667698274	-0.6295334437	 0.116762
H	-1.4755560688	 3.4598514575	 0.9472825691	 0.131515
H	-2.0388609778	 3.8571281339	-0.7525170895	 0.126488
H	-3.2624353053	 1.579090973	-0.8094216805	 0.126553
H	-2.6379159678	 1.2328106187	 0.8822969577	 0.138862
63.5217	94.3657	177.5836	203.1188	281.7972	293.8055	426.4882	590.9493	739.0703	761.1058	801.7409	819.0716	833.1354	878.4192	918.8866	963.2376	970.6064	1045.0563	1064.3553	1094.3895	1108.3901	1121.6866	1131.5453	1132.8202	1140.434	1173.963	1178.0806	1209.8941	1222.5755	1356.5098	1424.2043	1453.5185	1486.7084	1495.9344	1522.9903	1774.1425	3105.1061	3117.8816	3140.7483	3144.4699	3184.4023	3190.379	3209.0117	3229.0371	3244.0605
O=C(C1CC1)N1CC1	O=C(C1CC1)N1CC1	
InChI=1S/C6H9NO/c8-6(5-1-2-5)7-3-4-7/h5H,1-4H2	InChI=1S/C6H9NO/c8-6(5-1-2-5)7-3-4-7/h5H,1-4H2
