20
gdb 47838	2.20529	1.62418	1.19494	3.5833	80.69	-0.2345	0.0155	0.25	1115.379	0.173968	-403.190225	-403.182076	-403.181132	-403.222859	32.046	
O	-0.1472201165	-0.1290672607	 0.1917097412	-0.369482
C	-0.0402795012	 1.0805573867	 0.1002710588	 0.354791
C	-1.2645081144	 1.994680636	 0.215846592	-0.351023
C	-1.6887175805	 2.8743490922	-0.9373201385	-0.036706
C	-1.118965064	 3.0880820671	-2.1246918739	-0.067285
C	 0.1664514674	 2.4937487549	-2.6480228927	-0.256858
C	 1.4327762255	 3.1227123425	-2.0283161819	-0.189753
C	 1.4513001577	 3.0225033864	-0.4931874484	-0.170952
N	 1.1922731421	 1.6783243631	-0.0022656797	-0.273354
H	-2.0894237478	 1.3216341056	 0.4703849443	 0.141015
H	-1.1211176245	 2.6373424563	 1.0979238034	 0.127811
H	-2.6162012722	 3.4057991121	-0.728154877	 0.090773
H	-1.6195988517	 3.7906708881	-2.7876472115	 0.087918
H	 0.1856750377	 1.4139049949	-2.4685953503	 0.133804
H	 0.2085875509	 2.6192262864	-3.734300821	 0.10014
H	 2.3158657908	 2.6193794516	-2.4417912051	 0.096687
H	 1.5111447596	 4.1803566879	-2.3085833872	 0.10131
H	 2.4214826765	 3.3504994999	-0.105997554	 0.110924
H	 0.7017121924	 3.6950468318	-0.0703015024	 0.130223
H	 1.9334155522	 0.9986621073	-0.1128266262	 0.240016
94.5819	113.7392	238.7641	262.0085	279.7528	348.9659	431.377	463.5283	515.7275	554.4633	584.8542	671.5371	710.8944	728.7116	804.0257	831.9809	861.9512	886.7602	959.9061	990.3284	1012.0122	1030.6394	1048.692	1071.3637	1126.8002	1196.6956	1205.0269	1239.2656	1279.2555	1302.2286	1335.7706	1346.4435	1359.8211	1383.1026	1402.5478	1432.1872	1457.7223	1471.6824	1486.9424	1499.0139	1504.1243	1729.1346	1780.1717	2999.7251	3021.9661	3048.2674	3056.6876	3064.1077	3077.4602	3086.43	3111.1574	3125.8248	3153.3313	3583.8765
O=C1CC=CCCCN1	O=C1CC=CCCCN1	
InChI=1S/C7H11NO/c9-7-5-3-1-2-4-6-8-7/h1,3H,2,4-6H2,(H,8,9)/b3-1-	InChI=1S/C7H11NO/c9-7-5-3-1-2-4-6-8-7/h1,3H,2,4-6H2,(H,8,9)/b3-1-
