21
gdb 82590	2.14195	2.02654	1.54175	1.3808	81.06	-0.2445	0.0685	0.3129	990.6329	0.184087	-387.050423	-387.042552	-387.041608	-387.082223	32.107	
C	-0.3255032234	 1.5698768693	-0.0296249878	-0.419521
C	 0.0468471587	 0.0938448819	 0.0153929619	 0.055442
C	 1.0291517056	-0.5271435292	-1.0138761109	-0.059801
C	 2.404231923	 0.184637685	-1.0989947124	-0.229139
C	 2.857361009	-0.5147317912	 0.202359348	-0.100428
C	 2.2409316509	 0.1129890798	 1.4772086839	 0.146477
O	 2.25435209	 1.5120376791	 1.6634720108	-0.430005
C	 0.8700647381	-0.5283217761	 1.1791080169	-0.104099
C	 1.5968397724	-1.4515462939	 0.1250317998	-0.038244
H	 0.5536472062	 2.2134737159	 0.0208341403	 0.137412
H	-0.8769865524	 1.7973332671	-0.9497086695	 0.100488
H	-0.970956383	 1.8326471641	 0.8160915058	 0.109382
H	-0.8727779357	-0.5035762659	-0.0420353924	 0.068054
H	 0.6022126928	-0.892440837	-1.9494559173	 0.057188
H	 2.9772589745	-0.1814174749	-1.9557856385	 0.093371
H	 2.4197741375	 1.2785086009	-1.1091964009	 0.096654
H	 3.8907541429	-0.8605974457	 0.2652557652	 0.053511
H	 2.6670720609	-0.3997466679	 2.3538688302	 0.064247
H	 3.1555483082	 1.7812045956	 1.8689901487	 0.281269
H	 0.3069568648	-0.882974382	 2.043700156	 0.058524
H	 1.602702349	-2.538228075	 0.1330884423	 0.059217
151.7686	178.1411	231.1574	254.4732	264.9532	299.9672	444.7242	520.6231	568.4666	593.7555	647.024	727.88	814.6065	821.1277	834.9354	843.4951	895.7986	946.6656	960.2325	970.5335	1025.1843	1027.5202	1074.544	1090.5494	1099.0731	1115.5084	1133.9272	1150.0127	1159.755	1175.1566	1186.4628	1210.1857	1247.4025	1251.142	1284.9398	1297.6464	1321.5877	1348.1788	1357.2363	1376.3629	1408.4489	1424.0968	1478.2548	1492.3669	1503.7441	2970.3888	3009.3308	3029.3508	3046.6407	3082.294	3083.7808	3084.9907	3089.5566	3097.9864	3140.9954	3148.326	3811.7104
CC1C2CC3C(O)C1C23	C[C@H]1[C@H]2C[C@H]3[C@@H](O)[C@@H]1[C@@H]23	
InChI=1S/C8H12O/c1-3-4-2-5-7(4)6(3)8(5)9/h3-9H,2H2,1H3	InChI=1S/C8H12O/c1-3-4-2-5-7(4)6(3)8(5)9/h3-9H,2H2,1H3/t3-,4+,5+,6-,7-,8+/m0/s1
