18
gdb 52485	5.5406	0.55505	0.52549	1.5798	104.58	-0.2165	-0.0121	0.2043	2116.6001	0.14532	-364.740203	-364.730025	-364.729081	-364.777702	35.071	
C	 0.076987122	 1.5454872498	 0.0117802178	-0.517989
C	 0.0628910709	 0.0939893183	 0.0190404127	 0.235976
C	 0.052607303	-1.1168573204	 0.0250602061	-0.196094
C	 0.0412648629	-2.475289871	 0.0298420366	-0.240278
C	 0.0294530923	-3.6881049999	 0.0470125537	 0.370715
C	 0.0435873869	-5.1199159345	 0.0023041444	-0.228748
C	-0.4005353734	-5.9199275509	 1.1963077532	-0.237263
N	-1.2004573034	-5.9186415908	-0.0120780137	-0.075753
C	-2.4719309447	-5.2068789965	 0.0363324963	-0.312052
H	 1.1032440749	 1.9300771847	 0.0062599465	 0.157206
H	-0.4323876612	 1.9444709086	-0.8728244036	 0.15621
H	-0.4249329146	 1.9517398055	 0.8973061894	 0.156131
H	 0.82344763	-5.5433692622	-0.6274360101	 0.118371
H	 0.1109262938	-6.8485075809	 1.4361000881	 0.121743
H	-0.7581062283	-5.3507824123	 2.0528527267	 0.119881
H	-2.4570602746	-4.3102792664	 0.6732505126	 0.117065
H	-2.752534126	-4.9037313789	-0.9765244283	 0.13028
H	-3.2346612904	-5.8941667221	 0.4147283915	 0.124598
14.0294	57.1207	68.971	145.2382	168.0719	212.7946	287.4779	315.3825	369.4327	378.0141	439.9261	515.8944	546.9834	584.356	654.1431	742.3549	829.2031	913.3973	1015.5367	1024.0255	1047.4624	1048.3389	1092.1152	1112.6505	1125.0904	1167.7597	1207.6415	1281.8918	1320.209	1382.3563	1413.9883	1448.7888	1471.1803	1472.5232	1488.9958	1491.969	1504.7443	2270.8029	2374.531	2995.191	3023.209	3079.9113	3084.7226	3085.6478	3094.0807	3112.8521	3122.5465	3184.3726
CC#CC#CC1CN1C	CC#CC#C[C@H]1CN1C	
InChI=1S/C8H9N/c1-3-4-5-6-8-7-9(8)2/h8H,7H2,1-2H3	InChI=1S/C8H9N/c1-3-4-5-6-8-7-9(8)2/h8H,7H2,1-2H3/t8-,9?/m0/s1
