16
gdb 69763	3.00638	1.52843	1.28234	1.9672	68.47	-0.2322	-0.0349	0.1974	993.2268	0.123428	-437.815909	-437.808494	-437.80755	-437.847648	29.284	
O	-0.0822157915	 1.450708095	 0.0707992846	-0.456061
C	 0.0003688125	 0.0778308528	 0.0246800293	 0.384244
C	-0.253840573	-0.738972302	-1.2118640615	-0.382773
C	-1.1195187165	-0.9456060468	 0.0201056483	-0.061233
N	-0.4941869264	-1.7350904946	 1.110417751	-0.12045
C	 0.3918498376	-2.8782535072	 0.7108242552	-0.313168
C	 1.6125867832	-1.9278888441	 0.7392468275	 0.38298
O	 2.7864962974	-2.0460229609	 0.5562298144	-0.284316
C	 0.6670773694	-0.7708265051	 1.1323394371	-0.192461
H	 0.5942094275	 1.8189069557	-0.50853833	 0.294292
H	-0.7680863148	-0.1830003732	-1.9900294594	 0.125956
H	 0.4469285152	-1.480179383	-1.5843820683	 0.123423
H	-2.1954123147	-0.8213038871	-0.0121948652	 0.110578
H	 0.4305653123	-3.6545395276	 1.48202756	 0.140216
H	 0.1708415412	-3.3497031739	-0.2516455919	 0.13603
H	 0.8627631305	-0.2352562782	 2.0647486388	 0.112742
106.2827	161.4579	278.4375	291.28	375.3388	412.6957	441.7205	493.4477	532.8342	615.2597	678.163	713.5741	816.792	834.145	885.2938	918.1092	951.1332	961.1431	1008.7995	1019.1108	1043.8738	1070.8225	1085.5922	1112.2566	1155.3076	1172.4956	1194.0722	1218.8632	1244.4412	1263.4785	1316.227	1412.2149	1453.7417	1498.7115	1898.3006	3048.2289	3086.9903	3099.0904	3122.116	3183.0842	3207.6015	3796.2011
OC12CC1N1CC(=O)C21	O[C@]12C[C@H]1N1CC(=O)[C@@H]21	
InChI=1S/C6H7NO2/c8-3-2-7-4-1-6(4,9)5(3)7/h4-5,9H,1-2H2	InChI=1S/C6H7NO2/c8-3-2-7-4-1-6(4,9)5(3)7/h4-5,9H,1-2H2/t4-,5+,6-/m1/s1
