19
gdb 80740	3.6202	1.07534	1.06928	1.8403	80.91	-0.2522	0.057	0.3091	1211.5615	0.159702	-385.851155	-385.842726	-385.841781	-385.88396	33.055	
O	-0.7841502451	 1.7353863575	 0.38202636	-0.41243
C	-0.1692048945	 0.5190879114	 0.0543568877	 0.086874
C	-0.1386972425	-0.6611268697	 0.9985656766	-0.10609
C	-1.0402478024	-0.6533394501	 2.223259873	-0.234601
C	-2.4599781648	-0.2610131843	 1.7095289872	-0.177026
C	-2.4770652816	-0.6807618171	 0.2082595196	-0.225353
C	-1.0248985388	-0.6760266351	-0.2433046961	-0.08415
C	-3.542159491	-0.839688905	 2.4921579408	 0.287358
C	-4.4312613988	-1.3299087198	 3.1370998818	-0.422248
H	-0.2115078649	 2.2000335489	 1.0013563238	 0.288558
H	 0.7103724988	 0.6293883922	-0.580754283	 0.085839
H	 0.7757814303	-1.2432334236	 1.0493424676	 0.082921
H	-1.0645050288	-1.6583035057	 2.6564302942	 0.113741
H	-0.7050895664	 0.0287006286	 3.0119457604	 0.099056
H	-2.5393185222	 0.8276057091	 1.7456860545	 0.11896
H	-2.8781910093	-1.6943374989	 0.1080091433	 0.110388
H	-3.115841508	-0.0142369811	-0.3781940315	 0.115008
H	-0.7700893064	-1.2709859363	-1.113787349	 0.086423
H	-5.2198372737	-1.754617751	 3.7069376793	 0.186772
93.5018	143.3449	184.3437	218.9439	261.1814	308.8406	465.9676	469.3252	507.7136	520.6078	609.879	628.2846	640.4916	694.8902	772.4505	789.222	827.201	902.525	907.9645	997.5846	1002.6417	1040.9958	1048.9229	1061.8782	1096.3436	1100.3264	1117.8404	1185.0679	1221.3467	1238.2483	1276.7133	1301.7016	1305.9752	1320.2546	1338.5416	1357.1647	1380.9702	1456.2071	1488.8999	1502.4172	2233.4138	3043.101	3051.5998	3073.6035	3087.6568	3091.0932	3100.8676	3155.4252	3167.0343	3505.7786	3804.6362
OC1C2CC(CC12)C#C	O[C@H]1[C@H]2C[C@@H](C[C@@H]12)C#C	
InChI=1S/C8H10O/c1-2-5-3-6-7(4-5)8(6)9/h1,5-9H,3-4H2	InChI=1S/C8H10O/c1-2-5-3-6-7(4-5)8(6)9/h1,5-9H,3-4H2/t5-,6-,7+,8-
