15
gdb 19835	3.40383	2.73034	1.8471	2.4771	64.85	-0.2396	-0.0144	0.2252	721.251	0.121979	-362.626861	-362.621102	-362.620157	-362.65644	23.537	
N	-0.052408731	 1.4797205391	 0.0001612159	-0.333732
C	 1.2790175671	 0.8240605596	-0.001999189	-0.066176
C	 2.1431999435	 0.8031474652	 1.1948682648	-0.071584
C	 1.8250221447	 0.1643328313	 2.3299313874	-0.083329
C	 0.5683371618	-0.5955951399	 2.4723799322	-0.002091
O	-0.6858145827	 0.131642746	 2.4127975238	-0.256096
C	-0.3397308017	-0.6941606724	 1.3042184515	 0.027814
C	 0.0072603015	 0.0213927419	 0.0284498906	-0.049301
H	-0.2669855823	 1.7928384243	 0.9477854451	 0.245351
H	 1.7963240319	 0.9446901168	-0.9501841819	 0.095586
H	 3.0958857375	 1.320064775	 1.1188434094	 0.103832
H	 2.5109481287	 0.1652229283	 3.1711014322	 0.100495
H	 0.5558085865	-1.3881065185	 3.2180392547	 0.098391
H	-0.9526351198	-1.5873130929	 1.194086239	 0.09801
H	-0.3239187557	-0.470603824	-0.8819411757	 0.092829
211.746	249.5816	389.8149	487.2828	541.9462	548.0167	678.0981	712.5968	782.3324	804.6793	823.4519	837.5842	916.4676	928.6326	969.9964	980.402	1018.115	1052.2482	1072.4702	1122.4156	1136.7255	1189.8572	1208.3831	1224.5231	1273.4596	1316.5551	1354.2532	1381.0994	1406.1198	1428.8848	1452.4715	1686.6636	3120.0901	3131.9513	3137.2525	3150.0316	3163.4273	3186.287	3466.4731
N1C2C=CC3OC3C12	N1[C@H]2C=C[C@H]3O[C@H]3[C@@H]12	
InChI=1S/C6H7NO/c1-2-4-6(8-4)5-3(1)7-5/h1-7H	InChI=1S/C6H7NO/c1-2-4-6(8-4)5-3(1)7-5/h1-7H/t3-,4+,5-,6+/m0/s1
