22
gdb 20014	4.40404	1.06359	0.94346	0.0877	83.38	-0.2431	0.0894	0.3325	1331.3002	0.20014	-313.04781	-313.038873	-313.037929	-313.081829	33.495	
C	-0.0716086202	 1.5792211364	-0.2614637323	-0.373226
C	-0.0213388561	 0.1327771363	 0.2448398453	-0.191094
C	-1.3726462267	-0.5506373188	 0.1807921714	 0.013074
C	-1.8387423381	-1.2402624204	-1.0816723226	-0.308965
C	-1.5389051336	-2.0549990669	 0.1565180583	-0.019192
C	-0.3830054998	-3.0053745353	 0.2024819681	 0.028537
C	-0.0826884171	-3.7768008255	 1.4654742708	-0.268472
C	-0.6339274591	-4.4932388736	 0.2571010594	-0.275198
H	 0.9113305316	 2.0572719284	-0.2017062239	 0.107545
H	-0.4047623154	 1.6189613323	-1.3038423846	 0.117042
H	-0.7706823584	 2.180039903	 0.3309702317	 0.112007
H	 0.7108112863	-0.4308302091	-0.3446416685	 0.092974
H	 0.3476303375	 0.1198621322	 1.2789831923	 0.096643
H	-2.1472790027	-0.0184733146	 0.730119085	 0.074983
H	-2.8687141402	-1.1268332078	-1.4025098495	 0.104817
H	-1.1270387274	-1.3084511509	-1.8999085442	 0.105172
H	-2.4103660392	-2.4251439425	 0.6934105851	 0.072755
H	 0.4823760419	-2.7026453859	-0.379495383	 0.07741
H	 0.9537809786	-3.9437477936	 1.7377368009	 0.107885
H	-0.7447423715	-3.6311151465	 2.3129589381	 0.108571
H	-1.6654795791	-4.8287060742	 0.2932805701	 0.109043
H	 0.0250623785	-5.1507047229	-0.299446478	 0.107688
55.7876	80.2579	126.7016	188.6093	232.6381	282.1286	304.8685	358.0295	446.0851	569.8598	736.579	760.5457	792.9061	805.8971	822.2641	848.7742	908.0372	924.9976	955.6949	977.6309	987.0973	1044.8651	1053.8207	1061.2659	1069.8404	1076.3239	1115.4228	1129.7436	1146.1127	1197.4145	1199.9996	1215.9512	1223.7445	1257.0966	1294.144	1319.634	1343.6992	1407.1627	1417.9485	1452.136	1470.4902	1483.4172	1495.2622	1497.467	1506.9847	1509.7061	3019.0554	3030.0535	3055.8307	3097.0685	3103.229	3112.4575	3119.2651	3123.4975	3127.1045	3132.0757	3147.8413	3204.0648	3204.5696	3220.2601
CCC1CC1C1CC1	CC[C@H]1C[C@H]1C1CC1	
InChI=1S/C8H14/c1-2-6-5-8(6)7-3-4-7/h6-8H,2-5H2,1H3	InChI=1S/C8H14/c1-2-6-5-8(6)7-3-4-7/h6-8H,2-5H2,1H3/t6-,8+/m0/s1
