19
gdb 52933	3.1399	0.97383	0.85232	1.4246	87.38	-0.2326	0.0476	0.2802	1436.5361	0.158391	-385.817414	-385.808271	-385.807326	-385.853027	33.696	
C	-0.0415030014	 1.4185544595	-0.024310363	-0.517049
C	-0.0130036395	-0.0360110276	-0.0135557267	 0.383182
C	 0.0133372773	-1.2413725099	-0.0054204747	-0.433333
C	 0.0473108995	-2.6735269012	-0.016368675	 0.238554
C	 0.7796884358	-3.6315045534	 0.9804405217	-0.252615
C	 0.0873067799	-4.5824564085	-0.0334695952	-0.129954
C	-1.1647969038	-3.6665106398	 0.0877186064	-0.285939
C	 0.6181992178	-3.623411199	-1.1429548182	 0.16225
O	 0.0985034965	-3.6204480786	-2.4353219988	-0.444187
H	 0.5735907749	 1.834759397	 0.7814451588	 0.1485
H	 0.3395933404	 1.8170914763	-0.9712540111	 0.150122
H	-1.0608831018	 1.7981766496	 0.1082993159	 0.147756
H	 1.8724737191	-3.5989088706	 0.9719210869	 0.097965
H	 0.3826627832	-3.6399336281	 1.9971494691	 0.101511
H	 0.1094018218	-5.6715465903	-0.0333392863	 0.078259
H	-1.6880659784	-3.6761976657	 1.0469232813	 0.102408
H	-1.8915950071	-3.6659742567	-0.7306974169	 0.08062
H	 1.7048237243	-3.5897471988	-1.2559960752	 0.087267
H	-0.8633540083	-3.6169582843	-2.3965868594	 0.284683
15.166	81.2924	103.5067	207.172	266.7133	296.7527	339.1654	374.3229	464.6854	508.0967	524.4211	547.1806	631.9376	756.3145	818.5923	864.9037	902.2668	919.9615	948.4299	1011.6185	1031.6774	1036.7465	1053.7861	1054.6182	1071.9615	1121.5349	1141.5393	1148.9072	1171.372	1210.3862	1239.0953	1244.2151	1283.6566	1339.0575	1414.2492	1452.9856	1477.0907	1477.7161	1505.8932	1545.2873	2361.6595	3024.2468	3045.0678	3058.8536	3084.6149	3084.8142	3085.0439	3106.6482	3124.8161	3130.0177	3815.7043
CC#CC12CC(C1)C2O	CC#C[C@@]12C[C@@H](C1)[C@H]2O	
InChI=1S/C8H10O/c1-2-3-8-4-6(5-8)7(8)9/h6-7,9H,4-5H2,1H3	InChI=1S/C8H10O/c1-2-3-8-4-6(5-8)7(8)9/h6-7,9H,4-5H2,1H3/t6-,7-,8+/m1/s1
