20
gdb 100390	2.53711	1.24435	1.07849	4.3623	76.58	-0.2452	-0.0232	0.2219	1226.6786	0.167717	-440.324228	-440.313739	-440.312794	-440.359605	37.458	
C	-0.0510649748	 1.5805658416	 0.1692252369	-0.405316
C	 0.0141827688	 0.0637614484	-0.0269462701	-0.224871
C	 0.8474406861	-0.411481255	-1.2363806175	 0.215081
C	 2.2993169298	 0.0840030872	-1.2140500447	-0.436886
N	 0.8108992632	-1.8814989502	-1.2234695059	-0.298306
C	 1.1284825943	-2.6191921049	-2.3109928212	 0.162162
O	 1.4386804299	-2.143336331	-3.3874684076	-0.339077
C	 0.1510323065	 0.0673524266	-2.5405988505	 0.170632
O	-1.0293570214	-0.057069929	-2.7292196399	-0.272785
H	 0.9326756057	 2.0128984453	 0.3731878261	 0.122938
H	-0.4685018401	 2.0788404873	-0.7110441468	 0.135856
H	-0.6977534038	 1.8199130822	 1.0180994053	 0.123524
H	 0.4304391564	-0.4028128157	 0.876204283	 0.092054
H	-0.998077486	-0.3299994013	-0.1658338889	 0.128619
H	 2.7956051087	-0.2122646617	-0.2853524026	 0.11539
H	 2.8490821175	-0.3405596698	-2.0572716874	 0.152298
H	 2.3441045581	 1.1741604273	-1.2934526282	 0.123451
H	 0.536233059	-2.3501506847	-0.3738413209	 0.248662
H	 1.0752977315	-3.7080934831	-2.1225457878	 0.093484
H	 0.8126120406	 0.5801180107	-3.2669689413	 0.09309
76.4881	87.9326	113.6951	157.9457	210.7323	222.2516	241.5628	277.1932	291.8581	331.653	377.0281	389.8421	468.5432	496.7577	606.4884	722.4398	795.7778	847.5963	879.7526	937.2611	981.8799	1016.0738	1027.8942	1039.8728	1074.872	1174.1038	1187.8756	1210.7969	1257.1728	1325.9979	1365.3414	1400.5877	1412.2771	1415.0517	1421.4263	1479.7039	1482.8118	1500.7757	1504.9697	1509.5532	1515.1148	1778.8496	1828.1886	2930.3618	2957.5151	3015.6853	3044.1893	3046.755	3078.5043	3113.0685	3115.372	3120.017	3132.8643	3621.0901
CCC(C)(NC=O)C=O	CC[C@@](C)(NC=O)C=O	
InChI=1S/C6H11NO2/c1-3-6(2,4-8)7-5-9/h4-5H,3H2,1-2H3,(H,7,9)	InChI=1S/C6H11NO2/c1-3-6(2,4-8)7-5-9/h4-5H,3H2,1-2H3,(H,7,9)/t6-/m1/s1
