16
gdb 128185	4.01822	1.15399	0.90291	1.9897	81.51	-0.203	-0.0567	0.1463	1247.6218	0.12577	-430.227469	-430.219024	-430.21808	-430.261036	30.751	
C	-0.0575596919	 1.4647593215	 0.0788388685	-0.314798
N	-0.0595548754	 0.0234065486	-0.1107249038	-0.35769
C	-1.1788155047	-0.7527270021	-0.0429113261	 0.484005
C	-1.1566281452	-2.1188422806	 0.0099179451	-0.295185
C	-2.387458985	-2.8511227008	 0.033717676	 0.434422
N	-2.4866499394	-4.1289582523	 0.0798257512	-0.573354
N	-3.4941548385	-1.9662247657	 0.0025166689	-0.296663
N	-3.4800546611	-0.6329353032	-0.0344515937	-0.042407
N	-2.3716505078	-0.0181204026	-0.0574671548	-0.274825
H	 0.9360375808	 1.8398327535	-0.1763608865	 0.124819
H	-0.789972089	 1.933946054	-0.5788578904	 0.16126
H	-0.2907351245	 1.759852887	 1.1104672341	 0.12845
H	 0.8123090892	-0.4553824932	 0.0426050502	 0.250934
H	-0.2328441187	-2.6837312181	 0.0304664397	 0.106692
H	-3.4598057654	-4.4356088382	 0.0913501146	 0.194924
H	-4.4304042231	-2.3459205978	 0.0207047271	 0.269416
65.5026	98.1059	159.4969	179.982	220.5389	372.2065	424.6592	442.5558	473.5746	552.7159	630.2053	641.4948	673.9423	757.4786	770.932	774.0484	852.7762	930.6907	1008.8397	1068.4202	1113.0623	1149.9084	1158.5298	1176.6326	1269.9152	1323.1147	1392.6951	1415.074	1464.1702	1485.4776	1487.4669	1520.8883	1563.9766	1665.4487	1727.5455	3016.731	3101.7723	3147.1614	3207.1516	3467.1853	3606.8007	3647.661
CNC1=CC(=N)NN=N1	CNc1cc([NH])[nH]nn1	
InChI=1S/C4H7N5/c1-6-4-2-3(5)7-9-8-4/h2H,1H3,(H3,5,6,7,8)	InChI=1S/C4H12N5/c1-6-4-2-3(5)7-9-8-4/h3-9H,2H2,1H3
