18
gdb 126517	3.16853	0.98874	0.80038	4.8708	76.12	-0.222	-0.0139	0.2081	1441.9579	0.146522	-435.259217	-435.249838	-435.248894	-435.294747	33.743	
C	 0.0539627602	 1.6229684631	-0.068705513	-0.381054
C	 0.0074315333	 0.0937925063	-0.0696184573	-0.156209
C	 0.6524047362	-0.5228370625	 1.1868757035	-0.314381
C	 0.6390904571	-2.0162874251	 1.2061399551	 0.184986
C	-0.2252853409	-2.9075199596	 1.8074571143	 0.367048
N	-1.3575247229	-2.7175837828	 2.552146712	-0.58937
O	 0.1371189268	-4.1462849982	 1.5320876676	-0.226872
N	 1.3478031951	-4.0161638381	 0.669408376	-0.047288
N	 1.550660408	-2.7915066916	 0.5407044121	-0.150721
H	 1.0861632367	 1.9876774163	-0.0230553642	 0.11858
H	-0.4045414561	 2.0347796984	-0.9727250637	 0.11673
H	-0.4805758904	 2.0380158357	 0.7936328503	 0.109908
H	-1.0311624255	-0.25119381	-0.1454107091	 0.099218
H	 0.5246844346	-0.2977533906	-0.9530498366	 0.117828
H	 1.6898320326	-0.17715256	 1.2663815799	 0.124504
H	 0.1393411697	-0.1420833109	 2.0812398368	 0.086402
H	-1.4317121029	-1.820418411	 3.0071740132	 0.267778
H	-1.6170034518	-3.4934967295	 3.1431247232	 0.272915
21.7507	83.514	111.3373	231.7489	246.5755	264.5213	307.5999	322.2824	382.5707	402.9818	532.8541	574.7237	671.4702	679.2526	739.4012	761.326	793.1635	866.5954	898.1131	983.9386	1043.5867	1070.7182	1083.6266	1111.47	1226.3989	1277.8982	1300.2195	1325.0469	1337.418	1385.7483	1411.8033	1463.9704	1480.6762	1486.7031	1491.8023	1498.5737	1507.9656	1617.6077	1665.067	3008.0776	3027.6301	3031.1472	3053.6528	3071.5474	3096.6561	3105.3887	3576.705	3682.9085
CCCC1=C(N)ON=N1	CCCc1c(N)onn1	
InChI=1S/C5H9N3O/c1-2-3-4-5(6)9-8-7-4/h2-3,6H2,1H3	InChI=1S/C5H9N3O/c1-2-3-4-5(6)9-8-7-4/h2-3,6H2,1H3
