14
gdb 132661	3.20183	1.40364	0.97882	3.1988	70.43	-0.2074	-0.0312	0.1762	1095.7343	0.103134	-474.215721	-474.208379	-474.207435	-474.247293	28.812	
N	-0.0018919994	 1.4017132547	 0.0966519416	-0.58502
C	-0.0097076657	 0.0048502882	 0.0273744997	 0.310171
N	-1.1552558775	-0.6476798196	 0.0870328789	-0.292743
C	-1.1187430694	-1.9900035696	 0.0544931967	-0.178584
C	 0.0939685646	-2.6405026402	-0.061318395	 0.283547
F	 0.1338072247	-3.9697515223	-0.12296667	-0.07448
N	 1.2594279425	-2.0173842705	-0.1016168388	-0.359667
C	 1.2268692681	-0.6933773851	-0.0451617295	 0.325801
N	 2.4143326533	 0.0153808363	-0.106977187	-0.577963
H	 0.6008555832	 1.832609569	-0.5954453604	 0.252748
H	-0.9426903324	 1.7720846676	 0.0391834478	 0.254941
H	-2.0546737808	-2.533609262	 0.1093156223	 0.120845
H	 3.2290404174	-0.5688292774	 0.0250624124	 0.260547
H	 2.4279227614	 0.8516527509	 0.4626586613	 0.259856
137.2893	241.8266	285.3603	299.9968	350.4202	405.0553	485.6759	496.8379	504.094	538.6706	592.0439	659.3115	700.7764	733.9511	767.0113	812.7287	836.6858	882.7425	1018.9089	1093.5566	1141.0782	1261.7883	1286.6611	1331.4905	1382.5296	1483.1123	1502.2679	1590.4597	1632.7422	1638.2248	1650.9098	3196.974	3517.4682	3540.0364	3621.356	3650.4263
NC1=NC=C(F)N=C1N	Nc1ncc(F)nc1N	
InChI=1S/C4H5FN4/c5-2-1-8-3(6)4(7)9-2/h1H,(H2,6,8)(H2,7,9)	InChI=1S/C4H5FN4/c5-2-1-8-3(6)4(7)9-2/h1H,(H2,6,8)(H2,7,9)
