18
gdb 32407	2.9672	1.26207	0.93418	3.1421	75.87	-0.205	0.0227	0.2277	1249.5134	0.147871	-439.108083	-439.09888	-439.097936	-439.142033	33.799	
C	 0.018197277	 1.3770735723	 0.324101213	-0.498715
C	-0.0141227368	-0.0737902597	 0.006859054	 0.337314
C	-0.9896703776	-1.0255098748	 0.0469680779	-0.013101
N	-2.337811067	-0.9285159233	 0.4833010141	-0.626332
C	-0.3834223143	-2.2720586934	-0.3516328914	 0.229731
C	-1.102718475	-3.5867446142	-0.3992473949	-0.183334
O	-1.7527529157	-3.8868587773	 0.8268601629	-0.425089
C	 0.9150199731	-1.9731207387	-0.6026882025	-0.143456
O	 1.1624121553	-0.6523110584	-0.3893685959	-0.191341
H	 0.4775791332	 1.9494164172	-0.4892106966	 0.141735
H	-0.9988979402	 1.754570123	 0.4647749501	 0.119634
H	 0.5853956237	 1.5923208761	 1.2379751853	 0.140011
H	-2.5306578523	-0.0416903398	 0.9337603308	 0.243098
H	-2.9951277783	-1.0369527399	-0.2838462116	 0.249823
H	-1.8260792286	-3.5899732697	-1.234093249	 0.081624
H	-0.3967737654	-4.4005671433	-0.5940490027	 0.110646
H	-2.2199168465	-3.0817558223	 1.0918702682	 0.293846
H	 1.7577273254	-2.5631174137	-0.9245110516	 0.133907
90.9909	118.6573	125.4733	204.6087	214.449	265.9322	285.1883	304.5663	429.2177	478.5134	528.4962	593.1864	622.6889	691.9941	715.1222	749.5008	784.2735	848.5375	940.8932	1000.2354	1014.2291	1054.4434	1060.9644	1170.1089	1193.7263	1199.8537	1228.5953	1279.3827	1307.9795	1367.966	1412.3972	1453.7122	1459.6998	1470.6277	1492.216	1509.7238	1609.5162	1641.4126	1695.0075	2937.1684	3023.6912	3070.1772	3076.874	3108.9462	3270.929	3493.2553	3587.9127	3724.6148
CC1=C(N)C(CO)=CO1	Cc1c(N)c(CO)co1	
InChI=1S/C6H9NO2/c1-4-6(7)5(2-8)3-9-4/h3,8H,2,7H2,1H3	InChI=1S/C6H9NO2/c1-4-6(7)5(2-8)3-9-4/h3,8H,2,7H2,1H3
