23
gdb 114553	2.53629	1.48866	1.15212	0.9056	85.96	-0.245	0.0894	0.3344	1187.6711	0.206578	-388.281721	-388.272889	-388.271945	-388.3148	34.807	
C	-0.1817087253	 1.3021209792	 0.0761053676	-0.237758
O	 0.2126179364	-0.0395673824	-0.0812293964	-0.253926
C	 0.7740410537	-0.6106155112	 1.0846831479	 0.128354
C	-0.2736303834	-1.0263067775	 2.1724666227	-0.252266
C	-0.0162719129	-2.5445153531	 2.1753405342	-0.021134
C	 0.0732372668	-2.862573792	 0.6570604585	-0.256523
C	 1.3683874793	-1.9918654656	 0.7453405745	 0.325419
C	 2.4577517594	-2.0279961407	-0.3004170388	-0.507463
C	 1.5374727587	-2.5954267798	 2.1749324905	-0.26829
H	 0.6656159117	 1.9428293282	 0.3686157161	 0.101905
H	-0.5656513048	 1.6449066684	-0.8881144047	 0.1243
H	-0.9738828065	 1.4190211392	 0.8312743059	 0.104703
H	 1.5427003247	 0.069149864	 1.486192428	 0.053778
H	-0.088395224	-0.5637019765	 3.1465914631	 0.09055
H	-1.2885709993	-0.77002818	 1.8540365465	 0.100625
H	-0.6118727046	-3.152240635	 2.8570139357	 0.056319
H	 0.3023935581	-3.9129469064	 0.4600359437	 0.088678
H	-0.7293761205	-2.5149043314	 0.0024475432	 0.099721
H	 2.1055978755	-1.5816065049	-1.2352595535	 0.130925
H	 3.3380029414	-1.4619724803	 0.0279830679	 0.10858
H	 2.7789928922	-3.0539307415	-0.507903396	 0.107579
H	 2.0769184625	-2.0089861595	 2.9269714597	 0.082363
H	 1.932204411	-3.614098761	 2.1417345039	 0.093559
107.3944	139.4443	184.259	205.8755	238.1828	285.4734	324.1805	399.2616	444.708	478.4318	536.7982	600.0705	692.448	824.3282	836.3363	856.5431	873.5103	902.8389	947.8719	957.1768	976.6347	1006.0931	1024.3116	1044.263	1074.2887	1089.2803	1123.6095	1141.1949	1173.0231	1184.793	1192.6709	1204.0198	1230.0529	1250.5616	1263.7616	1271.4067	1289.6917	1318.4415	1352.8546	1392.5784	1409.7248	1481.0327	1483.7264	1485.7295	1488.5145	1490.3205	1496.3793	1510.0834	1524.4033	2965.3811	2973.9318	3017.6007	3025.6792	3037.8942	3049.2156	3061.5668	3087.4556	3095.8916	3103.6556	3108.7155	3109.4898	3109.9453	3122.3043
COC1CC2CC1(C)C2	CO[C@H]1C[C@H]2C[C@]1(C)C2	
InChI=1S/C8H14O/c1-8-4-6(5-8)3-7(8)9-2/h6-7H,3-5H2,1-2H3	InChI=1S/C8H14O/c1-8-4-6(5-8)3-7(8)9-2/h6-7H,3-5H2,1-2H3/t6-,7-,8+/m0/s1
