22
gdb 6208	3.57921	1.43551	1.3424	0.2497	83.92	-0.2246	0.0357	0.2603	1081.1796	0.19971	-313.102811	-313.093992	-313.093048	-313.135424	34.357	
C	-0.541394114	 1.409439371	 0.1375033717	-0.493808
C	-0.0853293608	-0.0092887519	 0.0048109921	 0.340722
C	-0.2071843835	-0.804900001	-1.0598579298	-0.16421
C	 0.4107437906	-2.1617933054	-0.8437196096	-0.286616
C	 0.6605036811	-2.2196417495	 0.6978611709	 0.329899
C	-0.5129104951	-2.9501462443	 1.3729805175	-0.418558
C	 1.979720941	-2.9152611662	 1.0499886918	-0.438886
C	 0.645888014	-0.7194349042	 1.1237242228	-0.333602
H	 0.3013608802	 2.0795348669	 0.3526224312	 0.12199
H	-1.0310526178	 1.7640838866	-0.773853312	 0.120426
H	-1.2467631711	 1.5247047869	 0.9707088782	 0.121853
H	-0.667698486	-0.5118958413	-1.9983492968	 0.078454
H	-0.2291910918	-2.9862795602	-1.1830328647	 0.092817
H	 1.3521206154	-2.2575114828	-1.4047375799	 0.0945
H	-0.56735198	-3.9943958477	 1.0456607165	 0.106568
H	-0.4053450837	-2.9454576371	 2.4635122059	 0.105827
H	-1.4653304444	-2.4693244431	 1.125828544	 0.114644
H	 2.8318787854	-2.4099601043	 0.5825460661	 0.107733
H	 2.1485406492	-2.9223605648	 2.1330405425	 0.107924
H	 1.9815115676	-3.9570481375	 0.7092293428	 0.108522
H	 1.665679222	-0.3190108566	 1.2260559949	 0.09362
H	 0.1660203117	-0.5741391135	 2.1008581139	 0.09018
81.7025	176.278	228.0501	240.0119	266.0354	298.719	330.6855	335.5887	415.9699	420.2521	450.3679	542.7147	651.0857	773.7903	824.5695	875.1962	901.8635	920.5245	943.8103	953.957	985.4379	988.2411	1034.9795	1038.5411	1057.2979	1133.9317	1159.0415	1195.1606	1216.2378	1237.995	1292.8037	1295.0322	1333.273	1349.7209	1398.0112	1414.0852	1419.2455	1479.5302	1481.9034	1484.2268	1487.2898	1490.3915	1499.5891	1504.3506	1510.3188	1725.6317	2992.374	2996.7139	3013.537	3019.2026	3024.6808	3030.2588	3036.7376	3057.4191	3084.5855	3091.1923	3091.3233	3097.9346	3106.296	3177.0045
CC1=CCC(C)(C)C1	CC1=CCC(C)(C)C1	
InChI=1S/C8H14/c1-7-4-5-8(2,3)6-7/h4H,5-6H2,1-3H3	InChI=1S/C8H14/c1-7-4-5-8(2,3)6-7/h4H,5-6H2,1-3H3
