19
gdb 104906	2.0981	1.46303	1.01625	1.037	78.9	-0.2427	0.0273	0.27	1218.0346	0.155128	-422.973225	-422.96288	-422.961936	-423.008038	38.443	
C	-0.0837218902	 1.5441881312	-0.0400901125	-0.437921
C	 0.0598979607	 0.041804822	 0.0086042724	 0.38884
O	-1.0559121316	-0.5575764494	-0.5807950132	-0.472978
C	 1.4010105756	-0.6153410475	-0.150946041	-0.365537
C	 0.7013901097	-0.6681650131	 1.214334948	 0.020964
C	 1.2976257941	 0.0970091896	 2.3909986184	-0.132366
O	 2.3641064056	-0.6029167846	 3.0044442171	-0.414188
C	 0.0985083663	-1.916673405	 1.5924564884	 0.244622
C	-0.438032141	-2.9455173337	 1.9204199505	-0.447829
H	 0.8116563728	 2.0578530838	 0.3147185431	 0.119758
H	-0.2581482869	 1.8468666405	-1.0775372916	 0.135276
H	-0.9422415257	 1.8717187839	 0.5537631708	 0.127925
H	-1.2288791249	-1.3965432016	-0.1339300161	 0.28525
H	 1.4428044143	-1.5340302344	-0.7244824091	 0.125142
H	 2.2910825576	 0.0031657125	-0.2065014636	 0.123176
H	 1.7213715912	 1.0432901221	 2.0471339794	 0.10898
H	 0.5021702214	 0.3296004921	 3.1152220918	 0.098692
H	 2.0208838068	-1.4576694916	 3.2887691188	 0.287775
H	-0.8934785956	-3.8608123469	 2.2090004185	 0.204418
75.4142	121.1373	133.1919	162.9426	220.784	234.0754	249.2534	315.1101	356.9808	374.9088	403.8769	424.3892	472.7898	552.2337	580.3721	613.0212	672.7806	683.0381	776.2068	870.9923	917.3145	946.0502	954.6612	998.4843	1056.0707	1068.9242	1096.7524	1123.9749	1197.5879	1218.2671	1297.8073	1330.7954	1376.6949	1394.9587	1426.9291	1436.0145	1473.6182	1481.6862	1501.4252	1503.8624	2212.8379	2989.4211	3044.3552	3100.7282	3108.9254	3131.8022	3135.84	3228.2722	3496.8569	3750.6724	3798.0712
CC1(O)CC1(CO)C#C	C[C@@]1(O)C[C@]1(CO)C#C	
InChI=1S/C7H10O2/c1-3-7(5-8)4-6(7,2)9/h1,8-9H,4-5H2,2H3	InChI=1S/C7H10O2/c1-3-7(5-8)4-6(7,2)9/h1,8-9H,4-5H2,2H3/t6-,7+/m1/s1
