20
gdb 106325	2.86403	1.19738	1.0366	2.6551	76.14	-0.2022	0.0595	0.2617	1236.3677	0.169748	-440.219334	-440.209883	-440.208938	-440.253381	35.322	
C	-0.2562367171	 1.5083652967	 0.0728747956	-0.327333
N	 0.110901013	 0.1032337824	 0.0508083277	-0.066974
C	 1.1573881001	-0.3771226002	-0.8869907517	-0.223012
C	 1.8512426324	-1.1234859194	 0.2618305482	 0.242232
C	 2.3835634069	-2.5214400084	 0.1711550143	-0.175505
O	 3.5288571484	-2.6054719666	-0.6685172505	-0.412655
C	 2.2597248143	-0.1336497707	 1.3105548104	 0.034261
O	 2.813646514	 1.0935570957	 0.9272853264	-0.421941
C	 0.7949704629	-0.4869122932	 1.1906100827	-0.144843
H	 0.6002935182	 2.1963308529	 0.1457262741	 0.098283
H	-0.8133622431	 1.7521693859	-0.8385230004	 0.119794
H	-0.9225515535	 1.6896497533	 0.9234122377	 0.115396
H	 0.7504870389	-1.0374683183	-1.6602568593	 0.106238
H	 1.7587112717	 0.4097811602	-1.3557073132	 0.110595
H	 2.5938350681	-2.909055505	 1.1814094921	 0.083941
H	 1.6400249495	-3.1856395983	-0.2832193121	 0.11337
H	 4.1719579879	-1.966975898	-0.3418073971	 0.285564
H	 2.7425915402	-0.601422336	 2.1730918489	 0.084666
H	 2.5660051272	 1.751888524	 1.5848294309	 0.2886
H	 0.23080927	-0.9151736468	 2.0155533151	 0.089325
76.8247	118.0458	166.6753	205.626	235.6897	258.6551	310.5985	334.1754	340.1473	373.8089	401.6208	501.742	628.7301	675.6049	739.5062	833.9478	883.4721	935.0684	936.3597	980.9261	990.2156	1048.8899	1051.5732	1068.0053	1116.8151	1134.776	1166.848	1205.3212	1214.2508	1242.5239	1257.6802	1287.5064	1298.1849	1320.9857	1358.8376	1370.3646	1424.4331	1445.0772	1472.4832	1479.7008	1501.0038	1509.4998	1514.553	2970.481	2982.4988	3029.5497	3058.3802	3064.192	3066.4059	3076.4881	3092.2039	3136.63	3806.8782	3810.3348
CN1CC2(CO)C(O)C12	CN1C[C@@]2(CO)[C@@H](O)[C@@H]12	
InChI=1S/C6H11NO2/c1-7-2-6(3-8)4(7)5(6)9/h4-5,8-9H,2-3H2,1H3	InChI=1S/C6H11NO2/c1-7-2-6(3-8)4(7)5(6)9/h4-5,8-9H,2-3H2,1H3/t4-,5+,6+/m1/s1
