20
gdb 104371	2.54437	1.42747	1.14951	0.8915	74.22	-0.2187	-0.0279	0.1908	1153.1373	0.170762	-440.302753	-440.293442	-440.292497	-440.33682	34.992	
C	 0.1859613073	 1.5844899424	 0.269836256	-0.416338
C	-0.0221638646	 0.0805200015	 0.0551844538	-0.223397
C	 0.5671349156	-0.4722841561	-1.2445899617	 0.287878
O	 1.947616333	-0.1190025189	-1.4251229629	-0.478824
C	 0.508476534	-1.9998631946	-1.3773857317	-0.215078
N	 0.5530905238	-2.3116890128	-2.8183143905	-0.301294
C	-0.2411874343	-1.2560195885	-3.4551492757	-0.278011
C	-0.1429853439	-0.0213155896	-2.5493989545	 0.342955
O	-0.4922506453	 1.101651064	-2.8163459099	-0.322729
H	 1.2519531531	 1.8267948276	 0.336921694	 0.113013
H	-0.251689714	 2.1643442025	-0.5455272876	 0.149764
H	-0.2758822125	 1.903066048	 1.2087051297	 0.115897
H	 0.4276746059	-0.474762019	 0.8884123848	 0.103851
H	-1.0945793667	-0.1516353232	 0.0699896962	 0.10071
H	 1.9862433735	 0.8323104422	-1.5792747363	 0.292799
H	 1.3353430231	-2.4795397668	-0.8496419589	 0.120547
H	-0.4340565078	-2.3730905319	-0.9570176903	 0.10614
H	 1.517048542	-2.202524377	-3.1188450355	 0.232144
H	 0.0820177969	-1.0380430537	-4.4756279996	 0.135433
H	-1.2996051992	-1.5521904861	-3.5069703593	 0.13454
57.5244	110.1779	178.9052	196.031	245.8733	255.0246	296.6858	374.2272	388.932	414.0098	498.7746	538.0144	631.413	659.0911	710.682	782.4899	835.3204	905.1966	927.3923	941.4801	988.709	1019.1809	1039.3969	1089.089	1100.2249	1119.9883	1132.5024	1202.433	1223.8414	1288.2197	1310.3362	1313.0883	1339.2896	1368.7175	1390.9002	1407.566	1455.9333	1473.9139	1476.2632	1481.7993	1502.6007	1518.3152	1836.4941	3004.5632	3018.2864	3032.205	3042.2816	3056.4494	3104.0606	3107.9474	3115.4944	3137.049	3515.866	3795.4033
CCC1(O)CNCC1=O	CC[C@@]1(O)CNCC1=O	
InChI=1S/C6H11NO2/c1-2-6(9)4-7-3-5(6)8/h7,9H,2-4H2,1H3	InChI=1S/C6H11NO2/c1-2-6(9)4-7-3-5(6)8/h7,9H,2-4H2,1H3/t6-/m1/s1
