15
gdb 125079	3.06389	1.30416	0.92493	6.2443	72.8	-0.2318	-0.0262	0.2056	1198.1483	0.112219	-453.962697	-453.954166	-453.953222	-453.997901	29.469	
C	 0.0178328364	 1.5298715599	 0.018533044	-0.527118
C	-0.0471721246	 0.0348903884	 0.0364269763	 0.027147
C	-0.0573891459	-0.8411039145	-1.0166139079	 0.490131
N	-0.0334122023	-0.5796118766	-2.3755799401	-0.414686
C	 0.1920929752	-1.4614780852	-3.4193490968	 0.15033
O	 0.3943185436	-2.641600219	-3.3198336884	-0.267976
O	-0.1227246247	-2.1082162898	-0.6005954031	-0.190454
N	-0.1563281196	-2.1128473359	 0.8023614741	-0.145384
C	-0.1156027837	-0.8500269685	 1.1453510113	-0.016756
H	 0.6002923815	 1.8994235465	-0.8331145084	 0.122782
H	-0.9750538192	 1.9931018598	-0.0342074553	 0.139497
H	 0.5030796024	 1.9083728772	 0.9224972236	 0.144859
H	-0.1536553567	 0.3901605875	-2.6261351613	 0.266171
H	 0.1567672373	-0.918596467	-4.3841524786	 0.08842
H	-0.1275907497	-0.5959020027	 2.1969464506	 0.133037
16.3593	68.9561	150.8865	188.3709	230.3301	259.1238	356.3238	418.8559	536.6708	609.5285	636.9148	686.4936	714.8824	847.7052	910.6413	929.2241	950.2675	1002.0807	1015.4419	1064.9235	1106.9659	1184.4621	1211.7925	1336.5366	1406.4347	1430.108	1447.75	1472.4036	1491.1491	1506.7247	1544.3818	1683.0856	1837.4839	2943.9864	3022.3672	3073.571	3106.8397	3233.3884	3625.2236
CC1=C(NC=O)ON=C1	Cc1c(NC=O)onc1	
InChI=1S/C5H6N2O2/c1-4-2-7-9-5(4)6-3-8/h2-3H,1H3,(H,6,8)	InChI=1S/C5H6N2O2/c1-4-2-7-9-5(4)6-3-8/h2-3H,1H3,(H,6,8)
