21
gdb 84991	2.34939	1.46232	1.20325	4.1572	77.88	-0.2583	0.0194	0.2777	1163.5426	0.181728	-424.293203	-424.283726	-424.282782	-424.327183	35.712	
C	 0.4264679874	 1.4782616672	 0.158473799	-0.400351
C	-0.0732532439	 0.058985499	-0.077647452	 0.121263
C	 0.5490236756	-0.6670081714	-1.2947427882	-0.295621
C	 1.5581207843	-1.6672592098	-0.6939306281	 0.139781
C	 1.4683209069	-3.0715283061	-1.3072641684	-0.428152
C	 3.0144188868	-1.1627821876	-0.757632623	-0.429581
C	 1.1438391707	-1.7283603001	 0.7831477654	 0.42614
O	 1.5412142218	-2.4986952796	 1.6110952166	-0.358795
O	 0.2439585998	-0.7569282938	 1.0718101381	-0.229784
H	 1.5184258577	 1.5104628348	 0.2211894341	 0.128575
H	 0.110389914	 2.128081519	-0.6639359856	 0.121674
H	 0.0177376223	 1.8767833115	 1.0908194369	 0.135706
H	-1.1655149873	 0.0691877394	-0.1442517469	 0.09604
H	-0.227631454	-1.1979830497	-1.8517093903	 0.109949
H	 1.0191460488	 0.0398403111	-1.9830238575	 0.109555
H	 1.8035125203	-3.0567710102	-2.3495247436	 0.113285
H	 2.0978910001	-3.7672649689	-0.746526326	 0.141405
H	 0.4423266224	-3.4521704167	-1.2847081516	 0.118068
H	 3.1207926238	-0.1611083831	-0.3303647865	 0.122255
H	 3.672671418	-1.8366349979	-0.2026111683	 0.141256
H	 3.3523004645	-1.123929337	-1.7983382743	 0.117332
74.4881	100.0146	209.7485	225.7936	235.5683	251.655	296.9491	302.8063	340.7239	387.5197	423.7167	539.8403	594.9212	690.6576	723.4209	758.4097	848.2811	866.78	914.856	958.3649	973.6871	983.8697	1028.178	1060.2529	1074.7818	1122.016	1148.944	1196.7836	1234.1059	1249.4514	1278.0474	1326.5338	1370.3724	1393.8315	1395.75	1412.5454	1419.8986	1480.0211	1484.899	1487.747	1495.9505	1499.497	1501.4375	1512.3089	1865.5015	3034.1547	3037.5647	3042.0525	3051.4757	3064.1994	3101.9013	3104.642	3106.7658	3115.5335	3120.0953	3124.4857	3125.5163
CC1CC(C)(C)C(=O)O1	C[C@H]1CC(C)(C)C(=O)O1	
InChI=1S/C7H12O2/c1-5-4-7(2,3)6(8)9-5/h5H,4H2,1-3H3	InChI=1S/C7H12O2/c1-5-4-7(2,3)6(8)9-5/h5H,4H2,1-3H3/t5-/m0/s1
