15
gdb 15560	3.51143	1.9336	1.36674	1.6922	61.	-0.2474	-0.035	0.2124	871.291	0.118415	-399.82133	-399.813774	-399.81283	-399.854092	26.636	
C	 0.142612641	 1.697134396	-0.0773883076	-0.401042
C	 0.1494093373	 0.1794791123	-0.0033685743	 0.09254
O	 0.9551274464	-0.3415631949	-1.1066082456	-0.2253
C	 1.9557551678	-1.046256431	-0.5446733302	 0.123017
N	 2.0046649731	-1.1965372532	 0.713664106	-0.283096
C	 0.8254428953	-0.4927401388	 1.2416744844	-0.090939
C	 1.2168892956	 0.4192484852	 2.3993492758	 0.141282
O	 0.4873821972	 1.2437336331	 2.8865184992	-0.247121
H	 1.152792711	 2.1023399242	 0.033914881	 0.126127
H	-0.2523235409	 2.0148477047	-1.0458162474	 0.127521
H	-0.479184777	 2.1101356126	 0.7188958007	 0.153132
H	-0.8612298828	-0.2088432263	-0.1503443219	 0.106615
H	 2.675868211	-1.4467821344	-1.249983449	 0.147255
H	 0.1424868502	-1.232186118	 1.6850159617	 0.125689
H	 2.2414739448	 0.2317604985	 2.7855622773	 0.104322
45.3827	82.2007	207.7163	263.8861	273.2172	342.6985	431.6869	556.2634	590.5222	710.8694	755.8936	837.4823	911.5894	970.4835	978.3707	1012.6372	1046.5332	1069.3036	1119.9634	1147.3818	1163.2874	1257.6869	1303.5691	1313.1642	1357.1301	1379.3419	1402.0595	1411.9696	1485.9655	1494.1308	1703.0543	1827.2696	2912.8002	2999.1915	3050.775	3077.0777	3123.623	3147.1259	3214.9779
CC1OC=NC1C=O	C[C@H]1OC=N[C@H]1C=O	
InChI=1S/C5H7NO2/c1-4-5(2-7)6-3-8-4/h2-5H,1H3	InChI=1S/C5H7NO2/c1-4-5(2-7)6-3-8-4/h2-5H,1H3/t4-,5+/m1/s1
