23
gdb 15263	3.4933	1.2036	1.0771	1.3493	82.5	-0.2106	0.0774	0.288	1255.3988	0.210464	-330.302606	-330.292603	-330.291659	-330.337351	36.385	
C	 1.4582763271	 1.5308618592	-0.6412268237	-0.37865
C	 0.4526068058	 0.4696713226	-0.174992928	-0.199288
C	 0.9411882706	-0.3002208355	 1.0384769095	-0.008292
C	 0.4397472028	-1.6602887043	 1.4116965656	-0.00829
C	-0.6105851998	-2.4140484992	 0.6163313558	-0.199283
C	-0.5547026001	-3.9285717049	 0.8570946825	-0.378654
N	 1.8277336782	-1.4682423502	 0.9747701794	-0.102832
C	 2.287951875	-1.9884604411	-0.302561294	-0.316697
H	 2.3989118152	 1.0736191085	-0.9641448971	 0.121828
H	 1.0608436491	 2.1104521212	-1.4802357513	 0.110588
H	 1.6937423408	 2.2312080245	 0.1675574209	 0.1174
H	-0.4921483329	 0.9604614823	 0.0940137554	 0.099998
H	 0.2156779758	-0.2009896843	-1.0053670106	 0.097006
H	 1.2030831876	 0.366230103	 1.8632695973	 0.078569
H	 0.3749262949	-1.8800031689	 2.4796631056	 0.078567
H	-1.5971338249	-2.0365001381	 0.9162991649	 0.099997
H	-0.5246400598	-2.209464283	-0.4542767547	 0.097006
H	-1.3559153378	-4.4442253022	 0.31860326	 0.110588
H	 0.3992280907	-4.3498806303	 0.5244406949	 0.121828
H	-0.6634676468	-4.161390522	 1.9220014463	 0.1174
H	 1.5675763114	-1.9505202266	-1.1326978975	 0.098403
H	 3.1778843776	-1.428572097	-0.6093909212	 0.121403
H	 2.5857490196	-3.0339532938	-0.1689187501	 0.121403
69.0101	88.3825	120.6091	173.7281	208.821	212.5347	258.5081	285.125	303.2366	305.8619	496.1974	522.781	558.9974	729.7695	730.0967	766.2322	836.9601	837.7905	940.0073	996.3967	1038.8939	1048.973	1073.074	1087.792	1128.5483	1143.7086	1153.8091	1168.7224	1190.3153	1208.1429	1282.4766	1293.4774	1332.3121	1343.0006	1352.7373	1403.3331	1411.1263	1415.7947	1441.4226	1464.8225	1473.8961	1479.9732	1497.5949	1499.3488	1500.368	1505.0515	1509.06	1511.1771	2988.3544	3021.8963	3025.6431	3033.5394	3033.9064	3058.7442	3062.1208	3073.8623	3077.8245	3088.3071	3090.4208	3103.8415	3106.6151	3107.82	3110.3312
CCC1C(CC)N1C	CC[C@H]1[C@@H](CC)N1C	
InChI=1S/C7H15N/c1-4-6-7(5-2)8(6)3/h6-7H,4-5H2,1-3H3	InChI=1S/C7H15N/c1-4-6-7(5-2)8(6)3/h6-7H,4-5H2,1-3H3/t6-,7+,8?
