19
gdb 119306	2.24509	1.18612	0.91221	0.8511	77.56	-0.2536	0.0241	0.2777	1335.4299	0.156684	-422.963618	-422.953751	-422.952807	-422.999068	35.462	
O	-0.170130368	 1.4112259513	-0.2473057495	-0.423987
C	 0.002274337	 0.0031210372	-0.1559715975	-0.085148
C	-1.37150828	-0.6022103207	 0.1066867288	-0.225058
C	-1.3579416809	-2.1310507036	 0.1555679659	 0.213368
C	-2.7529981679	-2.8165598154	 0.0335094175	-0.335453
C	-2.216263876	-3.3714125296	-1.2979381895	-0.065331
O	-0.9535200498	-2.6923012405	-1.1313404345	-0.308388
C	-0.5282401634	-2.6430902985	 1.2444601974	 0.341873
C	 0.1345094726	-3.0727109393	 2.1511274838	-0.480671
H	 0.6864504988	 1.8029590997	-0.4399504181	 0.2857
H	 0.4075859345	-0.4163279956	-1.0879327007	 0.107091
H	 0.6900205351	-0.2647838216	 0.6594949971	 0.097903
H	-1.7700183167	-0.2142982346	 1.0513265164	 0.11315
H	-2.0509219911	-0.2898982544	-0.6935693613	 0.107187
H	-2.9680746076	-3.5566507812	 0.8032490056	 0.123711
H	-3.5843246871	-2.1145486101	-0.0457469984	 0.117545
H	-2.0896686644	-4.4595201062	-1.3368641188	 0.109537
H	-2.7386771043	-3.0412309354	-2.2029906181	 0.107093
H	 0.7275424692	-3.4523019716	 2.9464602138	 0.199877
58.265	85.1023	99.2286	138.7284	189.7742	203.6136	253.0052	339.72	372.2684	410.8682	522.8957	548.1359	624.0986	662.6456	706.4055	780.7862	797.5536	860.0422	912.1171	970.1826	990.708	1006.7149	1026.4231	1063.7055	1097.53	1154.6918	1161.7264	1201.1102	1220.3828	1245.9902	1256.6191	1275.5277	1319.6674	1339.544	1353.5505	1461.2846	1476.1823	1487.1148	1531.2949	1531.7511	2228.5576	2990.6466	3024.9739	3025.2094	3040.819	3065.6592	3089.0329	3090.5793	3151.8234	3499.4459	3832.6088
OCCC1(CCO1)C#C	OCC[C@]1(CCO1)C#C	
InChI=1S/C7H10O2/c1-2-7(3-5-8)4-6-9-7/h1,8H,3-6H2	InChI=1S/C7H10O2/c1-2-7(3-5-8)4-6-9-7/h1,8H,3-6H2/t7-/m0/s1
