17
gdb 39905	2.75743	1.81115	1.60583	2.6848	66.47	-0.252	0.0849	0.3369	901.8458	0.137901	-458.933579	-458.926822	-458.925878	-458.964591	27.043	
C	 0.0539128604	 1.4767056826	 0.004355796	-0.294382
O	 1.1918013149	 0.5875832518	-0.0016487013	-0.299495
C	-0.1034814932	 0.030740305	 0.0147638938	 0.494622
C	-0.587598183	-0.9047140655	 1.1178592891	-0.205585
C	-2.0599913188	-1.0269772664	 0.6818654247	-0.075756
O	-1.9894917911	-1.0056738474	-0.7673656248	-0.275595
C	-0.6110597675	-0.897776596	-1.0764209278	 0.123494
O	 0.0562928172	-2.111968109	-0.7924150794	-0.274514
C	 0.1292464322	-2.1887414216	 0.6536132193	-0.07505
H	-0.0833665843	 2.0464177044	 0.9222137731	 0.120186
H	-0.1013475182	 2.0354492547	-0.9171408948	 0.126366
H	-0.415385185	-0.6084097216	 2.1510396471	 0.090675
H	-2.5261697293	-1.9628025003	 1.0106692109	 0.109891
H	-2.6720111315	-0.1853994723	 1.0275151702	 0.106184
H	-0.4832048724	-0.6421836274	-2.125897507	 0.103723
H	 1.1798286297	-2.2123003933	 0.9634761843	 0.118277
H	-0.3702279401	-3.1023083978	 0.9943285067	 0.106958
155.6331	192.8541	271.1723	302.0273	378.3391	459.11	580.1719	601.0645	629.6023	774.7313	856.8954	884.9394	906.1827	923.4989	932.4345	944.1443	957.487	969.8473	998.1095	1056.0252	1082.2311	1113.1844	1116.4598	1161.3142	1176.8889	1191.9399	1210.0262	1261.6594	1275.9436	1280.0096	1307.766	1368.8575	1384.6176	1466.703	1516.3323	1530.1784	1553.7212	3023.4559	3031.9909	3065.3185	3077.685	3086.4191	3140.1264	3161.0439	3173.477
C1OC11C2COC1OC2	C1O[C@]21[C@H]1CO[C@@H]2OC1	
InChI=1S/C6H8O3/c1-4-2-8-5(7-1)6(4)3-9-6/h4-5H,1-3H2	InChI=1S/C6H8O3/c1-4-2-8-5(7-1)6(4)3-9-6/h4-5H,1-3H2/t4-,5+,6-/m1/s1
