13
gdb 33328	3.14147	0.86891	0.71054	4.5259	86.64	-0.254	-0.0371	0.2169	1494.4356	0.087996	-378.391182	-378.382694	-378.38175	-378.425116	30.419	
C	-0.0841782696	-3.8112406555	-0.0234817328	-0.550635
C	-0.0484992469	-2.6046389414	-0.0048424009	 0.297926
C	-0.0103944848	-1.2460748903	 0.014853368	-0.191522
C	 0.0275935874	-0.0369733282	 0.0374999838	 0.495465
C	 0.0456391575	 1.3933582198	 0.0232344689	-0.324337
N	 0.5318669597	 2.0923881709	 1.2266100405	-0.294007
C	 1.3306068413	 2.1894580491	-0.0005685283	-0.184416
C	 2.6210926278	 1.5450514729	 0.0026461894	 0.341758
N	 3.6637389587	 1.0483699631	-0.0329032174	-0.319286
H	-0.1103738632	-4.8728539315	-0.0379744866	 0.199536
H	-0.7707296101	 1.8559855645	-0.5290207955	 0.132977
H	 0.0111686878	 2.954745488	 1.367704699	 0.254284
H	 1.3049010244	 3.1143471886	-0.5712108082	 0.142257
55.1467	97.9534	149.9485	218.7222	267.5082	271.8358	419.3716	475.7332	543.4786	551.9171	579.5233	595.0913	611.1496	629.9387	708.8177	813.6104	875.7795	906.7975	958.1208	1065.7149	1149.2493	1188.0209	1197.2927	1259.9849	1398.7515	1439.7219	2186.387	2363.5757	2367.2168	3121.6673	3146.9477	3502.6541	3508.2124
C#CC#CC1NC1C#N	C#CC#C[C@H]1N[C@H]1C#N	
InChI=1S/C7H4N2/c1-2-3-4-6-7(5-8)9-6/h1,6-7,9H	InChI=1S/C7H4N2/c1-2-3-4-6-7(5-8)9-6/h1,6-7,9H/t6-,7+/m1/s1
