16
gdb 55622	2.47195	1.05859	0.86626	3.5011	76.69	-0.2516	0.0179	0.2696	1351.4932	0.120762	-400.710002	-400.699919	-400.698974	-400.745885	36.059	
N	 0.0888705962	 1.2076890994	 0.405397548	-0.526009
C	 0.0663773523	-0.0270412797	-0.1704265	 0.419031
O	 1.0009450338	-0.4756076022	-0.8054325019	-0.357411
C	-1.2496473223	-0.7910104088	-0.0205771507	-0.31118
C	-0.9805193064	-2.3114456014	 0.127604463	-0.332091
C	-0.3947427632	-2.6166303462	 1.4373269592	 0.345187
C	 0.0843332891	-2.8374988682	 2.5160815831	-0.470965
C	-2.1976355625	-3.0909043979	-0.1124671754	 0.305983
C	-3.2065525017	-3.7066548508	-0.3248617829	-0.423594
H	 0.950254029	 1.7288265619	 0.3664933107	 0.263719
H	-0.6230973056	 1.5071563512	 1.0480103572	 0.261396
H	-1.8501681918	-0.4299124215	 0.8184928199	 0.114868
H	-1.8291219542	-0.6303611122	-0.9359424096	 0.146375
H	-0.2366998365	-2.5550901176	-0.6431340151	 0.166814
H	 0.5155988497	-3.0511862058	 3.4626570486	 0.200561
H	-4.0896762659	-4.2664528701	-0.510189564	 0.197318
38.1027	63.3751	116.7326	132.6086	200.6671	245.9322	252.3211	341.1363	396.7104	454.8656	513.9674	563.5823	575.2245	598.7152	629.7343	633.5839	651.472	653.4744	681.7304	845.7961	867.2773	952.741	1054.5197	1061.6708	1096.3087	1189.7831	1253.3433	1305.9916	1340.5472	1396.6821	1463.6563	1619.7099	1797.6755	2240.5299	2246.394	3026.1746	3055.2151	3106.2563	3503.9931	3504.8786	3599.4237	3735.7293
NC(=O)CC(C#C)C#C	NC(=O)CC(C#C)C#C	
InChI=1S/C7H7NO/c1-3-6(4-2)5-7(8)9/h1-2,6H,5H2,(H2,8,9)	InChI=1S/C7H7NO/c1-3-6(4-2)5-7(8)9/h1-2,6H,5H2,(H2,8,9)
