19
gdb 127459	3.43633	1.05569	0.83765	1.7124	80.59	-0.2252	0.0296	0.2548	1393.6574	0.158852	-419.23097	-419.22112	-419.220175	-419.266733	34.332	
C	 0.1778268101	 1.3349239477	-0.0839287232	-0.326395
N	 0.0530004563	-0.1007325695	 0.0327219519	-0.011986
N	 0.0407112939	-0.8635740348	-1.0846620421	-0.33959
C	-0.0660072848	-2.1141955555	-0.6436857572	 0.361298
C	-0.1489582119	-3.2547184074	-1.6071240144	-0.187427
O	 0.6484648551	-4.3247167253	-1.109939888	-0.418587
C	-0.1135106362	-2.1602015036	 0.7658271036	-0.376678
C	-0.0311882448	-0.8430692828	 1.1724533297	 0.378501
C	-0.0186018554	-0.2312904165	 2.5347299693	-0.504262
H	 1.1085486441	 1.6927295585	 0.3700516989	 0.135179
H	 0.1838697738	 1.5730786397	-1.1468087404	 0.161488
H	-0.6640684418	 1.8451824174	 0.3957325941	 0.133963
H	-1.1977931208	-3.5774758768	-1.7160383387	 0.092878
H	 0.1907258463	-2.9068712509	-2.5931328139	 0.104539
H	 0.4910807929	-5.0905368339	-1.6701154089	 0.285898
H	-0.1819085722	-3.0326629857	 1.3947450064	 0.10406
H	 0.9057136937	 0.3268372981	 2.7264645012	 0.133774
H	-0.853695813	 0.4642326102	 2.6813666043	 0.132405
H	-0.0988329952	-1.0126096388	 3.2930562976	 0.140942
42.7382	62.5044	120.4228	137.5745	200.7685	211.7291	261.6517	266.5289	317.1826	394.9762	501.4899	613.2471	645.839	662.4626	726.7296	799.6167	810.1236	993.179	1018.3334	1031.4779	1046.5477	1061.7866	1087.4317	1148.8936	1156.4263	1204.6834	1240.2834	1245.9436	1325.8067	1411.9192	1416.4678	1434.5631	1454.2714	1472.7087	1478.4245	1490.663	1501.1922	1513.5411	1516.5585	1521.8236	1599.0041	2959.4161	3015.5478	3024.4082	3032.2403	3071.4471	3086.6789	3129.2861	3164.718	3269.5404	3827.0824
CN1N=C(CO)C=C1C	Cn1nc(CO)cc1C	
InChI=1S/C6H10N2O/c1-5-3-6(4-9)7-8(5)2/h3,9H,4H2,1-2H3	InChI=1S/C6H10N2O/c1-5-3-6(4-9)7-8(5)2/h3,9H,4H2,1-2H3
