22
gdb 59064	2.07399	1.35956	1.02926	1.1274	88.88	-0.2211	0.0352	0.2562	1295.7317	0.190949	-367.153708	-367.143078	-367.142134	-367.189003	39.347	
C	-1.1939979507	 0.888715452	 0.0693660138	-0.392927
C	 0.3173903447	 0.6257870192	-0.018945215	 0.008455
C	 1.093164085	 1.9267078855	-0.2781015544	-0.39469
C	 0.7940764766	-0.0329980351	 1.2651383142	 0.01328
C	 0.6728060049	-1.517473419	 1.5051537839	-0.228715
C	 0.1724329189	-2.3840169241	 0.4730627308	 0.358783
C	-0.24559163	-3.140571289	-0.3649367504	-0.478773
N	 1.9887155662	-0.8573169139	 1.3926883047	-0.11742
C	 2.830406682	-1.1486049585	 0.2393266474	-0.319595
H	-1.4303709381	 1.5372909437	 0.9213570517	 0.111242
H	-1.5553654032	 1.387144058	-0.8359143766	 0.110544
H	-1.7500684285	-0.0453239941	 0.1889436195	 0.127099
H	 0.4879391534	-0.058546648	-0.8559733452	 0.086933
H	 0.9469844241	 2.6382540194	 0.5430789432	 0.114694
H	 2.1679151387	 1.7461833998	-0.3736305897	 0.118116
H	 0.7482764977	 2.4074329608	-1.199295751	 0.112339
H	 0.6316351696	 0.5955034411	 2.1435404878	 0.089595
H	 0.445678677	-1.8588117076	 2.5135873977	 0.111649
H	-0.6183035038	-3.8064191463	-1.1034321044	 0.198864
H	 2.2933794539	-1.3152279172	-0.7032873037	 0.119229
H	 3.5327254442	-0.3205983301	 0.1039297153	 0.124232
H	 3.4103105976	-2.0506434266	 0.4571578303	 0.127066
64.5824	102.8756	148.2756	163.8192	183.3745	220.9848	239.0863	253.4127	326.481	346.5555	350.7231	429.2768	529.0737	587.1584	600.1873	616.9645	659.1879	726.3788	821.9211	842.9277	901.7222	929.8984	966.1204	995.4546	1049.3646	1080.3914	1129.5891	1150.2875	1156.7019	1169.8522	1189.9514	1211.0535	1304.9992	1336.1387	1340.3713	1363.9262	1397.16	1414.9091	1432.7473	1452.7793	1484.7767	1487.7783	1491.8677	1501.9005	1504.7435	1510.1783	2225.5417	3011.1034	3026.5673	3030.9183	3056.0284	3077.6039	3081.8777	3091.0349	3100.9222	3105.4498	3109.9629	3113.5596	3115.8556	3502.7196
CC(C)C1C(C#C)N1C	CC(C)[C@H]1[C@@H](C#C)N1C	
InChI=1S/C8H13N/c1-5-7-8(6(2)3)9(7)4/h1,6-8H,2-4H3	InChI=1S/C8H13N/c1-5-7-8(6(2)3)9(7)4/h1,6-8H,2-4H3/t7-,8+,9?/m1/s1
