21
gdb 88658	3.96262	0.88573	0.79989	2.4917	80.05	-0.2351	0.0795	0.3146	1503.1846	0.181391	-424.192606	-424.183198	-424.182254	-424.227599	35.064	
C	-0.6946314719	 1.3389526635	-0.0104370533	-0.39452
C	 0.028701165	 0.0125855716	-0.1501548345	 0.172568
C	 1.0524708292	-0.129452532	-1.2982424066	-0.326141
C	 2.1024362565	-0.2606423966	-0.1699741662	 0.149037
O	 1.0691065451	-0.1546008682	 0.8440401732	-0.314471
C	 2.8600292241	-1.554630743	-0.0818592712	-0.030121
C	 4.1708047861	-1.7073102842	-0.8367694526	-0.342237
C	 4.1577154784	-1.6423524953	 0.6689974927	 0.097509
O	 4.6021086608	-0.4802156091	 1.3060303127	-0.413386
H	 0.0064285319	 2.1757669224	-0.0926786625	 0.117436
H	-1.4580431664	 1.445298232	-0.7896219234	 0.110461
H	-1.1889299499	 1.4021342993	 0.9640983268	 0.1254
H	-0.6932260298	-0.8137848035	-0.0898880917	 0.070415
H	 0.9371052406	-1.0189137733	-1.9207979085	 0.102894
H	 1.1577070378	 0.7475171087	-1.9404462979	 0.102174
H	 2.8016320993	 0.579474112	-0.0976571669	 0.083588
H	 2.2224648481	-2.4332203718	-0.0323646679	 0.087506
H	 4.3874845795	-2.6481078837	-1.3306223827	 0.111605
H	 4.5421919551	-0.8260727989	-1.3510137805	 0.113979
H	 4.3488993106	-2.5641652899	 1.2181360324	 0.087957
H	 5.5592887098	-0.4389969802	 1.2122407388	 0.288347
44.3706	66.0652	125.5626	204.0191	240.7541	284.1783	310.3999	314.1884	390.1227	431.8656	483.7373	589.3665	747.8108	771.2726	807.1624	845.1719	893.5017	899.7298	922.7055	952.3026	992.8284	1020.8642	1026.6129	1048.4972	1060.2016	1094.7786	1128.0997	1134.3993	1168.5168	1192.0264	1217.6512	1235.7741	1255.4064	1278.3948	1293.6705	1323.0579	1334.7481	1385.6404	1407.1158	1416.4946	1438.9245	1482.9442	1487.6088	1492.9352	1496.5062	2999.2262	3029.8774	3046.8871	3070.6202	3099.4232	3101.6791	3110.0273	3125.3066	3127.3643	3146.8664	3216.4942	3809.534
CC1CC(O1)C1CC1O	C[C@H]1C[C@@H](O1)[C@H]1C[C@H]1O	
InChI=1S/C7H12O2/c1-4-2-7(9-4)5-3-6(5)8/h4-8H,2-3H2,1H3	InChI=1S/C7H12O2/c1-4-2-7(9-4)5-3-6(5)8/h4-8H,2-3H2,1H3/t4-,5-,6+,7+/m0/s1
