17
gdb 106440	2.71961	1.37985	1.0919	5.0447	73.86	-0.269	0.0026	0.2716	1133.4917	0.136031	-417.928325	-417.920093	-417.919149	-417.961593	30.354	
C	 0.0271561745	 1.3548301006	-0.0229756501	-0.269367
O	-0.0581061031	-0.0622997552	-0.0669567027	-0.280247
C	-1.3348711047	-0.5520806866	-0.0348608338	 0.400072
C	-2.4118299216	-0.52325794	 1.0858874006	-0.241492
N	-3.0647557192	-1.3928904372	-0.0013665863	-0.136767
C	-2.536860125	-0.3462755921	-1.0000964191	-0.261583
C	-1.671230286	-2.0577150107	-0.116742596	-0.174635
C	-1.4068688275	-2.8055885377	-1.3367274983	 0.295719
N	-1.1756999546	-3.4106281865	-2.2939574426	-0.329112
H	 1.0873287929	 1.6079457178	-0.0668252097	 0.143538
H	-0.487388912	 1.8144845794	-0.8772794173	 0.122981
H	-0.3994789634	 1.7553939719	 0.9065807059	 0.11902
H	-2.2104194479	-1.0600410766	 2.0158827082	 0.115589
H	-2.9533796385	 0.4076864133	 1.2599638028	 0.115467
H	-3.08426054	 0.5964274571	-0.949812718	 0.113414
H	-2.4548219708	-0.7167134887	-2.0228513537	 0.141791
H	-1.4236255031	-2.6647244489	 0.75723194	 0.125615
65.5494	123.8334	177.2025	182.9934	222.123	366.2157	387.7705	473.3755	524.759	560.5419	619.9973	661.2091	785.8019	819.2387	888.7302	915.2974	973.6314	991.5469	1048.7532	1065.9545	1082.1446	1098.9198	1155.5691	1161.5294	1178.927	1179.3736	1188.4828	1229.0623	1248.8774	1311.3994	1387.2368	1486.363	1491.4713	1503.8281	1509.2584	1551.6743	2357.9188	3001.2982	3058.2053	3068.3375	3080.0037	3091.796	3138.6468	3143.228	3152.5332
COC12CN(C1)C2C#N	CO[C@@]12CN(C1)[C@H]2C#N	
InChI=1S/C6H8N2O/c1-9-6-3-8(4-6)5(6)2-7/h5H,3-4H2,1H3	InChI=1S/C6H8N2O/c1-9-6-3-8(4-6)5(6)2-7/h5H,3-4H2,1H3/t5-/m0/s1
