19
gdb 87914	3.75408	1.09288	0.98882	4.2997	76.3	-0.2581	0.0159	0.274	1255.6968	0.159262	-423.068911	-423.060489	-423.059545	-423.102057	32.061	
C	-0.0879553487	 1.5111453704	-0.0879387162	-0.411904
C	-0.0084486041	 0.0103215739	 0.0822106638	-0.071798
C	 1.2946331734	-0.7471789059	-0.1382881792	-0.35619
C	 0.7040066896	-0.6128328043	 1.2373174509	 0.440676
C	 1.3679770097	 0.1256365621	 2.3915435824	-0.305175
C	 1.6561277183	-1.0177443893	 3.3719213553	-0.360906
C	 0.6225608037	-2.0790952772	 3.007035626	 0.41571
O	 0.280752035	-3.0371608623	 3.6356365	-0.334738
O	 0.1006624027	-1.7860336508	 1.7823093686	-0.251481
H	 0.8294281255	 2.0046322123	 0.2481591101	 0.115924
H	-0.2356676882	 1.774708637	-1.1404092659	 0.125885
H	-0.92222335	 1.9337579843	 0.4823921977	 0.124849
H	-0.8974955812	-0.5334174623	-0.225629822	 0.107467
H	 1.2396108141	-1.7203559924	-0.6125689274	 0.128996
H	 2.1890290246	-0.1740937286	-0.3646816073	 0.112861
H	 2.2611657105	 0.6695941752	 2.0806015469	 0.117072
H	 0.6714725704	 0.8451629002	 2.8357348331	 0.120285
H	 2.649048773	-1.4541622847	 3.2156267082	 0.142829
H	 1.573925732	-0.7551014076	 4.4270499051	 0.139638
85.2701	124.3174	171.4682	193.8012	235.9622	324.4468	412.1038	460.5614	513.4209	536.6941	548.7264	660.3154	754.2888	812.0824	822.8922	877.5314	903.2802	940.3738	952.4781	1000.4937	1017.9179	1037.2834	1068.1914	1097.2369	1126.5585	1167.2529	1171.5569	1189.6746	1193.6688	1272.072	1300.1378	1320.3565	1353.5995	1411.4382	1424.9963	1464.4822	1487.1138	1490.8192	1501.5124	1508.6205	1886.3979	3032.086	3049.0678	3059.1568	3095.8905	3100.7883	3116.9984	3126.2324	3133.1335	3151.5736	3221.7459
CC1CC11CCC(=O)O1	C[C@H]1C[C@]21CCC(=O)O2	
InChI=1S/C7H10O2/c1-5-4-7(5)3-2-6(8)9-7/h5H,2-4H2,1H3	InChI=1S/C7H10O2/c1-5-4-7(5)3-2-6(8)9-7/h5H,2-4H2,1H3/t5-,7-/m0/s1
