16
gdb 20296	5.32052	1.52089	1.4473	1.8021	64.26	-0.2383	0.084	0.3222	886.6961	0.130693	-383.633412	-383.626837	-383.625892	-383.664633	25.175	
C	 1.3739117506	 0.4675982292	-0.1301485503	-0.174935
O	 0.3595821231	-0.0452400395	-0.9954079155	-0.226166
C	-0.0368973998	 0.4574740861	 0.2840857824	 0.031855
C	-0.5600440166	-0.4774798993	 1.3403790392	 0.003124
C	-1.9089537083	-1.2535810775	 1.2341001049	 0.024598
C	-1.2869361557	-2.240902636	 0.2186908996	-0.227583
C	-0.2946514183	-2.0110732165	 1.3839138749	 0.02686
O	-1.4303727592	-2.1277248471	 2.3303753785	-0.31041
H	 2.0564033933	-0.2760321519	 0.2787140225	 0.117331
H	 1.8383531586	 1.397668766	-0.4536663658	 0.118769
H	-0.5743380024	 1.4066394988	 0.2275782536	 0.099331
H	-0.4490367337	-0.0160493995	 2.3267347195	 0.091281
H	-2.9286901823	-0.8734644965	 1.3052044933	 0.093747
H	-1.7517144485	-3.2275006519	 0.2148173929	 0.104927
H	-1.0104536632	-1.8776141847	-0.7692514472	 0.133669
H	 0.6220321724	-2.5455869597	 1.6353525374	 0.093602
62.0522	175.1297	221.299	384.3634	413.3657	583.0494	623.4918	730.2832	805.554	821.9447	875.3751	884.365	903.2758	914.3444	928.9386	990.4658	1016.0249	1061.783	1079.2299	1104.4826	1116.894	1146.8142	1166.1981	1174.0738	1177.2331	1204.4165	1220.8778	1261.3698	1275.4853	1300.6002	1379.4402	1428.4792	1492.4411	1529.4367	3068.7915	3084.7178	3089.2092	3090.8769	3110.0201	3117.9698	3174.1	3179.3823
C1OC1C1C2CC1O2	C1O[C@H]1[C@H]1[C@H]2C[C@@H]1O2	
InChI=1S/C6H8O2/c1-3-6(4(1)8-3)5-2-7-5/h3-6H,1-2H2	InChI=1S/C6H8O2/c1-3-6(4(1)8-3)5-2-7-5/h3-6H,1-2H2/t3-,4+,5-,6+/m1/s1
