19
gdb 94294	2.87518	1.5198	1.21071	2.2319	75.44	-0.2233	0.0586	0.2819	1075.5586	0.158981	-422.962027	-422.95379	-422.952845	-422.99508	31.527	
O	 0.0583279146	 1.218370677	-0.4574214926	-0.421845
C	 0.0593392263	-0.118028664	-0.0118719692	-0.051934
C	-0.058508005	-0.3628063338	 1.512991837	-0.105323
O	-1.3013491039	-1.0802365231	 1.3422222625	-0.326081
C	-1.3133901571	-0.784030144	-0.0591284458	 0.481199
C	-2.6050105932	-0.3763982852	-0.6810089517	-0.132935
C	-2.4053084347	 0.0328468729	-2.1452474314	-0.230836
C	-1.7496432448	-1.3594494666	-2.4364906046	-0.237324
C	-1.9654795981	-1.7622613243	-0.9742670995	-0.149655
H	 0.9671858288	 1.5333268136	-0.4770925561	 0.288219
H	 0.8520808712	-0.703250975	-0.4950438248	 0.079743
H	 0.7100082534	-0.9868777155	 1.982318095	 0.100105
H	-0.192276944	 0.5653415822	 2.0815520931	 0.104774
H	-3.4488547728	-0.1303659626	-0.0470807224	 0.09275
H	-3.3507912989	 0.1548296494	-2.6781206048	 0.101937
H	-1.7848995214	 0.9161148306	-2.3089361037	 0.11692
H	-2.3392885612	-1.9587814857	-3.1333163108	 0.106016
H	-0.7106927706	-1.3525883262	-2.7849124735	 0.092786
H	-2.2418955084	-2.7430198099	-0.6047708166	 0.091484
59.4893	146.1715	157.3167	233.4207	280.1013	296.0341	387.824	435.4996	518.6995	603.2574	718.5117	772.1798	782.7524	844.3801	874.055	904.6781	919.3427	966.8917	980.1546	1006.2395	1018.839	1021.952	1066.9341	1085.9142	1103.0174	1139.8543	1167.7374	1175.5131	1211.0921	1224.8466	1234.6754	1247.8826	1260.6787	1285.936	1301.7553	1331.7116	1420.3258	1466.0082	1480.7781	1502.7124	1513.6256	3016.2529	3022.2103	3038.9012	3069.5875	3076.9951	3099.7084	3125.3553	3176.415	3186.4731	3823.8705
OC1COC11C2CCC12	O[C@H]1CO[C@]21[C@H]1CC[C@@H]21	
InChI=1S/C7H10O2/c8-6-3-9-7(6)4-1-2-5(4)7/h4-6,8H,1-3H2	InChI=1S/C7H10O2/c8-6-3-9-7(6)4-1-2-5(4)7/h4-6,8H,1-3H2/t4-,5+,6-,7+/m0/s1
