25
gdb 115381	3.13148	0.98282	0.87393	1.2923	88.63	-0.2392	0.0798	0.319	1490.0481	0.230184	-389.513898	-389.504195	-389.503251	-389.548178	37.602	
C	 0.0443780124	 1.6336815823	 0.1320035812	-0.391716
C	 0.0537582977	 0.1031141541	 0.0442575551	-0.184593
C	 0.6895597143	-0.4657190659	-1.2329534712	 0.035991
C	 0.8532653148	-1.9920746145	-1.158866008	-0.216546
C	 1.4310828476	-2.5414884368	-2.470208388	-0.223092
C	 0.6250035571	-2.0705058664	-3.6928338284	 0.139394
C	-0.7132936894	-2.7993707236	-3.8693094516	-0.403031
O	 0.4685864421	-0.6506348797	-3.6752626557	-0.267141
C	-0.1142274307	-0.1222013274	-2.494473259	-0.079104
H	 1.0577828439	 2.0400282608	 0.0395134396	 0.115693
H	-0.5665989059	 2.0876570414	-0.6544086465	 0.120203
H	-0.3604758003	 1.9675661511	 1.0924858028	 0.112261
H	 0.5985312187	-0.3001842051	 0.9077603504	 0.092836
H	-0.9735906756	-0.2766175992	 0.1357483833	 0.091834
H	 1.6891007328	-0.0220665003	-1.3539827607	 0.071122
H	 1.5023707199	-2.2636251028	-0.3181222747	 0.090767
H	-0.1241087824	-2.4492471671	-0.9508071341	 0.093554
H	 2.4616851211	-2.183549684	-2.5816671743	 0.098452
H	 1.4724063689	-3.6366392234	-2.4524101118	 0.090104
H	 1.2213214721	-2.2522501649	-4.5942137196	 0.077405
H	-1.3500043196	-2.7385524547	-2.9821900446	 0.116576
H	-1.2618494426	-2.3699052723	-4.712313076	 0.122431
H	-0.5370590272	-3.8598129893	-4.0767663684	 0.112678
H	-1.1524364607	-0.475617771	-2.3713821162	 0.080595
H	-0.1571873388	 0.9581856888	-2.6578941836	 0.103324
75.4637	106.6145	190.2307	200.917	223.8569	241.8525	282.5036	356.9904	377.8819	401.4914	443.7477	461.3336	511.4888	651.4584	766.6638	782.3114	823.4688	869.4416	908.14	928.9066	941.1061	983.9398	995.948	1026.7929	1051.0478	1061.7549	1081.0685	1127.689	1155.4151	1170.9532	1178.8317	1222.0485	1252.183	1279.7195	1310.9193	1323.2365	1344.8003	1367.1474	1369.6992	1383.0899	1389.5724	1391.6901	1405.0015	1415.9648	1420.4807	1477.3732	1484.2529	1488.9451	1492.6918	1502.2595	1504.8854	1509.4582	1513.3612	2959.4975	2995.3766	3007.4345	3015.8479	3024.4674	3034.0323	3039.7885	3041.3921	3044.2579	3056.3239	3071.5443	3085.0011	3099.4979	3106.7448	3110.4848	3119.4597
CCC1CCC(C)OC1	CC[C@H]1CC[C@@H](C)OC1	
InChI=1S/C8H16O/c1-3-8-5-4-7(2)9-6-8/h7-8H,3-6H2,1-2H3	InChI=1S/C8H16O/c1-3-8-5-4-7(2)9-6-8/h7-8H,3-6H2,1-2H3/t7-,8+/m1/s1
