16
gdb 19883	3.31237	2.3333	2.06044	3.1233	62.37	-0.2333	0.0692	0.3025	733.6457	0.132383	-383.70825	-383.702132	-383.701188	-383.73819	25.186	
O	 0.0566070012	 1.4057039339	-0.1482191015	-0.430237
C	-0.0351865409	 0.0309673944	-0.0039306193	 0.134481
C	-0.4102745119	-0.6808188771	 1.2691482257	-0.114687
C	-1.1548814292	 0.0789030438	 2.3748672015	-0.270817
C	-2.5194789992	 0.443714166	 1.8034713914	 0.038439
O	-2.4868823582	 1.3691617478	 0.6998810541	-0.277584
C	-2.6107956157	-0.0520296706	 0.4202895842	 0.037059
C	-1.3350760313	-0.7571522648	 0.0389334843	-0.146975
H	-0.7974978434	 1.7738362947	 0.1262802719	 0.300425
H	 0.7605343463	-0.4517009378	-0.5658039422	 0.103071
H	 0.1905998509	-1.5330264452	 1.5698040704	 0.087471
H	-1.293511569	-0.567259197	 3.2476321986	 0.112114
H	-0.6136604138	 0.9711713075	 2.7104080038	 0.127447
H	-3.3768953988	 0.570544694	 2.4596275534	 0.104322
H	-3.5472163489	-0.3282805148	-0.0542327336	 0.108149
H	-1.4344049181	-1.653941275	-0.5621575426	 0.087322
158.635	264.7831	331.3493	413.0437	532.2307	602.2948	641.5876	683.6583	717.4001	741.4799	753.2397	823.9361	854.9189	873.248	929.0074	960.1818	1007.9734	1028.9089	1044.0461	1074.4537	1079.1247	1116.0582	1125.3151	1205.997	1223.7747	1260.3138	1295.8689	1309.2773	1343.7509	1353.7163	1375.1111	1431.4565	1472.1349	1487.1314	3044.197	3085.8828	3139.4794	3147.1426	3156.7283	3164.1914	3178.5977	3677.6343
OC1C2CC3OC3C12	O[C@H]1[C@H]2C[C@H]3O[C@H]3[C@@H]12	
InChI=1S/C6H8O2/c7-5-2-1-3-6(8-3)4(2)5/h2-7H,1H2	InChI=1S/C6H8O2/c7-5-2-1-3-6(8-3)4(2)5/h2-7H,1H2/t2-,3+,4+,5-,6+/m0/s1
