19
gdb 67826	3.05067	1.79826	1.46296	1.3473	79.03	-0.2117	0.0159	0.2276	960.1339	0.16119	-385.884788	-385.87769	-385.876746	-385.915786	29.384	
C	-0.0150781001	 1.5267226574	 0.0389405248	-0.496386
C	 0.0061315015	 0.0195831875	-0.0492722049	 0.26919
C	 0.9125941453	-0.6700097393	-1.017735948	-0.120167
C	 0.4105069214	-1.8353818756	-1.4263416591	-0.089083
C	-0.8774016036	-2.1621354471	-0.6848649763	-0.125132
C	-0.5066215546	-2.9955578439	 0.5624884398	-0.070624
O	 0.165850069	-2.064636835	 1.4221515216	-0.256503
C	-0.3979178884	-0.799678922	 1.1939878891	 0.057364
C	-1.2663645408	-0.8184118044	-0.0199338797	-0.161541
H	 0.9635619826	 1.9200537668	 0.3370793359	 0.121557
H	-0.277788693	 1.9776870018	-0.9249285348	 0.120964
H	-0.7476045434	 1.87138336	 0.7761934986	 0.115405
H	 1.8713544042	-0.2549396878	-1.3081175069	 0.093942
H	 0.9065864769	-2.5486050448	-2.0748839735	 0.09462
H	-1.6608981462	-2.6265361855	-1.2889018176	 0.07352
H	-1.4060514291	-3.3970438634	 1.0560668175	 0.087484
H	 0.184673805	-3.8178941701	 0.3579852606	 0.107855
H	-0.6581258872	-0.2636228488	 2.1023495203	 0.092148
H	-2.2667691095	-0.4058315358	-0.0713174473	 0.085387
187.485	218.0594	245.6481	282.5019	328.9104	407.3937	555.5744	582.8652	674.5499	718.3327	747.4669	791.1127	799.8146	844.213	872.9143	902.0735	921.3065	935.8248	951.9226	972.1931	991.214	1045.7855	1054.6479	1079.9328	1099.7903	1111.9935	1131.3322	1212.033	1216.1391	1233.5455	1252.3857	1288.4136	1308.7402	1346.6597	1388.1386	1405.9976	1416.6441	1488.6976	1499.0675	1509.2214	1668.5421	2976.6144	3022.84	3079.2492	3083.9068	3091.2747	3095.1171	3145.6794	3178.8624	3183.2618	3208.4955
CC12C=CC3COC1C23	C[C@@]12C=C[C@H]3CO[C@@H]1[C@@H]23	
InChI=1S/C8H10O/c1-8-3-2-5-4-9-7(8)6(5)8/h2-3,5-7H,4H2,1H3	InChI=1S/C8H10O/c1-8-3-2-5-4-9-7(8)6(5)8/h2-3,5-7H,4H2,1H3/t5-,6-,7+,8-/m0/s1
