16
gdb 35493	3.25731	1.54885	1.48818	4.5222	70.77	-0.2704	0.019	0.2894	929.6579	0.126615	-400.727578	-400.720911	-400.719967	-400.758728	26.532	
N	-0.1375578936	-1.1812612033	-0.2311586428	-0.335504
C	-0.0837403888	-0.0351117745	-0.094321212	 0.295774
C	-0.0113068507	 1.4323895162	 0.046499529	-0.068026
O	-0.6303253625	 1.8651391935	 1.2576321361	-0.256525
C	 0.4175433687	 2.3010536786	 2.1262229285	 0.080689
C	 1.410935628	 1.1457235386	 2.4668519979	-0.258886
C	 2.2817463774	 1.6369989728	 1.3069397455	-0.075213
C	 1.5044470031	 2.9473888043	 1.2338249861	-0.09772
C	 1.4218862789	 1.9721280861	 0.1011647814	-0.061221
H	-0.5592614221	 1.8703557092	-0.7968399617	 0.130749
H	-0.0355608726	 2.8580859915	 2.9435020099	 0.095438
H	 1.9028672728	 1.3190859681	 3.4276703675	 0.110638
H	 1.0106667833	 0.1287431821	 2.438635912	 0.127335
H	 3.3466825767	 1.4776675025	 1.1904158779	 0.098785
H	 1.8155446419	 3.9804299526	 1.1663664404	 0.101627
H	 1.9295944597	 2.1774918616	-0.8325983456	 0.11206
107.5548	153.3047	288.3035	387.4582	435.903	512.4053	583.8254	665.2378	699.5505	765.8168	799.9662	833.7278	855.9961	898.5686	910.5419	956.6308	985.694	993.5221	1001.2273	1014.5652	1054.159	1069.3757	1116.2392	1119.655	1156.2703	1205.5789	1228.8664	1279.484	1285.5981	1314.0085	1337.4331	1359.0693	1392.1597	1493.5051	2355.5692	3035.5211	3059.0318	3113.3308	3146.1862	3188.7461	3201.4873	3216.6569
N#CC1OC2CC3C2C13	N#C[C@H]1O[C@H]2C[C@@H]3[C@H]2[C@H]13	
InChI=1S/C7H7NO/c8-2-5-7-3-1-4(9-5)6(3)7/h3-7H,1H2	InChI=1S/C7H7NO/c8-2-5-7-3-1-4(9-5)6(3)7/h3-7H,1H2/t3-,4+,5-,6-,7+/m1/s1
