19
gdb 38703	2.68717	2.10952	1.59363	1.3434	78.87	-0.2182	0.0157	0.234	902.6573	0.162242	-385.862713	-385.856163	-385.855219	-385.893079	28.415	
C	 0.0299649668	 1.5080016295	 0.0715954966	-0.415481
C	 1.3567096618	 0.7842614164	-0.0118586334	 0.099798
O	 2.1342178903	 0.2923639006	 1.0570287125	-0.275367
C	 1.6015871145	-1.0376295712	 1.2714265611	 0.099674
C	 0.1023308095	-0.7504278503	 1.2879334384	-0.265397
C	 0.0668804153	 0.0020524714	-0.0627655615	 0.254588
C	 0.0022124074	-0.9795787784	-1.1850816909	-0.184543
C	 0.9024936996	-1.9644741398	-1.0677511811	-0.048565
C	 1.9023042928	-2.0142685901	 0.0863513739	-0.277095
H	-0.3343845924	 1.8970615464	 1.0167871799	 0.119451
H	-0.2084224408	 2.1280222304	-0.7887679009	 0.115619
H	 1.9195122812	 0.923893154	-0.9300720956	 0.094342
H	 2.0421313964	-1.4046713773	 2.2022930023	 0.074335
H	-0.5355217387	-1.6360961456	 1.2797838079	 0.102572
H	-0.1590166442	-0.1173253983	 2.1395485676	 0.099702
H	-0.7225969407	-0.9306279862	-1.9920612302	 0.089166
H	 0.9403094565	-2.7826887	-1.7820964528	 0.088695
H	 2.918570373	-1.8116841016	-0.2776737669	 0.121395
H	 1.9304219018	-3.0390521598	 0.480645733	 0.107111
195.4025	293.3127	351.8268	384.3381	457.9341	464.3646	507.9196	636.5349	655.1411	715.9198	748.1998	776.914	819.117	860.3217	887.4523	915.1698	926.6726	947.6173	965.6095	996.4337	1013.9369	1027.0239	1046.7535	1063.8759	1094.4929	1123.87	1138.8461	1165.4185	1214.9473	1229.5743	1267.8202	1304.5974	1310.9861	1330.2733	1357.1999	1380.5705	1422.1673	1457.5408	1472.566	1490.0155	1663.7882	3014.3578	3042.9735	3063.4663	3085.6204	3115.7853	3124.5418	3146.503	3154.979	3179.1901	3206.2801
C1C2OC3CC12C=CC3	C1[C@H]2O[C@H]3C[C@@]12C=CC3	
InChI=1S/C8H10O/c1-2-6-4-8(3-1)5-7(8)9-6/h1,3,6-7H,2,4-5H2	InChI=1S/C8H10O/c1-2-6-4-8(3-1)5-7(8)9-6/h1,3,6-7H,2,4-5H2/t6-,7-,8+/m1/s1
