25
gdb 116354	2.14879	1.33353	0.88103	0.215	95.71	-0.2245	0.0341	0.2586	1431.0871	0.230232	-352.389695	-352.379993	-352.379049	-352.423994	37.698	
C	-1.6985894455	-0.2109393601	 0.5858388711	-0.38944
C	-0.2262386018	 0.1379997307	 0.3416833578	-0.182881
C	 0.730624096	-0.3055017575	 1.4721932179	-0.056135
C	 0.6490261163	-1.8264273044	 1.7064983944	-0.196104
C	 1.7821425128	-2.3423041721	 2.5951357857	-0.216637
C	 3.1379745376	-2.0634061943	 1.9393567165	-0.2418
C	 3.2147180183	-0.6502240352	 1.4270810558	-0.153293
C	 2.1648232802	 0.1537142749	 1.2281673413	 0.328555
C	 2.3703923867	 1.5847804662	 0.7946115366	-0.48132
H	-2.0483997769	 0.1988152576	 1.5406717832	 0.111489
H	-2.3306872099	 0.2069459944	-0.2040934208	 0.109687
H	-1.8706858306	-1.2909267731	 0.6054080161	 0.119295
H	 0.1079488184	-0.3123992061	-0.6029952293	 0.094282
H	-0.1483638686	 1.2216986044	 0.2072838458	 0.095849
H	 0.3841030339	 0.200454369	 2.3903455754	 0.071263
H	-0.3209697512	-2.08148492	 2.144718421	 0.092113
H	 0.6961551727	-2.3375608508	 0.7339600445	 0.090632
H	 1.7401656282	-1.8365515165	 3.5685983694	 0.095305
H	 1.6606483269	-3.4135963354	 2.7896446596	 0.086792
H	 3.9533297997	-2.240411331	 2.6522204905	 0.09607
H	 3.3115317143	-2.7734884612	 1.1160031997	 0.101793
H	 4.2123752008	-0.2599290061	 1.2317050233	 0.069285
H	 3.4317935006	 1.8465949756	 0.7992329813	 0.114489
H	 1.9845466071	 1.7751050406	-0.2136363115	 0.124455
H	 1.848291574	 2.2815136304	 1.4638490545	 0.116253
72.7689	98.1126	189.8892	214.1667	223.2798	260.9766	304.2998	317.4568	346.7756	424.6185	437.6267	476.9471	562.5687	638.9267	733.6954	791.036	824.0887	855.2777	884.0562	908.3493	932.9315	984.4037	1013.3934	1023.6024	1051.647	1061.6086	1078.7463	1103.107	1125.6711	1127.8005	1169.8235	1188.2033	1243.1368	1274.8032	1286.3226	1324.5056	1333.5357	1363.8305	1367.4086	1380.2099	1385.015	1392.0163	1411.5877	1414.4176	1478.2385	1478.7269	1488.1613	1491.2853	1496.2189	1498.7225	1502.4334	1510.3844	1729.5675	2946.8149	2988.3256	3005.7271	3015.8448	3018.581	3020.0198	3031.5182	3038.3664	3063.6291	3066.9954	3068.5178	3072.9287	3095.3131	3107.5491	3111.275	3132.4504
CCC1CCCC=C1C	CC[C@H]1CCCC=C1C	
InChI=1S/C9H16/c1-3-9-7-5-4-6-8(9)2/h6,9H,3-5,7H2,1-2H3	InChI=1S/C9H16/c1-3-9-7-5-4-6-8(9)2/h6,9H,3-5,7H2,1-2H3/t9-/m0/s1
