23
gdb 118187	2.38488	0.87625	0.72064	1.8655	83.4	-0.2645	0.0199	0.2844	1704.7269	0.202467	-425.485463	-425.474047	-425.473103	-425.523339	39.767	
C	-0.0193058912	 1.5425841447	 0.0975581926	-0.380841
C	-0.02011401	 0.0135764602	 0.0225672425	-0.171983
C	 0.7235336531	-0.5214596548	-1.2055505095	-0.174711
C	 0.7390220567	-2.0439555711	-1.3095648536	 0.13242
C	 1.4094379096	-2.558627872	-2.5788317409	-0.411949
O	 1.4674921257	-2.5290405343	-0.1481886104	-0.254769
C	 1.1697738302	-3.7674412266	 0.2960010049	 0.432844
C	 2.0023133523	-4.1079552504	 1.5103097524	-0.478009
O	 0.3491061884	-4.4916757719	-0.2104178405	-0.357351
H	 1.002340043	 1.9359101119	 0.1448501551	 0.114576
H	-0.501631878	 1.9846281511	-0.7816184718	 0.112985
H	-0.5537661414	 1.8986150484	 0.9836847622	 0.112645
H	 0.4395530386	-0.4023057543	 0.9258185813	 0.106267
H	-1.0548678032	-0.353498804	 0.0065214381	 0.096036
H	 0.2584556488	-0.1289507537	-2.1190144107	 0.096749
H	 1.7594985015	-0.157380684	-1.2028497801	 0.100277
H	-0.2781377479	-2.443205452	-1.2462122717	 0.105555
H	 1.3925253806	-3.6503814184	-2.6028305879	 0.140192
H	 0.8782040303	-2.1889880493	-3.461444711	 0.118136
H	 2.4479599201	-2.2167957354	-2.6337372661	 0.118999
H	 1.801575523	-3.3940239345	 2.3143254678	 0.147909
H	 1.7640454844	-5.1176243913	 1.8425051059	 0.146442
H	 3.0663928153	-4.0337589283	 1.2691633715	 0.14758
52.3115	60.3591	76.8231	84.9439	128.5652	178.0733	199.4583	241.3564	248.3929	300.2418	335.0412	429.899	477.7356	486.3152	613.1282	637.9448	743.7552	822.9581	875.9461	892.8089	935.9615	964.5782	1001.5183	1032.4816	1045.6251	1063.7769	1069.5573	1146.4274	1149.7659	1196.8306	1265.5539	1272.5771	1301.6198	1330.841	1366.1291	1382.5653	1399.3393	1406.1182	1408.0444	1414.5481	1469.4155	1474.3002	1476.687	1488.7399	1494.2031	1500.3523	1503.5626	1510.6673	1816.7401	3017.0302	3024.9163	3029.4866	3042.4263	3049.9373	3056.646	3066.5107	3075.1321	3097.6248	3102.3022	3113.3019	3121.4101	3133.0465	3168.4397
CCCC(C)OC(C)=O	CCC[C@@H](C)OC(=O)C	
InChI=1S/C7H14O2/c1-4-5-6(2)9-7(3)8/h6H,4-5H2,1-3H3	InChI=1S/C7H14O2/c1-4-5-6(2)9-7(3)8/h6H,4-5H2,1-3H3/t6-/m1/s1
