16
gdb 38223	3.30681	1.82746	1.46939	1.0426	68.3	-0.2509	0.0123	0.2631	885.0472	0.126303	-437.809404	-437.803067	-437.802123	-437.839893	26.034	
C	-0.0422591119	 1.6303496602	 0.0954458846	-0.269129
C	 1.4242675849	 1.1866258826	-0.0058132185	-0.014866
O	 1.124834756	 0.0571184642	 0.9321552733	-0.362407
C	 0.0029578107	 0.0796987992	-0.0429503367	 0.38409
C	-1.1143360869	-0.8719577068	-0.319112	-0.292369
N	-1.4925458945	-0.6653294222	-1.7315121191	-0.27019
C	-0.7616022087	-0.0245984393	-2.5434436889	 0.135136
O	 0.4738946431	 0.5600324059	-2.3858021241	-0.240263
C	 1.0480328398	 0.1951277843	-1.1397855249	 0.098446
H	-0.348475748	 1.9898437099	 1.0778271954	 0.112353
H	-0.4595421927	 2.2100111153	-0.7288807126	 0.119803
H	 2.3470782749	 1.7369830917	 0.1711978313	 0.103479
H	-0.7974500613	-1.9122472677	-0.1793492773	 0.135587
H	-2.0036305637	-0.7125411845	 0.2980768692	 0.125673
H	-1.1006611566	 0.1360311517	-3.5647626933	 0.131914
H	 1.7257306648	-0.6529714345	-1.2530075687	 0.102744
155.8346	278.8782	326.9116	395.1257	451.5843	504.9776	561.8201	598.6906	673.5756	722.2439	812.2797	881.5638	904.9843	917.9994	947.3212	959.59	961.7173	984.3069	1040.6145	1054.6984	1077.304	1101.3887	1125.8823	1158.971	1205.6459	1211.9176	1224.6028	1276.5442	1319.8387	1349.6938	1390.0398	1406.1724	1481.239	1491.2582	1706.9642	3040.7506	3082.3116	3085.2962	3104.9593	3135.8571	3163.8102	3165.5033
C1C2OC11CN=COC21	C1[C@H]2O[C@]31CN=CO[C@@H]23	
InChI=1S/C6H7NO2/c1-4-5-6(1,9-4)2-7-3-8-5/h3-5H,1-2H2	InChI=1S/C6H7NO2/c1-4-5-6(1,9-4)2-7-3-8-5/h3-5H,1-2H2/t4-,5+,6-/m1/s1
