23
gdb 121131	2.98229	0.86402	0.79965	1.0847	82.27	-0.2427	0.0772	0.3199	1567.5773	0.203588	-425.410151	-425.399528	-425.398583	-425.446227	38.592	
C	-0.1525796057	 1.5661986676	-0.0752839864	-0.444603
C	-0.0444603344	 0.0423599712	-0.0219818221	 0.252801
C	-1.3533026114	-0.6194289944	-0.4423458481	-0.455728
C	 1.242995535	-0.4954439594	-0.6993683466	-0.102136
O	 1.85481563	-0.7825800809	 0.5723391484	-0.300251
C	 0.6104295484	-0.5384290973	 1.2725616641	 0.116323
C	 0.7925809505	 0.3007139083	 2.5225769886	-0.201137
C	 1.6575077494	-0.4073506753	 3.5599642195	-0.077092
O	 1.7568924566	 0.443155909	 4.6936039749	-0.424209
H	 0.7943640062	 2.0503538721	 0.1792515591	 0.125275
H	-0.4290080465	 1.8891263882	-1.0854194526	 0.112117
H	-0.9193314786	 1.9389513821	 0.6123821928	 0.117369
H	-1.6351822754	-0.3242755436	-1.459496583	 0.115255
H	-1.2751267603	-1.7111856064	-0.4192278844	 0.115414
H	-2.1735902403	-0.3272962779	 0.223497431	 0.11703
H	 1.095489148	-1.4056060196	-1.2978972293	 0.089745
H	 1.8292825921	 0.223863687	-1.2839887225	 0.097711
H	 0.1434817983	-1.4991157053	 1.5472390284	 0.059205
H	 1.2575646467	 1.2605453604	 2.2788996842	 0.108362
H	-0.1895314928	 0.5124743583	 2.9640681007	 0.103661
H	 1.2012322125	-1.375164481	 3.827217379	 0.08073
H	 2.6447611151	-0.6178870607	 3.1244644205	 0.109367
H	 2.3644150066	 0.0373005076	 5.3186058837	 0.28479
53.0324	86.9695	105.8508	122.5609	209.0948	245.2069	260.0926	267.2731	294.4061	340.4698	357.0916	374.788	475.6688	549.5722	639.3085	792.1224	845.4677	870.3564	923.2737	934.9201	958.167	989.7162	1012.6031	1028.5127	1043.4836	1078.816	1099.6051	1135.8691	1165.0777	1204.0872	1219.215	1228.8825	1260.0739	1275.5164	1301.6627	1317.0121	1325.0289	1366.5235	1402.3636	1411.4803	1424.7137	1461.1111	1476.2574	1486.1006	1489.2966	1503.9014	1508.2918	1527.2224	1529.9512	2953.9828	2964.2268	2996.1402	3016.0707	3023.2245	3030.5041	3038.1847	3048.5971	3087.4139	3093.2848	3094.5647	3097.9148	3111.1758	3831.249
CC1(C)COC1CCO	CC1(C)CO[C@H]1CCO	
InChI=1S/C7H14O2/c1-7(2)5-9-6(7)3-4-8/h6,8H,3-5H2,1-2H3	InChI=1S/C7H14O2/c1-7(2)5-9-6(7)3-4-8/h6,8H,3-5H2,1-2H3/t6-/m0/s1
