19
gdb 71854	3.31302	1.63437	1.35413	1.6273	79.35	-0.2162	0.0092	0.2254	1004.3352	0.160589	-385.866672	-385.859276	-385.858332	-385.898057	30.082	
C	-0.1129390595	 1.5503056061	-0.0525944788	-0.495436
C	-0.1017841308	 0.058614569	 0.0130394987	 0.463477
O	 0.7610836159	-0.6318873739	-0.89973366	-0.34121
C	-0.1981923351	-1.7480939614	-0.9830129214	 0.054748
C	 0.3693752075	-3.0234439641	-0.4308038197	-0.054518
C	 0.7387780563	-3.0573110692	 0.8487607273	-0.053839
C	 0.6032697837	-1.8613198838	 1.7575915428	-0.285384
C	-0.359263893	-0.7929094023	 1.2350167284	-0.107008
C	-1.1575522987	-1.013413849	-0.0360733218	-0.222355
H	 0.8665560972	 1.954893285	 0.2276735985	 0.129861
H	-0.3433677427	 1.8946966995	-1.0657794285	 0.127069
H	-0.8575358733	 1.9617042765	 0.6350109801	 0.121221
H	-0.5568436948	-1.8429650961	-2.0106352802	 0.078208
H	 0.4753154861	-3.8864918713	-1.0799756124	 0.087962
H	 1.1602291871	-3.9600873465	 1.2831793886	 0.091986
H	 0.2667816925	-2.2024274336	 2.7450504747	 0.104692
H	 1.5956803813	-1.418645013	 1.9228409526	 0.123516
H	-0.9162432519	-0.2648860482	 2.005108272	 0.085676
H	-2.2365895478	-0.9852444936	-0.109432661	 0.091332
159.4694	194.7679	207.3357	253.4237	336.1369	464.1176	473.0956	516.9529	643.4794	655.838	698.4661	729.6528	756.0097	874.0545	896.875	902.6897	923.2461	934.6957	960.7079	982.1799	988.9989	998.9279	1031.0039	1070.6085	1111.6335	1113.3702	1171.033	1195.5775	1230.4873	1248.721	1280.8499	1297.5856	1344.317	1359.9578	1405.4441	1409.6827	1465.2295	1473.2975	1479.4286	1502.5061	1707.4673	3008.2296	3030.937	3036.6696	3077.5434	3093.7924	3114.306	3141.4687	3156.6515	3185.9192	3195.4292
CC12OC3C=CCC1C23	C[C@@]12O[C@H]3C=CC[C@@H]1[C@@H]23	
InChI=1S/C8H10O/c1-8-5-3-2-4-6(9-8)7(5)8/h2,4-7H,3H2,1H3	InChI=1S/C8H10O/c1-8-5-3-2-4-6(9-8)7(5)8/h2,4-7H,3H2,1H3/t5-,6+,7-,8-/m1/s1
