16
gdb 124941	3.11914	1.3255	0.94101	3.1962	74.21	-0.2585	-0.0656	0.1928	1196.798	0.122627	-437.90828	-437.899354	-437.89841	-437.942439	31.044	
C	-0.0239426886	 1.4987479533	 0.0886126248	-0.494292
C	-0.0629390672	 0.0215505986	-0.0721245379	 0.372952
C	-1.0257826068	-0.9265686678	 0.1065925116	-0.035527
C	-2.4447490312	-0.7734018165	 0.5504952089	-0.499155
C	-0.3430048088	-2.1356451614	-0.2395485819	 0.249731
C	-0.8474214616	-3.5194804466	-0.2493776213	 0.092115
O	-1.9781887392	-3.8214916555	 0.0551630501	-0.272122
N	 0.9086413875	-1.920755427	-0.590427615	-0.187624
O	 1.0896432652	-0.5649020692	-0.4867214204	-0.208736
H	 0.7320718433	 1.7934840467	 0.8237261759	 0.154855
H	 0.2260049024	 1.9899447803	-0.8574496464	 0.154848
H	-0.9942473113	 1.8691765738	 0.4240296984	 0.145885
H	-3.1380535718	-1.1518981187	-0.2061886757	 0.150395
H	-2.6372976091	-1.3468398614	 1.4618647741	 0.150406
H	-2.6865290213	 0.2746683372	 0.7455769119	 0.11928
H	-0.0964893515	-4.2719842857	-0.5627453472	 0.106989
82.1551	97.0949	115.0505	170.7926	191.1748	262.9989	287.9551	349.6584	391.62	492.0207	648.3106	655.595	686.5532	704.6292	814.7904	963.3888	969.8823	1025.2547	1038.2677	1060.1041	1074.0425	1137.1973	1212.0234	1294.2216	1395.076	1412.6315	1427.4063	1466.8129	1472.9392	1478.3177	1483.2607	1492.0519	1507.6635	1670.3572	1798.6815	2939.6071	3043.6174	3046.6928	3100.1967	3106.7457	3120.5093	3139.7861
CC1=C(C)C(C=O)=NO1	Cc1c(C)c(C=O)no1	
InChI=1S/C6H7NO2/c1-4-5(2)9-7-6(4)3-8/h3H,1-2H3	InChI=1S/C6H7NO2/c1-4-5(2)9-7-6(4)3-8/h3H,1-2H3
