18
gdb 45252	2.85472	1.8	1.32457	3.7305	74.93	-0.2388	0.0152	0.254	977.6728	0.150354	-401.959416	-401.952455	-401.951511	-401.990861	28.041	
O	-0.058559657	-0.0462103553	 0.1769819006	-0.341709
C	-0.0942108663	 1.1473721127	 0.0741269825	 0.398716
C	-1.1960797319	 2.2282653346	-0.0347184761	-0.401949
C	-0.0440848746	 3.2428765631	 0.2010760625	 0.037208
C	 0.2074518428	 3.8358137561	 1.6101421542	-0.272062
C	 1.5956247966	 3.307495624	 2.0142451056	-0.024495
C	 1.720555663	 1.8688847507	 2.4593006896	-0.290851
C	 2.0148464718	 2.2332247725	 1.0256982446	-0.027241
N	 0.920015868	 2.1154307381	 0.0972356492	-0.093975
H	-1.6987956807	 2.2857295805	-1.00192368	 0.132172
H	-1.9431032405	 2.1664032162	 0.759609218	 0.131134
H	 0.0836922019	 3.99275195	-0.5848905176	 0.085764
H	 0.1931270487	 4.9286919085	 1.5940482696	 0.110549
H	-0.5627472731	 3.5138959175	 2.3199244249	 0.110288
H	 2.3265606048	 4.0171717476	 2.3836924746	 0.095001
H	 2.5648166049	 1.6106968045	 3.0898967323	 0.118133
H	 0.8216814042	 1.295676794	 2.6600358648	 0.129759
H	 3.0223331074	 2.1678492247	 0.6315004307	 0.103558
103.4882	133.7256	303.5982	341.7921	418.3346	469.1056	570.3863	614.7749	653.2347	699.0668	775.9327	813.259	820.2176	841.2597	889.0721	920.6912	973.4179	1011.9511	1022.4327	1041.8746	1054.5445	1069.2432	1099.5415	1109.9298	1119.2501	1142.4347	1195.4177	1213.5674	1227.2981	1243.2931	1284.2084	1314.2194	1334.8503	1362.2897	1373.9388	1454.269	1482.2932	1497.0367	1882.4313	3043.4724	3059.0714	3081.0909	3096.9738	3132.4571	3137.4433	3170.0679	3180.0075	3219.5948
O=C1CC2CC3CC3N12	O=C1C[C@H]2C[C@H]3C[C@H]3N12	
InChI=1S/C7H9NO/c9-7-3-5-1-4-2-6(4)8(5)7/h4-6H,1-3H2	InChI=1S/C7H9NO/c9-7-3-5-1-4-2-6(4)8(5)7/h4-6H,1-3H2/t4-,5+,6+/m0/s1
