17
gdb 83727	2.5842	1.78576	1.2643	4.9953	68.95	-0.2452	0.0193	0.2645	997.0204	0.138385	-455.130024	-455.122548	-455.121604	-455.162389	28.985	
O	 0.0702385113	 1.3713789026	 0.2093496651	-0.416146
C	 0.0345489322	-0.0190276339	 0.0614703429	 0.0674
C	-1.3892562227	-0.5822637841	-0.0377427986	-0.06128
N	-2.2351848037	 0.2664747448	-0.9198110731	-0.331035
C	-2.4596013841	-0.8697304011	-1.8567974367	-0.186663
C	-1.3389383302	-1.6590444725	-1.1446236531	 0.086515
O	-0.0627858056	-1.5471072895	-1.7750815758	-0.249972
C	 0.690173051	-0.5372681621	-1.2265267705	 0.344908
N	 1.7726998226	-0.1140032455	-1.7094682159	-0.513346
H	-0.5289395806	 1.7125485862	-0.4711625329	 0.284804
H	 0.5695300617	-0.445683694	 0.9170631701	 0.114468
H	-1.8319055783	-0.8640860704	 0.9200572128	 0.078493
H	-3.0713383833	 0.6376892077	-0.4861293355	 0.232651
H	-3.4381030554	-1.3542864205	-1.7543171054	 0.105519
H	-2.2812999495	-0.6310441663	-2.9094365383	 0.122678
H	-1.5219829232	-2.7077402793	-0.9116532572	 0.098409
H	 1.9964379875	-0.603088082	-2.5784256779	 0.222596
62.8716	118.2854	249.9476	279.6042	381.1092	446.1485	467.8197	517.5622	603.0698	632.8601	715.7156	748.9581	810.0821	843.741	887.9472	902.8454	944.3745	966.8284	997.3892	1027.252	1057.9141	1084.392	1121.1006	1135.5137	1159.2534	1225.4245	1233.9486	1252.2104	1271.776	1303.567	1329.1102	1349.3002	1378.946	1381.8433	1448.4446	1502.9247	1783.0219	3026.7384	3057.0917	3083.3061	3088.7818	3115.9864	3467.0796	3555.9763	3726.0987
OC1C2NCC2OC1=N	O[C@H]1[C@H]2NC[C@H]2O[C]1[NH]	
InChI=1S/C5H8N2O2/c6-5-4(8)3-2(9-5)1-7-3/h2-4,6-8H,1H2	InChI=1S/C5H8N2O2/c6-5-4(8)3-2(9-5)1-7-3/h2-4,6-8H,1H2/t2-,3+,4+/m1/s1
