15
gdb 21653	6.69838	1.21713	1.06317	2.3059	64.31	-0.2008	0.0234	0.2242	1065.0681	0.121111	-395.994208	-395.986485	-395.98554	-396.026388	28.481	
N	-0.4238229313	 1.3327550319	 0.4002868215	-0.588499
C	 0.0081397546	 0.0303406322	 0.1463011719	 0.379995
N	-0.6784648081	-0.767754547	-0.6671563982	-0.307229
N	-0.0224310299	-1.953896474	-0.594252596	-0.240256
C	 1.0655156851	-1.9159368246	 0.2086398415	 0.356598
C	 1.9095834489	-3.1348353546	 0.4213383625	-0.175527
O	 1.995776591	-3.9397112713	-0.7496840791	-0.414619
C	 1.1239519314	-0.6332750814	 0.7184049969	-0.400005
H	 0.3336491553	 1.9989880384	 0.4674388038	 0.243324
H	-1.1016214832	 1.6366590784	-0.2873339326	 0.248713
H	-0.3228292378	-2.7317316092	-1.1556756614	 0.272357
H	 2.899255434	-2.8355805072	 0.7940128223	 0.10979
H	 1.4654758946	-3.7884589937	 1.1812713922	 0.133401
H	 2.4221150727	-3.4112146441	-1.433266748	 0.287497
H	 1.8493123729	-0.2388065936	 1.4119218328	 0.09446
61.7377	150.102	224.9924	265.7511	320.0163	355.4051	372.1969	477.1906	506.6429	633.2243	678.0643	705.61	757.2952	769.5505	799.0947	975.5956	998.0299	1032.0437	1067.0457	1095.3325	1173.9635	1196.1649	1213.8623	1309.7896	1359.7916	1409.5533	1454.1031	1497.0509	1514.1437	1532.8797	1612.2378	1648.4238	3008.3581	3056.6721	3258.3785	3542.2679	3638.1618	3686.0853	3804.746
NC1=NNC(CO)=C1	Nc1n[nH]c(CO)c1	
InChI=1S/C4H7N3O/c5-4-1-3(2-8)6-7-4/h1,8H,2H2,(H3,5,6,7)	InChI=1S/C4H7N3O/c5-4-1-3(2-8)6-7-4/h1,8H,2H2,(H3,5,6,7)
