22
gdb 82642	2.36959	1.67991	1.31467	1.6508	86.23	-0.2257	0.0863	0.312	1112.3312	0.193496	-367.166767	-367.157638	-367.156694	-367.199828	35.4	
C	 0.0578943016	 1.6655423227	 0.0073403479	-0.433944
C	 0.0709283086	 0.1412446218	-0.0040907153	-0.016196
C	 1.069825924	-0.6602154925	-0.8916404002	-0.151147
C	 2.4447141512	-0.2408888882	-0.3575134209	-0.158308
N	 2.1279392797	-0.8925024218	 0.9537833189	-0.230637
C	 0.6389367971	-0.6700738251	 1.1672029196	 0.288615
C	 0.1419615701	-0.7256390142	 2.5780177963	-0.504161
C	 1.1099493192	-1.7476986666	 0.2607896915	 0.311416
C	 1.07040119	-3.2375848249	 0.2899892978	-0.53311
H	 1.0331215697	 2.0906542127	 0.2597745252	 0.121612
H	-0.2397332166	 2.0612718336	-0.9703729529	 0.114066
H	-0.6612192452	 2.039500235	 0.74450962	 0.116841
H	-0.9409682487	-0.2326237108	-0.2039150414	 0.07033
H	 0.8691132806	-0.8167618848	-1.9512551215	 0.063713
H	 3.2687416357	-0.7910605148	-0.8207887846	 0.102454
H	 2.7017827363	 0.8232767436	-0.3141858834	 0.091329
H	 0.3006557348	 0.2310017014	 3.0887868321	 0.123787
H	-0.9300928508	-0.950431648	 2.6085201451	 0.113637
H	 0.6737090672	-1.4941027087	 3.145570834	 0.130404
H	 0.1139463565	-3.6173303027	-0.0866834219	 0.121167
H	 1.8682920385	-3.6722735963	-0.3229173574	 0.125078
H	 1.2016760006	-3.5987837816	 1.3147566012	 0.133055
153.9346	178.4058	182.1677	187.2035	196.2999	213.9933	303.176	316.1494	353.9746	500.217	564.0466	608.3247	652.7969	675.7402	752.195	785.708	824.8392	889.1079	928.2731	954.82	991.8615	1016.1947	1042.8544	1073.2492	1083.7397	1102.8915	1126.1203	1139.4845	1151.3097	1167.686	1188.7547	1223.1652	1272.4812	1304.8492	1321.7814	1382.582	1407.2482	1409.4104	1411.7877	1470.2397	1479.3617	1487.7847	1490.0055	1494.5138	1496.3372	1505.719	1519.8659	3025.1199	3027.5171	3028.7227	3031.8956	3038.7622	3084.8173	3087.2227	3090.2092	3090.7342	3104.1058	3112.4402	3113.9874	3116.7761
CC1C2CN3C1(C)C23C	C[C@H]1[C@H]2CN3[C@]1(C)[C@@]23C	
InChI=1S/C8H13N/c1-5-6-4-9-7(5,2)8(6,9)3/h5-6H,4H2,1-3H3	InChI=1S/C8H13N/c1-5-6-4-9-7(5,2)8(6,9)3/h5-6H,4H2,1-3H3/t5-,6+,7-,8+,9?/m0/s1
