18
gdb 107892	2.39285	1.81859	1.22964	2.8372	71.89	-0.2512	0.0596	0.3108	1038.6639	0.147175	-438.970865	-438.962869	-438.961925	-439.003451	30.739	
C	 0.0435257875	 1.3847270918	-0.0453162593	-0.270437
O	 0.0400200429	-0.0340342358	 0.0390605339	-0.297968
C	 0.6624401379	-0.5311926852	 1.1712199295	 0.366339
C	 0.3808125977	-0.3424943354	 2.6599121761	-0.247685
N	 1.5277042078	-1.3543706908	 2.6758005056	-0.160365
C	 0.9535322021	-2.0356634885	 1.4054853444	-0.118639
C	 2.3253471011	-1.9734649246	 0.7135717133	 0.154908
O	 2.3888585815	-1.9632523945	-0.6828674838	-0.449745
C	 2.2012048833	-0.6427247193	 1.4785521704	-0.129899
H	 1.0667505492	 1.7834442789	-0.0691275538	 0.119356
H	-0.4670121243	 1.6507928832	-0.9725088663	 0.136961
H	-0.4918277678	 1.835974236	 0.8001974456	 0.12242
H	 0.641183206	 0.6096304764	 3.1320236436	 0.105498
H	-0.5548480254	-0.7397472636	 3.0652390876	 0.109133
H	 0.2266714671	-2.84468092	 1.4925804252	 0.087056
H	 3.0820380735	-2.6695934327	 1.082354157	 0.100618
H	 1.6802082716	-1.39069307	-1.0038914528	 0.289439
H	 2.9234478685	 0.1570625142	 1.6493871936	 0.083011
82.6804	154.4349	178.3599	217.1084	285.0443	390.2128	438.5395	463.0604	497.5889	540.3804	648.5462	743.2029	808.5903	851.3924	877.3499	907.414	913.2411	938.185	1038.6117	1059.7455	1076.7546	1089.8149	1098.7917	1122.9677	1128.8013	1180.0353	1183.3382	1194.7849	1217.1092	1238.1431	1242.3263	1258.4013	1322.3112	1331.7724	1452.2557	1482.3002	1490.6286	1505.4488	1520.1248	3002.1181	3044.4319	3060.4875	3094.7427	3105.8407	3107.8447	3114.0406	3132.4964	3770.5237
COC12CN3C1C(O)C23	CO[C@@]12CN3[C@@H]1[C@@H](O)[C@@H]23	
InChI=1S/C6H9NO2/c1-9-6-2-7-4(6)3(8)5(6)7/h3-5,8H,2H2,1H3	InChI=1S/C6H9NO2/c1-9-6-2-7-4(6)3(8)5(6)7/h3-5,8H,2H2,1H3/t3-,4-,5+,6+
