17
gdb 72333	2.65398	2.04355	1.63728	2.0267	72.86	-0.2286	-0.0094	0.2192	878.782	0.136193	-421.739219	-421.732344	-421.7314	-421.769843	29.054	
O	 0.2312879817	 1.4139719838	 0.1223941804	-0.477373
C	 0.0917255541	 0.0239120695	 0.0037505564	 0.415367
C	 0.6495218098	-0.5458872545	-1.3195637208	-0.376837
C	-0.6366879077	-0.7412338897	-2.131885005	-0.064634
C	-1.752726009	-0.7666247262	-1.3829402875	-0.231616
C	-1.3152993827	-0.6245203165	 0.0286845082	 0.352483
C	-1.53665237	-0.1234835153	 1.4733519498	-0.318403
C	-0.0892970843	-0.7222593524	 1.3536394875	-0.01065
O	-0.6541670267	-1.8545713343	 0.6185459208	-0.349519
H	-0.0255141336	 1.8156121336	-0.715860537	 0.28319
H	 1.3646655582	 0.1330390659	-1.7947889206	 0.10285
H	 1.1447530148	-1.5107055814	-1.180034746	 0.144405
H	-0.6157104733	-0.9030219774	-3.205011973	 0.105185
H	-2.7602356969	-0.9342584951	-1.7406490941	 0.111249
H	-1.64076667	 0.9507156114	 1.6234890886	 0.115961
H	-2.2133093733	-0.7234210447	 2.0820027478	 0.107675
H	 0.6246674488	-0.9379437867	 2.1500849845	 0.090667
205.0712	275.8785	296.2672	345.4037	400.8945	438.0119	501.6472	541.0623	618.5254	631.3206	678.6905	762.0922	775.4374	809.9918	856.0589	892.4748	907.8993	936.3804	966.5949	984.382	1003.2601	1037.225	1088.9264	1108.6937	1134.4514	1144.3212	1188.4216	1210.5313	1211.4569	1235.3196	1269.4929	1300.7545	1373.7988	1382.0991	1459.0994	1477.3675	1613.2762	3055.8916	3087.7582	3101.8814	3108.2463	3170.2679	3184.3693	3221.3437	3789.4477
OC12CC=CC11CC2O1	O[C@]12CC=C[C@@]31C[C@H]2O3	
InChI=1S/C7H8O2/c8-7-3-1-2-6(7)4-5(7)9-6/h1-2,5,8H,3-4H2	InChI=1S/C7H8O2/c8-7-3-1-2-6(7)4-5(7)9-6/h1-2,5,8H,3-4H2/t5-,6+,7+/m1/s1
