17
gdb 50575	3.60086	1.20778	0.99184	3.1469	68.17	-0.2597	-0.0334	0.2263	1163.1139	0.135542	-458.950569	-458.942708	-458.941764	-458.98363	29.128	
O	-0.8674131004	 1.0587460891	 0.3525233048	-0.243686
C	 0.2558106413	 0.7105410359	 0.1009599085	 0.137699
C	 1.4398710173	 1.6626401208	 0.0254582337	 0.0291
C	 1.3304537366	 2.8402756003	 1.0031908261	-0.234554
C	 2.6642811819	 3.5522821657	 1.1416183552	 0.024521
O	 3.619642494	 2.9315458661	 2.0125659867	-0.242678
C	 3.8883146379	 2.924897837	 0.6155232141	 0.041927
C	 3.7920007433	 1.58200663	-0.0759531488	-0.116283
O	 2.6020061612	 0.8862794125	 0.2409843164	-0.257373
H	 0.5227218737	-0.3471902165	-0.1127505726	 0.098688
H	 1.4504201192	 2.0573060468	-1.0103963235	 0.091967
H	 0.5604973464	 3.5306838639	 0.6488237156	 0.121191
H	 1.0133937183	 2.4810217722	 1.9872882517	 0.133743
H	 2.6296162785	 4.6372067052	 1.2336101908	 0.098761
H	 4.7242672333	 3.5492979554	 0.2964436922	 0.095235
H	 3.8699567184	 1.7429293656	-1.1657276397	 0.094489
H	 4.6172838593	 0.93235543	 0.2319069386	 0.127255
58.6387	110.2282	189.2654	217.7913	335.8535	360.3075	425.6479	436.7938	537.7673	613.8233	745.5718	778.1336	808.7705	861.2021	888.9581	936.7555	977.4032	1027.4043	1051.3409	1075.838	1092.8878	1119.9913	1159.1092	1169.4268	1239.8657	1274.0528	1289.1415	1306.5773	1352.3725	1367.5637	1373.9296	1396.8823	1410.7772	1466.149	1474.5688	1484.0424	1839.4535	2903.8292	2910.486	2958.1152	3060.9667	3081.4696	3100.0142	3106.5104	3120.5665
O=CC1CC2OC2CO1	O=C[C@H]1C[C@H]2O[C@H]2CO1	
InChI=1S/C6H8O3/c7-2-4-1-5-6(9-5)3-8-4/h2,4-6H,1,3H2	InChI=1S/C6H8O3/c7-2-4-1-5-6(9-5)3-8-4/h2,4-6H,1,3H2/t4-,5-,6+/m1/s1
