23
gdb 113886	3.8218	0.69962	0.68307	2.7782	87.37	-0.2352	-0.007	0.2283	1785.2361	0.203318	-388.305921	-388.295133	-388.294189	-388.343561	38.42	
C	 0.0507909429	 1.4619945204	-0.396621693	-0.374894
C	-0.179324441	 0.1709404087	 0.3982183386	-0.192484
C	-1.4027615811	-0.588051016	-0.0754258066	-0.001997
C	-1.320424986	-1.5592741247	-1.2302862641	-0.291812
C	-1.6133380595	-2.0660058181	 0.1648478669	-0.010741
C	-0.621176794	-2.9338314677	 0.9290287605	-0.311179
C	-0.8963943258	-4.4097084237	 0.6398273603	 0.386823
C	-0.1447210476	-5.0308919307	-0.5228832449	-0.479204
O	-1.698505863	-5.0344690392	 1.294695685	-0.304062
H	 0.9341586848	 1.9981303533	-0.0362283754	 0.110957
H	 0.1950718704	 1.2474830479	-1.4606579372	 0.118039
H	-0.80769918	 2.1369170378	-0.3093652067	 0.115293
H	 0.7106824885	-0.4638315036	 0.3194331086	 0.093254
H	-0.2881802348	 0.4123422211	 1.4638367182	 0.099489
H	-2.3154709655	 0.0032568998	-0.0326032929	 0.083902
H	-2.1097133215	-1.5750669672	-1.9738830965	 0.112719
H	-0.3300204246	-1.7536711893	-1.6335167951	 0.105659
H	-2.6434657477	-2.3570161457	 0.3529313913	 0.101131
H	 0.4067913597	-2.6764886531	 0.655822564	 0.097675
H	-0.7449195162	-2.7812539578	 2.0061326745	 0.121146
H	 0.9279954649	-5.0612992041	-0.2969798895	 0.137498
H	-0.5065193265	-6.0432386418	-0.7067278476	 0.139452
H	-0.2619129464	-4.4192141262	-1.4239106485	 0.143338
23.2984	51.7921	92.7458	107.5213	146.2933	176.7533	222.2555	262.0947	325.1219	370.1742	424.677	499.0385	537.8956	596.2412	754.95	794.7432	798.8144	821.1535	863.1949	881.2557	936.8125	952.6171	979.4117	1031.8452	1042.9333	1062.1687	1075.1054	1117.4331	1138.334	1155.4624	1195.9763	1201.2908	1246.2271	1263.6612	1297.7819	1302.7446	1342.6014	1378.6218	1393.3586	1411.4965	1430.1841	1461.6346	1472.9202	1477.4158	1482.8129	1495.8173	1499.201	1507.8108	1814.0657	3019.3084	3032.3814	3033.711	3044.1082	3057.2433	3095.2611	3097.2955	3100.9233	3105.762	3119.1718	3122.067	3144.1635	3151.5684	3205.427
CCC1CC1CC(C)=O	CC[C@H]1C[C@H]1CC(=O)C	
InChI=1S/C8H14O/c1-3-7-5-8(7)4-6(2)9/h7-8H,3-5H2,1-2H3	InChI=1S/C8H14O/c1-3-7-5-8(7)4-6(2)9/h7-8H,3-5H2,1-2H3/t7-,8+/m0/s1
