19
gdb 38696	2.51934	2.19582	2.08737	2.0522	71.95	-0.2468	0.0829	0.3297	828.18	0.165065	-423.055227	-423.049509	-423.048565	-423.084883	25.791	
C	-0.0113001242	 1.5708696479	-0.0037195348	-0.224519
C	 1.5035359199	 1.8296448803	 0.0019695444	 0.108425
C	 1.9378955257	 0.964819778	-1.1946243097	-0.219507
C	 1.3350738936	-0.3698632833	-0.7287668742	 0.08466
O	 2.2276877674	-0.8404546168	 0.297884825	-0.264781
C	 1.8394602653	-0.0736333781	 1.4213486658	 0.198914
C	 0.3368730278	-0.3666263067	 1.4849725337	-0.230242
C	-0.00537083	 0.0244181204	 0.0337321409	-0.075402
O	 2.0934604431	 1.3114162577	 1.2132604542	-0.295599
H	-0.5280991171	 2.0120421506	 0.8514446835	 0.101072
H	-0.4573721575	 1.9722658942	-0.919450981	 0.095357
H	 1.7962152875	 2.8796937711	-0.0461920348	 0.075657
H	 1.4933311272	 1.3415647439	-2.1215910719	 0.09232
H	 3.0188874106	 0.8831727405	-1.3149492749	 0.111858
H	 1.2345689363	-1.1479673072	-1.4856569203	 0.077101
H	 2.4411227285	-0.3730518069	 2.2801011599	 0.087298
H	 0.1860772774	-1.4292832909	 1.691113773	 0.104662
H	-0.1999051717	 0.2264046142	 2.2278381695	 0.10198
H	-0.89962195	-0.4496540888	-0.3696057983	 0.070744
317.8454	388.1455	421.79	475.4159	515.7378	561.4549	585.7043	735.3056	799.4947	800.9642	842.2001	852.7012	873.6981	906.4839	914.6665	921.5974	948.7137	960.7454	982.6546	1002.7975	1028.8242	1039.8344	1090.4692	1106.4997	1141.4594	1169.2514	1192.5958	1227.5561	1232.4452	1260.0069	1292.954	1302.5611	1320.8812	1333.2095	1344.6187	1349.9074	1370.0608	1398.3036	1472.7238	1484.4091	1505.6396	3048.852	3057.9945	3067.3398	3103.1348	3105.3067	3107.1754	3116.422	3123.2632	3123.709	3129.4673
C1C2CC3OC(CC13)O2	C1[C@@H]2C[C@H]3O[C@H](C[C@@H]13)O2	
InChI=1S/C7H10O2/c1-4-2-7-8-5(1)3-6(4)9-7/h4-7H,1-3H2	InChI=1S/C7H10O2/c1-4-2-7-8-5(1)3-6(4)9-7/h4-7H,1-3H2/t4-,5-,6-,7-/m1/s1
