19
gdb 50594	3.14003	1.2655	1.03268	2.3355	75.35	-0.25	-0.0284	0.2215	1171.8992	0.160167	-423.026502	-423.018459	-423.017515	-423.060114	30.076	
O	 0.0988291841	-0.1120383799	-0.2656128634	-0.247893
C	 0.0566770011	 1.0868530689	-0.1522781014	 0.144777
C	 1.2679744775	 1.9799274301	-0.0598844226	-0.08731
C	 1.3086935336	 3.0959775667	-1.1273267728	-0.118071
O	 2.217436968	 4.0631678842	-0.6250963884	-0.253282
C	 2.1044176957	 4.1114915678	 0.7865721674	 0.112484
C	 0.9283358111	 4.9630193811	 1.3416235663	-0.237525
C	 0.1523065076	 3.6643853965	 1.6996730881	-0.248351
C	 1.3755975647	 2.8038899783	 1.2415904043	-0.067418
H	-0.9218286819	 1.6174040925	-0.1124702191	 0.074369
H	 2.1535129473	 1.3458431123	-0.1581524824	 0.102793
H	 1.6797648565	 2.753383466	-2.0961877071	 0.125639
H	 0.3047397494	 3.5269040385	-1.2769604405	 0.094397
H	 3.09607875	 4.3324418049	 1.1877230671	 0.083884
H	 1.2016823705	 5.5733348715	 2.2055892667	 0.106468
H	 0.4649138601	 5.6098430935	 0.5929808071	 0.111346
H	-0.0959248283	 3.549419299	 2.7564883535	 0.111261
H	-0.765456063	 3.5168898514	 1.1261958194	 0.105198
H	 1.8460488059	 2.2351682766	 2.044075018	 0.087236
55.747	63.6831	156.7654	230.6823	302.0932	386.95	413.2712	448.1712	630.5273	663.7922	733.0518	752.7346	835.5994	862.8184	895.9546	933.9603	959.9644	969.042	997.9795	1030.4398	1047.0878	1077.0098	1114.9023	1140.3954	1147.4658	1207.2498	1219.6405	1242.5878	1248.4958	1270.705	1274.4714	1287.2617	1304.3761	1334.4019	1355.3531	1391.2071	1433.7158	1469.7999	1490.6913	1519.8402	1825.1723	2868.7265	2967.8449	3064.9547	3072.243	3075.7799	3082.3248	3100.1074	3105.2702	3112.9642	3129.8581
O=CC1COC2CCC12	O=C[C@H]1CO[C@H]2CC[C@@H]12	
InChI=1S/C7H10O2/c8-3-5-4-9-7-2-1-6(5)7/h3,5-7H,1-2,4H2	InChI=1S/C7H10O2/c8-3-5-4-9-7-2-1-6(5)7/h3,5-7H,1-2,4H2/t5-,6-,7-/m0/s1
