21
gdb 104678	2.2864	1.64258	1.18371	2.2444	78.37	-0.2492	0.0805	0.3297	1125.8937	0.182618	-424.153226	-424.144479	-424.143535	-424.186614	33.885	
C	 0.7181373371	 1.2948776448	 0.1931646671	-0.257211
O	-0.0447138797	 0.1774928085	-0.2249505287	-0.318589
C	 0.4685370354	-0.5231708811	-1.3597589039	 0.44111
C	-0.0292988406	 0.2228287875	-2.5976047691	-0.133126
O	-1.4378381235	 0.3594366599	-2.554132885	-0.42351
C	 1.9173839498	-1.1082564633	-1.2582309393	-0.12447
C	 1.3760314405	-2.0380579025	-0.125053052	-0.231809
C	 0.2877428504	-2.0674740841	-1.2425426344	-0.09019
C	 1.4634613293	-2.2201024274	-2.2507425279	-0.244817
H	 1.7164618578	 0.9932631491	 0.5380494243	 0.115716
H	 0.836296013	 2.0467124314	-0.5989157867	 0.114792
H	 0.1804955364	 1.7507526807	 1.0281822062	 0.129141
H	 0.4659962741	 1.2073977613	-2.6522153435	 0.07978
H	 0.2090496355	-0.301065345	-3.5240579384	 0.109298
H	-1.6414788767	 0.5904063505	-1.6388749397	 0.285515
H	 2.8601202443	-0.5589223466	-1.2760180707	 0.07055
H	 1.9305550433	-2.9673671089	 0.0241860908	 0.090325
H	 1.0980599473	-1.5734713791	 0.8186951499	 0.109719
H	-0.658503148	-2.6079460147	-1.2382023703	 0.081456
H	 1.2973592203	-1.9528663964	-3.293784583	 0.098378
H	 2.0190254441	-3.1572949445	-2.1764923457	 0.097941
78.4937	115.7211	162.0486	190.774	249.1408	327.0623	370.6125	427.948	473.9947	489.6382	554.9069	595.0154	699.332	800.4371	804.37	881.6667	900.4287	901.4061	975.7157	989.5414	1016.6804	1043.6401	1071.7844	1080.5666	1092.9839	1097.2421	1106.1674	1146.9639	1182.4319	1186.7535	1187.5617	1197.2073	1221.92	1228.0775	1247.9479	1249.8955	1299.8524	1362.1928	1441.0411	1478.2974	1489.1196	1497.0055	1507.1629	1515.7407	1544.5109	2955.721	2998.7375	3052.1764	3073.6602	3075.2659	3099.0993	3111.7752	3114.8486	3120.7684	3145.3467	3159.5691	3771.9015
COC1(CO)C2CC1C2	CO[C@@]1(CO)[C@H]2C[C@@H]1C2	
InChI=1S/C7H12O2/c1-9-7(4-8)5-2-6(7)3-5/h5-6,8H,2-4H2,1H3	InChI=1S/C7H12O2/c1-9-7(4-8)5-2-6(7)3-5/h5-6,8H,2-4H2,1H3/t5-,6+,7-
