18
gdb 61314	5.46521	0.72656	0.67751	6.8075	73.32	-0.276	0.0339	0.3098	1607.6033	0.146439	-439.074836	-439.065538	-439.064593	-439.109828	33.309	
O	 0.5344267689	 1.3318403596	 0.1549387628	-0.437937
C	 0.0888918678	-0.0015679036	 0.0435136778	 0.147001
C	 0.6488875961	-0.542968506	-1.2832211317	-0.345342
C	 0.1409945215	 0.1810202134	-2.4463953981	 0.273567
N	-0.2721878964	 0.7298981921	-3.374997363	-0.306834
C	 0.5683104849	-0.8504506753	 1.2350010226	-0.263835
C	-0.1349714398	-0.4550895088	 2.5149373031	 0.073627
C	 0.5897686963	-0.0921850452	 3.7387701381	-0.175896
O	 0.0052580118	 0.9226273864	 2.9154525436	-0.242655
H	 0.3918999314	 1.61370877	 1.0687269152	 0.304249
H	-1.0125284576	-0.0466822543	-0.0060468595	 0.085851
H	 1.7413830006	-0.4624128345	-1.264704828	 0.156186
H	 0.3925241839	-1.602006715	-1.3948349472	 0.144155
H	 0.3784982737	-1.9144392769	 1.0489478889	 0.108668
H	 1.6509861418	-0.7148395794	 1.3376551574	 0.114028
H	-1.1563285388	-0.822397787	 2.6211299646	 0.109604
H	 0.1160823494	-0.2198974073	 4.7099834675	 0.128799
H	 1.6779856445	-0.1211225182	 3.7417984162	 0.126764
59.8982	64.5429	116.1766	134.5306	222.5483	278.8307	363.2056	392.6098	397.9239	458.0061	478.0233	485.0075	605.725	784.3427	858.6228	877.0765	897.6513	943.4172	955.4011	1005.7418	1036.6186	1093.1597	1114.3641	1132.3497	1161.7331	1175.1666	1220.9766	1262.5662	1282.5289	1296.8852	1334.5789	1339.5399	1388.0899	1438.9772	1449.4219	1455.5231	1470.2556	1526.483	2367.3769	2957.616	3032.6407	3048.4854	3079.2957	3093.904	3094.6745	3112.0098	3184.7146	3750.0492
OC(CC#N)CC1CO1	O[C@@H](CC#N)C[C@H]1CO1	
InChI=1S/C6H9NO2/c7-2-1-5(8)3-6-4-9-6/h5-6,8H,1,3-4H2	InChI=1S/C6H9NO2/c7-2-1-5(8)3-6-4-9-6/h5-6,8H,1,3-4H2/t5-,6-/m0/s1
