18
gdb 70176	3.52347	1.339	1.11936	3.3554	79.88	-0.2204	-0.0573	0.1631	1111.1849	0.147947	-401.9567	-401.948717	-401.947773	-401.989073	31.063	
C	-0.1674506162	 1.5655534034	 0.116090807	-0.467196
C	-0.0294322201	 0.0605812899	 0.0016656639	 0.279904
C	-0.8223111805	-0.8388306038	 0.9155625285	-0.273789
N	 0.5935871296	-0.6186177524	 1.1510993852	-0.139519
C	 1.5307286454	-1.7111266657	 0.895194681	-0.268245
C	 1.473957245	-2.4067287507	-0.4698866832	 0.34376
O	 1.9321366196	-3.5228431409	-0.6183468791	-0.331965
C	 0.9100486804	-1.618980918	-1.5753248331	-0.195898
C	 0.2537191414	-0.4706383685	-1.3504126638	-0.071569
H	 0.7579959187	 2.0695032668	-0.1816854405	 0.128044
H	-0.9750904326	 1.9311100521	-0.5277432722	 0.120687
H	-0.3891962998	 1.8479180495	 1.1471742586	 0.134013
H	-1.4903743155	-0.3922578429	 1.6488613496	 0.120086
H	-1.1526947229	-1.7925796857	 0.5088148693	 0.123541
H	 2.5489478377	-1.3138392138	 1.0009813998	 0.136686
H	 1.4121993805	-2.4707185	 1.6731841697	 0.138737
H	 1.0665332663	-2.0074502336	-2.5762555634	 0.113199
H	-0.108829817	 0.1246877142	-2.1861225771	 0.109525
76.336	181.2039	215.5662	250.3212	327.5885	372.2173	400.1317	454.6243	473.2902	545.1049	612.4969	682.659	712.9515	768.2757	798.398	876.3047	914.593	938.0654	984.1266	995.336	1017.2115	1080.6273	1104.5621	1122.2668	1149.3563	1189.0394	1244.3645	1244.6103	1286.2916	1337.4483	1370.4329	1413.8082	1420.0534	1456.6533	1485.102	1496.1489	1500.9069	1671.4693	1772.685	3026.3289	3035.6079	3090.6255	3094.7003	3098.335	3131.2971	3148.2267	3180.6118	3192.9628
CC12CN1CC(=O)C=C2	C[C@]12CN1CC(=O)C=C2	
InChI=1S/C7H9NO/c1-7-3-2-6(9)4-8(7)5-7/h2-3H,4-5H2,1H3	InChI=1S/C7H9NO/c1-7-3-2-6(9)4-8(7)5-7/h2-3H,4-5H2,1H3/t7-,8?/m0/s1
