23
gdb 95499	2.03985	1.44882	0.90666	1.402	87.44	-0.2378	0.0204	0.2583	1346.1355	0.206846	-388.306739	-388.297482	-388.296538	-388.340348	36.375	
C	 0.1367044418	 1.6241754715	-0.0190009272	-0.409088
C	 0.005768855	 0.0940392124	-0.0241407746	-0.030816
C	 0.6712389516	-0.5012234133	-1.2836098149	-0.164151
C	 0.24711708	-1.9275626932	-1.6359990428	 0.115115
O	 0.8055900038	-2.1805489188	-2.9238254828	-0.440351
C	 0.680980813	-3.0109415715	-0.6415885927	-0.202876
C	 0.033514558	-2.9088382423	 0.7534047467	-0.265807
C	 0.5599434058	-1.7769571245	 1.6026167245	-0.080269
C	 0.552155162	-0.4883731214	 1.2635726139	-0.023342
H	 1.190763083	 1.9252357139	-0.0042414019	 0.117239
H	-0.3242660453	 2.065087281	-0.9080094769	 0.111449
H	-0.3454694714	 2.0578308853	 0.8631882022	 0.11176
H	-1.0680006423	-0.1457065477	-0.0796521625	 0.081234
H	 0.414997817	 0.1196288764	-2.1498953068	 0.100101
H	 1.7625593039	-0.4647950343	-1.1814271573	 0.09887
H	-0.8567606355	-1.9468267886	-1.6985823264	 0.055797
H	 0.5977052289	-3.0894296857	-3.1636287215	 0.276043
H	 0.410103147	-3.9842125934	-1.0758997639	 0.075952
H	 1.7733399237	-2.9971715359	-0.5518157481	 0.104634
H	-1.0555768258	-2.81156625	 0.6290778922	 0.106809
H	 0.1886158825	-3.8549126974	 1.2810231172	 0.099102
H	 0.984387094	-2.0528847708	 2.5652037285	 0.083759
H	 0.9735280095	 0.2295437784	 1.9653822352	 0.078837
75.3974	161.3318	210.1768	238.2485	263.0417	285.9658	308.4427	321.7231	392.9607	394.4203	451.8861	520.1843	545.72	661.157	736.1297	809.8157	843.8871	876.8444	907.7289	944.3218	979.0306	995.9467	1028.8829	1044.3474	1066.8685	1081.5672	1097.2892	1122.6228	1160.9175	1170.6411	1240.051	1243.1632	1276.2818	1293.9892	1315.1153	1335.094	1338.024	1356.4838	1365.9529	1403.6915	1410.3912	1428.2534	1442.1072	1480.0882	1486.2408	1491.4751	1499.1266	1502.8847	1723.1513	2924.5876	2974.2309	2995.955	3001.5022	3027.2207	3031.921	3065.4967	3071.6928	3074.0844	3094.6962	3106.0444	3129.2633	3157.3031	3811.7334
CC1CC(O)CCC=C1	C[C@H]1C[C@@H](O)CCC=C1	
InChI=1S/C8H14O/c1-7-4-2-3-5-8(9)6-7/h2,4,7-9H,3,5-6H2,1H3	InChI=1S/C8H14O/c1-7-4-2-3-5-8(9)6-7/h2,4,7-9H,3,5-6H2,1H3/t7-,8+/m1/s1
