16
gdb 45899	2.24004	1.98073	1.21132	3.2568	71.36	-0.249	-0.0431	0.2059	997.0082	0.126316	-434.051148	-434.043609	-434.042664	-434.083382	28.495	
O	 0.0058329428	-0.0035455538	 0.2899648506	-0.264856
C	-0.0134474726	 1.179861931	 0.0676656204	 0.375143
C	-1.380949414	 1.9147854619	-0.037125805	-0.279746
N	-1.9204442297	 1.9670041344	-1.4023040458	-0.168761
C	-1.2659643555	 2.5868192486	-2.2928790477	 0.033099
N	-0.0725333435	 3.3319704989	-2.0624514529	-0.305896
C	 1.1339490014	 2.6196389994	-2.3262871847	 0.033099
N	 1.8296651547	 2.0182943621	-1.4545062545	-0.168761
C	 1.3300008611	 1.9518640252	-0.0748629964	-0.279746
H	-2.0770258384	 1.331156139	 0.5677423904	 0.142937
H	-1.3108767985	 2.9168397619	 0.4120167071	 0.113021
H	-1.6131940345	 2.5687527957	-3.3247781364	 0.137785
H	-0.0629359253	 3.6207000687	-1.0893681768	 0.238938
H	 1.4526950524	 2.6106872255	-3.3674554664	 0.137785
H	 1.245080011	 2.9517989367	 0.3764358169	 0.113021
H	 2.0583395088	 1.3877178049	 0.5101780111	 0.142937
79.9402	146.0852	220.9904	284.202	290.9511	414.7983	454.4142	528.9924	545.7731	601.8947	653.736	728.2207	867.3206	871.929	889.9608	920.7048	937.4437	945.351	1008.4201	1049.4408	1090.3138	1150.1617	1167.6067	1231.6832	1248.9529	1312.628	1337.2453	1347.8363	1395.3346	1446.3418	1502.1976	1508.0287	1700.2791	1722.026	1810.8759	2986.0669	2997.8975	3111.204	3113.1099	3147.7142	3152.7832	3525.5047
O=C1CN=CNC=NC1	O=C1CN=CNC=NC1	
InChI=1S/C5H7N3O/c9-5-1-6-3-8-4-7-2-5/h3-4H,1-2H2,(H,6,7,8)	InChI=1S/C5H7N3O/c9-5-1-6-3-8-4-7-2-5/h3-4H,1-2H2,(H,6,7,8)
