18
gdb 108016	3.70043	1.50042	1.34989	2.9826	73.89	-0.2144	0.0691	0.2835	983.0845	0.14876	-401.841402	-401.834268	-401.833324	-401.872921	28.725	
O	-0.0365086917	 1.4090180678	 0.1760361488	-0.423827
C	-0.0262677602	-0.001313251	-0.0079176859	-0.220368
C	-1.4477771133	-0.479128278	-0.0200675108	 0.347391
C	-2.5801055251	 0.1206273049	-0.8800235123	-0.223484
N	-3.5575297132	-0.4504970045	 0.1212996742	-0.163339
C	-3.2754677154	-1.9195035745	 0.1118020847	-0.025055
C	-2.4642269187	-1.9263826769	 1.3721600795	-0.114293
C	-1.7483230185	-1.9991662014	 0.0301592457	-0.156133
C	-2.446198923	-0.3925361736	 1.1897855718	-0.054801
H	 0.8740192162	 1.7177869289	 0.1871483319	 0.289009
H	 0.4650730356	-0.2766072221	-0.956735388	 0.087286
H	 0.525049966	-0.507425726	 0.8017172636	 0.090029
H	-2.6079732322	 1.2119483579	-0.8358188964	 0.121022
H	-2.7109458798	-0.2258980974	-1.9100818751	 0.093415
H	-3.954868682	-2.6531410445	-0.3019231682	 0.091756
H	-2.4700661074	-2.583015625	 2.2308782644	 0.093326
H	-1.2087040339	-2.8213327909	-0.4209990099	 0.085165
H	-2.4747874736	 0.3961590662	 1.937852762	 0.082901
98.7587	168.2907	228.5863	285.7711	377.4662	456.5629	566.0624	641.5867	757.6441	765.0219	784.775	813.5129	836.9582	852.0852	862.0578	886.2953	901.013	949.4887	996.758	1005.4376	1038.084	1046.4807	1057.0445	1069.7864	1114.402	1122.1169	1145.6631	1170.7156	1191.0915	1213.3741	1232.4085	1254.1449	1269.9726	1284.9346	1321.8986	1365.4143	1464.7384	1497.4663	1510.6978	2953.3536	2980.9538	3050.1362	3120.6753	3144.9131	3195.8018	3199.7309	3215.5858	3832.3446
OCC12CN3C4C(C14)C23	OC[C@@]12CN3[C@@H]4[C@@H]([C@H]14)[C@@H]23	
InChI=1S/C7H9NO/c9-2-7-1-8-5-3(4(5)7)6(7)8/h3-6,9H,1-2H2	InChI=1S/C7H9NO/c9-2-7-1-8-5-3(4(5)7)6(7)8/h3-6,9H,1-2H2/t3-,4+,5-,6+,7+/m1/s1
