18
gdb 7158	2.52038	1.14305	0.82421	2.0791	73.6	-0.2486	0.0374	0.2859	1413.1076	0.150136	-384.89667	-384.886207	-384.885263	-384.934489	34.443	
C	 0.8735649312	 1.2372784844	-0.2618399731	-0.223454
O	 0.9170712972	-0.163080456	-0.3927309584	-0.227274
C	-0.1938200809	-0.6860616532	-1.0761381446	-0.061045
C	-0.0329809614	-2.2109857006	-1.1861236819	-0.053059
O	-1.2452242509	-2.7836597661	-1.6748750833	-0.420312
C	 1.1216191028	-2.5879008672	-2.0000706035	 0.08969
C	 2.0364804896	-2.8973819098	-2.7198069747	 0.022201
C	 3.1569543364	-3.2769006902	-3.5676402665	-0.497876
H	 0.8640345814	 1.7387942184	-1.2426140222	 0.104317
H	-0.0140731346	 1.5685379102	 0.3003327222	 0.104429
H	 1.7704186658	 1.5429006129	 0.2823582759	 0.127819
H	-1.1322240329	-0.4813718523	-0.5364331375	 0.095078
H	-0.2829142854	-0.2504828616	-2.0861990726	 0.079953
H	 0.0913833709	-2.6012252908	-0.1689515065	 0.122392
H	-1.2157127425	-2.7349336361	-2.6362504205	 0.284764
H	 3.0194216835	-4.2817930872	-3.9817269281	 0.150329
H	 3.2779224048	-2.5835660163	-4.4071361041	 0.14787
H	 4.0943476151	-3.2780058684	-3.0006992105	 0.154178
11.8415	57.7786	86.9103	130.6118	145.2847	184.3823	232.7334	248.315	302.2152	328.2106	401.0849	417.6858	550.9533	579.9673	725.415	987.3446	1012.1891	1031.1506	1051.4645	1054.5238	1094.5245	1161.1922	1181.1595	1183.3955	1228.1691	1238.9818	1262.8343	1342.0896	1405.053	1412.8744	1418.7822	1476.7722	1478.2451	1480.1545	1485.8449	1501.762	1524.3801	2368.0976	2953.4138	2971.1875	2998.3718	3013.2145	3027.8458	3045.934	3088.8942	3090.3106	3113.9633	3814.5496
COCC(O)C#CC	COC[C@@H](O)C#CC	
InChI=1S/C6H10O2/c1-3-4-6(7)5-8-2/h6-7H,5H2,1-2H3	InChI=1S/C6H10O2/c1-3-4-6(7)5-8-2/h6-7H,5H2,1-2H3/t6-/m0/s1
