19
gdb 78100	2.69171	1.22704	0.99824	3.1144	77.02	-0.2401	-0.0322	0.2079	1249.4094	0.156293	-422.999754	-422.990447	-422.989503	-423.034126	33.929	
C	 0.0747290777	 1.5992918501	 0.1041843364	-0.424296
C	 0.1666355064	 0.0940737804	-0.0029466202	-0.072098
C	 1.4596085106	-0.6917834668	-0.1876789673	-0.207521
C	 2.5473681114	-0.0970689451	 0.7094818381	 0.009334
O	 1.6712566133	-0.1458381459	 1.8628319026	-0.327836
C	 0.6456802373	-0.8089212441	 1.0940002837	 0.439586
C	-0.1094749928	-1.904212579	 1.7718727154	-0.489951
C	 3.7223936562	-1.0387559537	 0.8903508898	 0.15128
O	 4.7589929869	-0.936327039	 0.2893514118	-0.245227
H	 0.7902239515	 1.9845766616	 0.834009583	 0.139351
H	 0.2664290518	 2.0806145526	-0.860377922	 0.1209
H	-0.9251912593	 1.8985380457	 0.4351090655	 0.120131
H	-0.6334274199	-0.3699208428	-0.5784119438	 0.092945
H	 1.628507426	-1.3870179513	-0.9994673832	 0.108406
H	 2.9077870875	 0.9115989578	 0.4804641749	 0.103662
H	-0.7048842043	-1.5019446589	 2.5993580571	 0.136889
H	-0.7931923302	-2.3876674512	 1.068473961	 0.128042
H	 0.568722717	-2.6606948479	 2.1786826132	 0.129203
H	 3.530707143	-1.8543557426	 1.6233478238	 0.087199
60.834	101.8079	173.8901	193.5599	198.1019	214.6596	278.2526	326.21	358.8585	472.5095	524.2121	564.5375	674.796	750.7709	805.0851	873.3323	913.0487	931.9426	958.6192	991.7545	1007.878	1045.2896	1062.8565	1103.6569	1117.7905	1128.6702	1153.3018	1193.6126	1236.0669	1263.4065	1309.9543	1326.6349	1399.6601	1409.1043	1410.693	1472.2746	1476.2101	1494.2102	1497.5606	1509.3297	1835.1419	2886.8384	3033.9312	3039.3212	3058.3282	3097.5197	3098.1274	3116.6608	3120.4622	3134.5978	3198.848
CC1C2C(OC12C)C=O	C[C@H]1[C@H]2[C@@H](O[C@@]12C)C=O	
InChI=1S/C7H10O2/c1-4-6-5(3-8)9-7(4,6)2/h3-6H,1-2H3	InChI=1S/C7H10O2/c1-4-6-5(3-8)9-7(4,6)2/h3-6H,1-2H3/t4-,5-,6-,7-/m0/s1
