24
gdb 83231	2.39292	1.50291	1.30096	1.5031	87.94	-0.2153	0.0748	0.2901	1157.8515	0.217834	-368.404482	-368.395093	-368.394149	-368.437719	37.209	
C	-0.0926338687	 1.579079504	 0.1023963651	-0.431809
C	 0.0039308656	 0.0781590595	-0.0688215119	 0.002356
C	 0.6341888171	-0.693010152	-1.1776437135	-0.061804
N	 1.2133176869	-0.732238363	 0.1848151505	-0.125477
C	 2.4931921649	 0.0028838351	 0.1224971293	-0.160778
C	 2.6456894459	 0.6501031591	-1.277339023	-0.281678
C	 1.6209725118	-0.0918734009	-2.1825578626	 0.307943
C	 2.3171058934	-1.2576609897	-2.9138117115	-0.424371
C	 0.9503845137	 0.8280481711	-3.2135386819	-0.434996
H	 0.7165378233	 2.142581604	-0.3601691468	 0.122645
H	-1.0344193261	 1.9370157262	-0.3277536158	 0.12258
H	-0.1075890869	 1.8319667158	 1.1690163211	 0.123028
H	-0.8669829111	-0.4146559582	 0.3654557359	 0.086968
H	 0.1327430291	-1.6034370216	-1.503963224	 0.075502
H	 2.5527888966	 0.7361752451	 0.9337883619	 0.101622
H	 3.2867479782	-0.7308259909	 0.2976506988	 0.106693
H	 2.4377364195	 1.7224769295	-1.2514745683	 0.100172
H	 3.6649035841	 0.5436093913	-1.6615683635	 0.094998
H	 2.8138553701	-1.9303241827	-2.2069823109	 0.120999
H	 1.5970236219	-1.8505901494	-3.4882734588	 0.110884
H	 3.0727301652	-0.8802661438	-3.611242277	 0.10839
H	 1.6888573478	 1.2338572361	-3.9141515445	 0.110802
H	 0.2073303698	 0.2788879914	-3.8026397493	 0.111716
H	 0.4413144877	 1.6699172538	-2.7361897192	 0.113616
117.2581	166.5742	184.6531	208.8865	235.1379	270.1729	290.0107	333.619	367.197	386.2827	467.8557	561.5098	586.4475	693.0169	722.2919	745.835	797.973	847.145	904.4672	930.3619	944.8955	969.9344	980.2614	1000.2751	1016.3064	1042.1325	1057.5287	1118.2794	1144.371	1163.3998	1185.9504	1215.4592	1241.1892	1248.8557	1268.2094	1305.9017	1322.4054	1345.1013	1385.2026	1397.4151	1412.3701	1423.1736	1436.9645	1482.9256	1486.3843	1490.8803	1494.9712	1506.0359	1507.9731	1510.0366	1517.9454	3024.6229	3029.5815	3035.1648	3039.8981	3054.817	3070.2686	3085.2038	3086.4133	3087.4494	3093.5624	3096.6765	3101.3488	3108.2467	3111.406	3154.0685
CC1C2N1CCC2(C)C	C[C@H]1[C@@H]2N1CCC2(C)C	
InChI=1S/C8H15N/c1-6-7-8(2,3)4-5-9(6)7/h6-7H,4-5H2,1-3H3	InChI=1S/C8H15N/c1-6-7-8(2,3)4-5-9(6)7/h6-7H,4-5H2,1-3H3/t6-,7-,9?/m0/s1
