15
gdb 56082	7.50275	0.49962	0.47112	5.8404	80.95	-0.2669	-0.0375	0.2294	2129.4266	0.111263	-416.836436	-416.826522	-416.825578	-416.873548	33.214	
N	-0.0512671706	 1.3512641985	 0.0093315451	-0.531263
C	 0.0713960043	-0.0048706629	 0.0008078846	 0.423362
O	 1.1475600705	-0.5699543662	-0.0113000386	-0.347274
C	-1.2568015282	-0.7647995753	 0.0094296145	-0.316615
C	-1.0140756958	-2.2841187034	-0.0010101235	-0.380375
C	-2.2528789023	-3.0413905474	 0.0070160324	 0.021145
C	-3.2945418996	-3.6543419672	 0.0138019583	 0.122695
C	-4.470206539	-4.3475799827	 0.0217214522	 0.200536
N	-5.4730362623	-4.9344216043	 0.0285015996	-0.338829
H	 0.7872499293	 1.9082851299	 0.0050863762	 0.267177
H	-0.9421985944	 1.8154626371	 0.020116901	 0.263232
H	-1.8364827765	-0.4784228244	 0.8942194871	 0.140638
H	-1.8532869266	-0.4689984339	-0.8609617678	 0.140577
H	-0.4181514593	-2.5520108912	-0.8802365827	 0.167475
H	-0.4011600094	-2.5612473367	 0.8635494916	 0.167519
21.3324	63.4349	64.782	139.0311	152.0052	182.306	237.7463	368.7448	386.148	502.3809	503.165	580.7004	587.1372	593.2423	638.8163	737.4363	788.0165	858.1401	1029.2856	1039.6234	1094.5612	1173.2623	1174.771	1248.6653	1305.2255	1340.157	1403.8932	1451.1897	1470.945	1619.8219	1798.695	2265.7029	2401.7434	3043.5014	3055.4094	3076.066	3095.3974	3605.4129	3741.1124
NC(=O)CCC#CC#N	NC(=O)CCC#CC#N	
InChI=1S/C6H6N2O/c7-5-3-1-2-4-6(8)9/h2,4H2,(H2,8,9)	InChI=1S/C6H6N2O/c7-5-3-1-2-4-6(8)9/h2,4H2,(H2,8,9)
