21
gdb 99479	2.47963	1.02879	0.76965	1.9886	85.22	-0.2417	-0.0155	0.2262	1547.8372	0.178269	-387.087081	-387.075997	-387.075053	-387.124468	39.17	
C	-0.5362458867	 1.6205629309	 0.0892517597	-0.396552
C	-0.5322794529	 0.0918049422	 0.1101270288	-0.165713
C	 0.6759970479	-0.5033705644	 0.8638399747	-0.260086
C	 0.6838589357	-0.1471508614	 2.2798492158	 0.334059
C	 0.6560189392	 0.1510690013	 3.4447079226	-0.480531
C	 0.7928120564	-2.037596693	 0.6455311349	 0.375481
O	 0.1365179833	-2.5863801409	-0.2059918772	-0.296514
C	 1.7949565462	-2.7838629644	 1.5092553493	-0.281155
C	 2.0122928967	-4.2299604817	 1.0707718058	-0.379906
H	 0.3575955517	 2.0142193352	-0.4083644923	 0.111435
H	-1.4094856903	 1.9965144588	-0.4520496957	 0.116432
H	-0.5629176659	 2.0329941797	 1.1023032854	 0.129088
H	-1.4500076636	-0.2846648989	 0.5740455544	 0.111774
H	-0.5146663107	-0.3105491397	-0.9058779981	 0.120045
H	 1.5967428353	-0.0951476851	 0.4128538548	 0.124923
H	 0.6418840021	 0.4155264471	 4.4731732963	 0.200327
H	 2.7345533113	-2.2151911892	 1.5156627122	 0.120343
H	 1.4329746634	-2.7298995279	 2.5436645927	 0.143946
H	 2.4002107676	-4.2777831894	 0.0495512798	 0.126773
H	 2.7237943958	-4.7297369398	 1.733825457	 0.111007
H	 1.0722110574	-4.7864245195	 1.0866585792	 0.134824
26.0418	62.2177	95.738	135.0149	158.1842	182.7929	207.4845	263.6348	275.5301	333.1134	379.0868	432.6907	520.2273	545.4077	618.186	644.4063	682.0543	736.0809	778.5316	834.7186	879.5216	966.1583	994.2815	1024.3753	1049.5903	1092.3602	1116.9076	1133.9042	1150.9028	1243.8145	1264.9654	1288.481	1331.0972	1362.2512	1372.1036	1413.7323	1414.9915	1447.1919	1485.219	1493.0465	1498.492	1498.8778	1508.4039	1812.254	2228.4812	2967.7227	3030.1968	3032.9887	3051.0368	3056.5994	3060.6572	3092.1695	3106.3863	3118.7045	3120.6281	3129.2763	3502.3209
CCC(C#C)C(=O)CC	CC[C@@H](C#C)C(=O)CC	
InChI=1S/C8H12O/c1-4-7(5-2)8(9)6-3/h1,7H,5-6H2,2-3H3	InChI=1S/C8H12O/c1-4-7(5-2)8(9)6-3/h1,7H,5-6H2,2-3H3/t7-/m1/s1
