15
gdb 48096	3.77253	0.94142	0.8386	1.691	68.19	-0.2569	-0.1075	0.1493	1319.735	0.10952	-457.785736	-457.77707	-457.776126	-457.820924	30.126	
O	-1.1579087543	 1.9499025705	 0.0898471787	-0.213568
C	-0.2193563513	 1.2723813713	-0.2353544319	 0.090575
C	 1.2108457705	 1.8170373313	-0.3732687105	 0.277649
O	 2.0755829309	 1.0530970663	-0.7397519575	-0.283865
C	 1.4408151675	 3.2563945626	-0.0080344034	-0.107933
C	 2.0492564765	 3.4611882675	 1.43384062	-0.354412
C	 3.105725305	 4.3694108463	 0.7778539195	 0.406979
O	 3.8804714528	 5.1678302765	 1.2110047582	-0.277502
C	 2.6958264385	 3.9332872408	-0.6333939173	-0.361249
H	-0.2932953363	 0.1910155711	-0.4737499757	 0.114468
H	 0.5185685787	 3.8252262163	-0.1243969825	 0.117683
H	 1.4085313986	 3.9169043663	 2.1910258228	 0.147327
H	 2.4992000356	 2.549805271	 1.8414375368	 0.147403
H	 3.3875384718	 3.185881584	-1.0376621129	 0.158324
H	 2.5412235654	 4.7233594383	-1.3709518143	 0.138123
26.0587	61.5107	125.2077	165.7609	211.9826	265.1842	419.1229	464.4117	510.6525	571.6943	606.4031	669.2896	695.4801	726.86	879.0224	906.8019	979.0505	992.0744	1036.9283	1069.1118	1094.19	1152.946	1195.1181	1205.5411	1231.9102	1249.108	1360.434	1378.2428	1425.1377	1443.0288	1795.1226	1823.2943	1904.8796	2933.468	3056.6011	3061.822	3117.0702	3128.5949	3134.7038
O=CC(=O)C1CC(=O)C1	O=CC(=O)C1CC(=O)C1	
InChI=1S/C6H6O3/c7-3-6(9)4-1-5(8)2-4/h3-4H,1-2H2	InChI=1S/C6H6O3/c7-3-6(9)4-1-5(8)2-4/h3-4H,1-2H2
