19
gdb 38577	2.77648	2.15695	2.00792	1.3512	76.1	-0.2189	0.0823	0.3012	828.8969	0.164186	-385.881353	-385.875574	-385.87463	-385.911013	26.007	
C	-0.0380724112	 1.5515827669	 0.0730455156	-0.245912
C	 1.5108443088	 1.4745682597	 0.0128563791	 0.109426
O	 2.0786056557	 1.2899023191	 1.304982227	-0.270746
C	 1.6097280459	 0.1106800967	 1.9209129556	 0.098931
C	 1.8098890148	-1.2021033196	 1.212431485	-0.101759
C	 2.2859252684	-1.0147700152	-0.2209274271	-0.238855
C	 1.3701248702	 0.1010864105	-0.7247213804	-0.057076
C	-0.0123315814	 0.0000859098	 0.0002929284	-0.047437
C	 0.4082198242	-0.5935042688	 1.3415392619	-0.102942
H	-0.4786730682	 2.0262817077	 0.9529535265	 0.098137
H	-0.4476164568	 2.0000166138	-0.8363490469	 0.096212
H	 2.0731904984	 2.2841866063	-0.4555464965	 0.072096
H	 1.7350622285	 0.1656466081	 2.9960246827	 0.096404
H	 2.105156058	-2.0787305424	 1.7783512084	 0.078819
H	 3.3436696047	-0.7303411986	-0.2719407612	 0.106319
H	 2.15623123	-1.9321026321	-0.8062243305	 0.097458
H	 1.3183910279	 0.2155454162	-1.808579808	 0.07008
H	-0.8393137081	-0.5357032037	-0.4701505897	 0.059951
H	-0.3393666998	-1.0105243543	 2.0069781601	 0.080893
279.271	346.1849	403.1641	500.9783	536.2726	632.2517	637.9244	727.3073	761.1778	782.3474	793.5249	831.4644	874.1134	884.9677	915.838	952.5291	957.8975	982.7626	1004.3532	1038.9459	1050.8665	1056.6071	1082.8387	1091.0212	1105.6316	1130.7632	1152.798	1169.9665	1202.7861	1238.3912	1246.7684	1263.6782	1280.3628	1305.6019	1314.8206	1334.7193	1356.4385	1376.9158	1427.2742	1479.8951	1488.225	3031.0467	3056.2914	3069.4993	3081.4994	3092.3148	3104.7031	3116.9508	3165.2579	3169.0265	3183.0823
C1C2OC3C4CC2C1C34	C1[C@H]2O[C@@H]3[C@@H]4C[C@H]2[C@H]1[C@H]34	
InChI=1S/C8H10O/c1-3-4-2-6(3)9-8-5(1)7(4)8/h3-8H,1-2H2	InChI=1S/C8H10O/c1-3-4-2-6(3)9-8-5(1)7(4)8/h3-8H,1-2H2/t3-,4-,5+,6+,7-,8+/m0/s1
