21
gdb 106150	2.35227	1.6318	1.26116	0.9253	83.19	-0.2242	0.0926	0.3168	1119.9803	0.182032	-387.031856	-387.023095	-387.022151	-387.065037	33.663	
C	 0.1330480479	 1.2232249316	 0.3117381678	-0.256239
O	-0.0231996535	-0.0951773162	-0.1932029545	-0.28149
C	-1.3027159338	-0.5595592473	-0.1331000812	 0.393494
C	-2.2228390942	-0.940543132	 1.0092245287	-0.196531
C	-3.3755175437	-0.1225224155	 0.4347472646	-0.225647
C	-2.6517425525	-0.2292596538	-0.9352251325	-0.140355
C	-2.72750218	-1.7431935853	-1.2762968002	-0.275689
C	-1.7930465372	-1.9730689192	-0.086895943	 0.263949
C	-1.032391308	-3.2152578069	 0.2678666625	-0.506262
H	 1.1936734591	 1.4712450308	 0.233123445	 0.127628
H	-0.4492290586	 1.9476333069	-0.2741027751	 0.114692
H	-0.1806709831	 1.2850620012	 1.3622404886	 0.114954
H	-1.9702373458	-1.1293854245	 2.0452626489	 0.081299
H	-4.3895070946	-0.5361995936	 0.4856809574	 0.087035
H	-3.3791639413	 0.9000392047	 0.8238420221	 0.092982
H	-2.7916556375	 0.5250430498	-1.7068065323	 0.068677
H	-3.7225712796	-2.2048704859	-1.2645991814	 0.082882
H	-2.2248845322	-1.9788917697	-2.2194535404	 0.096948
H	-0.4720083917	-3.5953800914	-0.5938119724	 0.119447
H	-0.3111925855	-3.0199226	 1.0683062245	 0.121582
H	-1.7028315242	-4.0127240737	 0.6090314426	 0.116644
94.9242	136.9942	168.0829	192.5634	218.0106	276.9526	345.1626	385.1726	438.7132	548.2653	584.8598	633.6525	688.2642	781.7252	854.2819	896.4885	926.9433	930.4396	962.1282	979.8762	997.3682	1009.4811	1052.3139	1059.4122	1088.0372	1114.2522	1144.0007	1170.0406	1179.1802	1194.4447	1205.331	1227.4732	1237.1703	1265.9987	1287.4697	1347.4676	1416.0699	1444.9532	1484.5457	1485.6812	1488.428	1494.489	1501.0742	1505.1076	1525.0749	2998.078	3021.1628	3023.5844	3031.9414	3055.0218	3081.4042	3085.7869	3088.735	3095.6801	3124.8261	3135.4729	3192.6019
COC12C3CC1CC23C	CO[C@@]12[C@H]3C[C@@H]1C[C@@]23C	
InChI=1S/C8H12O/c1-7-4-5-3-6(7)8(5,7)9-2/h5-6H,3-4H2,1-2H3	InChI=1S/C8H12O/c1-7-4-5-3-6(7)8(5,7)9-2/h5-6H,3-4H2,1-2H3/t5-,6+,7-,8-/m1/s1
