19
gdb 124819	4.31402	0.9022	0.77817	3.2942	77.58	-0.2297	0.0293	0.259	1460.1985	0.160347	-419.229656	-419.220687	-419.219743	-419.264107	33.242	
C	 0.1226649817	 1.5522169123	 0.0180535183	-0.403097
C	 0.0706941938	 0.0327236108	 0.1786419141	 0.144962
O	 0.4743160042	-0.3561461545	 1.4908647094	-0.421349
C	-1.3154373491	-0.539298633	-0.1746027528	-0.349286
C	-1.374575324	-2.0379989976	-0.2250667881	 0.227676
C	-1.8756150507	-2.8183541717	-1.2492095323	-0.137871
N	-1.7348560785	-4.1098126674	-0.8624381958	-0.179408
N	-1.1694204028	-4.2375105119	 0.3524781177	-0.22629
C	-0.950930361	-2.9852458629	 0.7419562699	-0.080233
H	 1.1022243301	 1.9299866086	 0.3228495591	 0.12541
H	-0.0581431164	 1.8504511738	-1.0196532474	 0.115936
H	-0.6403223987	 2.0364406112	 0.6411714696	 0.105754
H	 0.8161231304	-0.4275847669	-0.4800113606	 0.094766
H	-0.1191708558	 0.0753562023	 2.1163921237	 0.275415
H	-2.0337854061	-0.1462841117	 0.5618509022	 0.095275
H	-1.6290818815	-0.1321111553	-1.1431803641	 0.097574
H	-2.3135635852	-2.5531917948	-2.1992399132	 0.125826
H	-1.993455553	-4.9383435548	-1.3698262454	 0.271585
H	-0.4806059773	-2.7872928165	 1.6919590658	 0.117355
40.3051	87.4864	129.7655	239.6895	282.3911	307.9172	314.2574	330.2629	454.4947	476.098	502.914	650.9432	695.8534	735.3626	787.1828	842.195	893.4218	909.9956	941.9999	953.8761	1013.7011	1054.4807	1066.1972	1080.5383	1148.269	1165.7482	1191.6942	1241.1358	1285.9885	1326.1472	1336.1136	1380.7035	1392.6244	1401.3977	1414.5626	1423.8241	1472.5651	1491.2433	1494.7815	1495.8803	1610.8482	2984.1659	3022.4899	3047.7946	3056.8669	3094.0268	3119.5241	3252.8295	3271.468	3679.5551	3790.412
CC(O)CC1=CNN=C1	C[C@@H](O)Cc1c[nH]nc1	
InChI=1S/C6H10N2O/c1-5(9)2-6-3-7-8-4-6/h3-5,9H,2H2,1H3,(H,7,8)	InChI=1S/C6H10N2O/c1-5(9)2-6-3-7-8-4-6/h3-5,9H,2H2,1H3,(H,7,8)/t5-/m1/s1
