19
gdb 102225	1.67419	1.12858	0.83351	1.2536	74.78	-0.1906	0.0463	0.2369	1466.0174	0.155463	-456.39092	-456.378998	-456.378054	-456.431127	38.668	
C	 0.2892610162	 0.935932318	-0.5482986677	-0.330461
N	-0.3940693144	 0.0640641096	 0.4115492909	-0.346427
C	 0.3839668443	-0.7209822023	 1.2800983077	 0.402707
C	 0.250609168	-2.0591250597	 1.3759936795	-0.482829
C	 2.863848678	-2.3412086069	-0.5976935668	 0.587622
O	 3.5295718388	-2.6325504613	 0.3105088188	-0.296068
O	 2.2301262173	-2.055990117	-1.5305727875	-0.298238
N	 1.2770128592	 0.043415688	 2.0246775317	-0.310449
H	 0.8816576336	 0.9339551685	 2.2941763988	 0.235296
C	 2.0851677399	-0.5822180168	 3.0528868705	-0.331407
H	 0.9065421747	 0.3827605338	-1.2713850786	 0.123679
H	-0.4619862449	 1.5122126261	-1.0952487686	 0.119608
H	 0.9359597979	 1.6398255583	-0.021829211	 0.129646
H	-1.0855051024	-0.5133833468	-0.0472485892	 0.233129
H	 0.7174122567	-2.6282396816	 2.1663544588	 0.097508
H	-0.3775111085	-2.5967303569	 0.6772797145	 0.084209
H	 1.4924475052	-1.0529428201	 3.8529122209	 0.113072
H	 2.7179431965	-1.3522626303	 2.6026067983	 0.150314
H	 2.7343502738	 0.1737581673	 3.5018403791	 0.11909
28.6175	44.8879	52.4265	70.3329	86.7167	100.7482	143.7719	160.0365	236.5394	257.9008	316.2108	468.1082	515.0136	599.7192	659.6249	679.0275	687.4422	700.9003	741.5235	774.2531	863.0394	959.328	1080.6742	1127.1078	1150.6118	1153.8662	1173.2656	1197.3333	1343.7925	1376.3639	1408.0324	1455.5362	1460.4827	1483.3268	1487.1424	1492.6906	1508.4265	1524.3814	1535.2203	1697.5775	2429.0175	2980.6874	2999.5058	3080.4295	3089.776	3122.9302	3133.3393	3178.1609	3266.4059	3576.7612	3581.5289
CNC(CC([O-])=O)=[NH+]C	CNC(=C)NC.C(=O)=O	
InChI=1S/C5H10N2O2/c1-6-4(7-2)3-5(8)9/h3H2,1-2H3,(H,6,7)(H,8,9)	InChI=1S/C4H10N2.CO2/c1-4(5-2)6-3;2-1-3/h5-6H,1H2,2-3H3;
