14
gdb 21102	3.58834	2.0667	1.33168	3.0552	60.41	-0.2231	0.0156	0.2387	872.4911	0.108264	-412.032309	-412.024472	-412.023527	-412.064647	27.673	
C	-0.0065142463	 1.4364329057	-0.0515174921	-0.331011
N	-0.027701776	-0.005313612	 0.0496917596	-0.005654
N	-0.2431297452	-0.7887777041	-1.0531648098	-0.171811
N	-0.208384948	-2.029361634	-0.6648368875	-0.234222
C	 0.0261068587	-2.0804609043	 0.6751006106	 0.128295
N	 0.1402920111	-3.2233278415	 1.4999434542	-0.614124
C	 0.1415083773	-0.7860881257	 1.131552639	 0.382019
O	 0.3705297311	-0.2858307935	 2.3558478596	-0.431609
H	 0.9635295513	 1.8327758925	 0.261265458	 0.148913
H	-0.1844245141	 1.6835942932	-1.0981745359	 0.167178
H	-0.7889787244	 1.8801711335	 0.5703669322	 0.148919
H	 0.8969383857	-3.8261381742	 1.1898023567	 0.249943
H	-0.7070327861	-3.7830661798	 1.4714799427	 0.249949
H	 0.4526066448	-1.0530315757	 2.9414601425	 0.313216
72.5004	145.6183	178.7611	231.3348	271.2059	301.5364	339.5353	491.3747	537.8646	603.8033	694.3402	725.4138	759.8915	804.846	881.8038	1004.0907	1077.2158	1154.7009	1221.3511	1234.2834	1253.0956	1311.7459	1339.3132	1403.0731	1444.2205	1481.5958	1507.0136	1601.7036	1642.1131	1687.5001	3049.6859	3114.2031	3162.3517	3491.9377	3554.4278	3746.849
CN1N=NC(N)=C1O	Cn1nnc(N)c1O	
InChI=1S/C3H6N4O/c1-7-3(8)2(4)5-6-7/h8H,4H2,1H3	InChI=1S/C3H6N4O/c1-7-3(8)2(4)5-6-7/h8H,4H2,1H3
