17
gdb 130454	6.33181	0.76273	0.69759	20.9824	86.75	-0.1196	-0.0573	0.0623	1554.4039	0.137086	-455.057774	-455.04912	-455.048176	-455.09209	31.43	
N	 0.0413655277	 1.2186264694	-0.0007682035	-0.421945
H	-0.6302147009	 0.481868873	-0.232188604	 0.333877
H	 0.9774096231	 0.8068257144	-0.0431699947	 0.32913
H	-0.023312791	 1.9486183796	-0.7136703882	 0.33233
C	-0.2643598607	 1.7612138799	 1.4104601434	-0.20403
C	-0.1868281251	 0.6382862968	 2.4334106591	-0.346524
C	-0.9044107936	 1.1323468084	 3.6628962702	 0.461756
N	-1.9037805605	 1.9790459839	 3.4435639018	-0.303836
O	-2.3949125607	 2.28122262	 4.7183031303	-0.27377
C	-1.65426677	 1.5907412559	 5.7167646154	 0.460888
O	-1.9438778309	 1.7349483239	 6.8889142016	-0.442961
C	-0.6743087039	 0.8423704301	 4.9974620791	-0.580049
H	 0.4578790399	 2.5588756207	 1.5877237953	 0.169104
H	-1.2753730313	 2.1728499708	 1.3894523119	 0.20453
H	-0.669290119	-0.2681112082	 2.0313453515	 0.105145
H	 0.8540347323	 0.3776203487	 2.6585482832	 0.116807
H	 0.0642124346	 0.1921723428	 5.4354461877	 0.059548
39.0168	89.1348	145.7885	202.3257	224.6954	320.7836	337.3275	379.8864	528.5204	608.646	652.1576	674.1151	731.5209	758.0148	770.5237	807.3519	879.57	889.7705	927.6041	962.2506	1015.2537	1084.3648	1114.696	1150.1487	1198.9624	1256.6207	1276.8441	1298.5053	1357.7158	1452.1105	1468.0114	1471.4285	1493.0142	1561.3608	1647.6546	1657.2166	1812.3836	2964.8775	3052.9019	3094.5	3165.2156	3263.9891	3393.0355	3489.8575	3504.3095
[NH3+]CCC1=NOC([O-])=C1	[NH3]CCC1=NOC(=O)[CH]1	
InChI=1S/C5H8N2O2/c6-2-1-4-3-5(8)9-7-4/h3,8H,1-2,6H2	InChI=1S/C5H8N2O2/c6-2-1-4-3-5(8)9-7-4/h3H,1-2H2,6H3
