17
gdb 34149	2.78111	1.66845	1.34844	2.5324	76.48	-0.2561	0.016	0.2721	982.8285	0.138991	-380.828959	-380.82209	-380.821146	-380.860263	27.34	
N	-0.0158534894	-1.1836808847	 0.0536944518	-0.341979
C	-0.0282079082	-0.0270564843	 0.0509276431	 0.138072
C	-0.0347228568	 1.420849264	 0.0324746078	 0.193655
C	-0.6455663913	 2.4161959812	 1.0302742281	-0.213874
N	-0.0349835217	 3.3584702203	-0.006318112	-0.170082
C	 1.1793372579	 2.3998029357	-0.0422788943	-0.007122
C	 1.7484681843	 2.4494439357	-1.4499979218	-0.245827
C	 0.4161538854	 2.4332645906	-2.2494619962	-0.245827
C	-0.5572928664	 2.3787056779	-1.0843559391	-0.007121
H	-1.735057901	 2.4709610785	 1.0903650976	 0.116867
H	-0.1871349056	 2.489766378	 2.0192277273	 0.116866
H	 1.8513478458	 2.4767979772	 0.8135149015	 0.090472
H	 2.3285415702	 3.3618417013	-1.609268051	 0.1217
H	 2.3925916362	 1.5921722095	-1.6624847344	 0.121013
H	 0.2675425801	 3.3368180453	-2.8459757114	 0.1217
H	 0.3159733924	 1.5669589526	-2.9085809809	 0.121012
H	-1.6298154919	 2.4345085112	-1.2753819162	 0.090473
123.6856	147.5006	251.8217	352.5298	442.8976	516.7258	530.3274	537.8721	693.5653	704.37	788.3511	817.1222	835.4182	906.3275	913.2677	939.2069	981.6877	1000.3843	1030.2303	1041.5816	1055.0069	1112.6574	1121.506	1126.9462	1159.8631	1207.48	1238.3366	1250.2303	1261.3689	1287.0218	1297.2202	1325.0517	1375.717	1475.6282	1497.7491	1530.6982	2343.4342	3062.4117	3064.2523	3071.4963	3105.0559	3114.5879	3119.2207	3122.2681	3129.7181
N#CC12CN3C1CCC23	N#C[C@@]12CN3[C@@H]1CC[C@@H]23	
InChI=1S/C7H8N2/c8-3-7-4-9-5(7)1-2-6(7)9/h5-6H,1-2,4H2	InChI=1S/C7H8N2/c8-3-7-4-9-5(7)1-2-6(7)9/h5-6H,1-2,4H2/t5-,6+,7-
