17
gdb 77127	2.72864	1.35845	1.11718	1.9995	70.29	-0.2475	-0.0252	0.2224	1125.3167	0.134256	-455.151327	-455.14201	-455.141065	-455.185829	33.405	
C	-0.1483284521	 1.532372412	-0.1333651692	-0.489362
C	 0.0129370747	 0.0368973994	-0.00899008	 0.394092
O	 1.0880246675	-0.5171009488	 0.0379340578	-0.30717
C	-1.274329653	-0.7786813904	 0.0611775948	-0.142828
N	-1.0562843836	-2.2183828925	 0.2895918174	-0.32342
C	-1.4135057553	-2.1341602761	 1.6361986104	 0.339883
N	-1.2521362848	-2.7978189941	 2.697989768	-0.545419
C	-2.003382477	-0.7374463171	 1.4629234102	 0.057372
O	-1.5833625149	 0.2122372979	 2.4019894576	-0.425665
H	 0.8221309624	 2.0015351546	-0.2988413083	 0.143625
H	-0.8334435078	 1.7876571548	-0.9489104814	 0.134465
H	-0.5918036859	 1.9058811447	 0.7962792103	 0.174348
H	-1.9108640862	-0.5522231876	-0.801512614	 0.099331
H	-0.1881612664	-2.6486566056	-0.0102806403	 0.250605
H	-0.7053674193	-3.6476340576	 2.5520130693	 0.222732
H	-3.0930425119	-0.7126509689	 1.3542354102	 0.110333
H	-1.1667650365	-0.2781224047	 3.1228214371	 0.307079
69.9784	74.9548	143.4533	162.1619	209.3477	225.9793	282.4243	352.0365	412.4135	483.6138	524.7853	593.9755	619.4819	701.2209	763.3166	800.0436	864.4288	919.8941	939.7325	958.5015	1040.2498	1051.7782	1083.8111	1134.3459	1195.508	1204.7742	1221.3337	1302.2008	1335.293	1350.8167	1372.2734	1381.8217	1406.4845	1467.5365	1477.1035	1800.5689	1807.9336	3038.8954	3044.865	3056.1125	3107.4786	3154.6226	3470.777	3553.1156	3770.1662
CC(=O)C1NC(=N)C1O	CC(=O)[C@H]1N[C]([NH])[C@H]1O	
InChI=1S/C5H8N2O2/c1-2(8)3-4(9)5(6)7-3/h3-4,9H,1H3,(H2,6,7)	InChI=1S/C5H8N2O2/c1-2(8)3-4(9)5(6)7-3/h3-4,9H,1H3,(H2,6,7)/t3-,4+/m1/s1
