20
gdb 121038	3.21919	0.93379	0.81079	4.1888	76.87	-0.2516	0.0578	0.3094	1487.8376	0.17141	-440.317507	-440.308383	-440.307438	-440.3524	33.035	
C	-0.0338935069	 1.44907048	-0.2905595185	-0.383939
C	-0.0281265003	-0.0586469672	-0.0269994049	-0.172154
C	-1.4369801874	-0.6593547944	 0.0082902639	-0.186268
C	-1.4494841289	-2.1668881885	 0.2491969593	 0.07841
C	-2.8421858012	-2.8115078391	 0.1543322754	-0.125532
O	-2.8784922649	-3.3217479289	-1.180578967	-0.250562
C	-1.6021842559	-3.41661396	-1.65671821	 0.490543
N	-1.2368066894	-3.9380226619	-2.740559758	-0.577979
O	-0.7291812747	-2.856014159	-0.7881328087	-0.232775
H	 0.9834119636	 1.851123904	-0.3092122786	 0.117896
H	-0.5002539444	 1.6799211689	-1.2546240075	 0.119335
H	-0.5912391883	 1.9882140356	 0.4838868891	 0.112155
H	 0.5549948437	-0.5717992071	-0.79869532	 0.128727
H	 0.4749613108	-0.26486621	 0.9272211809	 0.095221
H	-2.0266304557	-0.1874980578	 0.8065255002	 0.098751
H	-1.960707134	-0.4490908096	-0.9340233753	 0.111634
H	-0.9517291069	-2.4068968533	 1.1935391828	 0.099675
H	-2.9720935956	-3.6367704993	 0.8634949518	 0.120371
H	-3.6577500588	-2.0954241056	 0.2780362455	 0.126347
H	-2.0395411747	-4.3351408469	-3.2227511806	 0.230145
55.1617	91.7206	120.0195	131.2899	179.5406	249.2874	319.6377	362.95	467.1835	498.5863	707.9215	719.1074	744.2408	781.9763	805.3733	847.797	889.7617	908.6	925.2104	987.2517	1018.1508	1044.976	1050.2538	1092.3911	1108.8768	1145.7478	1172.0475	1231.8831	1252.0945	1273.6671	1291.0537	1330.9676	1353.9157	1382.0774	1408.2097	1416.4296	1422.5691	1476.5853	1494.0921	1500.8183	1510.7749	1521.4218	1799.2512	3010.623	3021.8983	3030.4822	3038.979	3046.816	3071.2281	3077.866	3100.3179	3106.5852	3107.5804	3537.1143
CCCC1COC(=N)O1	CCC[C@H]1CO[C]([NH])O1	
InChI=1S/C6H11NO2/c1-2-3-5-4-8-6(7)9-5/h5,7H,2-4H2,1H3	InChI=1S/C6H11NO2/c1-2-3-5-4-8-6(7)9-5/h5,7H,2-4H2,1H3/t5-/m0/s1
