20
gdb 120113	3.16703	0.93648	0.85587	3.8442	79.58	-0.2438	0.0093	0.2531	1446.1002	0.171018	-403.147876	-403.138971	-403.138027	-403.182278	33.254	
C	-0.0594131827	 1.5194041971	-0.1076850095	-0.381347
C	-0.1371919937	 0.0001465619	-0.2777722436	-0.15867
C	 0.9719469634	-0.5578942436	-1.1801210302	-0.214905
C	 0.9153103583	-2.0656448156	-1.3101387737	-0.017648
C	 0.0469214278	-2.824164263	-2.2716431096	-0.0173
N	-0.0707960096	-2.1677316817	-3.5770598637	-0.342833
C	 1.3278026345	-2.13190536	-3.7533953207	 0.416377
O	 2.0074136739	-1.6644654496	-4.6218869149	-0.343268
C	 1.5588866832	-2.8765919539	-2.4446866231	-0.262628
H	 0.8951088629	 1.8187016109	 0.3390254248	 0.117877
H	-0.145687502	 2.0315441479	-1.072421895	 0.117284
H	-0.8606366357	 1.8897444913	 0.5390501114	 0.114082
H	-0.0819782914	-0.4833042814	 0.7066008412	 0.0967
H	-1.1140773211	-0.2775925993	-0.6946255094	 0.095016
H	 0.9127127773	-0.0889349757	-2.1689591063	 0.107596
H	 1.9522460617	-0.276434392	-0.774442584	 0.107477
H	 1.0231542176	-2.5861601066	-0.3576935216	 0.097799
H	-0.6221057891	-3.6326399016	-2.0070277342	 0.111889
H	-0.6703858622	-1.3713693584	-3.7623271549	 0.241254
H	 2.2512374268	-3.6866896067	-2.2653177927	 0.115248
65.6791	81.1614	98.9271	195.4303	240.3136	267.4974	366.3984	411.0806	460.0748	538.1999	644.3486	731.9545	740.9742	752.402	800.2427	835.0229	869.8066	903.4112	915.238	931.6686	998.46	1029.9706	1048.1796	1061.8891	1079.2933	1110.3161	1132.1182	1139.5509	1203.8487	1265.1181	1271.3485	1304.3599	1321.0372	1328.6436	1334.7581	1389.0183	1413.1944	1436.0506	1482.5326	1492.9627	1499.7919	1510.4178	1896.4881	3014.6468	3027.5847	3031.9349	3041.8546	3070.0471	3097.7177	3104.5308	3110.4854	3199.7441	3224.4844	3545.8486
CCCC1C2NC(=O)C12	CCC[C@H]1[C@H]2NC(=O)[C@@H]12	
InChI=1S/C7H11NO/c1-2-3-4-5-6(4)8-7(5)9/h4-6H,2-3H2,1H3,(H,8,9)	InChI=1S/C7H11NO/c1-2-3-4-5-6(4)8-7(5)9/h4-6H,2-3H2,1H3,(H,8,9)/t4-,5+,6-/m1/s1
