21
gdb 71989	1.87566	1.79823	1.64346	1.1872	82.92	-0.2209	0.068	0.2889	1046.3293	0.181518	-387.046329	-387.037279	-387.036335	-387.079332	35.21	
C	-0.1159281084	 1.4585393082	 0.023719451	-0.50982
C	-0.002645301	-0.0360822565	-0.039996349	 0.207255
C	 0.02993325	-0.8982024267	-1.3037256385	-0.274139
C	-0.2189312688	-2.1224454284	-0.3848225615	-0.137115
C	 1.0851048458	-2.2190210361	 0.4497622002	-0.273712
C	 0.6720234898	-0.8927136853	 1.0925896434	 0.248118
C	 1.2442849681	-0.2880298179	 2.340712713	-0.507157
C	-0.768339343	-1.1029454658	 0.7179617001	 0.288819
O	-1.8686079965	-1.0723863698	 1.5375942019	-0.455152
H	 0.8125067347	 1.9490241995	-0.2929859276	 0.119863
H	-0.9158354867	 1.8183070903	-0.6348594027	 0.11125
H	-0.3450235406	 1.8076652422	 1.0349616093	 0.123453
H	-0.8259609403	-0.6792625618	-1.9514059751	 0.084737
H	 0.9462856907	-0.9137477157	-1.9066053381	 0.08344
H	-0.7156398347	-3.0157427679	-0.7582611607	 0.066471
H	 1.0497319443	-3.0319084044	 1.1819632452	 0.095584
H	 2.0289425344	-2.2680994595	-0.1074607137	 0.08126
H	 2.257267588	 0.0975026744	 2.1740838789	 0.115266
H	 0.6306284438	 0.5370081436	 2.7136532082	 0.123269
H	 1.301736383	-1.0356639588	 3.1400251516	 0.119915
H	-2.6345752926	-0.8008466037	 1.0187144341	 0.288394
134.4093	152.2822	163.24	184.3037	256.0315	267.9954	324.1773	361.0089	377.434	454.8926	537.0433	591.5291	611.3946	675.1065	717.4723	795.2339	856.8371	891.4607	925.1802	941.0113	978.4753	981.7053	1030.4955	1040.9374	1082.7081	1137.6956	1141.4035	1164.7147	1168.8924	1216.0007	1216.7702	1247.9258	1257.1285	1282.3819	1325.5979	1373.3837	1413.4384	1422.0626	1474.9507	1479.7716	1491.5719	1492.8966	1493.7955	1504.0645	1529.0171	3017.0685	3018.8752	3022.7233	3026.998	3070.1729	3074.7306	3078.6079	3083.9162	3098.5414	3107.9292	3133.7067	3778.102
CC12CC3CC1(C)C23O	C[C@@]12C[C@H]3C[C@]1(C)[C@@]23O	
InChI=1S/C8H12O/c1-6-3-5-4-7(6,2)8(5,6)9/h5,9H,3-4H2,1-2H3	InChI=1S/C8H12O/c1-6-3-5-4-7(6,2)8(5,6)9/h5,9H,3-4H2,1-2H3/t5-,6+,7-,8-
