23
gdb 94435	2.28173	1.34666	1.23969	1.8235	85.07	-0.2386	0.0753	0.3139	1206.4783	0.204982	-388.27056	-388.261068	-388.260124	-388.305006	35.946	
C	-0.6473960742	 1.1558821773	-0.1315248017	-0.421533
C	 0.2370547044	-0.0790520192	-0.217642119	-0.01016
C	 1.6896500809	 0.0750089318	-0.7498726342	-0.236663
C	 2.1512559061	-0.9582857118	 0.3098511567	-0.298684
C	 0.8244146677	-0.7363906343	 1.0723471216	 0.27139
C	 0.8215118747	 0.021387081	 2.4170610144	-0.12789
O	 0.0484967305	-1.0127749004	 3.0548205461	-0.298681
C	 0.1110257506	-1.8499144227	 1.8741502096	 0.097394
C	-1.2570364656	-2.3356938625	 1.4385534659	-0.410426
H	-0.1449823981	 1.9743219948	 0.3951837249	 0.114941
H	-0.8999509341	 1.5189044685	-1.1340486935	 0.11545
H	-1.5868746325	 0.9489459317	 0.3928332651	 0.121662
H	-0.2792611673	-0.8562982465	-0.7939799606	 0.072931
H	 1.8716192699	-0.1569979172	-1.8019831614	 0.095842
H	 2.0858412273	 1.0745599902	-0.5431486682	 0.099344
H	 2.2126595884	-1.9717641177	-0.1005840487	 0.100188
H	 3.0766535893	-0.7514428594	 0.8548101063	 0.098156
H	 1.8143595078	 0.1355936403	 2.8752894533	 0.090985
H	 0.3067621674	 0.9891301719	 2.4476525529	 0.099325
H	 0.7726463678	-2.7122631947	 2.0543138606	 0.064751
H	-1.9254289277	-1.497259211	 1.2222841801	 0.121196
H	-1.1806883855	-2.9644255129	 0.5445764422	 0.113723
H	-1.709203528	-2.935107687	 2.2351454376	 0.126759
54.5094	88.5548	154.9906	207.6075	222.0694	255.2303	265.0609	342.5034	373.9341	476.592	478.4789	506.8128	670.2923	749.5548	795.2907	872.1624	887.3588	892.6366	894.2009	946.7192	961.6708	1000.1722	1024.5549	1054.2559	1088.6797	1107.8644	1115.1885	1159.895	1165.0251	1184.0412	1194.3009	1199.6463	1254.6378	1267.4619	1278.0761	1290.4802	1303.1643	1362.3387	1371.8671	1383.9617	1403.4785	1408.5799	1478.9921	1482.3759	1490.5506	1492.4302	1498.6718	1500.845	1522.4241	2969.5618	2994.7004	3025.3966	3028.3938	3034.8114	3042.8468	3047.0396	3050.1015	3089.5571	3091.5924	3095.3609	3103.6483	3108.2077	3115.3168
CC1CCC11COC1C	C[C@H]1CC[C@]21CO[C@H]2C	
InChI=1S/C8H14O/c1-6-3-4-8(6)5-9-7(8)2/h6-7H,3-5H2,1-2H3	InChI=1S/C8H14O/c1-6-3-4-8(6)5-9-7(8)2/h6-7H,3-5H2,1-2H3/t6-,7-,8+/m0/s1
