18
gdb 82133	3.20785	1.08815	0.94649	2.3827	73.39	-0.2515	0.0028	0.2544	1264.946	0.146681	-439.05874	-439.050077	-439.049133	-439.092983	31.361	
C	-0.25894163	 1.6209428307	 0.1274219562	-0.406058
C	-0.0098720343	 0.1261007404	 0.0656597199	 0.018864
C	 0.9808369412	-0.4639587733	-0.9821317728	 0.086632
O	 1.7029229165	 0.472338126	-1.7830653723	-0.190288
C	 1.6460126137	 0.356993763	-3.1249490524	 0.167681
O	 2.2022241195	 1.1115221355	-3.8630384688	-0.272133
C	 1.7575681324	-1.0455981631	 0.1829072846	-0.054507
C	 2.1324051722	 0.0110832506	 1.1421004014	-0.243941
N	 0.7582519286	-0.5112949762	 1.2042402507	-0.137123
H	 0.6619033614	 2.2059933961	 0.0866057925	 0.136414
H	-0.8820854836	 1.9332483698	-0.716728037	 0.126553
H	-0.7904156961	 1.8680776609	 1.0517551573	 0.132763
H	-0.9655923799	-0.4021599402	 0.0044950035	 0.09348
H	 0.5198562417	-1.2184349558	-1.6268593317	 0.095698
H	 1.0358207043	-0.5071611199	-3.454446953	 0.079219
H	 2.146104736	-2.056791912	 0.2330011858	 0.103114
H	 2.7291239873	-0.2948109728	 1.9953707735	 0.129555
H	 2.327238659	 1.0193629602	 0.7914920226	 0.134077
42.0671	113.8477	142.9641	173.7965	212.7411	270.1744	342.787	417.9526	453.6834	557.2755	680.6965	724.6871	772.4787	776.6438	858.5354	911.3713	984.4433	992.8647	1029.619	1043.1672	1061.2619	1098.942	1110.4814	1123.2716	1134.1653	1172.448	1192.1307	1215.2119	1263.8883	1296.4427	1364.266	1378.7535	1388.5665	1410.6305	1441.6133	1485.1466	1492.4283	1510.7728	1868.1236	2942.7755	3044.7376	3054.4965	3069.9428	3109.7506	3127.9482	3135.2503	3173.7415	3216.5275
CC1C(OC=O)C2CN12	C[C@H]1[C@@H](OC=O)[C@H]2CN12	
InChI=1S/C6H9NO2/c1-4-6(9-3-8)5-2-7(4)5/h3-6H,2H2,1H3	InChI=1S/C6H9NO2/c1-4-6(9-3-8)5-2-7(4)5/h3-6H,2H2,1H3/t4-,5+,6+,7?/m0/s1
