15
gdb 124662	3.47586	1.04863	0.96868	2.6786	69.09	-0.2645	-0.0582	0.2063	1219.4066	0.110623	-453.932455	-453.923958	-453.923013	-453.966913	29.447	
C	 0.0036383413	 1.5476678852	 0.0765840568	-0.409617
C	-0.0145272187	 0.0048196304	-0.0203457049	-0.188549
C	 0.7356369619	-0.5670725259	 1.1897813961	 0.160746
O	 1.8424989908	-1.0262017583	 1.1276535269	-0.231566
C	-1.4030301866	-0.5391449571	-0.070237679	 0.417088
C	-2.0375613341	-1.4014573411	-0.9128356326	-0.223025
N	-3.3209404786	-1.5488676178	-0.4453363682	-0.099893
N	-3.5071108831	-0.8658017496	 0.5880758161	-0.005539
O	-2.2658890318	-0.1771510126	 0.8797531605	-0.229239
H	 1.0348356154	 1.9091582452	 0.0745140949	 0.142706
H	-0.5235554175	 1.9868247583	-0.7741384336	 0.142416
H	-0.4873893615	 1.8870306582	 0.9924355785	 0.149068
H	 0.5239086813	-0.323157373	-0.913116967	 0.121801
H	 0.1792075602	-0.4923105719	 2.1495131018	 0.105579
H	-1.683474059	-1.9102913	-1.7925770165	 0.148025
45.2697	64.5361	136.6603	182.3682	215.697	291.7031	367.8798	419.7443	447.2369	600.8247	695.5387	736.5449	745.7717	823.8079	891.5517	937.4683	985.107	1028.0901	1064.573	1084.3232	1121.3091	1139.4927	1244.658	1268.9343	1310.8447	1383.9814	1403.6071	1421.6842	1464.6143	1494.8685	1498.0617	1599.125	1842.0436	2901.3172	3051.0197	3089.6095	3129.8649	3134.5343	3293.6767
CC(C=O)C1=CN=NO1	C[C@@H](C=O)c1cnno1	
InChI=1S/C5H6N2O2/c1-4(3-8)5-2-6-7-9-5/h2-4H,1H3	InChI=1S/C5H6N2O2/c1-4(3-8)5-2-6-7-9-5/h2-4H,1H3/t4-/m0/s1
