12
gdb 133349	3.25833	1.39873	0.97863	5.6735	62.3	-0.2411	-0.0664	0.1748	1061.0715	0.076519	-513.920789	-513.913224	-513.91228	-513.953101	27.804	
N	 0.0327106004	 1.3287179817	-0.1016876406	-0.570528
C	-0.0585660064	-0.0111955588	-0.0411142271	 0.250723
C	-1.1825778323	-0.7811006412	-0.022741695	-0.36887
C	-0.9915600631	-2.1855185137	 0.0455008618	 0.3791
F	-2.0836359725	-2.9374252486	 0.0637818712	-0.056881
N	 0.1135050903	-2.8442316279	 0.0933100845	-0.172378
O	 1.2653398101	-2.0421635726	 0.073791418	-0.252741
C	 1.2597736216	-0.6885763984	 0.0105938971	 0.46145
O	 2.3045938004	-0.0820626165	-0.00130617	-0.357462
H	 0.9602106745	 1.724283027	-0.1067324993	 0.289408
H	-0.7747933023	 1.9234921764	-0.142986576	 0.274394
H	-2.1878247907	-0.3802791773	-0.0568781645	 0.123785
96.0141	143.3014	190.2787	314.9698	363.4937	384.1975	443.2401	477.4336	503.4373	569.8641	606.3878	665.6857	696.7387	791.8721	801.036	837.0763	961.0484	1055.5424	1107.1326	1186.3335	1232.6706	1417.4038	1463.4219	1591.1681	1635.3444	1700.9185	1805.1146	3208.8289	3595.9972	3741.8304
NC1=CC(F)=NOC1=O	Nc1cc(F)noc1=O	
InChI=1S/C4H3FN2O2/c5-3-1-2(6)4(8)9-7-3/h1H,6H2	InChI=1S/C4H3FN2O2/c5-3-1-2(6)4(8)9-7-3/h1H,6H2
