18
gdb 79094	2.46636	1.89738	1.49966	1.3518	74.01	-0.2343	-0.0199	0.2144	946.3117	0.148791	-401.930297	-401.922944	-401.921999	-401.961936	29.282	
C	-0.3327864505	 1.5439492221	-0.1276449948	-0.421454
C	 0.0457989852	 0.0728443804	-0.0980354715	 0.075886
C	 1.0979260911	-0.5736197955	-1.0685715314	-0.2011
C	 1.5636636489	-1.339916632	 0.1922549991	-0.060632
C	 2.2412822413	-0.2684922205	 0.9538595776	-0.025226
C	 2.8419188934	 0.7621373404	 0.0193244414	-0.363747
C	 2.178083764	 0.4638096479	-1.3369814127	 0.424086
O	 2.443302434	 0.980647553	-2.3899184779	-0.323678
N	 0.7655219258	-0.4580230071	 1.1152326385	-0.165002
H	-0.9041892164	 1.7688897983	-1.034258004	 0.129868
H	-0.9650779981	 1.7695053289	 0.7371823471	 0.132935
H	 0.5261757084	 2.2175473788	-0.0982364492	 0.126046
H	-0.8683013679	-0.525035981	-0.1663532775	 0.100204
H	 0.7296893824	-1.0856963334	-1.9544012836	 0.089103
H	 1.6603677911	-2.4105712282	 0.3249827725	 0.102303
H	 2.7634762119	-0.5093883633	 1.872711688	 0.105657
H	 2.6893062231	 1.8063028273	 0.3072658961	 0.138349
H	 3.9246509123	 0.6105306739	-0.0642314278	 0.1364
106.8177	174.2825	218.7227	262.7491	377.9115	436.3744	504.2636	550.5693	620.2054	667.791	721.5851	769.6344	777.5804	817.8781	833.2918	886.3643	932.9758	969.351	985.2626	1035.5041	1044.0359	1059.6612	1103.829	1146.6693	1153.8339	1169.5018	1191.3439	1208.0468	1250.9756	1268.0179	1286.2394	1314.4683	1382.9531	1397.2432	1407.8741	1450.583	1489.3068	1494.0626	1850.0135	3042.6595	3048.9388	3053.8568	3093.3473	3108.1751	3130.6227	3147.7302	3178.4185	3190.077
CC1C2C3C(CC2=O)N13	C[C@H]1[C@@H]2[C@H]3[C@@H](CC2=O)N13	
InChI=1S/C7H9NO/c1-3-6-5(9)2-4-7(6)8(3)4/h3-4,6-7H,2H2,1H3	InChI=1S/C7H9NO/c1-3-6-5(9)2-4-7(6)8(3)4/h3-4,6-7H,2H2,1H3/t3-,4+,6-,7+,8?/m0/s1
