16
gdb 56970	2.29508	1.15631	0.85543	4.8368	71.04	-0.264	-0.0358	0.2282	1311.8002	0.122301	-437.881061	-437.871866	-437.870922	-437.915964	32.42	
O	-0.4028637307	 1.2798911715	 0.1325760034	-0.404126
C	 0.0460503512	-0.0384824076	-0.1173772555	-0.042056
C	 0.8455533406	-0.098777468	-1.3608603768	 0.261334
N	 1.49412155	-0.1144016759	-2.3168682799	-0.308484
C	 0.83432702	-0.6103985249	 1.0514574226	-0.021678
C	 0.123355955	-1.1409924908	 2.2475258631	-0.318229
C	 0.9020100838	-2.1052609008	 1.3611946725	-0.102408
C	 0.1474166329	-3.1134040019	 0.5747064925	 0.167697
O	 0.5533184881	-4.2221596981	 0.3383656171	-0.256428
H	 0.3668665059	 1.8538707002	 0.2236844056	 0.296737
H	-0.866665204	-0.6198412755	-0.2780343627	 0.140847
H	 1.7717389742	-0.0878597161	 1.2247985099	 0.115868
H	 0.5189605546	-0.9349226182	 3.2347051751	 0.140231
H	-0.9600320607	-1.1987828659	 2.2002692006	 0.137424
H	 1.8549442155	-2.473526135	 1.7242687149	 0.122
H	-0.8617009064	-2.7882333432	 0.2292268676	 0.071274
42.0391	90.0234	134.0284	193.3656	212.962	269.8662	299.619	313.7126	406.5339	420.3714	516.8843	555.6074	619.4008	819.2761	848.7689	865.9269	911.0485	976.1714	1002.0506	1047.5758	1072.8156	1078.9408	1135.7522	1140.1107	1187.4934	1221.6734	1272.6063	1299.5856	1343.5907	1412.3365	1421.3701	1455.3018	1489.306	1825.1187	2357.066	2856.2155	3078.508	3136.0003	3143.6926	3184.167	3227.2911	3799.8415
OC(C#N)C1CC1C=O	O[C@@H](C#N)[C@H]1C[C@H]1C=O	
InChI=1S/C6H7NO2/c7-2-6(9)5-1-4(5)3-8/h3-6,9H,1H2	InChI=1S/C6H7NO2/c7-2-6(9)5-1-4(5)3-8/h3-6,9H,1H2/t4-,5-,6-/m0/s1
