22
gdb 18519	5.18968	1.02605	0.97028	0.2756	81.93	-0.2488	0.0891	0.3378	1312.9632	0.20095	-313.047352	-313.038896	-313.037952	-313.080535	32.231	
C	-0.0803331198	 1.5823788618	-0.0302325252	-0.379606
C	 0.0889220756	 0.0607022659	-0.020748371	-0.16011
C	 0.6428468567	-0.477273993	 1.3042913269	-0.186153
C	 0.8125713449	-1.9938978033	 1.3174802392	 0.029967
C	 1.9285835592	-2.6627139872	 0.4342969242	-0.25003
C	 2.4770700982	-3.3604984087	 1.6851186474	-0.036659
C	 2.8855050482	-2.3372030705	 2.7048212961	-0.273335
C	 1.4252163162	-2.6691953908	 2.5559013409	-0.07052
H	 0.8762883864	 2.0878351554	 0.143779772	 0.112531
H	-0.4740024975	 1.9366767909	-0.9882537977	 0.109116
H	-0.771606384	 1.9085616759	 0.7550040705	 0.11246
H	-0.8779173519	-0.4171448295	-0.2285829064	 0.091453
H	 0.755163123	-0.2380323415	-0.8407216904	 0.097535
H	 1.604616279	 0.0081319517	 1.5171826536	 0.089459
H	-0.0300044134	-0.1871583724	 2.1239269429	 0.089108
H	-0.1508767316	-2.4614202309	 1.0847846953	 0.067863
H	 1.5206482618	-3.3471644911	-0.3124922455	 0.099422
H	 2.6259659368	-1.9806194696	-0.0659642015	 0.089505
H	 2.8283722496	-4.3842298669	 1.7291324705	 0.081074
H	 3.352539472	-2.7323789185	 3.6015399577	 0.107044
H	 3.2811458072	-1.3740219708	 2.3910409044	 0.102523
H	 0.8558324634	-3.0735774369	 3.3851008363	 0.077353
81.6496	94.3088	125.5477	216.317	251.7383	312.2417	345.1882	428.7079	508.8196	673.1455	742.7014	779.6622	799.9535	830.6073	857.523	902.4055	929.8591	951.0071	961.0021	1003.9662	1027.508	1031.194	1049.6065	1063.8712	1083.1984	1100.9316	1126.5212	1139.584	1179.8946	1215.8986	1240.8166	1261.7863	1269.4143	1294.1911	1313.1586	1328.9065	1367.7642	1376.675	1400.4717	1411.8706	1480.1027	1484.4617	1493.235	1500.0631	1501.2209	1510.5478	3004.0905	3014.8912	3027.439	3028.3509	3034.1597	3038.8186	3057.152	3094.2936	3099.2387	3103.2747	3108.7953	3168.3213	3180.9003	3198.0631
CCCC1CC2CC12	CCC[C@H]1C[C@H]2C[C@@H]12	
InChI=1S/C8H14/c1-2-3-6-4-7-5-8(6)7/h6-8H,2-5H2,1H3	InChI=1S/C8H14/c1-2-3-6-4-7-5-8(6)7/h6-8H,2-5H2,1H3/t6-,7-,8-/m0/s1
