21
gdb 120921	2.53192	1.38403	1.17519	3.1919	77.73	-0.2205	0.058	0.2786	1151.433	0.183167	-424.181111	-424.172224	-424.171279	-424.214537	34.463	
O	-0.9142810195	 0.5797699594	 1.102394347	-0.40157
C	-0.2636825692	 0.0875413918	-0.0738815103	-0.082648
C	-1.2518724302	-0.8100067378	-0.8101624283	-0.232292
C	-1.4585029765	-2.2155277186	-0.1934734234	 0.006032
C	-1.1483793244	-2.5326651874	 1.3188142733	-0.278766
C	-2.573659686	-3.0637769885	 1.4974053019	-0.109666
C	-3.576394174	-2.0070525151	 1.1610866531	 0.144298
O	-3.5041756157	-0.6536619453	 1.4857336574	-0.451328
C	-2.8975958256	-2.7076443512	 0.0168729854	-0.133203
H	-0.2724911928	 1.0213489794	 1.6656625997	 0.294209
H	 0.0333515582	 0.9305557515	-0.7138835399	 0.096675
H	 0.6460818976	-0.4705422825	 0.1924617025	 0.096212
H	-2.2058292439	-0.2743773836	-0.8525055691	 0.131288
H	-0.9075811277	-0.9137095881	-1.8453050983	 0.095411
H	-0.9088496198	-2.9431583744	-0.796694172	 0.075425
H	-0.3868842913	-3.308913459	 1.4175549123	 0.097279
H	-0.8700208646	-1.6940583282	 1.9615669854	 0.098537
H	-2.8300040707	-3.9539205281	 2.061197425	 0.078321
H	-4.6034956862	-2.3382135713	 1.2936620024	 0.095534
H	-2.5907715103	-0.331988711	 1.48256833	 0.304867
H	-3.4612964375	-3.272806402	-0.7185811841	 0.075384
82.573	130.2194	173.7433	188.8048	240.2035	278.4474	330.6177	387.045	491.2984	504.7971	538.4205	628.8663	704.6128	736.6082	783.1442	813.0732	867.9635	916.0343	946.7071	963.4767	1010.828	1013.007	1024.9307	1034.4095	1073.7944	1084.0994	1107.2197	1126.023	1169.5369	1193.1516	1203.1206	1243.3029	1261.4413	1272.0208	1295.9065	1309.6384	1336.7098	1363.9972	1373.7069	1384.809	1444.0642	1467.8557	1487.411	1503.2098	1519.2591	2988.1583	3020.4926	3041.2914	3054.3914	3066.4584	3089.2367	3112.5452	3142.8095	3153.9576	3170.9771	3711.4869	3838.8934
OCCC1CC2C(O)C12	OCC[C@H]1C[C@H]2[C@@H](O)[C@@H]12	
InChI=1S/C7H12O2/c8-2-1-4-3-5-6(4)7(5)9/h4-9H,1-3H2	InChI=1S/C7H12O2/c8-2-1-4-3-5-6(4)7(5)9/h4-9H,1-3H2/t4-,5+,6-,7+/m0/s1
