14
gdb 34268	4.33839	1.37164	1.24747	4.9766	66.89	-0.2441	-0.0126	0.2315	972.0323	0.101976	-436.640469	-436.633915	-436.632971	-436.671488	25.501	
N	 0.0085888124	-1.1002610744	-0.0745060896	-0.339075
C	-0.0239449159	 0.0560619529	-0.039475766	 0.201718
C	-0.0143209146	 1.4802356245	-0.0010396035	 0.350472
O	-1.0863537174	 2.1951727589	 0.6073753574	-0.328106
C	-0.7656843513	 3.3554380072	-0.2317586442	 0.040049
C	 0.1234483086	 4.2589778712	 0.6060628581	-0.077382
O	 1.2684283529	 3.4349086661	 0.8945925743	-0.254461
C	 1.2514142081	 2.3658687414	-0.0002491738	 0.034147
C	 0.2291180915	 2.5234864188	-1.0770049025	-0.254759
H	-1.6499409899	 3.7960330662	-0.689723326	 0.110466
H	 0.4292753425	 5.1644561011	 0.0620068063	 0.108814
H	-0.3511630008	 4.5371886156	 1.5501914982	 0.137565
H	 2.2146585658	 1.9020471967	-0.1705693599	 0.140746
H	 0.3395235581	 2.4538385137	-2.1495130588	 0.129805
136.9232	157.0652	265.8078	400.8005	441.9406	499.3081	539.4114	628.9416	728.3606	763.7537	777.5705	848.1926	892.394	904.4271	919.1958	942.4449	992.4434	1019.7785	1046.5957	1063.8766	1104.1566	1142.7752	1194.2905	1231.6391	1256.2622	1263.703	1302.7135	1355.4176	1417.9671	1497.5321	2346.2925	3005.9712	3106.4257	3136.6867	3209.1792	3221.9554
N#CC12OC3COC1C23	N#C[C@@]12O[C@H]3CO[C@@H]1[C@@H]23	
InChI=1S/C6H5NO2/c7-2-6-4-3(9-6)1-8-5(4)6/h3-5H,1H2	InChI=1S/C6H5NO2/c7-2-6-4-3(9-6)1-8-5(4)6/h3-5H,1H2/t3-,4-,5+,6-/m0/s1
