16
gdb 54391	2.68086	1.57424	1.168	1.5075	69.59	-0.2423	-0.0038	0.2385	1043.0891	0.124854	-437.887766	-437.879745	-437.878801	-437.920981	30.026	
N	 0.0619928968	 1.0449781286	 0.7250561069	-0.548403
C	 0.0035681077	 0.0138279628	-0.1618582904	 0.289189
O	 0.8769643078	-0.2572761238	-0.9621504604	-0.368128
C	-1.276458698	-0.7693489038	-0.0461368546	 0.101299
C	-2.3864838541	-0.9949999949	-1.1355421138	-0.259384
C	-2.9375523701	-1.7819903911	 0.1078301097	-0.181768
C	-1.4627542854	-2.2934077529	 0.2878955094	-0.259315
C	-2.4589321963	-0.5663355982	 0.9053651505	 0.439947
O	-2.7789579485	 0.1755964262	 1.7879806076	-0.358423
H	 0.880613623	 1.6314427034	 0.7351172046	 0.261884
H	-0.6903899156	 1.2204323902	 1.3747142715	 0.279154
H	-2.9432700273	-0.1193144854	-1.472438078	 0.121361
H	-2.06700265	-1.6270208518	-1.9656582184	 0.128594
H	-3.8580297549	-2.3548434659	 0.1825391564	 0.104118
H	-1.1166027198	-2.9629542241	-0.5010627582	 0.128585
H	-1.1573917353	-2.6299075295	 1.2797904471	 0.121292
40.9396	136.3044	185.5726	199.2725	336.7574	354.679	388.5725	523.159	576.736	614.1259	652.3929	730.2844	746.3305	793.3463	805.9999	823.8856	929.0359	952.9146	997.2174	1003.7383	1037.4157	1082.6109	1114.3284	1125.723	1161.2	1185.7285	1192.321	1203.902	1266.67	1405.7655	1495.8492	1533.7147	1627.9968	1800.0754	1894.561	3074.9854	3076.9035	3151.3477	3151.7428	3159.8652	3561.9048	3708.8206
NC(=O)C12CC(C1)C2=O	NC(=O)[C@@]12C[C@@H](C1)C2=O	
InChI=1S/C6H7NO2/c7-5(9)6-1-3(2-6)4(6)8/h3H,1-2H2,(H2,7,9)	InChI=1S/C6H7NO2/c7-5(9)6-1-3(2-6)4(6)8/h3H,1-2H2,(H2,7,9)/t3-,6-
