16
gdb 66112	2.71741	1.52296	1.37211	2.5484	68.17	-0.2855	0.0139	0.2994	993.2703	0.123729	-437.88022	-437.872295	-437.871351	-437.912594	29.782	
C	 0.0773072703	 1.4937583434	-0.0317553107	-0.430355
C	 0.0074235053	-0.0320442539	 0.0044136421	 0.204815
O	 0.7191791881	-0.5375248854	-1.1233526011	-0.278607
C	 1.3514162922	-1.7781298851	-0.8001623298	-0.125196
C	 1.541819772	-1.7471201371	 0.6986026428	 0.032135
O	 2.1113305207	-0.5115772033	 1.157962646	-0.251198
C	 0.6990147727	-0.6707459414	 1.2149532453	-0.006181
C	-1.3996198263	-0.5047474407	-0.0235867835	 0.252234
N	-2.4894148068	-0.8889795337	-0.0332055361	-0.331135
H	 1.1223596799	 1.7910055848	 0.0735174265	 0.151681
H	-0.309409385	 1.8624253613	-0.9839541183	 0.148531
H	-0.5119578581	 1.9276774602	 0.7801947653	 0.134823
H	 0.7231701326	-2.6365240009	-1.079863725	 0.120458
H	 2.2874002258	-1.8214474669	-1.3641936417	 0.13288
H	 1.7961686169	-2.640042875	 1.2608049873	 0.118718
H	 0.2271612897	-0.6562700362	 2.1924415109	 0.126398
104.476	146.0572	201.4744	236.827	262.4492	342.8867	391.9469	465.8458	492.9848	565.1962	632.7402	743.6567	804.8325	849.6701	877.8654	898.082	917.7725	964.8549	1001.9435	1047.8359	1085.9317	1117.3072	1145.6116	1175.4184	1200.2584	1229.245	1261.4059	1312.2089	1371.4696	1402.8317	1439.4946	1481.7412	1491.4005	1502.5077	2351.1244	3006.9528	3057.724	3093.1884	3137.9293	3151.1349	3167.1782	3179.3571
CC1(OCC2OC12)C#N	C[C@]1(OC[C@H]2O[C@@H]12)C#N	
InChI=1S/C6H7NO2/c1-6(3-7)5-4(9-5)2-8-6/h4-5H,2H2,1H3	InChI=1S/C6H7NO2/c1-6(3-7)5-4(9-5)2-8-6/h4-5H,2H2,1H3/t4-,5-,6+/m1/s1
