16
gdb 12716	2.92739	2.26691	1.71288	3.4946	64.95	-0.2321	-0.0306	0.2015	817.1687	0.129305	-383.726145	-383.718727	-383.717782	-383.757797	27.626	
C	-0.3165402192	 1.452044619	 0.002754324	-0.486321
C	 0.0644528418	 0.0001249623	 0.0115988316	 0.332702
O	-1.071403951	-0.9062575148	 0.0897083675	-0.319446
C	-0.5002957257	-1.6141402205	 1.2170403828	-0.080475
C	 0.814241168	-0.8322957341	 1.1169724603	-0.14294
C	 1.7980300162	-1.3950799458	 0.0559041823	-0.364716
C	 1.0647122864	-0.5725553554	-1.0277848264	 0.380098
O	 1.2210154627	-0.4115928995	-2.2013757755	-0.291721
H	 0.5739252831	 2.0888179868	 0.0096224356	 0.125355
H	-0.8853574771	 1.6755638869	-0.9055906935	 0.149161
H	-0.9361951675	 1.6988096283	 0.8697707524	 0.127163
H	-1.0795749589	-1.4269094036	 2.1295604508	 0.107466
H	-0.4429619728	-2.6954006698	 1.0440162535	 0.107459
H	 1.2388427627	-0.3961438673	 2.0186372102	 0.088055
H	 2.8295776974	-1.0493855406	 0.1800028823	 0.13622
H	 1.8132785438	-2.4796034719	-0.0860972678	 0.131942
86.4551	174.1924	192.5572	254.7057	284.7776	365.0524	473.981	511.9223	610.314	660.8924	789.4365	819.749	832.2874	900.4498	913.6265	1000.1187	1023.5856	1034.7132	1045.7554	1091.9783	1139.7666	1146.5318	1170.3112	1184.9853	1227.0112	1298.8582	1316.1817	1348.675	1406.1211	1434.604	1476.6679	1483.3112	1522.9348	1893.3898	3017.3536	3037.4702	3054.0678	3062.9627	3106.0235	3110.7448	3115.8797	3137.7289
CC12OCC1CC2=O	C[C@]12OC[C@H]1CC2=O	
InChI=1S/C6H8O2/c1-6-4(3-8-6)2-5(6)7/h4H,2-3H2,1H3	InChI=1S/C6H8O2/c1-6-4(3-8-6)2-5(6)7/h4H,2-3H2,1H3/t4-,6+/m1/s1
