15
gdb 124047	3.7581	1.65025	1.16493	2.9654	75.28	-0.2009	-0.0108	0.1902	984.8151	0.116485	-416.832356	-416.825714	-416.82477	-416.863356	26.144	
C	 0.039767509	 1.49392523	 0.1117421181	-0.137638
O	 1.3477951846	 2.0782315173	-0.0387707356	-0.268012
C	 2.1572237132	 1.4227079262	-0.8923173128	 0.393271
N	 3.2093255128	 1.9914392497	-1.4465444632	-0.324738
N	 3.7740442494	 0.9657579944	-2.1459893101	-0.190615
C	 3.0983502855	-0.2036847666	-2.0393712162	-0.169209
C	 2.020333076	 0.0457458728	-1.2130249143	 0.130515
C	 0.9404768142	-0.7066690518	-0.6156518433	-0.164103
C	 0.0100286466	-0.0155704076	 0.0551061666	-0.122601
H	-0.3232320303	 1.8568383721	 1.0774538986	 0.125768
H	-0.6227673749	 1.9165706154	-0.663467238	 0.114041
H	 4.5918344017	 1.1569540342	-2.6966190301	 0.276856
H	 3.428141686	-1.098934841	-2.5430500776	 0.138529
H	 0.9105055732	-1.7890615425	-0.683310508	 0.09695
H	-0.8230888772	-0.5050234024	 0.5481918559	 0.100985
122.1661	184.463	327.5445	396.8056	423.7704	462.9522	530.4903	604.7751	638.2514	695.5678	729.4162	763.607	796.3482	851.0607	919.9994	944.7844	975.9224	1030.928	1045.7595	1071.4105	1175.3663	1187.5335	1245.2155	1268.4057	1305.4288	1369.6709	1406.2998	1450.0488	1482.1529	1494.2968	1546.7803	1634.127	1692.6485	2949.8218	3080.9422	3176.1587	3196.6004	3256.9674	3696.6435
C1OC2=NNC=C2C=C1	C1Oc2n[nH]cc2C=C1	
InChI=1S/C6H6N2O/c1-2-5-4-7-8-6(5)9-3-1/h1-2,4H,3H2,(H,7,8)	InChI=1S/C6H6N2O/c1-2-5-4-7-8-6(5)9-3-1/h1-2,4H,3H2,(H,7,8)
