23
gdb 100314	2.28927	1.28104	1.1398	1.0548	81.33	-0.2387	0.081	0.3196	1256.9967	0.202716	-425.396287	-425.385621	-425.384677	-425.431391	39.338	
C	 0.8520536593	 1.4278361293	 0.5778210278	-0.400214
C	 0.9816091694	-0.0674466161	 0.267946318	-0.213454
C	 0.8065840309	-0.4485539533	-1.2191494042	 0.307682
C	-0.5522760289	 0.0076487191	-1.7704070824	-0.412242
O	 1.7619224551	 0.182942439	-2.0740555051	-0.29462
C	 3.1298364415	 0.2009891731	-1.6860448645	-0.257749
C	 0.8537726253	-1.9735470985	-1.3503042514	 0.094967
C	 1.3945626973	-2.653074806	-2.5298515527	-0.193852
O	 2.1181857816	-2.6366017768	-1.2899096763	-0.251477
H	 1.5036915935	 2.0279656222	-0.0632711638	 0.13041
H	-0.171485855	 1.7851287165	 0.4321425458	 0.11838
H	 1.1234483183	 1.6276853988	 1.61882468	 0.112588
H	 1.954413483	-0.4384848687	 0.6085886917	 0.113775
H	 0.235190483	-0.6266186984	 0.8452950435	 0.09471
H	-0.633707264	 1.0953523027	-1.7313845727	 0.127766
H	-0.6524355052	-0.300755486	-2.8144672447	 0.123226
H	-1.37730636	-0.4267238606	-1.1973703118	 0.110318
H	 3.5087437888	-0.7963060187	-1.4512351051	 0.141169
H	 3.6742823735	 0.6026585126	-2.5451781859	 0.119128
H	 3.3088444558	 0.8654719732	-0.830269633	 0.104057
H	 0.0682602907	-2.4825980371	-0.7867654244	 0.085686
H	 1.0038951929	-3.626142109	-2.8229055711	 0.112593
H	 1.8299510633	-2.0530235174	-3.324537398	 0.127151
83.4158	133.2813	153.1234	168.2127	178.0307	206.3811	226.812	258.4411	287.8624	309.9285	340.1148	381.1063	445.8514	526.1331	607.3647	696.2675	781.0345	834.7466	884.8825	888.0156	941.3825	991.4136	1006.7088	1017.0754	1064.0904	1098.5839	1111.3608	1154.0316	1170.1571	1180.95	1185.6637	1192.5891	1217.3805	1254.1172	1293.8836	1328.0373	1372.6835	1403.7313	1409.7632	1427.8396	1471.7806	1479.9657	1485.9109	1492.158	1500.5642	1504.4218	1511.0772	1521.0479	1527.8579	3011.6901	3034.807	3043.8728	3048.051	3070.229	3080.213	3087.7604	3096.6541	3108.7127	3118.047	3119.3725	3126.5691	3136.6976	3192.3377
CCC(C)(OC)C1CO1	CC[C@@](C)(OC)[C@H]1CO1	
InChI=1S/C7H14O2/c1-4-7(2,8-3)6-5-9-6/h6H,4-5H2,1-3H3	InChI=1S/C7H14O2/c1-4-7(2,8-3)6-5-9-6/h6H,4-5H2,1-3H3/t6-,7-/m1/s1
