17
gdb 70278	3.28632	1.27743	1.08045	3.6606	69.19	-0.2358	-0.0358	0.2	1132.4527	0.133589	-458.946165	-458.937726	-458.936782	-458.979696	31.056	
C	 0.1424717241	 1.2366984068	-0.4393795303	-0.46629
C	-0.0850580414	-0.1745702629	 0.0174695155	 0.389537
C	-0.8892945789	-0.5489893957	 1.2478491867	-0.356147
C	 0.5861193994	-0.8819144921	 1.1439093335	 0.017724
O	 0.8871235097	-2.1900677688	 0.7040068944	-0.266306
C	 0.6926237541	-2.2062531947	-0.7008220761	 0.097916
O	-0.1671190545	-1.1322735971	-1.0334949246	-0.297015
C	 2.0415252378	-2.024921548	-1.4034086137	 0.159808
O	 2.4975193015	-2.8096634511	-2.1901824872	-0.233925
H	 1.0607426308	 1.3161783993	-1.0297478919	 0.128017
H	-0.6925060926	 1.5783296546	-1.0592625397	 0.139705
H	 0.2216126157	 1.9080215013	 0.4202644558	 0.125321
H	-1.1792660889	 0.2481502479	 1.9253134256	 0.119179
H	-1.5886882614	-1.3721980763	 1.1597466801	 0.132608
H	 1.3310044343	-0.4430093354	 1.7979297294	 0.114488
H	 0.23875343	-3.1548993963	-1.0024659596	 0.115726
H	 2.5741350205	-1.0892862214	-1.1174290779	 0.079656
65.9267	81.4799	186.8304	204.6576	309.4538	321.176	350.3853	392.4177	403.4952	508.65	621.7671	761.2437	773.4458	843.4923	854.9326	908.9177	959.8294	983.0827	1015.6252	1031.0218	1043.4787	1071.8589	1088.4163	1109.3701	1136.44	1145.7495	1234.3144	1270.9914	1321.5849	1340.1115	1393.4902	1417.2822	1425.6784	1472.487	1480.9384	1501.3304	1844.3815	2877.027	3038.4694	3082.4787	3106.378	3118.4412	3131.9094	3176.0026	3232.1691
CC12CC1OC(O2)C=O	C[C@]12C[C@H]1O[C@@H](O2)C=O	
InChI=1S/C6H8O3/c1-6-2-4(6)8-5(3-7)9-6/h3-5H,2H2,1H3	InChI=1S/C6H8O3/c1-6-2-4(6)8-5(3-7)9-6/h3-5H,2H2,1H3/t4-,5+,6+/m1/s1
