23
gdb 81033	2.33477	1.74746	1.28326	1.2369	84.86	-0.2302	0.0835	0.3137	1110.9062	0.206844	-388.291519	-388.282925	-388.28198	-388.323815	34.966	
C	-0.144007143	 1.5122909596	-0.0935811754	-0.430921
C	 0.0293708309	-0.0001712119	-0.0079280317	 0.008544
C	 1.2101162564	-0.5874272074	-0.8451065743	-0.024732
C	 2.111246191	-0.4037549372	 0.4113609214	-0.297162
C	 0.7989760039	-0.5696141069	 1.2320534455	 0.4341
C	 0.6558771322	 0.0500146543	 2.6032342966	-0.469789
O	 0.4459356802	-1.9535548884	 1.3615612311	-0.314472
C	 0.9168969695	-2.7905790281	 0.3091762617	-0.067359
C	 0.9454286765	-2.0846357299	-1.0641260805	-0.238068
H	 0.7979733421	 2.0517196505	 0.0507423466	 0.113742
H	-0.5336829158	 1.7962455616	-1.0775864985	 0.113829
H	-0.8522233813	 1.8752001261	 0.658880337	 0.117399
H	-0.9357051673	-0.4948328367	-0.163532253	 0.060922
H	 1.4872158299	-0.0708104427	-1.7679641415	 0.056149
H	 2.9274493433	-1.1082493086	 0.5892641885	 0.094821
H	 2.501448499	 0.6120889011	 0.4968845905	 0.099317
H	 0.8452932954	 1.126384141	 2.5702886367	 0.111198
H	-0.3543069497	-0.1151598481	 2.9916270936	 0.122914
H	 1.3638165719	-0.4064652839	 3.3020792835	 0.119565
H	 1.928046398	-3.1478179221	 0.5528987144	 0.092676
H	 0.2630442643	-3.6676433617	 0.2988630385	 0.103587
H	-0.004915548	-2.2122903666	-1.5955829836	 0.10005
H	 1.7265226405	-2.543271944	-1.6818423972	 0.093691
181.9683	205.2816	214.0918	233.3972	244.9156	278.1519	330.2185	394.2727	442.5719	476.0311	480.809	599.6958	670.3432	799.1166	813.284	819.5745	852.7993	871.7609	906.9833	923.9766	969.2811	1014.149	1034.5592	1050.6134	1068.1685	1078.706	1119.4394	1142.3949	1150.0371	1186.466	1211.8404	1217.1879	1249.9559	1265.2078	1288.1477	1308.1249	1318.8241	1351.0803	1377.7164	1407.256	1409.8036	1412.3408	1480.738	1489.128	1490.961	1492.8781	1499.2166	1503.9528	1526.9391	2988.4644	3025.836	3027.7454	3038.2153	3040.1843	3062.3546	3065.8638	3073.9426	3080.0197	3090.4328	3098.0778	3106.9606	3118.1788	3123.1942
CC1C2CC1(C)OCC2	C[C@H]1[C@H]2C[C@]1(C)OCC2	
InChI=1S/C8H14O/c1-6-7-3-4-9-8(6,2)5-7/h6-7H,3-5H2,1-2H3	InChI=1S/C8H14O/c1-6-7-3-4-9-8(6,2)5-7/h6-7H,3-5H2,1-2H3/t6-,7+,8-/m0/s1
