18
gdb 67672	2.56881	1.91887	1.41585	3.9205	75.26	-0.2372	0.0047	0.2419	970.4104	0.149223	-401.950647	-401.943115	-401.942171	-401.982479	29.348	
C	 0.0712430442	 1.5472297636	 0.1118560942	-0.511288
C	 0.0616047029	 0.0516858027	-0.0061129963	 0.163499
C	-0.9751346262	-0.8641289825	 0.7309823825	-0.083259
C	-1.563699415	-2.0748171471	 0.0047046009	-0.262049
C	-0.2906742799	-2.8968401332	-0.3667832105	-0.181191
N	 0.8350744477	-1.9414255073	-0.2089818751	-0.166918
C	 0.4795888705	-1.066691502	 0.943699982	-0.084381
C	 0.6152615855	-0.8048390063	-1.0994920876	 0.375204
O	 0.8398053616	-0.6924492023	-2.2682881981	-0.334813
H	 1.0748072369	 1.9483928073	-0.0610459459	 0.13786
H	-0.6004701421	 1.9995911809	-0.624868184	 0.140151
H	-0.2558544665	 1.869114509	 1.105415883	 0.123182
H	-1.5678253635	-0.3342840847	 1.4700056842	 0.099519
H	-2.2310559802	-2.6335245694	 0.6679456503	 0.108398
H	-2.1406922275	-1.7884985284	-0.8798620267	 0.119543
H	-0.1412832972	-3.7377905887	 0.3158880856	 0.11305
H	-0.3001683411	-3.2772119071	-1.3898641302	 0.132965
H	 1.0705547699	-1.0327534345	 1.8482866218	 0.11053
127.2401	158.9466	218.6938	232.8673	241.5462	383.3163	489.9864	591.4397	651.7522	681.8898	736.6119	807.0679	827.1036	847.9683	862.0584	905.7459	911.9713	926.6465	961.9093	995.0831	1029.885	1049.7837	1081.4215	1106.8567	1127.5767	1202.7765	1216.4622	1249.0852	1256.4019	1283.0413	1319.4535	1342.935	1408.9838	1426.396	1484.3996	1489.3865	1495.9448	1503.5752	1895.9256	3035.9868	3052.1567	3065.5206	3092.6786	3103.0907	3106.697	3129.3456	3169.7843	3215.7975
CC12C3CCN(C13)C2=O	C[C@]12[C@H]3CCN([C@@H]13)C2=O	
InChI=1S/C7H9NO/c1-7-4-2-3-8(5(4)7)6(7)9/h4-5H,2-3H2,1H3	InChI=1S/C7H9NO/c1-7-4-2-3-8(5(4)7)6(7)9/h4-5H,2-3H2,1H3/t4-,5+,7-/m0/s1
