21
gdb 111530	2.51858	1.43275	1.11262	1.1715	82.82	-0.239	0.0769	0.316	1174.5622	0.182781	-387.034068	-387.025454	-387.02451	-387.067343	33.771	
O	 0.3722293051	 0.3029177092	 0.9516322165	-0.422806
C	-0.0499761753	 0.1082748403	-0.3958768274	-0.104494
C	-1.4207836877	-0.5166824797	-0.3614687869	-0.000645
C	-1.9839457192	-1.4568583462	-1.3973258537	-0.088365
C	-0.9320478195	-2.4279877832	-1.9622610195	-0.323102
C	-0.6200778906	-2.872735465	-0.5182465289	 0.390587
C	-0.3597756924	-4.2732394582	-0.0552805088	-0.353913
C	 0.7048192053	-3.209060758	 0.1044706952	-0.313436
C	-1.6885700775	-1.945802531	 0.0292334793	-0.132007
H	 1.228103	 0.7416158626	 0.9322480007	 0.283189
H	-0.1007772298	 1.0685139653	-0.9340991528	 0.080645
H	 0.658056294	-0.5331100336	-0.9364300585	 0.091763
H	-2.1775757779	 0.1589258452	 0.0328600006	 0.08814
H	-2.9456866584	-1.266080077	-1.8580886017	 0.08334
H	-1.393439739	-3.228917331	-2.5469877075	 0.103341
H	-0.114898059	-1.9952097199	-2.5498873063	 0.09149
H	-0.8753533813	-4.6195867258	 0.8353266556	 0.111188
H	-0.2054734351	-5.0423758157	-0.8060130154	 0.106872
H	 1.5739356192	-3.26547125	-0.5441642568	 0.104002
H	 0.9099119255	-2.8200414435	 1.0960418766	 0.122316
H	-2.3832494961	-2.1983283949	 0.8222025296	 0.081896
61.8655	142.3987	173.7332	245.3567	271.5025	293.2157	312.2091	418.7766	474.4532	534.2429	608.2111	755.5085	770.4446	782.9755	828.9042	861.9027	896.0806	920.0115	934.0784	963.6307	989.5173	1002.8622	1022.2031	1050.5238	1061.6859	1067.6818	1071.4881	1075.1272	1106.7478	1165.58	1185.9992	1187.3259	1229.0429	1244.3553	1259.8597	1278.687	1292.1508	1321.8829	1397.192	1423.1835	1464.556	1478.9531	1495.5445	1505.233	1518.2393	2971.721	3026.6884	3037.8782	3088.4096	3117.7013	3124.7079	3129.8735	3170.9839	3183.678	3196.9326	3214.5225	3823.2678
OCC1C2CC3(CC3)C12	OC[C@H]1[C@H]2CC3(CC3)[C@@H]12	
InChI=1S/C8H12O/c9-4-6-5-3-8(1-2-8)7(5)6/h5-7,9H,1-4H2	InChI=1S/C8H12O/c9-4-6-5-3-8(1-2-8)7(5)6/h5-7,9H,1-4H2/t5-,6+,7-/m1/s1
