20
gdb 58335	2.07416	1.32881	1.07456	4.1156	71.59	-0.2497	0.0059	0.2556	1220.0243	0.17056	-477.447392	-477.437513	-477.436569	-477.481913	36.621	
C	-1.1797129023	 0.2608037372	 1.4501048274	-0.427487
C	-0.5072007212	-0.0216873891	 0.1053658172	 0.11351
O	 0.5636269649	-0.9506168982	 0.2016450146	-0.461825
C	-1.4389035794	-0.4202978213	-1.0614975705	 0.10323
O	-0.7421699116	-0.2213961303	-2.2861351669	-0.431969
C	-1.9130469153	-1.8904946001	-1.085557857	-0.195829
N	-2.7268322199	-2.3633260381	 0.0281561669	-0.258413
C	-2.2014768616	-3.0087169648	 1.0912797561	 0.150323
O	-1.0069557796	-3.1455015688	 1.3067936098	-0.336564
H	-0.4398477518	 0.6755563981	 2.1405182788	 0.127992
H	-1.9873896382	 0.9917642579	 1.3359446025	 0.107995
H	-1.5888988821	-0.6396522723	 1.9101107229	 0.130045
H	-0.0426025286	 0.9124276006	-0.2352276489	 0.093051
H	 0.2160813576	-1.7548278353	 0.6260173613	 0.306223
H	-2.3039330764	 0.2540241935	-1.0848661858	 0.075461
H	 0.1410245106	-0.5873833906	-2.140192506	 0.290091
H	-2.476688776	-2.0335067334	-2.010516959	 0.123105
H	-1.0273228307	-2.5291255233	-1.1338962147	 0.138221
H	-3.7305911103	-2.315534906	-0.0437660336	 0.257231
H	-2.9723685682	-3.4069583858	 1.7757911547	 0.09561
85.6103	116.4885	148.7717	178.9357	213.2551	235.235	256.5976	323.9031	352.5682	381.2313	453.9707	482.2062	546.3417	549.1035	608.3696	694.8043	753.4696	795.5831	912.9454	969.8544	1004.2402	1016.5299	1033.9275	1070.1557	1103.4664	1109.3451	1167.4713	1221.3487	1259.1331	1271.588	1345.0683	1355.631	1365.6007	1405.9399	1412.423	1425.5596	1430.9849	1466.8205	1472.2153	1493.9742	1503.9174	1537.1988	1770.1692	2971.1572	3028.797	3036.9585	3047.7831	3070.8736	3110.6472	3123.8567	3149.3752	3629.7281	3638.3794	3757.7074
CC(O)C(O)CNC=O	C[C@@H](O)[C@@H](O)CNC=O	
InChI=1S/C5H11NO3/c1-4(8)5(9)2-6-3-7/h3-5,8-9H,2H2,1H3,(H,6,7)	InChI=1S/C5H11NO3/c1-4(8)5(9)2-6-3-7/h3-5,8-9H,2H2,1H3,(H,6,7)/t4-,5+/m1/s1
