20
gdb 58790	3.49397	1.09968	0.97416	4.0409	79.71	-0.2424	0.0123	0.2548	1279.6049	0.170289	-403.153271	-403.144313	-403.143369	-403.186876	34.387	
C	-0.0135572137	 1.5503396051	 0.1530134561	-0.393514
C	-0.0037773499	 0.017665846	 0.0227955022	-0.060129
C	 0.8510034458	-0.6254969715	 1.1218750506	-0.404302
C	-1.4143641838	-0.5175196253	-0.0059411323	 0.405653
C	-2.2583529576	-0.9586636143	 1.1506187436	-0.32616
C	-1.9502479723	-1.9435097436	 0.0120823859	-0.308413
C	-2.819316773	-1.537657897	-1.163416067	 0.43778
O	-3.6590866853	-2.0509582108	-1.8458802524	-0.346238
N	-2.2691593486	-0.2369627797	-1.1780406349	-0.406261
H	 1.0054009362	 1.9479882418	 0.1144131201	 0.116779
H	-0.5826054678	 2.0155200113	-0.6579211406	 0.118161
H	-0.460233815	 1.8605463787	 1.1043882616	 0.116434
H	 0.4389371076	-0.2334719135	-0.9501196808	 0.090656
H	 0.4899092251	-0.3556292866	 2.120341114	 0.119449
H	 0.8578272782	-1.7172559071	 1.0444161237	 0.119171
H	 1.88597158	-0.2796605215	 1.0444492292	 0.120431
H	-1.7452366605	-1.1819925323	 2.0811401027	 0.125328
H	-3.2682899104	-0.5776491755	 1.2735693628	 0.119959
H	-1.4417781768	-2.8827204831	 0.1774131818	 0.117564
H	-2.8486900583	 0.5920211588	-1.2606899962	 0.237651
62.1493	125.0792	178.3224	234.7704	259.212	292.9852	315.8804	377.162	450.6354	455.4557	497.3214	575.2916	668.7608	706.2498	765.3012	861.1742	873.2595	910.1907	929.5783	932.319	965.9628	976.3928	991.2696	1047.5514	1074.8258	1104.8547	1128.5609	1138.7784	1176.4472	1213.2591	1246.5172	1312.8553	1347.6738	1354.7625	1394.893	1398.5343	1422.1578	1487.8563	1490.3584	1497.5776	1506.1454	1514.6138	1899.0088	3019.3928	3030.3474	3035.6685	3098.9174	3104.0469	3105.8932	3109.862	3118.5313	3206.8593	3223.3658	3533.4997
CC(C)C12CC1C(=O)N2	CC(C)[C@]12C[C@H]1C(=O)N2	
InChI=1S/C7H11NO/c1-4(2)7-3-5(7)6(9)8-7/h4-5H,3H2,1-2H3,(H,8,9)	InChI=1S/C7H11NO/c1-4(2)7-3-5(7)6(9)8-7/h4-5H,3H2,1-2H3,(H,8,9)/t5-,7+/m0/s1
