13
gdb 27083	3.51781	1.13695	0.87547	4.1278	63.38	-0.2153	-0.0063	0.2089	1212.2224	0.089165	-489.921383	-489.913324	-489.91238	-489.954998	28.052	
N	 0.0471963103	 1.342174181	 0.2986405794	-0.603657
C	-0.0388816324	-0.015123286	 0.0596968926	 0.266921
C	-1.0538598314	-0.8859810672	-0.1866770745	 0.260761
O	-2.360170623	-0.5448199644	-0.4150444386	-0.229924
C	-3.330460321	-1.3208187258	 0.1567983202	 0.156852
O	-4.4859111001	-1.1046406762	-0.0314707213	-0.259582
N	-0.5710197302	-2.1769770424	-0.2407603369	-0.308964
C	 0.69695645	-2.04465385	-0.0350777395	 0.064124
O	 1.1000754912	-0.7572524327	 0.1570369284	-0.163057
H	 0.800131619	 1.7957532008	-0.2059892461	 0.265146
H	-0.833243679	 1.8062009658	 0.1150827365	 0.27191
H	-2.9111132403	-2.1301381588	 0.7738593759	 0.119194
H	 1.4627533969	-2.8015686042	-0.0122350061	 0.160274
51.6011	120.0655	153.1704	181.5618	273.197	282.2452	393.3351	483.9848	525.7858	642.3008	699.2447	704.7307	761.7421	772.6661	869.2096	954.0294	1031.836	1039.5119	1116.5492	1125.4753	1211.013	1287.8721	1333.6706	1414.2211	1438.6399	1557.5316	1631.8929	1720.1755	1874.6817	3034.3134	3293.3715	3529.2402	3629.9115
NC1=C(OC=O)N=CO1	Nc1c(OC=O)nco1	
InChI=1S/C4H4N2O3/c5-3-4(9-2-7)6-1-8-3/h1-2H,5H2	InChI=1S/C4H4N2O3/c5-3-4(9-2-7)6-1-8-3/h1-2H,5H2
