19
gdb 26939	2.91266	1.35594	1.00358	1.5508	84.57	-0.1898	0.0484	0.2381	1211.4506	0.160299	-382.075936	-382.067372	-382.066428	-382.109511	32.452	
C	 0.1393918125	 1.4885975161	 0.0231950474	-0.511162
C	 0.0424651103	 0.0017563558	-0.0036195752	 0.233036
C	-0.1464560126	-0.8541843352	-1.0700323206	 0.212977
C	-0.1662318932	-2.1924884065	-0.5608996786	-0.234766
C	 0.011033518	-2.1086469874	 0.7977399334	-0.086154
N	 0.1355770706	-0.7810198936	 1.1243131383	-0.295749
N	-0.2855427857	-0.3836276091	-2.4034251533	-0.177345
C	 0.2765099275	-1.1984858467	-3.4851769984	-0.223593
C	-1.1943825864	-1.1059231013	-3.299167023	-0.223589
H	 1.1032349835	 1.8374663352	 0.4154918086	 0.11872
H	 0.0352116215	 1.8588737871	-0.9986053843	 0.15489
H	-0.648522051	 1.9477422922	 0.6339331539	 0.118781
H	-0.2946356324	-3.105700868	-1.1219299223	 0.087811
H	 0.0586992971	-2.8748654909	 1.5546637001	 0.113396
H	 0.2752921835	-0.4259996096	 2.0537968133	 0.255431
H	 0.7671710851	-0.6426598664	-4.2799231699	 0.112667
H	 0.7615567721	-2.1328745622	-3.2133808051	 0.115989
H	-1.7083670829	-1.9774479818	-2.9010573766	 0.115989
H	-1.7943314876	-0.4814796976	-3.9560143977	 0.112669
47.6879	145.2293	173.9449	179.0669	234.7053	278.3293	440.2334	453.7941	476.4612	560.329	637.9423	684.5906	694.4308	725.499	814.9631	817.3469	857.4013	894.0036	933.707	976.5874	1033.316	1067.1303	1078.3265	1109.2997	1111.0997	1119.3536	1162.9439	1168.2145	1177.8596	1236.5195	1277.756	1355.1974	1403.6935	1433.6779	1477.1614	1489.3495	1490.1772	1495.8829	1515.1999	1524.8038	1638.918	3012.6693	3055.1514	3100.3195	3103.7863	3133.657	3179.8448	3195.4533	3241.1968	3266.7357	3682.3879
CC1=C(C=CN1)N1CC1	Cc1c(cc[nH]1)N1CC1	
InChI=1S/C7H10N2/c1-6-7(2-3-8-6)9-4-5-9/h2-3,8H,4-5H2,1H3	InChI=1S/C7H10N2/c1-6-7(2-3-8-6)9-4-5-9/h2-3,8H,4-5H2,1H3
