23
gdb 109591	1.89098	1.60895	1.14193	2.4807	82.28	-0.2448	0.0661	0.311	1228.1387	0.204028	-425.409325	-425.398946	-425.398002	-425.444134	38.593	
C	 0.0816752436	 1.3551717925	-0.1415042847	-0.240323
O	 0.045502833	-0.0248652079	 0.1614024456	-0.255142
C	-1.2453253171	-0.6159074901	 0.0754234955	 0.071516
C	-1.5037260298	-1.3175499515	-1.2994504773	-0.0147
C	-0.9571256888	-0.7474827591	-2.5978187212	-0.416652
C	-0.8376826296	-2.5943886042	-0.6898079002	 0.112038
O	 0.5476333183	-2.6960674631	-0.9438042456	-0.438717
C	-1.1895833538	-2.0280311208	 0.72254346	-0.021468
C	-0.271353972	-2.2916920811	 1.9037351107	-0.407784
H	 1.1107016716	 1.6909744293	 0.0094521059	 0.128623
H	-0.2114997048	 1.5652556977	-1.1782213121	 0.114877
H	-0.579319799	 1.9232121413	 0.5296054729	 0.111175
H	-2.0018086559	 0.090395418	 0.4438153692	 0.055255
H	-2.5819010468	-1.4948784026	-1.3888949317	 0.072554
H	 0.1156970293	-0.5516872226	-2.5295244786	 0.119372
H	-1.1056100128	-1.4583303619	-3.4175338021	 0.119755
H	-1.4615128309	 0.1854825642	-2.8716795827	 0.108485
H	-1.2664023393	-3.5621730343	-0.9636642329	 0.070681
H	 0.9427133696	-1.8521190095	-0.6878646566	 0.287907
H	-2.2161269878	-2.3236500524	 0.9663384538	 0.074835
H	 0.7618796747	-2.0233157028	 1.6767110797	 0.123105
H	-0.5833688893	-1.7126292533	 2.7794331157	 0.109556
H	-0.2917590624	-3.3520032758	 2.1758308369	 0.115051
96.2802	126.0142	153.6828	160.133	198.734	216.6128	227.6683	242.0806	255.5635	337.9805	451.8082	475.339	500.6967	526.2584	623.9072	736.5278	755.1723	843.6321	870.4561	918.3518	955.4859	980.2868	1008.8058	1047.3334	1107.7443	1131.2336	1147.5638	1158.2645	1172.1762	1179.5291	1185.0236	1216.1038	1249.5346	1256.5621	1266.2488	1328.3742	1342.368	1377.276	1386.7174	1407.8664	1415.7889	1455.7301	1479.17	1484.8807	1490.4622	1494.3794	1496.4775	1498.0388	1512.4494	2991.1838	3005.7063	3033.0773	3037.9189	3040.7143	3049.7622	3052.0376	3076.1401	3094.697	3098.9851	3115.2458	3120.4193	3132.9482	3760.4272
COC1C(C)C(O)C1C	CO[C@H]1[C@@H](C)[C@@H](O)[C@H]1C	
InChI=1S/C7H14O2/c1-4-6(8)5(2)7(4)9-3/h4-8H,1-3H3	InChI=1S/C7H14O2/c1-4-6(8)5(2)7(4)9-3/h4-8H,1-3H3/t4-,5+,6+,7-
