16
gdb 80519	2.35766	1.43623	1.27822	4.0763	70.57	-0.2695	0.0092	0.2788	1053.3217	0.124702	-437.8652	-437.857112	-437.856168	-437.897661	30.972	
O	-0.0896212146	 1.4298251343	 0.2328571774	-0.423563
C	-0.0741116297	 0.0300318042	 0.1363943113	 0.051804
C	-0.4760541549	-0.7896060289	 1.3017407149	-0.139413
C	-1.589646053	-0.1095511435	 2.0976928504	-0.276077
C	-2.4921457561	-0.0811343429	 0.8179601134	 0.082179
O	-2.9868837613	 1.138394713	 0.3566828461	-0.430302
C	-1.3591299546	-0.7636156697	 0.0032168915	 0.119422
C	-1.5379252299	-1.7551967752	-1.0018576788	 0.17109
N	-1.6894955722	-2.5616664191	-1.8196947138	-0.348551
H	 0.0121965259	 1.7883154988	-0.6561628943	 0.303528
H	 0.7535334931	-0.3728848616	-0.4438180162	 0.124589
H	 0.1365230432	-1.6114983673	 1.6498558046	 0.120791
H	-2.0025927992	-0.7403922446	 2.886089333	 0.119834
H	-1.3374356947	 0.8683916919	 2.513352272	 0.122212
H	-3.3469389955	-0.7522925861	 0.9175962863	 0.116861
H	-2.2321094965	 1.7393523867	 0.3188323322	 0.285596
125.4817	145.5944	174.042	231.6394	315.7911	359.2938	399.9543	461.9006	524.6861	538.5599	560.0511	574.5875	670.3463	773.4894	798.549	848.636	894.5596	957.3439	1000.2364	1042.5383	1067.5336	1105.6137	1120.8947	1150.8222	1197.8787	1217.1871	1245.3204	1270.4726	1300.7116	1334.0993	1340.7187	1455.1832	1469.2422	1495.5777	2336.9548	3076.7503	3102.3298	3134.2209	3135.7553	3202.3322	3775.6549	3805.3082
OC1C2CC(O)C12C#N	O[C@H]1[C@H]2C[C@@H](O)[C@@]12C#N	
InChI=1S/C6H7NO2/c7-2-6-3(5(6)9)1-4(6)8/h3-5,8-9H,1H2	InChI=1S/C6H7NO2/c7-2-6-3(5(6)9)1-4(6)8/h3-5,8-9H,1H2/t3-,4-,5+,6+/m1/s1
