19
gdb 71190	2.49453	1.68984	1.37592	2.5883	78.67	-0.2374	-0.0204	0.2169	1018.1876	0.158455	-385.851895	-385.843859	-385.842915	-385.884445	31.254	
C	 0.1286879962	 1.5473757501	-0.0686502838	-0.51534
C	 0.1009372171	 0.0458093191	 0.0295295733	 0.312037
C	-1.2469536601	-0.7366166712	 0.1163954215	-0.276376
C	-0.4596430883	-1.8253829682	 0.8391976356	-0.060692
C	 0.9296748121	-1.9012877283	 0.1877972145	-0.099356
C	 0.6239899235	-0.8560893003	 1.2346601437	-0.135369
C	 0.9793412827	-0.8339306106	-0.9123095159	-0.117071
C	 0.5434591329	-1.1508444964	-2.319466301	 0.133925
O	-0.3006301341	-0.5486703968	-2.9368364536	-0.251095
H	 1.150933515	 1.9362675496	 0.000081192	 0.112608
H	-0.2902671901	 1.8681470331	-1.0283769705	 0.14113
H	-0.4602845985	 2.0088036455	 0.7313153405	 0.116122
H	-1.935180689	-0.2339531359	 0.8026503027	 0.096055
H	-1.7615464959	-0.9678541416	-0.8197484369	 0.111845
H	-0.8395885114	-2.6604626188	 1.4138564163	 0.086316
H	 1.558176697	-2.7758744791	 0.293968818	 0.08903
H	 1.1029019308	-0.6309206782	 2.1766214832	 0.091278
H	 2.0021549859	-0.4332041299	-0.9697622153	 0.093977
H	 1.0848366643	-2.0089841321	-2.7865868244	 0.070975
74.1157	154.3888	198.5564	225.674	288.041	296.0339	414.0536	483.4446	595.1195	662.5363	688.5794	758.2733	788.333	794.2832	822.2004	862.0797	929.5783	952.4625	976.2767	985.7737	1013.43	1023.043	1039.5866	1076.5421	1077.7568	1129.9213	1139.2551	1157.1321	1176.0848	1209.1385	1241.256	1293.3504	1309.6203	1358.1122	1372.9362	1410.9172	1423.5627	1491.1571	1493.4906	1506.2844	1817.7472	2839.5586	3007.0054	3026.0546	3053.8909	3090.722	3101.3862	3109.7573	3192.707	3199.5591	3222.9028
CC12CC3C(C13)C2C=O	C[C@]12C[C@H]3[C@H]([C@@H]13)[C@H]2C=O	
InChI=1S/C8H10O/c1-8-2-4-6(7(4)8)5(8)3-9/h3-7H,2H2,1H3	InChI=1S/C8H10O/c1-8-2-4-6(7(4)8)5(8)3-9/h3-7H,2H2,1H3/t4-,5+,6-,7-,8+/m0/s1
