23
gdb 59722	2.21999	1.39219	1.08846	1.6341	87.88	-0.2244	0.0243	0.2487	1268.3658	0.204423	-388.311686	-388.301638	-388.300694	-388.346446	37.37	
C	 0.6319178093	-0.1485814884	-1.0252556939	-0.393241
C	-0.2890523398	 0.1603128469	 0.161165421	 0.02582
C	-0.5802785192	 1.6635262475	 0.2639070374	-0.392223
C	-1.6101042665	-0.6349641969	 0.093069153	 0.04836
O	-2.3295491546	-0.2954021531	-1.0971336852	-0.282425
C	-2.7178928764	-1.4734584955	-1.7979400282	-0.115925
C	-2.1057031382	-2.604665988	-1.0259613387	-0.210379
C	-1.4748766814	-2.142854851	 0.0505717622	 0.3136
C	-0.7667707438	-2.914486009	 1.1174555129	-0.500694
H	 1.5719041084	 0.4057940458	-0.9412479068	 0.106184
H	 0.8727897064	-1.2143490549	-1.088008262	 0.10959
H	 0.1507416784	 0.1412945288	-1.9641829241	 0.126964
H	 0.2112604446	-0.1539857414	 1.0886316277	 0.066577
H	-1.12209939	 2.0077994695	-0.62202145	 0.133188
H	-1.1943050755	 1.8910607578	 1.1421970224	 0.105322
H	 0.3474188188	 2.2392599844	 0.3435191962	 0.104385
H	-2.2154629073	-0.3413516659	 0.9712920618	 0.067206
H	-3.8178049095	-1.54489222	-1.837512668	 0.100297
H	-2.3620161871	-1.4173002994	-2.8382239686	 0.103162
H	-2.2021395456	-3.6433319578	-1.3186540455	 0.096317
H	-0.8340526436	-3.9912050664	 0.9421378234	 0.126159
H	 0.2951352737	-2.6460527898	 1.1721733688	 0.133418
H	-1.1932688412	-2.7030638431	 2.1062749541	 0.128339
75.7198	92.3831	160.5491	176.7827	217.6967	237.6348	247.8166	261.6703	279.5091	374.0147	400.5548	516.2194	560.7884	635.599	770.3371	790.3768	835.9219	900.6748	927.4136	933.1435	946.7671	968.2758	1007.7633	1032.8864	1045.3009	1061.8919	1087.3376	1126.5676	1144.1251	1196.5616	1204.7595	1212.2203	1286.4664	1322.2665	1329.1928	1359.8652	1374.4821	1390.4942	1398.6478	1416.8485	1420.9246	1481.0601	1485.4815	1489.2273	1497.4484	1502.4551	1515.0892	1522.3403	1732.5609	2917.3496	2961.7715	2989.3949	3001.9182	3021.8184	3031.5263	3038.1813	3068.5064	3096.0277	3103.2148	3111.2751	3114.2792	3115.9448	3205.916
CC(C)C1OCC=C1C	CC(C)[C@H]1OCC=C1C	
InChI=1S/C8H14O/c1-6(2)8-7(3)4-5-9-8/h4,6,8H,5H2,1-3H3	InChI=1S/C8H14O/c1-6(2)8-7(3)4-5-9-8/h4,6,8H,5H2,1-3H3/t8-/m1/s1
