17
gdb 46216	3.0882	1.53505	1.22837	4.2387	72.11	-0.2568	0.0083	0.2651	1028.8764	0.137165	-421.818253	-421.810894	-421.80995	-421.85024	28.206	
O	 0.0271475692	 0.0665704612	-0.3423170495	-0.349201
C	 0.0808426932	 1.2193472125	-0.0495138816	 0.43687
O	-0.9287715851	 2.0057862658	 0.4695581958	-0.254424
C	-0.0610212029	 3.1854928993	 0.5211320736	-0.169936
C	 1.0755293479	 2.3471703871	-0.0505910257	 0.140214
C	 2.5287429749	 2.3768736969	 0.3367258414	-0.128998
C	 3.2385425103	 1.1227317604	-0.1934544093	-0.23268
C	 2.7955346202	 1.5121018657	-1.6451302856	-0.232679
C	 2.097673216	 2.7557324514	-1.0757836927	-0.129003
H	-0.4542312132	 3.9818266834	-0.1156099216	 0.126411
H	 0.0541368448	 3.5350717835	 1.5500805877	 0.126411
H	 2.8559148371	 3.0098323752	 1.1538397427	 0.096336
H	 4.3213741618	 1.1712538009	-0.0643252432	 0.109389
H	 2.8731845488	 0.1678348308	 0.1900763605	 0.127782
H	 3.6444267251	 1.7662432288	-2.2825843796	 0.10939
H	 2.1534988725	 0.8003843745	-2.1682533903	 0.12778
H	 2.0334080795	 3.7327184226	-1.5413175626	 0.096336
124.5451	140.2083	148.1548	287.5918	320.1705	373.9401	467.769	658.3792	679.8769	776.26	795.656	809.2074	840.1543	860.067	911.291	949.4268	969.8462	973.1172	986.7184	1017.1466	1066.9077	1085.7458	1109.4142	1112.1231	1147.8349	1194.651	1223.9676	1243.1019	1249.4786	1264.7844	1288.6855	1341.4349	1439.0951	1477.5459	1499.3494	1518.1895	1922.3619	3060.6625	3071.2676	3076.8437	3118.2781	3118.9781	3135.0775	3171.0073	3182.1814
O=C1OCC11C2CCC12	O=C1OC[C@]21[C@H]1CC[C@@H]21	
InChI=1S/C7H8O2/c8-6-7(3-9-6)4-1-2-5(4)7/h4-5H,1-3H2	InChI=1S/C7H8O2/c8-6-7(3-9-6)4-1-2-5(4)7/h4-5H,1-3H2/t4-,5+,7-
