20
gdb 6238	2.4977	1.90441	1.87962	1.9976	70.81	-0.2427	0.0657	0.3085	902.7751	0.174182	-386.13141	-386.122276	-386.121332	-386.163863	35.583	
C	-0.0746769799	 1.5316574076	-0.058367339	-0.455181
C	-0.0068514133	 0.0053528649	-0.0215481233	 0.395854
O	-1.2924471881	-0.5501539203	-0.1751691798	-0.469029
C	 1.1431209316	-0.5583833794	-0.9105347019	-0.278428
C	 2.0408542213	-0.6094303988	 0.3541201713	-0.274589
C	 0.7507548047	-0.5673593104	 1.2302984437	 0.391533
C	 0.7612818458	 0.2140471768	 2.5353009678	-0.469736
O	 0.2546694609	-1.8821164679	 1.442834703	-0.469611
H	 0.905874094	 1.9961775714	 0.0803871769	 0.118938
H	-0.449487404	 1.8584791746	-1.0367921981	 0.105248
H	-0.7531267239	 1.910607667	 0.7115558315	 0.125476
H	-1.7259227714	-0.0940585155	-0.9041416423	 0.272462
H	 0.8871185729	-1.559530485	-1.2601928479	 0.117821
H	 1.477867023	 0.0548577057	-1.7515274178	 0.083368
H	 2.6641318661	-1.4967846435	 0.4879147833	 0.091199
H	 2.6632461701	 0.2823103742	 0.4716222635	 0.095437
H	 1.1258339328	 1.2364609555	 2.4044726063	 0.112202
H	-0.2448608408	 0.2498669701	 2.964194224	 0.131811
H	 1.4201484316	-0.2777385298	 3.262275111	 0.102347
H	 0.8486806566	-2.3095976774	 2.0693597479	 0.272879
124.995	204.3548	219.95	247.6856	270.271	291.123	292.5239	328.9018	359.4654	376.272	428.0594	471.894	523.4734	620.2005	682.0951	752.6931	860.6908	897.5587	904.6625	950.4807	958.6699	980.9858	1019.6032	1087.4746	1105.714	1183.4579	1192.9407	1196.3502	1208.1425	1231.4137	1278.1437	1283.5861	1340.7177	1397.0886	1404.0914	1410.5233	1468.8416	1484.9203	1487.0293	1488.299	1500.2239	1506.2388	3022.7253	3025.1751	3054.1716	3064.6647	3087.8867	3092.2128	3107.294	3116.6241	3121.3107	3135.2991	3800.6986	3807.2533
CC1(O)CCC1(C)O	C[C@@]1(O)CC[C@]1(C)O	
InChI=1S/C6H12O2/c1-5(7)3-4-6(5,2)8/h7-8H,3-4H2,1-2H3	InChI=1S/C6H12O2/c1-5(7)3-4-6(5,2)8/h7-8H,3-4H2,1-2H3/t5-,6+
