18
gdb 26251	4.07074	1.03618	0.88007	2.3495	75.67	-0.1792	0.0573	0.2364	1322.4071	0.148325	-435.292401	-435.283386	-435.282442	-435.326245	33.408	
C	 1.0734703935	 0.7992438095	 0.5228604667	-0.326851
N	-0.1270555726	 0.2967864125	-0.1278130163	-0.166501
C	-1.0529512338	-0.3299587857	 0.8161719168	-0.332532
C	 0.1289370571	-0.4458820068	-1.2857255264	 0.343313
C	 1.2402458402	-1.0392978693	-1.8161903619	-0.181641
N	 0.9551308234	-1.6006160578	-3.0610219371	-0.364816
C	-0.3053347268	-1.3485677917	-3.2524142691	 0.44138
O	-1.0529814118	-1.6993102396	-4.3156395487	-0.429235
N	-0.8801641479	-0.6605707108	-2.2292070536	-0.37437
H	 1.6815955362	 0.001053475	 0.9837046598	 0.106345
H	 1.6915015207	 1.3248789434	-0.208629438	 0.134468
H	 0.7869776907	 1.5008449478	 1.3122959131	 0.11936
H	-1.3551839003	 0.4044938398	 1.569180506	 0.121439
H	-1.9503823988	-0.6706655224	 0.2943364856	 0.11813
H	-0.6087959251	-1.198460307	 1.3318953263	 0.109884
H	 2.2293862711	-1.1000097232	-1.3923983135	 0.101987
H	-0.4600301425	-2.177482077	-4.9089915096	 0.311481
H	-1.8040764835	-0.2638670667	-2.2193403501	 0.268158
51.6666	134.9545	175.5378	222.1679	253.0649	280.0261	346.3054	385.179	404.9179	438.3554	449.2047	518.7679	601.6139	678.2857	727.2863	734.7868	797.6709	936.4355	1010.1864	1050.6397	1069.5539	1121.1372	1142.4471	1176.2937	1182.2195	1218.0255	1223.367	1297.1149	1328.9666	1396.2919	1442.0566	1468.5296	1479.0873	1493.2169	1500.877	1514.9747	1559.2287	1619.5587	1640.6645	2952.1443	2962.4888	3068.1576	3071.7613	3117.7169	3123.3261	3263.2935	3674.7874	3802.7147
CN(C)C1=CN=C(O)N1	CN(C)c1cnc(O)[nH]1	
InChI=1S/C5H9N3O/c1-8(2)4-3-6-5(9)7-4/h3H,1-2H3,(H2,6,7,9)	InChI=1S/C5H9N3O/c1-8(2)4-3-6-5(9)7-4/h3H,1-2H3,(H2,6,7,9)
