14
gdb 27715	3.005	1.2772	0.89771	5.4349	76.12	-0.1971	-0.0043	0.1927	1197.5931	0.102446	-432.916485	-432.908097	-432.907152	-432.949291	31.171	
N	 0.1167777294	 1.3846249013	 0.1801863261	-0.606338
C	-0.0099311754	 0.0080367318	 0.0342785534	 0.362328
C	-1.1441243048	-0.7873731373	-0.0228153384	-0.309416
C	-0.6976753195	-2.1272844624	-0.0542164975	 0.30567
O	-1.5210004082	-3.1915169231	-0.1363560836	-0.431291
C	 0.6924325116	-2.1327115023	-0.0259567001	 0.070281
N	 1.0935921841	-0.7864353194	 0.0077199579	-0.380063
C	 1.5675723573	-3.2210124786	-0.0718897123	 0.159271
N	 2.2592710982	-4.156542031	-0.1040772923	-0.380132
H	 0.8077031008	 1.8023982677	-0.4312313142	 0.255771
H	-0.7665583798	 1.8654029739	 0.081781375	 0.261549
H	-2.1671654988	-0.4513509592	-0.06605611	 0.108008
H	-0.9929888311	-3.9993057288	-0.1524393718	 0.312073
H	 2.0204908063	-0.4840467727	 0.2543868277	 0.272289
122.3524	127.3523	205.4604	226.2227	295.0862	304.5768	388.3966	404.6349	436.0988	522.742	538.1191	591.8034	647.7958	661.3965	685.1634	723.0953	769.8279	821.8399	1031.5956	1107.1288	1130.0646	1208.497	1257.0289	1263.6319	1386.5262	1482.0394	1555.389	1575.6445	1625.4912	1661.7345	2299.5839	3266.5936	3539.5008	3640.5769	3674.7617	3790.9709
NC1=CC(O)=C(N1)C#N	Nc1cc(O)c([nH]1)C#N	
InChI=1S/C5H5N3O/c6-2-3-4(9)1-5(7)8-3/h1,8-9H,7H2	InChI=1S/C5H5N3O/c6-2-3-4(9)1-5(7)8-3/h1,8-9H,7H2
