21
gdb 108677	1.85677	1.36112	0.87748	2.5099	82.53	-0.2271	0.0111	0.2382	1387.1317	0.181683	-424.228763	-424.218735	-424.217791	-424.264907	35.483	
C	 0.429523825	 1.0788675111	 0.5509572304	-0.37319
C	 0.1263771546	-0.3040084818	-0.0554794655	-0.299624
C	-1.3363673331	-0.632756494	-0.1045391474	 0.186698
C	-2.1292032886	-0.84929002	-1.1591768626	 0.141609
C	-1.8109804746	-0.8053158828	-2.6207309093	-0.173201
O	-2.6424238525	 0.1157498596	-3.3271683203	-0.413413
C	-3.5227019986	-1.1756301181	-0.6835101873	-0.142122
O	-3.48173385	-1.0625743532	 0.734767715	-0.264565
C	-2.149570844	-0.8089073934	 1.156752568	-0.145923
H	 1.5070910975	 1.2677058607	 0.5573071374	 0.11844
H	-0.0509735263	 1.8741107934	-0.0276352896	 0.117625
H	 0.0724460639	 1.1551966734	 1.5822710638	 0.125125
H	 0.5569045459	-0.3605960084	-1.0603379349	 0.107527
H	 0.6436318094	-1.0696570621	 0.5399101897	 0.110667
H	-0.746228006	-0.5872793253	-2.7840358081	 0.094335
H	-2.0155225941	-1.77847527	-3.0841556755	 0.117483
H	-2.5160911625	 0.9808697629	-2.9232177754	 0.281984
H	-4.2780442199	-0.4888843618	-1.0902296336	 0.111479
H	-3.8239263027	-2.1952240144	-0.980589902	 0.097469
H	-1.7688414377	-1.6477898544	 1.766018846	 0.097314
H	-2.1355401057	 0.0828785589	 1.8021683313	 0.104281
37.1791	76.8038	98.6472	135.3864	175.6928	205.8763	257.3425	278.8221	346.1909	401.4519	437.1693	557.1972	625.1298	675.6931	780.4369	825.1855	917.8719	952.6058	961.7957	982.4811	1013.3356	1045.6721	1059.2755	1081.6883	1104.6505	1129.5746	1171.0633	1194.3248	1220.3495	1224.7527	1272.7369	1306.1514	1350.7375	1365.1145	1380.2531	1391.5173	1409.5895	1417.1312	1478.6531	1498.2515	1499.6993	1506.711	1517.0133	1531.3894	1742.8862	2944.9076	2954.8934	2986.3511	3001.5651	3011.5742	3014.9879	3039.7195	3050.1466	3069.8551	3110.7703	3113.6426	3809.5986
CCC1=C(CO)COC1	CCC1=C(CO)COC1	
InChI=1S/C7H12O2/c1-2-6-4-9-5-7(6)3-8/h8H,2-5H2,1H3	InChI=1S/C7H12O2/c1-2-6-4-9-5-7(6)3-8/h8H,2-5H2,1H3
