19
gdb 76949	2.36451	1.20435	0.98442	2.8908	77.54	-0.2471	-0.0259	0.2212	1267.7231	0.157561	-422.996923	-422.987808	-422.986864	-423.031268	32.857	
C	-0.0735127445	 0.7282524219	-2.2266569345	-0.419592
C	 0.0144963505	-0.3445598763	-1.1608364641	-0.090499
C	 1.3132894349	-0.6585684273	-0.3948314824	-0.191119
C	 2.5463472745	 0.1281720224	-0.611907138	 0.163007
O	 3.6606239283	-0.3361152589	-0.5772557417	-0.268765
C	 0.1125373707	-0.0229820349	 0.2836333786	 0.248204
C	-0.002381356	 1.3312638536	 0.9868504703	-0.140319
O	-0.8120878093	 0.7398318722	 2.0243809623	-0.271381
C	-0.6902207719	-0.5811502126	 1.4544176884	-0.135403
H	 0.43011147	 1.652708614	-1.9326595964	 0.125941
H	 0.3725135327	 0.3897693675	-3.1669978323	 0.134045
H	-1.1218326921	 0.9763033674	-2.423457838	 0.129918
H	-0.5532639627	-1.2430195958	-1.3938871939	 0.10342
H	 1.5049588813	-1.704216144	-0.172649531	 0.107432
H	 2.3911379808	 1.212998726	-0.8086069954	 0.067469
H	 0.9291857306	 1.7510676385	 1.3868985314	 0.111548
H	-0.5423684322	 2.1139248502	 0.4387726992	 0.108041
H	-1.666568582	-1.0159619722	 1.2039785696	 0.107451
H	-0.1474180237	-1.2667748017	 2.1181207678	 0.110603
72.1302	102.8934	141.3271	186.0717	191.7815	226.4423	249.4014	403.1925	421.2249	449.9363	512.133	572.6336	758.7457	856.3976	899.6816	925.1636	956.6868	981.1186	1014.4661	1034.7603	1042.7493	1061.3765	1103.304	1123.3875	1128.5185	1153.7511	1166.475	1172.9534	1211.1865	1288.1533	1313.5992	1337.4512	1382.3503	1418.0878	1438.3054	1472.685	1492.9182	1509.3084	1510.854	1534.2816	1810.4129	2870.7766	3001.7693	3013.1504	3039.8484	3048.3838	3050.4428	3101.4368	3112.5632	3133.3371	3161.1998
CC1C(C=O)C11COC1	C[C@H]1[C@@H](C=O)C21COC2	
InChI=1S/C7H10O2/c1-5-6(2-8)7(5)3-9-4-7/h2,5-6H,3-4H2,1H3	InChI=1S/C7H10O2/c1-5-6(2-8)7(5)3-9-4-7/h2,5-6H,3-4H2,1H3/t5-,6+/m0/s1
