22
gdb 101947	2.0075	1.38676	0.89214	1.5383	82.57	-0.2432	0.068	0.3112	1363.7431	0.193394	-404.289823	-404.280028	-404.279084	-404.325114	35.796	
C	-0.8306585828	-0.0631503081	 0.6772830611	-0.235587
O	 0.0926320771	-0.9641304932	 0.1076792828	-0.242662
C	 0.636535707	-0.5607743883	-1.141122805	 0.065713
C	 1.7730855896	-1.5094865764	-1.4461810188	 0.0352
C	 2.9958758294	-1.0288558548	-2.1880444842	-0.270109
C	 3.0835222895	-1.3697758908	-0.7218333283	-0.271705
C	-0.4145648935	-0.5726580418	-2.2402737536	 0.009192
C	-1.1375438322	 0.6639557697	-2.6319894048	-0.250686
N	-0.1378767029	 0.0694774661	-3.533984947	-0.31711
H	-0.4033090701	 0.9479632458	 0.7746133878	 0.097479
H	-1.7613658866	 0.0122157846	 0.0992988998	 0.1138
H	-1.0666638471	-0.4401231103	 1.6756676491	 0.126013
H	 1.0394444373	 0.467333996	-1.0545786501	 0.046719
H	 1.4451700895	-2.5224964394	-1.6620791153	 0.090447
H	 3.4519503327	-1.6975365119	-2.9090962929	 0.116482
H	 3.0531795486	 0.0193014802	-2.4641963055	 0.103508
H	 3.1823332639	-0.5526829126	-0.0149962818	 0.11331
H	 3.6060644193	-2.2734301133	-0.4296264313	 0.114217
H	-0.933936185	-1.5256406465	-2.3290886008	 0.09711
H	-2.1634968091	 0.6089290956	-2.9852312543	 0.119723
H	-0.8875411566	 1.586324278	-2.1124048789	 0.108754
H	 0.733791552	 0.5915229813	-3.476228208	 0.230194
68.703	85.3009	96.06	153.7216	182.3485	193.4657	256.6979	344.9399	363.0948	419.3726	472.0613	516.4819	769.6441	817.1442	829.2767	873.7675	883.6422	924.6694	939.4977	954.214	986.1415	1007.0588	1052.4051	1059.5199	1079.235	1126.33	1128.7917	1138.6579	1159.3709	1176.9097	1180.8059	1194.3215	1212.0868	1224.3252	1235.6015	1254.9661	1288.2238	1302.456	1339.0758	1415.5537	1434.6545	1470.9672	1476.7916	1487.2075	1506.5885	1509.7436	1513.4546	2910.136	2975.1228	3038.2476	3102.3074	3110.8446	3120.8866	3129.5276	3137.0199	3148.3586	3187.4795	3208.5329	3224.3797	3491.8999
COC(C1CC1)C1CN1	CO[C@@H](C1CC1)[C@H]1CN1	
InChI=1S/C7H13NO/c1-9-7(5-2-3-5)6-4-8-6/h5-8H,2-4H2,1H3	InChI=1S/C7H13NO/c1-9-7(5-2-3-5)6-4-8-6/h5-8H,2-4H2,1H3/t6-,7+/m1/s1
