16
gdb 9579	4.23819	1.29218	1.2067	2.5331	73.8	-0.2498	-0.0271	0.2227	1029.7853	0.127579	-346.575641	-346.567143	-346.566199	-346.608421	31.091	
C	-0.0969440711	 1.5611823711	-0.02340796	-0.463719
C	-0.0182341099	 0.0536595695	 0.0195815138	 0.21886
C	 1.2923175325	-0.6604808767	-0.2471356583	-0.324624
C	 0.7499428675	-0.6687353851	 1.155953843	-0.243384
C	 1.3647680692	 0.0936592713	 2.1999205857	 0.318306
C	 1.8765636994	 0.7240421309	 3.0873205327	-0.428207
C	-1.2392973617	-0.676249037	-0.4138181604	 0.126425
O	-2.2578239403	-0.1487144209	-0.7835123674	-0.260749
H	 0.8076722392	 2.013980475	 0.3868868166	 0.127863
H	-0.2283671202	 1.9035858328	-1.0538915547	 0.131806
H	-0.9546991201	 1.9168017355	 0.5536057418	 0.139916
H	 1.2714916492	-1.5955565133	-0.797375094	 0.128116
H	 2.1496698616	-0.029673238	-0.4493036075	 0.139762
H	 0.3058813569	-1.6058901171	 1.4824987292	 0.123121
H	 2.3294697861	 1.2790652566	 3.8711310861	 0.201517
H	-1.1467912184	-1.7882623446	-0.3730936965	 0.064991
87.4708	133.4354	157.4086	199.216	255.6042	307.1774	345.4211	376.4346	482.387	524.7552	591.9119	617.4762	656.6786	755.3714	767.7934	850.8089	918.8572	968.2021	1001.2034	1049.3435	1076.3226	1101.4922	1111.1634	1142.421	1257.4282	1339.567	1389.8224	1418.0596	1441.3465	1478.1736	1485.1284	1496.7571	1820.4879	2238.005	2843.1391	3052.1478	3118.5446	3135.0111	3136.0946	3138.2305	3230.9648	3503.5753
CC1(CC1C#C)C=O	C[C@]1(C[C@H]1C#C)C=O	
InChI=1S/C7H8O/c1-3-6-4-7(6,2)5-8/h1,5-6H,4H2,2H3	InChI=1S/C7H8O/c1-3-6-4-7(6,2)5-8/h1,5-6H,4H2,2H3/t6-,7+/m1/s1
