24
gdb 5992	3.95255	0.99043	0.96209	1.2506	81.79	-0.2591	0.0642	0.3233	1396.2616	0.220642	-351.422873	-351.4121	-351.411156	-351.458097	39.676	
C	 0.1486796888	 1.630203766	-0.0123850917	-0.382032
C	-0.0017956325	 0.1060651479	-0.0148661439	-0.174665
C	 0.5959464844	-0.5471593049	 1.23656774	-0.19198
C	 0.665311412	-2.0916838727	 1.2185700351	 0.346613
C	-0.7207749995	-2.7222646239	 1.0596581535	-0.402161
O	 1.4080906854	-2.5322026883	 0.0706216755	-0.45855
C	 1.3662036429	-2.5734147511	 2.5107739076	-0.195102
C	 1.6011660879	-4.0841021098	 2.6007226847	-0.39231
H	 1.2033249922	 1.926007964	 0.0273086644	 0.109707
H	-0.2869117434	 2.0748391234	-0.9127638772	 0.110707
H	-0.3501202585	 2.0791399221	 0.8541774353	 0.111325
H	-1.0648089716	-0.1483069873	-0.0970299013	 0.096711
H	 0.4849322662	-0.3188202519	-0.8995022464	 0.106465
H	 1.6207909367	-0.1701518572	 1.3759853259	 0.075677
H	 0.0391144734	-0.2258005836	 2.1269843658	 0.090386
H	-1.1841564757	-2.4041038072	 0.123382312	 0.123891
H	-0.6471486353	-3.8116230084	 1.0371801434	 0.122371
H	-1.3745312365	-2.4334491558	 1.8883262437	 0.107956
H	 2.29397788	-2.1581893623	 0.1361691886	 0.272968
H	 2.3343294684	-2.0556834971	 2.5745914384	 0.079761
H	 0.7870843966	-2.2291573009	 3.3768773865	 0.093272
H	 2.0887532137	-4.4506324277	 1.6933050324	 0.125122
H	 2.2391278446	-4.3253335292	 3.4564494125	 0.106917
H	 0.6655786097	-4.6372694741	 2.7247555148	 0.11695
79.653	96.6023	112.6385	145.7409	202.3249	233.4029	250.6896	288.7283	315.6995	319.8665	350.5131	367.3277	413.4785	452.2818	593.5748	747.9396	754.5014	785.9351	859.0618	885.7822	928.143	948.3868	994.8976	1004.3423	1047.0155	1062.3129	1098.829	1107.1604	1158.3571	1184.0593	1217.4983	1262.6603	1291.7915	1312.1361	1330.1535	1367.62	1388.1596	1392.9672	1406.0377	1412.8197	1428.2308	1469.1569	1484.3966	1486.3056	1495.4009	1496.0747	1499.4349	1509.4343	1513.0191	1516.5203	2987.2223	3003.8389	3026.0155	3033.8632	3039.3462	3043.2204	3048.0716	3052.2526	3071.8643	3097.0341	3099.369	3106.5635	3121.0446	3124.4869	3132.4518	3794.8157
CCCC(C)(O)CC	CCC[C@@](C)(O)CC	
InChI=1S/C7H16O/c1-4-6-7(3,8)5-2/h8H,4-6H2,1-3H3	InChI=1S/C7H16O/c1-4-6-7(3,8)5-2/h8H,4-6H2,1-3H3/t7-/m0/s1
