16
gdb 32250	2.68112	1.57755	0.9995	2.2005	76.38	-0.2118	-0.0091	0.2026	1137.0233	0.126047	-437.943445	-437.935744	-437.9348	-437.975697	29.362	
C	-0.0447223356	 1.422838107	-0.0729825093	-0.248171
O	-0.0196844422	 0.0105701819	 0.0108431357	-0.253367
C	 0.618149444	-0.5435838088	 1.0704758072	 0.284454
C	 1.2596867567	 0.1371586906	 2.0926579458	-0.220614
C	 1.8751476807	-0.5894572766	 3.1216112897	-0.128672
C	 1.8217452425	-1.9682347827	 3.0827124864	-0.021043
N	 1.203218039	-2.6422189346	 2.0976480109	-0.356883
C	 0.6256167668	-1.9585560676	 1.1319489883	 0.357284
O	 0.0055240521	-2.6381461092	 0.1445312646	-0.409036
H	 0.9677755833	 1.8413108662	-0.1453328287	 0.125242
H	-0.5989013181	 1.6623960783	-0.9814704538	 0.140915
H	-0.5542654755	 1.8698186296	 0.7907487277	 0.125264
H	 1.2879506574	 1.2194801793	 2.1007620161	 0.106382
H	 2.3820203598	-0.0761841323	 3.9301569702	 0.095895
H	 2.283663447	-2.5731569993	 3.8571334966	 0.106114
H	 0.121426992	-3.572922772	 0.3660761027	 0.296236
95.5305	166.1148	225.0111	253.6831	327.9583	347.5491	464.5077	523.4454	546.0144	560.044	593.8465	596.9254	775.1345	780.1245	811.3787	882.9129	922.5246	958.2982	1056.6073	1095.0213	1125.0415	1177.9494	1192.061	1214.2189	1267.5021	1321.3381	1332.2929	1395.8682	1476.4521	1491.5422	1493.5379	1506.7507	1526.2667	1628.032	1646.2759	3002.7194	3061.5587	3139.0078	3170.5212	3198.3705	3214.4371	3764.0725
COC1=CC=CN=C1O	COc1cccnc1O	
InChI=1S/C6H7NO2/c1-9-5-3-2-4-7-6(5)8/h2-4H,1H3,(H,7,8)	InChI=1S/C6H7NO2/c1-9-5-3-2-4-7-6(5)8/h2-4H,1H3,(H,7,8)
