20
gdb 66448	3.12894	1.64522	1.49714	1.647	82.11	-0.2095	0.0858	0.2952	997.4203	0.171207	-365.932762	-365.925064	-365.92412	-365.964273	31.385	
C	 0.0074367885	 1.463247614	 0.0180345018	-0.517792
C	-0.0547509108	-0.0320597133	-0.0184769095	 0.354589
C	 1.0840071462	-0.9512166216	-0.475659214	-0.068263
C	 0.5536319	-1.0635450645	 0.9243259646	-0.239421
C	-0.4354693083	-2.0854524939	 0.3113451082	 0.393755
C	-0.9769347721	-3.3399698075	 0.9175434266	-0.525983
C	-1.2366964974	-0.9502542664	-0.4261018453	-0.179096
C	-0.7988430488	-1.6059760293	-1.7469575605	-0.193201
N	 0.3918613381	-2.164796505	-1.003232313	-0.192122
H	 1.0069389649	 1.8062606703	 0.3081624591	 0.120347
H	-0.2165261505	 1.8948600737	-0.96510653	 0.119894
H	-0.705129679	 1.8846886647	 0.7364779522	 0.118842
H	 2.041445339	-0.6045825698	-0.8448163201	 0.085158
H	 1.0388476059	-0.9777897085	 1.8880776396	 0.087755
H	-1.5693373334	-3.1152706699	 1.8115144741	 0.12024
H	-1.6195607825	-3.872946553	 0.2084862822	 0.12464
H	-0.1609893982	-4.0114080798	 1.2049066227	 0.130866
H	-2.2562510397	-0.645527356	-0.1854588134	 0.060831
H	-1.4482850169	-2.4261429729	-2.0671038598	 0.102215
H	-0.553984785	-0.9692321313	-2.6029284654	 0.096747
191.1657	202.0188	212.6504	228.3164	265.4514	317.8817	458.2332	552.977	571.0775	627.2459	743.7131	768.2214	803.4387	818.1444	842.4966	860.755	878.2773	902.3729	920.4292	964.5184	982.7009	1012.9012	1030.3289	1067.5014	1106.4087	1109.254	1125.3971	1146.8024	1166.3093	1196.7343	1209.8197	1225.6721	1266.8222	1288.9027	1345.1295	1404.672	1414.3623	1431.395	1480.2742	1484.912	1485.9327	1499.3639	1500.6469	3017.4723	3027.6674	3045.8241	3075.8839	3086.8422	3096.5712	3100.0255	3102.3845	3105.6524	3183.3308	3197.8385
CC12C3C1C1(C)C2CN31	C[C@@]12[C@H]3[C@@H]1[C@@]1(C)[C@@H]2CN31	
InChI=1S/C8H11N/c1-7-4-3-9-6(7)5(7)8(4,9)2/h4-6H,3H2,1-2H3	InChI=1S/C8H11N/c1-7-4-3-9-6(7)5(7)8(4,9)2/h4-6H,3H2,1-2H3/t4-,5+,6-,7+,8-/m1/s1
