20
gdb 101907	6.762	0.50551	0.48392	2.0637	75.19	-0.2635	0.0189	0.2824	2191.6564	0.168737	-477.407704	-477.396921	-477.395977	-477.446433	36.83	
O	 0.0872209528	 1.3831360429	-0.1273844859	-0.422119
C	 0.0768504627	-0.0170339728	 0.0322076003	-0.063585
C	-1.3559533661	-0.5515632453	 0.0814261286	 0.090451
O	-2.0705378739	-0.0761822271	-1.0689196261	-0.439687
C	-1.4241966011	-2.0718215363	 0.2120461497	-0.230796
C	-2.8533206705	-2.5806037011	 0.3341513236	-0.072915
O	-2.8019817427	-4.0076099568	 0.3876542556	-0.184593
C	-3.9871583127	-4.6429026247	 0.4542333473	 0.127815
N	-4.0261866611	-5.9029003087	 0.5136053615	-0.437644
H	-0.6073992273	 1.573853809	-0.7712313062	 0.28532
H	 0.6192060942	-0.524188683	-0.7880010906	 0.074525
H	 0.6043570483	-0.2488448367	 0.9638902006	 0.111694
H	-1.8680317325	-0.0757418397	 0.92682542	 0.101146
H	-1.7103257903	-0.5272456323	-1.8428262335	 0.284265
H	-0.9517739767	-2.5435001659	-0.6599846066	 0.109576
H	-0.8507194801	-2.3933200333	 1.0888411661	 0.123151
H	-3.3238386712	-2.1866161413	 1.24569978	 0.110487
H	-3.4500585487	-2.2507364156	-0.5245988935	 0.118576
H	-4.8512697412	-3.9634327912	 0.4479630529	 0.085037
H	-4.9928522421	-6.2182754002	 0.5559555161	 0.229298
10.8724	51.8028	82.1046	104.0579	124.3189	160.851	220.6333	268.352	323.136	363.9466	428.7643	482.3858	508.4678	574.3019	648.9999	793.2466	822.3029	863.8204	957.362	1001.701	1033.1007	1044.4732	1077.6893	1101.785	1105.3745	1130.1009	1144.2644	1205.0739	1219.1139	1266.4122	1295.3848	1302.2942	1330.2567	1358.6775	1386.9984	1411.1243	1422.2823	1434.3901	1445.0356	1484.1199	1507.0728	1522.2491	1750.4834	2929.261	3002.6208	3020.6033	3025.7646	3046.7422	3055.1472	3069.1056	3085.1575	3520.2311	3766.2286	3776.822
OCC(O)CCOC=N	OC[C@@H](O)CCO[CH][NH]	
InChI=1S/C5H11NO3/c6-4-9-2-1-5(8)3-7/h4-8H,1-3H2	InChI=1S/C5H11NO3/c6-4-9-2-1-5(8)3-7/h4-8H,1-3H2/t5-/m0/s1
