18
gdb 18114	4.21799	1.94852	1.42862	1.347	73.56	-0.2358	0.0188	0.2545	888.5108	0.156699	-347.818363	-347.811667	-347.810722	-347.849343	26.118	
C	 0.0307318025	 1.4195519954	 0.1496354706	-0.067221
C	 1.5169458835	 1.8738722022	-0.0473219508	-0.379198
C	 2.1373268698	 0.6088119453	-0.5590565416	 0.356733
C	 3.3183948119	-0.0008607071	-0.565267197	-0.231369
C	 3.1694888968	-1.4564912141	-0.9763076032	-0.248674
C	 1.6455611905	-1.720308208	-0.7772975325	-0.250438
C	 1.0188186091	-0.3301102583	-0.9316531434	 0.078143
O	-0.0139381165	-0.000040851	-0.0063635484	-0.270502
H	-0.3631670976	 1.6559736238	 1.1414455109	 0.110112
H	-0.6141961177	 1.9046841538	-0.5987218955	 0.091816
H	 1.5802349419	 2.704694385	-0.7585345831	 0.115315
H	 1.9758621038	 2.2088195426	 0.8869825317	 0.121517
H	 4.2710054485	 0.4365911745	-0.2866041149	 0.090523
H	 3.4702482381	-1.6190406425	-2.0209694946	 0.10623
H	 3.7920257793	-2.1263572313	-0.3727464694	 0.10383
H	 1.2423990424	-2.467248194	-1.4652778534	 0.095356
H	 1.4592476741	-2.0597872816	 0.2463582595	 0.116556
H	 0.6571967295	-0.1572838547	-1.9625605349	 0.061271
92.3603	166.3985	234.1924	344.6899	390.4375	583.4885	597.6804	671.0307	717.991	804.4362	836.1797	851.0244	885.641	914.9704	931.3035	962.817	973.2975	1023.7152	1056.6948	1074.3055	1100.0315	1162.2616	1175.7887	1208.6765	1227.514	1245.6458	1257.6782	1282.7962	1288.3291	1321.3409	1354.7119	1368.444	1393.1585	1478.745	1482.9147	1499.5076	1519.4432	1744.9201	2920.7215	2986.0713	3008.4582	3044.6512	3053.614	3064.5376	3081.4758	3098.2997	3112.1416	3188.3363
C1CC2=CCCC2O1	C1CC2=CCC[C@H]2O1	
InChI=1S/C7H10O/c1-2-6-4-5-8-7(6)3-1/h2,7H,1,3-5H2	InChI=1S/C7H10O/c1-2-6-4-5-8-7(6)3-1/h2,7H,1,3-5H2/t7-/m1/s1
