18
gdb 92581	2.76231	1.68717	1.35319	1.4301	72.26	-0.2493	0.0173	0.2666	997.9109	0.149396	-439.082789	-439.07513	-439.074186	-439.115158	29.113	
C	 0.1170147169	 1.5745217338	-0.0924787113	-0.400404
C	 0.0778564088	 0.0719432125	 0.0512034247	 0.155353
O	 0.9446526059	-0.6163340033	-0.8889214189	-0.31401
C	 1.4045724202	-1.5161045523	 0.1363681795	 0.101097
C	 2.9073782588	-1.6612261343	 0.2018854486	-0.105398
O	 3.5753648472	-0.4951212699	 0.7016189566	-0.219194
C	 2.9227107577	 0.2301120132	 1.6363055091	 0.129336
N	 1.7031381039	 0.209692003	 1.9761406246	-0.259726
C	 0.7872574685	-0.638761455	 1.2481199808	-0.073007
H	 1.1275412612	 1.9611666385	 0.0534716725	 0.129802
H	-0.2250177988	 1.8557690256	-1.0935129079	 0.124
H	-0.5442306749	 2.0430437074	 0.6431320606	 0.123527
H	-0.9528648087	-0.2965664672	-0.0573915707	 0.073668
H	 0.9482112111	-2.51125189	 0.032069914	 0.074886
H	 3.1550703044	-2.5058664953	 0.8586651769	 0.114904
H	 3.3276408809	-1.8502387512	-0.7891079485	 0.133586
H	 3.616827928	 0.9156264458	 2.1200963501	 0.126784
H	 0.1167963988	-1.1339481014	 1.9533201194	 0.084794
75.0268	148.1332	191.7249	241.2707	317.911	359.9928	462.4914	487.0453	566.7765	644.2728	752.089	804.625	837.6424	872.282	903.3111	916.0437	971.6854	983.3462	1003.5524	1051.8756	1069.0506	1123.1575	1136.0394	1161.0476	1196.1162	1241.2148	1257.4489	1286.622	1332.264	1351.9998	1356.8306	1397.0188	1405.0052	1415.2911	1426.2138	1480.9473	1485.4174	1490.5286	1723.1018	2990.848	2996.8899	3026.1953	3045.1114	3084.2713	3103.8262	3112.8751	3136.778	3154.1331
CC1OC2COC=NC12	C[C@H]1O[C@H]2COC=N[C@@H]12	
InChI=1S/C6H9NO2/c1-4-6-5(9-4)2-8-3-7-6/h3-6H,2H2,1H3	InChI=1S/C6H9NO2/c1-4-6-5(9-4)2-8-3-7-6/h3-6H,2H2,1H3/t4-,5+,6+/m1/s1
