20
gdb 66638	3.25824	1.84183	1.68334	1.5229	80.75	-0.2319	0.0994	0.3313	912.9197	0.174389	-365.992966	-365.986379	-365.985435	-366.023433	28.401	
C	-0.0520192029	 1.5036565153	-0.0251511362	-0.517925
C	 0.0499855748	 0.0113076303	 0.019150658	 0.368029
C	 0.4449236229	-1.0046489059	-0.9830880435	-0.110953
C	 0.9177330626	-1.9912025948	 0.0941399873	-0.062848
C	-0.2246169358	-3.0184352678	 0.1059425564	-0.21145
C	-1.3140288323	-1.9602696854	 0.3701647906	 0.001766
C	-0.8586159473	-1.3936016559	 1.72826055	-0.220302
C	 0.4897732403	-0.8974230674	 1.1857248105	-0.115022
N	-0.9913242382	-0.8473491116	-0.6129170667	-0.168976
H	 0.9277007751	 1.9702782079	 0.1258156489	 0.116249
H	-0.4445331182	 1.8278757053	-0.9930734326	 0.132348
H	-0.7268888055	 1.877965817	 0.7534241537	 0.119911
H	 0.7388323396	-0.926227428	-2.0249569637	 0.082733
H	 1.9490035679	-2.3378353067	 0.0907357813	 0.066824
H	-0.33449682	-3.5244372882	-0.8579907737	 0.099784
H	-0.1649046265	-3.7681760644	 0.9007872479	 0.093032
H	-2.3537619911	-2.2696009226	 0.2726164065	 0.06935
H	-1.4859618867	-0.5732439892	 2.0908035568	 0.099082
H	-0.791375362	-2.1607378216	 2.5056709332	 0.092827
H	 1.2484868433	-0.5428067863	 1.8809929451	 0.065541
187.013	219.7884	264.1846	413.197	468.1156	550.5148	581.638	663.6943	720.6636	771.4618	795.353	814.1269	833.2146	896.3931	899.0762	912.6965	917.4276	942.8957	957.5663	963.2704	983.8537	1009.8972	1046.4779	1049.7655	1085.6379	1108.0724	1133.9009	1156.8493	1179.0815	1212.3226	1215.1043	1245.4987	1255.5092	1275.5428	1285.84	1312.0035	1316.5983	1401.6892	1451.3841	1481.2623	1485.4351	1491.7676	1502.9695	3027.4966	3047.3779	3053.4733	3087.6188	3096.8039	3104.8794	3113.3741	3126.6549	3131.5359	3140.6511	3159.1667
CC12C3C4CC(CC14)N23	C[C@@]12[C@H]3[C@@H]4C[C@@H](C[C@H]14)N23	
InChI=1S/C8H11N/c1-8-6-3-4-2-5(6)7(8)9(4)8/h4-7H,2-3H2,1H3	InChI=1S/C8H11N/c1-8-6-3-4-2-5(6)7(8)9(4)8/h4-7H,2-3H2,1H3/t4-,5+,6-,7+,8-,9?/m0/s1
