16
gdb 74307	2.36883	1.42778	0.95969	3.8734	72.51	-0.2233	-0.028	0.1953	1200.5332	0.122902	-437.946694	-437.938002	-437.937058	-437.980549	31.258	
C	-0.1105471029	 1.4914225109	 0.0206775748	-0.498325
C	-0.099937151	 0.0016003814	 0.0144767526	 0.357761
C	-1.1126973067	-0.8744531807	 0.0235511463	-0.219986
C	-0.5552053199	-2.2674041444	 0.0013733131	-0.271532
C	-0.9896613057	-3.1729667102	-1.1473283857	 0.152773
O	-1.9282763795	-2.9569447593	-1.8651851372	-0.237209
C	 0.9761655029	-2.0487731304	-0.0318654787	 0.401035
O	 1.8453785114	-2.8872700685	-0.0855562386	-0.370205
N	 1.1370122641	-0.6807201349	-0.0056354926	-0.375621
H	 0.3911664818	 1.8955301243	-0.8668657911	 0.140487
H	-1.1366145191	 1.8631162612	 0.0328058244	 0.147628
H	 0.4110933873	 1.8894830987	 0.8993926984	 0.138652
H	-2.1624058921	-0.6282396195	 0.0144219054	 0.11967
H	-0.7686179129	-2.8414986445	 0.9173721719	 0.14358
H	-0.3528273758	-4.0763222365	-1.2553661756	 0.109119
H	 2.0434005179	-0.2438359877	-0.0484690274	 0.262173
67.0152	120.935	146.27	174.0829	203.2403	283.7815	318.3668	411.1051	496.6549	580.6776	592.6093	626.5825	676.2387	705.8209	772.8967	824.0751	939.2046	994.4554	1005.4845	1023.4877	1065.8657	1068.7083	1177.1946	1199.8393	1224.9593	1263.5576	1324.2417	1404.9098	1411.2024	1425.0229	1476.6975	1490.7809	1715.5316	1822.4786	1843.0543	2917.1017	2995.3428	3027.3112	3076.8839	3137.2109	3261.7539	3655.279
CC1=CC(C=O)C(=O)N1	CC1=C[C@@H](C=O)C(=O)N1	
InChI=1S/C6H7NO2/c1-4-2-5(3-8)6(9)7-4/h2-3,5H,1H3,(H,7,9)	InChI=1S/C6H7NO2/c1-4-2-5(3-8)6(9)7-4/h2-3,5H,1H3,(H,7,9)/t5-/m0/s1
