16
gdb 44012	4.59939	1.61207	1.40413	2.9284	74.06	-0.2512	0.0118	0.2631	908.2192	0.126502	-400.658565	-400.652613	-400.651669	-400.68863	25.359	
N	 0.0026649066	 1.2617851075	 0.0298234857	-0.542452
C	-0.0652174256	 0.0081668139	-0.0225182073	 0.409407
O	 1.0324727066	-0.8640132552	-0.1703757848	-0.329606
C	 0.327857951	-2.0957588751	-0.1596535712	 0.424957
C	 0.4143019662	-3.6213578055	-0.2397669177	-0.334393
C	-1.119967513	-3.2535344348	-0.0730734528	-0.128926
C	-0.7925982754	-2.0894297501	 0.9061863836	-0.062638
C	-1.305732798	-0.8905671452	 0.0560705316	-0.19701
C	-0.9767248477	-2.0005671895	-0.9845662077	-0.062638
H	 0.9697328114	 1.5812460115	-0.0493248513	 0.229414
H	 0.7111065243	-4.0571540934	-1.1974573575	 0.113879
H	 0.8859656785	-4.1415424843	 0.5981610483	 0.113879
H	-1.9527818988	-3.950448543	-0.0247274856	 0.094765
H	-0.6350411022	-2.1466681998	 1.9828052389	 0.089767
H	-2.2600469739	-0.3824438304	 0.1728875283	 0.091827
H	-1.02990661	-1.9561037366	-2.0719499306	 0.089767
156.6918	342.414	391.2273	455.6896	497.9128	609.3799	665.7692	740.4833	793.1231	793.4984	815.3425	832.5037	854.6921	895.8496	904.7045	918.9424	925.4124	967.946	986.3137	1021.993	1037.7504	1116.8041	1118.9065	1126.0586	1130.3308	1153.0733	1184.3603	1209.3128	1216.279	1240.5398	1289.539	1308.9124	1312.6337	1508.3305	1801.7396	3057.0753	3121.6081	3121.7816	3123.0664	3150.2144	3155.3866	3474.2122
N=C1OC23CC4C2C1C34	[NH][C]1O[C@@]23C[C@H]4[C@@H]2[C@@H]1[C@@H]34	
InChI=1S/C7H7NO/c8-6-3-4-2-1-7(4,9-6)5(2)3/h2-5,8H,1H2	InChI=1S/C7H7NO/c8-6-3-4-2-1-7(4,9-6)5(2)3/h2-5,8H,1H2/t2-,3+,4+,5-,7-
