15
gdb 56418	2.93567	0.70552	0.64488	1.3884	80.7	-0.2595	0.0068	0.2663	1732.7914	0.10812	-383.372097	-383.361941	-383.360997	-383.409513	35.511	
O	 1.3642182102	 1.4243559517	-0.1380009516	-0.389265
C	 0.3870804944	 0.3977804764	 0.0032404039	-0.234035
C	 0.3095003582	-0.4579287057	-1.1910591854	 0.330247
C	 0.2690017533	-1.1409969332	-2.1781744938	-0.45256
C	 0.5976689295	-0.4095583228	 1.2137730569	 0.107115
C	 0.8031270995	-1.054248146	 2.2078292107	 0.075649
C	 1.0400663288	-1.8367358266	 3.4223372946	-0.494495
C	 2.2234988057	-2.6950385405	 3.3448740611	 0.315713
C	 3.1927122647	-3.401180871	 3.2935887386	-0.439276
H	 2.2225814146	 0.9916941443	-0.2169979952	 0.291262
H	-0.5617622515	 0.9406382029	 0.1033242028	 0.149287
H	 0.2272139738	-1.7472790937	-3.0493420937	 0.204431
H	 1.1375212648	-1.1582832308	 4.2810102528	 0.166066
H	 0.1555925521	-2.4539761108	 3.6321887515	 0.166856
H	 4.049882232	-4.0259862443	 3.2441291168	 0.203004
9.7292	60.3713	93.4808	169.5763	199.7119	248.4027	305.5294	318.9717	337.6515	380.0979	431.9009	531.5284	584.1983	626.0981	631.3924	642.5441	654.6481	674.8924	798.4384	916.2418	933.4396	964.6034	1041.1378	1154.4634	1230.9121	1259.9435	1311.1637	1334.7037	1413.8582	1450.695	2238.7014	2248.9334	2374.9168	3010.8443	3030.2706	3035.9227	3502.7648	3506.5966	3799.9435
OC(C#C)C#CCC#C	O[C@@H](C#C)C#CCC#C	
InChI=1S/C8H6O/c1-3-5-6-7-8(9)4-2/h1-2,8-9H,5H2	InChI=1S/C8H6O/c1-3-5-6-7-8(9)4-2/h1-2,8-9H,5H2/t8-/m0/s1
