25
gdb 123260	9.28812	0.38895	0.37952	1.7753	89.27	-0.2474	0.0874	0.3348	2952.8699	0.225716	-426.61895	-426.606904	-426.605959	-426.658248	40.702	
C	-0.1416051934	 1.5221209546	 0.0122412565	-0.384232
C	-0.0548010905	 0.0053980039	 0.0026754906	-0.028035
O	-1.3644731641	-0.522265447	 0.0125829422	-0.242076
C	-1.3975069213	-1.9317748534	 0.0050459357	-0.049967
C	-2.8519891016	-2.3819093685	 0.0166905781	-0.213143
C	-2.9909916675	-3.8981250081	 0.0100990724	-0.049967
O	-4.3630487023	-4.2224728953	 0.0212156407	-0.242077
C	-4.6078964587	-5.6130833242	 0.0166254266	-0.028035
C	-6.1096740046	-5.8424009288	 0.0289751757	-0.384232
H	 0.8602785967	 1.9618090608	 0.0046742934	 0.112977
H	-0.6854755361	 1.8807002619	-0.8662920938	 0.126489
H	-0.6676586753	 1.8705911172	 0.9055652633	 0.126482
H	 0.4905640415	-0.3452971937	-0.8907544506	 0.082839
H	 0.5080589024	-0.355485103	 0.8810701659	 0.082836
H	-0.8785036967	-2.3227074769	-0.8883945367	 0.082004
H	-0.8612541411	-2.3325911817	 0.8838038752	 0.081997
H	-3.3489797807	-1.976844477	 0.9042850333	 0.115257
H	-3.365983055	-1.9676612927	-0.8568716247	 0.115257
H	-2.5026735705	-4.3276938097	-0.8829022005	 0.081999
H	-2.4861134293	-4.3368996542	 0.8893059337	 0.082003
H	-4.1529772635	-6.0771530295	-0.8757391842	 0.082835
H	-4.1370659746	-6.0857922271	 0.8961085048	 0.08284
H	-6.5584353203	-5.3965838973	 0.9211938763	 0.126487
H	-6.5742979423	-5.3879706586	-0.8506896411	 0.126484
H	-6.3322254712	-6.9136686819	 0.0257647072	 0.112977
41.6746	44.9036	68.4066	93.4041	109.0641	150.4838	150.5338	171.2936	248.2317	249.1421	254.6954	317.6147	434.906	505.0101	521.1146	780.3052	820.0008	821.0624	893.5018	894.6233	898.2242	1023.6053	1049.6329	1068.3402	1081.1609	1134.2218	1162.5949	1166.4302	1168.5494	1180.0742	1186.111	1203.2649	1240.0213	1293.9351	1294.2797	1294.7694	1303.5756	1306.6823	1388.0205	1392.5775	1407.5506	1411.5294	1453.9096	1458.0526	1483.6866	1483.7013	1497.3449	1499.0066	1500.6344	1514.3344	1521.5555	1538.2606	1543.1133	2932.2968	2938.5726	2950.5422	2953.3195	2957.3125	2965.0923	2970.4455	2970.6107	3044.5872	3044.6591	3052.8414	3098.7999	3118.7881	3118.842	3121.1345	3121.1687
CCOCCCOCC	CCOCCCOCC	
InChI=1S/C7H16O2/c1-3-8-6-5-7-9-4-2/h3-7H2,1-2H3	InChI=1S/C7H16O2/c1-3-8-6-5-7-9-4-2/h3-7H2,1-2H3
