12
gdb 130250	3.14599	1.4955	1.01585	6.8389	60.57	-0.2591	-0.0705	0.1885	1049.9744	0.077947	-505.9619	-505.954401	-505.953457	-505.994164	27.669	
N	 0.0986100519	 1.3916030916	 0.3797808327	-0.56387
C	-0.0255127153	 0.0561950895	 0.0331834464	 0.495965
N	-1.2004279953	-0.44484665	-0.1236040171	-0.187752
O	-1.2597957589	-1.8474550038	-0.3251343085	-0.256081
C	-0.1705355431	-2.6360590801	-0.5408532697	 0.357974
O	-0.3102421785	-3.7943187531	-0.7943586614	-0.282158
C	 1.2085896978	-1.9895885783	-0.3942958304	 0.309917
O	 2.2379675698	-2.5985823005	-0.5116913235	-0.30743
N	 1.1560347646	-0.6458298487	-0.0737876308	-0.388763
H	 0.7440362698	 1.9159113896	-0.1989300541	 0.265997
H	-0.8067164277	 1.8426748327	 0.4234418533	 0.280372
H	 2.0339696852	-0.1958007889	 0.1530199431	 0.275829
87.1314	119.7876	295.3516	328.8129	343.2138	361.4845	436.967	469.4835	507.9622	604.4673	635.9881	655.1112	669.4712	761.472	806.0177	821.3141	959.4042	1071.8388	1114.1525	1185.9368	1319.9876	1323.9527	1530.0087	1633.7522	1711.3785	1842.1614	1864.999	3534.8837	3583.3498	3635.1362
NC1=NOC(=O)C(=O)N1	Nc1noc(=O)c(=O)[nH]1	
InChI=1S/C3H3N3O3/c4-3-5-1(7)2(8)9-6-3/h(H3,4,5,6,7)	InChI=1S/C3H3N3O3/c4-3-5-1(7)2(8)9-6-3/h(H3,4,5,6,7)
