17
gdb 28055	4.32981	0.86324	0.78307	5.138	77.09	-0.2161	-0.0109	0.2052	1455.9574	0.135542	-418.067972	-418.058947	-418.058003	-418.103494	31.497	
C	 0.0116968373	 1.5116231902	 0.1998587452	-0.498882
C	 0.0278418543	 0.0287060062	 0.0357730207	 0.339504
N	 0.1749050157	-0.6228923898	-1.0984692176	-0.337742
C	 0.1360763686	-1.9659361926	-0.7801154847	 0.248182
C	 0.2356786744	-3.0172297579	-1.8418130221	-0.383306
C	-1.0444297022	-3.1023328905	-2.6614924639	 0.160642
O	-1.6087598117	-4.1281524113	-2.9404436878	-0.242325
C	-0.0433332276	-2.1236177246	 0.5687573131	-0.187356
N	-0.1071235627	-0.8436483407	 1.0787560604	-0.270617
H	 0.8248714921	 1.8602897588	 0.8469013046	 0.133266
H	 0.1324862519	 1.9710702574	-0.7817062147	 0.159979
H	-0.931036741	 1.8646082938	 0.6334515145	 0.133632
H	 1.0445486236	-2.7504260188	-2.5360239239	 0.13588
H	 0.4491348066	-4.0051328123	-1.4267620633	 0.119833
H	-1.4325020838	-2.1136182222	-2.9910863538	 0.092518
H	-0.1253741928	-2.9957784966	 1.1957816494	 0.13263
H	-0.2203766428	-0.5994839392	 2.048363364	 0.264162
35.352	62.1531	70.7079	140.5158	229.0031	270.8071	365.9504	405.5273	450.314	530.5821	634.7783	670.1272	708.7919	726.2134	748.5855	824.1763	971.0162	993.7022	1025.2126	1049.5677	1061.1305	1062.7966	1113.7706	1184.0659	1247.5263	1285.3112	1307.3811	1377.4451	1413.5873	1415.7032	1439.4974	1447.0802	1483.5517	1499.6949	1572.7312	1608.9797	1832.3514	2897.3962	3022.0423	3031.4036	3080.9024	3111.7097	3150.4652	3274.1994	3662.2439
CC1=NC(CC=O)=CN1	Cc1nc(CC=O)c[nH]1	
InChI=1S/C6H8N2O/c1-5-7-4-6(8-5)2-3-9/h3-4H,2H2,1H3,(H,7,8)	InChI=1S/C6H8N2O/c1-5-7-4-6(8-5)2-3-9/h3-4H,2H2,1H3,(H,7,8)
