22
gdb 63531	2.83804	1.34077	1.2078	1.4695	86.74	-0.2207	0.0832	0.3039	1168.1804	0.193546	-367.157243	-367.148251	-367.147307	-367.190359	35.473	
C	-0.0987822299	 1.5012498925	 0.0409341044	-0.453985
C	-0.0260856218	-0.0138699754	 0.034760251	 0.292564
C	-1.246061732	-0.6971554803	-0.5525439347	-0.449148
C	 1.3325366595	-0.6554199663	-0.1911288537	-0.417093
C	 0.690154295	-0.6939324466	 1.1680606751	 0.384192
C	 1.276460683	-0.0987372554	 2.4765648133	-0.318229
C	 0.8367817416	-1.3893133465	 3.1844695247	-0.038359
N	-0.6336401051	-1.4923103739	 3.0079846922	-0.338171
C	 0.2806297533	-1.9454474994	 1.9215209009	-0.156858
H	 0.8012768896	 1.9486973586	 0.473106689	 0.112112
H	-0.2075349689	 1.8917167567	-0.9781299152	 0.11026
H	-0.9583715863	 1.8511945429	 0.6244406619	 0.119087
H	-1.4094086229	-0.3846090538	-1.5908927222	 0.108431
H	-1.141157461	-1.786128368	-0.5460505727	 0.106317
H	-2.1463341407	-0.447639467	 0.0200294129	 0.123722
H	 1.3774584919	-1.5783341632	-0.7630379246	 0.102806
H	 2.1926412284	-0.0066209183	-0.3309495029	 0.103083
H	 2.3628062333	 0.0177066845	 2.4353049281	 0.101562
H	 0.8183069824	 0.8181886546	 2.8567258807	 0.105379
H	 1.3331070886	-1.8920070492	 4.0050219897	 0.090895
H	-0.9288582416	-2.3308952855	 3.5097455818	 0.223418
H	 0.2532294938	-2.9664274209	 1.5598318803	 0.088018
106.4539	147.952	169.1886	198.4271	225.0447	307.5271	361.2249	387.034	400.5788	444.8295	492.225	584.0129	723.5392	760.3126	811.9985	835.5005	877.4265	887.8051	911.9012	927.7856	963.8358	971.7977	986.3591	996.4654	1036.0067	1046.409	1060.2455	1099.431	1113.4079	1151.1914	1156.8602	1184.6673	1207.9332	1232.0082	1284.3839	1301.5108	1326.5763	1363.9282	1409.8142	1418.815	1428.346	1473.2952	1480.3192	1487.7337	1491.1761	1499.6873	1516.9375	3019.9484	3024.9708	3054.2179	3078.9578	3084.9886	3100.2967	3102.4316	3109.1802	3109.9649	3178.5528	3191.5647	3194.6582	3457.3988
CC1(C)CC11CC2NC12	CC1(C)C[C@]21C[C@H]1N[C@@H]21	
InChI=1S/C8H13N/c1-7(2)4-8(7)3-5-6(8)9-5/h5-6,9H,3-4H2,1-2H3	InChI=1S/C8H13N/c1-7(2)4-8(7)3-5-6(8)9-5/h5-6,9H,3-4H2,1-2H3/t5-,6-,8-/m1/s1
