21
gdb 119923	2.24908	1.06499	0.87723	3.0606	83.77	-0.2451	0.0148	0.2599	1449.2869	0.181327	-383.260017	-383.249788	-383.248844	-383.295802	36.493	
C	-0.858626022	 1.3211153954	-2.6555288893	-0.384194
C	-0.6516629572	-0.1808721782	-2.4469930235	-0.167696
C	 0.7177584081	-0.5129880773	-1.8364608726	-0.214367
C	 0.8736298069	-1.9972308802	-1.5753642854	-0.001399
C	 1.462314967	-2.9386749905	-2.6005878849	-0.176104
C	 1.9666528419	-2.3945585304	-3.8372004688	 0.295225
N	 2.3837688353	-1.9715755181	-4.8306390043	-0.348262
N	 2.1409993198	-2.6633306487	-1.3263403507	-0.109568
C	 3.3935446921	-1.9136283728	-1.3241524607	-0.326133
H	-0.7863779336	 1.8670406167	-1.7082271201	 0.114733
H	-0.1050007785	 1.73361892	-3.3348581236	 0.124068
H	-1.8430389576	 1.5285812314	-3.0854909169	 0.116759
H	-1.4434204768	-0.5752641689	-1.7965228742	 0.098388
H	-0.7519347999	-0.7042682773	-3.4055540628	 0.113719
H	 1.5071112241	-0.1464637809	-2.4995163043	 0.122074
H	 0.8328959278	 0.0210801926	-0.8835746286	 0.105144
H	 0.0604019582	-2.4207302975	-0.9847370066	 0.104435
H	 1.0679918426	-3.9467112196	-2.7010892936	 0.133253
H	 3.4837946315	-1.1543612749	-2.1111090259	 0.131398
H	 3.4979838379	-1.4258912	-0.3508636211	 0.131514
H	 4.2179850622	-2.6225615311	-1.440769292	 0.137012
55.7831	82.0744	121.6189	150.1653	164.466	182.0859	248.6564	270.3524	320.3097	371.1437	424.271	509.1211	600.1624	622.1891	713.9096	752.2071	836.2879	877.9843	899.0778	913.1952	1001.3586	1034.8837	1050.2455	1095.2665	1126.2791	1149.5227	1158.6283	1172.162	1195.4193	1263.741	1301.8565	1326.4994	1335.8141	1361.9084	1386.7086	1413.6903	1425.9089	1459.8599	1479.7326	1490.8095	1494.3424	1500.5076	1505.8134	1510.0089	2343.3984	3016.7572	3019.6986	3024.4278	3032.5084	3055.7644	3084.1327	3091.9265	3098.9243	3104.6244	3107.551	3117.6927	3139.8835
CCCC1C(C#N)N1C	CCC[C@H]1[C@@H](C#N)N1C	
InChI=1S/C7H12N2/c1-3-4-6-7(5-8)9(6)2/h6-7H,3-4H2,1-2H3	InChI=1S/C7H12N2/c1-3-4-6-7(5-8)9(6)2/h6-7H,3-4H2,1-2H3/t6-,7+,9?/m0/s1
