16
gdb 128662	2.37403	1.50532	0.93281	1.5076	70.	-0.2052	0.0077	0.213	1218.6718	0.124081	-471.196078	-471.187043	-471.186099	-471.230282	31.504	
C	-0.0189604623	 1.4487727206	-0.0677569096	-0.237265
O	 0.0128955242	 0.0258524011	-0.0016105431	-0.263567
C	 0.6154062073	-0.5842526933	-1.0312205332	 0.337604
N	 1.1433943574	 0.0238605356	-2.0866551819	-0.334905
N	 1.5843580361	-0.9830145841	-2.8490978269	 0.127005
C	 2.4083609727	-0.7571801125	-4.0115216586	-0.306739
N	 1.407181609	-2.2053246439	-2.3315438959	-0.329701
C	 0.7817964403	-1.978160333	-1.1874060196	 0.282635
O	 0.3707640545	-2.9413065591	-0.3410527148	-0.426039
H	 0.9947033091	 1.8626751123	-0.1011882275	 0.132573
H	-0.5637942637	 1.7879030244	-0.9554216007	 0.133427
H	-0.5305568844	 1.779400919	 0.8367573575	 0.132242
H	 3.4673433697	-0.6603799966	-3.7437482741	 0.139095
H	 2.2860685471	-1.6026853013	-4.689613171	 0.153037
H	 2.0756341215	 0.1618552623	-4.4954655755	 0.153161
H	 0.6292627814	-3.7893826816	-0.7220762852	 0.307438
87.9532	101.5717	124.4274	177.7792	184.6201	277.9283	296.4675	341.2495	376.1172	406.7016	600.7585	627.6099	644.8823	661.7478	740.811	871.9951	1001.6202	1061.0728	1085.21	1143.8233	1180.655	1197.3423	1224.2873	1316.4996	1366.2123	1398.177	1444.4461	1445.6079	1479.0759	1479.7504	1485.945	1502.236	1509.1007	1597.1238	1640.2406	3028.2996	3031.7448	3093.2194	3117.4851	3147.3036	3163.1075	3803.2732
COC1=NN(C)N=C1O	COc1nn(C)nc1O	
InChI=1S/C4H7N3O2/c1-7-5-3(8)4(6-7)9-2/h1-2H3,(H,5,8)	InChI=1S/C4H7N3O2/c1-7-5-3(8)4(6-7)9-2/h1-2H3,(H,5,8)
