24
gdb 118122	3.54075	0.74996	0.67716	1.289	86.87	-0.2244	0.0709	0.2953	1784.0971	0.215184	-405.518495	-405.507432	-405.506488	-405.555116	39.997	
C	-0.3049505231	-0.8631061387	-4.6458479027	-0.38312
C	-0.2626986213	-1.8159351291	-3.4486795471	-0.165783
C	-1.589553528	-1.8791000087	-2.685521596	-0.181996
C	-1.5412734825	-2.787517992	-1.4495817391	 0.098341
O	-0.5193795232	-2.3829677829	-0.5336782231	-0.434547
C	-2.8902440423	-2.8456384144	-0.7595200711	-0.006841
C	-3.8783881603	-3.9225241597	-1.0630300559	-0.257093
N	-3.2367479993	-3.8504970288	 0.24194599	-0.087178
C	-2.2715615562	-4.8859784478	 0.589155343	-0.3086
H	 0.6546990253	-0.8416301288	-5.1716894308	 0.112455
H	-1.0732375122	-1.1628782324	-5.3676006054	 0.111658
H	-0.5332271821	 0.1612344131	-4.3300030911	 0.111616
H	 0.0017184689	-2.8252015247	-3.7915605912	 0.0928
H	 0.528398843	-1.5156183386	-2.7536816544	 0.110529
H	-1.8815618915	-0.8667890567	-2.3664662643	 0.082806
H	-2.3905472562	-2.2307167367	-3.3490696539	 0.098251
H	-1.2384097866	-3.7919621312	-1.7641983145	 0.08454
H	-0.7870390589	-1.5380529838	-0.1539164811	 0.277315
H	-3.2815266001	-1.8551084017	-0.5135933947	 0.077891
H	-4.9444870214	-3.7119505262	-1.093502936	 0.112883
H	-3.5535021455	-4.708295564	-1.7462553061	 0.102784
H	-1.7761772495	-5.356710049	-0.27402425	 0.099321
H	-1.4973432776	-4.4556023873	 1.2293274195	 0.134717
H	-2.7922636594	-5.6721210098	 1.1449573361	 0.117251
57.1749	87.1914	98.84	106.4872	167.5798	223.3836	226.9807	248.4914	268.626	331.6421	359.5704	397.29	401.3632	521.9039	594.6008	749.2451	758.5513	845.5977	858.8527	904.1821	919.7353	968.4833	1033.1582	1041.28	1067.8819	1085.7446	1105.9567	1111.8383	1128.3933	1133.6075	1161.672	1183.9499	1203.4222	1243.386	1261.8662	1293.532	1328.3668	1336.1451	1357.8758	1394.4987	1411.8636	1412.6855	1433.8746	1450.4809	1478.3845	1485.1856	1494.0583	1499.8193	1504.1517	1511.392	1513.1873	2981.0688	2994.392	3022.1618	3027.6788	3040.4573	3055.0092	3069.021	3071.9947	3075.2122	3078.7207	3096.8233	3101.2295	3118.9122	3167.0438	3791.6335
CCCC(O)C1CN1C	CCC[C@@H](O)[C@H]1CN1C	
InChI=1S/C7H15NO/c1-3-4-7(9)6-5-8(6)2/h6-7,9H,3-5H2,1-2H3	InChI=1S/C7H15NO/c1-3-4-7(9)6-5-8(6)2/h6-7,9H,3-5H2,1-2H3/t6-,7-,8?/m1/s1
