17
gdb 47975	5.05855	0.71731	0.67291	4.6166	91.5	-0.2485	-0.0547	0.1938	1649.2815	0.135162	-384.644572	-384.635987	-384.635042	-384.678878	30.933	
O	-0.2254904435	 0.1172027292	-0.4303008676	-0.241004
C	 0.0237772055	 1.1169460598	 0.2085813026	-0.001861
C	 1.2427524958	 1.8647273236	 0.1215209954	 0.160791
C	 2.2593433237	 2.5245399329	 0.0791714664	-0.112378
C	 3.4567165839	 3.2670548283	-0.0119667347	 0.202004
C	 3.9963537815	 4.0874843315	 1.1490703483	-0.310391
C	 3.6465036847	 4.8143626171	-0.1019318273	-0.089633
C	 4.7329706091	 4.6261859958	-1.1644478714	-0.22306
C	 4.5665534981	 3.0756553123	-1.064864097	-0.295493
H	-0.707515983	 1.5339641193	 0.9323969319	 0.090727
H	 3.3086233745	 4.2084283757	 1.978360712	 0.132502
H	 5.0367320028	 3.9519601009	 1.4367387676	 0.11974
H	 2.8598737422	 5.5581277546	-0.1254080642	 0.109993
H	 4.4424024017	 5.0081113136	-2.1444513257	 0.116384
H	 5.7148135169	 5.0344514687	-0.9061091106	 0.10745
H	 5.4341453665	 2.5024999149	-0.7252720584	 0.107119
H	 4.1911579296	 2.6350925319	-1.9891252773	 0.127109
57.9137	76.673	113.075	197.3001	212.6007	298.3772	373.2109	452.0644	496.9269	549.7286	673.6217	723.3737	779.1504	798.3269	848.5337	915.8752	932.3399	964.3707	998.6989	1017.5818	1024.4488	1068.8176	1085.4247	1104.7858	1148.1054	1210.1654	1224.7578	1246.4557	1283.3698	1317.5798	1396.2714	1423.8981	1480.9816	1482.7525	1506.6722	1755.1256	2297.0365	2903.8391	3055.2487	3063.2947	3111.2985	3113.4991	3134.1679	3194.7005	3216.608
O=CC#CC12CC1CC2	O=CC#C[C@]12C[C@H]1CC2	
InChI=1S/C8H8O/c9-5-1-3-8-4-2-7(8)6-8/h5,7H,2,4,6H2	InChI=1S/C8H8O/c9-5-1-3-8-4-2-7(8)6-8/h5,7H,2,4,6H2/t7-,8+/m1/s1
