19
gdb 90876	2.70478	1.8109	1.60946	3.0985	72.99	-0.2409	0.071	0.3119	926.0766	0.162452	-422.997825	-422.991055	-422.990111	-423.028579	28.774	
O	 0.2919043087	 1.3334015198	 0.3837337168	-0.446267
C	 0.0741748214	-0.0339372269	 0.0774756816	 0.124788
C	-1.4292262505	-0.403566137	 0.1007807355	-0.250622
C	-2.1741941906	-0.2218212941	-1.2125664342	-0.05247
C	-1.9676391309	 0.8805159802	-2.2204447143	 0.080558
O	-0.6416557048	 1.4208543323	-2.1915787735	-0.316441
C	-0.087806467	 0.0714539507	-2.4377284378	 0.099607
C	 0.7517337854	-0.4057914395	-1.2601766183	-0.249971
C	-1.5020575868	-0.515729266	-2.535954871	-0.160058
H	-0.0134323581	 1.8230036631	-0.3945849627	 0.285778
H	 0.5636371196	-0.5855988937	 0.8871962841	 0.077519
H	-1.5273810148	-1.4601508856	 0.383982278	 0.09558
H	-1.8954754587	 0.1833404728	 0.8991383552	 0.11239
H	-3.2126300079	-0.547641867	-1.1897477986	 0.090975
H	-2.7487211495	 1.5079781329	-2.6333530854	 0.108588
H	 0.458447112	 0.076424077	-3.3846634088	 0.088228
H	 1.7449882394	 0.0539494134	-1.2739878965	 0.11361
H	 0.8865791543	-1.491395099	-1.3500362707	 0.101183
H	-1.8406325013	-1.2377497833	-3.2663156492	 0.097025
164.471	229.0938	351.5912	369.0835	391.9506	454.8811	538.7698	621.7468	655.8298	708.9927	727.7186	790.845	801.6806	829.3137	874.062	909.3003	924.782	943.99	972.9786	1022.1276	1024.1863	1049.8181	1058.7812	1082.6723	1094.0152	1111.5169	1140.1038	1190.526	1233.3599	1258.1864	1269.2537	1300.5086	1327.5083	1342.052	1370.0494	1376.7416	1386.3141	1439.6368	1462.3534	1471.585	1483.3902	3016.044	3029.3172	3052.8518	3071.9014	3073.4206	3086.0478	3128.9746	3182.7294	3204.6785	3706.6639
OC1CC2C3OC(C1)C23	O[C@H]1C[C@H]2[C@H]3O[C@@H](C1)[C@@H]23	
InChI=1S/C7H10O2/c8-3-1-4-6-5(2-3)9-7(4)6/h3-8H,1-2H2	InChI=1S/C7H10O2/c8-3-1-4-6-5(2-3)9-7(4)6/h3-8H,1-2H2/t3-,4+,5-,6+,7+/m0/s1
