16
gdb 26950	3.10692	1.39507	1.03111	1.2846	71.36	-0.2313	0.0013	0.2326	1123.4603	0.124667	-437.899496	-437.891597	-437.890653	-437.93254	28.737	
C	-0.3932308874	 1.0659629844	 1.0129713668	-0.507823
C	-0.2076474324	-0.1588983747	 0.1959002151	 0.258907
C	-0.9964385571	-0.916902854	-0.6143935347	 0.159749
N	-0.2424092993	-1.9622279847	-1.149122906	-0.316185
C	 0.9315583626	-1.7949472737	-0.6415956677	 0.061761
O	 1.0435011156	-0.7298727737	 0.1819449094	-0.174743
C	-2.4220510734	-0.7778994475	-0.9777409671	-0.028196
C	-3.5116053072	-0.8580386435	 0.0127328793	-0.17381
O	-3.1074199891	 0.3975225614	-0.5361550151	-0.229058
H	-0.207133141	 0.8706782418	 2.0753138408	 0.136445
H	 0.2971603481	 1.8570834746	 0.6998068252	 0.140814
H	-1.4157436803	 1.4228890183	 0.8884776964	 0.168366
H	 1.8194417518	-2.3882671508	-0.7942499861	 0.14933
H	-2.6493212709	-1.082692073	-1.9988477818	 0.11361
H	-4.4964554718	-1.2055170447	-0.2954022482	 0.122807
H	-3.2611708084	-1.0123525302	 1.0606280337	 0.118024
56.4566	159.4894	174.013	193.1689	246.5749	327.8064	402.5185	457.5916	647.466	670.0627	685.36	736.2822	834.9058	866.4007	903.1463	957.6167	968.7692	1004.942	1071.5361	1092.7222	1128.9361	1150.0285	1163.6151	1172.1478	1208.9948	1270.7166	1293.1627	1345.7435	1414.538	1448.864	1485.3645	1487.988	1520.9033	1565.2506	1673.1326	3032.8896	3082.7139	3087.4966	3119.6747	3157.5741	3180.9989	3274.8863
CC1=C(N=CO1)C1CO1	Cc1c(nco1)[C@H]1CO1	
InChI=1S/C6H7NO2/c1-4-6(5-2-8-5)7-3-9-4/h3,5H,2H2,1H3	InChI=1S/C6H7NO2/c1-4-6(5-2-8-5)7-3-9-4/h3,5H,2H2,1H3/t5-/m1/s1
