21
gdb 73564	2.30086	1.89	1.44935	1.7048	80.38	-0.2478	0.0861	0.3339	1015.578	0.183904	-387.069898	-387.062161	-387.061217	-387.101591	31.744	
C	-0.0265559484	 1.520258942	 0.0109482045	-0.478419
C	-0.0078721375	-0.0015095749	-0.0215169036	 0.333251
C	-1.3989790033	-0.6656277492	-0.088999631	-0.276667
C	-1.643131811	-1.1833147978	 1.3465762246	-0.192809
C	-0.2612279725	-1.6910708399	 1.818333004	-0.232276
C	 0.7278923801	-0.6890191932	 1.199857471	-0.077003
C	 1.795907921	-1.1944471171	 0.2087330269	 0.008674
O	 1.1262812896	-1.997543138	-0.7741224557	-0.24763
C	 1.1078827674	-0.5749188421	-0.932971637	-0.034867
H	 0.9794945976	 1.9307035658	 0.1559967152	 0.112589
H	-0.4212929621	 1.9302556505	-0.9262241692	 0.115631
H	-0.6573504822	 1.8884831655	 0.8274255028	 0.118494
H	-2.1813091958	 0.021183453	-0.4264003716	 0.086963
H	-1.3716104787	-1.5127283383	-0.7808768225	 0.112955
H	-1.9720005542	-0.3559387023	 1.9887498257	 0.093348
H	-2.4197735637	-1.952864903	 1.3950260583	 0.093679
H	-0.1864954153	-1.7550408557	 2.907460034	 0.090016
H	-0.0787788631	-2.6892495743	 1.4087849492	 0.112946
H	 1.1295170579	 0.0352717786	 1.9135492483	 0.0678
H	 2.8465644804	-1.403138445	 0.3762144595	 0.098984
H	 1.4923278138	-0.1765921645	-1.8664572632	 0.09434
156.8368	174.362	237.8426	273.6465	275.1992	335.5088	460.5182	506.3896	558.9882	622.1504	667.13	763.4728	829.2855	837.7999	857.3145	871.0093	897.9105	900.3281	926.406	951.1257	990.1344	1001.2545	1027.2483	1050.6142	1055.8759	1110.	1141.2621	1166.983	1198.5107	1213.8611	1232.7346	1250.605	1259.9834	1303.0254	1324.0148	1333.6765	1343.7672	1351.8731	1384.408	1410.7546	1478.2407	1484.4165	1491.4236	1496.6705	1500.5429	3018.6317	3023.2856	3049.1433	3053.6293	3071.434	3079.9433	3083.23	3090.6287	3097.1175	3104.7719	3164.1154	3183.4631
CC12CCCC1C1OC21	C[C@]12CCC[C@H]1[C@H]1O[C@@H]21	
InChI=1S/C8H12O/c1-8-4-2-3-5(8)6-7(8)9-6/h5-7H,2-4H2,1H3	InChI=1S/C8H12O/c1-8-4-2-3-5(8)6-7(8)9-6/h5-7H,2-4H2,1H3/t5-,6+,7+,8-/m0/s1
