25
gdb 76570	2.55806	1.15414	1.10348	0.0368	92.87	-0.2469	0.0845	0.3314	1330.4355	0.229976	-352.369342	-352.359655	-352.358711	-352.403825	37.437	
C	-0.0859322776	 0.8743375309	-2.0015652159	-0.414209
C	 0.0196904381	-0.2523344689	-0.9962512893	-0.073345
C	 1.3051627874	-0.6078949183	-0.2767747902	-0.071798
C	 2.6018646212	 0.1443848738	-0.4853611188	-0.412612
C	 0.1368795603	-0.0219006371	 0.4967095715	 0.357939
C	 0.2160011262	 1.3819960541	 1.1262600878	-0.285448
C	-0.6929152558	 1.3131420882	 2.3730121641	-0.200254
C	-0.617831033	-0.1599282242	 2.8038260685	-0.200257
C	-0.6655589902	-0.9084411417	 1.4618761402	-0.275958
H	 0.5478881922	 1.7276083184	-1.7472623094	 0.116744
H	 0.2074388962	 0.5358902448	-3.0017926487	 0.113558
H	-1.1160273243	 1.2436336038	-2.0686150564	 0.113322
H	-0.596923195	-1.1101107365	-1.2619092151	 0.072297
H	 1.4565874321	-1.6750253973	-0.1229062366	 0.072434
H	 2.4478859128	 1.2144418393	-0.6464807992	 0.117696
H	 3.2594958003	 0.0390731112	 0.3855003446	 0.113416
H	 3.1446335148	-0.2428840832	-1.3551057555	 0.113506
H	 1.2448883652	 1.6091026176	 1.4295859538	 0.097252
H	-0.0915153543	 2.17773631	 0.4415752189	 0.093804
H	-0.3905196996	 2.0138919642	 3.1565280029	 0.089788
H	-1.725738681	 1.5594651789	 2.0974424928	 0.095725
H	 0.3368271559	-0.3525102171	 3.3093230444	 0.095053
H	-1.4177219912	-0.4527874689	 3.490112231	 0.089422
H	-1.7078308527	-0.9856674795	 1.1235951149	 0.092584
H	-0.2734346279	-1.9287505225	 1.5219784599	 0.089343
46.3322	151.199	159.7881	180.8272	213.8734	237.3122	256.5735	283.3361	410.1263	466.3681	516.7382	525.654	561.2453	707.6285	765.8757	787.5724	847.1612	868.4979	912.9643	916.0989	942.932	969.3855	1005.1281	1015.0211	1038.9121	1040.2924	1071.53	1088.5366	1135.0753	1144.4722	1175.4199	1180.1945	1190.6544	1221.311	1252.6978	1265.3093	1298.4932	1319.7778	1341.3365	1342.8876	1363.8921	1371.2428	1412.7335	1421.0017	1452.1929	1486.0212	1488.7572	1491.303	1493.1137	1494.3666	1503.0915	1510.9761	1515.8192	3011.5217	3026.0534	3026.9246	3028.8978	3031.3446	3033.4859	3070.5558	3077.0719	3080.1398	3081.7387	3085.3248	3092.9392	3096.0924	3107.5089	3113.7371	3125.3203
CC1C(C)C11CCCC1	C[C@H]1[C@@H](C)C21CCCC2	
InChI=1S/C9H16/c1-7-8(2)9(7)5-3-4-6-9/h7-8H,3-6H2,1-2H3	InChI=1S/C9H16/c1-7-8(2)9(7)5-3-4-6-9/h7-8H,3-6H2,1-2H3/t7-,8+
