18
gdb 29701	2.46252	1.54319	0.96226	1.1951	77.29	-0.1574	0.0597	0.2171	1198.2987	0.147687	-435.280523	-435.270513	-435.269569	-435.315024	36.267	
C	-0.1092861917	 1.4360800843	 0.0617611035	-0.346727
N	 0.0077762072	-0.0028977357	 0.0109990102	-0.057625
C	 0.0228050581	-0.7815539997	-1.1226990664	 0.259938
N	-0.1055717949	-0.1698679319	-2.3901995969	-0.607484
C	 0.0892660943	-2.1064461346	-0.742262307	-0.31008
C	 0.1103314584	-2.1465772277	 0.684258459	 0.179146
N	 0.2396614269	-3.2884115572	 1.5070419784	-0.620085
C	 0.0747601207	-0.8439531045	 1.1146579867	 0.206895
O	 0.0277799888	-0.3404720536	 2.3881722223	-0.445916
H	 0.8687480803	 1.9303290417	 0.1359381905	 0.11587
H	-0.6010788203	 1.7753938054	-0.8515322177	 0.152919
H	-0.7028246129	 1.721856491	 0.9326813158	 0.144627
H	 0.7859489115	 0.1445874847	-2.764430765	 0.239668
H	-0.5001647641	-0.8226726077	-3.0564234017	 0.243719
H	 0.1325049816	-2.9535613195	-1.4106861803	 0.0751
H	-0.3094567416	-4.0632513993	 1.1529182279	 0.235747
H	-0.0810286246	-3.0829501345	 2.4471647338	 0.236335
H	 0.9255628522	-0.2389694012	 2.7274539367	 0.297951
84.9845	118.356	168.8725	176.9268	193.9912	250.2575	261.9345	284.8657	304.1893	318.0148	339.7312	567.5228	602.8111	613.6749	634.1519	648.5451	717.4821	752.4591	828.6276	843.0984	899.1402	1057.7185	1123.7366	1154.4816	1156.5714	1204.4922	1210.6504	1250.3642	1296.906	1391.528	1437.5249	1460.2652	1491.0719	1516.2286	1524.8403	1563.9658	1644.1022	1652.5712	1678.9401	3011.1395	3097.3952	3147.5176	3236.8632	3478.1472	3507.653	3587.0317	3594.545	3741.004
CN1C(N)=CC(N)=C1O	Cn1c(N)cc(N)c1O	
InChI=1S/C5H9N3O/c1-8-4(7)2-3(6)5(8)9/h2,9H,6-7H2,1H3	InChI=1S/C5H9N3O/c1-8-4(7)2-3(6)5(8)9/h2,9H,6-7H2,1H3
