19
gdb 101398	3.21562	0.96759	0.88473	2.242	72.28	-0.2573	-0.0324	0.225	1360.6772	0.156435	-460.152049	-460.14226	-460.141316	-460.187347	34.731	
C	-0.1878425217	 1.5204922224	 0.061857786	-0.420791
C	-0.0191787792	-0.0010553287	-0.0268950248	 0.013823
C	 0.7955589375	-0.4077558006	-1.259091743	-0.083324
O	 0.0970077369	 0.0317312101	-2.4137342966	-0.42193
C	 0.6133316827	-0.6024615841	 1.2266687037	-0.006596
O	 1.8905079314	-0.0162775051	 1.6027264633	-0.295039
C	 1.4525066618	 0.3537966869	 2.9255453829	-0.186474
C	 0.0576213718	-0.1952645097	 2.6015892303	 0.338646
O	-0.9945360805	-0.2660865569	 3.157458406	-0.27672
H	 0.7773118773	 2.001237398	 0.2505557722	 0.124661
H	-0.5840630965	 1.9034348309	-0.8799688539	 0.139385
H	-0.8772682419	 1.7998802652	 0.8645348354	 0.121898
H	-1.0086790054	-0.4691758859	-0.1213459148	 0.102874
H	 1.7970786243	 0.0440946652	-1.1966479122	 0.105898
H	 0.9252049788	-1.5023947991	-1.2692753584	 0.083668
H	 0.6675033678	-0.0923814137	-3.1773905533	 0.289181
H	 0.7040890416	-1.6948121264	 1.1240294953	 0.102443
H	 1.9878937571	-0.1800722106	 3.7212887594	 0.132604
H	 1.5054775863	 1.4339782923	 3.1096281224	 0.135793
55.5799	92.2434	120.1419	133.7839	227.4783	234.3413	235.97	269.0508	317.3222	415.2523	450.5802	550.9927	618.8804	711.2748	788.1223	853.5092	911.0319	926.8644	977.3753	992.5379	1013.2058	1072.7144	1093.4924	1097.9705	1118.2176	1140.8455	1177.7304	1214.2517	1265.6767	1272.3391	1295.0915	1315.8203	1332.4318	1377.4164	1402.556	1455.3354	1479.1917	1497.7648	1509.5525	1523.3618	1922.6234	2964.0879	2991.1906	3004.5698	3018.473	3030.8516	3044.117	3066.7177	3110.3896	3140.2824	3836.3225
CC(CO)C1OCC1=O	C[C@@H](CO)[C@H]1OCC1=O	
InChI=1S/C6H10O3/c1-4(2-7)6-5(8)3-9-6/h4,6-7H,2-3H2,1H3	InChI=1S/C6H10O3/c1-4(2-7)6-5(8)3-9-6/h4,6-7H,2-3H2,1H3/t4-,6+/m0/s1
