17
gdb 43167	2.16063	1.94449	1.79035	2.789	71.93	-0.2296	-0.0221	0.2075	903.5569	0.138451	-421.848598	-421.841638	-421.840694	-421.879925	27.533	
O	-0.0002293515	 0.0320811961	 0.0111769574	-0.328828
C	-0.0157337016	 1.2318488269	 0.0239461808	 0.423729
C	-1.2099712638	 2.1859978405	 0.0477728189	-0.167418
C	-0.6785253946	 3.2906523535	 0.9821420336	-0.077281
O	 0.7591755347	 3.1507458485	 1.0294435064	-0.273047
C	 1.1439670036	 2.2263173852	 0.0080302355	-0.046239
C	 1.1332064867	 2.8707062854	-1.3708065155	-0.070422
C	-0.0271439814	 3.0912553399	-1.9939311655	-0.055993
C	-1.3634826271	 2.6928610123	-1.4114945409	-0.272093
H	-2.1242298645	 1.7122068912	 0.4053972087	 0.09744
H	-0.9393035009	 4.2949424061	 0.6250896289	 0.102905
H	-1.0572098974	 3.1769574438	 2.0030753658	 0.116555
H	 2.1071888613	 1.7942851423	 0.2774187191	 0.100046
H	 2.078414983	 3.1663997399	-1.8146777727	 0.103763
H	-0.0418865673	 3.5755403058	-2.967212609	 0.102315
H	-1.8186760352	 1.9062485099	-2.0288428632	 0.129446
H	-2.059377184	 3.5419677726	-1.4412017885	 0.115122
124.6982	144.2899	273.8738	305.4009	446.5108	466.6858	485.0066	556.7005	697.9771	703.2431	767.0983	790.8573	832.8417	903.5523	909.1341	921.7429	968.2765	991.9765	1010.7004	1029.0941	1063.9217	1085.0936	1121.9686	1183.0688	1195.8636	1209.9104	1269.279	1271.625	1284.5246	1319.8887	1358.0636	1390.6921	1396.7436	1477.0751	1521.3863	1694.7679	1874.3724	3010.6078	3018.4923	3038.7746	3070.2308	3117.2663	3127.7991	3156.4442	3185.4684
O=C1C2COC1C=CC2	O=C1[C@H]2CO[C@@H]1C=CC2	
InChI=1S/C7H8O2/c8-7-5-2-1-3-6(7)9-4-5/h1,3,5-6H,2,4H2	InChI=1S/C7H8O2/c8-7-5-2-1-3-6(7)9-4-5/h1,3,5-6H,2,4H2/t5-,6-/m1/s1
