21
gdb 98301	2.44966	1.14825	0.89288	1.6242	79.51	-0.2599	0.0185	0.2784	1393.3187	0.180704	-424.252281	-424.241974	-424.24103	-424.288619	36.388	
C	 0.9697566707	 1.1351387677	 0.0969266911	-0.240051
O	 0.8595344674	-0.2823836253	-0.0832191024	-0.235168
C	 0.1479958689	-0.6716508249	-1.16302603	 0.455933
O	-0.3852528718	 0.1011329868	-1.920041753	-0.372114
C	 0.1537847383	-2.1860787561	-1.3117246931	-0.122084
C	-1.2034573067	-2.6838045146	-1.8219649873	-0.397715
C	 1.2865096666	-2.5647873851	-2.2599178449	 0.039209
C	 2.7106350431	-2.6231970393	-1.770973599	-0.271902
C	 1.9781037416	-3.8964504388	-2.1174050872	-0.280748
H	 1.4632904814	 1.5964081539	-0.762335726	 0.139564
H	-0.0183973244	 1.5868363239	 0.2154046172	 0.140013
H	 1.564495137	 1.2752387948	 0.9997298251	 0.130646
H	 0.3720121211	-2.6158378492	-0.3284661356	 0.088785
H	-2.001597129	-2.472522745	-1.1039513938	 0.11602
H	-1.4587497182	-2.1860787778	-2.7608583021	 0.138544
H	-1.1690300564	-3.7633349276	-1.9924993485	 0.115676
H	 1.1390627961	-2.2016325798	-3.2736275258	 0.096181
H	 3.4974620268	-2.2831925502	-2.4350159882	 0.113133
H	 2.8903060224	-2.4095758234	-0.7228831039	 0.12006
H	 1.6710273813	-4.541389774	-1.3001477945	 0.112097
H	 2.2617543737	-4.4285322359	-3.0186939979	 0.113921
36.6291	72.2184	109.3478	123.9168	195.0239	204.9692	214.7152	277.1642	301.5313	347.8084	378.3551	491.224	685.932	741.3504	779.5208	830.6554	835.2359	864.534	940.0537	951.7903	992.5388	1013.8683	1056.5432	1076.2646	1091.286	1112.4583	1140.5205	1179.5334	1186.4778	1198.1818	1209.154	1217.1517	1227.0804	1302.531	1366.0437	1401.9926	1409.3088	1470.755	1472.9626	1481.3981	1491.2457	1497.202	1500.4664	1506.314	1816.4829	3044.5265	3051.2396	3055.0702	3114.0443	3125.426	3128.5355	3129.3981	3136.822	3144.7277	3157.2271	3208.4229	3224.8824
COC(=O)C(C)C1CC1	COC(=O)[C@@H](C)C1CC1	
InChI=1S/C7H12O2/c1-5(6-3-4-6)7(8)9-2/h5-6H,3-4H2,1-2H3	InChI=1S/C7H12O2/c1-5(6-3-4-6)7(8)9-2/h5-6H,3-4H2,1-2H3/t5-/m0/s1
