16
gdb 64753	2.79387	1.29031	1.10783	1.8541	71.17	-0.2607	0.0136	0.2743	1125.4896	0.122003	-437.84153	-437.832582	-437.831638	-437.875393	32.887	
O	 0.0189876448	 1.4437277302	 0.0195339469	-0.462655
C	 0.0299233764	 0.0447011093	-0.0081415571	 0.259202
C	 0.8857870229	-0.5515137066	 1.1284378454	-0.406547
C	 2.2351947456	-0.0012764014	 1.127349278	 0.28054
C	 3.3248863663	 0.5057379471	 1.108221234	-0.419486
C	-1.3896814506	-0.5430173929	-0.1442233578	-0.118477
O	-1.0243487981	-1.1601068533	-1.4178911744	-0.254972
C	 0.2367079099	-0.6002022152	-1.3842527594	 0.391177
N	 1.1725227916	-0.6212541175	-2.2146586215	-0.541778
H	 0.9393448517	 1.7376635704	-0.0161797067	 0.297362
H	 0.3926991712	-0.315614446	 2.0799405424	 0.141918
H	 0.9155950729	-1.6435745125	 1.0376797584	 0.142916
H	 4.3015018602	 0.9229302766	 1.0895281618	 0.20605
H	-1.6892612536	-1.2961958592	 0.5883689225	 0.118826
H	-2.1652007564	 0.2135616462	-0.2756996406	 0.135072
H	 0.9226238453	-1.1456348853	-3.0552834219	 0.230852
69.1315	96.8997	137.843	190.6054	263.1427	322.2714	346.9311	366.177	388.7264	483.1639	526.5791	627.6141	666.4943	696.0243	747.0024	765.1328	867.4121	904.9387	920.5994	966.476	978.3897	1005.6358	1047.5101	1133.0082	1152.4214	1208.9598	1231.9952	1281.03	1308.7585	1359.6266	1418.976	1458.6693	1507.0865	1829.801	2237.8041	3027.0071	3068.1198	3070.0474	3136.7142	3471.752	3504.3398	3762.3309
OC1(CC#C)COC1=N	O[C@@]1(CC#C)CO[C]1[NH]	
InChI=1S/C6H7NO2/c1-2-3-6(8)4-9-5(6)7/h1,7-8H,3-4H2	InChI=1S/C6H7NO2/c1-2-3-6(8)4-9-5(6)7/h1,7-8H,3-4H2/t6-/m0/s1
