16
gdb 47627	2.90957	1.42467	0.9857	4.2704	81.26	-0.2379	-0.0477	0.1902	1157.2405	0.125232	-400.765632	-400.757536	-400.756592	-400.79827	30.759	
O	-0.010872862	-0.0244183526	-0.2542218789	-0.357705
C	-0.0131172698	 1.1758517798	-0.0642721923	 0.352866
N	-1.1655980042	 1.8800255248	 0.1869005838	-0.335837
C	-1.2472071802	 3.329581318	 0.0793544811	-0.171121
C	-0.0493291169	 3.9644803626	 0.7855619698	-0.247276
C	 1.2243314824	 3.2783389326	 0.3879204084	-0.157192
C	 1.2501123829	 1.9980077859	-0.02834434	-0.000872
C	 2.4556531425	 1.3406125712	-0.3969902871	 0.269072
C	 3.48315195	 0.8005834699	-0.7145945842	-0.390127
H	-2.0046067998	 1.3377037914	 0.0400443473	 0.249185
H	-1.2611162086	 3.6511865223	-0.9738379925	 0.11266
H	-2.1838946101	 3.6615805347	 0.5355324791	 0.116651
H	-0.0004371376	 5.0317206747	 0.5458474893	 0.118864
H	-0.1726442528	 3.8963652767	 1.8767587223	 0.133011
H	 2.1557993757	 3.8303914636	 0.4711726662	 0.113025
H	 4.3811969985	 0.3080258245	-0.9943344121	 0.194797
89.8471	145.3255	165.7793	248.8342	314.1894	379.884	422.9378	477.044	528.1239	579.894	597.1591	608.5371	643.9199	647.4955	722.1668	808.1074	884.755	906.2399	927.2953	1017.9792	1075.0139	1114.0952	1176.6663	1219.0612	1246.5646	1301.323	1365.1711	1375.51	1407.3282	1462.3142	1474.9233	1516.0719	1667.8969	1787.796	2231.8419	2979.485	3004.6433	3073.7218	3083.6175	3176.6552	3504.1114	3611.0745
O=C1NCCC=C1C#C	O=C1NCCC=C1C#C	
InChI=1S/C7H7NO/c1-2-6-4-3-5-8-7(6)9/h1,4H,3,5H2,(H,8,9)	InChI=1S/C7H7NO/c1-2-6-4-3-5-8-7(6)9/h1,4H,3,5H2,(H,8,9)
