20
gdb 13413	4.83138	1.11383	1.0217	1.6772	71.68	-0.2479	0.0839	0.3318	1218.0548	0.177909	-386.133303	-386.124802	-386.123858	-386.167114	30.289	
C	-0.1716402348	 1.3706730508	-0.2664075702	-0.228612
O	-0.0506205474	-0.0117908979	-0.0344744508	-0.234449
C	-1.2943432821	-0.6778349927	-0.0014782766	-0.062257
C	-1.0462866078	-2.1699466526	 0.1934511384	-0.003806
C	-2.3806646789	-2.963181661	 0.2540085379	-0.262235
C	-2.3548011953	-3.821257337	-1.0331115977	-0.067167
O	-1.394425901	-3.2180169511	-1.8856121741	-0.242669
C	-0.3441810954	-2.7862896427	-1.033302073	-0.091156
H	 0.8368272163	 1.7915339219	-0.2769912036	 0.126428
H	-0.6558792169	 1.5826299139	-1.2329070253	 0.105342
H	-0.7554898239	 1.8687433552	 0.5241470767	 0.102528
H	-1.9202830065	-0.2825493023	 0.8171514355	 0.082323
H	-1.8460552943	-0.5157191623	-0.9440727492	 0.093449
H	-0.4469834373	-2.3027200294	 1.0983092215	 0.080295
H	-2.4547465344	-3.5817071331	 1.1513418542	 0.104164
H	-3.2383654157	-2.2829992084	 0.2570371597	 0.104489
H	-2.0612429446	-4.8575513016	-0.7981860696	 0.086859
H	-3.3087574784	-3.8495507477	-1.5658167829	 0.106413
H	 0.2717034652	-2.0677346749	-1.577388475	 0.11937
H	 0.2872946135	-3.6389142173	-0.7335382855	 0.080692
54.0417	95.8512	123.1309	174.6438	231.2429	251.5146	341.1991	391.112	466.2197	673.9304	711.3027	836.8208	865.4473	928.0613	944.3653	961.6455	979.6943	998.675	1039.7279	1101.7198	1131.6017	1153.0235	1168.2449	1185.0179	1213.1429	1230.8738	1239.7322	1252.6959	1274.3163	1301.911	1306.9847	1349.886	1370.2095	1398.9139	1420.3732	1479.9238	1486.0378	1496.3748	1502.8609	1511.4168	1527.2821	1528.1325	2945.1322	2964.9532	2970.2276	2971.7401	2976.8847	3012.5537	3053.4112	3072.9395	3090.9739	3106.6583	3112.6781	3115.6548
COCC1CCOC1	COC[C@H]1CCOC1	
InChI=1S/C6H12O2/c1-7-4-6-2-3-8-5-6/h6H,2-5H2,1H3	InChI=1S/C6H12O2/c1-7-4-6-2-3-8-5-6/h6H,2-5H2,1H3/t6-/m1/s1
