17
gdb 31351	2.95958	1.33875	0.93233	6.8887	79.12	-0.226	-0.0283	0.1977	1231.6476	0.137855	-414.233875	-414.225435	-414.224491	-414.268	30.634	
C	-0.0157400169	 1.5410304419	 0.1542788119	-0.368935
C	-0.0089929374	 0.0278234725	-0.0490254536	-0.300123
C	 0.692393974	-0.4160192655	-1.3078764993	 0.400386
N	 1.2282664173	 0.4097146199	-2.1226372371	-0.290702
C	 1.8676453437	-0.0818436893	-3.2822883748	 0.35012
N	 2.395812512	 0.7544750833	-4.0857623099	-0.505901
N	 1.9057856882	-1.4849132867	-3.5221819922	-0.289417
C	 1.3483473712	-2.2458672937	-2.6627185647	 0.086871
N	 0.720302678	-1.7873769017	-1.5297055327	-0.343384
H	 1.0025979774	 1.9315653401	 0.2057455517	 0.144413
H	-0.5132110283	 2.0435164461	-0.6777148653	 0.144418
H	-0.5376966884	 1.7922647781	 1.0816424604	 0.109841
H	 0.4726857963	-0.4744196528	 0.8022307711	 0.122474
H	-1.036355822	-0.3628426435	-0.0779118392	 0.122497
H	 2.808282752	 0.2308576593	-4.8594371633	 0.217743
H	 1.3473395945	-3.3269252151	-2.7959902755	 0.132983
H	 0.2936439383	-2.4268321729	-0.8792721674	 0.266716
43.5017	69.4432	161.7566	181.611	233.6518	392.9879	398.4991	496.3046	499.3964	566.2663	586.852	597.1401	758.3698	794.805	815.5274	889.2981	910.7391	968.5197	994.6953	1002.5524	1045.4036	1105.2604	1115.3711	1169.6419	1199.207	1287.0856	1326.6983	1387.1463	1417.225	1418.8212	1463.0902	1477.7789	1489.1317	1498.746	1660.611	1703.993	1748.0163	3007.4171	3033.8964	3057.7897	3131.1925	3141.6216	3142.2804	3477.6491	3644.4231
CCC1=NC(=N)N=CN1	CC[C@@H]1N=C([NH])N=CN1	
InChI=1S/C5H8N4/c1-2-4-7-3-8-5(6)9-4/h3H,2H2,1H3,(H2,6,7,8,9)	InChI=1S/C5H9N4/c1-2-4-7-3-8-5(6)9-4/h3-4,6H,2H2,1H3,(H,7,8,9)/t4-/m0/s1
