23
gdb 100194	2.33049	1.21078	1.02143	2.5424	85.87	-0.2412	-0.0173	0.2239	1323.6366	0.20336	-388.291921	-388.28145	-388.280505	-388.327414	38.758	
C	 0.2111109511	 1.5430480533	 0.255318584	-0.410667
C	-0.0405255126	 0.0381181781	 0.1092622582	-0.186588
C	-1.5199648595	-0.4012618955	 0.0360101623	 0.144558
C	-2.348564719	 0.1367164419	 1.2159174406	-0.45794
C	-2.1757847626	 0.0791260562	-1.2577545329	 0.158924
O	-1.5992489214	 0.5413666462	-2.2090990075	-0.261906
C	-1.5592661555	-1.936490089	-0.0753143471	 0.015705
C	-1.6140887331	-2.8639176924	 1.1140288873	-0.285068
C	-2.7843665338	-2.7869699648	 0.1668572865	-0.290171
H	 1.2865481537	 1.7458420291	 0.2428364594	 0.113288
H	-0.2403401211	 2.1010032471	-0.5689363376	 0.135841
H	-0.1816148502	 1.9389761255	 1.1970533235	 0.110328
H	 0.4557883082	-0.3133400732	-0.8014975242	 0.109097
H	 0.4238676756	-0.4969079565	 0.9465157034	 0.093399
H	-2.3832736827	 1.2292306807	 1.2013352163	 0.130623
H	-3.3824498645	-0.2201236778	 1.1851589026	 0.120653
H	-1.912047902	-0.1654280889	 2.1722009446	 0.126802
H	-3.2812076534	-0.0679961395	-1.2798778228	 0.072186
H	-0.927652419	-2.2872385283	-0.8880997775	 0.096647
H	-0.9840547159	-3.7461964665	 1.0945931327	 0.116426
H	-1.7420663733	-2.4364438747	 2.1017846302	 0.115321
H	-3.6892455326	-2.3148117168	 0.5320550606	 0.115841
H	-2.9654857365	-3.6161816043	-0.5079316026	 0.1167
62.0218	83.2501	104.7809	175.9382	202.259	218.3542	269.7141	295.8782	315.4063	339.5261	366.7209	428.607	459.6483	607.1854	724.3922	782.5149	789.3548	820.2672	840.0009	898.1597	932.9803	952.3088	983.0378	1020.5842	1031.499	1060.473	1077.0209	1085.9493	1108.8532	1153.1426	1162.9825	1200.7802	1220.1393	1242.1158	1252.1581	1326.5066	1368.5353	1386.3714	1408.0181	1414.8055	1428.1283	1469.3184	1475.5849	1495.9898	1500.8733	1509.3478	1511.8509	1516.6813	1824.0256	2854.331	3031.87	3041.9634	3046.4496	3073.6079	3103.1878	3112.214	3118.7346	3125.4241	3131.1209	3137.9343	3142.2975	3213.5803	3228.1531
CCC(C)(C=O)C1CC1	CC[C@@](C)(C=O)C1CC1	
InChI=1S/C8H14O/c1-3-8(2,6-9)7-4-5-7/h6-7H,3-5H2,1-2H3	InChI=1S/C8H14O/c1-3-8(2,6-9)7-4-5-7/h6-7H,3-5H2,1-2H3/t8-/m0/s1
