20
gdb 90502	2.15704	1.59489	1.30718	2.5229	80.82	-0.2384	-0.0362	0.2022	1103.4283	0.169306	-403.116086	-403.106763	-403.105819	-403.150027	34.425	
C	-0.1624375656	 1.5845692972	-0.1496044358	-0.432662
C	 0.0539146707	 0.0822272429	-0.0142947372	-0.033164
C	 1.1221506003	-0.67830176	-0.8478822936	-0.188818
N	 1.6631660756	-1.3670692174	 0.3892311348	-0.185071
C	 2.2173224972	-0.3292283652	 1.2897281912	-0.136621
C	 3.0020537872	 0.883448423	 0.9288790965	 0.148103
O	 3.1021892647	 1.4199115457	-0.1501453654	-0.269403
C	 0.7261480603	-0.5315219868	 1.2228592737	 0.300882
C	-0.0265731947	-1.0635819031	 2.4099415907	-0.486928
H	 0.7747970805	 2.1409137107	-0.1155458407	 0.145607
H	-0.6489400835	 1.8124517971	-1.1042662259	 0.117892
H	-0.8171255376	 1.9554799745	 0.6472578855	 0.111593
H	-0.9112089943	-0.4230554502	-0.1338706143	 0.084404
H	 0.7091952097	-1.4347004846	-1.5174818761	 0.107877
H	 1.8599043118	-0.075006251	-1.3723996145	 0.145783
H	 2.6436517046	-0.7970312537	 2.1765303872	 0.101434
H	 3.5561089046	 1.2888412109	 1.8072322194	 0.081534
H	-0.3753228298	-0.2449737246	 3.049945585	 0.127573
H	-0.9041685065	-1.632274434	 2.083977382	 0.127934
H	 0.6016579449	-1.7248259616	 3.0130774075	 0.132052
67.8978	158.4356	166.6931	187.8239	200.755	208.3397	266.8276	322.645	375.8079	388.7371	529.6355	617.407	677.261	694.6694	797.5348	836.8756	866.1394	902.0873	935.582	953.6527	1012.3165	1051.0085	1076.6327	1093.405	1117.9263	1140.1163	1161.0707	1203.7122	1245.7582	1274.8096	1311.7473	1328.2143	1383.6965	1409.1476	1412.494	1435.1254	1441.637	1481.7416	1490.5875	1494.136	1498.4664	1510.4256	1803.784	2859.7195	3029.6877	3033.4658	3040.3057	3086.3477	3090.9267	3093.1506	3113.3036	3119.8129	3149.6982	3167.4549
CC1CN2C(C=O)C12C	C[C@H]1CN2[C@@H](C=O)[C@@]12C	
InChI=1S/C7H11NO/c1-5-3-8-6(4-9)7(5,8)2/h4-6H,3H2,1-2H3	InChI=1S/C7H11NO/c1-5-3-8-6(4-9)7(5,8)2/h4-6H,3H2,1-2H3/t5-,6-,7+,8?/m0/s1
