17
gdb 51102	4.17179	0.90922	0.82425	2.9979	74.63	-0.249	-0.036	0.213	1359.5866	0.134018	-421.825835	-421.817383	-421.816438	-421.860054	30.84	
O	-0.6162515268	 0.6247073788	 0.6404106653	-0.229831
C	 0.1836628873	 0.9199932878	-0.207178841	 0.166382
C	 1.2636151938	 1.9777767173	-0.0441930175	-0.391089
C	 1.2267013261	 2.9885808448	-1.1596486932	 0.341326
C	 1.8671947974	 2.7985860346	-2.490837677	-0.32461
C	 2.3603484374	 3.9513451874	-1.6203327316	-0.234206
C	 1.3557929469	 5.0625202302	-1.660132352	 0.435457
O	 1.4427694593	 6.2523160708	-1.7624860357	-0.312819
C	 0.1830944342	 4.1192250725	-1.2767018512	-0.419343
H	 0.1831520148	 0.4189662832	-1.2026742267	 0.080077
H	 1.1408582656	 2.4473962889	 0.9365227429	 0.129511
H	 2.2320983596	 1.4576252778	-0.056714895	 0.125481
H	 2.5835380548	 1.9865623238	-2.5739495036	 0.127293
H	 1.319348274	 3.001135631	-3.4069579851	 0.128633
H	 3.3973018292	 4.0177819669	-1.3138928766	 0.113774
H	-0.6254762389	 3.9801277188	-2.0001055435	 0.124206
H	-0.2430172647	 4.4288269556	-0.3174448985	 0.139756
49.9199	70.3436	108.1027	198.5515	300.282	365.6597	382.6607	454.9555	487.8492	554.3753	624.5443	687.8244	778.4678	808.9437	836.2261	922.4123	956.6137	963.3397	991.6189	1005.4673	1055.0672	1060.0004	1095.8187	1106.7137	1124.3537	1183.713	1209.7876	1233.1487	1301.439	1306.659	1385.96	1423.6674	1453.6754	1457.6604	1500.9125	1838.7243	1887.2035	2868.4506	3015.7976	3056.0204	3092.6765	3110.6143	3115.8594	3192.5971	3202.2736
O=CCC12CC1C(=O)C2	O=CC[C@]12C[C@H]1C(=O)C2	
InChI=1S/C7H8O2/c8-2-1-7-3-5(7)6(9)4-7/h2,5H,1,3-4H2	InChI=1S/C7H8O2/c8-2-1-7-3-5(7)6(9)4-7/h2,5H,1,3-4H2/t5-,7+/m0/s1
