19
gdb 80915	2.72863	1.43936	1.26617	0.4421	75.7	-0.2439	0.0639	0.3078	1077.9331	0.157864	-422.948425	-422.939921	-422.938977	-422.981	33.146	
C	 0.0144628753	 1.4679642966	 0.0116057656	-0.521397
C	 0.0160316305	-0.0338921342	 0.0260585808	 0.165479
C	 0.5679523941	-1.0198945477	-1.0698609007	-0.307936
C	 0.0069267798	-1.965109167	 0.0437636537	-0.214008
C	 0.6518976368	-0.9997881368	 1.0934615884	 0.159471
O	 2.0297441647	-0.9978714287	 1.3329321589	-0.453364
C	-1.1795838824	-0.9983852726	 0.0907869511	 0.531944
C	-2.503579853	-0.9830604412	 0.6921881841	-0.321648
O	-2.3070762496	-0.994368588	-0.7469878832	-0.30534
H	 1.0368791501	 1.8594172754	-0.0130217473	 0.125102
H	-0.5194219116	 1.853571832	-0.8631652831	 0.131015
H	-0.4720648268	 1.8674117196	 0.9083115207	 0.122011
H	 0.0367860607	-1.0260746149	-2.0231358367	 0.120189
H	 1.6485318122	-1.0254665766	-1.2428189882	 0.077331
H	-0.0109339421	-3.0540109089	 0.0522333845	 0.08267
H	 0.1782766439	-0.9855213101	 2.0786098982	 0.085
H	 2.5011680112	-1.0578782126	 0.4959827243	 0.283473
H	-2.9326240667	-1.8960401885	 1.1022570927	 0.120815
H	-2.9191309671	-0.0577855261	 1.0886696161	 0.119192
153.034	167.3803	188.9746	205.5397	239.8763	281.4277	346.2659	368.5993	479.2337	509.3246	602.9378	644.6898	687.057	714.5146	817.3649	864.0756	888.1509	897.6384	935.0195	999.2518	1008.3827	1043.038	1064.8766	1105.0179	1111.6317	1123.4096	1146.2405	1164.415	1180.9667	1197.3072	1217.0732	1237.8647	1284.302	1338.7235	1410.4546	1442.0354	1468.9673	1487.7636	1490.3802	1526.8452	1565.856	3029.6203	3050.529	3082.316	3084.8741	3095.8548	3101.7168	3123.66	3130.2928	3170.2566	3819.4169
CC12CC(C1O)C21CO1	C[C@@]12C[C@@H]([C@H]1O)[C@]12CO1	
InChI=1S/C7H10O2/c1-6-2-4(5(6)8)7(6)3-9-7/h4-5,8H,2-3H2,1H3	InChI=1S/C7H10O2/c1-6-2-4(5(6)8)7(6)3-9-7/h4-5,8H,2-3H2,1H3/t4-,5+,6+,7-/m0/s1
