23
gdb 122369	5.19737	0.67225	0.66486	0.9561	87.88	-0.2504	0.0922	0.3426	1805.1457	0.206188	-388.225621	-388.216395	-388.215451	-388.260807	34.243	
C	 0.1671969484	 1.4074934668	-0.0872064574	-0.227529
O	 0.2607089805	 0.0066456975	-0.1573044578	-0.229251
C	 0.7364129845	-0.5733529418	 1.0381413537	-0.042178
C	 0.7946374316	-2.0862742262	 0.8568014258	-0.268798
C	 1.3564377434	-2.7886163382	 2.0858355585	 0.066802
C	 0.5126558319	-3.0118135541	 3.3891967456	-0.046424
C	-0.2540330798	-4.146707842	 2.6483231279	-0.22121
C	 1.2459261381	-4.3369333224	 2.2745945014	-0.062744
C	 1.5626965854	-4.0919129516	 3.7785614181	-0.217705
H	 1.1462749475	 1.875262013	 0.1061407086	 0.100848
H	-0.2072268226	 1.761185436	-1.0511967887	 0.124848
H	-0.5271211025	 1.7339438091	 0.7041024759	 0.100888
H	 1.7369769512	-0.1755672745	 1.2850648447	 0.080704
H	 0.0730882505	-0.311965815	 1.8812690058	 0.084558
H	-0.2072188978	-2.4395382436	 0.597341748	 0.107282
H	 1.4344077727	-2.3031644121	-0.0078371527	 0.104919
H	 2.3643586342	-2.406428899	 2.2943134008	 0.058033
H	 0.0879358519	-2.2471101933	 4.0423373032	 0.065417
H	-0.6923929579	-4.9222413085	 3.2825935048	 0.087928
H	-0.9456584991	-3.8625977653	 1.8544372772	 0.093944
H	 1.6728692014	-5.1070614093	 1.6293130132	 0.066135
H	 2.5693624458	-3.7376068947	 4.018762034	 0.086169
H	 1.2303510408	-4.8634913807	 4.4780936994	 0.087364
49.1639	73.6608	101.6269	119.5318	230.1818	269.8324	303.9797	351.9039	461.5912	564.5979	606.2174	748.2725	786.3502	808.5022	861.0239	883.0925	898.8661	905.2787	995.3357	1008.1131	1009.8876	1030.177	1043.6686	1061.7847	1102.0776	1113.3643	1132.2617	1147.8539	1154.0103	1169.4174	1182.6327	1191.6789	1215.5195	1225.1179	1234.9028	1248.2829	1254.2297	1274.5231	1311.6113	1316.0352	1422.8578	1431.2913	1480.4351	1484.43	1487.4247	1504.3133	1507.3624	1531.9018	1543.7156	2939.67	2965.0833	2966.8433	3005.7163	3014.027	3036.4183	3046.4307	3060.5163	3089.491	3092.7815	3096.7813	3110.3095	3112.5492	3129.6926
COCCC1C2CC1C2	COCC[C@H]1[C@H]2C[C@@H]1C2	
InChI=1S/C8H14O/c1-9-3-2-8-6-4-7(8)5-6/h6-8H,2-5H2,1H3	InChI=1S/C8H14O/c1-9-3-2-8-6-4-7(8)5-6/h6-8H,2-5H2,1H3/t6-,7+,8-
