18
gdb 55166	3.1671	1.34745	1.26532	6.9169	70.62	-0.2381	0.0368	0.275	1049.9794	0.150613	-439.119239	-439.111913	-439.110968	-439.15116	28.853	
O	-0.1101590122	 1.217951178	 1.846434892	-0.383296
C	-0.0605606711	 1.3951809971	 0.5220639732	 0.383633
O	 0.8727530561	 1.0071044144	-0.1349499276	-0.343047
C	-1.2538499353	 2.1189693125	-0.1211658063	-0.139899
C	-2.6168012551	 1.3834676901	 0.0955425985	-0.247251
C	-3.3307528418	 2.1616326042	 1.1839088672	-0.021327
N	-2.4840650691	 2.3785114832	 2.3812835718	-0.352783
H	-3.0499798206	 2.5479922741	 3.2065278887	 0.247331
H	-0.9525370797	 1.6028442505	 2.212291854	 0.324712
C	-2.649476112	 3.4627009079	 1.3838894163	-0.021323
C	-1.4742599646	 3.5653938725	 0.4309203808	-0.247269
H	-1.0070943409	 2.1527629659	-1.1817432771	 0.109808
H	-3.2140375548	 1.4256225318	-0.8211637295	 0.115192
H	-2.4840777665	 0.3280278203	 0.3508633537	 0.129497
H	-4.3977945232	 2.0393117961	 1.3342675212	 0.100668
H	-3.1855912623	 4.3543115807	 1.6900886471	 0.100667
H	-0.5776113284	 3.9688405715	 0.9105125438	 0.129494
H	-1.7394297787	 4.2416714792	-0.388317368	 0.115192
86.8631	199.6435	201.5241	285.8726	347.0271	393.1827	451.1365	619.0814	633.2056	757.0873	762.343	794.8689	807.6384	857.9665	910.2335	912.6265	938.2234	945.3408	968.6348	976.205	1052.8689	1062.0614	1083.7752	1119.7092	1147.2598	1198.0271	1200.1607	1251.3125	1254.6972	1308.195	1319.7563	1331.9823	1341.6993	1373.3726	1425.3007	1480.6293	1490.3192	1508.0627	1846.9086	3051.9197	3053.4898	3095.3546	3095.8992	3119.4086	3165.7048	3171.0785	3181.7549	3532.0408
[O-]C(=O)C1CC2[NH2+]C2C1	OC(=O)[C@H]1C[C@H]2N[C@H]2C1	
InChI=1S/C6H9NO2/c8-6(9)3-1-4-5(2-3)7-4/h3-5,7H,1-2H2,(H,8,9)	InChI=1S/C6H9NO2/c8-6(9)3-1-4-5(2-3)7-4/h3-5,7H,1-2H2,(H,8,9)/t3-,4+,5-
