19
gdb 95946	2.10154	1.53693	1.27288	1.8434	71.71	-0.2502	-0.0377	0.2125	1101.553	0.157119	-460.175689	-460.166182	-460.165238	-460.210685	34.307	
C	-0.463306183	 1.43241993	 0.0765282152	-0.413403
C	 0.3007036046	 0.1282296273	-0.0475595658	 0.124113
O	 1.4101105224	 0.3096895964	-0.9088973797	-0.259645
C	 2.2619544967	-0.8143575001	-0.7506829176	-0.078081
C	 2.0489783818	-1.3333147135	 0.6959058528	-0.309278
C	 0.9378063272	-0.4249969741	 1.2648421261	 0.274976
O	 1.4313928341	 0.6789369448	 2.0069381004	-0.47586
C	-0.0971149137	-1.1778915396	 2.0927545549	 0.09321
O	-0.5124914523	-2.2781084031	 1.833191997	-0.252741
H	 0.1710055613	 2.2027962387	 0.5171474437	 0.146949
H	-0.7888071574	 1.7612148129	-0.9136507724	 0.127472
H	-1.3501696436	 1.3022989137	 0.7043766493	 0.117275
H	-0.3561760237	-0.6680971952	-0.4380756331	 0.080661
H	 2.004735212	-1.5979844573	-1.4783890645	 0.09974
H	 3.2862874445	-0.4877346934	-0.9479590278	 0.11211
H	 1.7146012311	-2.3726399012	 0.7057444004	 0.135058
H	 2.9548137834	-1.2597215457	 1.3044799113	 0.103386
H	 2.0650604738	 0.3535507532	 2.6539965644	 0.283511
H	-0.4598836791	-0.5979554437	 2.9714667556	 0.090547
36.1508	76.2648	152.9495	213.357	235.0431	245.6297	261.7862	273.2018	356.1894	420.9055	510.3459	543.6311	680.3339	712.7454	739.4883	813.4138	878.0262	884.801	973.4582	998.0531	1021.0224	1062.8819	1093.8315	1134.6175	1150.9344	1170.1784	1180.9463	1237.1119	1256.8348	1306.6821	1336.4542	1363.4357	1381.2682	1391.0396	1397.7532	1416.6153	1479.2217	1482.7463	1498.3902	1524.1551	1823.5656	2882.9237	2958.3302	2995.2301	3052.1646	3061.6395	3087.5984	3120.4725	3122.6317	3150.6312	3820.056
CC1OCCC1(O)C=O	C[C@H]1OCC[C@]1(O)C=O	
InChI=1S/C6H10O3/c1-5-6(8,4-7)2-3-9-5/h4-5,8H,2-3H2,1H3	InChI=1S/C6H10O3/c1-5-6(8,4-7)2-3-9-5/h4-5,8H,2-3H2,1H3/t5-,6+/m1/s1
