15
gdb 23500	3.4174	1.53138	1.31196	1.7182	68.3	-0.2367	-0.0062	0.2305	958.2346	0.113917	-453.817134	-453.810524	-453.80958	-453.848124	26.673	
O	-0.1722946916	 1.2898096314	 0.1105492469	-0.391513
N	-0.0318947328	-0.1032161323	-0.0177350484	-0.298461
C	-1.1521259547	-0.6860029765	-0.0091852387	 0.583474
C	-1.4299631232	-2.1660812922	-0.0460826723	-0.196118
N	-2.0945426236	-2.2831289547	 1.3146147972	-0.330343
C	-3.2161395175	-1.5547787306	 0.6611181195	-0.062336
C	-2.875153427	-2.0391839783	-0.7537550613	 0.099333
O	-2.9983541913	-0.7340394025	-1.3318349307	-0.295046
C	-2.6027316148	-0.2449276072	-0.0034102552	-0.038667
H	 0.7428048006	 1.5888729268	 0.0785371064	 0.309094
H	-0.6437740537	-2.866149805	-0.3131315001	 0.09403
H	-2.3975480063	-3.249941535	 1.4394743835	 0.222754
H	-4.198954657	-1.5131907461	 1.1266617816	 0.094036
H	-3.3054480483	-2.8625761927	-1.3226870273	 0.097469
H	-2.8897043788	 0.7783633448	 0.2125562092	 0.112294
123.6351	205.9528	300.2374	403.8215	430.3368	485.6776	533.4018	667.237	719.7961	728.2708	768.0075	816.0289	838.3687	856.2851	895.0086	923.8326	941.9025	961.5793	974.5612	1028.3691	1043.7196	1109.7828	1143.2722	1149.6915	1188.0173	1188.8536	1223.2283	1248.6527	1292.8473	1334.3558	1340.8906	1417.1836	1811.9988	3128.4218	3143.9903	3173.5614	3194.706	3450.3846	3817.9858
ON=C1C2NC3C2OC13	ON=C1[C@H]2N[C@@H]3[C@H]2O[C@H]13	
InChI=1S/C5H6N2O2/c8-7-2-1-4-3(6-1)5(2)9-4/h1,3-6,8H	InChI=1S/C5H6N2O2/c8-7-2-1-4-3(6-1)5(2)9-4/h1,3-6,8H/t1-,3-,4+,5-/m1/s1
