18
gdb 11795	4.02295	1.7471	1.59374	2.3977	67.14	-0.2462	0.0811	0.3272	870.2312	0.155528	-384.915833	-384.908886	-384.907942	-384.946819	27.727	
O	 0.0040791881	 1.393471868	-0.0742779694	-0.421863
C	 0.0415344893	-0.014957382	 0.0684986774	-0.167601
C	-1.3352468773	-0.6096572007	-0.0551665102	 0.431781
C	-2.2305936624	-0.5476802645	-1.3204151863	-0.259853
C	-3.0691840239	-1.5567763117	-0.4751559438	-0.073195
C	-1.7010239116	-2.1129267494	 0.0370515069	-0.281642
C	-3.4553285641	-0.6574259887	 0.70492933	-0.075812
O	-2.1848114087	-0.0160343343	 0.9603830819	-0.329381
H	-0.7002693465	 1.6962289717	 0.5113919851	 0.292963
H	 0.6900583901	-0.4027590395	-0.7234998011	 0.106734
H	 0.4757932358	-0.3138059713	 1.0366776709	 0.092108
H	-2.6729271834	 0.4185108123	-1.5722585426	 0.102622
H	-1.7685183138	-1.0074589909	-2.1954544618	 0.102081
H	-3.8420655585	-2.1931771631	-0.9037093443	 0.074526
H	-1.1922550474	-2.7297222695	-0.7056354915	 0.103553
H	-1.6630019733	-2.575708494	 1.026396261	 0.100027
H	-4.214414795	 0.0925924806	 0.4536355966	 0.101351
H	-3.7795603872	-1.211461943	 1.5935534213	 0.1016
109.1201	167.3464	290.3414	355.9419	402.5008	443.0707	496.9452	518.3135	640.7088	694.7569	825.3104	850.7233	873.2001	906.852	916.8708	957.0199	978.7786	988.1339	1007.4577	1060.6868	1075.5406	1091.4063	1112.1682	1147.0255	1153.9189	1189.3751	1209.1141	1246.8985	1255.3767	1293.6078	1332.5645	1361.1544	1376.3805	1448.9132	1474.9849	1496.1714	1508.7233	1533.0155	2973.7036	3024.0608	3064.218	3066.9313	3074.583	3078.6573	3129.1373	3133.7504	3141.1714	3792.3347
OCC12CC(C1)CO2	OC[C@@]12C[C@@H](C1)CO2	
InChI=1S/C6H10O2/c7-4-6-1-5(2-6)3-8-6/h5,7H,1-4H2	InChI=1S/C6H10O2/c7-4-6-1-5(2-6)3-8-6/h5,7H,1-4H2/t5-,6+
