16
gdb 5916	3.63841	1.36088	1.25403	2.3899	66.65	-0.257	-0.0326	0.2244	1009.842	0.125636	-383.717034	-383.707685	-383.706741	-383.751142	33.34	
C	 0.2426316086	 1.5900486593	 0.166136501	-0.427757
C	 0.0709722054	 0.0655188929	 0.0432747675	 0.25243
O	 0.6526973638	-0.6070743263	 1.1476319222	-0.469658
C	-1.4167246546	-0.3361742046	-0.1374688807	-0.371841
C	-2.2000369692	-0.0257294439	 1.0508113905	 0.265196
C	-2.7876249529	 0.2290690692	 2.0694046967	-0.426301
C	 0.8734974639	-0.4030143053	-1.1691355482	 0.151572
O	 0.4618311752	-0.382371416	-2.2990696353	-0.260691
H	 1.2966868858	 1.8378152217	 0.3185998217	 0.129898
H	-0.1151017163	 2.0980885086	-0.7340389761	 0.134861
H	-0.3279101256	 1.9573804214	 1.0246670883	 0.133091
H	 0.1126716642	-0.4092986499	 1.9226271258	 0.289733
H	-1.819025493	 0.1668128533	-1.0222024209	 0.150986
H	-1.4638232597	-1.4126135478	-0.337292924	 0.143434
H	-3.3427067652	 0.4509154782	 2.9474180638	 0.202489
H	 1.8967450297	-0.751814691	-0.9105802923	 0.102558
54.9999	77.7585	135.7528	218.8658	243.0765	283.138	332.3423	337.1737	354.4216	394.433	419.8237	535.9265	627.4247	636.4275	661.7974	764.8395	890.0845	913.0459	957.0654	980.0572	1002.748	1115.8087	1130.6617	1199.2761	1263.7539	1308.8884	1381.929	1391.2079	1408.6815	1457.9456	1490.2328	1494.5385	1837.3331	2230.4371	2907.6023	3040.0633	3047.3563	3091.8509	3117.8563	3124.4621	3502.9843	3783.6858
CC(O)(CC#C)C=O	C[C@@](O)(CC#C)C=O	
InChI=1S/C6H8O2/c1-3-4-6(2,8)5-7/h1,5,8H,4H2,2H3	InChI=1S/C6H8O2/c1-3-4-6(2,8)5-7/h1,5,8H,4H2,2H3/t6-/m1/s1
