20
gdb 76525	2.45571	1.21604	1.20116	2.6974	81.81	-0.2281	-0.019	0.2091	1207.4233	0.169408	-403.135071	-403.125479	-403.124535	-403.169649	34.927	
C	-0.0816755262	 0.7083219057	-2.117112166	-0.404366
C	 0.0758327007	-0.397259067	-1.0977181238	-0.07429
C	 1.3438639985	-0.6217603031	-0.3114649046	-0.090053
C	 2.5869272516	 0.2238418357	-0.4847569469	-0.420718
C	 0.1221454927	-0.0499311648	 0.3798877801	 0.203004
N	-0.0440626452	 1.3056225935	 0.9456947332	-0.38412
C	-0.8065302476	 0.7533364713	 2.1138839497	-0.2861
C	-0.6945429704	-0.6495340277	 1.480113662	 0.32387
O	-1.095911494	-1.7464868733	 1.7450702394	-0.314521
H	 0.2986595714	 1.661678291	-1.743030138	 0.13051
H	 0.4391026767	 0.4672163489	-3.0501279617	 0.118172
H	-1.1401402283	 0.857121961	-2.3519127283	 0.125935
H	-0.4884731041	-1.3019699739	-1.3117891968	 0.103709
H	 1.5436085446	-1.6590053307	-0.0511888994	 0.104806
H	 2.3526722003	 1.2659370232	-0.7169605108	 0.125835
H	 3.1983547998	 0.2120578734	 0.4243070914	 0.122134
H	 3.2053502977	-0.1629567712	-1.301670323	 0.129498
H	 0.8412787511	 1.7062324875	 1.2408594229	 0.223932
H	-0.3066987488	 0.8382460449	 3.0854438046	 0.12691
H	-1.8227832006	 1.1507306658	 2.1992462059	 0.135854
91.6499	104.8785	119.5178	153.674	166.0263	201.3669	229.4433	309.1564	440.7486	519.7147	539.7009	548.8775	604.755	723.2944	738.5843	791.8635	824.7734	935.0051	958.4943	993.8943	1004.2	1024.6557	1035.0279	1061.1281	1120.1011	1127.0895	1131.0034	1146.5556	1177.1183	1213.2791	1267.0304	1299.5283	1357.4683	1366.8308	1414.034	1420.3458	1440.2355	1470.9916	1484.1541	1492.2088	1499.8024	1511.8206	1893.3815	3034.2496	3038.7989	3039.0424	3090.9285	3091.8538	3099.4539	3111.1566	3121.2704	3130.9841	3142.6574	3507.6211
CC1C(C)C11NCC1=O	C[C@H]1[C@@H](C)[C@]21NCC2=O	
InChI=1S/C7H11NO/c1-4-5(2)7(4)6(9)3-8-7/h4-5,8H,3H2,1-2H3	InChI=1S/C7H11NO/c1-4-5(2)7(4)6(9)3-8-7/h4-5,8H,3H2,1-2H3/t4-,5+,7-
