21
gdb 108572	2.45769	1.3524	1.17639	2.5699	78.57	-0.2427	0.0691	0.3118	1172.794	0.182896	-424.213305	-424.204191	-424.203247	-424.246978	34.317	
C	-0.1777120484	 1.5575392096	 0.0359890708	-0.431763
C	 0.0106464093	 0.0549111531	 0.088944189	-0.044115
C	 1.3109757062	-0.6593742953	-0.211497026	-0.150518
C	 2.6055162715	 0.1261769511	-0.113691803	-0.093881
O	 2.5582547473	 0.829100539	 1.1248634312	-0.257466
C	 1.7152565333	 0.1222622933	 2.0331680405	-0.138809
C	 0.7385209305	-0.6855193103	 1.1914462321	 0.326923
C	 0.1466254617	-1.921106122	 1.8044534755	-0.183737
O	-0.6948852324	-1.5195054911	 2.8806921802	-0.423317
H	 0.7074120672	 2.0926907054	 0.3831434801	 0.145016
H	-0.3913700003	 1.8806562525	-0.98901486	 0.111351
H	-1.0267020658	 1.8577439308	 0.6595517854	 0.119714
H	-0.8583183629	-0.4940894084	-0.2698799212	 0.081747
H	 1.3008881374	-1.5422162111	-0.842380954	 0.083138
H	 3.4641802459	-0.5641763735	-0.1473694779	 0.091353
H	 2.7408596293	 0.873526564	-0.903839519	 0.107065
H	 2.3020314199	-0.5606205822	 2.6697727207	 0.086914
H	 1.2401132888	 0.8643278484	 2.681943917	 0.116964
H	-0.4189286582	-2.4800104657	 1.0418807441	 0.083026
H	 0.9533214306	-2.5809925101	 2.1656675695	 0.083441
H	-0.9973638209	-2.3108525576	 3.3363789847	 0.286954
80.328	143.8996	186.5035	207.6769	221.3383	244.3305	261.5187	317.841	368.8184	458.8036	508.4122	631.3078	692.1306	744.0025	811.8996	883.2348	929.8465	935.1043	985.0121	998.1903	1019.6672	1053.11	1072.2925	1089.6797	1096.4064	1126.1406	1129.324	1156.1914	1218.5065	1227.6459	1238.454	1243.9415	1272.3498	1323.0855	1357.331	1369.9236	1380.9096	1418.3431	1449.7956	1480.7214	1503.0365	1506.7766	1513.4823	1519.2009	1526.307	2954.5608	2965.0197	2972.1437	2987.6527	3034.5335	3054.767	3076.4857	3088.6588	3115.6461	3142.806	3163.1067	3824.0184
CC1C2COCC12CO	C[C@H]1[C@H]2COC[C@@]12CO	
InChI=1S/C7H12O2/c1-5-6-2-9-4-7(5,6)3-8/h5-6,8H,2-4H2,1H3	InChI=1S/C7H12O2/c1-5-6-2-9-4-7(5,6)3-8/h5-6,8H,2-4H2,1H3/t5-,6+,7-/m0/s1
