18
gdb 72111	2.67687	1.87402	1.47602	2.9911	75.07	-0.2339	-0.0173	0.2166	945.4271	0.149081	-401.905819	-401.898563	-401.897619	-401.937259	28.984	
C	 0.0060458193	 1.5498277443	 0.0111681875	-0.507962
C	 0.0358833668	 0.0446463162	 0.0337590721	 0.166647
C	-1.2542678414	-0.7917941972	-0.1617712416	-0.208012
N	-0.7779342495	-2.1089958069	 0.380150403	-0.146911
C	-0.4652658148	-1.68573768	 1.8029893586	-0.189125
C	 0.6622338796	-0.8453044196	 1.2145775076	-0.090389
C	 0.7331843632	-1.9475541968	 0.0851958985	-0.135675
C	 0.9458883655	-0.7926769957	-0.8794182191	 0.420846
O	 1.7112852473	-0.5579104632	-1.7691964682	-0.330476
H	 1.0131724627	 1.9695875266	 0.0932980744	 0.13198
H	-0.423915667	 1.911929809	-0.9288851352	 0.133629
H	-0.6001512289	 1.9494982531	 0.8312436848	 0.120034
H	-2.1133283324	-0.4351998814	 0.4123707393	 0.108355
H	-1.5479050254	-0.8854325305	-1.211846149	 0.11631
H	-1.2937457252	-1.2112734855	 2.338698196	 0.104452
H	-0.1013482365	-2.5435081955	 2.374033542	 0.117341
H	 1.5293225522	-0.4492772523	 1.7415827268	 0.089327
H	 1.3076132446	-2.8689612647	 0.1233824924	 0.099629
140.4358	174.1571	204.0454	274.5206	330.8375	466.8535	528.5146	569.7447	647.094	671.0973	747.9158	780.5342	799.7535	824.9283	856.3747	907.8898	926.5491	957.1988	997.3371	1008.593	1033.5443	1058.9118	1097.8251	1137.1504	1158.9876	1172.1452	1189.8362	1207.2881	1234.915	1258.7187	1267.5545	1289.8651	1367.0909	1415.368	1488.5278	1492.0657	1505.7409	1529.4757	1884.0015	3032.4422	3045.5894	3053.9595	3097.2014	3101.576	3105.6106	3108.8585	3125.6085	3164.9798
CC12CN3CC1C3C2=O	C[C@]12CN3C[C@H]1[C@@H]3C2=O	
InChI=1S/C7H9NO/c1-7-3-8-2-4(7)5(8)6(7)9/h4-5H,2-3H2,1H3	InChI=1S/C7H9NO/c1-7-3-8-2-4(7)5(8)6(7)9/h4-5H,2-3H2,1H3/t4-,5+,7-/m0/s1
