15
gdb 28617	5.34629	1.03134	0.86921	5.2647	77.84	-0.2557	-0.0771	0.1786	1273.6132	0.113029	-416.872905	-416.864835	-416.863891	-416.907345	28.181	
C	-0.0139402527	 1.5295130391	-0.0163962981	-0.50124
C	 0.0049790333	 0.0269799397	-0.0055311914	 0.245628
C	-0.0876696186	-0.7367751979	-1.1678642186	-0.057364
N	-0.0709869431	-2.0698402959	-1.1635281823	-0.269867
C	 0.0409491196	-2.6565811486	 0.0309940147	 0.240843
C	 0.0565038126	-4.1591963293	-0.0023416814	 0.115356
O	 0.1501159651	-4.8648792552	 0.9665693082	-0.237638
N	 0.1369338688	-2.0387548775	 1.2132892733	-0.256287
C	 0.117729503	-0.7116811387	 1.1793168399	-0.047217
H	 0.9059776249	 1.9406696976	 0.4130885278	 0.148088
H	-0.1128035149	 1.916431372	-1.0337903581	 0.137114
H	-0.8485297003	 1.9198478236	 0.5758661215	 0.147975
H	-0.1788791757	-0.2534134545	-2.1393287172	 0.119251
H	-0.0290935399	-4.5568896056	-1.03481524	 0.094535
H	 0.195390078	-0.2010619388	 2.1386008819	 0.120824
17.5065	79.9224	160.6023	196.488	325.725	333.9294	421.4609	433.6059	487.4504	618.9384	661.7692	793.2736	796.8693	875.08	935.1838	1005.1733	1012.1005	1047.6131	1057.3209	1072.891	1244.578	1264.8578	1279.547	1315.5625	1400.7867	1415.2323	1420.5845	1463.3928	1482.7216	1492.6086	1587.2577	1621.1756	1829.6919	2928.6745	3037.1231	3094.0033	3120.3961	3138.2862	3144.6784
CC1=CN=C(C=O)N=C1	Cc1cnc(C=O)nc1	
InChI=1S/C6H6N2O/c1-5-2-7-6(4-9)8-3-5/h2-4H,1H3	InChI=1S/C6H6N2O/c1-5-2-7-6(4-9)8-3-5/h2-4H,1H3
