20
gdb 110601	3.64275	1.02732	1.01377	1.8335	79.28	-0.2164	0.0685	0.2849	1283.9834	0.169993	-403.045801	-403.037022	-403.036078	-403.079198	33.944	
C	 0.5433187792	 1.0116610304	 1.0711586282	-0.4769
C	 0.1752643673	-0.3711244518	 0.6210983676	 0.336863
C	-0.6413594619	-1.3094393559	 1.4241208895	-0.298632
N	 0.798411846	-1.5973582062	 1.2387131374	-0.177173
C	 1.0613028586	-2.1011344989	-0.1627160578	-0.048449
C	-0.0453161956	-2.1908359771	-1.1866111195	 0.011575
C	-1.4727348506	-2.7264516985	-1.1496343948	-0.134937
O	-1.7522764651	-3.1847240593	-2.4681704985	-0.43653
C	 0.5063682087	-0.8442106663	-0.8138162079	-0.171695
H	 1.5473971456	 1.2806894177	 0.7249634923	 0.124595
H	-0.1608167493	 1.7510105149	 0.6707161448	 0.119776
H	 0.5311424219	 1.0807960644	 2.1624494281	 0.126768
H	-0.8554112484	-1.0017079755	 2.4450934594	 0.117037
H	-1.3936353002	-1.9607353042	 1.0039102845	 0.117872
H	 2.0087571803	-2.6056226893	-0.3079480815	 0.100721
H	 0.4052869603	-2.5190472104	-2.1235194685	 0.114591
H	-1.562073841	-3.5516256776	-0.4252990437	 0.099835
H	-2.1815790808	-1.9391577035	-0.8563767958	 0.099327
H	-2.6532941513	-3.5213378828	-2.4821863721	 0.284729
H	 0.9740433564	-0.1785285502	-1.5288091718	 0.090627
61.7379	156.408	192.5535	212.0441	254.1418	296.0591	327.0225	360.8151	439.4294	488.1598	587.0625	657.4084	705.7929	720.2269	768.1429	844.3816	886.629	918.4267	930.3035	980.5688	995.5076	1012.713	1062.053	1065.4038	1078.9032	1086.3297	1101.0182	1129.7739	1135.6453	1190.4741	1230.7187	1261.6037	1277.7426	1301.6553	1332.5866	1370.7552	1407.5164	1421.7432	1463.5534	1480.7661	1493.3402	1513.8146	1530.7811	2967.1195	3008.3705	3025.5157	3086.3458	3113.6156	3116.0259	3126.9783	3178.304	3189.2828	3248.0678	3826.925
CC12CN1C1C(CO)C21	C[C@]12CN1[C@H]1[C@@H](CO)[C@@H]21	
InChI=1S/C7H11NO/c1-7-3-8(7)6-4(2-9)5(6)7/h4-6,9H,2-3H2,1H3	InChI=1S/C7H11NO/c1-7-3-8(7)6-4(2-9)5(6)7/h4-6,9H,2-3H2,1H3/t4-,5+,6-,7+,8?/m0/s1
