17
gdb 113285	2.24437	1.31867	1.1086	2.871	78.	-0.2396	-0.0279	0.2117	1180.9581	0.131793	-421.775019	-421.765402	-421.764458	-421.809465	34.575	
C	-0.3770438708	 0.9513684125	-0.1296320374	-0.24023
O	 0.5823472439	-0.0672126131	 0.1035555523	-0.205806
C	 1.0274569465	-0.6793456887	-1.0350638601	 0.108326
C	 1.5792978374	-2.0366033142	-0.9233307344	-0.353426
C	 0.2326006631	-1.9050622081	-1.6520568645	-0.024107
C	-0.9778134923	-2.3589075298	-0.9045149933	 0.08398
O	-1.0045668791	-2.5803761098	 0.2811285021	-0.262918
C	 0.1794319663	-1.9916536131	-3.0796360958	 0.240386
C	 0.1195466044	-2.0597336706	-4.2798203121	-0.414295
H	 0.01570817	 1.7218921168	-0.8080585104	 0.11554
H	-1.2993195011	 0.538253437	-0.5593813849	 0.120167
H	-0.600826799	 1.4015577894	 0.8386210038	 0.14156
H	 1.4129053497	-0.0132728017	-1.8081391847	 0.111444
H	 2.437641006	-2.3115803355	-1.5235141696	 0.137159
H	 1.4911549555	-2.5029643842	 0.0522630175	 0.161476
H	-1.8815589491	-2.465573379	-1.5407424397	 0.085038
H	 0.0705685486	-2.1278775878	-5.3383220988	 0.195705
91.4341	110.3746	140.6308	151.081	177.112	212.0906	264.6886	298.0317	447.2039	478.0987	507.1955	530.6482	539.821	575.194	664.1397	720.4708	753.1446	865.0153	937.1297	1006.4581	1041.0126	1048.931	1098.8635	1135.8772	1179.5418	1185.2276	1239.7451	1270.469	1290.1507	1395.3961	1423.9637	1459.5959	1486.107	1492.7642	1504.394	1803.7181	2230.8855	2908.9892	2996.4038	3054.0483	3101.9999	3139.1801	3144.2797	3246.5909	3502.3975
COC1CC1(C=O)C#C	CO[C@H]1C[C@]1(C=O)C#C	
InChI=1S/C7H8O2/c1-3-7(5-8)4-6(7)9-2/h1,5-6H,4H2,2H3	InChI=1S/C7H8O2/c1-3-7(5-8)4-6(7)9-2/h1,5-6H,4H2,2H3/t6-,7-/m0/s1
