15
gdb 31915	5.60684	0.88424	0.77513	0.9935	81.91	-0.2138	-0.0228	0.191	1396.1596	0.111631	-420.618611	-420.610202	-420.609257	-420.652115	30.861	
O	 0.4234566404	 0.8767810502	-0.672580023	-0.403153
C	-0.0352539973	-0.0184814276	 0.3217360302	-0.179703
C	-1.4488537153	-0.4443172986	 0.0772156675	 0.295359
C	-2.2271665545	-0.4486877279	-1.0429997766	-0.241574
C	-3.4932567108	-0.9701183628	-0.6466508722	-0.277864
C	-3.4021825193	-1.2494933247	 0.6899868238	 0.20284
O	-2.1442241687	-0.9211289993	 1.1394526967	-0.205625
C	-4.3168929567	-1.7737053552	 1.6177043738	 0.244114
C	-5.1102478908	-2.224488058	 2.4045027683	-0.414216
H	-0.1571485089	 1.6454933687	-0.660838987	 0.287225
H	 0.6428791559	-0.8796895791	 0.2799728078	 0.137001
H	 0.0440190725	 0.3973850857	 1.338192733	 0.114975
H	-1.9225136719	-0.1291133901	-2.0264198397	 0.125251
H	-4.3660183219	-1.1224777252	-1.2613167601	 0.120382
H	-5.8097635026	-2.6224156059	 3.0971262575	 0.194987
53.4741	125.3379	147.83	202.4646	253.1922	348.8496	404.8396	449.6997	532.683	546.7825	602.2347	638.585	683.3147	690.192	714.8719	813.9539	857.3287	970.1721	981.2064	1002.773	1036.3952	1091.626	1191.3716	1214.1682	1232.4684	1245.0893	1352.3216	1400.7448	1427.3022	1498.1421	1552.1454	1624.7567	2229.8016	2988.4255	3048.3751	3261.8446	3275.1664	3503.2823	3807.0922
OCC1=CC=C(O1)C#C	OCc1ccc(o1)C#C	
InChI=1S/C7H6O2/c1-2-6-3-4-7(5-8)9-6/h1,3-4,8H,5H2	InChI=1S/C7H6O2/c1-2-6-3-4-7(5-8)9-6/h1,3-4,8H,5H2
