17
gdb 15665	3.18752	1.81684	1.27425	0.2588	63.91	-0.2496	0.0156	0.2652	953.3929	0.142978	-401.010534	-401.002648	-401.001704	-401.043278	28.821	
C	-0.0302889114	 1.5424568011	-0.1891547639	-0.395113
C	 0.0369236115	 0.0312131353	 0.0331933632	 0.008832
N	 0.6935139403	-0.6459280916	-1.1082308825	-0.266199
C	 1.5540320354	-1.4268457019	-0.6102397982	 0.113383
O	 1.7147173151	-1.4933141259	 0.7349265444	-0.247791
C	 0.8315131053	-0.4634765992	 1.2833175853	 0.059565
C	 1.723721721	 0.5370709418	 2.0100124165	-0.068781
O	 2.4485909196	-0.0888429069	 3.0495213302	-0.42351
H	 0.965536223	 1.9804898891	-0.296526848	 0.125444
H	-0.5833811591	 1.7447552355	-1.1095489051	 0.134273
H	-0.5456836482	 2.0429271832	 0.6365700962	 0.117077
H	-0.991370279	-0.3470544483	 0.0874570873	 0.095821
H	 2.2060256688	-2.0879570246	-1.1709033689	 0.141963
H	 0.1914805834	-0.9621197893	 2.0160796418	 0.101607
H	 2.3958680094	 1.0264143286	 1.2884977126	 0.096565
H	 1.1101433592	 1.3144310729	 2.4759419138	 0.116019
H	 2.9213342458	-0.8263794499	 2.6467798254	 0.290845
48.6551	127.744	195.7954	240.9353	295.5846	317.2676	428.4975	450.1882	480.8375	575.3848	719.2164	810.3109	843.1433	876.1746	947.3276	962.9795	1009.4653	1024.0572	1085.7878	1090.39	1120.2203	1147.0199	1153.8169	1225.9592	1289.8031	1313.4021	1326.5912	1359.601	1374.0015	1399.3752	1409.8789	1434.2659	1487.8368	1496.1216	1504.2395	1711.8704	2988.2105	3021.3538	3045.3438	3075.1047	3088.6587	3117.3884	3126.9792	3212.4143	3800.9779
CC1N=COC1CO	C[C@H]1N=CO[C@H]1CO	
InChI=1S/C5H9NO2/c1-4-5(2-7)8-3-6-4/h3-5,7H,2H2,1H3	InChI=1S/C5H9NO2/c1-4-5(2-7)8-3-6-4/h3-5,7H,2H2,1H3/t4-,5+/m1/s1
