18
gdb 37619	2.87765	2.30578	2.02402	1.5778	76.43	-0.2307	0.0146	0.2453	795.4983	0.152865	-364.789317	-364.783812	-364.782868	-364.818685	25.063	
C	-0.0243611012	 1.5566332021	-0.0143738125	-0.204822
C	 1.4648424959	 1.8361280921	-0.0172403053	-0.004891
C	 2.2439360386	 0.9474986592	 1.0536119795	-0.098852
C	 1.3877358011	 0.2174489439	 2.0453869146	-0.072157
C	 0.28413131	-0.3318973489	 1.5270893248	-0.079125
C	 0.0286956012	-0.003081949	 0.0740493534	-0.102344
C	 1.2902630123	-0.273457853	-0.794785347	-0.037719
C	 2.5807166901	 0.0645937323	-0.1582816926	-0.033215
N	 1.9852984431	 0.9957087892	-1.1691701822	-0.157581
H	-0.5757226881	 2.0059090468	 0.8145749667	 0.100259
H	-0.4551977422	 1.8852187398	-0.9660932008	 0.109356
H	 1.7752591245	 2.8784216022	-0.0738761393	 0.078323
H	 3.1037003156	 1.460580529	 1.4824543659	 0.071144
H	 1.6754096386	 0.1276480465	 3.0872089251	 0.091687
H	-0.42873337	-0.9136832429	 2.101252444	 0.09164
H	-0.8585058458	-0.4940844815	-0.3257310183	 0.066083
H	 1.2555131586	-1.024598856	-1.5746833752	 0.094226
H	 3.5076014176	-0.475832932	-0.326217671	 0.087988
353.6664	380.6076	444.5116	546.3583	565.5601	660.8341	695.7586	721.6464	769.052	791.8993	802.3311	812.8648	862.8584	883.1281	931.1273	948.7493	960.9105	971.1335	1001.9839	1010.0499	1028.4993	1049.5805	1064.0682	1071.4475	1113.5248	1157.7726	1168.6196	1184.7685	1220.612	1251.6098	1265.7179	1287.4246	1304.1945	1328.7793	1334.3016	1390.4555	1392.2864	1472.5921	1668.5772	3051.4965	3108.082	3114.0147	3116.181	3128.5996	3151.2095	3174.8305	3187.2208	3198.3539
C1C2C3C=CC1C1C3N21	C1[C@H]2[C@H]3C=C[C@@H]1[C@@H]1[C@H]3N21	
InChI=1S/C8H9N/c1-2-5-6-3-4(1)7-8(5)9(6)7/h1-2,4-8H,3H2	InChI=1S/C8H9N/c1-2-5-6-3-4(1)7-8(5)9(6)7/h1-2,4-8H,3H2/t4-,5+,6-,7+,8-,9?/m0/s1
