17
gdb 70669	2.51551	1.6389	1.18609	3.3467	68.27	-0.2517	-0.0316	0.2201	1052.7517	0.133912	-458.957036	-458.948595	-458.947651	-458.99042	30.748	
C	 0.0221778639	 1.4532114334	-0.2681272446	-0.495975
C	 0.1295734274	-0.0303190696	-0.0740421507	 0.370576
O	-0.7978356509	-0.6649510753	 0.8260492928	-0.291231
C	 0.603039809	-0.7475416079	 1.1142266216	-0.042868
C	 1.2165830412	-2.0485083438	 0.6554169857	-0.109325
O	 0.8097932968	-2.202976359	-0.7042852459	-0.278825
C	 0.4466975252	-0.9488877356	-1.2572968785	-0.011185
C	-0.7649887661	-1.1388399904	-2.1596695644	 0.14437
O	-1.1437440113	-0.2976222255	-2.9323030604	-0.248747
H	 0.9687142918	 1.8664817832	-0.6310947983	 0.129349
H	-0.7491997067	 1.6839174492	-1.0089460867	 0.15718
H	-0.2387015838	 1.9389265487	 0.6747868407	 0.13549
H	 0.9454145104	-0.2499905254	 2.0177956264	 0.107505
H	 2.3130117374	-1.9983492273	 0.7433304551	 0.10321
H	 0.8592377613	-2.9203680238	 1.212387434	 0.126212
H	 1.2614690807	-0.5046374028	-1.8504275978	 0.100238
H	-1.2818029262	-2.1113107879	-2.0210765591	 0.104026
73.8445	106.1546	179.6419	190.925	232.5955	287.209	342.3045	425.3078	468.6421	523.4958	615.937	698.6431	781.1566	837.3093	887.8393	931.4006	963.6146	994.6412	1013.6252	1054.6772	1072.7479	1112.7899	1121.2512	1124.2631	1223.2922	1236.1345	1286.6479	1297.0938	1307.4787	1373.2666	1390.6445	1412.4192	1463.209	1484.6451	1499.7935	1507.6403	1830.7861	2924.8855	2986.9002	2992.8746	3044.4947	3078.9411	3111.7121	3133.1519	3154.6342
CC12OC1COC2C=O	C[C@]12O[C@H]1CO[C@H]2C=O	
InChI=1S/C6H8O3/c1-6-4(2-7)8-3-5(6)9-6/h2,4-5H,3H2,1H3	InChI=1S/C6H8O3/c1-6-4(2-7)8-3-5(6)9-6/h2,4-5H,3H2,1H3/t4-,5-,6+/m0/s1
