21
gdb 123239	7.84037	0.3898	0.38193	5.1699	78.08	-0.2711	0.0095	0.2806	2720.5049	0.180036	-461.381623	-461.37058	-461.369636	-461.420133	36.942	
O	-0.2738551491	 1.425656804	 0.3311944815	-0.419778
C	-0.0731653477	 0.0385735229	 0.1114846665	-0.073861
C	-1.4413378153	-0.6291807429	 0.0638729403	-0.165603
C	-1.3606186203	-2.1409992715	-0.1661564998	-0.193032
C	-2.7399029035	-2.8075371752	-0.2177199134	-0.187785
C	-2.6479988624	-4.3113638157	-0.4467509581	-0.09119
O	-3.9548338699	-4.8863933063	-0.5857649646	-0.173448
C	-4.4404548708	-5.6108418171	 0.437524876	 0.171005
O	-5.5312544072	-6.096336057	 0.4296761488	-0.274682
H	 0.5860260105	 1.8549346501	 0.3589382285	 0.286682
H	 0.4622919324	-0.1431021087	-0.8352874257	 0.084369
H	 0.5319697442	-0.4103735868	 0.9168126192	 0.083632
H	-1.9634151616	-0.4177538071	 1.0049348551	 0.109031
H	-2.0305257567	-0.1576323116	-0.731861657	 0.110227
H	-0.8247432288	-2.3418101583	-1.1042314803	 0.10045
H	-0.7605879744	-2.6017674865	 0.6310848281	 0.097854
H	-3.2823041693	-2.6212042246	 0.7178052983	 0.107883
H	-3.3425055846	-2.3677187279	-1.020831989	 0.120543
H	-2.1152914148	-4.5360588803	-1.3760319086	 0.125203
H	-2.1101229249	-4.8028679131	 0.3753622544	 0.109298
H	-3.7178556559	-5.7101903064	 1.2726701497	 0.073201
31.5982	51.9844	72.5212	96.0337	132.3961	143.6268	161.169	263.3494	264.2068	274.4611	378.8138	455.1666	483.7404	680.4516	741.4464	772.7534	850.9009	975.8316	995.3322	1016.8551	1043.7339	1052.6645	1061.6062	1073.9525	1099.3485	1141.9163	1194.8544	1226.0311	1239.7376	1283.3616	1288.2015	1316.446	1328.7046	1336.5293	1342.4979	1399.2466	1410.7596	1434.788	1465.1922	1487.1575	1490.4617	1502.1412	1514.4398	1529.4461	1867.0412	2933.0256	2954.8348	2979.6241	3003.8504	3016.1785	3028.4575	3032.0602	3036.0114	3067.326	3078.2734	3092.7569	3831.2821
OCCCCCOC=O	OCCCCCOC=O	
InChI=1S/C6H12O3/c7-4-2-1-3-5-9-6-8/h6-7H,1-5H2	InChI=1S/C6H12O3/c7-4-2-1-3-5-9-6-8/h6-7H,1-5H2
