18
gdb 99584	1.9753	1.26101	1.09071	3.4582	75.37	-0.2449	0.0191	0.264	1235.2275	0.14458	-439.05807	-439.047673	-439.046729	-439.094077	36.243	
C	-0.4932951265	-0.5020683634	 1.0907136279	-0.352394
N	 0.1316229214	 0.1295866437	-0.0605213197	-0.054908
C	 0.5283794497	 1.4389729921	 0.0153216354	 0.13005
O	 0.3797580514	 2.1510003408	 0.9877574854	-0.346193
C	 0.2469820941	-0.657284886	-1.2937235485	-0.19614
C	-1.0398197789	-0.5328241374	-2.1534174456	-0.067015
O	-1.2901227298	 0.788596429	-2.5655621441	-0.405237
C	 1.4415067355	-0.3308582474	-2.0724977889	 0.328027
C	 2.411334043	-0.1187382097	-2.7485084505	-0.42573
H	-1.5194825472	-0.8200658859	 0.8714670727	 0.124498
H	 0.0807782114	-1.3804713384	 1.4082787616	 0.131117
H	-0.5123361108	 0.2317943611	 1.8961623295	 0.174712
H	 1.0080533153	 1.7797223199	-0.9161268309	 0.112139
H	 0.3285491187	-1.7090271783	-0.9855289665	 0.118045
H	-0.9167943039	-1.1310108486	-3.0606815527	 0.127835
H	-1.8816819495	-0.9520603779	-1.5820922038	 0.097115
H	-1.5493521832	 1.3007586306	-1.7923225462	 0.296755
H	 3.2716468895	 0.0837182058	-3.3379729951	 0.207324
50.3664	81.6763	103.6019	130.3252	156.9831	198.5	290.1782	314.8623	318.8218	355.6515	360.3146	421.5172	490.4688	632.8176	637.9243	673.5011	772.7644	829.9259	877.9778	963.3181	1024.6487	1043.7414	1083.6588	1107.5222	1157.5242	1216.9062	1237.4229	1287.3115	1305.5766	1398.3971	1407.8097	1424.4329	1438.438	1450.5756	1491.6341	1502.0694	1518.4155	1783.4161	2240.6973	2991.3342	3010.8098	3013.9432	3022.5456	3071.5179	3095.5598	3159.3812	3501.3496	3815.2583
CN(C=O)C(CO)C#C	CN(C=O)[C@@H](CO)C#C	
InChI=1S/C6H9NO2/c1-3-6(4-8)7(2)5-9/h1,5-6,8H,4H2,2H3	InChI=1S/C6H9NO2/c1-3-6(4-8)7(2)5-9/h1,5-6,8H,4H2,2H3/t6-/m1/s1
