19
gdb 41918	2.24546	2.1973	1.86387	0.1916	73.06	-0.1877	0.0599	0.2476	879.7121	0.164151	-419.163347	-419.15647	-419.155526	-419.194376	28.531	
C	-0.030862446	 1.5237234251	 0.0615514971	-0.153101
N	 1.2964035353	 2.1305967333	-0.0812868983	-0.296522
C	 2.2534846616	 1.3622328303	-0.846162345	-0.0625
C	 2.7821098253	 0.0858007056	-0.1976376424	-0.062506
N	 2.2748225389	-0.2315438378	 1.1189524292	-0.296546
C	 0.8722747965	-0.6567081129	 1.1695524958	-0.153127
C	 0.0460111841	-0.0071659949	 0.0537570989	 0.057104
O	 0.5513197212	-0.4407198773	-1.2117024703	-0.266043
C	 1.8676512325	 0.0059378702	-1.4052015546	 0.060989
H	-0.4874011136	 1.8688889689	 0.9983469905	 0.098607
H	-0.7139127721	 1.7955368153	-0.7590706331	 0.090901
H	 1.2123843072	 3.0593572244	-0.4701401714	 0.222555
H	 2.9511608608	 1.9728912946	-1.4098893672	 0.083243
H	 3.8321090752	-0.1542063424	-0.3293591878	 0.083252
H	 2.863342435	-0.92742928	 1.5551532313	 0.222556
H	 0.7520950258	-1.7441631781	 1.0397592968	 0.090912
H	 0.4495224051	-0.3928635223	 2.1477080299	 0.098631
H	-0.9730660661	-0.3995860938	 0.1123111116	 0.088668
H	 2.2408358734	-0.3288596281	-2.3681804609	 0.092926
104.8553	209.1263	333.026	357.7188	450.5832	459.3998	552.4371	617.4138	624.8344	653.3902	723.5128	745.6337	786.8912	846.5821	888.464	910.8389	920.4832	949.5999	969.0284	1055.9913	1083.7226	1086.4018	1093.2699	1105.774	1128.9101	1174.2824	1210.6177	1238.3285	1249.9552	1265.6173	1293.9441	1321.9304	1345.4805	1363.0195	1400.51	1409.2469	1458.4067	1477.7393	1501.2745	1503.5388	1512.3222	2966.3461	2967.0017	3024.0769	3031.6328	3075.3058	3145.7428	3150.2186	3162.0747	3573.3892	3574.0191
C1NC2C3NCC1OC23	C1N[C@H]2[C@H]3NC[C@@H]1O[C@@H]23	
InChI=1S/C6H10N2O/c1-3-2-8-5-4(7-1)6(5)9-3/h3-8H,1-2H2	InChI=1S/C6H10N2O/c1-3-2-8-5-4(7-1)6(5)9-3/h3-8H,1-2H2/t3-,4+,5-,6+
