20
gdb 117396	5.93248	0.59436	0.57529	2.8746	85.4	-0.2359	0.0124	0.2483	2008.7795	0.1697	-436.516708	-436.505898	-436.504954	-436.554024	37.247	
C	 0.818528208	 1.4680487084	-0.4243273659	-0.373849
C	-0.1699621751	 0.3818008769	 0.0071918083	-0.139585
N	-0.2827743049	-0.7182621901	-0.9416097039	-0.372638
C	 0.5905050638	-1.7749999433	-0.8853805388	 0.527048
O	 1.4005844382	-1.9372449411	 0.0090421294	-0.401966
N	 0.4501121828	-2.6741365672	-1.9405363486	-0.392793
C	 1.2295637056	-3.8106823211	-2.0656794907	 0.124596
N	 1.0392091949	-4.625901273	-3.0155499603	-0.250643
C	 1.9036299882	-5.7866505847	-3.0767708733	-0.309706
H	 1.8226437467	 1.0477244644	-0.5261712622	 0.142055
H	 0.5300293179	 1.9131004973	-1.3830311409	 0.108425
H	 0.854833786	 2.2695235259	 0.3205662655	 0.1195
H	 0.1471650415	-0.0578731079	 0.9548317187	 0.148311
H	-1.1696168291	 0.8050241848	 0.1525775103	 0.104506
H	-0.7542787513	-0.5302921036	-1.8123681426	 0.237579
H	-0.2825248372	-2.567251954	-2.6264317739	 0.249453
H	 1.9838102662	-3.8947920612	-1.2780079758	 0.130797
H	 1.299009635	-6.7005642936	-3.0375135283	 0.124151
H	 2.4356095907	-5.8014430201	-4.0355348474	 0.123493
H	 2.6491837222	-5.8302591669	-2.2669583799	 0.101264
33.3414	47.3316	106.9578	121.8143	129.0295	206.0723	226.0259	300.2778	308.1027	334.1095	378.4047	398.6937	447.1707	568.2943	594.252	715.5715	766.2402	813.5971	905.4678	990.4566	1012.2511	1060.3958	1082.411	1121.9017	1143.8724	1157.212	1167.5042	1223.0749	1274.6651	1328.7212	1356.841	1392.9603	1409.2146	1447.7958	1472.7899	1480.5083	1483.9893	1493.3585	1502.759	1510.1073	1548.7679	1759.1626	1795.3416	2975.4409	3034.6194	3050.6931	3055.8452	3070.1786	3097.7391	3097.9219	3119.1458	3130.6808	3615.0809	3625.3276
CCNC(=O)NC=NC	CCNC(=O)NC=NC	
InChI=1S/C5H11N3O/c1-3-7-5(9)8-4-6-2/h4H,3H2,1-2H3,(H2,6,7,8,9)	InChI=1S/C5H11N3O/c1-3-7-5(9)8-4-6-2/h4H,3H2,1-2H3,(H2,6,7,8,9)
