19
gdb 32790	3.22283	0.97504	0.78583	2.5417	79.09	-0.1976	0.022	0.2195	1476.031	0.159694	-419.246526	-419.237155	-419.236211	-419.281674	33.688	
C	 0.1317500138	 1.6230728816	-0.1499046354	-0.381389
C	 0.1221759457	 0.0931615236	-0.1352251288	-0.148969
C	 0.5041782285	-0.4940906454	 1.2352399992	-0.314036
C	 0.5684823457	-1.987321977	 1.2428960063	 0.207193
C	-0.1351927211	-2.8950908264	 1.9751706326	 0.254533
N	-1.0587562377	-2.8261415797	 3.0090186726	-0.598377
O	 0.2720527793	-4.1491862588	 1.6257521982	-0.16935
C	 1.2245895211	-3.9360120186	 0.6717834774	 0.051351
N	 1.445551877	-2.6961718849	 0.4128117444	-0.300798
H	 1.1235869848	 2.014583884	 0.1025231733	 0.115774
H	-0.1384949275	 2.0135793017	-1.1359105482	 0.111951
H	-0.5788441776	 2.0348637998	 0.5763396502	 0.107478
H	-0.8698887059	-0.2789085241	-0.420335577	 0.089367
H	 0.821406212	-0.2960996542	-0.8830244583	 0.122625
H	 1.4775687117	-0.0832792527	 1.5369018809	 0.114105
H	-0.2126583044	-0.1523300529	 1.9942605846	 0.081022
H	-1.4435492545	-1.8968487353	 3.1124500841	 0.256751
H	-1.8054985015	-3.5048290623	 2.9155268798	 0.257298
H	 1.6767902706	-4.8145792382	 0.2411702442	 0.14347
44.4547	78.901	114.2114	154.8094	242.7345	259.4164	271.8209	317.5617	358.5879	477.027	643.0267	660.1772	706.8324	742.975	745.6535	781.3185	801.9182	870.3068	898.6228	953.1194	1017.1723	1044.5956	1074.7384	1112.5785	1116.2992	1200.4845	1260.3927	1280.3061	1288.9722	1325.1429	1332.274	1387.6191	1411.168	1429.2337	1476.127	1492.5817	1499.7094	1509.4724	1574.2406	1626.9636	1696.7433	3005.5336	3026.2932	3028.8452	3038.7158	3072.0913	3096.9592	3101.616	3281.8052	3531.4699	3633.9359
CCCC1=C(N)OC=N1	CCCc1c(N)ocn1	
InChI=1S/C6H10N2O/c1-2-3-5-6(7)9-4-8-5/h4H,2-3,7H2,1H3	InChI=1S/C6H10N2O/c1-2-3-5-6(7)9-4-8-5/h4H,2-3,7H2,1H3
