18
gdb 87082	4.25616	0.72186	0.6892	2.0385	98.46	-0.2293	-0.0131	0.2163	1682.5454	0.144113	-364.72803	-364.718071	-364.717127	-364.762872	36.463	
C	-0.2350399999	 1.4282442623	-0.0541394888	-0.315764
N	 0.0423729309	 0.0028179875	 0.0399067464	-0.091474
C	 1.394734261	-0.4600241453	-0.194998665	-0.268468
C	 0.8058459544	-0.5258316089	 1.1908154928	 0.013728
C	 1.3587508608	 0.3834318682	 2.2805983333	-0.46296
C	 0.3201660599	-1.7920183101	 1.6806514511	 0.396727
C	-0.0656737944	-2.8479058141	 2.1311978344	-0.166324
C	-0.5027544542	-4.0376815338	 2.6241072236	 0.287863
C	-0.8900656826	-5.0934466132	 3.0650575811	-0.578488
H	 0.6113026186	 2.0834641703	 0.2013410409	 0.102042
H	-0.5291191213	 1.6487443878	-1.0851643584	 0.132097
H	-1.0775359408	 1.6779209947	 0.5977785392	 0.131408
H	 1.4991782404	-1.3627665534	-0.7902558065	 0.125107
H	 2.1789457259	 0.2835690544	-0.3416589494	 0.108689
H	 1.797981493	 1.2936230137	 1.8683173076	 0.122691
H	 0.5723078369	 0.6639507101	 2.9881121517	 0.135053
H	 2.1374937971	-0.1431656087	 2.839257332	 0.139025
H	-1.2320671857	-6.0223064915	 3.4485526438	 0.189047
77.2796	78.4095	167.8209	172.6643	198.2709	224.7304	296.4859	310.4695	359.4166	435.5437	488.4481	503.5457	536.2462	546.4179	590.5419	598.5748	610.2358	748.8879	814.1609	923.1282	961.4879	1061.6974	1065.9819	1090.4937	1122.9483	1143.4054	1176.0112	1202.3905	1292.4931	1363.5426	1410.5063	1450.063	1481.9505	1484.3344	1496.1299	1501.491	1511.0284	2180.3696	2356.6337	2985.9657	3047.4088	3072.4153	3078.4884	3107.4735	3113.0848	3134.4401	3179.2438	3505.7048
CN1CC1(C)C#CC#C	CN1C[C@]1(C)C#CC#C	
InChI=1S/C8H9N/c1-4-5-6-8(2)7-9(8)3/h1H,7H2,2-3H3	InChI=1S/C8H9N/c1-4-5-6-8(2)7-9(8)3/h1H,7H2,2-3H3/t8-,9?/m0/s1
