17
gdb 88937	3.09786	0.89256	0.74352	2.2877	70.15	-0.2558	-0.0998	0.156	1500.796	0.131782	-458.960599	-458.950869	-458.949925	-458.997538	33.111	
C	-0.150689078	 1.5991002995	 0.164909685	-0.420997
C	 0.0391515981	 0.1041637795	 0.1162919454	 0.071283
O	 1.3769729735	-0.3947571367	-0.0010189339	-0.25874
C	 0.641119619	-0.7063420272	 1.1871059128	 0.066016
C	 1.1670908068	-0.1295138079	 2.4790552204	-0.355622
C	 2.1319961383	-1.0589485007	 3.1876394899	 0.293813
O	 2.2364728518	-2.2447657357	 2.9810528081	-0.271879
C	 3.0228064031	-0.4353414791	 4.2732614528	 0.094411
O	 3.0088150973	 0.7340229715	 4.5529211983	-0.216416
H	 0.5651765135	 2.0834537003	 0.8317801433	 0.128506
H	-0.0221600518	 2.0259190113	-0.8350533388	 0.13436
H	-1.1638238888	 1.8422537009	 0.5033048773	 0.124665
H	-0.6704854782	-0.4138067637	-0.5328583744	 0.0918
H	 0.3455185229	-1.7526408927	 1.2598925485	 0.109588
H	 1.6538250531	 0.8373161923	 2.3329472783	 0.150964
H	 0.3417323867	 0.0568250054	 3.1835148209	 0.145521
H	 3.6796448527	-1.1804147771	 4.7691225561	 0.112725
21.0842	42.4557	107.6094	127.5694	164.714	221.9524	228.7148	345.8748	428.5403	460.9555	494.2099	522.5433	630.9003	762.3884	810.0055	836.1585	882.8792	947.1195	993.7311	1028.5089	1089.827	1096.7331	1148.755	1172.9251	1178.6687	1215.8278	1306.5904	1333.909	1362.4304	1401.9507	1418.4328	1424.1875	1470.4718	1489.078	1512.9218	1807.6146	1824.3411	2929.4684	3011.4451	3040.8321	3081.3011	3101.8069	3109.6151	3121.7917	3136.9878
CC1OC1CC(=O)C=O	C[C@H]1O[C@H]1CC(=O)C=O	
InChI=1S/C6H8O3/c1-4-6(9-4)2-5(8)3-7/h3-4,6H,2H2,1H3	InChI=1S/C6H8O3/c1-4-6(9-4)2-5(8)3-7/h3-4,6H,2H2,1H3/t4-,6+/m1/s1
