17
gdb 16856	3.93084	1.94089	1.45157	3.2252	69.25	-0.249	0.032	0.281	871.2564	0.144614	-363.867645	-363.860919	-363.859975	-363.898625	26.521	
N	-0.1312499012	 1.3099744165	 0.4134118682	-0.513925
C	-0.0643755497	 0.1103731106	 0.0163824757	 0.398018
C	-1.2555616103	-0.8138081511	 0.0601190905	-0.27421
C	-1.3089236571	-1.7019227826	-1.1941068298	-0.244515
C	-0.0171345096	-2.5040997598	-1.2654399368	-0.046375
C	 1.0702842902	-2.1676023977	-2.2636716891	-0.310391
C	 1.212893782	-1.7607012739	-0.8258889679	 0.102269
O	 1.096522942	-0.3882064368	-0.5208765967	-0.250223
H	 0.7779098536	 1.7650332996	 0.3023553517	 0.216142
H	-1.1790210622	-1.4550016592	 0.9479137691	 0.121112
H	-2.1437750301	-0.1924189626	 0.1815176166	 0.133271
H	-2.1751388567	-2.3676424247	-1.1528446886	 0.109557
H	-1.4344130591	-1.0759976326	-2.0840292813	 0.115323
H	-0.0871225401	-3.5390269774	-0.945685728	 0.096173
H	 1.7028033026	-2.9649778919	-2.6375685818	 0.117757
H	 0.8668732887	-1.3733069735	-2.9743838165	 0.126285
H	 1.956548877	-2.2482977129	-0.2032091951	 0.103732
81.9706	181.9931	294.7876	393.4931	444.4124	460.377	503.691	606.5586	699.4014	746.296	782.9362	818.7317	886.0257	911.4937	936.7893	958.0303	974.5313	1028.2541	1049.4825	1073.4559	1094.8279	1118.9044	1130.3357	1177.1645	1212.8755	1229.9911	1250.3526	1302.4895	1341.9826	1368.6715	1382.0454	1408.8287	1472.2923	1479.3158	1500.1582	1753.5757	3030.6014	3049.4067	3093.2625	3126.805	3133.6262	3148.5849	3158.7673	3224.1397	3456.3313
N=C1CCC2CC2O1	[NH][C]1CC[C@H]2C[C@H]2O1	
InChI=1S/C6H9NO/c7-6-2-1-4-3-5(4)8-6/h4-5,7H,1-3H2	InChI=1S/C6H9NO/c7-6-2-1-4-3-5(4)8-6/h4-5,7H,1-3H2/t4-,5+/m0/s1
