23
gdb 116204	2.17075	1.42564	0.96248	1.7781	85.02	-0.2517	0.0758	0.3274	1316.9959	0.206377	-388.293933	-388.284803	-388.283859	-388.328303	35.168	
C	-0.0686439183	 1.6544711496	 0.082254141	-0.389265
C	 0.0103967835	 0.1248438093	 0.1304225008	-0.204587
C	-1.3422538749	-0.5654565256	-0.0656306236	-0.01898
C	-2.0361409641	-0.2963155843	-1.4176955711	-0.220256
C	-3.0486519688	-1.4467710949	-1.5519494353	-0.220719
C	-2.2638683796	-2.6676956286	-1.0410881478	-0.285867
C	-1.3312666446	-2.1030968965	 0.0358929848	 0.426883
C	-0.2385450682	-2.9037699508	 0.6027974733	-0.251829
O	-1.4287429445	-2.6564785704	 1.3556756229	-0.28072
H	 0.910759474	 2.1045547246	 0.2716083476	 0.111432
H	-0.4133883225	 2.0109165354	-0.8935937803	 0.118254
H	-0.7626312989	 2.0371420014	 0.8390924672	 0.116084
H	 0.7142301935	-0.2324352464	-0.6332576187	 0.091442
H	 0.4254842962	-0.1764530162	 1.1000398286	 0.104328
H	-2.0166346045	-0.2241852719	 0.7332614841	 0.085862
H	-2.5014590627	 0.6915173734	-1.4664159679	 0.098953
H	-1.2991481666	-0.3505276954	-2.2310611486	 0.093339
H	-3.9133177948	-1.2554251259	-0.9054007029	 0.104016
H	-3.4248387848	-1.5737651787	-2.570504393	 0.094805
H	-2.8896738285	-3.465088467	-0.6328058191	 0.112486
H	-1.6690013834	-3.0971495695	-1.8562226545	 0.102081
H	-0.1031127578	-3.9325784313	 0.266344341	 0.103745
H	 0.6637415902	-2.4265453603	 0.9805396713	 0.108514
36.1967	109.3768	176.0497	204.2056	251.8653	295.7624	305.4974	363.39	444.5085	488.0457	496.3136	569.1002	705.1114	783.9468	803.1131	852.1074	879.0548	899.4053	920.4365	944.0328	972.736	993.604	1013.8794	1021.8771	1064.3549	1106.5413	1132.8982	1148.9489	1160.4698	1188.215	1208.2589	1217.7779	1246.3978	1289.9756	1309.7644	1316.6755	1329.3348	1342.0625	1362.0718	1388.2878	1408.8008	1414.7799	1477.9175	1487.0181	1492.5056	1501.3794	1506.7802	1507.8096	1530.9373	2998.5746	3013.565	3019.3019	3032.8041	3033.0765	3039.9548	3052.5234	3073.8076	3091.6515	3094.6652	3099.2886	3103.8364	3106.4902	3159.9446
CCC1CCCC11CO1	CC[C@H]1CCC[C@]21CO2	
InChI=1S/C8H14O/c1-2-7-4-3-5-8(7)6-9-8/h7H,2-6H2,1H3	InChI=1S/C8H14O/c1-2-7-4-3-5-8(7)6-9-8/h7H,2-6H2,1H3/t7-,8+/m0/s1
