12
gdb 129053	2.39717	1.70425	1.16608	1.8606	72.85	-0.2674	-0.128	0.1394	1000.1156	0.071175	-468.711841	-468.704558	-468.703614	-468.743464	27.481	
N	-0.0381754804	 1.4544591449	-0.4945078889	-0.484376
C	-0.0313143367	 0.2050512317	-0.0379182194	 0.249946
C	-1.2829134081	-0.4762515539	 0.353789923	-0.132994
C	-1.3911107611	-1.7242946762	 0.8938133761	 0.060738
O	-0.3986444082	-2.6369235451	 1.3184309791	-0.262634
N	 0.7467567575	-2.0037672919	 2.1446656053	 0.05066
N	 1.5107868444	-1.1263519708	 1.5710836707	-0.083324
C	 1.2597320196	-0.6525802548	 0.0817357127	 0.325049
O	 2.1442941177	-0.8407760774	-0.7711856717	-0.268153
H	 0.9761387928	 1.6696052854	-0.793659221	 0.245987
H	-2.2112622833	 0.0550036054	 0.1066572942	 0.145598
H	-2.394757944	-2.1765248672	 1.0154272599	 0.153503
147.5853	207.1258	235.267	303.8923	332.3446	364.4012	412.3274	445.3894	546.992	605.0602	653.7604	753.2394	767.0545	855.1282	876.9724	893.1392	925.8459	1010.0623	1083.6243	1116.2828	1163.8104	1242.7538	1377.8585	1405.5376	1467.0626	1538.6159	1562.7964	2870.9343	2991.8393	3085.5809
N=C1C=CON=NC1=O	[NH]C1=C[CH]ON=NC1=O	
InChI=1S/C4H3N3O2/c5-3-1-2-9-7-6-4(3)8/h1-2,5H	InChI=1S/C4H3N3O2/c5-3-1-2-9-7-6-4(3)8/h1-2,5H
