15
gdb 48904	3.90843	1.28447	1.12401	3.1383	70.66	-0.2515	-0.0449	0.2066	1053.1626	0.111973	-420.602911	-420.595634	-420.59469	-420.63495	27.437	
O	-0.1971278208	 0.3544163272	-0.7077775349	-0.260115
C	 0.1362516935	 1.1031132495	 0.1791518265	 0.046891
C	 1.3832843111	 1.895024735	 0.179011136	 0.232257
C	 1.9131782471	 2.8761265282	 1.2323998333	-0.310984
C	 2.8340702701	 3.4251899017	 0.1065849404	-0.198974
C	 1.8647850523	 2.7712093442	-0.9597397836	-0.096546
C	 2.5684624651	 1.4454881422	-0.7140752473	-0.233265
C	 3.7530630156	 2.2192488237	-0.2076517054	 0.456689
O	 4.9378375361	 2.0598318603	-0.2336276915	-0.328141
H	-0.5062592432	 1.2648455948	 1.0737870772	 0.08261
H	 1.1426035514	 3.5966845044	 1.5198315653	 0.117297
H	 2.4039629136	 2.4763708318	 2.1260017645	 0.11702
H	 3.2191929692	 4.4406365563	 0.110224503	 0.104195
H	 1.368300415	 3.1259480078	-1.8494153135	 0.133351
H	 2.4937045041	 0.531231193	-1.2849465601	 0.137715
97.8008	138.2385	170.3314	239.347	400.5986	449.3157	470.1118	583.2996	695.8311	726.27	750.5031	812.8581	829.786	863.9482	915.2662	931.7804	934.1275	1003.8394	1024.5274	1049.8988	1060.8032	1114.9351	1130.2768	1150.4904	1181.2607	1218.1162	1246.4748	1281.4498	1361.994	1428.0277	1501.7142	1805.5028	1893.3778	2880.6829	3045.0094	3105.0455	3170.9775	3235.7287	3250.8903
O=CC12CC3C1C2C3=O	O=C[C@]12C[C@@H]3[C@H]1[C@H]2C3=O	
InChI=1S/C7H6O2/c8-2-7-1-3-4(7)5(7)6(3)9/h2-5H,1H2	InChI=1S/C7H6O2/c8-2-7-1-3-4(7)5(7)6(3)9/h2-5H,1H2/t3-,4+,5+,7-/m1/s1
