15
gdb 20229	4.51239	2.82985	2.38632	0.9396	69.93	-0.2018	-0.0432	0.1587	628.4853	0.120139	-325.370202	-325.36492	-325.363976	-325.398983	22.867	
C	-0.0377487361	 1.5757901433	-0.0211701303	-0.198199
C	 1.4482077347	 1.9611860787	 0.0035085158	-0.130964
C	 2.1022427123	 0.8270563927	-0.3153889161	 0.050614
C	 2.4445470975	-0.2589753602	 0.665768217	-0.135429
C	 1.6939380186	-1.3321096371	-0.0615891279	-0.109891
C	 0.8685729749	-0.6359323539	 0.9735488061	-0.017564
N	-0.0074337075	 0.0602985352	-0.00548309	-0.11571
C	 1.1147993554	-0.2045604834	-0.9551391948	-0.054389
H	-0.5403557937	 1.9976444316	 0.8560932614	 0.117057
H	-0.6236321332	 1.857258227	-0.9046710029	 0.119889
H	 1.820961164	 2.6895985465	 0.7173353271	 0.099025
H	 3.1677539226	-0.3324336227	 1.4679943062	 0.09725
H	 1.8909555629	-2.3779364932	-0.2495984371	 0.097733
H	 0.5503739877	-0.9400548702	 1.9625365041	 0.099636
H	 0.9111880898	-0.2400845743	-2.0246845288	 0.080942
302.5139	376.2131	483.9391	512.7499	624.5975	678.1858	752.1368	768.5573	787.9596	825.0645	850.9615	872.2047	888.9586	895.772	912.1964	978.5878	991.2194	993.3436	1019.1074	1062.8314	1073.9541	1127.9891	1145.2978	1179.0151	1195.1655	1224.3094	1241.3834	1272.5755	1292.494	1349.4471	1464.8909	1576.448	3028.6882	3079.5531	3124.5483	3166.9073	3196.9463	3199.3664	3218.7136
C1C=C2C3C4C3N1C24	C1[CH][C]2[C@@H]3[C@H]4[C@@H]3N1[C@@H]24	
InChI=1S/C7H7N/c1-2-8-6-3(1)4-5(6)7(4)8/h1,4-7H,2H2	InChI=1S/C7H7N/c1-2-8-6-3(1)4-5(6)7(4)8/h1,4-7H,2H2/t4-,5-,6+,7-/m1/s1
