16
gdb 109032	2.88256	1.36504	0.99605	2.2997	71.68	-0.2342	-0.0532	0.181	1154.7183	0.124584	-437.873072	-437.864979	-437.864035	-437.906102	29.888	
O	 0.0046316351	 1.4280155229	-0.0358641695	-0.42134
C	-0.0117962349	 0.0125937716	-0.068519319	-0.175295
C	-1.4209165319	-0.4635092591	 0.0342434899	 0.163759
C	-2.5471652067	 0.2628840906	 0.0904769819	-0.131463
C	-3.7588062314	-0.6178709321	 0.0965244385	-0.094212
N	-3.868232288	-1.4004833339	-1.1665572614	-0.326391
C	-3.2671222998	-2.0099763778	 0.0589190736	-0.170391
C	-1.7501443766	-1.9206164265	 0.0515581372	 0.380958
O	-0.96355152	-2.8386965515	 0.0827018591	-0.335361
H	 0.9174965924	 1.7180923098	-0.1160087839	 0.293178
H	 0.4298091227	-0.3833712908	-0.9981572368	 0.116983
H	 0.573245542	-0.425289575	 0.7566239811	 0.114308
H	-2.5891082765	 1.3440137145	 0.0710708914	 0.134528
H	-4.6624408691	-0.3299657628	 0.6210158706	 0.103861
H	-4.8194465121	-1.7627421151	-1.2485577526	 0.235974
H	-3.7577165752	-2.8478455547	 0.5385747999	 0.110904
74.2885	141.2296	172.9975	206.4629	241.4399	327.0711	375.634	454.692	535.514	610.0141	687.9331	791.338	796.534	817.627	868.1008	896.4886	905.2413	944.5897	1009.4923	1042.5731	1055.4434	1106.8775	1130.694	1153.4542	1199.8842	1235.466	1243.3904	1267.6196	1335.544	1348.8781	1384.1006	1467.3446	1501.6603	1687.6132	1813.4445	2968.0064	2985.9705	3182.5914	3198.1826	3227.3983	3453.2995	3840.129
OCC1=CC2NC2C1=O	OCC1=C[C@H]2N[C@H]2C1=O	
InChI=1S/C6H7NO2/c8-2-3-1-4-5(7-4)6(3)9/h1,4-5,7-8H,2H2	InChI=1S/C6H7NO2/c8-2-3-1-4-5(7-4)6(3)9/h1,4-5,7-8H,2H2/t4-,5-/m1/s1
