16
gdb 83728	2.62793	1.78066	1.26129	5.8551	63.93	-0.2456	0.0029	0.2485	979.1373	0.126389	-475.032058	-475.0248	-475.023856	-475.064181	27.889	
O	-0.0423972422	 1.4473327941	 0.0238794496	-0.416112
C	 0.0068424478	 0.0490754193	 0.0305210175	 0.006357
C	-1.3681617553	-0.6174724848	-0.0374122464	-0.065111
N	-2.2660480841	 0.1133390024	-0.971327959	-0.333769
C	-2.3988072269	-1.0885942508	-1.8432974112	-0.187182
C	-1.2314931337	-1.752470331	-1.0822825685	 0.092154
O	 0.0328162859	-1.5878023259	-1.7210713355	-0.228659
C	 0.7403251447	-0.5337048207	-1.2042950844	 0.379746
O	 1.7702968682	-0.168419137	-1.6802839721	-0.315363
H	-0.7147706767	 1.6699796501	-0.6391096516	 0.287351
H	 0.5657690776	-0.2570650434	 0.9217306623	 0.119517
H	-1.7977478662	-0.8802973535	 0.9315112384	 0.082788
H	-3.130801266	 0.4472449978	-0.5641078183	 0.235503
H	-3.3409988479	-1.6348546872	-1.7177706561	 0.109138
H	-2.2272803826	-0.8975735609	-2.9063244298	 0.129715
H	-1.3404151025	-2.7945916985	-0.784056405	 0.103926
70.8151	131.2445	257.3972	275.6102	384.5841	479.396	494.073	543.9478	625.7288	651.8092	716.3172	748.2283	821.0869	854.4217	897.2625	943.1861	966.6191	1003.7508	1044.9169	1080.1777	1100.1639	1127.0456	1152.1044	1159.0729	1224.309	1250.0562	1256.9708	1298.694	1319.1396	1349.4949	1374.2288	1380.7345	1446.6165	1503.1463	1898.2327	3031.9404	3057.9187	3084.6864	3095.0838	3120.662	3556.3982	3701.0578
OC1C2NCC2OC1=O	O[C@H]1[C@H]2NC[C@H]2OC1=O	
InChI=1S/C5H7NO3/c7-4-3-2(1-6-3)9-5(4)8/h2-4,6-7H,1H2	InChI=1S/C5H7NO3/c7-4-3-2(1-6-3)9-5(4)8/h2-4,6-7H,1H2/t2-,3+,4+/m1/s1
