13
gdb 27467	2.72984	1.762	1.21899	5.6039	69.12	-0.2555	-0.1098	0.1457	964.6437	0.090979	-448.933559	-448.926565	-448.925621	-448.965096	26.437	
O	 0.1779780848	 1.227034042	 0.4887339549	-0.371588
C	-0.0802517067	-0.0380708813	 0.1321539671	 0.449399
N	-1.2264694101	-0.525089693	 0.3981966548	-0.246257
C	-1.5071235411	-1.8515969842	 0.0831854775	 0.329802
N	-2.508208488	-2.1754427243	-0.6213646611	-0.468622
N	-0.672401684	-2.8248020743	 0.7078351923	-0.203683
C	 0.5695852148	-2.8376755751	 0.4099961956	-0.021485
C	 1.273531852	-1.8578992086	-0.4371820619	 0.003105
N	 1.0001276494	-0.6113830746	-0.5637940894	-0.287388
H	 1.0429674161	 1.4571747523	 0.1248557772	 0.312647
H	-2.5890816735	-3.1927538397	-0.6611901473	 0.227123
H	 1.1872122299	-3.6424188371	 0.8173358427	 0.135519
H	 2.1630440163	-2.2180435218	-0.9595933723	 0.14143
112.7362	153.0778	256.5024	342.1502	400.3585	463.4573	480.2664	523.0172	554.0893	658.9711	735.0603	749.7414	837.1424	860.3154	873.7352	925.6388	939.6437	960.6317	1020.6996	1079.7432	1253.9378	1326.9937	1362.3764	1403.7121	1413.4516	1626.0485	1689.2964	1727.1396	1733.661	3092.2023	3110.5638	3477.5119	3791.3841
OC1=NC(=N)N=CC=N1	OC1=N[C]([NH])N=CC=N1	
InChI=1S/C4H4N4O/c5-3-6-1-2-7-4(9)8-3/h1-2H,(H2,5,8,9)	InChI=1S/C4H4N4O/c5-3-6-1-2-7-4(9)8-3/h1-2H,(H2,5,8,9)
