13
gdb 129006	4.11132	1.72252	1.21392	3.3737	76.71	-0.2123	-0.1024	0.1099	916.142	0.093628	-411.7967	-411.79089	-411.789946	-411.826786	23.276	
N	 0.0094574936	 1.3399693209	 0.0094772152	-0.31136
N	 1.1179833164	 2.0698728022	 0.002622199	-0.19221
C	 2.2624873615	 1.3936630901	-0.0120695195	 0.052332
N	 2.4354737824	 0.0553883994	-0.0208791726	-0.316105
C	 1.3281471561	-0.6538451567	-0.0139092536	 0.292442
C	 1.0364599532	-2.0356980687	-0.0187411595	-0.137365
N	-0.2839188467	-2.2270193561	-0.0066466056	-0.208505
C	-0.940991486	-1.0194666633	 0.0063137988	-0.17936
C	-0.0115797402	-0.0064177506	 0.0025346005	 0.339576
H	-0.8420228886	 1.8884973525	 0.0207123009	 0.292136
H	 3.1507130591	 2.0137203829	-0.0173757863	 0.140628
H	 1.7372249923	-2.857343784	-0.030151803	 0.11981
H	-2.0192151832	-0.9705894186	 0.0171743858	 0.10798
216.3941	236.344	405.4716	433.8673	564.946	610.0097	613.6525	656.1279	753.9544	755.1819	777.4289	781.6583	846.8091	866.4934	903.3502	926.7172	1053.9168	1127.8587	1145.9303	1232.3811	1269.5612	1313.2208	1345.5493	1395.149	1407.9581	1458.4721	1504.0216	1608.6001	1616.9065	3214.8979	3240.9403	3245.1627	3568.9533
N1N=CN=C2C=NC=C12	[nH]1ncnc2cncc12	
InChI=1S/C5H4N4/c1-4-5(2-6-1)9-8-3-7-4/h1-3,9H	InChI=1S/C5H4N4/c1-4-5(2-6-1)9-8-3-7-4/h1-3,9H
