17
gdb 42831	2.54181	1.85371	1.64779	2.3979	70.39	-0.2514	-0.0214	0.2301	903.4396	0.137881	-421.812442	-421.805687	-421.804743	-421.843406	27.481	
O	 0.0386593684	-0.019475392	-0.0473597496	-0.313835
C	-0.0105293793	 1.1688659923	 0.0365537504	 0.414174
C	-1.0907385674	 2.258389238	 0.0109763797	-0.024441
C	-1.3822433391	 2.7796874268	 1.4305691009	-0.250899
C	-0.0837105776	 3.0959490272	 2.1762260497	-0.023364
C	 0.8829998988	 2.0239257925	 2.6139984228	-0.306968
C	 1.2132989596	 2.8877311515	 1.4155128785	-0.03782
C	 0.9835680819	 2.3462265492	 0.0171017487	-0.04348
O	-0.0916365579	 3.1107760044	-0.6225573353	-0.298082
H	-1.9865020874	 2.1215122992	-0.5991462982	 0.100888
H	-1.9704258612	 3.697720875	 1.3285428129	 0.120015
H	-2.0022299728	 2.0550087201	 1.9723482318	 0.116622
H	-0.1319508474	 3.9730308662	 2.8123384951	 0.096256
H	 1.443135154	 2.1978494828	 3.5261168028	 0.115398
H	 0.6329760409	 0.9815802662	 2.4450092279	 0.13757
H	 2.0029316151	 3.6245110236	 1.5151396579	 0.096265
H	 1.8789700313	 2.2809685769	-0.603640196	 0.101702
134.4095	201.4248	270.8485	389.9799	429.9901	469.9603	525.8971	548.9058	702.418	754.2967	776.3171	825.7867	852.8905	862.5846	885.8911	914.1354	945.9203	988.83	1033.7436	1039.244	1068.5318	1075.9803	1101.1464	1115.2947	1124.5428	1179.4853	1212.6519	1241.5634	1244.9036	1284.5495	1315.8121	1351.2433	1369.5142	1402.6878	1473.9215	1499.0955	1915.0397	3034.2977	3078.0818	3095.4182	3105.1327	3133.6222	3159.7894	3168.9413	3217.9804
O=C1C2CC3CC3C1O2	O=C1[C@H]2C[C@H]3C[C@H]3[C@@H]1O2	
InChI=1S/C7H8O2/c8-6-5-2-3-1-4(3)7(6)9-5/h3-5,7H,1-2H2	InChI=1S/C7H8O2/c8-6-5-2-3-1-4(3)7(6)9-5/h3-5,7H,1-2H2/t3-,4-,5-,7+/m1/s1
