13
gdb 67148	2.15199	1.87747	1.5578	3.4618	58.36	-0.2316	-0.0088	0.2229	896.6859	0.087013	-493.619391	-493.611861	-493.610917	-493.651244	28.57	
O	-0.2649024298	 1.3722613516	 0.0554656453	-0.428115
C	 0.0230297825	 0.0482903867	 0.0065334713	 0.242105
C	 0.0942634663	-1.0555066853	-1.0036089602	-0.048948
O	 1.2443749174	-1.6738983185	-0.4261054684	-0.2728
C	 0.9403094224	-0.9620857372	 0.8029073003	-0.161122
C	-0.3982771775	-1.5999165619	 1.2761683042	 0.383297
O	-0.8216916943	-1.9861517075	 2.3302501213	-0.345931
C	-1.0448460183	-1.1481523647	 0.0070683587	 0.206526
O	-2.3440880529	-1.151201838	-0.3872160514	-0.448249
H	 0.4646654152	 1.8690441511	-0.3362424626	 0.308422
H	-0.0774872086	-1.1043463426	-2.0717202189	 0.138739
H	 1.7821329754	-0.7755781741	 1.4629324396	 0.114663
H	-2.8930558577	-0.9311939596	 0.3762428307	 0.311412
120.1213	161.7714	215.7198	319.7855	356.9543	364.7846	393.1635	453.4621	556.6346	621.0227	642.3349	656.4616	719.9701	798.3045	811.857	928.4021	948.4335	982.0586	1011.3742	1079.3122	1092.2698	1136.9224	1201.7665	1248.8406	1289.3949	1349.4474	1433.2578	1500.3042	1872.244	3178.2943	3205.5185	3766.9027	3777.2304
OC12C3OC1C(=O)C23O	O[C@@]12[C@H]3O[C@@H]1C(=O)[C@@]23O	
InChI=1S/C5H4O4/c6-1-2-5(8)3(9-2)4(1,5)7/h2-3,7-8H	InChI=1S/C5H4O4/c6-1-2-5(8)3(9-2)4(1,5)7/h2-3,7-8H/t2-,3+,4+,5-/m1/s1
