19
gdb 116269	2.0988	1.4824	0.95912	2.7682	76.88	-0.2478	0.0438	0.2916	1233.481	0.159032	-422.992044	-422.982983	-422.982039	-423.026301	33.699	
O	-0.1092884073	 1.422007111	-0.4649169497	-0.425427
C	-0.0311167181	 0.0124734103	-0.4767155861	-0.065714
C	-1.2479894299	-0.5909482973	 0.2287250859	 0.100008
O	-2.4268436178	-0.0080541195	-0.3485870812	-0.290889
C	-3.2047308631	-0.992078108	-1.0341472881	-0.07838
C	-2.2984950784	-2.2098163901	-1.209424196	-0.236094
C	-1.4204693478	-2.1249542811	 0.0617754933	-0.217919
C	-0.1850827549	-2.8899248742	 0.0057128434	 0.315069
C	 0.8303038408	-3.5316744345	-0.0417299659	-0.446493
H	-1.0102943432	 1.6316750002	-0.7421130161	 0.287836
H	 0.0353343756	-0.3813173305	-1.5045765662	 0.081966
H	 0.8869163155	-0.2722094013	 0.0451725618	 0.115745
H	-1.2205709472	-0.3049492623	 1.2863503302	 0.09297
H	-4.090729903	-1.2414054769	-0.4321225137	 0.100641
H	-3.5483938929	-0.5692439192	-1.9833750243	 0.111845
H	-2.8492628549	-3.1502115188	-1.275357468	 0.116674
H	-1.6743714462	-2.1148528868	-2.1019949237	 0.124391
H	-2.0155326221	-2.4855831419	 0.9103421776	 0.114978
H	 1.7293928249	-4.095445999	-0.0817323232	 0.198792
57.585	123.7973	127.2224	146.4696	210.9879	282.2342	355.681	449.3502	484.3301	502.7986	525.0204	610.9495	634.63	641.5264	701.0044	805.3179	853.5456	911.8446	954.5686	997.9682	1024.8862	1049.9371	1083.6522	1097.9395	1119.8486	1127.324	1190.358	1220.8824	1235.9446	1285.254	1296.4001	1325.3081	1342.0281	1365.8801	1386.8317	1401.9551	1442.7322	1492.3677	1502.362	1529.4846	2237.7384	2967.4734	2997.2053	3021.6512	3046.5549	3065.9667	3078.1005	3092.3777	3124.4747	3502.7982	3774.6422
OCC1OCCC1C#C	OC[C@H]1OCC[C@H]1C#C	
InChI=1S/C7H10O2/c1-2-6-3-4-9-7(6)5-8/h1,6-8H,3-5H2	InChI=1S/C7H10O2/c1-2-6-3-4-9-7(6)5-8/h1,6-8H,3-5H2/t6-,7-/m1/s1
