18
gdb 95185	2.61678	1.77795	1.18429	3.4512	72.66	-0.2376	-0.0062	0.2314	1048.1452	0.148312	-439.085986	-439.077995	-439.077051	-439.118497	30.457	
C	-0.3464933169	 1.4720012769	-0.0218580678	-0.396729
C	 0.0050226066	-0.0005464474	 0.0248591852	 0.008348
O	 0.7671287938	-0.3281147555	-1.1509016455	-0.261098
C	 0.8787565221	-1.7232446947	-1.338730064	-0.107914
C	 1.4104125638	-2.4246103994	-0.0981020987	-0.029761
C	 2.6692611259	-2.0046854511	 0.5918379688	-0.245279
N	 1.3589421089	-1.6986234293	 1.1664058995	-0.105954
C	 0.9222168114	-0.3606107742	 1.1954849768	 0.380489
O	 1.2985184274	 0.4205730862	 2.0334423385	-0.323884
H	 0.5623595401	 2.0758455496	-0.0638466364	 0.140595
H	-0.9597405868	 1.68346348	-0.9010872263	 0.118886
H	-0.8978536038	 1.7530313884	 0.8781137184	 0.134988
H	-0.9063419996	-0.6203759522	 0.0530441929	 0.086424
H	-0.1060013527	-2.1525229286	-1.5887299906	 0.100354
H	 1.539817456	-1.8739755051	-2.1979385733	 0.124005
H	 1.1200244808	-3.4705938293	-0.0140366315	 0.105338
H	 3.2651870367	-2.7364856047	 1.1291678303	 0.13001
H	 3.2240269464	-1.1688105297	 0.1737372636	 0.141182
76.8413	187.207	196.3121	252.3579	280.2537	327.0285	372.5043	437.6481	474.0582	551.5087	676.1172	753.9385	767.1476	806.4514	858.9733	922.7065	954.0717	969.5468	1040.2274	1070.3403	1094.9474	1119.5372	1122.661	1138.6714	1143.5217	1169.1628	1185.3966	1285.6975	1321.3239	1355.5396	1378.9304	1393.437	1411.5896	1420.5792	1479.6793	1488.0087	1495.7696	1507.4529	1819.974	2965.5349	2970.8367	3059.3845	3079.1927	3113.3062	3120.9653	3137.6876	3142.9097	3204.6403
CC1OCC2CN2C1=O	C[C@H]1OC[C@H]2CN2C1=O	
InChI=1S/C6H9NO2/c1-4-6(8)7-2-5(7)3-9-4/h4-5H,2-3H2,1H3	InChI=1S/C6H9NO2/c1-4-6(8)7-2-5(7)3-9-4/h4-5H,2-3H2,1H3/t4-,5-,7?/m1/s1
