17
gdb 128820	3.468	1.11468	0.87495	1.4651	71.85	-0.2098	0.0081	0.2179	1299.7267	0.137617	-451.317326	-451.308486	-451.307542	-451.351258	31.783	
C	-0.2682024164	 1.3628803104	-0.2757476969	-0.22533
O	-0.2924715606	-0.0460486365	-0.3278681969	-0.242854
C	 0.8998543979	-0.5921611473	-0.8782847016	-0.193835
C	 0.7427775914	-2.0710323887	-0.9600934116	 0.268764
N	 1.6939210952	-2.9324795145	-0.5989098967	-0.273118
N	 1.1563069756	-4.1113793436	-0.8531254335	-0.094467
N	-0.0921133877	-4.1094262589	-1.340153802	-0.285175
C	-0.3734047113	-2.8101025191	-1.422003271	 0.279785
N	-1.5606457443	-2.3098156521	-1.9307574688	-0.602801
H	 0.553075785	 1.7291881301	 0.3587895863	 0.111998
H	-0.1536071193	 1.8067640312	-1.2770384647	 0.109299
H	-1.2185480525	 1.6903407015	 0.152004469	 0.129386
H	 1.0702877217	-0.1568863133	-1.8785417424	 0.103801
H	 1.7731842092	-0.343725547	-0.2578253552	 0.115888
H	 1.6513224898	-4.9693971534	-0.6809763156	 0.288273
H	-2.3122538734	-2.9855282538	-1.9203723	 0.25167
H	-1.8187617702	-1.439012325	-1.4850870084	 0.258716
72.2396	96.6124	132.2559	229.5996	255.7646	306.523	334.5313	353.3075	380.1934	427.1943	463.4089	674.4291	698.4138	746.7708	769.2611	806.6549	976.6204	986.7959	1029.3289	1105.2386	1142.1046	1183.4642	1190.7302	1216.3455	1235.8623	1252.9164	1287.1471	1392.049	1427.2732	1467.1014	1479.5361	1485.5658	1500.3444	1519.1344	1566.4254	1597.2376	1646.7685	2949.2878	2976.9554	3016.3428	3024.6099	3118.607	3546.8945	3650.3258	3688.7334
COCC1=NNN=C1N	COCc1n[nH]nc1N	
InChI=1S/C4H8N4O/c1-9-2-3-4(5)7-8-6-3/h2H2,1H3,(H3,5,6,7,8)	InChI=1S/C4H8N4O/c1-9-2-3-4(5)7-8-6-3/h2H2,1H3,(H3,5,6,7,8)
