15
gdb 85473	2.99754	1.33041	1.03945	4.9417	65.72	-0.2838	-0.0102	0.2735	1111.4152	0.113438	-454.005452	-453.997355	-453.99641	-454.03848	29.452	
C	 0.0621469586	 1.5738916455	-0.1756006222	-0.408736
C	-0.0434776824	 0.0636479451	 0.0397947367	-0.00629
N	 0.5629176097	-0.7218019674	-1.024360851	-0.367811
C	 1.8557929956	-1.0920763874	-0.7237966216	 0.480302
O	 2.7037523105	-1.5186020409	-1.448937068	-0.369873
O	 2.0431911889	-0.9095701701	 0.6317758463	-0.239439
C	 0.8073696612	-0.5008974147	 1.2217119306	-0.021872
C	 1.0560310957	 0.4511641149	 2.3047928922	 0.287491
N	 1.2108794945	 1.1965083274	 3.1727614524	-0.310613
H	 1.1064011097	 1.8880941192	-0.2642069626	 0.148326
H	-0.4618365096	 1.8556178075	-1.0940608901	 0.126222
H	-0.3937757376	 2.1186928148	 0.6552695348	 0.15085
H	-1.0895472946	-0.2223036432	 0.1846433146	 0.113984
H	 0.3574742429	-0.5333763061	-1.9932347915	 0.268454
H	 0.3129637668	-1.3838841448	 1.6451591594	 0.149006
80.4218	128.223	148.4695	231.3428	255.6629	343.8789	417.9292	466.1323	508.9399	521.8126	593.2611	718.944	741.9644	766.1086	802.1804	943.0484	959.667	992.037	1061.097	1098.9789	1117.5073	1146.7614	1214.3666	1299.5189	1340.797	1369.4554	1392.0785	1416.8556	1417.8481	1490.9578	1493.6134	1911.6804	2371.4069	3035.4555	3043.6079	3063.5854	3117.4022	3128.8221	3641.8886
CC1NC(=O)OC1C#N	C[C@H]1NC(=O)O[C@H]1C#N	
InChI=1S/C5H6N2O2/c1-3-4(2-6)9-5(8)7-3/h3-4H,1H3,(H,7,8)	InChI=1S/C5H6N2O2/c1-3-4(2-6)9-5(8)7-3/h3-4H,1H3,(H,7,8)/t3-,4+/m1/s1
