12
gdb 129339	5.95911	0.9954	0.85293	6.3272	60.37	-0.2598	-0.0293	0.2305	1229.1122	0.077639	-505.951603	-505.944084	-505.943139	-505.984369	26.529	
N	 0.3164387528	 1.2111302849	 0.0022669712	-0.389085
C	 0.0594270735	-0.0258020599	 0.0006846686	 0.074861
N	-1.2426895843	-0.5181107326	 0.0120347162	-0.403975
C	-2.4017610804	 0.2014474237	 0.0259487754	 0.578306
N	-2.58560143	 1.4772141525	 0.0320067115	-0.192299
O	-4.0203942829	 1.5851511978	 0.0466217228	-0.23129
C	-4.5779756596	 0.3615393515	 0.0481682526	 0.524716
O	-5.7273808875	 0.0750293256	 0.0585981023	-0.357711
O	-3.5267102279	-0.5537134958	 0.0346447305	-0.242876
H	 1.3215240616	 1.3701981915	-0.0071388366	 0.242305
H	 0.7805046543	-0.8502067103	-0.0091657177	 0.114453
H	-1.3716645097	-1.517366519	 0.009988283	 0.282595
59.0535	156.9593	157.8202	222.9894	303.4325	350.9034	452.7455	545.4281	591.6537	694.966	751.5615	774.9874	814.8932	835.1508	880.561	962.4519	992.9196	1053.6972	1095.8109	1160.15	1238.4813	1339.619	1420.2317	1584.3026	1695.1208	1751.4799	1954.6513	3065.703	3520.2934	3651.6555
N=CNC1=NOC(=O)O1	N=CNc1noc(=O)o1	
InChI=1S/C3H3N3O3/c4-1-5-2-6-9-3(7)8-2/h1H,(H2,4,5,6)	InChI=1S/C3H3N3O3/c4-1-5-2-6-9-3(7)8-2/h1H,(H2,4,5,6)
