18
gdb 45465	3.38788	1.47334	1.19324	4.162	80.54	-0.246	-0.0347	0.2112	1058.2886	0.150594	-401.958499	-401.9513	-401.950356	-401.99028	28.679	
N	-0.2509233739	 1.3342397963	 0.2100947217	-0.501426
C	-0.0949422982	 0.0714817451	 0.2576456872	 0.37728
O	-1.0797263533	-0.6364391928	 0.8705428244	-0.24416
C	-1.149407246	-2.0372406947	 0.6742098234	 0.135487
C	-1.6731047054	-2.5860919452	-0.6771481129	-0.251419
C	-0.6034825504	-3.7083940208	-0.5767164799	-0.232491
C	 0.160323837	-2.8459964558	 0.4854029107	-0.116623
C	 1.2293540378	-1.9898453391	-0.1045712781	-0.079196
C	 1.0822621136	-0.6684260468	-0.2318732782	-0.148832
H	 0.5648222219	 1.7645018029	-0.2232460948	 0.218398
H	-1.7413676541	-2.4097871802	 1.5125263267	 0.097385
H	-2.7230545612	-2.8797756493	-0.7235793181	 0.109117
H	-1.4621939341	-1.8926661698	-1.494179658	 0.122019
H	-0.9973799048	-4.6274956432	-0.1366208775	 0.111129
H	-0.0570631881	-3.9601801222	-1.4878231641	 0.108001
H	 0.5374500841	-3.392774462	 1.3559831368	 0.087972
H	 2.1378887584	-2.4780916606	-0.4507506068	 0.1061
H	 1.8587155966	-0.0586644416	-0.6829286526	 0.101258
83.7574	148.182	232.3361	379.0847	388.677	456.0833	475.2746	571.038	659.2337	691.3595	754.7284	796.1742	819.4008	829.3971	868.3981	881.4774	930.6081	941.5358	973.4014	1006.0168	1023.1359	1074.0792	1090.4126	1130.3585	1166.7007	1189.9587	1199.9784	1237.3527	1258.3459	1265.7881	1291.3611	1338.2525	1359.5871	1415.4096	1439.459	1479.1376	1496.0129	1672.6536	1719.7415	3046.2869	3068.7218	3077.7857	3090.8683	3118.3207	3136.8631	3148.8806	3183.4649	3498.1136
N=C1OC2CCC2C=C1	[NH]C1=C[CH][C@H]2[C@@H](O1)CC2	
InChI=1S/C7H9NO/c8-7-4-2-5-1-3-6(5)9-7/h2,4-6,8H,1,3H2	InChI=1S/C7H9NO/c8-7-4-2-5-1-3-6(5)9-7/h2,4-6,8H,1,3H2/t5-,6-/m0/s1
