15
gdb 31476	4.33222	0.92619	0.77287	1.0307	78.03	-0.222	-0.0101	0.2119	1396.7053	0.11174	-420.616873	-420.60846	-420.607516	-420.650373	30.944	
O	 0.2544301745	 1.0618484412	-0.7086610829	-0.402675
C	-0.0254782545	 0.0590381572	 0.2483296071	-0.167854
C	-1.3912933999	-0.5223880107	 0.0599578506	 0.339454
C	-2.2354557189	-0.5647066636	-1.0015818951	-0.405235
C	-3.4187453396	-1.2628681126	-0.5553008745	 0.135229
C	-3.1799807075	-1.5846777004	 0.7518469498	-0.126732
O	-1.9607432505	-1.1379525057	 1.1380934051	-0.174866
C	-4.5814893994	-1.5531914725	-1.305383251	 0.233678
C	-5.5638703117	-1.7915454546	-1.9594589873	-0.434587
H	-0.4247644388	 1.7400187447	-0.6246707873	 0.287396
H	 0.7476647092	-0.7063004401	 0.1086268583	 0.136073
H	 0.0703709239	 0.4208772788	 1.2841560565	 0.112273
H	-2.0531117051	-0.1678022989	-1.9864822787	 0.130159
H	-3.7611653442	-2.1010388111	 1.4970233708	 0.148263
H	-6.4318942475	-2.0059216017	-2.5318274514	 0.189422
68.9949	113.133	133.107	208.7034	259.5819	351.4377	433.2043	471.0071	519.6067	564.3251	566.6536	632.3468	653.15	663.9881	734.6735	759.0322	836.9865	958.2695	993.3683	1001.612	1083.1815	1148.0924	1172.5008	1190.907	1227.0445	1284.8468	1345.8244	1393.9497	1427.6728	1500.4557	1565.8042	1638.0107	2236.9238	2985.5587	3049.4344	3277.06	3286.2266	3504.8458	3806.5688
OCC1=CC(=CO1)C#C	OCc1cc(co1)C#C	
InChI=1S/C7H6O2/c1-2-6-3-7(4-8)9-5-6/h1,3,5,8H,4H2	InChI=1S/C7H6O2/c1-2-6-3-7(4-8)9-5-6/h1,3,5,8H,4H2
