19
gdb 45561	3.21724	1.30636	1.12305	2.2485	73.69	-0.2427	-0.0219	0.2208	1117.6882	0.161638	-423.064369	-423.056803	-423.055859	-423.097525	29.184	
O	-0.1834385147	 0.4697079698	 1.0637091559	-0.301203
C	-0.1085211922	 1.3652570144	 0.2644704193	 0.392691
C	-1.2714237524	 1.9478371007	-0.5464447083	-0.347695
C	-0.8433059618	 3.3684233334	-0.9442011207	-0.029271
C	-1.4217257848	 4.4945798906	-0.0576706661	-0.096654
O	-0.3729044614	 5.4291265896	 0.1240441514	-0.235339
C	 0.7942202227	 4.652267932	 0.3259118849	-0.096645
C	 0.7062574825	 3.4785033678	-0.6757549193	-0.029296
C	 1.167142069	 2.1211774276	-0.1236172174	-0.347691
H	-1.4040325964	 1.3056415056	-1.4262844828	 0.130301
H	-2.2011923342	 1.8957171999	 0.0260997251	 0.13027
H	-1.0663857901	 3.5759654318	-1.9919508945	 0.08362
H	-2.2685769833	 5.018979645	-0.5069636637	 0.112463
H	-1.7458336757	 4.0839117796	 0.914657271	 0.088892
H	 1.6619184864	 5.2986443792	 0.1732228171	 0.112461
H	 0.8277234872	 4.2672197391	 1.3601859698	 0.088895
H	 1.2364955258	 3.7392452013	-1.5930757906	 0.083622
H	 1.8490615193	 2.1837718274	 0.7284766956	 0.130273
H	 1.6738395342	 1.5243182353	-0.8924662565	 0.130305
45.008	60.149	262.1415	335.2237	354.9316	427.7873	460.717	576.4758	589.0443	677.2664	707.0753	744.9924	784.9173	807.1938	911.6411	930.1714	969.8911	1021.6217	1023.3184	1047.6102	1059.4325	1094.5495	1110.8976	1158.2077	1176.9318	1202.0837	1222.8728	1234.5371	1270.4495	1280.7137	1315.1798	1315.887	1330.6082	1338.5409	1377.9805	1402.3774	1447.5525	1456.0734	1504.4868	1518.676	1847.204	2949.0687	2956.7857	3035.7342	3039.7473	3075.4008	3087.3807	3097.0166	3099.7646	3101.0167	3106.4421
O=C1CC2COCC2C1	O=C1C[C@H]2COC[C@H]2C1	
InChI=1S/C7H10O2/c8-7-1-5-3-9-4-6(5)2-7/h5-6H,1-4H2	InChI=1S/C7H10O2/c8-7-1-5-3-9-4-6(5)2-7/h5-6H,1-4H2/t5-,6+
