21
gdb 8419	3.40021	1.77584	1.49464	1.6442	78.12	-0.2218	0.0751	0.2969	964.1598	0.188186	-329.086508	-329.078027	-329.077083	-329.118567	33.144	
C	 2.0140815751	 2.2172389291	 0.5025639909	-0.4288
C	 1.6431657762	 0.7511840586	 0.5352662033	 0.020314
C	 1.1599507904	-0.1270754093	-0.5537139257	-0.088687
N	 2.5182594618	-0.364408005	 0.1161925198	-0.154202
C	 3.1644660073	 0.0297721113	-1.1891562673	-0.223402
C	 1.7992205574	 0.0642966531	-1.9383062943	 0.32732
C	 1.6125358767	-1.2078701958	-2.7744486777	-0.430807
C	 1.4162092572	 1.2900750576	-2.7677491229	-0.459812
H	 2.5203551986	 2.5300556043	-0.4104192095	 0.12496
H	 1.1139110545	 2.8319317172	 0.6100689564	 0.123174
H	 2.6757179314	 2.4480552479	 1.3448658161	 0.124106
H	 1.1883856318	 0.4828637427	 1.4895728619	 0.093184
H	 0.3306076236	-0.8115312206	-0.3844005063	 0.081795
H	 3.7362642471	 0.9617429657	-1.1475285163	 0.096084
H	 3.8309849954	-0.767944448	-1.5247203003	 0.104687
H	 1.8648279433	-2.1019353294	-2.1959676106	 0.12594
H	 0.5742926324	-1.3056777017	-3.11237607	 0.110068
H	 2.2526264157	-1.1850960301	-3.663628861	 0.111062
H	 2.0456115341	 1.3615624264	-3.6626280655	 0.112855
H	 0.3761321219	 1.2143517594	-3.1056711002	 0.114337
H	 1.514247578	 2.2255823566	-2.2144503208	 0.115825
139.1797	176.5719	188.694	238.9996	266.2947	289.6092	352.0442	370.2384	386.4592	483.7948	595.1977	615.409	694.2791	774.4708	846.9886	874.3543	913.0538	939.9231	954.6492	968.6931	999.5602	1019.2228	1056.424	1076.1364	1113.6798	1130.2659	1185.8257	1224.4739	1236.8006	1266.6537	1267.9808	1293.9037	1374.4455	1401.3254	1412.164	1423.3141	1444.1988	1482.3558	1486.1554	1494.0777	1499.6631	1505.7896	1511.3281	1517.5539	3022.451	3029.7013	3038.7797	3051.9257	3083.1374	3090.0788	3093.4928	3096.8676	3100.8712	3105.7735	3123.3144	3127.4156	3148.2454
CC1C2N1CC2(C)C	C[C@H]1[C@@H]2N1CC2(C)C	
InChI=1S/C7H13N/c1-5-6-7(2,3)4-8(5)6/h5-6H,4H2,1-3H3	InChI=1S/C7H13N/c1-5-6-7(2,3)4-8(5)6/h5-6H,4H2,1-3H3/t5-,6-,8?/m0/s1
