18
gdb 57133	3.4213	0.74057	0.62993	5.4548	91.15	-0.2794	-0.0349	0.2444	1728.7705	0.146918	-364.793663	-364.784242	-364.783298	-364.828695	33.876	
C	 0.0131084441	 1.4083262032	-0.0841034144	-0.391316
C	 0.0085512236	-0.1278396519	 0.0705295396	-0.219457
C	 0.7469004648	-0.5332253144	 1.2633083946	 0.156872
C	 1.3470370655	-0.8604369574	 2.2605788575	 0.001242
C	 2.0265102609	-1.2309961495	 3.3847965749	 0.20404
N	 2.6054416662	-1.5460673834	 4.3418126388	-0.340498
C	-1.4092307864	-0.6931509404	 0.0934159529	 0.045112
C	-2.1178367906	-0.9697237932	-1.2079100211	-0.277943
C	-1.6724112787	-2.1130406663	-0.3287784068	-0.26738
H	 1.0332073061	 1.7975596289	-0.1297296563	 0.132477
H	-0.5112466902	 1.6845157523	-1.0027480145	 0.129181
H	-0.4959446903	 1.8815095166	 0.7603234319	 0.133983
H	 0.5281863307	-0.5615282772	-0.7961559724	 0.117158
H	-2.0157404911	-0.3074725122	 0.9080096919	 0.098541
H	-3.1766111797	-0.7463561754	-1.2730920288	 0.120389
H	-1.5714780424	-0.7981973003	-2.1299962072	 0.11547
H	-0.8276814148	-2.7076467784	-0.6608054036	 0.119894
H	-2.4254180676	-2.6767012713	 0.209683553	 0.122235
58.2677	79.4273	118.4366	183.9049	229.92	232.4203	259.0313	331.1134	402.3791	465.085	531.6364	578.3079	592.6944	706.3872	770.1373	820.2662	835.4209	933.4139	946.9498	984.6194	1039.6093	1063.6036	1082.4402	1088.4721	1139.5771	1165.9867	1196.6364	1211.8815	1226.521	1288.518	1324.618	1398.7763	1412.2261	1472.0266	1491.6793	1498.2185	1506.4669	2261.2262	2398.0083	3005.5353	3047.4219	3124.4122	3128.6083	3131.6451	3137.9062	3149.4957	3211.5226	3226.7508
CC(C#CC#N)C1CC1	C[C@@H](C#CC#N)C1CC1	
InChI=1S/C8H9N/c1-7(3-2-6-9)8-4-5-8/h7-8H,4-5H2,1H3	InChI=1S/C8H9N/c1-7(3-2-6-9)8-4-5-8/h7-8H,4-5H2,1H3/t7-/m0/s1
