16
gdb 11385	5.83554	1.25477	1.08179	3.9257	68.43	-0.2404	-0.0503	0.1901	1069.5725	0.130081	-383.761289	-383.753586	-383.752642	-383.793895	27.738	
C	-0.050176445	 1.42883248	-0.040030707	-0.240446
O	 0.140471046	 0.03655045	 0.0803156206	-0.241036
C	 0.6705373763	-0.5816137994	-1.0806399007	 0.08701
C	 1.1846956817	-1.9870014643	-0.7374565591	-0.362575
C	 0.5781346758	-2.9167549785	-1.7972544823	 0.376118
O	 0.8549900387	-4.0793179967	-1.9713066286	-0.324097
C	-0.4076595349	-2.1073293242	-2.5586497956	-0.175148
C	-0.3713408563	-0.8328482405	-2.1588780635	-0.071628
H	 0.8884554909	 1.9447814617	-0.2958503322	 0.109064
H	-0.8035972134	 1.690129579	-0.7977504987	 0.107215
H	-0.398251279	 1.7890535835	 0.9307313543	 0.13475
H	 1.4776480312	 0.0504161255	-1.488177862	 0.081156
H	 2.2725028016	-2.0770304226	-0.7139180642	 0.129466
H	 0.804442362	-2.2719479584	 0.2483807616	 0.151771
H	-1.0419167182	-2.5378494986	-3.3235818523	 0.120058
H	-0.9934982073	-0.0338523665	-2.5471555504	 0.118323
59.047	100.9459	180.1987	244.6128	270.6151	372.929	431.1401	496.945	566.1156	668.107	739.7034	811.1509	831.9246	861.3857	960.9756	1006.222	1019.4574	1057.572	1104.7423	1151.3355	1165.3127	1181.1851	1187.1397	1234.0937	1255.0019	1316.4124	1351.6032	1380.3369	1447.3406	1478.7815	1491.2233	1508.8838	1652.0111	1822.3712	2956.8592	2978.0297	3025.4274	3071.8787	3118.7731	3124.2183	3193.1522	3223.6357
COC1CC(=O)C=C1	CO[C@H]1CC(=O)C=C1	
InChI=1S/C6H8O2/c1-8-6-3-2-5(7)4-6/h2-3,6H,4H2,1H3	InChI=1S/C6H8O2/c1-8-6-3-2-5(7)4-6/h2-3,6H,4H2,1H3/t6-/m1/s1
