20
gdb 88556	3.03026	1.30607	1.16785	1.9345	78.94	-0.2374	0.0782	0.3155	1153.6976	0.170803	-403.08284	-403.074379	-403.073435	-403.11631	32.33	
C	-0.9010185967	 1.2311489124	 0.2140859831	-0.43403
C	-0.081289363	-0.0221282362	 0.0518655095	 0.090813
O	 1.2935894495	 0.1216355724	-0.3259253289	-0.263912
C	 1.0040893436	-0.4673038608	 0.9486026679	-0.091969
C	 1.5136816385	 0.2325822711	 2.1575643617	 0.349971
C	 0.7989112955	 0.2722051297	 3.4506094238	-0.281111
N	 1.0049107613	 1.5469429834	 2.7358318868	-0.16098
C	 2.4368455672	 1.9277249103	 3.0066695686	-0.152317
C	 2.9795204469	 0.6381706405	 2.3392614116	-0.309517
H	-0.3886867453	 1.9636144089	 0.8368879738	 0.163753
H	-1.1086066631	 1.6631558788	-0.770986338	 0.12007
H	-1.863741553	 0.9900703389	 0.6788329218	 0.113469
H	-0.5866500942	-0.8217606499	-0.4965296166	 0.08373
H	 1.2017765572	-1.543481364	 0.9781895035	 0.087796
H	-0.2407023507	-0.041285353	 3.4598543135	 0.121327
H	 1.3367013781	 0.0957983279	 4.3809256742	 0.108351
H	 2.6876969219	 2.8430860351	 2.4685250477	 0.117858
H	 2.649728218	 2.0684215394	 4.0714378719	 0.104629
H	 3.6076243545	-0.032287321	 2.9330248848	 0.100681
H	 3.4679423739	 0.838082096	 1.3845182696	 0.131385
44.4421	149.0022	165.0822	210.1748	239.4288	308.5489	386.0825	449.7689	503.4838	534.7211	649.297	744.6318	777.8003	785.0447	827.7638	846.8889	904.4573	933.0034	966.138	981.773	1004.1174	1044.2337	1087.1222	1099.1888	1106.4205	1126.9899	1170.7491	1177.0135	1198.9822	1219.4937	1230.2445	1267.618	1299.118	1312.2168	1360.0485	1403.7465	1427.7279	1471.5647	1484.9112	1492.3487	1493.8282	1508.9296	1519.3208	3035.7704	3049.4931	3053.134	3060.2311	3072.435	3093.0306	3095.4852	3113.1806	3132.3175	3162.6389	3192.4921
CC1OC1C12CN1CC2	C[C@H]1O[C@H]1[C@]12CN1CC2	
InChI=1S/C7H11NO/c1-5-6(9-5)7-2-3-8(7)4-7/h5-6H,2-4H2,1H3	InChI=1S/C7H11NO/c1-5-6(9-5)7-2-3-8(7)4-7/h5-6H,2-4H2,1H3/t5-,6-,7+,8?/m1/s1
