19
gdb 38112	2.9327	1.87704	1.35013	0.0478	85.8	-0.2116	0.0142	0.2258	978.3734	0.162373	-348.7641	-348.757344	-348.7564	-348.794873	28.641	
C	-0.1035773221	 1.4426524371	 0.1279268815	-0.354838
C	 1.3142600565	 0.9171496467	-0.0147996598	-0.124635
C	 2.0482716211	 0.5643409127	 1.2344143994	-0.076656
C	 1.4569866477	-0.4275028954	 1.9097016153	-0.102462
C	 0.2144060931	-0.9291245817	 1.2111196215	-0.108485
C	 0.210098604	-2.3837312631	 0.6389368196	-0.293642
C	-0.2471625913	-2.1956108077	-0.7942089637	-0.076586
C	-0.2895895527	-0.9113952087	-1.1575034553	-0.181632
C	 0.1096527902	-0.031618196	-0.0383921367	 0.35834
H	-0.4204539896	 1.8165435634	 1.0977684275	 0.107962
H	-0.5092137227	 1.9869015985	-0.7202098575	 0.108621
H	 1.8629707629	 1.1698240113	-0.916139455	 0.08631
H	 2.9516058125	 1.0783788674	 1.5458157295	 0.09222
H	 1.7880867633	-0.8139900524	 2.867694528	 0.090817
H	-0.6650622007	-0.8064927163	 1.8562675109	 0.08266
H	 1.2121827462	-2.8307143519	 0.6702133125	 0.109339
H	-0.4468387967	-3.0543867203	 1.2048547754	 0.100659
H	-0.4773700963	-3.0336532031	-1.4425218997	 0.090826
H	-0.5558822453	-0.5400860606	-2.1407296435	 0.09118
143.2446	215.3038	324.6155	364.7639	435.322	501.5374	571.3271	605.279	698.0141	732.9234	773.3086	792.8305	800.4411	832.6408	858.3412	919.8959	944.4548	959.6828	962.2764	970.3486	1010.2554	1022.2095	1047.7515	1051.7971	1076.0979	1079.7528	1123.6125	1142.7588	1172.3093	1239.3802	1252.5852	1270.4864	1304.172	1317.6693	1343.732	1373.7288	1416.7873	1478.2956	1487.1464	1656.9002	1667.0679	3017.2315	3021.2452	3055.7654	3109.0542	3161.9238	3176.697	3183.6369	3197.5912	3201.325	3208.102
C1C2C=CC3CC=CC123	C1[C@H]2C=C[C@@H]3CC=C[C@]123	
InChI=1S/C9H10/c1-2-7-3-4-8-6-9(7,8)5-1/h1,3-5,7-8H,2,6H2	InChI=1S/C9H10/c1-2-7-3-4-8-6-9(7,8)5-1/h1,3-5,7-8H,2,6H2/t7-,8+,9+/m0/s1
