23
gdb 116172	3.10769	1.02663	0.81863	1.5412	83.18	-0.2469	0.0849	0.3318	1473.6666	0.205808	-425.435139	-425.425564	-425.424619	-425.469524	36.077	
C	 0.0513245863	 1.3806935017	-0.1434862195	-0.240223
O	-0.007632879	 0.0052392108	 0.1533566011	-0.246659
C	-1.3036706401	-0.5643073008	 0.0754678892	 0.124503
C	-1.8052111475	-0.7435497644	-1.3640413367	-0.226862
C	-3.111027987	-1.545235747	-1.3638494274	-0.07878
O	-2.9658371793	-2.7944419145	-0.7162772715	-0.255274
C	-2.5822129461	-2.6666692497	 0.6493179375	 0.129078
C	-2.5354134641	-4.0707344011	 1.2335022402	-0.400017
C	-1.2447997881	-1.9237430807	 0.7700431499	-0.211137
H	 1.0747658042	 1.70864634	 0.0557172951	 0.126464
H	-0.1837926061	 1.6003200207	-1.1951590636	 0.106267
H	-0.6357058439	 1.9636176864	 0.4907914241	 0.100923
H	-2.0157739074	 0.084897632	 0.6178883995	 0.056583
H	-1.9714198202	 0.2224237858	-1.8535457323	 0.091973
H	-1.0421527286	-1.2835127076	-1.9365012634	 0.110038
H	-3.9101055766	-0.957297698	-0.8778421026	 0.082587
H	-3.4359210368	-1.7637891362	-2.3851645586	 0.107285
H	-3.3572085658	-2.0809298335	 1.1780986017	 0.059009
H	-1.7798654975	-4.6718843067	 0.7183218988	 0.123682
H	-2.2861961344	-4.0365367219	 2.2982099133	 0.113278
H	-3.5040800203	-4.5637380943	 1.1162158678	 0.121666
H	-0.4552786968	-2.5234597723	 0.301387655	 0.107747
H	-0.9774041549	-1.7901102988	 1.8235576126	 0.097868
70.2709	125.3286	148.7212	193.1068	220.7346	246.5251	300.4912	307.7572	366.5095	438.144	457.161	485.7653	530.4981	594.4579	813.4036	846.2743	873.2581	911.1999	947.1706	974.7784	995.2086	1023.0993	1098.532	1103.1806	1137.2773	1147.8356	1164.6775	1182.1797	1183.6016	1200.7694	1228.5903	1277.9071	1280.0153	1294.6424	1338.6118	1371.5715	1386.4744	1387.5793	1401.6824	1412.0555	1419.141	1472.1451	1477.9391	1483.0572	1489.1693	1492.6235	1497.5079	1503.8057	1510.8872	2924.8072	2932.1915	2949.9023	2973.3645	3022.6201	3035.9196	3039.0279	3043.7247	3082.4359	3085.3244	3087.5731	3109.6806	3117.0582	3122.1335
COC1CCOC(C)C1	CO[C@H]1CCO[C@@H](C)C1	
InChI=1S/C7H14O2/c1-6-5-7(8-2)3-4-9-6/h6-7H,3-5H2,1-2H3	InChI=1S/C7H14O2/c1-6-5-7(8-2)3-4-9-6/h6-7H,3-5H2,1-2H3/t6-,7-/m0/s1
