18
gdb 107651	3.33839	1.32983	1.09928	2.8717	72.59	-0.2434	0.0096	0.253	1113.9235	0.149176	-439.078533	-439.070562	-439.069618	-439.111166	30.47	
O	 0.1235532281	 1.3412267435	 0.2072248884	-0.419998
C	 0.1018682931	-0.0563375784	 0.0085210836	-0.118088
C	-1.3181407275	-0.5734152644	-0.0814429297	 0.317287
C	-2.0688563059	-0.9633047774	 1.1768475115	-0.321084
C	-1.6585444882	-2.0167914455	 0.178422506	-0.11009
C	-2.670709838	-2.6365732935	-0.7562583214	-0.09883
O	-3.548390534	-1.675622056	-1.3748067933	-0.23022
C	-3.0586673139	-0.439478082	-1.6180226057	 0.112241
N	-2.0587974302	 0.1319575236	-1.0934346684	-0.324766
H	-0.5205301624	 1.6960210183	-0.4202147242	 0.292469
H	 0.6456919726	-0.337971638	-0.9091199225	 0.083589
H	 0.6208037161	-0.517170211	 0.8562181036	 0.096331
H	-1.531481123	-0.9166154984	 2.1177783753	 0.123876
H	-3.1165362769	-0.6874480228	 1.2381355218	 0.126975
H	-0.8534394084	-2.6912559845	 0.458834049	 0.096437
H	-2.1495554326	-3.1755313767	-1.5579884228	 0.119485
H	-3.3328533431	-3.3421539364	-0.2456210501	 0.124648
H	-3.6755470258	 0.0738577096	-2.352602661	 0.129738
94.9046	122.7684	161.4134	262.8856	329.0593	358.8209	370.9819	465.6379	544.7903	574.6651	644.7969	708.8954	796.6354	862.5569	891.2846	910.7602	940.0545	948.4291	984.3975	998.5727	1060.9703	1078.647	1096.9399	1104.2508	1107.403	1169.0135	1207.5365	1265.9978	1281.8939	1308.5412	1370.9991	1398.32	1412.6953	1419.3485	1449.8115	1487.4792	1508.415	1513.6587	1721.4668	2960.2449	3023.1059	3065.7615	3079.2153	3130.9203	3141.0615	3164.2855	3220.6085	3759.8439
OCC12CC1COC=N2	OC[C@]12C[C@H]1COC=N2	
InChI=1S/C6H9NO2/c8-3-6-1-5(6)2-9-4-7-6/h4-5,8H,1-3H2	InChI=1S/C6H9NO2/c8-3-6-1-5(6)2-9-4-7-6/h4-5,8H,1-3H2/t5-,6+/m0/s1
