22
gdb 59241	2.45473	1.38369	1.03644	1.747	81.06	-0.2262	0.0659	0.2921	1236.8823	0.193409	-404.302182	-404.292639	-404.291695	-404.336219	36.491	
C	 0.6366891897	 0.053228299	-1.4958304683	-0.405231
C	-0.0055647604	 0.308401275	-0.1319432458	 0.118442
O	-0.083364693	 1.704877292	 0.1587309329	-0.432698
C	-1.3855920168	-0.3383141921	-0.0179924727	-0.030964
C	-1.5117763789	-1.8613441585	-0.0499664763	-0.051769
C	-0.9494165063	-2.4899493493	 1.1615440032	-0.245899
N	-2.3018744786	-1.9126093051	 1.2473729619	-0.14116
C	-2.1418392145	-0.4070794386	 1.3515663206	 0.040835
C	-1.5287200653	 0.1389871368	 2.6292750855	-0.403868
H	 1.6086277984	 0.550066049	-1.5575934535	 0.124575
H	 0.7809513094	-1.0180574582	-1.6696323126	 0.123873
H	 0.0016343748	 0.440684845	-2.3027960736	 0.104695
H	 0.6546520747	-0.0871492478	 0.6472145297	 0.085131
H	-0.6333093045	 2.1126485492	-0.5198928285	 0.275188
H	-2.032891089	 0.1182745423	-0.7771388991	 0.06394
H	-1.813678409	-2.4447631882	-0.9141986203	 0.091954
H	-0.9607418981	-3.5747167472	 1.2086289734	 0.1199
H	-0.1225742688	-2.0320789026	 1.6963386221	 0.111601
H	-3.1453111422	 0.0124817726	 1.2401805562	 0.083433
H	-0.5334480801	-0.2650641111	 2.8345515133	 0.113098
H	-1.4283354585	 1.2252633503	 2.5563961172	 0.135027
H	-2.1701767731	-0.1020784225	 3.4831456548	 0.119898
73.1014	131.5028	161.2864	199.2269	243.4021	262.3004	283.7567	298.1246	348.4971	443.8572	450.347	515.7318	567.9304	710.1401	761.9393	771.9865	799.6139	885.0276	899.5968	958.9406	989.3823	1018.926	1031.03	1063.5718	1086.0337	1090.6205	1102.4051	1111.8073	1126.2082	1180.0861	1191.969	1212.5537	1249.3279	1260.9144	1296.7513	1333.7166	1366.514	1385.3885	1400.259	1401.9331	1408.9172	1420.0244	1482.8496	1491.9609	1494.7618	1499.3299	1508.2752	3019.9879	3023.7685	3043.1855	3056.2869	3062.947	3094.4623	3110.7094	3118.4511	3120.4146	3123.605	3155.3724	3201.3678	3794.1878
CC(O)C1C2CN2C1C	C[C@@H](O)[C@H]1[C@H]2CN2[C@H]1C	
InChI=1S/C7H13NO/c1-4-7(5(2)9)6-3-8(4)6/h4-7,9H,3H2,1-2H3	InChI=1S/C7H13NO/c1-4-7(5(2)9)6-3-8(4)6/h4-7,9H,3H2,1-2H3/t4-,5+,6+,7-,8?/m0/s1
