15
gdb 87474	3.82421	1.22072	1.10757	3.3811	66.78	-0.2652	-0.0246	0.2406	1102.0904	0.109908	-457.671279	-457.663471	-457.662527	-457.703742	29.154	
C	-0.0039455705	 1.5380634265	-0.0979913262	-0.414463
C	-0.0249487909	 0.0417015503	 0.0500398707	-0.06208
O	 1.2537111228	-0.6500881089	-0.1100354129	-0.294639
C	 0.6353366532	-0.6583003472	 1.1377241331	 0.520007
C	 1.1713971363	-0.2499958253	 2.5238959321	-0.205568
O	-0.0923537106	-0.8099452387	 3.0746146567	-0.294891
C	 0.2620626998	-1.8368992593	 2.0569400587	-0.205683
C	 1.696408225	-1.7161256189	 2.664797055	 0.490087
O	 2.583173867	-2.3561335153	 3.1152940611	-0.297325
H	 0.8527880203	 1.9709935692	 0.4239747285	 0.130457
H	 0.0574085076	 1.817207306	-1.1545049933	 0.13857
H	-0.921883697	 1.9703063603	 0.3136928353	 0.136575
H	-0.8461379176	-0.4738604131	-0.4484021363	 0.110876
H	 1.5237580913	 0.7011470537	 2.914261684	 0.123742
H	-0.4141219768	-2.6761277194	 1.9164191034	 0.124336
103.2725	138.3642	182.5186	196.6069	286.6589	397.1118	437.3249	479.6358	535.8187	592.0308	686.1312	778.5933	790.7949	799.4006	846.9756	880.2636	968.5304	1002.0785	1032.5431	1045.266	1098.926	1124.0323	1138.8279	1147.6546	1157.868	1200.4847	1221.624	1358.9417	1411.7145	1477.1228	1490.0325	1559.7099	1946.4173	3042.1808	3108.8539	3109.5967	3132.8582	3166.6707	3170.585
CC1OC11C2OC1C2=O	C[C@H]1O[C@]21[C@H]1O[C@@H]2C1=O	
InChI=1S/C6H6O3/c1-2-6(9-2)4-3(7)5(6)8-4/h2,4-5H,1H3	InChI=1S/C6H6O3/c1-2-6(9-2)4-3(7)5(6)8-4/h2,4-5H,1H3/t2-,4-,5+,6+/m1/s1
