17
gdb 126895	3.36804	1.08049	0.83332	2.3053	74.71	-0.2333	-0.0367	0.1966	1368.9018	0.13418	-451.280885	-451.271451	-451.270507	-451.317232	31.898	
C	 0.007030708	 1.5536927704	 0.0017099091	-0.370415
C	-0.0557935612	 0.0769196901	-0.3759675459	-0.121312
N	-1.4423313173	-0.3846315259	-0.3831769258	-0.395004
C	-1.7070377921	-1.4886372848	-0.925246336	 0.570676
O	-0.8811025407	-2.3898643377	-1.5449039355	-0.255168
N	-1.6972242596	-3.4761677411	-2.0044605286	-0.010192
N	-2.8783519048	-3.237822566	-1.679075506	-0.041448
N	-2.9630998594	-2.0704397616	-1.02713994	-0.096406
C	-4.2061941391	-1.5246418695	-0.5326386947	-0.327584
H	 1.0441242513	 1.9022552406	 0.0304874016	 0.108342
H	-0.5417672311	 2.1618819738	-0.7236762019	 0.117975
H	-0.4423868559	 1.718001831	 0.9855222685	 0.120568
H	 0.4189399692	-0.0821606877	-1.3551238918	 0.106665
H	 0.5267307157	-0.5138029931	 0.3460773746	 0.107127
H	-5.0069674956	-2.2089346783	-0.8108895752	 0.164156
H	-4.1639101958	-1.4178855443	 0.5547006094	 0.160228
H	-4.3809217315	-0.5399368858	-0.9740500018	 0.161791
26.0586	41.2338	116.0197	126.5849	188.4323	224.1966	277.179	294.5364	356.6438	524.9206	645.745	664.6921	715.7161	727.9546	792.1518	810.1999	925.7988	1005.4944	1064.5319	1094.7458	1108.7345	1139.6473	1156.8697	1159.8669	1304.1195	1325.1519	1388.8109	1408.9931	1417.1305	1452.4272	1470.6639	1485.8935	1488.0903	1506.9174	1514.5774	1521.6459	1806.0883	2989.2997	3018.197	3039.8854	3054.3627	3112.721	3115.6003	3119.0651	3170.4332
CCN=C1ON=NN1C	CCN=c1onnn1C	
InChI=1S/C4H8N4O/c1-3-5-4-8(2)6-7-9-4/h3H2,1-2H3	InChI=1S/C4H8N4O/c1-3-5-4-8(2)6-7-9-4/h3H2,1-2H3
