20
gdb 90098	2.74984	1.50351	1.31959	3.1183	80.89	-0.2041	0.0459	0.2499	1069.7966	0.170462	-402.983405	-402.975151	-402.974207	-403.015637	33.023	
C	 0.0190442908	 1.6151631378	 0.0761529795	-0.451517
C	 0.1759452246	 0.1063133625	 0.0203607357	 0.075049
N	 1.3440724634	-0.4869001072	-0.7961337831	-0.201186
C	 2.2356912502	-0.1272573289	 0.4404570905	-0.268284
C	 0.945851495	-0.7135265213	 1.1019574102	 0.224244
C	 0.1311327288	-1.6167163502	 2.0628646375	-0.381437
C	-0.196241259	-2.4993302456	 0.7561992025	 0.052925
O	-1.469494124	-2.347565334	 0.1821248169	-0.406615
C	 1.0433265358	-1.7856892044	 0.0608352988	 0.024519
H	-0.1310284889	 2.0060678467	-0.9363169502	 0.130247
H	-0.8716887993	 1.8670882179	 0.6619523839	 0.117282
H	 0.864968668	 2.1450324927	 0.5193712473	 0.115669
H	-0.7654127145	-0.334879363	-0.3051957733	 0.110585
H	 3.1427750246	-0.7327459539	 0.510803062	 0.104331
H	 2.4712252854	 0.9358417591	 0.5033092654	 0.104486
H	 0.7302367127	-2.1856506353	 2.7793747086	 0.106632
H	-0.7256219782	-1.167560457	 2.5751218028	 0.099606
H	 0.0340893958	-3.5635805746	 0.9030956039	 0.081668
H	-2.1100692323	-2.7830712342	 0.7543818994	 0.289029
H	 1.9060493211	-2.455891737	 0.0475486319	 0.072768
151.8343	165.1222	208.7677	229.6362	246.2048	324.3435	398.0297	443.7278	454.3922	549.0668	604.7924	690.6783	750.1808	758.9167	776.8569	828.4148	867.0012	890.5536	914.4545	982.2972	1003.733	1029.3059	1044.4709	1078.5789	1114.1032	1138.359	1161.4868	1165.5127	1181.2337	1194.6858	1203.4861	1224.7925	1232.9601	1274.279	1297.7746	1360.3819	1405.5083	1417.3374	1452.9044	1460.9633	1494.5565	1497.5493	1536.7905	2996.7588	3036.6998	3045.2051	3066.581	3076.4872	3095.761	3109.5205	3111.9276	3132.335	3140.5121	3806.389
CC1N2CC11CC(O)C21	C[C@H]1N2C[C@]31C[C@@H](O)[C@@H]23	
InChI=1S/C7H11NO/c1-4-7-2-5(9)6(7)8(4)3-7/h4-6,9H,2-3H2,1H3	InChI=1S/C7H11NO/c1-4-7-2-5(9)6(7)8(4)3-7/h4-6,9H,2-3H2,1H3/t4-,5-,6-,7+/m1/s1
