18
gdb 35128	5.30972	0.89394	0.85841	1.8504	78.47	-0.2442	0.0148	0.259	1366.1051	0.147246	-401.862007	-401.853397	-401.852453	-401.896144	31.822	
C	-0.3949432099	-1.1344536227	-0.395980916	-0.450757
C	-0.0319213749	-0.009001756	-0.1808006564	 0.338105
C	 0.3880746175	 1.3581918291	 0.0797504816	-0.048422
C	-0.1433500079	 2.0156196111	 1.3810026755	-0.312137
C	 1.3284313681	 1.9533574594	 1.8526613368	 0.11352
O	 1.7588951068	 1.45397908	 0.5602367252	-0.30239
C	 2.0101480916	 3.2439197321	 2.2256445976	-0.009637
C	 3.4218264309	 3.476954884	 1.8437943845	-0.240353
N	 2.3332601443	 4.2338950564	 1.1903140908	-0.322862
H	-0.7102341821	-2.1299055975	-0.590759563	 0.205332
H	 0.2583386733	 1.9634774785	-0.8252910713	 0.111443
H	-0.5253349718	 3.0271860767	 1.2368331203	 0.126618
H	-0.8594642426	 1.4217189946	 1.9470465686	 0.124856
H	 1.501784873	 1.2020928685	 2.6351332574	 0.090715
H	 1.6407900843	 3.674484581	 3.1557033042	 0.093545
H	 4.0705880672	 4.0626665537	 2.488271799	 0.117651
H	 3.9164122689	 2.7025368464	 1.2647895879	 0.129466
H	 2.1687255933	 3.8015754348	 0.2819255074	 0.235307
41.7506	93.458	123.5296	189.7414	232.2283	270.9515	416.3046	492.3746	525.2924	622.8836	637.5735	673.2364	706.7378	786.8869	841.2906	855.5116	915.5236	945.6242	963.3359	990.2564	1010.6646	1013.1571	1080.0993	1090.337	1134.547	1140.3556	1159.6262	1189.9979	1249.9783	1257.752	1276.8805	1298.1285	1308.9047	1355.8283	1383.908	1419.6907	1489.4498	1505.6596	2235.3478	3011.3595	3031.1284	3091.8824	3114.5119	3118.9706	3156.5846	3205.9272	3475.8949	3502.3699
C#CC1CC(O1)C1CN1	C#C[C@H]1C[C@@H](O1)[C@H]1CN1	
InChI=1S/C7H9NO/c1-2-5-3-7(9-5)6-4-8-6/h1,5-8H,3-4H2	InChI=1S/C7H9NO/c1-2-5-3-7(9-5)6-4-8-6/h1,5-8H,3-4H2/t5-,6+,7+/m0/s1
