21
gdb 103863	2.98455	0.9835	0.90649	2.4045	80.17	-0.2499	0.0816	0.3315	1409.228	0.179746	-424.178579	-424.168662	-424.167718	-424.213803	36.145	
C	 0.1296258397	 1.2556561753	 0.0229052792	-0.247115
O	-0.0702339834	-0.1015483582	 0.3687293533	-0.28127
C	-1.346840393	-0.6033232502	 0.0692397893	 0.424759
C	-2.4551420437	-0.1042401459	 0.9713041633	-0.454261
C	-1.6286571296	-0.9264976238	-1.3775926895	-0.362146
C	-1.3509138487	-2.0421527982	-0.3800735914	-0.101947
C	-0.0803260356	-2.8165492772	-0.4702336599	 0.100392
C	 0.1168391175	-4.070826193	 0.2662914474	-0.187404
O	-0.1551149809	-4.0853459014	-1.1361707675	-0.245428
H	 1.1815122739	 1.478278937	 0.2168959254	 0.127705
H	-0.0862115302	 1.440289387	-1.0388448163	 0.109244
H	-0.4881295366	 1.9343915708	 0.6266726633	 0.110759
H	-2.6184958153	 0.9723335723	 0.8539538333	 0.119613
H	-3.3977242009	-0.6066809089	 0.7373885305	 0.120691
H	-2.2099106006	-0.3006795892	 2.0201149208	 0.126684
H	-2.6366136436	-0.8115827727	-1.7610687473	 0.113163
H	-0.8430971638	-0.7117922939	-2.0946293329	 0.119993
H	-2.2056667147	-2.6366496717	-0.0694823874	 0.088095
H	 0.801659439	-2.2303686261	-0.7196809577	 0.098739
H	 1.1206489509	-4.3801458436	 0.5553892986	 0.11249
H	-0.6831806005	-4.4511385384	 0.9012449855	 0.107242
55.2885	96.4648	129.5488	143.2781	187.8414	219.703	281.862	327.0256	345.0356	370.2869	407.9093	490.9231	612.5946	693.1427	797.6039	846.5708	864.7877	910.1118	925.0152	943.5925	967.4947	1042.26	1052.9735	1095.425	1100.0036	1106.1582	1128.0678	1152.3259	1172.1529	1180.8911	1201.663	1219.55	1254.0898	1288.2385	1296.439	1358.9466	1412.5057	1458.083	1473.3004	1479.2381	1485.7449	1495.3887	1505.762	1511.2728	1532.6337	2994.5939	3034.5881	3047.8085	3076.6638	3099.013	3114.8022	3117.1724	3130.0029	3134.9287	3148.2269	3163.0977	3219.1591
COC1(C)CC1C1CO1	CO[C@@]1(C)C[C@H]1[C@H]1CO1	
InChI=1S/C7H12O2/c1-7(8-2)3-5(7)6-4-9-6/h5-6H,3-4H2,1-2H3	InChI=1S/C7H12O2/c1-7(8-2)3-5(7)6-4-9-6/h5-6H,3-4H2,1-2H3/t5-,6+,7-/m0/s1
