19
gdb 116801	6.2861	0.4988	0.4831	3.6094	78.48	-0.2397	0.0221	0.2618	2237.5082	0.156638	-456.371348	-456.360363	-456.359419	-456.410144	36.562	
C	-0.130321153	 1.3656451666	-0.0056712488	-0.249004
O	-0.0515380773	-0.0530978209	 0.0468941629	-0.192876
C	 0.5466784551	-0.6412603481	-1.0082363314	 0.126639
N	 0.6700001577	-1.8915408356	-1.0627642316	-0.216017
C	 1.317943364	-2.4500004799	-2.2339569784	-0.150877
C	 2.4990568681	-3.3275755451	-1.8128051034	-0.302266
C	 3.0982209435	-4.0876944836	-2.9916770863	 0.408252
N	 4.3379096543	-4.6181397925	-2.75857353	-0.523565
O	 2.5321439644	-4.2111791341	-4.0609163205	-0.357252
H	 0.8659744859	 1.8240788629	-0.032728276	 0.125671
H	-0.7070353724	 1.7051154321	-0.8747788612	 0.128176
H	-0.6416770969	 1.6790315241	 0.9052113992	 0.146238
H	 0.8962497785	 0.0591161922	-1.784136115	 0.073185
H	 0.603974844	-3.0798049919	-2.7742569846	 0.131902
H	 1.6611454326	-1.6805395359	-2.9451303113	 0.090015
H	 3.2716333308	-2.7251702668	-1.3202122764	 0.108669
H	 2.1536574946	-4.0527371741	-1.0651714881	 0.138409
H	 4.7391403274	-4.6346392204	-1.8369371695	 0.256376
H	 4.7190506188	-5.237868059	-3.4551995396	 0.258327
25.6466	42.8449	52.8442	75.6778	140.1695	164.6145	224.3535	239.3413	267.9044	328.326	426.6433	482.2203	512.117	564.6983	640.3227	650.7885	805.9371	868.0774	985.8822	1029.0412	1049.7341	1066.8204	1097.8135	1106.6301	1177.291	1179.0575	1204.0343	1251.7974	1279.554	1307.0119	1362.5586	1400.7884	1420.4655	1465.5218	1485.694	1494.7654	1495.94	1501.302	1618.3275	1776.304	1795.4418	2967.6283	2984.6764	3014.3931	3033.074	3063.5038	3075.2356	3081.9961	3144.4182	3596.1644	3730.868
COC=NCCC(N)=O	COC=NCCC(=O)N	
InChI=1S/C5H10N2O2/c1-9-4-7-3-2-5(6)8/h4H,2-3H2,1H3,(H2,6,8)	InChI=1S/C5H10N2O2/c1-9-4-7-3-2-5(6)8/h4H,2-3H2,1H3,(H2,6,8)
