17
gdb 24087	3.62944	1.02932	0.90044	1.347	80.09	-0.1773	0.0472	0.2245	1300.0953	0.136665	-380.85327	-380.844627	-380.843683	-380.887151	32.68	
C	-0.0075048518	 0.0137271202	 1.3003182757	-0.46864
C	-0.0029678116	 0.6307470922	 0.2681794832	 0.318427
C	 0.0384935255	 1.3607688773	-1.0075833472	-0.326596
N	 1.2600753083	 2.1052971313	-1.2778656758	-0.378392
C	 1.5481440709	 3.2138975399	-0.4595205015	 0.302847
C	 0.7271281262	 3.823132769	 0.4677638466	-0.162049
N	 1.4040292651	 4.922399873	 0.9575766046	-0.245362
C	 2.6352896092	 5.009844903	 0.3735152512	-0.062606
C	 2.7582468522	 3.968182823	-0.5164301894	-0.251903
H	-0.0127333556	-0.5238703296	 2.2159979412	 0.196076
H	-0.1123953648	 0.6506233281	-1.8288229558	 0.133281
H	-0.8014456924	 2.0651119473	-1.054988374	 0.140734
H	 2.0574523739	 1.4886267915	-1.3690952415	 0.232534
H	-0.2486765357	 3.5595263952	 0.8372555264	 0.113932
H	 1.0495799283	 5.5452830925	 1.6600946893	 0.258267
H	 3.3189419384	 5.8042762582	 0.6259920901	 0.114687
H	 3.606732744	 3.7681708278	-1.1529250133	 0.084762
49.1323	70.7671	183.1412	216.4591	299.8857	350.0464	396.6973	402.5429	571.1911	614.34	617.7949	624.8605	627.525	654.378	676.8138	710.7292	751.1587	803.9966	901.0124	917.8642	953.176	1027.0564	1079.5565	1087.6098	1120.4156	1171.9553	1245.1455	1296.154	1314.0713	1371.5755	1408.6421	1462.3275	1477.6098	1493.2211	1538.4266	1629.1366	2227.132	3027.6642	3062.7344	3243.1272	3269.0751	3281.0994	3505.2577	3557.6892	3698.9871
C#CCNC1=CNC=C1	C#CCNc1c[nH]cc1	
InChI=1S/C7H8N2/c1-2-4-9-7-3-5-8-6-7/h1,3,5-6,8-9H,4H2	InChI=1S/C7H8N2/c1-2-4-9-7-3-5-8-6-7/h1,3,5-6,8-9H,4H2
