18
gdb 69405	3.11488	1.19888	1.15224	4.2418	81.28	-0.2521	-0.0062	0.2459	1155.72	0.148455	-364.82972	-364.821657	-364.820713	-364.862211	31.246	
C	-0.0572527686	 1.5640034189	 0.0167070898	-0.486637
C	 0.0305999792	 0.0565322062	 0.0003124576	 0.326462
C	-0.8140337623	-0.7901872863	 0.9376368965	-0.33744
C	 0.6843332859	-0.773495449	 1.0953538581	-0.083535
C	 1.4786149217	-1.9067533169	 0.4250621826	-0.204193
C	 1.1502158142	-1.7316110921	-1.05623908	-0.097179
C	 0.3888246279	-0.6577687789	-1.2637750394	-0.128192
C	 2.9204880221	-1.8113772789	 0.682431979	 0.265021
N	 4.0555967637	-1.7326754471	 0.8858323109	-0.326518
H	 0.872588448	 2.0207874229	-0.3384846964	 0.129692
H	-0.8720700201	 1.9185833554	-0.6249705385	 0.122284
H	-0.2490506073	 1.9350837545	 1.0279288097	 0.121298
H	-1.3832521039	-0.2723205584	 1.7034905603	 0.115958
H	-1.2947751787	-1.6772293269	 0.5378954444	 0.115803
H	 1.1084480935	-0.3044750536	 1.9744655745	 0.109347
H	 1.1520186905	-2.8903690915	 0.7885813598	 0.13356
H	 1.4988728784	-2.4328247271	-1.8036251149	 0.117637
H	 0.0268216858	-0.3323480212	-2.233164134	 0.106633
92.0006	149.6006	204.1009	249.0472	283.293	335.2832	406.7609	440.4705	521.1409	578.9322	603.3147	743.8579	769.1935	783.3518	822.0544	852.2136	940.351	952.1212	963.2025	976.1748	1000.6682	1038.8127	1065.9782	1086.141	1112.6517	1116.932	1139.8981	1229.6017	1265.8853	1276.3624	1307.2833	1348.5914	1403.9428	1421.3463	1481.4246	1489.2237	1501.2009	1672.4207	2355.2907	3021.5622	3028.8454	3090.5392	3106.2899	3121.7603	3189.3981	3190.5175	3211.2799	3223.8506
CC12CC1C(C=C2)C#N	C[C@]12C[C@H]1[C@@H](C=C2)C#N	
InChI=1S/C8H9N/c1-8-3-2-6(5-9)7(8)4-8/h2-3,6-7H,4H2,1H3	InChI=1S/C8H9N/c1-8-3-2-6(5-9)7(8)4-8/h2-3,6-7H,4H2,1H3/t6-,7-,8-/m0/s1
