18
gdb 69089	2.45805	1.64251	1.21843	5.0915	76.49	-0.2494	0.0168	0.2663	1065.3809	0.147968	-401.95654	-401.948286	-401.947341	-401.989075	31.625	
C	-0.2388942997	 1.5321921852	 0.0443210022	-0.477078
C	 0.0799032676	 0.0589894796	-0.0222887034	 0.241886
C	-0.6589890565	-0.9226160765	 0.8631109638	-0.391297
C	 0.8281906891	-0.6846178211	 1.0738320525	 0.294435
O	 1.730576533	-1.6095224437	 0.5317596769	-0.296988
C	 1.3963819216	-1.7927694984	-0.8493837564	-0.108225
C	 0.6717855068	-0.5115406711	-1.3068497657	-0.287265
C	 1.3029872293	-0.0454452839	 2.2696522728	 0.245206
N	 1.6497600858	 0.4960643921	 3.2308989386	-0.350609
H	 0.6132260222	 2.1334875358	-0.2898072299	 0.130125
H	-1.0941794427	 1.7730070922	-0.5965192892	 0.126365
H	-0.4870387044	 1.8404795461	 1.0638226117	 0.138414
H	-1.3321162503	-0.5047764712	 1.6034613779	 0.137519
H	-0.953992034	-1.8941749655	 0.4815739654	 0.129474
H	 2.3256463843	-1.9867088335	-1.3899574954	 0.124799
H	 0.7498316511	-2.6731292577	-0.9592546299	 0.109549
H	-0.0810921209	-0.7233435517	-2.0721048586	 0.115588
H	 1.3783904476	 0.2143617333	-1.7228395032	 0.118102
126.707	140.9969	195.0637	205.2351	259.773	328.2742	373.5937	426.7368	506.6483	558.9454	581.4664	630.967	697.4943	735.6858	854.8397	892.3125	906.0151	940.8306	958.8897	986.8263	1036.8922	1055.9668	1072.0995	1108.8901	1150.4676	1223.8865	1229.1569	1249.0732	1268.5138	1339.4032	1381.9541	1391.2772	1424.0174	1475.4321	1487.4919	1491.9952	1503.2051	1530.816	2356.1621	3018.5947	3032.6145	3047.706	3090.0531	3096.1405	3104.4754	3112.9957	3136.8735	3226.8844
CC12CC1(OCC2)C#N	C[C@]12C[C@]1(OCC2)C#N	
InChI=1S/C7H9NO/c1-6-2-3-9-7(6,4-6)5-8/h2-4H2,1H3	InChI=1S/C7H9NO/c1-6-2-3-9-7(6,4-6)5-8/h2-4H2,1H3/t6-,7-/m0/s1
