16
gdb 34818	5.3145	1.07604	1.00333	2.0471	76.59	-0.2447	0.0424	0.2871	1168.7344	0.123602	-400.603867	-400.596326	-400.595382	-400.635714	29.606	
C	-0.0277565102	-1.2637567845	-0.0502952645	-0.421171
C	 0.0115158678	-0.0640544961	 0.0093177512	 0.336433
C	-0.0080399139	 1.3812867929	 0.0170434711	-0.201589
C	 0.0668790894	 2.1335238529	 1.3877440509	-0.14034
N	 1.5128236615	 1.6592023725	 1.479812121	-0.321154
C	 1.3506173544	 2.1580516516	 0.0483614955	-0.140341
C	 0.5553161314	 3.3558904491	 0.593154699	 0.531388
C	 0.0415815931	 4.63512374	 0.1241950444	-0.317433
O	 1.0893924137	 4.5334892813	 1.1266107783	-0.302106
H	-0.0426912433	-2.3248186074	-0.0840427323	 0.19056
H	-0.7460967231	 1.7821163437	-0.6830109075	 0.10261
H	-0.6258239653	 2.0664954563	 2.2257596526	 0.100089
H	 2.0544776115	 2.3471293572	 2.0115612533	 0.228805
H	 2.1594668647	 2.1197117422	-0.680262564	 0.100089
H	 0.3641983979	 5.0390242177	-0.8338045172	 0.12708
H	-0.9090431396	 5.0146930007	 0.4946270481	 0.12708
121.7841	134.5112	226.159	285.1951	350.6874	403.4174	460.0692	523.4464	594.1638	627.8115	637.1211	713.3674	743.9563	809.0944	863.4394	885.3097	890.5573	914.9493	1001.4015	1057.6123	1065.454	1109.107	1110.5765	1127.0593	1138.5746	1155.5312	1175.1292	1186.4269	1219.0825	1283.9812	1293.2523	1379.1516	1456.4601	1551.7295	2241.0878	3076.2253	3090.3913	3129.7375	3133.157	3178.8592	3404.1766	3505.5984
C#CC1C2NC1C21CO1	C#C[C@H]1[C@H]2N[C@@H]1[C@]12CO1	
InChI=1S/C7H7NO/c1-2-4-5-7(3-9-7)6(4)8-5/h1,4-6,8H,3H2	InChI=1S/C7H7NO/c1-2-4-5-7(3-9-7)6(4)8-5/h1,4-6,8H,3H2/t4-,5+,6-,7+
