17
gdb 80377	3.32872	1.30844	1.14741	5.1936	72.15	-0.248	0.0288	0.2769	1080.4061	0.136592	-417.975257	-417.96695	-417.966006	-418.00768	32.276	
N	 0.1616704539	 1.4938990486	-0.0854243739	-0.569471
C	 0.0044402146	 0.0522262053	-0.000121916	 0.147079
C	 0.2230721126	-0.5823838178	 1.4260608213	-0.271922
C	-1.1359753433	-1.2814600962	 1.3268193805	-0.099607
C	-2.224008494	-0.2708851516	 1.138946468	 0.070581
O	-2.1698474523	 1.0251379466	 1.6779876381	-0.419485
C	-1.3979844373	-0.6245005416	-0.051554808	-0.130546
C	 0.8856198537	-0.5812478869	-0.9877765282	 0.279472
N	 1.5561333815	-1.0892699836	-1.7802319684	-0.341906
H	 0.0047281875	 1.8137051056	-1.0364978482	 0.235227
H	-0.5448626469	 1.9211561547	 0.5058452955	 0.253604
H	 1.0727633287	-1.2635755662	 1.4584721032	 0.135082
H	 0.324321566	 0.1619695747	 2.2191229	 0.109186
H	-1.3359065569	-2.2972499233	 1.6433852473	 0.097745
H	-3.2291195496	-0.6913347552	 1.1028128697	 0.103568
H	-2.300789519	 0.9616161971	 2.6302533842	 0.294452
H	-1.8360732595	-1.0414368001	-0.9505593251	 0.106941
129.3476	140.3016	225.0361	242.5372	298.2451	312.5189	341.8457	396.0686	486.298	535.2318	571.4181	606.2581	673.527	742.2315	788.6063	850.7207	869.6802	919.8341	960.0339	977.9341	1000.6112	1018.7719	1062.2595	1068.6801	1092.527	1140.154	1199.9627	1235.4884	1247.887	1282.7286	1298.7609	1332.5086	1367.4854	1449.4914	1482.7364	1655.151	2357.7499	3076.3655	3107.3896	3143.8111	3183.0414	3197.2857	3498.6167	3583.5887	3806.1928
NC1(CC2C(O)C12)C#N	N[C@]1(C[C@H]2[C@@H](O)[C@@H]12)C#N	
InChI=1S/C6H8N2O/c7-2-6(8)1-3-4(6)5(3)9/h3-5,9H,1,8H2	InChI=1S/C6H8N2O/c7-2-6(8)1-3-4(6)5(3)9/h3-5,9H,1,8H2/t3-,4+,5-,6-/m1/s1
