21
gdb 101042	1.9156	1.5353	1.00703	2.4412	74.16	-0.2505	0.0452	0.2957	1238.8807	0.181499	-461.330817	-461.320908	-461.319963	-461.36531	37.668	
O	-1.3825033458	-0.5908774681	-2.564477041	-0.407723
C	-2.5192827364	-0.6784752817	-1.6989391808	-0.131108
C	-2.1520171749	-0.6788911439	-0.1991399447	 0.016046
O	-3.2443728878	-0.1738712642	 0.5604272545	-0.424886
C	-1.6387354317	-2.0250473334	 0.3262747281	 0.329186
C	-0.5726137505	-2.7023311298	-0.5287712273	-0.146359
O	 0.5142032836	-1.8558276639	-0.8514208598	-0.428617
C	-1.5433596963	-2.1923743075	 1.819052462	-0.295284
C	-2.584907635	-2.962737544	 1.041832805	-0.325385
H	-1.1154354438	 0.3334067539	-2.5985993389	 0.297215
H	-3.2023760687	 0.1613207655	-1.874114338	 0.108791
H	-3.0399602505	-1.6028962113	-1.9734381128	 0.116916
H	-1.3547044978	 0.0618002682	-0.0600193752	 0.096418
H	-3.9888960821	-0.7750063026	 0.4487497835	 0.283284
H	-0.1653805734	-3.554667747	 0.0271646147	 0.097756
H	-1.0321483036	-3.1089847491	-1.442798118	 0.090273
H	 0.2006375924	-1.3251939612	-1.5965267731	 0.282403
H	-0.6903594103	-2.7301033997	 2.2189929313	 0.11316
H	-1.9016918726	-1.3759203271	 2.4354094086	 0.123654
H	-3.623946825	-2.6847478796	 1.1851879137	 0.092377
H	-2.4410354998	-4.0280822333	 0.8912513182	 0.111885
63.3265	126.5282	164.7354	197.4797	225.569	272.4351	293.2883	324.5632	350.2961	355.6355	411.5018	454.1817	503.4242	590.5684	614.2066	690.7088	784.3749	865.5355	902.1092	935.1685	949.2291	1007.9149	1032.5181	1043.6275	1050.11	1069.4879	1084.094	1088.7008	1097.6671	1179.1517	1186.1698	1228.1334	1250.2027	1296.9303	1341.687	1364.4909	1384.8202	1401.4898	1410.8125	1422.0994	1458.6982	1460.7715	1492.0522	1503.2494	1508.2692	2982.8954	3026.0752	3036.5889	3055.9621	3081.6992	3124.1518	3135.8016	3199.33	3226.7801	3737.1912	3803.4963	3820.8421
OCC(O)C1(CO)CC1	OC[C@@H](O)C1(CO)CC1	
InChI=1S/C6H12O3/c7-3-5(9)6(4-8)1-2-6/h5,7-9H,1-4H2	InChI=1S/C6H12O3/c7-3-5(9)6(4-8)1-2-6/h5,7-9H,1-4H2/t5-/m1/s1
