20
gdb 22978	3.13023	0.9725	0.81918	1.4889	78.6	-0.2512	-0.0002	0.251	1441.5332	0.170352	-440.226181	-440.216754	-440.21581	-440.260945	34.981	
O	 0.3819181961	 0.9626312364	-0.7029910981	-0.417817
C	-0.0487538208	 0.0830763358	 0.3178907647	-0.141411
C	-1.4887050977	-0.3732283462	 0.1350069838	 0.324717
N	-2.4804244927	 0.430643208	 0.0796350577	-0.180375
O	-2.0646516537	 1.7779465633	 0.2361550575	-0.414754
C	-1.7694696818	-1.8378015316	 0.0148801146	-0.051332
C	-1.5481113143	-2.7391625566	 1.2781450993	-0.224223
C	-2.795053108	-3.5568243459	 0.8471325297	-0.216264
C	-3.2234780613	-2.3698066042	-0.0569348763	-0.229156
H	-0.2303509805	 1.7084433126	-0.6778406306	 0.29668
H	 0.6173431753	-0.7836858582	 0.2864525326	 0.110431
H	 0.0480648072	 0.5383458881	 1.3167096868	 0.109336
H	-2.8916203097	 2.2595946828	 0.1341838905	 0.31028
H	-1.1703284246	-2.2348455329	-0.8144655034	 0.092472
H	-0.5936145776	-3.2626231477	 1.3685423452	 0.100587
H	-1.7326409441	-2.1776419638	 2.1986179846	 0.107719
H	-2.5170952526	-4.4374024249	 0.260890824	 0.103602
H	-3.4852234168	-3.8683317112	 1.6339845858	 0.100315
H	-3.910724155	-1.6901323759	 0.4507344241	 0.119314
H	-3.6236788875	-2.5959390678	-1.0473592227	 0.099879
56.5006	88.3293	136.9321	151.7112	232.9206	265.3843	307.1136	358.9754	420.4384	435.3723	506.2869	531.0585	618.814	721.7562	783.9279	816.4216	864.0665	902.8949	936.7954	951.3765	954.2999	974.6977	1020.747	1043.9061	1082.9229	1128.915	1188.5869	1203.0726	1233.6387	1251.4393	1255.7255	1260.4925	1276.8368	1282.8846	1357.903	1369.2233	1404.1578	1457.7653	1479.73	1488.7001	1492.2725	1511.2298	1721.0517	2976.2693	3026.5928	3056.2911	3060.395	3075.3531	3087.5116	3103.7049	3116.9684	3132.7326	3781.7751	3831.1732
OCC(=NO)C1CCC1	OCC(=NO)C1CCC1	
InChI=1S/C6H11NO2/c8-4-6(7-9)5-2-1-3-5/h5,8-9H,1-4H2	InChI=1S/C6H11NO2/c8-4-6(7-9)5-2-1-3-5/h5,8-9H,1-4H2
