16
gdb 46301	3.12264	1.40962	1.2588	2.554	70.01	-0.2365	-0.0307	0.2058	1027.9345	0.12491	-437.903942	-437.896355	-437.895411	-437.936562	28.098	
O	-0.0588809289	 0.0018913449	 0.1782678881	-0.293178
C	-0.0848089982	 1.1938772136	 0.0992235333	 0.370446
C	-1.1638628278	 2.27252217	 0.2277877831	-0.334936
C	-0.019191711	 3.2835503745	 0.5475982389	-0.289823
C	 1.0469805354	 2.260742166	 0.0399234199	 0.206835
C	 2.3584327548	 1.9707486965	 0.7922518116	-0.189435
O	 3.3911625339	 2.1503506308	-0.2087510124	-0.216434
C	 2.729820552	 2.4338063799	-1.3493745733	 0.119415
N	 1.4632484346	 2.52394352	-1.3476544573	-0.303484
H	-1.634404897	 2.4704644532	-0.7400475289	 0.150287
H	-1.9413438892	 2.0976468841	 0.9744607734	 0.129245
H	-0.0369783961	 4.225039289	-0.0006483668	 0.123132
H	 0.0797988403	 3.4793265663	 1.6184388619	 0.111592
H	 2.5564825359	 2.6563517209	 1.6202597158	 0.125731
H	 2.4030088823	 0.9368499609	 1.1476640733	 0.142163
H	 3.365275189	 2.5784985895	-2.2158621607	 0.148444
85.1666	94.7199	160.1394	248.9904	310.2756	403.8299	500.686	520.7027	597.9889	732.8027	733.4602	799.0894	852.0495	873.9177	918.8907	937.0927	962.1813	963.6603	1043.5107	1069.5454	1106.1524	1124.0566	1147.3978	1194.7027	1209.1499	1231.9841	1237.1547	1279.6032	1322.8233	1372.937	1437.8665	1476.2798	1504.2494	1689.5913	1894.4907	3053.8113	3067.0044	3072.8645	3106.8173	3124.4305	3146.9588	3220.1733
O=C1CCC11COC=N1	O=C1CC[C@]21COC=N2	
InChI=1S/C6H7NO2/c8-5-1-2-6(5)3-9-4-7-6/h4H,1-3H2	InChI=1S/C6H7NO2/c8-5-1-2-6(5)3-9-4-7-6/h4H,1-3H2/t6-/m1/s1
