23
gdb 58432	2.71152	1.31439	1.19944	1.4093	85.32	-0.2549	0.0755	0.3304	1188.6345	0.205627	-388.230998	-388.221753	-388.220808	-388.264609	36.668	
C	 0.2739061522	 1.2980669154	-0.0286798522	-0.412834
C	 0.0476681838	-0.1842098658	 0.2849008267	 0.049004
O	 0.5450590208	-0.5211266466	 1.5819726434	-0.441068
C	-1.4300312379	-0.6282348441	 0.1137661557	 0.396729
C	-2.2298942704	-0.1627632672	 1.3388600241	-0.513676
C	-2.094132985	-0.4787970772	-1.3116750237	-0.086879
C	-1.1639194607	-1.6187236447	-1.8239517735	-0.232671
C	-1.6841106981	-2.088707001	-0.4299289815	-0.086267
C	-3.083895531	-1.6195973318	-0.9246556803	-0.2414
H	 1.3237543695	 1.5542569126	 0.1396813232	 0.121884
H	 0.0257738626	 1.5225969802	-1.0708122146	 0.120461
H	-0.3380911703	 1.9506697287	 0.6050971352	 0.109812
H	 0.6893541694	-0.7647675663	-0.3789615678	 0.084954
H	 0.1506993919	 0.0850561206	 2.2170759076	 0.276903
H	-3.3079647731	-0.2661634348	 1.2249877565	 0.119824
H	-1.9370311246	-0.7339523761	 2.2249972838	 0.12663
H	-2.0431143146	 0.8966984434	 1.5494281009	 0.108915
H	-2.3383945894	 0.4523494003	-1.8282291709	 0.063929
H	-1.5434342631	-2.1844147273	-2.6785412468	 0.087537
H	-0.1028331398	-1.4126341837	-1.9523620519	 0.096707
H	-1.4451463553	-3.0232459063	 0.0811617685	 0.071623
H	-3.8576119958	-1.4178996446	-0.1864148165	 0.091048
H	-3.4986932813	-2.1812508535	-1.765577916	 0.088836
62.7252	144.4801	165.8616	219.108	268.3566	294.7833	328.2942	348.3989	427.241	450.2612	500.9384	529.5379	610.2797	683.4208	768.4883	796.3821	860.6831	869.3865	897.2619	897.8239	930.6415	995.4579	1004.9612	1020.4228	1021.2182	1067.9263	1073.1389	1090.3027	1105.7016	1113.0755	1137.8196	1177.8728	1183.6048	1190.6007	1218.6381	1238.053	1254.66	1265.1659	1308.9458	1359.5038	1398.1601	1409.5689	1438.578	1487.6317	1494.5295	1499.7411	1508.9245	1531.0153	1560.5175	3029.3774	3039.9072	3067.03	3068.2016	3083.8746	3087.6957	3095.2884	3097.8027	3108.6397	3115.7405	3136.6614	3146.4938	3156.9425	3815.8977
CC(O)C1(C)C2CC1C2	C[C@@H](O)[C@@]1(C)[C@H]2C[C@@H]1C2	
InChI=1S/C8H14O/c1-5(9)8(2)6-3-7(8)4-6/h5-7,9H,3-4H2,1-2H3	InChI=1S/C8H14O/c1-5(9)8(2)6-3-7(8)4-6/h5-7,9H,3-4H2,1-2H3/t5-,6-,7+,8-/m1/s1
