15
gdb 31371	3.95894	1.17667	0.91232	5.8202	72.55	-0.2274	-0.0259	0.2015	1210.6302	0.112818	-457.803129	-457.795185	-457.794241	-457.836258	28.797	
C	 0.008954907	 1.4467478246	-0.034399849	-0.245437
O	 0.0183741507	 0.0159072933	-0.0303285654	-0.254682
C	 0.5950057828	-0.6348865602	-1.0399741156	 0.509026
C	 0.6416160614	-1.9848450731	-1.1055044363	-0.415614
C	 1.2812246886	-2.6589915124	-2.2250511256	 0.394611
O	 1.3588958667	-3.8736485249	-2.3481150508	-0.386653
C	 1.8383600888	-1.719781154	-3.2204506223	-0.256805
C	 1.7367285009	-0.3983566821	-3.0576109417	 0.0608
O	 1.1224699212	 0.1781266013	-1.980745186	-0.231409
H	 1.0255320507	 1.8494805528	-0.0255122733	 0.14139
H	-0.5276294046	 1.8366811457	-0.9037567049	 0.141359
H	-0.5107628081	 1.7301507879	 0.8805518685	 0.148611
H	 0.19518164	-2.5668771849	-0.3108866482	 0.123504
H	 2.3357384543	-2.1236734195	-4.0933709314	 0.125959
H	 2.1121238196	 0.3617977554	-3.729777478	 0.145341
53.3496	159.5138	163.9309	212.6913	227.8641	396.9239	409.1857	484.2907	513.7777	605.5871	679.4479	729.5623	758.6881	834.8173	871.0097	905.1026	947.709	957.9164	1038.4642	1054.4964	1173.8977	1199.8697	1213.5795	1262.666	1306.251	1384.1273	1412.3666	1488.546	1489.2958	1499.2442	1633.3535	1701.123	1748.3904	3045.1835	3118.4194	3159.5843	3214.0315	3231.3188	3235.6803
COC1=CC(=O)C=CO1	COc1cc(=O)cco1	
InChI=1S/C6H6O3/c1-8-6-4-5(7)2-3-9-6/h2-4H,1H3	InChI=1S/C6H6O3/c1-8-6-4-5(7)2-3-9-6/h2-4H,1H3
