20
gdb 64955	3.03853	1.18232	0.98508	2.3374	80.88	-0.2358	-0.0137	0.222	1277.0354	0.170337	-403.134858	-403.125659	-403.124714	-403.169309	34.321	
C	-0.1716598474	 1.2730485663	-1.0718227752	-0.463588
C	-0.0935470715	 0.2132044563	 0.0050244034	 0.199285
C	 0.9168033031	-0.8849665376	-0.1365299237	-0.266305
N	 1.0962611295	 0.1462023765	 0.8846344077	-0.338807
C	-1.4120332456	-0.118445832	 0.6661494127	 0.359926
O	-2.4538939522	 0.229586878	 0.1418270093	-0.350867
C	-1.3896438283	-0.8898007107	 1.9395704337	-0.120424
C	-2.5517872112	-0.6650650774	 2.8948885695	-0.251575
C	-2.4805852628	-1.9388275566	 2.1280996533	-0.253519
H	 0.7976045056	 1.3954540536	-1.5655580266	 0.103433
H	-0.9182558429	 1.0029671894	-1.8217189719	 0.147439
H	-0.4711671573	 2.2368850347	-0.6480877343	 0.131351
H	 0.7035068666	-1.8792715311	 0.2456962355	 0.127921
H	 1.5355785475	-0.8644738941	-1.0300138375	 0.120761
H	 1.7769064529	 0.836254506	 0.5761190687	 0.235794
H	-0.4168846422	-1.0793041947	 2.3717263659	 0.116328
H	-2.3231456436	-0.6737739615	 3.9542494765	 0.116427
H	-3.2837395989	 0.0673218929	 2.5745240963	 0.136854
H	-3.1662027527	-2.0582542414	 1.2969047729	 0.133822
H	-2.2022110884	-2.8515106867	 2.6425331639	 0.115745
55.3753	65.2931	174.7077	187.7005	235.2528	285.8103	313.1548	324.3685	374.2372	460.3423	523.5083	722.339	742.7319	798.7784	823.4022	830.6144	837.0033	905.8312	919.6696	940.448	977.104	1002.9628	1046.8	1058.6466	1088.0849	1095.4163	1110.0203	1124.4025	1143.413	1146.9403	1210.9787	1221.3867	1262.1142	1340.1404	1353.7228	1412.8388	1420.5178	1453.8358	1477.3382	1485.8125	1499.0556	1509.2267	1766.411	3040.0824	3105.7973	3108.2897	3129.8594	3139.3958	3142.289	3194.4945	3212.1227	3227.0896	3242.8865	3499.1377
CC1(CN1)C(=O)C1CC1	C[C@]1(CN1)C(=O)C1CC1	
InChI=1S/C7H11NO/c1-7(4-8-7)6(9)5-2-3-5/h5,8H,2-4H2,1H3	InChI=1S/C7H11NO/c1-7(4-8-7)6(9)5-2-3-5/h5,8H,2-4H2,1H3/t7-/m0/s1
