15
gdb 80351	2.24438	1.53869	1.34745	4.4095	65.3	-0.2479	0.0027	0.2506	1008.9318	0.112169	-453.888292	-453.880137	-453.879192	-453.920878	30.834	
O	 0.1330821979	 1.3278498216	 0.0308884643	-0.426118
C	-0.0303069825	-0.0462126532	-0.0132229958	 0.07564
C	-0.462149994	-0.8473799459	 1.1794491268	-0.146676
N	-1.3751526544	 0.0381905795	 1.9439330211	-0.351207
C	-2.3951025788	-0.0603023717	 0.8451294287	-0.198149
C	-2.9882889041	 1.205978024	 0.4116234149	 0.289853
N	-3.4828277121	 2.1896914674	 0.0604422631	-0.320606
C	-1.3636216376	-0.7657402355	-0.0605458117	 0.300826
O	-1.7164148045	-1.7262572084	-0.9759719173	-0.446996
H	-0.2198886538	 1.6176753105	 0.8858023892	 0.304451
H	 0.7150546748	-0.5357529694	-0.6354826387	 0.11849
H	 0.0884437246	-1.6542705055	 1.6463826475	 0.116267
H	-1.7145809595	-0.3899385041	 2.7977445917	 0.243761
H	-3.1972522155	-0.7643017474	 1.0882597888	 0.138113
H	-1.6648065908	-1.3452185719	-1.8605819424	 0.302351
104.977	131.8751	209.89	251.1521	295.8382	330.2104	351.2913	461.0638	482.7008	530.4759	562.3246	635.3382	656.8687	783.5842	825.2232	839.8728	912.7791	937.8009	983.6518	1011.7328	1058.2619	1087.6018	1126.9383	1161.5567	1222.0201	1236.0928	1289.5608	1324.1829	1356.1232	1370.0694	1397.7662	1487.7317	2356.0756	3065.6241	3153.5351	3197.3338	3545.1846	3717.2619	3784.9529
OC1C2NC(C#N)C12O	O[C@H]1[C@H]2N[C@@H](C#N)[C@@]12O	
InChI=1S/C5H6N2O2/c6-1-2-5(9)3(7-2)4(5)8/h2-4,7-9H	InChI=1S/C5H6N2O2/c6-1-2-5(9)3(7-2)4(5)8/h2-4,7-9H/t2-,3+,4-,5-/m0/s1
