20
gdb 124451	3.09572	1.21289	1.07935	2.7148	80.25	-0.2605	-0.0047	0.2558	1213.543	0.169758	-403.157825	-403.148692	-403.147748	-403.191735	34.638	
C	 0.0619013332	 1.5310702396	 0.0536930378	-0.404719
C	-0.0076519499	-0.0111449072	 0.0081460494	 0.137991
C	 0.6881480975	-0.5941254347	 1.2576695466	-0.40473
C	-1.4788385951	-0.4596969023	-0.018393248	-0.400218
C	 0.7241081415	-0.4951313439	-1.2268737029	 0.390296
N	 0.1132100881	-1.198470183	-2.1517740737	-0.209674
O	 1.0679891391	-1.4714006443	-3.1298541929	-0.17499
C	 2.230843397	-0.9192812178	-2.7591762506	 0.079621
C	 2.0978584027	-0.2851960502	-1.5700274739	-0.337084
H	 1.0962269612	 1.8881159142	 0.0832782997	 0.110978
H	-0.4230426667	 1.9722057907	-0.8223652884	 0.123742
H	-0.4468346115	 1.9043148392	 0.9486697837	 0.114635
H	 0.1861352554	-0.2438342227	 2.1656260939	 0.11464
H	 0.6555361247	-1.6878094341	 1.2511201447	 0.123735
H	 1.737315146	-0.2874505193	 1.3158623474	 0.110977
H	-1.9989943775	-0.0632190864	-0.8939073936	 0.127053
H	-1.5611980465	-1.5488977099	-0.0522366404	 0.127028
H	-1.9896496657	-0.1006902267	 0.8810126434	 0.10174
H	 3.0571669484	-1.0608999143	-3.4387667002	 0.149969
H	 2.8535298181	 0.2489409831	-1.0193056321	 0.11901
41.5507	152.5724	202.1893	214.0488	266.4057	274.1299	324.5858	334.815	337.7882	436.8826	471.3559	584.4514	614.5373	746.3821	800.8854	827.0023	871.6714	909.0714	934.015	934.5648	948.9276	962.8198	987.4295	1043.2475	1047.8447	1078.9798	1158.5497	1203.3486	1229.6376	1239.9605	1319.2884	1397.2612	1399.0009	1427.0905	1434.808	1474.7543	1475.9268	1482.9757	1484.0048	1499.3006	1502.3775	1521.2218	1605.1451	3030.0211	3033.292	3043.0517	3098.9807	3103.5954	3107.9918	3109.3229	3114.6747	3126.1124	3259.7201	3285.4449
CC(C)(C)C1=NOC=C1	CC(C)(C)c1nocc1	
InChI=1S/C7H11NO/c1-7(2,3)6-4-5-9-8-6/h4-5H,1-3H3	InChI=1S/C7H11NO/c1-7(2,3)6-4-5-9-8-6/h4-5H,1-3H3
