14
gdb 32040	3.01084	1.4408	0.98053	5.1627	69.96	-0.2417	-0.059	0.1827	1123.1333	0.100399	-473.879689	-473.871687	-473.870743	-473.912706	28.426	
C	-0.0676945734	 1.4406905877	 0.0091533403	-0.251743
O	-0.0260549176	 0.0015933195	 0.0051441619	-0.244177
C	-1.1712040566	-0.6559199429	 0.0118962327	 0.535938
C	-1.2072186699	-2.0345411712	 0.0084687065	-0.326595
C	-2.4853260786	-2.6001109296	 0.0165493314	 0.055722
N	-3.6324951987	-1.9485156964	 0.0268543496	-0.347755
C	-3.6398302147	-0.6042957608	 0.0302427771	 0.450677
O	-4.5262219244	 0.184917434	 0.0393980617	-0.311433
O	-2.2618613547	 0.0590643958	 0.0218891728	-0.282008
H	 0.9756186097	 1.7528792604	 0.0018571993	 0.150463
H	-0.5857283351	 1.8133983883	-0.8769750556	 0.157413
H	-0.5718707032	 1.8088120154	 0.9051432546	 0.157405
H	-0.2995816189	-2.6172145225	 0.000151682	 0.123351
H	-2.5719002238	-3.6861184478	 0.0143893557	 0.13274
97.6767	131.7904	147.2728	178.7581	207.7962	379.997	436.9994	441.9773	537.2478	553.9786	669.9543	736.2468	784.0007	791.0617	830.9278	953.1062	1011.5937	1020.716	1074.9234	1115.5593	1174.3884	1210.9299	1358.7708	1393.9007	1427.4934	1486.2773	1489.9354	1497.0889	1567.4508	1658.1929	1929.0519	3060.57	3141.598	3142.0435	3172.8517	3257.9844
COC1=CC=NC(=O)O1	COc1ccnc(=O)o1	
InChI=1S/C5H5NO3/c1-8-4-2-3-6-5(7)9-4/h2-3H,1H3	InChI=1S/C5H5NO3/c1-8-4-2-3-6-5(7)9-4/h2-3H,1H3
