18
gdb 6516	2.94782	1.80646	1.3912	2.0565	75.25	-0.2351	0.056	0.291	964.4054	0.149827	-347.759346	-347.750038	-347.749094	-347.792267	35.107	
C	-0.0738268368	 1.5491857414	-0.0438155513	-0.447251
C	 0.010406965	 0.0390065282	-0.0013263954	 0.373505
O	-1.1582779588	-0.5883980238	-0.4543667995	-0.45091
C	 1.3101683173	-0.6792410668	-0.2499183359	-0.384175
C	 0.6880292463	-0.6930757886	 1.1531695817	 0.076073
C	 1.3788549004	 0.0808906066	 2.2695937236	-0.458245
C	 0.092592377	-1.9264920119	 1.5972272989	 0.320918
C	-0.3683660076	-2.947383651	 2.0349784734	-0.469281
H	 0.8401833455	 2.032220693	 0.307299898	 0.119309
H	-0.2426830356	 1.880449778	-1.0759318832	 0.110644
H	-0.9134920248	 1.9021994636	 0.5626646886	 0.132188
H	-1.2048312093	-0.467594199	-1.4094027796	 0.281402
H	 1.2650486475	-1.6039861035	-0.8129415718	 0.123478
H	 2.2172008203	-0.0972290283	-0.3797905155	 0.110358
H	 1.8919661869	 0.9686290816	 1.8926507099	 0.113156
H	 0.6591881702	 0.3963529006	 3.0312991456	 0.130339
H	 2.1241277232	-0.5553887966	 2.7560103323	 0.131459
H	-0.7943306467	-3.8482649135	 2.4004187704	 0.187034
125.3602	149.3233	175.7177	189.9744	232.422	263.0824	288.3478	373.0584	387.7776	398.3293	460.0445	546.8511	582.146	593.873	638.846	657.6846	715.2448	865.6462	913.2139	932.5253	961.8607	1007.8888	1048.1431	1075.8763	1106.2198	1171.2655	1221.4285	1286.2028	1313.1593	1385.3515	1409.2121	1420.1399	1472.5526	1479.6584	1490.4323	1496.9506	1509.818	2235.6436	3029.5891	3042.6651	3093.0263	3108.6518	3119.6765	3129.2153	3134.6266	3228.3093	3505.6021	3793.9865
CC1(O)CC1(C)C#C	C[C@@]1(O)C[C@]1(C)C#C	
InChI=1S/C7H10O/c1-4-6(2)5-7(6,3)8/h1,8H,5H2,2-3H3	InChI=1S/C7H10O/c1-4-6(2)5-7(6,3)8/h1,8H,5H2,2-3H3/t6-,7+/m0/s1
