16
gdb 28461	3.16312	1.42011	0.98675	1.3148	78.61	-0.2034	-0.0241	0.1792	1156.2773	0.12575	-434.143285	-434.135114	-434.134169	-434.175788	31.337	
C	 0.001170871	 1.4842828814	 0.0653052531	-0.471888
C	 0.0160095611	-0.0160487885	-0.0072643918	 0.29328
C	-0.1385948779	-0.718155987	-1.1890902255	-0.090383
N	-0.1252493283	-2.0623893074	-1.24991885	-0.318221
C	 0.0568161509	-2.7222719128	-0.1199539342	 0.300386
N	 0.1436263678	-4.0965209003	-0.1301517574	-0.567366
C	 0.2066188731	-2.0011717001	 1.095992231	 0.368436
O	 0.3643054762	-2.7220282611	 2.2337912906	-0.432309
N	 0.1853850809	-0.6966309155	 1.152766173	-0.390967
H	 0.9456942192	 1.8659778687	 0.4681946469	 0.133709
H	-0.1537988895	 1.9247850152	-0.9228324909	 0.122205
H	-0.7956516806	 1.8364039212	 0.729382226	 0.132766
H	-0.2853574226	-0.1957197309	-2.1299901899	 0.100775
H	-0.2327918595	-4.532914251	-0.9582190218	 0.256448
H	-0.0654566086	-4.5608547341	 0.7394510674	 0.264481
H	 0.4347224368	-2.0800660378	 2.9540349435	 0.298646
101.8334	130.5623	230.7951	292.054	298.6745	373.4079	411.6167	449.3064	495.5849	516.4491	521.3382	561.4275	593.5032	636.6867	720.1334	807.148	817.5221	911.245	993.5963	1023.0833	1060.4339	1084.5169	1173.6731	1256.9388	1309.2058	1344.5619	1370.4697	1413.1981	1468.0076	1475.4098	1495.0554	1523.0643	1595.1413	1630.1366	1656.6317	3033.5828	3088.3851	3120.8551	3167.8024	3579.584	3699.9273	3765.4305
CC1=CN=C(N)C(O)=N1	Cc1cnc(N)c(O)n1	
InChI=1S/C5H7N3O/c1-3-2-7-4(6)5(9)8-3/h2H,1H3,(H2,6,7)(H,8,9)	InChI=1S/C5H7N3O/c1-3-2-7-4(6)5(9)8-3/h2H,1H3,(H2,6,7)(H,8,9)
