20
gdb 116788	3.66533	0.68644	0.61403	3.8775	80.08	-0.2498	0.0153	0.2651	1834.4293	0.167944	-440.255417	-440.244964	-440.24402	-440.292919	35.678	
C	 0.2968281831	 1.3956471289	-0.6855741	-0.249879
O	 0.6281164453	 0.1181880027	-0.1540224307	-0.191048
C	 0.620991874	-0.8990700727	-1.0355671684	 0.135863
N	 0.9145118773	-2.0665436134	-0.6709248221	-0.216031
C	 0.8821261245	-3.1112252247	-1.6769495626	-0.19794
C	 2.2122925882	-3.8375338127	-1.6984559672	 0.070552
O	 2.4122713456	-4.7879084828	-2.7467900371	-0.267128
C	 3.2677768823	-3.6361879341	-2.7046799246	 0.090914
C	 3.1977689759	-2.6757521251	-3.863828554	-0.419992
H	 1.0244319547	 1.7181788711	-1.4402868202	 0.127771
H	-0.7074393315	 1.3998790595	-1.126379872	 0.128553
H	 0.3207702245	 2.0922313315	 0.1530408481	 0.148624
H	 0.3371873487	-0.6128977487	-2.0613172494	 0.072863
H	 0.1119082731	-3.8424284663	-1.3961126493	 0.118139
H	 0.6242818485	-2.7455731709	-2.6827138258	 0.088696
H	 2.5242068442	-4.180134563	-0.7103649448	 0.097742
H	 4.2853190266	-3.8705223842	-2.3835964546	 0.08794
H	 2.1677684832	-2.4629447176	-4.1568392509	 0.122658
H	 3.6932851162	-1.7329749405	-3.6072295703	 0.121131
H	 3.7125609456	-3.0977724371	-4.7333784541	 0.13057
35.8146	40.4108	68.0732	137.2334	160.9067	182.4707	225.1308	275.5008	320.0111	371.3372	409.6937	456.8631	526.067	621.6347	779.3674	810.9944	960.3323	967.6502	992.8383	1010.608	1034.5451	1071.902	1106.0568	1126.5082	1173.223	1176.8735	1178.7036	1181.8639	1240.4556	1279.1193	1297.1238	1347.8188	1396.6718	1412.8548	1421.4387	1469.7818	1483.0703	1485.6982	1494.8575	1500.6111	1503.0025	1514.5265	1777.0217	2980.5756	2986.7462	3015.9935	3031.2449	3039.281	3077.8721	3078.9855	3098.8826	3101.7857	3134.2831	3146.5877
COC=NCC1OC1C	COC=NC[C@H]1O[C@H]1C	
InChI=1S/C6H11NO2/c1-5-6(9-5)3-7-4-8-2/h4-6H,3H2,1-2H3	InChI=1S/C6H11NO2/c1-5-6(9-5)3-7-4-8-2/h4-6H,3H2,1-2H3/t5-,6+/m0/s1
