19
gdb 84744	2.37582	1.52571	1.19384	1.4913	77.2	-0.2341	-0.0205	0.2137	1114.9611	0.158859	-423.055864	-423.047004	-423.04606	-423.089335	33.533	
C	-0.0598240444	 1.5777444236	 0.0327463932	-0.405825
C	 0.0413248282	 0.0452305549	-0.0181214963	-0.043718
C	 0.7054946371	-0.4401641543	-1.2871602215	-0.036734
C	 1.5176310541	-1.4924564815	-1.3575022388	-0.071854
C	 1.8832613397	-2.34406217	-0.1677591573	-0.346307
C	 1.026601447	-2.0141846108	 1.044790853	 0.361764
O	 0.6073070863	-2.8479647902	 1.8123454778	-0.319552
C	 0.7506754016	-0.5183692245	 1.2263938495	 0.004866
O	 1.9985635748	 0.1599211044	 1.3758896327	-0.430375
H	 0.93323122	 2.0314457451	 0.0394421151	 0.141477
H	-0.608476002	 1.9514427818	-0.8374510258	 0.112366
H	-0.5909771576	 1.9046405696	 0.9323673731	 0.112145
H	-0.9835896261	-0.3564241308	 0.0059866201	 0.098417
H	 0.4790768891	 0.1220534766	-2.1902241098	 0.088046
H	 1.9526791309	-1.7810578466	-2.3107461245	 0.094063
H	 1.785335722	-3.413597259	-0.3796399966	 0.128057
H	 2.9357614067	-2.1718270941	 0.1014677743	 0.137791
H	 0.1184536182	-0.3879163832	 2.1142470111	 0.081198
H	 2.3611493542	-0.0781876511	 2.2352020008	 0.294174
79.3049	92.7791	215.2936	224.2123	265.9567	281.361	324.8235	360.8095	429.6604	476.3561	522.9649	602.5774	618.8427	697.2933	757.3188	817.6987	920.1032	924.0058	965.2253	976.8032	995.2687	999.7432	1070.1213	1105.8262	1127.5095	1170.4648	1201.9149	1235.0306	1248.3974	1284.6951	1325.2262	1334.1639	1359.8332	1393.8647	1400.9782	1425.5103	1440.8313	1492.6337	1502.9255	1725.0025	1822.7422	2984.2917	3009.8929	3025.4315	3040.9509	3078.551	3104.7165	3135.8833	3145.4208	3169.3065	3820.4413
CC1C=CCC(=O)C1O	C[C@H]1C=CCC(=O)[C@H]1O	
InChI=1S/C7H10O2/c1-5-3-2-4-6(8)7(5)9/h2-3,5,7,9H,4H2,1H3	InChI=1S/C7H10O2/c1-5-3-2-4-6(8)7(5)9/h2-3,5,7,9H,4H2,1H3/t5-,7-/m0/s1
