16
gdb 130405	3.03603	1.33527	0.95128	5.8435	67.96	-0.1925	0.0273	0.2198	1175.832	0.126044	-471.209154	-471.200398	-471.199454	-471.242409	32.363	
N	 0.1024575675	 0.6939416323	 0.392077567	-0.515594
H	-0.7568425881	-1.0011979456	 1.216251539	 0.29536
H	 1.0662474498	 1.0076813724	 0.4391605544	 0.242812
H	-0.1212825923	 0.5600355994	-0.5898013933	 0.246777
C	-0.7995449352	 1.7067872227	 0.9768894784	-0.285669
C	-2.1476085395	 1.0884682846	 1.1569509452	 0.258959
C	-2.4567801774	-0.2360260821	 1.3907205865	 0.094928
O	-1.6353626639	-1.3168046978	 1.4985223271	-0.469527
C	-3.8667406123	-0.2712614047	 1.4985441998	 0.349338
O	-4.6395294019	-1.3588695453	 1.7251926841	-0.428406
N	-4.4064255769	 0.9271508389	 1.3493355752	-0.296524
N	-3.3442918647	 1.7424969325	 1.1340449588	-0.299946
H	-0.3699918227	 1.996786834	 1.9454455769	 0.130426
H	-0.8742151898	 2.6304972614	 0.3800988777	 0.102163
H	-4.0481677077	-2.1173814634	 1.7903229423	 0.308019
H	-3.5111268947	 2.723301391	 1.000494271	 0.266885
88.9234	153.9051	190.4257	211.6802	264.9548	288.6446	322.2542	336.3806	416.8408	427.08	538.061	617.9057	644.3695	670.1944	724.4884	742.6501	815.5701	888.2674	993.1383	1026.7765	1065.8451	1155.7259	1175.1861	1228.4436	1268.3972	1296.4261	1338.9917	1381.6846	1418.8967	1478.8268	1502.5072	1555.629	1604.7331	1647.8802	1673.053	2966.4591	3021.2953	3497.3544	3580.7651	3594.8616	3695.3307	3816.2651
[NH3+]CC1=C([O-])C(O)=NN1	NCc1c(O)c(O)n[nH]1	
InChI=1S/C4H7N3O2/c5-1-2-3(8)4(9)7-6-2/h8H,1,5H2,(H2,6,7,9)	InChI=1S/C4H7N3O2/c5-1-2-3(8)4(9)7-6-2/h8H,1,5H2,(H2,6,7,9)
