16
gdb 47620	2.84263	1.39867	0.96859	6.7877	78.4	-0.2623	-0.0803	0.182	1167.6736	0.125662	-400.80657	-400.798703	-400.797759	-400.839239	29.292	
O	 0.0335869986	-0.0352447892	 0.1333441954	-0.294388
C	-0.0128747605	 1.1671173045	 0.0169709499	 0.334264
C	-1.319420431	 1.9424555248	-0.0624017019	-0.309009
C	-1.2070499983	 3.1907263087	-0.9452005116	-0.230962
C	-0.0656909554	 4.0969016629	-0.4681332352	-0.256862
C	 1.1963464634	 3.3333170908	-0.2100645943	-0.111495
C	 1.2342050224	 2.0000106793	-0.0123346722	 0.048685
C	 2.4792402031	 1.3255764285	 0.1989259968	 0.240598
N	 3.4951479998	 0.7987446358	 0.3688825646	-0.325828
H	-2.0964962781	 1.2555982785	-0.4054678747	 0.135271
H	-1.5805034113	 2.2348925846	 0.9653576584	 0.13239
H	-1.0109939176	 2.8861294421	-1.9801810767	 0.121865
H	-2.1524008104	 3.7409441918	-0.950258536	 0.114716
H	 0.1359977403	 4.8925983988	-1.1942616908	 0.129009
H	-0.348957283	 4.6168387334	 0.4608775734	 0.137016
H	 2.1268163579	 3.8946019449	-0.180757165	 0.134732
78.6684	152.4954	161.7495	258.3768	305.8296	361.9903	438.9672	453.4618	519.5513	586.9839	598.7443	688.4023	727.4493	835.3476	876.5991	881.1305	939.4201	986.2984	1071.2884	1083.6498	1102.1862	1151.9514	1183.309	1266.2046	1267.9404	1347.9551	1368.5	1375.2164	1380.023	1455.836	1465.9322	1497.0808	1664.4867	1796.8162	2350.0488	2994.0353	3013.8637	3040.3681	3061.8113	3090.1201	3109.2459	3170.0679
O=C1CCCC=C1C#N	O=C1CCCC=C1C#N	
InChI=1S/C7H7NO/c8-5-6-3-1-2-4-7(6)9/h3H,1-2,4H2	InChI=1S/C7H7NO/c8-5-6-3-1-2-4-7(6)9/h3H,1-2,4H2
