20
gdb 13941	3.24005	1.74733	1.45207	1.4057	74.46	-0.2476	0.0747	0.3223	957.1791	0.177704	-348.982972	-348.975099	-348.974154	-349.014994	30.704	
O	 0.7696678998	 0.8525464217	-0.4455205756	-0.431151
C	 0.2295947822	-0.2442558149	 0.2470069198	 0.088261
C	-0.2020348309	-0.1100081307	 1.7303906167	-0.264115
C	-1.3654595167	-1.0896209104	 1.4161733797	-0.289119
C	-1.1957447939	-0.7545947686	-0.0907810652	 0.347144
C	-2.233414955	 0.2313651004	-0.7029091039	-0.286795
C	-2.8420174874	-0.9578056863	-1.4946879197	-0.205896
C	-1.5485465545	-1.76635661	-1.2049004238	-0.303075
H	 0.1818178531	 1.6038010452	-0.3126517421	 0.27859
H	 0.9576556979	-1.0543632632	 0.1259762634	 0.087854
H	 0.5181534122	-0.380040646	 2.5059057255	 0.099812
H	-0.5750994169	 0.8996637454	 1.9362720378	 0.093154
H	-1.0943513792	-2.1276145803	 1.6329555881	 0.100914
H	-2.337715697	-0.8814607154	 1.8697063876	 0.098277
H	-2.8878424069	 0.7734972383	-0.0139415933	 0.092679
H	-1.750209725	 0.9518175754	-1.3719968423	 0.095973
H	-3.7124652474	-1.3824830799	-0.9874991759	 0.102836
H	-3.1040435425	-0.7800229156	-2.5401753272	 0.097033
H	-0.8347218571	-1.7120614931	-2.0336356031	 0.105426
H	-1.6591069447	-2.8134417321	-0.9084314966	 0.0922
105.5176	121.1438	200.3176	245.769	309.9755	337.3838	399.8538	489.5779	562.363	650.7952	710.2233	768.4226	804.2325	863.8275	878.1867	891.8803	937.7275	940.7895	965.6097	969.238	1037.2051	1075.7536	1118.1109	1151.0984	1165.4609	1187.1238	1202.4483	1233.0091	1238.6896	1247.5936	1258.1048	1270.2844	1281.0474	1299.7628	1304.8601	1320.3922	1432.6851	1469.7267	1478.3993	1482.588	1495.8987	1503.9042	3035.3714	3041.1969	3043.8175	3049.2886	3053.319	3060.5025	3085.9459	3092.2236	3098.9595	3111.8627	3116.0239	3807.6782
OC1CCC11CCC1	O[C@H]1CCC21CCC2	
InChI=1S/C7H12O/c8-6-2-5-7(6)3-1-4-7/h6,8H,1-5H2	InChI=1S/C7H12O/c8-6-2-5-7(6)3-1-4-7/h6,8H,1-5H2/t6-/m0/s1
