19
gdb 14470	2.85013	2.30365	1.90939	1.88	74.93	-0.2267	0.0831	0.3098	835.8198	0.165596	-327.874947	-327.867423	-327.866479	-327.906089	29.626	
C	-0.1578927438	 1.5366682685	-0.0537633371	-0.532063
C	 0.0639969706	 0.0635431036	-0.0102114073	 0.312667
C	 0.4106952939	-0.9663196621	-1.0176594419	-0.083468
C	 1.4290629901	-1.6321045005	-0.0993109242	-0.281581
C	 0.6598871603	-0.9525484425	 1.0702939029	 0.256922
C	 1.3280411155	-0.6423016271	 2.3828601465	-0.509103
C	-0.7141966418	-1.6384491017	 0.9646466214	-0.184103
N	-0.9500629864	-0.9741393662	-0.3565140367	-0.188451
H	 0.7911404953	 2.0840971073	-0.0357734222	 0.120984
H	-0.6906717298	 1.8058991548	-0.9712417587	 0.135984
H	-0.7596232887	 1.878677627	 0.7961197332	 0.123204
H	 0.4083362624	-0.8969726481	-2.0980312727	 0.092524
H	 1.5043842689	-2.7257015189	-0.0854599018	 0.090229
H	 2.4223270836	-1.1958644021	-0.2403986159	 0.099698
H	 2.2364703921	-0.0463866657	 2.2417054142	 0.117508
H	 0.6614413551	-0.0847007231	 3.0502977797	 0.11781
H	 1.6166214903	-1.5655968575	 2.8997879425	 0.121793
H	-0.7476907393	-2.7353512335	 0.9557038321	 0.08943
H	-1.4480198181	-1.2546155322	 1.6798103559	 0.100017
179.4419	188.9772	200.9225	220.3544	308.893	343.015	452.1789	482.758	603.7477	627.1782	708.582	743.6372	827.0908	841.8316	914.2685	927.0862	957.5582	969.5537	993.9771	1032.3646	1071.3502	1095.4504	1116.1429	1145.8336	1159.3278	1176.3894	1213.916	1244.2384	1256.7608	1274.6686	1351.6118	1398.3402	1414.4002	1444.3068	1479.6557	1488.751	1490.7462	1492.712	1495.6538	1515.6549	3018.5826	3021.1322	3025.3133	3034.0363	3083.4045	3084.7104	3085.8317	3090.4046	3093.9464	3104.8635	3196.6136
CC12C3CC1(C)CN23	C[C@@]12[C@H]3C[C@]1(C)CN23	
InChI=1S/C7H11N/c1-6-3-5-7(6,2)8(5)4-6/h5H,3-4H2,1-2H3	InChI=1S/C7H11N/c1-6-3-5-7(6,2)8(5)4-6/h5H,3-4H2,1-2H3/t5-,6-,7-,8?/m1/s1
