16
gdb 44179	4.89503	1.05278	0.94559	3.0992	76.21	-0.2455	-0.01	0.2355	1206.3106	0.123866	-400.701367	-400.693553	-400.692609	-400.733959	29.709	
O	-0.1841155437	 0.0690333734	 0.6117771276	-0.311028
C	-0.1479430751	 1.1885287105	 0.195692906	 0.381273
C	-1.1821619554	 2.30361506	-0.0998026074	-0.388507
C	 0.0499453973	 3.2319153667	-0.136912365	 0.008734
C	 0.6555053597	 3.7396490797	 1.2217226965	-0.208336
C	 1.7094617372	 2.5794538266	 1.085362839	-0.200585
N	 0.960860809	 2.0366684992	-0.0886357076	-0.132422
C	 1.1497830799	 5.0976070508	 1.2703075686	 0.289308
C	 1.5770155582	 6.221497965	 1.282979575	-0.414903
H	-1.710187635	 2.2048111377	-1.0515288157	 0.142016
H	-1.9101067379	 2.4592897685	 0.6991489511	 0.140074
H	 0.1664575052	 3.9106190159	-0.9819697653	 0.102627
H	-0.0320253703	 3.555051511	 2.0542066029	 0.117546
H	 2.702762364	 2.9309611373	 0.8014511833	 0.133475
H	 1.7847542093	 1.8800768498	 1.9206028517	 0.138198
H	 1.9494785775	 7.2158778781	 1.3038207292	 0.20253
73.7766	125.3087	171.8168	250.0254	319.2214	451.5014	472.2868	505.6339	533.9858	624.5659	641.7288	645.1324	745.5673	777.3956	838.7206	897.4367	949.7165	960.3159	1011.0624	1031.5701	1064.7662	1068.7525	1102.2949	1137.3906	1189.8877	1210.152	1223.8623	1239.8587	1290.7671	1297.1901	1362.1469	1443.2351	1499.9755	1893.1837	2236.7937	3048.2848	3074.2823	3074.8155	3113.6313	3133.3924	3136.7531	3502.8019
O=C1CC2C(CN12)C#C	O=C1C[C@H]2[C@@H](CN12)C#C	
InChI=1S/C7H7NO/c1-2-5-4-8-6(5)3-7(8)9/h1,5-6H,3-4H2	InChI=1S/C7H7NO/c1-2-5-4-8-6(5)3-7(8)9/h1,5-6H,3-4H2/t5-,6+/m1/s1
