19
gdb 95879	2.22277	1.56836	1.15744	1.95	71.43	-0.2424	-0.0375	0.2049	1130.4003	0.158438	-460.173545	-460.164849	-460.163904	-460.207064	32.364	
C	-0.1285978525	 1.4750598959	-0.0432076065	-0.403313
C	-0.0199945602	-0.0374060803	-0.1217635846	 0.128004
C	 0.8585218308	-0.537334178	-1.2725690272	-0.202945
C	 1.0687534892	-2.0433110831	-1.1261972797	-0.106344
O	 1.6011619669	-2.3477055229	 0.1643516674	-0.25693
C	 0.8004740067	-1.8364253934	 1.2081866783	 0.097508
O	 0.55163979	-0.4720902423	 1.1275094019	-0.255326
C	-0.4681803512	-2.7035943222	 1.3426799537	 0.12848
O	-1.5908385787	-2.2870820213	 1.4397408181	-0.234057
H	 0.8617922088	 1.9256421497	 0.0736735857	 0.124162
H	-0.5878208389	 1.8711739472	-0.9540793552	 0.115495
H	-0.7436613005	 1.7669063119	 0.8119341064	 0.131966
H	-1.0235248295	-0.4730289653	-0.2165404051	 0.096675
H	 0.3875514892	-0.3118605703	-2.2357283076	 0.102127
H	 1.8287436237	-0.0287991657	-1.2376183401	 0.111067
H	 0.1167363288	-2.5766097616	-1.2837583147	 0.09999
H	 1.7932130344	-2.4304404216	-1.8464559825	 0.118213
H	 1.3852014836	-1.9912100666	 2.1254365691	 0.114129
H	-0.2354648505	-3.79331038	 1.3596573424	 0.0911
72.7083	125.5447	156.4462	222.2547	250.6597	286.7751	308.825	402.2566	445.3826	483.2469	508.4993	651.9837	724.4499	798.2968	834.1181	876.505	887.4706	961.2152	981.0774	1001.456	1046.2731	1080.4355	1104.0512	1164.4007	1183.0861	1196.7691	1241.4354	1280.5984	1336.5846	1344.8779	1367.2744	1373.0821	1401.0231	1404.3697	1412.982	1416.1126	1467.0701	1483.1779	1500.4519	1507.4416	1843.3313	2873.4099	2973.2213	3024.7537	3026.4063	3038.4955	3044.1103	3089.2055	3100.5164	3117.2447	3124.7757
CC1CCOC(O1)C=O	C[C@H]1CCO[C@@H](O1)C=O	
InChI=1S/C6H10O3/c1-5-2-3-8-6(4-7)9-5/h4-6H,2-3H2,1H3	InChI=1S/C6H10O3/c1-5-2-3-8-6(4-7)9-5/h4-6H,2-3H2,1H3/t5-,6-/m0/s1
