15
gdb 18312	3.69978	2.1445	1.46242	3.1812	68.15	-0.2244	-0.0191	0.2053	830.2836	0.120098	-362.635814	-362.629301	-362.628356	-362.666561	25.058	
O	-0.1002333976	-0.0052766514	 0.0586632255	-0.286074
C	-0.0491212244	 1.189573252	 0.0168859263	 0.377839
C	-1.2650607568	 2.172979664	 0.0622292578	-0.357067
C	-0.6535940191	 3.4194636144	 0.6765685222	-0.206536
C	 0.6684886768	 3.3865015805	 0.5209647269	 0.241035
C	 1.9863236296	 3.6184345611	 1.2244495845	-0.248897
N	 2.2593236965	 2.1483267717	 1.0023875065	-0.329946
C	 1.1936922049	 2.1100075148	-0.049926811	-0.114262
H	-1.6484113192	 2.3085645928	-0.9587733415	 0.133666
H	-2.0840485591	 1.7492486012	 0.6519942593	 0.134864
H	-1.2215692722	 4.1171322299	 1.280801175	 0.106559
H	 2.6791156109	 4.2743781534	 0.6797307903	 0.107516
H	 1.9522531077	 3.923555289	 2.2746656192	 0.123497
H	 3.1892406458	 1.9612356533	 0.639705405	 0.224127
H	 1.5753756063	 2.1332554932	-1.0815575959	 0.093681
94.4142	214.3623	269.0841	319.3756	434.0282	535.1861	613.3669	642.1794	719.4399	774.1892	798.4731	811.3665	918.4093	940.5012	963.6549	992.0125	992.6336	1022.7113	1087.5428	1111.2736	1131.3028	1158.162	1201.9939	1251.5803	1257.6442	1312.4484	1329.0153	1372.3461	1454.9923	1502.9857	1729.6565	1869.6146	2990.7009	3008.1456	3016.3452	3079.4672	3084.6233	3198.6379	3513.034
O=C1CC=C2CNC12	O=C1C[CH][C]2CN[C@@H]12	
InChI=1S/C6H7NO/c8-5-2-1-4-3-7-6(4)5/h1,6-7H,2-3H2	InChI=1S/C6H7NO/c8-5-2-1-4-3-7-6(4)5/h1,6-7H,2-3H2/t6-/m1/s1
