17
gdb 123434	5.15614	0.98982	0.86207	3.141	73.11	-0.2572	0.011	0.2681	1302.9744	0.139801	-414.186744	-414.179143	-414.178199	-414.219693	28.066	
C	 0.204978941	 1.1593332217	 0.7812587147	-0.351079
C	-0.0497120878	-0.0732215374	-0.0564712262	 0.01426
C	-1.4133166232	-0.4996688115	-0.4372324678	-0.250235
N	-0.5098249999	 0.0751527281	-1.4563659603	-0.327895
C	 1.4697969862	 1.8606357129	 0.3836122869	 0.380022
N	 2.1613160834	 2.7263077814	 1.1059216155	-0.324909
C	 3.1881504846	 3.0646493049	 0.2773846442	 0.021612
N	 3.1839278475	 2.4684036319	-0.9029640439	-0.215103
N	 2.0712217821	 1.7002473098	-0.8170689724	-0.231201
H	-0.6423575	 1.852647033	 0.688708826	 0.1251
H	 0.276007739	 0.9036496265	 1.8436419091	 0.146251
H	 0.7049161869	-0.8504246494	 0.0499414524	 0.109813
H	-1.6352913058	-1.5547473182	-0.5642681633	 0.129815
H	-2.2520242927	 0.1026327275	-0.0983525776	 0.12101
H	-0.7844618501	 1.0424971094	-1.6201332121	 0.234043
H	 3.9610239893	 3.7661724571	 0.5539976226	 0.12536
H	 1.7989177596	 1.1006160524	-1.5814570977	 0.293136
64.5746	100.8258	138.3035	271.5744	312.7328	354.1224	463.7528	623.6875	700.6072	717.3716	742.8928	789.6633	836.2973	912.0349	930.1755	945.3031	983.4731	990.6891	1047.0823	1053.9804	1128.9226	1130.6187	1149.207	1182.6281	1207.741	1258.5048	1267.9329	1287.3956	1306.7623	1310.5128	1314.8427	1424.6423	1438.4589	1465.4045	1495.7456	1513.4743	1586.9084	3019.0688	3078.8126	3115.1316	3128.0847	3202.1716	3260.7446	3475.5626	3637.2292
C(C1CN1)C1=NC=NN1	C([C@H]1CN1)c1ncn[nH]1	
InChI=1S/C5H8N4/c1(4-2-6-4)5-7-3-8-9-5/h3-4,6H,1-2H2,(H,7,8,9)	InChI=1S/C5H8N4/c1(4-2-6-4)5-7-3-8-9-5/h3-4,6H,1-2H2,(H,7,8,9)/t4-/m0/s1
