20
gdb 96882	4.99541	0.82251	0.74548	2.5486	83.94	-0.2433	0.0362	0.2795	1569.2259	0.170381	-403.134516	-403.125294	-403.12435	-403.169524	33.362	
C	 0.3788586062	 1.4130119914	 0.0666923507	-0.338263
N	 0.4282388326	-0.042247369	 0.1011688225	-0.326796
C	 0.4747434537	-0.6739659463	-0.9766114868	 0.461823
C	 0.5246895721	-2.1361713534	-1.3563834685	-0.409107
C	 0.5086772668	-1.599008455	-2.8076853351	 0.125033
O	 0.4880087349	-0.2210045086	-2.2884835676	-0.279608
C	 1.6899826288	-1.8651618059	-3.6830747821	 0.015792
C	 1.6152427026	-2.9772800794	-4.7043241728	-0.272131
C	 1.62485428	-1.5411068113	-5.1546501415	-0.265894
H	 1.2416413425	 1.8141701951	 0.6103013552	 0.124652
H	 0.3721826364	 1.8384947554	-0.9436828496	 0.124578
H	-0.517267841	 1.7535886398	 0.5973465346	 0.124537
H	 1.4413643107	-2.6531007903	-1.0647101271	 0.132157
H	-0.3391197149	-2.7269334394	-1.0476061765	 0.132868
H	-0.4257594695	-1.7929118387	-3.3460324984	 0.084427
H	 2.6482595898	-1.7159097516	-3.1928947357	 0.090207
H	 2.5024378998	-3.5790851873	-4.8635305138	 0.119267
H	 0.6849397763	-3.5299724405	-4.7866885723	 0.116018
H	 0.7008565523	-1.1214602622	-5.5381397461	 0.120385
H	 2.5192138001	-1.1524999327	-5.6276602991	 0.120056
64.3098	68.9341	77.1907	163.1701	217.4633	233.7191	288.3667	361.0462	450.4251	531.0101	564.2363	728.3753	766.3573	805.9358	833.0243	909.4005	923.8005	947.8771	957.2975	978.9776	1026.8895	1062.0711	1071.1911	1082.181	1103.8358	1119.1776	1133.9847	1135.4333	1185.7535	1196.8412	1221.8323	1233.241	1245.8204	1298.628	1325.3278	1437.9613	1444.0207	1469.0772	1471.0726	1495.0974	1497.4523	1507.0437	1847.8183	3015.6023	3046.444	3079.6216	3081.9153	3085.2388	3133.9828	3136.0988	3138.6799	3146.7232	3213.4115	3228.2982
CN=C1CC(O1)C1CC1	CN=C1C[C@@H](O1)C1CC1	
InChI=1S/C7H11NO/c1-8-7-4-6(9-7)5-2-3-5/h5-6H,2-4H2,1H3	InChI=1S/C7H11NO/c1-8-7-4-6(9-7)5-2-3-5/h5-6H,2-4H2,1H3/t6-/m1/s1
