19
gdb 100561	2.45685	1.1566	1.05221	2.6409	72.57	-0.2401	-0.0328	0.2073	1260.886	0.155826	-460.139005	-460.129021	-460.128077	-460.174427	34.989	
C	 0.6281664084	 0.2082832542	-0.8490570309	-0.243519
O	-0.0223301337	 0.2287824793	 0.4046958453	-0.227429
C	 0.5794898063	-0.5682694182	 1.3907884404	 0.041404
C	-0.104782155	-0.2465917724	 2.7237655124	-0.415471
C	 0.4258631564	-2.069467399	 1.0930231689	 0.329244
O	-0.4024804296	-2.5021727744	 0.326675025	-0.310442
C	 1.3417716554	-3.028521162	 1.8089019018	-0.015774
C	 2.8099853083	-2.9120405834	 1.6788032114	-0.173294
O	 2.1518590781	-2.536090228	 2.8795101549	-0.215194
H	 0.5748850517	-0.7786026527	-1.3247507174	 0.125594
H	 0.1145853748	 0.9335260708	-1.4842094836	 0.131052
H	 1.6850566212	 0.5068982083	-0.7577834684	 0.095702
H	 1.6541531787	-0.3332716728	 1.4764367213	 0.077161
H	-0.0159853115	 0.824637527	 2.919595102	 0.131887
H	-1.1664587832	-0.5022436476	 2.6677641614	 0.137951
H	 0.3617332556	-0.7990878133	 3.5414342652	 0.144108
H	 0.9165920524	-4.0204824821	 1.9531238034	 0.124482
H	 3.4100770317	-3.8185432717	 1.7311728767	 0.135101
H	 3.2388566341	-2.0961504021	 1.0994802803	 0.127437
57.2641	89.915	119.5255	167.8086	189.6533	207.5807	216.6939	277.6447	303.5519	332.1404	472.0679	487.303	574.0329	721.8791	766.0199	875.8112	878.3351	903.0033	946.4266	1026.4682	1067.5343	1095.1317	1126.2275	1149.4193	1160.5287	1168.3957	1178.9996	1206.6781	1246.6389	1263.6244	1311.7562	1373.7612	1387.7087	1399.3461	1478.2627	1487.2889	1490.8489	1499.5345	1511.6735	1522.3611	1807.1848	2959.8617	2977.2819	3053.9195	3056.0262	3090.8737	3120.7615	3129.7433	3134.4722	3147.9702	3182.6034
COC(C)C(=O)C1CO1	CO[C@@H](C)C(=O)[C@H]1CO1	
InChI=1S/C6H10O3/c1-4(8-2)6(7)5-3-9-5/h4-5H,3H2,1-2H3	InChI=1S/C6H10O3/c1-4(8-2)6(7)5-3-9-5/h4-5H,3H2,1-2H3/t4-,5+/m0/s1
