18
gdb 108269	2.36311	1.79001	1.43998	2.6706	72.	-0.2434	-0.0009	0.2425	990.8988	0.147947	-439.041378	-439.033351	-439.032407	-439.07385	30.451	
C	-0.260389441	 1.2302820837	-0.0543829533	-0.255766
O	 0.2278177285	-0.0993827339	-0.1176863543	-0.295131
C	 0.8153119887	-0.6153067164	 1.0516965748	 0.301951
C	 2.0510345901	 0.1817067323	 1.5939262068	-0.176133
O	 1.2251618138	 0.6962142746	 2.7230788224	-0.27553
C	 0.2704482644	-0.2311945656	 2.3969898516	 0.372797
N	-0.529297028	-0.9708736622	 3.029906343	-0.32265
C	-0.7350340585	-2.1098746048	 2.0707904963	-0.162052
C	 0.5287427741	-2.119152358	 1.1278850301	-0.295472
H	 0.5325541487	 1.9636064306	 0.1434595721	 0.116757
H	-0.6961077821	 1.4435797761	-1.0325454955	 0.133431
H	-1.0349563083	 1.3393193236	 0.7164792187	 0.128305
H	 2.8754191617	-0.4174434343	 1.9863623002	 0.131919
H	 2.4116584393	 0.9994524258	 0.9688839109	 0.129228
H	-0.8172964097	-3.0313238564	 2.651697591	 0.119009
H	-1.6663066633	-1.9879338739	 1.5058262851	 0.119632
H	 0.3484352685	-2.5610403674	 0.1462868205	 0.117661
H	 1.3421890131	-2.6584591238	 1.6219626994	 0.112044
102.9195	146.7438	185.4787	222.4952	272.7375	338.6577	346.9372	433.3605	531.4938	646.7058	675.2687	716.4755	773.5195	836.9862	877.4727	884.143	916.5623	959.4975	977.2922	1022.6943	1092.5907	1133.7433	1138.8142	1178.1313	1185.4849	1196.9237	1216.8586	1236.3173	1259.2441	1297.7155	1320.2679	1357.4862	1468.2746	1478.2779	1482.7623	1497.7684	1498.9229	1507.8992	1768.7732	3002.6	3045.3055	3058.2911	3065.2117	3075.4883	3104.5617	3126.2337	3130.4279	3149.574
COC12COC1=NCC2	CO[C@@]12CO[C]1[N]CC2	
InChI=1S/C6H9NO2/c1-8-6-2-3-7-5(6)9-4-6/h2-4H2,1H3	InChI=1S/C6H9NO2/c1-8-6-2-3-7-5(6)9-4-6/h2-4H2,1H3/t6-/m0/s1
