17
gdb 55965	3.22236	1.14997	0.90232	5.1018	70.86	-0.248	0.01	0.258	1277.5423	0.135199	-455.16724	-455.158188	-455.157243	-455.201796	32.091	
C	 0.027661687	 1.3901589679	-0.2807329476	-0.441217
C	-0.0093453271	-0.1047637376	-0.4128542999	 0.397887
N	 0.8664829445	-0.7606928183	-1.0417143169	-0.511183
O	-1.1257741393	-0.5916465607	 0.2388574334	-0.255662
C	-1.1634146617	-1.9644670437	 0.5396375704	-0.044605
C	-2.5125077232	-2.399019043	 1.1729261678	-0.189734
N	-2.6543029783	-3.3394579528	 0.0557313336	-0.328312
C	-1.5082102203	-2.9788963527	-0.5996038891	 0.424683
O	-0.9832039668	-3.3376472044	-1.6201693271	-0.353564
H	 0.8817324602	 1.7825229497	-0.8304794154	 0.149828
H	-0.8961651686	 1.8244820628	-0.6760052233	 0.139672
H	 0.0969946574	 1.6812246567	 0.772174308	 0.134381
H	 0.6636959946	-1.7581935604	-1.1141137354	 0.244573
H	-0.2734584287	-2.2648272663	 1.1051404774	 0.117355
H	-2.4437077649	-2.8708035556	 2.1570003716	 0.12319
H	-3.2547599492	-1.5967727556	 1.1850864123	 0.13298
H	-3.3526656358	-4.0365921661	-0.1545927496	 0.259728
64.185	87.4018	122.7168	150.9736	191.8322	225.5159	321.3823	371.4262	493.7575	508.5748	552.6112	596.9343	726.7172	764.6216	831.1107	905.2155	911.4931	936.6051	991.4524	1017.0668	1075.4612	1087.2953	1120.6514	1154.5716	1173.6211	1186.2082	1218.0177	1295.4734	1313.022	1370.2952	1401.0157	1411.8381	1474.484	1477.992	1523.1651	1753.9	1890.6744	3046.1416	3049.1656	3057.4179	3106.18	3111.9052	3170.4017	3486.6202	3618.5721
CC(=N)OC1CNC1=O	C[C]([NH])O[C@H]1CNC1=O	
InChI=1S/C5H8N2O2/c1-3(6)9-4-2-7-5(4)8/h4,6H,2H2,1H3,(H,7,8)	InChI=1S/C5H8N2O2/c1-3(6)9-4-2-7-5(4)8/h4,6H,2H2,1H3,(H,7,8)/t4-/m0/s1
