14
gdb 128257	7.06411	0.91094	0.81199	3.3947	74.71	-0.2354	-0.0279	0.2075	1347.4467	0.100382	-432.835122	-432.82663	-432.825686	-432.868668	29.982	
C	-0.0972029442	 1.4402282904	-0.0682446092	-0.337693
N	 0.0809585391	-0.0009930621	-0.0134381186	-0.411869
C	 0.61643949	-0.711916003	-1.023376232	 0.524333
N	 0.6452950111	-2.0145177788	-1.1513177174	-0.410165
C	 1.3442807564	-2.1515348224	-2.3274367656	 0.215246
N	 1.7239980357	-1.0311624611	-2.9038878978	-0.198674
O	 1.2242773281	-0.0471996739	-2.0167629435	-0.205994
C	 1.6494397464	-3.4117900857	-2.9057875256	 0.264334
C	 1.9030401249	-4.482284222	-3.3884122983	-0.358365
H	 0.8275117824	 1.912539782	-0.4060236658	 0.16421
H	-0.9072434703	 1.7417167045	-0.7445269796	 0.13961
H	-0.3227620915	 1.8017757576	 0.9364383324	 0.14095
H	-0.4867180976	-0.5402140705	 0.6195865037	 0.272841
H	 2.1289719596	-5.4276970448	-3.8167496126	 0.201236
75.4066	101.7137	133.9996	159.7053	224.0986	300.2949	417.0242	459.8791	461.4	560.6162	628.6287	638.4358	674.3494	726.8623	745.1242	784.6121	913.2446	1008.7174	1029.0014	1098.5578	1154.2383	1188.367	1353.0073	1396.121	1438.7477	1475.1802	1490.208	1515.4595	1530.7405	1691.4722	2254.1651	3023.7277	3106.043	3145.3854	3502.9014	3655.2887
CNC1=NC(=NO1)C#C	CNc1nc(no1)C#C	
InChI=1S/C5H5N3O/c1-3-4-7-5(6-2)9-8-4/h1H,2H3,(H,6,7,8)	InChI=1S/C5H5N3O/c1-3-4-7-5(6-2)9-8-4/h1H,2H3,(H,6,7,8)
