14
gdb 26787	3.65131	1.1366	0.8715	4.712	76.46	-0.2191	-0.0398	0.1793	1238.3668	0.10187	-432.929231	-432.920929	-432.919985	-432.962383	29.846	
C	-0.0283478046	 1.5339512755	 0.1287946281	-0.517803
C	 0.0131995368	 0.0520109929	-0.0018203824	 0.226005
C	 0.0551001316	-0.7765488739	-1.1097518447	 0.284505
O	 0.0672141723	-0.3639410607	-2.3937178474	-0.438507
N	 0.0837365871	-2.0859566877	-0.7703651018	-0.376921
C	 0.0602368943	-2.0965929033	 0.557987519	 0.240158
N	 0.0174583214	-0.8267530047	 1.0579095066	-0.345394
C	 0.075429337	-3.2365123272	 1.395453209	 0.236362
N	 0.0865515235	-4.1442132757	 2.1157558359	-0.341718
H	 0.8384029079	 1.9259847082	 0.6743079418	 0.139332
H	-0.0247051754	 1.9789411065	-0.8681561943	 0.163728
H	-0.9313017187	 1.8786997659	 0.6467941538	 0.139252
H	 0.0978774248	-1.1574350834	-2.942141832	 0.308718
H	-0.006670028	-0.5811771824	 2.0346698485	 0.282283
88.1858	126.3729	147.3478	227.1971	246.3634	342.0963	366.7142	430.8929	497.54	539.3521	560.3831	609.7584	650.4562	698.658	730.4003	812.0829	1002.049	1037.4638	1063.1835	1153.927	1213.9331	1285.4928	1348.2957	1414.7703	1437.1459	1471.4336	1483.1011	1493.9434	1540.6913	1666.0278	2339.5532	3023.8342	3071.4383	3134.8744	3655.0314	3805.5913
CC1=C(O)N=C(N1)C#N	Cc1c(O)nc([nH]1)C#N	
InChI=1S/C5H5N3O/c1-3-5(9)8-4(2-6)7-3/h9H,1H3,(H,7,8)	InChI=1S/C5H5N3O/c1-3-5(9)8-4(2-6)7-3/h9H,1H3,(H,7,8)
