15
gdb 7892	3.53736	1.86003	1.2993	3.7362	63.46	-0.2335	0.0052	0.2387	914.5493	0.12035	-396.0454	-396.037819	-396.036875	-396.077048	28.408	
C	-0.0670475521	 1.5500346953	 0.0016111681	-0.380905
C	 0.0579444986	 0.0251360767	-0.0379276276	-0.096145
N	 0.8548006601	-0.461765951	-1.1683847916	-0.318069
C	 1.804187135	-1.1600439011	-0.667888421	 0.426499
N	 2.8381473561	-1.7341416728	-1.3719567411	-0.580897
N	 1.7891710634	-1.2900102557	 0.7247246387	-0.377429
C	 0.740435715	-0.5247575204	 1.228657635	 0.410844
O	 0.4769573329	-0.3493601952	 2.3918293517	-0.36747
H	 0.9212034977	 2.0178987175	 0.0378985221	 0.121396
H	-0.5809589516	 1.9056033838	-0.8945460916	 0.127141
H	-0.6305591142	 1.8551911438	 0.8873869183	 0.134253
H	-0.9498832036	-0.4098864549	-0.0909367978	 0.114491
H	 2.6694677463	-1.7195361766	-2.3686368817	 0.267751
H	 3.1439912637	-2.6386290282	-1.0416569892	 0.255332
H	 2.5316980227	-1.6572097814	 1.2984941177	 0.263211
113.8108	168.0875	225.5535	236.5558	333.6882	365.6771	428.3347	467.3371	531.0403	620.1455	639.7001	675.2093	736.0089	755.3224	812.1568	923.2277	991.5548	1050.4485	1098.0153	1111.3964	1172.8073	1207.7262	1285.6544	1297.9725	1318.9379	1398.7664	1482.8528	1488.304	1497.1886	1627.3201	1732.3044	1854.3558	3014.6133	3046.2681	3121.5612	3132.8541	3558.5785	3643.8244	3662.2549
CC1N=C(N)NC1=O	C[C@H]1N=C(N)NC1=O	
InChI=1S/C4H7N3O/c1-2-3(8)7-4(5)6-2/h2H,1H3,(H3,5,6,7,8)	InChI=1S/C4H7N3O/c1-2-3(8)7-4(5)6-2/h2H,1H3,(H3,5,6,7,8)/t2-/m1/s1
