14
gdb 132855	3.04745	1.35715	0.94441	2.8962	69.02	-0.2328	-0.063	0.1698	1134.02	0.099744	-481.846475	-481.838826	-481.837882	-481.878773	28.504	
C	-0.0299114173	 1.5222286387	-0.0070965429	-0.471453
C	-0.0583907889	 0.0235867065	 0.0021468689	 0.102127
C	-1.1827752523	-0.721660039	-0.1445549874	-0.257776
C	-1.1077183767	-2.1440566544	-0.1219376354	 0.187501
F	-2.2282649265	-2.8559061252	-0.2682976782	-0.071415
C	 0.0801004796	-2.7524414887	 0.0449721722	-0.04748
O	 1.2127639481	-2.0375215006	 0.1928600147	-0.210556
C	 1.2336609221	-0.6400061023	 0.1841778652	 0.397692
O	 2.2960778769	-0.0933741902	 0.3248372772	-0.339086
H	 0.6240822423	 1.8893675921	-0.8049587445	 0.152219
H	-1.0307178212	 1.9368599412	-0.1469357532	 0.122091
H	 0.3882585872	 1.9047863514	 0.9297969421	 0.152251
H	-2.154586035	-0.257220852	-0.2810338438	 0.128987
H	 0.2321887018	-3.8229619174	 0.074844065	 0.154898
110.5431	146.1672	208.1283	273.9507	358.416	370.8885	404.3633	465.6298	490.8277	559.1053	587.1558	672.1807	775.5303	801.8147	863.9887	923.7075	980.6027	998.3244	1035.1265	1068.9743	1178.3768	1227.1986	1291.2612	1346.4915	1416.4626	1437.4987	1467.7126	1487.8007	1617.3731	1709.8465	1823.6979	3040.8552	3096.5266	3130.1722	3184.6811	3231.3064
CC1=CC(F)=COC1=O	Cc1cc(F)coc1=O	
InChI=1S/C6H5FO2/c1-4-2-5(7)3-9-6(4)8/h2-3H,1H3	InChI=1S/C6H5FO2/c1-4-2-5(7)3-9-6(4)8/h2-3H,1H3
