18
gdb 105681	1.78766	1.55326	1.22192	1.6303	68.45	-0.2387	-0.0385	0.2002	1128.4616	0.146081	-476.189905	-476.180362	-476.179418	-476.225211	33.992	
O	 0.1519213515	 1.3932693713	-0.510156557	-0.423816
C	 0.1770619963	 0.1192516479	 0.0960416489	-0.103462
C	-1.2446875684	-0.4709308802	 0.1121348555	 0.172286
N	-1.8012865352	-0.393254651	-1.2900973999	-0.389936
C	-1.8064351058	-1.8896521501	-1.3813084356	-0.18048
C	-1.3778425326	-2.0219746048	 0.0917147499	 0.033756
O	-0.217943783	-2.7971867727	 0.2730520326	-0.424314
C	-2.1067388658	 0.2484249404	 1.1257789037	 0.093487
O	-2.7476159398	-0.301088349	 1.9883524325	-0.254787
H	-0.3147283129	 1.2501884417	-1.3476975024	 0.286944
H	 0.8427408244	-0.5808961923	-0.4269232287	 0.111238
H	 0.5632849025	 0.2466174915	 1.1136090252	 0.109921
H	-2.7425636059	-0.0116397816	-1.3101548715	 0.230032
H	-2.7684315893	-2.3340774907	-1.6492731464	 0.114696
H	-1.0404241586	-2.2496471058	-2.0743713312	 0.1267
H	-2.1892332104	-2.3433246417	 0.752373805	 0.100381
H	-0.1246618222	-2.9947991673	 1.2099508372	 0.293105
H	-2.1123648747	 1.3542403745	 1.0142398123	 0.104249
46.3278	61.1456	113.8973	178.8203	194.6589	264.2181	281.8297	311.4052	371.4798	424.6379	545.9323	565.7034	629.8176	681.4798	757.1216	828.0035	903.9074	937.1394	966.0938	977.8949	1025.7924	1074.2894	1083.8545	1110.3759	1160.2779	1185.6818	1195.8066	1237.057	1260.8018	1294.9981	1313.9147	1367.4821	1389.5481	1409.9953	1437.7751	1452.1635	1501.1591	1509.2477	1814.6104	2907.1515	3012.2849	3053.2175	3059.1882	3069.3727	3106.968	3508.3784	3711.0301	3828.1715
OCC1(NCC1O)C=O	OC[C@]1(NC[C@H]1O)C=O	
InChI=1S/C5H9NO3/c7-2-5(3-8)4(9)1-6-5/h2,4,6,8-9H,1,3H2	InChI=1S/C5H9NO3/c7-2-5(3-8)4(9)1-6-5/h2,4,6,8-9H,1,3H2/t4-,5-/m1/s1
