17
gdb 55835	3.77149	0.91397	0.81704	3.0454	69.51	-0.255	-0.0256	0.2294	1391.0793	0.133785	-459.013823	-459.0048	-459.003856	-459.049245	31.767	
C	 0.7310984938	 1.0448731787	-0.0426565727	-0.483116
C	-0.2840855788	-0.0605590278	 0.1328362522	 0.393271
O	-0.8086738617	-0.318133888	 1.190478864	-0.303012
C	-0.6001683733	-0.9092308966	-1.1069735726	-0.312127
C	 0.0994010309	-2.255382779	-1.0055186154	 0.14582
C	 0.1263231387	-3.1658264394	-2.2465695973	-0.444497
C	 1.6344145546	-2.9171844903	-2.1991311222	 0.451811
O	 2.6032953458	-3.2312437732	-2.8083478485	-0.308681
O	 1.5658164323	-2.1084606185	-1.0890914895	-0.256623
H	 1.663212956	 0.6165562428	-0.4292954092	 0.163681
H	 0.3798042665	 1.7679938456	-0.7880588607	 0.139765
H	 0.9118948008	 1.5486711221	 0.9072349473	 0.144555
H	-1.6808493206	-1.0837705011	-1.1280883665	 0.137216
H	-0.3009630535	-0.4073932545	-2.0327664409	 0.110245
H	-0.1591467954	-2.7540283628	-0.0688382231	 0.124278
H	-0.1636520005	-4.2064186374	-2.0938536757	 0.151443
H	-0.3639363556	-2.7747857507	-3.1401890792	 0.145972
30.8158	65.8135	107.3273	148.5048	174.0212	293.6025	381.0358	405.0009	506.3924	521.7611	524.7046	597.4511	725.7951	799.3457	837.6686	866.3473	903.5408	955.9063	984.518	1045.4379	1053.3813	1094.0676	1118.7491	1144.7205	1188.6502	1225.114	1233.7083	1297.8164	1334.8235	1379.4955	1387.17	1456.3045	1458.6514	1468.9584	1473.0112	1817.4624	1945.2957	3033.2299	3047.9086	3089.1408	3093.101	3095.4752	3109.6533	3147.6564	3156.3632
CC(=O)CC1CC(=O)O1	CC(=O)C[C@H]1CC(=O)O1	
InChI=1S/C6H8O3/c1-4(7)2-5-3-6(8)9-5/h5H,2-3H2,1H3	InChI=1S/C6H8O3/c1-4(7)2-5-3-6(8)9-5/h5H,2-3H2,1H3/t5-/m0/s1
