17
gdb 69929	3.52221	1.61353	1.40501	3.0766	71.3	-0.2319	0.0276	0.2596	952.7698	0.137867	-417.972892	-417.965857	-417.964913	-418.004078	27.988	
C	-0.0505091764	 1.5369432735	 0.0461089991	-0.517913
C	 0.0984775111	 0.0488129671	 0.0042960473	 0.35714
N	-0.8053526109	-0.8615858192	 0.7304732166	-0.360312
C	 0.6480761039	-0.9356456747	 1.0006857875	-0.143762
C	 1.2577289524	-1.7906915494	-0.1167649271	 0.083353
O	 0.5953881252	-3.0269914864	-0.4295140844	-0.226533
C	-0.2373396892	-2.7224949991	-1.4659716967	 0.135496
N	-0.2374583035	-1.5621485765	-1.9829966971	-0.262978
C	 0.6907854091	-0.7870846911	-1.1691013886	-0.085934
H	 0.85132261	 2.0338611446	-0.3269560649	 0.127598
H	-0.8923877336	 1.8630401903	-0.5749836656	 0.142563
H	-0.2301293565	 1.8876103819	 1.0685118712	 0.118516
H	-1.2239356395	-0.3297474246	 1.49281143	 0.230652
H	 1.0397616025	-0.780090689	 1.9991177874	 0.093995
H	 2.3332281589	-1.9581207572	-0.054809381	 0.091746
H	-0.8455445316	-3.5571494081	-1.7964194389	 0.1364
H	 1.4094154683	-0.2270149822	-1.7715097748	 0.079972
154.9026	198.4609	235.4224	257.5974	336.291	468.0068	526.8176	560.8909	645.8481	719.4893	808.0141	817.2174	863.2372	880.952	923.9946	926.0446	949.3395	967.7884	1010.3872	1024.045	1037.3237	1066.4736	1090.0191	1105.9377	1128.4489	1208.3277	1228.7399	1271.3601	1282.1711	1323.8816	1341.143	1364.5561	1408.3986	1441.9819	1480.4928	1498.0488	1673.7754	3025.7549	3085.2711	3092.0344	3096.1548	3112.8904	3183.0444	3217.0015	3478.5972
CC12NC1C1OC=NC21	C[C@]12N[C@H]1[C@H]1OC=N[C@@H]21	
InChI=1S/C6H8N2O/c1-6-4-3(5(6)8-6)9-2-7-4/h2-5,8H,1H3	InChI=1S/C6H8N2O/c1-6-4-3(5(6)8-6)9-2-7-4/h2-5,8H,1H3/t3-,4+,5-,6+/m0/s1
