16
gdb 125723	5.7722	0.98971	0.90418	1.0788	73.07	-0.2574	-0.0263	0.2311	1287.1421	0.125383	-434.052574	-434.044626	-434.043682	-434.085723	28.662	
C	 0.2109879481	 1.4605171116	-0.0420702249	-0.488886
C	-0.0019109179	-0.0124626996	-0.0012053675	 0.35155
N	-0.400706307	-0.6900562868	-1.045595512	-0.168937
O	-0.4672102088	-2.0126749743	-0.5680278438	-0.223045
C	-0.0974779583	-1.9684703257	 0.7208458051	 0.440941
N	 0.2058231448	-0.7738032927	 1.1317535308	-0.361045
C	-0.0689883233	-3.2200537838	 1.4857679751	-0.118204
C	-1.1339417129	-4.2455035098	 1.2587686892	-0.229522
N	 0.2318030398	-4.4949270465	 0.8055032405	-0.310671
H	 1.2460061718	 1.699390664	 0.2196904577	 0.151546
H	-0.0081295207	 1.8494151741	-1.0373262938	 0.150968
H	-0.4344078568	 1.9557194684	 0.6894894356	 0.150837
H	 0.3674420632	-3.1057159004	 2.4714167166	 0.127659
H	-1.4601188239	-4.8484365378	 2.100991712	 0.135321
H	-1.9000785168	-4.0156309316	 0.524343435	 0.138304
H	 0.298947649	-4.3332918091	-0.1971891256	 0.253182
59.9465	132.8857	154.4751	166.3104	278.5314	306.9606	424.3075	460.4309	639.7461	683.1061	727.7621	775.6716	822.0665	885.9961	922.0109	970.014	992.9202	997.9444	1034.8253	1055.8142	1071.3018	1107.8493	1135.6787	1173.3989	1266.8113	1301.167	1321.1845	1370.6789	1377.837	1424.0433	1473.1809	1475.2675	1504.4122	1574.3686	1631.2661	3052.8776	3113.4878	3118.6484	3152.192	3184.4015	3211.3947	3503.5806
CC1=NOC(=N1)C1CN1	Cc1noc(n1)[C@H]1CN1	
InChI=1S/C5H7N3O/c1-3-7-5(9-8-3)4-2-6-4/h4,6H,2H2,1H3	InChI=1S/C5H7N3O/c1-3-7-5(9-8-3)4-2-6-4/h4,6H,2H2,1H3/t4-/m1/s1
