14
gdb 42254	3.03957	1.18862	1.02304	3.4711	76.92	-0.2603	-0.0459	0.2144	1165.7763	0.097723	-399.463822	-399.454993	-399.454049	-399.497809	31.742	
O	-0.3506232652	-0.0073478375	-0.2656411105	-0.315597
C	-0.2574833038	 1.1623184834	 0.0254011881	 0.267862
C	 0.9782761615	 1.9171930464	-0.1021994837	 0.262203
C	 2.0109927117	 2.5190641382	-0.2345041984	-0.435785
N	-1.2938088203	 1.8984673637	 0.5965782723	-0.092004
C	-1.7793898588	 3.1844215819	 0.1631084498	-0.244965
C	-2.6642060056	 1.9547015166	 0.1063019238	-0.203248
C	-3.0160510785	 1.3884971615	-1.1661669979	 0.359022
C	-3.3379430011	 0.9203897981	-2.2246748221	-0.440696
H	 2.9306374264	 3.038607249	-0.353766427	 0.215417
H	-1.9447187226	 3.9221952069	 0.9434125033	 0.136107
H	-1.4183717124	 3.5725864489	-0.7852863751	 0.147325
H	-3.4123031141	 1.8379512148	 0.8871416558	 0.134421
H	-3.6103289373	 0.4942065082	-3.1587835585	 0.209937
54.9442	99.9567	137.1958	203.0376	232.9293	264.114	291.9437	467.8116	510.9045	542.4506	623.4628	636.9234	659.7407	674.9279	698.0513	712.2278	772.5347	818.0995	919.4795	1000.7781	1056.4246	1105.4571	1125.4579	1154.3345	1170.9148	1360.2079	1404.3789	1506.7844	1769.973	2223.1565	2245.7156	3111.9682	3135.1443	3207.2397	3494.8597	3502.124
O=C(C#C)N1CC1C#C	O=C(C#C)N1C[C@H]1C#C	
InChI=1S/C7H5NO/c1-3-6-5-8(6)7(9)4-2/h1-2,6H,5H2	InChI=1S/C7H5NO/c1-3-6-5-8(6)7(9)4-2/h1-2,6H,5H2/t6-,8?/m1/s1
