15
gdb 29368	3.45206	1.22318	0.90754	5.3223	74.68	-0.2126	-0.032	0.1806	1200.1669	0.114083	-453.991271	-453.983005	-453.982061	-454.024049	30.705	
N	 0.1795744338	 1.4365930672	-0.0575037342	-0.626977
C	 0.0484981416	 0.0182457883	-0.0165619922	 0.06671
C	-1.0529866559	-0.8237504617	 0.0943596859	-0.113941
N	-0.6105258459	-2.101264725	 0.083740569	-0.300847
C	 0.7723641714	-2.1414051137	-0.0323821004	 0.126256
C	 1.4620955282	-3.4002397128	-0.0642871612	 0.067546
O	 0.8923978766	-4.4793677635	 0.0065254173	-0.339132
C	 1.1909342287	-0.8134876927	-0.0955647049	 0.268392
O	 2.4516646376	-0.360487066	-0.2115630189	-0.434365
H	-0.16866266	 1.8838648536	 0.783831451	 0.247185
H	-0.3056895446	 1.8494629026	-0.8469554482	 0.247192
H	-2.1030885087	-0.588764569	 0.1782332338	 0.130296
H	-1.1520035519	-2.9476231795	 0.147298445	 0.279244
H	 2.5637256993	-3.3281168653	-0.1589317023	 0.083131
H	 2.3712907499	 0.6074649275	-0.2248706798	 0.29931
110.3416	161.1754	169.8163	243.2913	249.8574	301.6211	355.8169	395.0311	527.8729	543.5756	593.8397	653.9358	681.3701	722.6996	757.0649	787.198	824.0012	836.7029	1013.6747	1027.8587	1116.0797	1205.4175	1246.6933	1249.3965	1315.0139	1380.0131	1415.1068	1456.9679	1497.3722	1576.3517	1643.374	1660.4679	1739.789	2934.4372	3252.7252	3502.7468	3571.1912	3666.3546	3690.2013
NC1=CNC(C=O)=C1O	Nc1c[nH]c(C=O)c1O	
InChI=1S/C5H6N2O2/c6-3-1-7-4(2-8)5(3)9/h1-2,7,9H,6H2	InChI=1S/C5H6N2O2/c6-3-1-7-4(2-8)5(3)9/h1-2,7,9H,6H2
