19
gdb 85456	2.7053	1.40267	1.04243	2.3988	75.41	-0.235	-0.0164	0.2186	1159.419	0.158672	-423.043397	-423.034914	-423.03397	-423.076523	32.936	
O	 0.2544216651	 0.9352500474	-0.8404188665	-0.434539
C	 0.0499390025	-0.1769611902	 0.0097148101	 0.038586
C	 0.3764637181	 0.0654061111	 1.4940779375	-0.351811
C	-0.5320992013	-0.9071001018	 2.2535855004	 0.400677
O	-0.4227097841	-1.2234999408	 3.408884958	-0.310966
C	-1.6008431131	-1.4231776955	 1.2782105507	-0.41403
C	-1.4282793027	-0.5653122625	 0.0362512822	 0.353882
C	-2.4715838984	 0.4541003223	-0.3512274848	-0.302481
C	-2.21537077	-0.7528781197	-1.2250958727	-0.333266
H	 1.2010387479	 1.0771920777	-0.9314398953	 0.289144
H	 0.6329062159	-1.0403406639	-0.3534827544	 0.07355
H	 1.4243548101	-0.0594410656	 1.7775454268	 0.117527
H	 0.0722254668	 1.0870102069	 1.757375654	 0.140093
H	-1.3792133502	-2.4821916953	 1.0817464963	 0.129922
H	-2.596394609	-1.3853749045	 1.7279649414	 0.131199
H	-3.3888326577	 0.4813787031	 0.2281158673	 0.107436
H	-2.1274666786	 1.4148377576	-0.7131003597	 0.135194
H	-1.7007447699	-0.5828339006	-2.1648627529	 0.120339
H	-2.9618236314	-1.5400472856	-1.2524876284	 0.109545
69.7851	114.2088	232.9966	250.6828	272.9058	328.0487	338.3849	467.7855	500.1065	512.4637	534.8427	555.9712	719.8496	771.865	789.1932	817.6315	908.3616	912.0419	933.1431	978.8021	993.5714	1053.6745	1061.0573	1087.1325	1107.07	1135.2716	1156.3719	1191.0187	1200.7132	1224.1931	1241.32	1261.1203	1293.6488	1344.3339	1386.1054	1429.5142	1447.3486	1455.1408	1460.5905	1501.9659	1850.5001	2953.5484	3014.8427	3038.0451	3096.544	3108.0826	3128.0197	3137.0552	3212.4325	3234.5583	3835.0042
OC1CC(=O)CC11CC1	O[C@H]1CC(=O)CC21CC2	
InChI=1S/C7H10O2/c8-5-3-6(9)7(4-5)1-2-7/h6,9H,1-4H2	InChI=1S/C7H10O2/c8-5-3-6(9)7(4-5)1-2-7/h6,9H,1-4H2/t6-/m0/s1
