17
gdb 47494	2.97188	1.36721	1.05521	3.251	67.95	-0.2648	0.0088	0.2736	1119.4087	0.136566	-458.98441	-458.976752	-458.975808	-459.017108	29.256	
O	-0.193705628	 0.5283447618	-1.0961393305	-0.32249
C	-0.0607545416	 1.270335531	-0.1639038122	 0.407934
C	-1.1610763543	 1.6125071517	 0.829381839	-0.424538
C	-1.2188530408	 3.0924838936	 1.1936168723	 0.419637
C	-2.4575845625	 3.8620938179	 1.0292049716	-0.234217
O	-2.0573809297	 3.3812053792	 2.3173843211	-0.273127
C	 0.1387072458	 3.7827474711	 1.1587802209	-0.298852
C	 1.2533848692	 2.7433885222	 1.1959783484	-0.093567
O	 1.1447523851	 1.848463886	 0.0760914458	-0.220168
H	-2.1059530665	 1.2409819224	 0.4338402372	 0.140056
H	-0.9502489551	 1.0539558292	 1.7518165044	 0.149402
H	-2.4089437472	 4.9430086806	 0.8991138371	 0.118324
H	-3.3388792468	 3.3843377212	 0.603249733	 0.121457
H	 0.243200442	 4.3674586604	 0.2378425285	 0.127225
H	 0.2190024029	 4.4688131189	 2.0067109397	 0.129872
H	 2.2388062578	 3.2023401427	 1.1011627426	 0.132044
H	 1.2342737696	 2.16898144	 2.1310608312	 0.121005
55.9088	117.1274	272.221	322.2654	350.0527	378.5249	408.5471	463.8481	516.7566	574.8092	648.5743	742.6251	821.1803	827.6068	910.1515	923.1819	946.3701	992.7405	997.1345	1085.2933	1096.9215	1129.1742	1152.1698	1166.7041	1212.6159	1241.2862	1272.7339	1286.2648	1295.5083	1349.1963	1412.9901	1426.2612	1463.9658	1464.9151	1517.8098	1530.9275	1859.625	3027.0985	3030.6755	3046.4599	3079.309	3104.1784	3119.7197	3137.5355	3166.5575
O=C1CC2(CO2)CCO1	O=C1C[C@]2(CO2)CCO1	
InChI=1S/C6H8O3/c7-5-3-6(4-9-6)1-2-8-5/h1-4H2	InChI=1S/C6H8O3/c7-5-3-6(4-9-6)1-2-8-5/h1-4H2/t6-/m0/s1
