19
gdb 105312	2.30115	1.50479	1.13536	1.2697	80.69	-0.2525	0.0439	0.2964	1149.2431	0.156994	-385.818898	-385.809952	-385.809008	-385.852259	34.277	
C	 0.1170786466	 1.5143408435	-0.1259450775	-0.390617
C	-0.0008988362	 0.0058553042	 0.1032128859	-0.24096
C	-1.4445226433	-0.5199024497	 0.0438334304	 0.119341
C	-2.1630287974	-0.4945819254	-1.378470097	-0.311905
C	-2.2505993469	-2.0214706236	-1.3156480555	 0.050428
O	-0.9106870894	-2.5215291959	-1.1851530755	-0.249961
C	-1.5824253406	-2.0728205124	-0.010816391	-0.026974
C	-2.2867577208	 0.041197572	 1.0880098519	 0.282208
C	-2.9805153585	 0.4815222938	 1.9668841251	-0.457408
H	 1.1625760828	 1.8323367027	-0.0721743271	 0.114588
H	-0.2658720371	 1.8006283593	-1.1114354486	 0.115446
H	-0.4467915311	 2.0736871569	 0.626506306	 0.128779
H	 0.5735518657	-0.5418428104	-0.6501316508	 0.117477
H	 0.421049377	-0.253493458	 1.0817787596	 0.101422
H	-3.1314488584	 0.0054270794	-1.3401241272	 0.12348
H	-1.5677326107	-0.0994274608	-2.2049609072	 0.113891
H	-2.98308163	-2.6842340281	-1.7603471605	 0.107798
H	-1.6692225852	-2.7582007656	 0.824312627	 0.108771
H	-3.5920490164	 0.8783017879	 2.7390511019	 0.194196
104.7257	130.779	162.3988	173.2874	207.4591	274.918	362.0291	396.1807	488.8079	530.4871	546.7275	617.5896	623.2264	635.6696	780.5259	794.9384	837.4742	864.3162	884.2809	939.5681	968.0269	978.1314	1002.1868	1036.0469	1051.8965	1112.4468	1122.1045	1168.4471	1221.8766	1236.2115	1247.9833	1267.2162	1322.6947	1353.5393	1391.2807	1412.2704	1467.279	1488.925	1498.592	1507.8729	2227.6423	3033.9742	3037.8072	3073.7016	3083.5226	3104.6525	3115.059	3141.3963	3183.6816	3199.6981	3500.9562
CCC1(CC2OC12)C#C	CC[C@]1(C[C@H]2O[C@@H]12)C#C	
InChI=1S/C8H10O/c1-3-8(4-2)5-6-7(8)9-6/h1,6-7H,4-5H2,2H3	InChI=1S/C8H10O/c1-3-8(4-2)5-6-7(8)9-6/h1,6-7H,4-5H2,2H3/t6-,7-,8+/m1/s1
