17
gdb 7765	3.38178	1.8605	1.24672	4.2634	71.19	-0.2383	-0.0306	0.2077	961.935	0.144043	-363.918636	-363.911257	-363.910313	-363.950101	28.314	
C	-0.0080008566	 1.5646276125	 0.0129911782	-0.410627
C	 0.0547229836	 0.0395057475	-0.0078126275	 0.055985
C	 0.6480660882	-0.5061315837	-1.3124688008	-0.245942
C	 0.9652784203	-1.9727501881	-1.1981271414	-0.082901
C	 1.2193266198	-2.540858945	-0.0176201404	-0.133611
C	 1.248171611	-1.7560140989	 1.243941088	 0.385523
O	 1.6318713011	-2.2234850326	 2.3026030409	-0.379591
N	 0.8572562018	-0.4417489703	 1.1159645136	-0.338469
H	 0.9946659843	 1.9951568717	-0.0730344389	 0.12874
H	-0.6187441383	 1.9340752035	-0.8160998184	 0.12401
H	-0.4574768249	 1.9268718316	 0.9438609048	 0.119604
H	-0.9735891097	-0.3516723082	 0.0758483887	 0.08277
H	-0.0552100608	-0.3258370315	-2.1325998734	 0.112572
H	 1.5667646512	 0.0451193087	-1.5648544847	 0.122265
H	 1.0145714699	-2.5564897066	-2.1138691249	 0.106674
H	 1.4732028311	-3.5888158311	 0.0902401707	 0.113451
H	 0.7536497777	 0.0340601807	 2.0018748555	 0.239545
131.1842	139.8504	247.2025	280.419	322.988	436.7854	452.2954	480.3014	545.6785	598.0839	669.7509	705.1667	834.5599	876.9515	890.3493	947.1786	974.9863	1009.0035	1016.4718	1085.1008	1118.6557	1157.493	1211.9148	1227.5083	1319.6673	1337.5828	1367.8085	1390.2682	1409.8734	1416.0503	1450.6077	1469.0601	1494.4348	1500.7903	1691.731	1782.7033	2949.7576	2999.9459	3034.494	3068.6938	3103.1636	3116.1821	3160.1263	3210.8357	3594.0662
CC1CC=CC(=O)N1	C[C@H]1CC=CC(=O)N1	
InChI=1S/C6H9NO/c1-5-3-2-4-6(8)7-5/h2,4-5H,3H2,1H3,(H,7,8)	InChI=1S/C6H9NO/c1-5-3-2-4-6(8)7-5/h2,4-5H,3H2,1H3,(H,7,8)/t5-/m0/s1
