20
gdb 73719	2.70634	1.82789	1.38896	0.892	77.37	-0.2328	0.0804	0.3132	997.9336	0.173178	-403.106258	-403.098763	-403.097819	-403.137758	30.545	
C	-0.0286012512	 1.4624870852	 0.0021100004	-0.452204
C	-0.027917321	-0.0530833168	-0.0070991422	 0.324115
C	 1.06372953	-0.654666856	-0.8899380372	-0.297969
C	 0.9408162812	-2.1636300553	-1.2053745045	-0.09211
O	-0.3867729406	-2.6626369004	-1.148517391	-0.260757
C	-1.0829321526	-2.2376947576	 0.0033777724	 0.07573
C	-0.2917587974	-2.0706614763	 1.3330768347	-0.205124
N	-0.4547653025	-0.5809238559	 1.3202064463	-0.187395
C	-1.3361931114	-0.728509001	 0.0834820936	-0.091907
H	 0.9282703377	 1.8460063918	 0.373240483	 0.119628
H	-0.1863115193	 1.8605291124	-1.005995512	 0.113922
H	-0.817702587	 1.8392480562	 0.6568860549	 0.129715
H	 1.0233614445	-0.0926440317	-1.8303538647	 0.113444
H	 2.052214654	-0.4553118742	-0.4578897884	 0.106789
H	 1.2865654642	-2.3603083611	-2.2237223861	 0.110328
H	 1.5842357925	-2.7456028807	-0.531500613	 0.098584
H	-1.9702177476	-2.8674641904	 0.077195591	 0.091043
H	-0.8443912374	-2.4744059682	 2.1847147888	 0.113362
H	 0.7396314859	-2.4268505258	 1.3876829783	 0.105579
H	-2.2906400321	-0.2215070642	-0.0184758044	 0.085225
132.9848	201.4501	244.7868	311.2782	331.6212	396.161	407.6869	504.5466	530.6612	617.9204	700.234	738.0396	812.2386	831.2034	857.0098	880.6689	938.2682	985.006	990.884	1016.4764	1027.7264	1043.9336	1050.758	1076.2049	1127.6622	1144.3785	1174.5791	1210.2218	1246.6061	1264.3257	1277.1081	1289.0229	1299.9099	1362.3048	1380.426	1412.717	1417.4294	1427.4292	1476.9848	1488.9694	1490.6022	1500.1522	1523.3943	3000.8861	3025.8526	3033.8629	3060.2935	3065.9592	3087.7639	3095.4951	3103.7094	3116.4531	3125.096	3158.9411
CC12CCOC3CN1C23	C[C@@]12CCO[C@H]3CN1[C@@H]23	
InChI=1S/C7H11NO/c1-7-2-3-9-5-4-8(7)6(5)7/h5-6H,2-4H2,1H3	InChI=1S/C7H11NO/c1-7-2-3-9-5-4-8(7)6(5)7/h5-6H,2-4H2,1H3/t5-,6+,7-,8?/m0/s1
