18
gdb 16029	3.31794	1.72029	1.40217	0.8925	80.07	-0.2268	0.0405	0.2673	959.4081	0.153228	-310.61306	-310.605149	-310.604205	-310.644804	30.797	
C	-0.030983408	 1.548627543	 0.0341339776	-0.419844
C	 0.0954131221	 0.0408246088	 0.0626976686	-0.045601
C	 1.3421432205	-0.7411615421	-0.2266000373	-0.120104
C	 2.596745873	-0.0518409896	 0.3195570509	-0.229571
C	 1.9718023687	-0.0494925174	 1.7491957644	-0.296283
C	 0.7156006354	-0.7566287237	 1.1980963047	 0.187163
C	 0.0136323655	-1.794415521	 1.8715727188	 0.175772
C	-0.5696874628	-2.6702340234	 2.4580292028	-0.414694
H	 0.8600811698	 2.0543006604	 0.4135053358	 0.121802
H	-0.1960895655	 1.8987542419	-0.9908181007	 0.119942
H	-0.8819371091	 1.877378724	 0.6399529101	 0.123822
H	-0.7877757083	-0.4682217931	-0.3175093893	 0.096533
H	 1.3442338606	-1.5506261867	-0.9470332308	 0.095205
H	 3.481541128	-0.6886011753	 0.2626149072	 0.108267
H	 2.8441162957	 0.9199806342	-0.1188636584	 0.100073
H	 2.5225874332	-0.6871788031	 2.4420687369	 0.116435
H	 1.8044015883	 0.9206071629	 2.2264330094	 0.09965
H	-1.0880271272	-3.4413859397	 2.9709219892	 0.181431
132.4829	161.8409	175.9356	247.107	273.5667	361.0371	487.7664	501.5457	527.5273	554.8728	601.0492	640.8653	721.2063	752.3501	801.5166	879.983	924.4617	952.2854	973.5944	998.6718	1049.4285	1073.434	1111.1949	1124.5881	1146.2387	1218.9114	1225.3212	1242.8427	1260.9678	1294.9432	1337.6012	1414.3195	1450.6483	1478.9207	1501.3537	1503.1471	1511.6515	2226.044	3035.974	3052.2685	3061.384	3093.7127	3105.1336	3115.9688	3126.6531	3139.1337	3182.9257	3505.1455
CC1C2CCC12C#C	C[C@H]1[C@H]2CC[C@@]12C#C	
InChI=1S/C8H10/c1-3-8-5-4-7(8)6(8)2/h1,6-7H,4-5H2,2H3	InChI=1S/C8H10/c1-3-8-5-4-7(8)6(8)2/h1,6-7H,4-5H2,2H3/t6-,7+,8-/m0/s1
