16
gdb 126741	4.75433	1.09565	0.95699	5.855	77.99	-0.2444	-0.0702	0.1742	1224.826	0.124938	-430.219115	-430.21092	-430.209976	-430.253091	29.48	
C	-0.0494892412	 1.5165994342	-0.0065267206	-0.381259
C	 0.0511670721	-0.0081928208	 0.0277100923	-0.151002
N	 0.6892510948	-0.520620073	 1.2405254286	-0.027682
C	 0.0230529333	-0.7223907248	 2.4180381066	 0.110285
N	 0.5896371723	-1.1085559001	 3.5003287736	-0.269249
C	 1.9580195439	-1.3690789984	 3.3937417052	 0.396742
N	 2.5696904949	-2.0829054338	 4.2474626149	-0.482215
N	 2.6758469495	-0.7699965353	 2.2932866878	-0.208031
N	 2.0643155049	-0.4025833434	 1.2664242748	-0.055372
H	 0.9451956387	 1.9654844274	 0.0551954649	 0.15276
H	-0.5174208256	 1.8388776873	-0.9412356406	 0.13336
H	-0.6526992855	 1.8940230801	 0.824898235	 0.130724
H	-0.937274113	-0.473073632	-0.0338490776	 0.130789
H	 0.6421630128	-0.3759715313	-0.8142278918	 0.146867
H	-1.0456881411	-0.5095229585	 2.3977516626	 0.142502
H	 3.5587453392	-2.1201496976	 3.9927630844	 0.230781
44.0502	58.3777	127.4965	216.1588	334.8494	387.0832	426.3006	444.7124	504.0478	552.2608	672.6582	739.7358	782.4647	796.1172	823.2322	905.8922	919.1022	962.8811	975.6853	1042.453	1101.0286	1110.4018	1204.1783	1270.5891	1311.8595	1373.9172	1388.5501	1408.7655	1436.993	1481.0415	1489.3973	1503.3336	1556.0722	1684.4653	1723.2283	3044.9193	3066.2135	3107.5675	3123.3683	3132.2816	3135.9459	3471.6867
CCN1C=NC(=N)N=N1	CCN1C=N[C@H]([NH])N=N1	
InChI=1S/C4H7N5/c1-2-9-3-6-4(5)7-8-9/h3,5H,2H2,1H3	InChI=1S/C4H8N5/c1-2-9-3-6-4(5)7-8-9/h3-5H,2H2,1H3/t4-/m0/s1
