27
gdb 59988	2.23231	0.97297	0.81105	0.1304	96.1	-0.2702	0.0825	0.3527	1628.59	0.250434	-353.558447	-353.547225	-353.546281	-353.594806	42.17	
C	-2.1997170176	 1.6875487419	-1.1546585115	-0.386662
C	-1.8127568927	 0.2219736464	-1.4003217012	 0.036115
C	-0.6154771076	 0.142012748	-2.3583569272	-0.383191
C	-1.5387070497	-0.4848934705	-0.0593470567	-0.167509
C	-1.3467247893	-2.0154423894	-0.0921821041	-0.008463
C	-0.9179218476	-2.5175714834	 1.2965525068	-0.391949
C	-2.5987389676	-2.7445390513	-0.5545341263	 0.058313
C	-2.8515393001	-3.0685783063	-2.0068950279	-0.272596
C	-2.5243592672	-4.1729576098	-1.0330161839	-0.283505
H	-2.4213677998	 2.2036983042	-2.0949161738	 0.10596
H	-3.0836148587	 1.7652397358	-0.5126699765	 0.106825
H	-1.3837485293	 2.2315698088	-0.6631273229	 0.108777
H	-2.6662195809	-0.2736131622	-1.8795581627	 0.082122
H	-0.3451650817	-0.889971829	-2.600799562	 0.111488
H	-0.833026695	 0.6542249288	-3.301667584	 0.107745
H	 0.2680682972	 0.621057716	-1.9184005539	 0.108153
H	-0.646939866	-0.0301329988	 0.3958770302	 0.081468
H	-2.3674619947	-0.2648499635	 0.628996762	 0.082692
H	-0.5387076647	-2.2567355936	-0.7968865349	 0.065745
H	-0.7546883144	-3.5994510188	 1.2934626549	 0.111474
H	 0.0077002116	-2.0336053279	 1.6257320416	 0.106403
H	-1.689373038	-2.3005750182	 2.04523519	 0.109127
H	-3.4845230811	-2.4966421234	 0.0284976157	 0.074992
H	-3.8652046543	-2.9968176391	-2.3864129015	 0.10808
H	-2.0903300811	-2.7953482544	-2.730261646	 0.112335
H	-1.5426489079	-4.6311428245	-1.1046264725	 0.10835
H	-3.3119676817	-4.8608395361	-0.7457328317	 0.107713
58.6814	79.8238	99.4855	160.1322	206.5156	215.7731	230.2944	249.7305	282.8706	309.1483	332.4999	402.6316	412.9105	481.6912	515.232	742.143	799.3061	817.0189	825.8976	881.0745	901.2291	926.8012	931.9535	955.2406	967.0262	987.796	1001.1091	1054.7338	1064.4931	1070.0039	1080.5913	1138.7692	1145.5697	1171.5812	1193.0371	1198.6766	1215.909	1227.205	1267.701	1303.9079	1325.5345	1346.4964	1374.4819	1387.9305	1400.4206	1407.8464	1418.5345	1424.2674	1468.8915	1476.131	1487.3698	1493.2476	1496.7091	1499.2605	1504.3401	1508.1319	1510.2748	2992.1098	3006.3312	3020.2938	3023.2164	3025.1064	3026.4813	3038.3293	3084.2182	3089.688	3091.8322	3095.4653	3101.4249	3104.6289	3115.3676	3125.2881	3131.6009	3202.4064	3217.994
CC(C)CC(C)C1CC1	CC(C)C[C@@H](C)C1CC1	
InChI=1S/C9H18/c1-7(2)6-8(3)9-4-5-9/h7-9H,4-6H2,1-3H3	InChI=1S/C9H18/c1-7(2)6-8(3)9-4-5-9/h7-9H,4-6H2,1-3H3/t8-/m1/s1
