18
gdb 98480	2.56586	1.24805	1.00307	3.5532	69.04	-0.257	-0.0007	0.2563	1237.7485	0.146719	-476.21997	-476.210357	-476.209413	-476.255147	33.865	
C	-0.4076812221	 1.4801255209	 0.7973822303	-0.244453
O	-0.3756316352	 0.0513459473	 0.9162238666	-0.254085
C	 0.8376662411	-0.5172909156	 0.7263548878	 0.42486
O	 1.831299676	 0.1087612689	 0.4606483278	-0.364791
C	 0.791258277	-2.0070990209	 0.9069642397	 0.148038
C	 1.918853204	-2.7774086334	 0.2463520132	-0.116374
O	 1.6669818933	-2.9480701987	-1.1341283012	-0.421802
C	 0.1223094581	-2.5198090379	 2.1444819826	-0.260071
N	-0.5088747929	-2.7047499309	 0.8398675066	-0.358592
H	-0.0800762756	 1.7875327038	-0.1983459382	 0.149526
H	-1.4447049702	 1.7693196257	 0.9670121127	 0.135206
H	 0.2463879381	 1.9416835654	 1.5412200656	 0.14436
H	 2.8517855	-2.2167343301	 0.3333161	 0.133583
H	 2.0389730946	-3.7439769698	 0.7578775901	 0.085998
H	 0.7996296365	-3.3678473051	-1.191522884	 0.289924
H	 0.5127559947	-3.4218422865	 2.6072365901	 0.129558
H	-0.3040283683	-1.7925279439	 2.8286409193	 0.128173
H	-1.2489246491	-2.0177652591	 0.7217021409	 0.250944
61.4366	75.6397	116.2965	138.9058	197.4401	215.0801	300.1867	325.7257	336.6718	452.0506	474.2104	500.5423	608.9158	768.2931	791.7758	867.7701	907.5581	937.6808	990.0391	1002.8203	1023.2482	1078.134	1099.2347	1128.8049	1181.0283	1194.5827	1211.0802	1231.7191	1286.137	1345.3873	1368.66	1395.5338	1435.7057	1473.7081	1481.406	1491.6395	1498.877	1503.8142	1821.4916	2993.21	3055.3781	3115.534	3117.3903	3132.4453	3162.2261	3207.2381	3519.5601	3780.1178
COC(=O)C1(CO)CN1	COC(=O)[C@@]1(CO)CN1	
InChI=1S/C5H9NO3/c1-9-4(8)5(3-7)2-6-5/h6-7H,2-3H2,1H3	InChI=1S/C5H9NO3/c1-9-4(8)5(3-7)2-6-5/h6-7H,2-3H2,1H3/t5-/m0/s1
