19
gdb 52607	2.16047	1.04271	0.96244	3.359	81.46	-0.2362	-0.0192	0.217	1406.2135	0.153468	-423.023917	-423.012375	-423.011431	-423.06239	39.444	
C	 0.4480253379	 1.2943450195	 0.0131815607	-0.499132
C	 0.23605008	-0.1454062276	-0.004625564	-0.015695
C	 0.0560559586	-1.3372734934	-0.012640256	 0.118349
C	-0.1528398035	-2.7899084651	-0.0379666868	 0.079864
C	-1.6447216037	-3.1414893394	-0.077145111	-0.408095
O	 0.5479738408	-3.3842638487	-1.1357343106	-0.450242
C	 0.5101269491	-3.3656345153	 1.2533005364	 0.384526
C	 2.0027954491	-3.5972720789	 1.1909977435	-0.472502
O	-0.1544881061	-3.5875547033	 2.234265384	-0.301968
H	 1.3674255021	 1.5667043421	-0.5162468202	 0.152855
H	-0.3828794424	 1.8257909791	-0.4631996094	 0.153189
H	 0.5342214187	 1.6644081748	 1.0405748174	 0.158071
H	-2.1153222714	-2.6786491051	-0.9490337846	 0.107782
H	-1.7583119899	-4.2264303718	-0.1429866672	 0.126194
H	-2.1418838986	-2.7899214473	 0.8278285005	 0.145695
H	 0.3665489908	-2.8507413933	-1.9165959386	 0.285315
H	 2.2139023093	-4.4289408789	 0.5124125413	 0.158626
H	 2.5106713126	-2.7208135741	 0.7789233019	 0.144218
H	 2.3750278567	-3.8259002732	 2.1901879725	 0.132951
17.3888	47.6678	79.6371	114.8933	142.5335	213.2448	223.9638	245.1844	262.9902	298.1215	334.9849	358.6856	418.2037	475.381	530.4981	566.2728	603.2452	656.17	795.8698	908.9184	965.3779	1030.5624	1050.262	1053.9364	1060.9976	1096.754	1135.1133	1189.6377	1227.2334	1354.0789	1378.9697	1397.3618	1413.6008	1456.84	1467.49	1475.676	1476.9992	1481.3103	1484.3976	1824.2667	2356.3136	3030.2395	3051.4017	3053.47	3092.9002	3093.5478	3120.8887	3126.8466	3151.7957	3157.4503	3815.166
CC#CC(C)(O)C(C)=O	CC#C[C@@](C)(O)C(=O)C	
InChI=1S/C7H10O2/c1-4-5-7(3,9)6(2)8/h9H,1-3H3	InChI=1S/C7H10O2/c1-4-5-7(3,9)6(2)8/h9H,1-3H3/t7-/m1/s1
