22
gdb 116078	3.01718	1.02847	0.82519	2.6791	82.81	-0.2111	-0.0129	0.1981	1446.0257	0.195518	-404.376659	-404.367399	-404.366454	-404.410984	34.949	
C	 0.1285745683	 1.5610547838	 0.0536984166	-0.39554
C	 0.0024598298	 0.0348014353	-0.0077717858	-0.17522
C	-1.4422644334	-0.4902013378	-0.0200032038	 0.013893
C	-2.2196680862	-0.1124332793	-1.2971889342	-0.16949
N	-3.5844069781	-0.6370846502	-1.3501507143	-0.287941
C	-3.6379956338	-2.0962627911	-1.2079995569	-0.258951
C	-2.8730585582	-2.6060253222	 0.0134088177	 0.369786
O	-3.3470125376	-3.3909315027	 0.8024533847	-0.306873
C	-1.4738471191	-2.0255910926	 0.1593430523	-0.310309
H	 1.178329842	 1.861872712	 0.1238690072	 0.117232
H	-0.2906119992	 2.0456262899	-0.833401494	 0.121583
H	-0.3905587068	 1.96503074	 0.9301024663	 0.116711
H	 0.5257285206	-0.3445573464	-0.8966526515	 0.095327
H	 0.5217007486	-0.4012473758	 0.8550819522	 0.098585
H	-1.975400603	-0.0422137745	 0.8329995785	 0.073037
H	-2.2729410743	 0.974753051	-1.4079060583	 0.106047
H	-1.6783589318	-0.4946031833	-2.1756817815	 0.101219
H	-4.1374437068	-0.2123694078	-0.6112541642	 0.221428
H	-4.6759491105	-2.4311299714	-1.1439810147	 0.122982
H	-3.1950828297	-2.5452512143	-2.1096970741	 0.117282
H	-0.8496157889	-2.4803577257	-0.6256951412	 0.113479
H	-1.0641055617	-2.333437997	 1.1254312689	 0.115732
71.2563	98.2314	120.1281	195.4683	229.7484	276.6527	336.6461	385.2578	422.8134	431.9019	507.2701	509.1869	660.414	754.6506	771.4614	824.0197	848.4832	893.7169	911.4464	936.5949	985.2165	1015.5726	1046.5449	1105.628	1108.8106	1139.9507	1149.1253	1159.9091	1243.0536	1253.8302	1280.6612	1294.1669	1325.1192	1338.7888	1348.2531	1357.6865	1385.1009	1394.2789	1415.8862	1456.8443	1465.2178	1482.7588	1486.5919	1494.0362	1501.6915	1508.7126	1815.6074	2982.3632	2997.4353	3001.6482	3006.2866	3014.8753	3034.8434	3046.4639	3080.2416	3091.9268	3100.7373	3108.0527	3108.6559	3504.7456
CCC1CNCC(=O)C1	CC[C@H]1CNCC(=O)C1	
InChI=1S/C7H13NO/c1-2-6-3-7(9)5-8-4-6/h6,8H,2-5H2,1H3	InChI=1S/C7H13NO/c1-2-6-3-7(9)5-8-4-6/h6,8H,2-5H2,1H3/t6-/m1/s1
