18
gdb 69054	3.42879	1.05316	0.94821	2.4939	75.26	-0.2395	0.0147	0.2543	1287.813	0.145609	-439.036198	-439.027259	-439.026315	-439.070401	32.597	
C	-0.0012255736	 1.4721394514	 0.1134656307	-0.485288
C	 0.0738575752	-0.0174267542	 0.1094378429	 0.383855
C	-0.700912433	-0.968403796	 0.9919508345	-0.393839
C	 0.8107484177	-1.0513444969	 0.9204873246	 0.288673
C	 1.2378947157	-1.6414159751	-0.4165285486	-0.141411
O	 0.4086755611	-0.6785840189	-1.1225563189	-0.318125
O	 1.6582113089	-0.8846885203	 2.0059133164	-0.221849
C	 1.5459566755	-1.7886043101	 3.0133457508	 0.10814
N	 2.3340554859	-1.7249289971	 3.9936752925	-0.436479
H	 0.9125008328	 1.9055760509	-0.303246495	 0.137319
H	-0.8505514182	 1.8161713064	-0.4866464672	 0.136104
H	-0.1312946009	 1.8435127825	 1.1335503988	 0.134628
H	-1.072560164	-0.5233133173	 1.9102508906	 0.127267
H	-1.32896781	-1.7409929558	 0.555940364	 0.11853
H	 2.299149772	-1.4759311858	-0.6317661724	 0.123957
H	 0.9617695599	-2.6783928013	-0.6398228273	 0.106962
H	 0.7326281929	-2.5075020352	 2.8569990761	 0.098549
H	 2.116230992	-2.4602090873	 4.6631689474	 0.233008
59.3808	104.4084	125.38	175.5461	218.5906	262.1527	369.5494	389.0469	424.2729	465.3817	533.9926	652.4514	750.0089	822.7763	827.3058	875.4376	917.8482	952.4306	968.8061	984.9042	1030.8735	1048.5953	1057.2834	1086.8372	1113.7169	1146.0869	1180.8024	1227.1654	1273.0647	1285.9798	1343.9217	1398.6452	1410.0933	1426.4273	1471.6459	1488.2439	1503.9612	1524.4771	1747.4993	3028.9063	3039.092	3049.6665	3084.6257	3105.4794	3111.3475	3124.2953	3208.348	3518.2076
CC12CC1(CO2)OC=N	C[C@]12C[C@]1(CO2)O[CH][NH]	
InChI=1S/C6H9NO2/c1-5-2-6(5,3-8-5)9-4-7/h4,7H,2-3H2,1H3	InChI=1S/C6H9NO2/c1-5-2-6(5,3-8-5)9-4-7/h4,7H,2-3H2,1H3/t5-,6+/m0/s1
