21
gdb 57896	2.86188	1.00923	0.96	3.2991	80.51	-0.2595	-0.0257	0.2338	1372.401	0.180457	-424.243557	-424.233535	-424.232591	-424.278803	37.033	
C	-0.2003629989	 1.5751944976	-0.0498414144	-0.396613
C	 0.002473856	 0.057720856	 0.0927156144	 0.054007
O	 0.6901574097	-0.2366471077	 1.2781356295	-0.44137
C	-1.3371062042	-0.6867428434	 0.0743792972	 0.366641
O	-1.6735270579	-1.3034079369	 1.0723279866	-0.364445
C	-2.1513903412	-0.6219312542	-1.1589341127	-0.121229
C	-3.1837747443	-1.712199941	-1.4104677723	-0.288976
C	-3.6653032112	-0.3396034051	-1.0926515277	 0.013892
C	-4.3753899959	-0.0192160377	 0.2027317464	-0.419754
H	 0.7726039585	 2.0691656204	 0.0078847778	 0.134941
H	-0.6686941007	 1.8389420859	-1.0026484284	 0.11359
H	-0.8233829012	 1.9509807796	 0.7673739403	 0.127191
H	 0.5832089215	-0.3009794496	-0.7747610793	 0.087014
H	 0.0760236309	-0.7875590673	 1.7917260478	 0.290485
H	-1.6398855942	-0.21229896	-2.0229431658	 0.093036
H	-3.2682899303	-2.0901381657	-2.4230040636	 0.119586
H	-3.2557023291	-2.4573067353	-0.6251701145	 0.141009
H	-4.0069843221	 0.2433066941	-1.9443556328	 0.097398
H	-3.967080018	-0.5965651715	 1.0339283993	 0.155239
H	-4.2902002295	 1.0447005502	 0.4484379864	 0.118021
H	-5.4411409981	-0.2549402983	 0.1104668458	 0.120337
52.029	66.2997	172.415	172.7389	216.8617	226.573	278.7403	304.0878	376.9586	381.1205	420.6006	438.7968	481.6925	668.0014	712.8814	757.2087	810.1486	853.4662	872.322	924.2232	953.5447	980.9084	1041.9695	1071.1774	1086.7001	1096.8299	1105.4262	1122.1804	1147.7232	1185.2466	1209.7501	1238.9078	1276.5595	1353.0741	1392.6169	1397.6733	1413.0827	1424.838	1442.0704	1477.962	1488.3608	1496.8979	1502.4227	1505.2974	1758.2887	2956.3715	3037.2256	3042.9688	3093.4752	3118.6907	3127.0543	3130.9239	3136.4725	3148.1375	3170.2096	3229.9416	3663.2207
CC(O)C(=O)C1CC1C	C[C@@H](O)C(=O)[C@H]1C[C@H]1C	
InChI=1S/C7H12O2/c1-4-3-6(4)7(9)5(2)8/h4-6,8H,3H2,1-2H3	InChI=1S/C7H12O2/c1-4-3-6(4)7(9)5(2)8/h4-6,8H,3H2,1-2H3/t4-,5-,6+/m1/s1
