14
gdb 129381	2.87632	1.54391	1.0057	7.1338	66.68	-0.2466	-0.0369	0.2096	1080.8119	0.102274	-470.014906	-470.007406	-470.006462	-470.047001	28.688	
N	 0.0311007594	 1.3032933972	-0.0609557858	-0.559047
C	 0.0053070092	-0.0719257164	-0.0683392217	 0.302024
N	 1.0334971393	-0.8477208792	-0.1474808164	-0.583984
C	-1.2985448177	-0.7248705271	-0.0319267807	 0.054804
C	-2.5830385418	-0.2776431477	-0.0149231383	-0.031683
O	-3.436372322	-1.2970102215	 0.0260304755	-0.170654
N	-2.7236247561	-2.5162394544	 0.03185359	-0.236954
C	-1.4609512509	-2.1592892733	-0.0077725572	 0.411238
O	-0.4720846017	-3.0358294251	-0.0233473016	-0.400882
H	 0.9206521729	 1.7437621223	 0.1177646912	 0.257403
H	-0.7567762189	 1.7885034305	 0.3376648364	 0.261715
H	 1.9212611308	-0.3509374798	-0.1582814101	 0.216572
H	-3.0308506729	 0.7053152593	-0.0400213691	 0.151262
H	 0.3533704006	-2.4801891449	-0.0838043821	 0.328185
84.1173	188.9258	221.9796	322.6155	360.2158	392.0611	459.4825	467.9291	555.1035	579.7575	655.236	673.8318	752.7671	772.3622	805.4644	832.7075	843.1983	909.5244	921.3948	1085.6764	1131.7549	1179.4719	1202.7929	1313.0351	1367.7169	1458.6361	1534.7298	1576.0298	1634.0051	1666.1858	1722.9773	3190.0254	3244.0587	3507.7874	3584.4703	3695.0067
NC(=N)C1=CON=C1O	NC(=N)c1conc1O	
InChI=1S/C4H5N3O2/c5-3(6)2-1-9-7-4(2)8/h1H,(H3,5,6)(H,7,8)	InChI=1S/C4H5N3O2/c5-3(6)2-1-9-7-4(2)8/h1H,(H3,5,6)(H,7,8)
