18
gdb 55326	2.01751	1.69174	1.0816	2.9322	77.9	-0.245	0.0166	0.2617	1141.6101	0.147094	-401.940043	-401.930993	-401.930049	-401.974593	33.978	
N	 0.4891820102	 0.5545060587	 0.8015048698	-0.514214
C	 0.015937751	 0.1754426553	-0.4285696822	 0.388643
O	 0.5608623619	 0.4990571078	-1.4660425722	-0.355021
C	-1.2907757276	-0.6173259694	-0.3856194443	-0.142418
C	-1.7207149608	-1.1414612755	-1.7766003707	-0.229377
C	-1.1138714018	-2.5242696666	-1.425326152	-0.225504
C	-1.1592040964	-2.12401757	 0.0829706659	-0.162271
C	-0.0982509634	-2.5378862305	 0.9769118426	 0.304846
C	 0.7839281033	-2.8788094954	 1.7218559246	-0.455853
H	 1.425636539	 0.9313863109	 0.8039984236	 0.255988
H	 0.2376124164	 0.0010147483	 1.606324056	 0.25772
H	-2.0249443841	-0.040869758	 0.1840645865	 0.098879
H	-2.8076007049	-1.1757103644	-1.8828117616	 0.097984
H	-1.2796832135	-0.6093492508	-2.6182728279	 0.135226
H	-1.665138884	-3.4235478389	-1.7058760065	 0.105125
H	-0.0829165178	-2.6092836941	-1.7747285521	 0.129483
H	-2.1224768383	-2.4255190622	 0.5083877593	 0.111153
H	 1.5653924311	-3.1977360454	 2.3665250111	 0.199613
31.0515	88.148	131.3279	196.3452	251.9098	305.3672	407.7659	463.2596	496.249	511.5609	553.6311	593.1328	618.7075	637.7576	642.1132	723.6971	756.3842	806.0713	910.2463	947.445	956.5308	1007.1567	1066.9603	1070.4264	1092.6552	1133.4608	1198.0434	1228.034	1249.2673	1268.0246	1275.0671	1284.1691	1341.2901	1393.5998	1475.3239	1492.5644	1631.1272	1794.2337	2224.3558	3044.2572	3067.5052	3075.319	3079.7592	3132.0655	3153.3247	3501.1428	3568.9187	3690.2301
NC(=O)C1CCC1C#C	NC(=O)[C@H]1CC[C@H]1C#C	
InChI=1S/C7H9NO/c1-2-5-3-4-6(5)7(8)9/h1,5-6H,3-4H2,(H2,8,9)	InChI=1S/C7H9NO/c1-2-5-3-4-6(5)7(8)9/h1,5-6H,3-4H2,(H2,8,9)/t5-,6+/m1/s1
