19
gdb 39380	2.4855	1.73145	1.12705	2.4306	77.67	-0.2292	0.0334	0.2626	1085.562	0.161721	-419.166717	-419.159055	-419.158111	-419.198798	30.051	
C	-0.0598147065	 1.5682590118	 0.2417423693	-0.262831
C	 1.1929762963	 0.8181937338	-0.0541862205	-0.009094
C	 2.2670110514	 0.7146093904	 0.9950066237	-0.093578
O	 3.1563728243	-0.3798972128	 0.7849860825	-0.230942
C	 2.7830842874	-1.6919366279	 0.8799180536	 0.13784
N	 1.7199607559	-2.3362950985	 1.037939998	-0.262613
C	 0.3071164322	-2.077431057	 1.1500330073	-0.134656
C	-0.2964238917	-0.6771589925	 1.2839901918	-0.184172
N	-0.0863777895	 0.1198999819	 0.082367893	-0.071443
H	-0.1748460845	 1.9713357075	 1.2481309448	 0.108136
H	-0.5501684365	 2.1472397174	-0.5357033213	 0.120708
H	 1.5804664007	 0.8274575238	-1.0715444643	 0.101703
H	 2.914128838	 1.5951887751	 0.9425322416	 0.121965
H	 1.8501116202	 0.6723208022	 2.0064293846	 0.109345
H	 3.7123051774	-2.2578231747	 0.7773963097	 0.113336
H	-0.1528886646	-2.5469013883	 0.2701540236	 0.130616
H	-0.0442395761	-2.6635214825	 2.0097875783	 0.113317
H	-1.3797130581	-0.8050388503	 1.3998568141	 0.10706
H	 0.0547143735	-0.1886902694	 2.20757376	 0.085302
106.9304	163.5915	220.2529	287.8592	301.3593	384.9365	427.5485	466.0861	538.9614	568.4969	702.3894	741.4524	807.5468	835.7688	877.86	922.354	959.2756	989.7218	1009.5839	1044.9327	1066.2045	1095.705	1098.5957	1117.8055	1155.2197	1167.1614	1186.4244	1260.5121	1283.6757	1313.7156	1334.5982	1373.7321	1391.2586	1397.818	1435.6964	1456.2451	1463.8447	1482.9275	1507.8312	1524.8858	1809.3584	2965.9591	3013.6326	3043.3527	3047.6398	3052.4889	3086.5834	3091.7527	3102.87	3124.2594	3178.4418
C1C2COC=NCCN12	C1[C@H]2COC=NCCN12	
InChI=1S/C6H10N2O/c1-2-8-3-6(8)4-9-5-7-1/h5-6H,1-4H2/b7-5-	InChI=1S/C6H10N2O/c1-2-8-3-6(8)4-9-5-7-1/h5-6H,1-4H2/b7-5-/t6-,8?/m0/s1
