17
gdb 65682	4.02682	0.98311	0.95357	2.9267	68.48	-0.2364	-0.0233	0.2131	1257.8868	0.133699	-458.915105	-458.906605	-458.905661	-458.949051	31.265	
O	-0.3458448627	 1.4940997403	 0.1691841983	-0.48001
C	-0.1467725234	 0.1110336313	 0.1573170097	 0.401951
C	 0.9648670469	-0.2994540433	 1.0993634608	-0.349261
C	 2.3155632894	 0.2398643912	 0.6625024055	 0.159926
O	 3.3368159826	-0.3974970575	 0.6913605564	-0.242962
C	-1.31066508	-0.8617263659	 0.0134052371	-0.201149
C	-2.3279004986	-0.2524273154	-0.9397180959	-0.114494
O	-1.2896707082	 0.0362492647	-1.9289718957	-0.305181
C	-0.3167829387	-0.6439167586	-1.123864287	 0.005316
H	-0.6303368767	 1.7310769843	-0.7253769624	 0.297764
H	 0.7404317111	 0.1174025874	 2.0916011947	 0.14024
H	 1.0363630547	-1.3855917704	 1.2001073714	 0.124879
H	 2.2952115081	 1.2926507825	 0.3095672185	 0.09595
H	-1.4710782641	-1.7093023013	 0.6664257574	 0.106243
H	-3.0424326231	-0.9728251184	-1.3488188109	 0.123512
H	-2.8481871488	 0.6530800178	-0.6098716497	 0.118943
H	 0.4079148314	-1.2760346387	-1.6259685681	 0.118333
48.8385	84.7009	144.222	226.8181	256.032	319.6435	349.8451	443.0555	495.9402	539.5798	608.1656	689.4067	780.5833	811.2219	851.8192	893.0239	941.5983	968.0719	998.1065	1015.3705	1037.1652	1064.0334	1078.4024	1103.917	1130.4217	1164.8006	1198.0304	1233.1504	1272.628	1304.0922	1320.2043	1376.0677	1416.0371	1443.5471	1452.3179	1510.5496	1832.5796	2914.918	3019.7978	3040.8849	3095.2904	3106.6172	3170.0499	3202.1865	3733.1908
OC1(CC=O)C2COC12	O[C@@]1(CC=O)[C@H]2CO[C@@H]12	
InChI=1S/C6H8O3/c7-2-1-6(8)4-3-9-5(4)6/h2,4-5,8H,1,3H2	InChI=1S/C6H8O3/c7-2-1-6(8)4-3-9-5(4)6/h2,4-5,8H,1,3H2/t4-,5+,6-/m0/s1
