17
gdb 123271	2.79985	1.74648	1.49331	2.6534	72.54	-0.232	-0.0234	0.2086	933.113	0.138219	-421.860576	-421.85377	-421.852826	-421.891699	27.578	
C	 0.016030923	 1.3567281449	-0.6247973313	-0.261107
C	 1.3029409335	 2.1436394426	-0.6408095669	-0.062373
C	 2.439590428	 1.6327203231	-0.1635715322	-0.066873
O	 2.4868336393	 0.5545050608	 2.868659599	-0.31047
C	 1.8745735641	 0.3770582709	 1.8530395441	 0.413583
C	 0.3494383929	 0.2517325105	 1.6813084118	-0.350219
C	 0.1901734964	 0.048050847	 0.163372141	 0.070959
O	 1.437178128	-0.5614504882	-0.2228335518	-0.262039
C	 2.4260431445	 0.237030826	 0.4167812459	-0.077444
H	-0.792598713	 1.9538841615	-0.1820527756	 0.110488
H	-0.2991321445	 1.1348278258	-1.6528654673	 0.120702
H	 1.2792866797	 3.1428774335	-1.0670656996	 0.099996
H	 3.3631743927	 2.200362831	-0.1275080866	 0.107013
H	 0.0105600701	-0.6269625954	 2.2381964308	 0.140682
H	-0.1605311158	 1.1267312013	 2.0915792357	 0.133315
H	-0.5998160398	-0.6636216256	-0.0833904561	 0.089018
H	 3.3894521608	-0.2710003496	 0.3709422991	 0.10477
106.8832	194.9743	322.7204	386.1333	431.7609	470.9078	530.9558	551.026	644.5796	688.3452	711.3749	808.2608	841.7134	861.1945	899.1197	913.2982	968.0149	982.0544	992.1355	1026.3862	1045.8972	1065.8704	1137.9234	1155.208	1182.4743	1202.9486	1217.5085	1259.081	1304.1516	1338.0355	1357.9378	1372.568	1404.5692	1447.9444	1470.8981	1697.6263	1862.2507	3016.798	3045.1275	3066.4431	3095.2265	3116.9061	3120.2185	3161.7099	3194.1738
C1C2C3OC22CC1OC32	C1C=C[C@H]2C(=O)C[C@@H]1O2	
InChI=1S/C7H8O2/c1-3-2-7-4(1)5(9-7)6(7)8-3/h3-6H,1-2H2	InChI=1S/C7H8O2/c8-6-4-5-2-1-3-7(6)9-5/h1,3,5,7H,2,4H2/t5-,7+/m1/s1
