17
gdb 45810	2.89437	1.59419	1.0936	2.9611	76.33	-0.2129	0.0157	0.2287	1074.1718	0.139909	-418.041908	-418.034553	-418.033609	-418.073781	29.062	
O	 0.0076621083	-0.1052034844	-0.2643808661	-0.400512
C	-0.0495697035	 1.1054445294	-0.1343444433	 0.411354
N	-1.2093409821	 1.7896117468	-0.4860776638	-0.346411
C	-1.7044562863	 3.0173343185	-0.0456897839	 0.009274
C	-1.0180710131	 4.1160285792	 0.2776711131	-0.124582
C	 0.437334045	 4.3073497176	 0.1217442483	-0.060999
C	 1.4287937713	 4.1701837126	 1.2620499734	-0.303346
C	 1.4096640867	 3.1640627656	 0.1334197523	-0.009353
N	 0.9786483961	 1.8302665643	 0.4265216923	-0.329563
H	-1.8977745569	 1.1262618664	-0.8074076407	 0.256974
H	-2.7884406998	 3.0274535468	 0.0201316451	 0.11019
H	-1.591976719	 4.9742659786	 0.6135999299	 0.092906
H	 0.6961360644	 5.0929895558	-0.5868242491	 0.103859
H	 2.2496530303	 4.8760548988	 1.3215067954	 0.114345
H	 1.0408459396	 3.8195354318	 2.2111609506	 0.12421
H	 2.2200690216	 3.2219168779	-0.5914522716	 0.100326
H	 1.7174197375	 1.2010012642	 0.7086224181	 0.251328
108.1161	125.2341	251.7982	346.0641	371.4722	404.3835	509.0808	541.8189	601.0651	638.3458	707.9192	742.5079	769.6602	778.2623	835.8609	858.4592	882.0203	937.4298	960.4294	1023.4315	1046.7576	1056.636	1093.9152	1133.4477	1144.3143	1188.6528	1250.8391	1296.05	1347.6324	1414.0272	1434.113	1461.2697	1463.9823	1487.1288	1498.3072	1743.5762	1794.2871	3103.3672	3114.6916	3139.2461	3162.0185	3182.5917	3235.3497	3597.3692	3630.114
O=C1NC=CC2CC2N1	O=C1NC=C[C@H]2C[C@H]2N1	
InChI=1S/C6H8N2O/c9-6-7-2-1-4-3-5(4)8-6/h1-2,4-5H,3H2,(H2,7,8,9)	InChI=1S/C6H8N2O/c9-6-7-2-1-4-3-5(4)8-6/h1-2,4-5H,3H2,(H2,7,8,9)/t4-,5+/m0/s1
