17
gdb 125164	3.27781	1.6297	1.10348	2.54	83.3	-0.209	-0.0244	0.1846	1074.2755	0.138685	-380.907153	-380.899654	-380.89871	-380.939969	28.191	
C	-0.0167414203	 1.5538086223	 0.0748731988	-0.511755
C	-0.0260476368	 0.0593992703	-0.0263831557	 0.011891
C	 0.0200068581	-0.7474421906	-1.1559329857	 0.365205
C	 0.0884921973	-0.8009897795	-2.6079179331	-0.211687
C	 0.0946481557	-2.0901916818	-2.9944312488	-0.100125
C	 0.0287387248	-3.0074824237	-1.7888120065	-0.231543
N	-0.013166501	-2.035635605	-0.7136099118	 0.033669
N	-0.0774916009	-2.155420132	 0.6159361285	-0.303566
C	-0.0852216523	-0.8821741073	 1.0317142176	-0.057394
H	 0.8905547136	 1.9920207601	-0.356978651	 0.126374
H	-0.8711807888	 2.0086027358	-0.4397259852	 0.126382
H	-0.0629591773	 1.8666197217	 1.1218260046	 0.127842
H	 0.1274512335	 0.06323434	-3.2559433185	 0.115754
H	 0.1391940337	-2.4655642848	-4.0068376075	 0.114707
H	-0.8642037141	-3.6443526138	-1.7882816394	 0.144478
H	 0.9054670917	-3.6610472178	-1.7042379222	 0.144479
H	-0.1335405867	-0.670133854	 2.0910667858	 0.105287
33.1878	148.9008	214.7482	237.2452	305.5641	446.9184	504.1659	603.6291	647.3004	671.1129	679.6063	761.8858	798.9912	869.1898	876.2603	943.1106	945.3494	982.5202	1001.577	1045.9278	1062.7637	1146.3086	1174.2201	1199.543	1205.2812	1287.5732	1337.5515	1343.2588	1376.7828	1422.4357	1433.4473	1453.6916	1481.5365	1487.2165	1505.031	1591.6105	1638.9227	3025.0868	3032.978	3064.8713	3072.5005	3106.956	3228.0709	3231.6802	3249.0836
CC1=C2C=CCN2N=C1	Cc1c2C=CCn2nc1	
InChI=1S/C7H8N2/c1-6-5-8-9-4-2-3-7(6)9/h2-3,5H,4H2,1H3	InChI=1S/C7H8N2/c1-6-5-8-9-4-2-3-7(6)9/h2-3,5H,4H2,1H3
