14
gdb 27592	3.62527	1.27397	0.94299	0.5907	82.34	-0.2286	-0.0519	0.1767	1161.4859	0.102515	-395.764583	-395.75695	-395.756006	-395.79655	29.271	
N	-0.0191765928	 1.3419180877	-0.1092007827	-0.562496
C	 0.005946732	-0.0183822423	-0.0460620281	 0.434877
N	-1.182541044	-0.6413006655	-0.0323274212	-0.365585
C	-1.1457056824	-1.9794638036	-0.0174345853	 0.174692
C	 0.0595173477	-2.6911416568	-0.0130188032	-0.200969
C	 1.2203696908	-1.9278517551	-0.0147391757	 0.013359
N	 1.2217269203	-0.5984877964	-0.0292758246	-0.309247
C	-2.3960280502	-2.675473016	-0.0022023971	 0.214781
C	-3.4301372239	-3.2899890839	 0.0107839668	-0.354316
H	 0.8365591462	 1.8276226978	 0.0975140487	 0.26396
H	-0.8929952633	 1.7967475509	 0.0923989803	 0.265069
H	 0.0778178027	-3.7719713273	 0.0003675546	 0.11001
H	 2.1969179754	-2.4077410237	-0.0011070882	 0.116415
H	-4.3502497986	-3.8205695658	 0.0215904656	 0.19945
132.4542	146.4231	185.7608	344.7101	362.2686	385.071	476.2968	484.5024	515.6402	567.9579	602.6518	640.6896	649.0993	723.1539	757.4629	821.0446	846.186	967.0978	1004.4475	1006.6804	1070.0835	1145.8199	1257.3346	1273.1187	1369.5857	1467.143	1485.3925	1583.0024	1610.7464	1638.8759	2234.1012	3150.4761	3229.357	3501.6908	3615.4597	3747.3049
NC1=NC(=CC=N1)C#C	Nc1nc(ccn1)C#C	
InChI=1S/C6H5N3/c1-2-5-3-4-8-6(7)9-5/h1,3-4H,(H2,7,8,9)	InChI=1S/C6H5N3/c1-2-5-3-4-8-6(7)9-5/h1,3-4H,(H2,7,8,9)
