17
gdb 49005	2.48462	1.51449	1.11542	3.4773	73.68	-0.25	-0.0412	0.2088	1095.2838	0.13453	-421.829079	-421.820954	-421.820009	-421.862412	30.177	
O	-0.3530523409	 0.1361431104	-0.0264630742	-0.252427
C	-0.0505421938	 1.2683756233	 0.2602851761	 0.071855
C	 1.2924030339	 1.8796563327	 0.023207781	 0.252352
C	 1.7401041875	 3.0555840357	 0.9355871435	-0.298013
C	 2.0022339696	 3.9653253611	-0.2977399436	-0.225766
C	 1.519415131	 2.8292117947	-1.2489411881	-0.205001
C	 2.6546868952	 1.8817682361	-1.6642636513	 0.420863
O	 3.4368252482	 1.9018071324	-2.5685247228	-0.292796
C	 2.4122038535	 0.9348852558	-0.4805368103	-0.421279
H	-0.7983083885	 1.9611874283	 0.7119383288	 0.075126
H	 0.9314351078	 3.4246762269	 1.5732512096	 0.114375
H	 2.6002136082	 2.8351798598	 1.5721449389	 0.114876
H	 1.3620028	 4.8484561072	-0.3337356695	 0.121167
H	 3.0339828254	 4.2866820889	-0.456948526	 0.125453
H	 0.7533545215	 3.0629917985	-1.9891151413	 0.105464
H	 3.2607624213	 0.7446590848	 0.1819858673	 0.129867
H	 1.9946383699	-0.0232234566	-0.8098814981	 0.163884
59.4011	89.6608	172.7676	234.9364	267.4924	326.7635	433.0541	487.0072	534.4	575.9884	708.5503	725.3837	766.6558	830.9312	856.826	889.4625	938.7453	966.9287	999.4672	1019.9828	1060.3183	1079.3268	1117.496	1139.7979	1192.2401	1212.1295	1225.263	1243.1508	1272.3696	1277.5736	1319.7904	1424.4218	1428.4512	1477.1918	1494.5357	1811.3917	1892.2054	2860.6329	3053.3059	3055.9892	3073.1282	3103.7983	3110.9687	3113.7587	3128.2167
O=CC12CCC1C(=O)C2	O=C[C@]12CC[C@H]1C(=O)C2	
InChI=1S/C7H8O2/c8-4-7-2-1-5(7)6(9)3-7/h4-5H,1-3H2	InChI=1S/C7H8O2/c8-4-7-2-1-5(7)6(9)3-7/h4-5H,1-3H2/t5-,7+/m0/s1
