12
gdb 130717	3.18792	1.50115	1.11479	2.3847	65.93	-0.2731	-0.1032	0.1699	999.9364	0.078583	-468.814856	-468.807787	-468.806843	-468.846879	25.731	
O	 0.0862166705	 0.0190869223	-0.4791167137	-0.332795
C	 0.0371535487	 1.1908320228	-0.1719645823	 0.400255
N	-1.1849887026	 1.8513010215	-0.1130357935	-0.280772
N	-1.5667110029	 3.084288797	 0.3100569361	-0.136369
C	-0.7654011605	 4.0827679173	 0.3291658201	-0.06291
C	 0.6287799042	 4.1415025832	-0.2139731426	 0.344554
O	 0.9633249239	 5.0407061636	-0.9441205448	-0.286514
N	 1.5367401999	 3.1644054229	 0.2220947398	-0.201523
C	 1.2765860465	 1.9231736076	 0.2566934542	-0.051297
H	-1.9714339378	 1.2265503517	-0.2392802367	 0.284056
H	-1.1973105666	 5.0294330867	 0.6419094596	 0.158187
H	 2.0464241267	 1.2370358235	 0.6134366138	 0.165128
78.8109	123.7424	268.3393	310.1112	370.557	447.6906	460.2046	546.4359	628.463	678.9222	699.4432	737.6768	781.6796	878.3194	890.9794	903.3392	979.7985	1120.7004	1199.8844	1306.6871	1358.7274	1388.2612	1465.3391	1670.5509	1727.9872	1777.9394	1799.333	3130.232	3177.0996	3586.5708
O=C1NN=CC(=O)N=C1	O=c1[nH]ncc(=O)nc1	
InChI=1S/C4H3N3O2/c8-3-2-6-7-4(9)1-5-3/h1-2H,(H,7,9)	InChI=1S/C4H3N3O2/c8-3-2-6-7-4(9)1-5-3/h1-2H,(H,7,9)
