14
gdb 24241	4.06745	1.61531	1.25721	2.5391	65.79	-0.2344	-0.0059	0.2286	929.2386	0.103801	-436.686863	-436.680865	-436.679921	-436.717246	23.865	
C	-0.0768609706	 1.5118430802	-0.0038087602	-0.391664
C	 1.4310466566	 1.8683367886	-0.0200194509	 0.058865
O	 2.1749001822	 1.4329932222	 1.1133100587	-0.247511
C	 2.2653323524	 0.6407550897	-0.0951659718	-0.125185
C	 1.2858017515	-0.4720849022	-0.1069440792	 0.262743
C	 0.032676241	 0.0232146987	-0.0405687849	 0.300677
O	-0.8382728087	-1.0098277617	 0.076040724	-0.192591
C	-0.0169411714	-2.1085230734	 0.043013021	 0.035504
N	 1.2508795725	-1.8553466214	-0.0580670642	-0.342075
H	-0.5634328269	 1.8940817529	 0.9000359517	 0.144114
H	-0.5935793665	 1.9400409772	-0.8707256477	 0.127483
H	 1.7401192158	 2.8187125994	-0.4464326915	 0.105657
H	 3.244373257	 0.5995504507	-0.559114279	 0.111556
H	-0.5075084849	-3.0674054708	 0.0936828041	 0.152426
161.0594	232.3689	356.622	428.2096	467.8383	603.1968	647.9771	713.9123	742.1286	783.3504	810.8337	852.0023	855.7359	884.7981	947.5686	981.5434	1025.5642	1071.9878	1091.086	1126.0752	1175.7119	1234.5559	1253.8299	1276.4962	1287.2667	1349.9499	1403.3798	1424.0361	1469.9683	1522.9884	1641.0652	3039.1696	3080.9418	3152.6869	3185.0473	3282.4819
C1C2OC2C2=C1OC=N2	C1[C@H]2O[C@H]2c2c1ocn2	
InChI=1S/C6H5NO2/c1-3-5(7-2-8-3)6-4(1)9-6/h2,4,6H,1H2	InChI=1S/C6H5NO2/c1-3-5(7-2-8-3)6-4(1)9-6/h2,4,6H,1H2/t4-,6-/m1/s1
