17
gdb 126481	2.58449	1.51892	0.96792	2.225	79.76	-0.238	-0.0455	0.1925	1191.4291	0.136253	-417.994591	-417.986386	-417.985442	-418.027768	30.723	
C	-0.1312642423	 1.50691494	-0.0546354594	-0.384554
C	-0.0251222341	-0.0099107612	 0.0879275856	-0.243168
C	 0.7848583205	-0.5021287567	 1.2587021016	 0.322734
N	 1.3023938992	 0.3977453164	 2.0221490026	-0.141572
O	 2.063283141	-0.018982505	 3.1231302826	-0.244503
C	 2.2362785808	-1.3289143608	 3.35828025	 0.098891
C	 1.7250474384	-2.3125008621	 2.6026738879	-0.235781
C	 0.9268703883	-1.9672247417	 1.4464785158	 0.236426
N	 0.3536910768	-2.7516005557	 0.603980925	-0.526661
H	 0.852749468	 1.9675020488	-0.1746500861	 0.129345
H	-0.7364885898	 1.7538769175	-0.9314591303	 0.109881
H	-0.5972773139	 1.9600603842	 0.8241630877	 0.129445
H	-1.0164447819	-0.4723434102	 0.1694062523	 0.137808
H	 0.4061019338	-0.4653865342	-0.8118675905	 0.13794
H	 2.8460089435	-1.4772369589	 4.2429626848	 0.146695
H	 1.9110212406	-3.3484731777	 2.8601385001	 0.114348
H	 0.531057091	-3.7282611428	 0.8499442404	 0.212725
67.4978	103.1552	198.8169	214.2025	290.1249	340.5457	428.9347	463.458	494.136	521.4242	594.7187	725.2037	729.1832	786.9087	830.4333	873.2725	890.5179	905.6318	960.9127	995.7614	1040.62	1090.471	1102.6304	1135.7554	1202.178	1256.5615	1274.2825	1358.8712	1398.304	1416.1537	1446.798	1456.6152	1493.6665	1500.4982	1633.5831	1642.782	1698.5274	3042.5946	3049.4542	3063.8748	3119.7297	3124.758	3192.914	3212.0486	3439.6999
CCC1=NOC=CC1=N	CCC1=NO[CH]C=C1[NH]	
InChI=1S/C6H8N2O/c1-2-6-5(7)3-4-9-8-6/h3-4,7H,2H2,1H3	InChI=1S/C6H8N2O/c1-2-6-5(7)3-4-9-8-6/h3-4,7H,2H2,1H3
