21
gdb 77758	2.42125	1.62381	1.12818	3.0555	83.45	-0.2361	0.0157	0.2519	1158.3656	0.180717	-387.065974	-387.056748	-387.055804	-387.099141	35.819	
C	-0.2120720453	 1.5517544822	 0.7565071513	-0.445458
C	-0.0661535015	 0.0614881513	 0.486788026	 0.019108
C	 1.0750839333	-0.465369836	-0.460829842	-0.21356
C	 1.9847328281	-0.1197948207	 0.7293796068	 0.439072
O	 3.0075207788	 0.4413895374	 0.9769327872	-0.34485
C	 0.8185914596	-0.8331849294	 1.4327053311	-0.213556
C	 0.93292354	-1.8779260239	 0.2453909933	 0.337253
C	-0.2870432109	-2.7407977673	-0.0874584341	-0.473185
C	 2.178687179	-2.7682207391	 0.2411881892	-0.470962
H	 0.7453103979	 2.0321040597	 0.9794625517	 0.140265
H	-0.6476737845	 2.0580638191	-0.1116400367	 0.120865
H	-0.880411097	 1.7242187451	 1.6070110832	 0.120866
H	-1.0362746084	-0.3816622777	 0.2693080491	 0.078587
H	 1.2121049153	-0.2597355252	-1.5218956785	 0.081292
H	 0.6684007434	-1.0394023005	 2.4918741481	 0.081292
H	-1.2371309281	-2.2064462378	-0.1129196551	 0.12215
H	-0.1495974568	-3.2136022727	-1.0660794666	 0.121886
H	-0.3824973885	-3.5460331134	 0.6491697941	 0.121892
H	 2.0778674014	-3.5733268038	 0.9776539755	 0.118278
H	 2.3107971851	-3.239266145	-0.7393251183	 0.118286
H	 3.093226239	-2.2161630923	 0.4726677145	 0.14048
155.8341	157.0852	176.1728	200.0285	219.1246	229.5984	262.3848	398.2824	400.1325	434.123	483.4047	506.1176	620.9509	703.072	715.6127	756.0099	787.3195	836.0361	944.1274	950.5036	966.9724	1013.2731	1018.6798	1043.5158	1058.5953	1098.1127	1102.2436	1112.0671	1158.7937	1164.8625	1223.2518	1231.8095	1237.1603	1289.3165	1380.4506	1415.4206	1420.9772	1433.8923	1481.4928	1491.4885	1495.6735	1498.8056	1507.0204	1513.568	1907.0992	3030.2206	3033.1565	3039.0037	3087.6836	3093.5661	3095.3487	3105.6857	3117.0129	3123.2007	3125.5588	3130.8702	3143.9534
CC1C2C(=O)C1C2(C)C	C[C@H]1[C@H]2C(=O)[C@@H]1C2(C)C	
InChI=1S/C8H12O/c1-4-5-7(9)6(4)8(5,2)3/h4-6H,1-3H3	InChI=1S/C8H12O/c1-4-5-7(9)6(4)8(5,2)3/h4-6H,1-3H3/t4-,5-,6+
