19
gdb 90552	4.45056	0.93302	0.87037	1.5484	75.94	-0.247	-0.0249	0.2221	1336.1792	0.158579	-423.001858	-422.993279	-422.992335	-423.035965	32.038	
O	 0.4849917186	 0.5190186757	-1.1328022943	-0.427503
C	-0.013660169	-0.3702174222	-0.1694697113	 0.153508
C	 0.3119321511	-0.1534236261	 1.3407955688	-0.295896
C	-1.1732773747	-0.4568865834	 1.6914348258	-0.034918
C	-2.0231653508	 0.825475149	 1.9442373145	-0.076494
C	-2.2142137725	 0.9600162385	 0.3930682078	-0.277228
C	-1.5282901197	-0.4123444482	 0.1599981364	-0.049547
C	-3.3150361512	 0.5363011691	 2.6576072101	 0.155412
O	-3.6983793045	 1.0957624395	 3.6528449322	-0.256232
H	 0.2793664396	 1.4178114799	-0.8552576675	 0.281035
H	 0.3175496433	-1.3611936075	-0.4937535458	 0.096598
H	 1.0557463701	-0.8318311884	 1.7634750637	 0.111849
H	 0.614228509	 0.8718277237	 1.5798117119	 0.098465
H	-1.3554117231	-1.3232477767	 2.3278540242	 0.076954
H	-1.5134382493	 1.6439538967	 2.4582594052	 0.088816
H	-3.2588021431	 1.0003473883	 0.0741161703	 0.118215
H	-1.7090944112	 1.8240900732	-0.0487404518	 0.095487
H	-2.1316948938	-1.1634678658	-0.3507928217	 0.07166
H	-3.9246958788	-0.2724128153	 2.1856964312	 0.069819
44.8792	68.6891	163.5578	226.9882	275.5953	313.7364	366.6846	393.8823	460.3368	530.8911	644.3072	740.7327	766.1094	833.1754	859.8532	897.1285	909.4422	936.302	994.8957	1004.6975	1032.2381	1060.4731	1089.797	1103.9991	1130.2298	1154.6939	1183.2158	1209.2278	1224.8722	1242.1381	1260.9912	1267.0569	1288.6264	1302.1271	1321.0965	1332.7143	1432.0674	1433.2613	1478.2273	1485.1589	1829.6391	2836.8875	3047.671	3053.0104	3065.7459	3083.2929	3093.8425	3100.753	3106.3739	3116.6902	3810.23
OC1CC2C(CC12)C=O	O[C@H]1C[C@H]2[C@@H](C[C@@H]12)C=O	
InChI=1S/C7H10O2/c8-3-4-1-6-5(4)2-7(6)9/h3-7,9H,1-2H2	InChI=1S/C7H10O2/c8-3-4-1-6-5(4)2-7(6)9/h3-7,9H,1-2H2/t4-,5-,6+,7-/m0/s1
