20
gdb 102743	2.83535	0.94821	0.75091	2.2841	82.04	-0.2415	0.0448	0.2863	1515.0497	0.169088	-403.071897	-403.062017	-403.061072	-403.107187	36.185	
O	 0.7533990011	 0.2613849845	 0.9266939561	-0.421508
C	-0.0437680632	 0.4149307309	-0.2263305595	-0.056749
C	-1.4341576067	-0.2469484547	-0.0759402789	-0.183339
C	-2.3125125909	-0.0931169327	-1.3357640427	-0.156659
N	-2.6109806105	 1.3086926567	-1.6009995298	-0.065538
C	-1.8235727984	 1.9756328715	-2.6365189655	-0.220479
C	-3.2384133627	 1.5922429084	-2.8872183407	-0.225853
C	-1.2655329458	-1.6592718046	 0.2609670389	 0.296886
C	-1.0751279868	-2.8185572884	 0.5218336136	-0.46247
H	 0.8097336891	-0.6847282084	 1.10797339	 0.284469
H	-0.1738124111	 1.4898451816	-0.3706884931	 0.123901
H	 0.4510586859	 0.0050428143	-1.1224006801	 0.084732
H	-1.9473000255	 0.2569688295	 0.7524070919	 0.124462
H	-1.8217243627	-0.5921308799	-2.1907437525	 0.091623
H	-3.2597915006	-0.6138329147	-1.1614669292	 0.118187
H	-1.5568685378	 3.0091901647	-2.4357452476	 0.121856
H	-1.0553906145	 1.3956697937	-3.1456234749	 0.114146
H	-3.4123704992	 0.7569717565	-3.5640437086	 0.111851
H	-4.0264226711	 2.3396140132	-2.8734064399	 0.120363
H	-0.9362383187	-3.844032672	 0.7611997725	 0.20012
62.9682	91.4006	116.252	125.0452	179.5649	255.4433	274.036	340.6556	388.6495	414.0262	470.7794	525.5891	591.4615	629.077	659.0394	773.7535	813.5286	838.6135	897.5645	919.1367	1023.8402	1030.8601	1053.6576	1075.1564	1093.1185	1109.2392	1122.3364	1128.2792	1175.5887	1182.3288	1211.3541	1255.7294	1313.4919	1322.5069	1336.6045	1382.832	1394.0727	1430.3841	1485.5474	1494.8875	1509.404	1522.3919	2226.1452	2943.3322	2967.4723	3041.2385	3069.78	3094.4852	3099.0633	3106.9882	3178.4478	3192.8436	3501.0669	3779.9356
OCC(CN1CC1)C#C	OC[C@@H](CN1CC1)C#C	
InChI=1S/C7H11NO/c1-2-7(6-9)5-8-3-4-8/h1,7,9H,3-6H2	InChI=1S/C7H11NO/c1-2-7(6-9)5-8-3-4-8/h1,7,9H,3-6H2/t7-/m1/s1
