16
gdb 9176	8.65477	0.85196	0.7832	1.9084	68.35	-0.2564	0.0102	0.2667	1445.2163	0.128759	-417.100759	-417.091395	-417.090451	-417.135711	31.003	
C	 0.1469101998	 1.3676389099	 0.0718515702	-0.332899
N	-0.0820921439	-0.0619674072	 0.0417129692	-0.358389
C	-1.3231087819	-0.5974524513	 0.0292652805	 0.536228
O	-2.372519381	 0.0007932782	 0.0411088131	-0.397937
O	-1.2015076194	-1.9746050465	 0.0001451461	-0.250306
C	-2.3615797335	-2.7024445707	-0.0161743933	 0.120558
N	-2.2843387139	-3.9539952217	-0.0427043749	-0.203581
C	-3.5339563539	-4.6894103318	-0.0593771982	-0.317193
H	 0.7041203814	 1.6995263531	-0.8108828478	 0.132944
H	-0.826892806	 1.857956863	 0.0804764054	 0.173306
H	 0.7013900315	 1.6623744068	 0.9693480357	 0.132945
H	 0.6941190751	-0.7027277706	 0.0292009723	 0.26334
H	-3.262755639	-2.0851669798	-0.0038006695	 0.133209
H	-4.4313038463	-4.0514590027	-0.0466012831	 0.104757
H	-3.5699471024	-5.3220769306	-0.9531057289	 0.131511
H	-3.5715049866	-5.3595264782	 0.8065576132	 0.131507
58.9028	80.4746	95.6885	133.2568	148.8693	214.7711	275.681	323.7194	385.2914	399.2332	497.0564	596.5006	741.5365	769.1844	942.7685	994.57	1064.7818	1090.2185	1142.4872	1159.0167	1161.0858	1176.5243	1219.9654	1243.1271	1368.5405	1448.1534	1448.7181	1481.7702	1497.4003	1497.8488	1502.5009	1566.6698	1781.5617	1840.3949	2981.2053	3031.6803	3066.5506	3084.2964	3084.7231	3110.651	3156.6327	3654.4743
CNC(=O)OC=NC	CNC(=O)OC=NC	
InChI=1S/C4H8N2O2/c1-5-3-8-4(7)6-2/h3H,1-2H3,(H,6,7)	InChI=1S/C4H8N2O2/c1-5-3-8-4(7)6-2/h3H,1-2H3,(H,6,7)
