15
gdb 35410	3.11973	1.65715	1.3696	6.2373	68.13	-0.247	0.0147	0.2618	931.4594	0.113564	-416.72841	-416.721514	-416.72057	-416.759832	26.911	
N	-0.2103850464	-1.1827165783	-0.2550222681	-0.334927
C	-0.0999359217	-0.0456304647	-0.081704524	 0.328159
C	 0.0158563913	 1.4068989588	 0.0585898913	-0.157394
N	-0.1644162344	 1.9398071281	 1.4380742093	-0.294237
C	 1.1030951635	 2.7018464826	 1.3524348902	-0.061407
C	 2.3388464194	 1.9639518561	 1.953693124	 0.034729
O	 2.1451342978	 0.5698401738	 1.7326145778	-0.206522
C	 2.6337580175	 1.3413059485	 0.6420587902	 0.014586
C	 1.437548396	 2.0630128238	-0.0223718114	-0.089342
H	-0.6552764701	 1.865192055	-0.6778561764	 0.119735
H	-0.994749099	 2.5093823311	 1.5431005057	 0.231473
H	 1.0637572202	 3.7816255321	 1.501347102	 0.0862
H	 2.9849762959	 2.250485988	 2.7756896558	 0.11356
H	 3.5642317985	 1.0275455224	 0.1844019515	 0.117965
H	 1.6627338014	 2.6563294027	-0.9060025881	 0.097421
104.0804	145.1442	263.92	302.7693	428.3628	519.0068	546.3774	587.6631	693.9639	715.5091	789.4593	815.2474	834.7407	875.7573	880.5043	938.5892	964.5416	997.1165	1003.5596	1035.5807	1048.0964	1080.7767	1133.3846	1187.575	1203.8596	1225.6034	1252.4422	1256.303	1313.7598	1350.4434	1382.1421	1398.0189	2358.6505	3029.4961	3105.5881	3141.206	3181.0283	3198.2988	3560.429
N#CC1NC2C3OC3C12	N#C[C@H]1N[C@H]2[C@H]3O[C@H]3[C@@H]12	
InChI=1S/C6H6N2O/c7-1-2-3-4(8-2)6-5(3)9-6/h2-6,8H	InChI=1S/C6H6N2O/c7-1-2-3-4(8-2)6-5(3)9-6/h2-6,8H/t2-,3+,4-,5+,6-/m1/s1
