19
gdb 117092	3.1641	0.86328	0.68735	2.3954	77.28	-0.2414	-0.0508	0.1906	1643.814	0.156075	-456.349961	-456.339215	-456.338271	-456.386425	37.029	
C	-0.0074342035	 1.3646806491	-0.0716306129	-0.223041
O	-0.021881247	-0.0430202258	-0.0396599172	-0.218437
C	 0.5991754947	-0.609568879	-1.1557197381	-0.159947
C	 0.5444472154	-2.1223261886	-1.048385064	 0.326703
O	 0.0291617977	-2.7083678783	-0.1242585648	-0.306233
C	 1.1877202651	-2.899964215	-2.179378947	 0.274345
N	 1.0037400009	-4.2492036942	-2.0655503804	-0.551311
N	 1.7907918881	-2.2464718474	-3.1004407719	-0.282983
C	 2.3977237628	-3.0129618853	-4.1722625289	-0.342913
H	 1.0191985843	 1.7639559668	-0.0867177097	 0.105018
H	-0.5405881226	 1.7603156273	-0.9507560193	 0.105151
H	-0.5097317417	 1.7135584094	 0.8334792646	 0.131066
H	 0.1182389174	-0.3115015577	-2.1025261832	 0.124401
H	 1.6539966446	-0.3049834614	-1.2532799027	 0.127404
H	 0.6330454142	-4.5577072234	-1.1785133575	 0.272068
H	 1.5978781575	-4.8819277432	-2.5721651754	 0.259712
H	 2.837039775	-2.334901385	-4.907397189	 0.127943
H	 3.2027180276	-3.6719253247	-3.8068137641	 0.111653
H	 1.6647944097	-3.6513266936	-4.6902209883	 0.1194
70.2059	74.829	101.2855	122.0941	145.3526	190.9442	235.9906	237.934	317.9527	329.3099	355.0592	401.8018	502.3054	508.4129	575.2025	695.007	719.0636	839.2081	984.2342	1006.7664	1009.4458	1094.7208	1100.0032	1123.5326	1173.0804	1184.5634	1202.2275	1234.4846	1241.4376	1354.9683	1416.494	1432.4931	1458.469	1486.8703	1488.3931	1490.3529	1502.1592	1512.6513	1601.1564	1729.2796	1806.0176	2963.1654	2966.4624	2977.7706	2995.5313	3010.4253	3014.3981	3106.6378	3118.4792	3581.7103	3718.8423
COCC(=O)C(N)=NC	COCC(=O)C(=NC)N	
InChI=1S/C5H10N2O2/c1-7-5(6)4(8)3-9-2/h3H2,1-2H3,(H2,6,7)	InChI=1S/C5H10N2O2/c1-7-5(6)4(8)3-9-2/h3H2,1-2H3,(H2,6,7)
