14
gdb 127561	3.15864	1.47974	1.01412	5.0952	72.05	-0.2289	-0.0529	0.176	1092.5447	0.101602	-470.006044	-469.998226	-469.997282	-470.038993	28.371	
C	 0.0666770264	 1.4678919108	 0.0305572459	-0.304487
N	 0.0423456785	 0.0126104391	-0.0038606896	 0.130357
N	-0.0366521891	-0.5813171337	-1.1759505834	-0.188482
C	-0.0580826748	-1.891401524	-1.1978726787	-0.080668
C	-0.0010909575	-2.7388902405	-0.0225299811	 0.237609
O	-0.0196919891	-3.9602196439	-0.0179582454	-0.367853
C	 0.0842193085	-1.9069332964	 1.1943416537	 0.369127
O	 0.144300239	-2.5435070411	 2.3660669092	-0.377334
N	 0.1038361851	-0.6050669755	 1.1877238442	-0.337756
H	 0.9914347322	 1.8143588928	 0.4994413249	 0.152534
H	 0.0108426191	 1.8190314998	-0.997618203	 0.167019
H	-0.7849444634	 1.8415635094	 0.6051673071	 0.152533
H	-0.1234873589	-2.3537115048	-2.1766860933	 0.140596
H	 0.1961130039	-1.8733414222	 3.0630700298	 0.306806
56.1342	109.9743	186.5388	303.0579	337.8905	340.1184	435.8416	477.78	554.0706	556.9563	590.942	598.5149	722.6723	796.0293	822.0533	917.804	969.3874	1067.7545	1149.8179	1191.326	1252.9255	1284.5942	1347.906	1386.6126	1445.5224	1477.248	1485.6034	1512.9085	1552.9103	1603.314	1749.29	3054.358	3119.5455	3185.2731	3198.969	3756.6931
CN1N=CC(=O)C(O)=N1	Cn1ncc(=O)c(O)n1	
InChI=1S/C4H5N3O2/c1-7-5-2-3(8)4(9)6-7/h2H,1H3,(H,6,9)	InChI=1S/C4H5N3O2/c1-7-5-2-3(8)4(9)6-7/h2H,1H3,(H,6,9)
