19
gdb 8536	3.97082	1.88187	1.53358	1.8598	76.02	-0.2246	0.0919	0.3165	905.5753	0.165339	-327.83768	-327.830292	-327.829347	-327.868746	29.225	
C	-0.1006828476	 1.5971105808	-0.01877672	-0.426747
C	-0.0441237116	 0.0774015394	-0.0125282121	-0.000801
C	 1.1735238284	-0.6300334098	-0.6295508907	-0.052299
N	 2.0740220701	-0.2561488468	 0.579523797	-0.163617
C	 2.5035675662	-1.7126881003	 0.6907886119	-0.227406
C	 1.0438624684	-1.8977084918	 0.2801536549	 0.317664
C	 0.2491580021	-3.1572943637	 0.0492625447	-0.525819
C	 0.6773139512	-0.6412422782	 1.1393961626	-0.052293
H	 0.8687399549	 2.0199678732	 0.2558847084	 0.141701
H	-0.373353156	 1.9745499808	-1.0104829042	 0.111777
H	-0.8506546321	 1.9637848941	 0.6907173685	 0.111776
H	-1.0064338848	-0.3703917278	-0.2853015263	 0.066504
H	 1.5741996677	-0.5800558926	-1.6454309585	 0.073102
H	 3.2831690768	-1.9939044508	-0.0267205853	 0.093845
H	 2.7972151245	-2.0048721687	 1.7057169629	 0.093845
H	 0.2172402767	-3.7720247632	 0.9557140901	 0.121916
H	-0.7833162213	-2.933059683	-0.2396719297	 0.121836
H	 0.6961414517	-3.761896454	-0.7477500642	 0.121915
H	 0.4910328248	-0.6045332478	 2.2159665601	 0.0731
180.5614	194.9302	220.2237	235.219	295.7578	323.5788	447.0426	526.9594	629.7114	720.5836	747.4475	848.8764	852.8978	856.7113	864.6895	901.552	934.2387	1012.0631	1025.3308	1037.9666	1078.7488	1092.9474	1102.6806	1107.7491	1159.7477	1165.7725	1195.7994	1227.4981	1231.7529	1243.8979	1290.0154	1341.7628	1395.3838	1407.0351	1409.9148	1486.5561	1491.5006	1496.2706	1503.5277	1520.6399	3022.6562	3026.243	3032.3684	3042.8319	3076.9145	3079.9031	3084.1342	3090.9363	3092.1886	3095.5784	3126.2511
CC1C2N3CC2(C)C13	C[C@H]1[C@H]2N3C[C@@]2(C)[C@H]13	
InChI=1S/C7H11N/c1-4-5-7(2)3-8(5)6(4)7/h4-6H,3H2,1-2H3	InChI=1S/C7H11N/c1-4-5-7(2)3-8(5)6(4)7/h4-6H,3H2,1-2H3/t4-,5+,6-,7+
