18
gdb 79036	4.66272	1.35134	1.28648	2.5642	74.53	-0.2272	0.082	0.3092	1005.3137	0.150365	-401.863102	-401.856551	-401.855607	-401.893641	27.85	
O	-0.0506352219	 1.4409203809	-0.096147484	-0.44403
C	 0.0064494131	 0.0363874461	 0.0006909845	 0.119353
C	 0.0122339295	-0.6268159626	 1.3975016552	-0.123129
C	-1.4916159702	-0.1820798907	 1.5853894	-0.009539
C	-2.1992021245	-1.2824255064	 2.3638604954	-0.073228
N	-3.0322302819	-2.1657765869	 1.5014908156	-0.337558
C	-1.6056571943	-2.4940728937	 1.7670843282	-0.066083
C	-0.6537202717	-1.8944743509	 0.7413194207	-0.026029
C	-1.3610688849	-0.6567765128	 0.0968990601	-0.064966
H	 0.8410791159	 1.7854523787	 0.0115193911	 0.28182
H	 0.7062169175	-0.3866721506	-0.7335527581	 0.05846
H	 0.8047133399	-0.6167735721	 2.14997586	 0.061395
H	-1.7173300803	 0.8617000836	 1.7879617438	 0.080055
H	-2.4327584394	-1.1816781049	 3.4175683374	 0.08589
H	-3.6112756113	-2.7472862985	 2.1064352166	 0.223545
H	-1.349539462	-3.3833791324	 2.3312955433	 0.086494
H	-0.0550481138	-2.5558359575	 0.1131956838	 0.06206
H	-2.1524226696	-0.6788971594	-0.6488426537	 0.085491
216.7228	232.8524	276.445	346.0834	421.4756	506.5699	592.0935	705.8269	716.88	772.9041	795.0241	820.99	857.0126	886.7399	893.6226	919.7505	930.5076	958.9106	981.2053	995.3698	1012.1049	1068.6088	1095.2356	1110.0057	1114.3371	1123.6264	1134.8258	1160.6129	1184.4344	1199.7339	1215.4262	1236.4247	1263.9039	1270.3292	1311.6362	1345.8185	1347.8592	1401.2353	1443.5072	3003.196	3079.848	3104.3516	3142.6936	3154.5298	3173.1666	3184.0056	3471.4078	3822.8268
OC1C2C3C4NC4C2C13	O[C@H]1[C@H]2[C@@H]3[C@H]4N[C@H]4[C@H]2[C@H]13	
InChI=1S/C7H9NO/c9-7-3-1-4(7)2(3)6-5(1)8-6/h1-9H	InChI=1S/C7H9NO/c9-7-3-1-4(7)2(3)6-5(1)8-6/h1-9H/t1-,2+,3-,4+,5-,6+,7-/m1/s1
