19
gdb 114335	2.70086	1.48239	1.25704	2.2983	71.03	-0.2514	0.077	0.3284	1076.0704	0.1593	-460.136531	-460.128163	-460.127219	-460.16942	31.989	
C	 0.0167453253	 1.681798475	 0.0912838434	-0.436327
C	 0.1316881114	 0.1809754819	-0.0330027802	-0.061114
C	 1.4423882043	-0.5602585629	-0.2286891771	 0.0294
O	 2.6389852381	 0.1298370354	 0.0701966791	-0.285853
C	 2.8081420859	 0.0200492577	 1.4817872994	 0.213219
C	 3.5885773876	 1.2265795922	 1.9863669066	-0.094971
O	 3.114520301	 2.4446634715	 1.4607752612	-0.405021
O	 1.5021338332	-0.0357060884	 2.0300176975	-0.265359
C	 0.7040784062	-0.6911216721	 1.0689457942	 0.028679
H	 0.0984385368	 2.1625219192	-0.8894566824	 0.114166
H	-0.9567331631	 1.9503808079	 0.514195307	 0.119446
H	 0.788019634	 2.0879172733	 0.7462098313	 0.156454
H	-0.6888447698	-0.2994183089	-0.564372518	 0.089984
H	 1.5521470494	-1.3504481158	-0.9634775589	 0.104312
H	 3.3488904412	-0.9139845874	 1.7184577521	 0.07128
H	 3.4942256015	 1.2727117259	 3.0751162457	 0.127992
H	 4.650887655	 1.0646048469	 1.7441578066	 0.097627
H	 3.0386304534	 2.3091355731	 0.5081402883	 0.293524
H	 0.2126453488	-1.5926121344	 1.4194485841	 0.102561
107.5276	120.9744	196.6649	214.8593	231.0582	304.9702	316.363	458.9013	476.6497	593.7587	685.3149	733.1591	756.7288	767.0483	776.6176	867.8008	890.5389	906.1469	1008.0795	1015.7304	1048.415	1074.1779	1087.587	1106.4373	1112.8226	1139.5702	1144.6123	1158.391	1218.9538	1242.2716	1303.4534	1348.8097	1368.6836	1381.5147	1413.881	1421.8907	1424.1381	1443.9493	1490.5618	1501.9739	1514.8756	2942.3008	2988.3421	3039.3231	3095.1384	3096.5359	3118.1615	3153.5271	3158.0409	3169.4872	3787.9465
CC1C2OC(CO)OC12	C[C@H]1[C@H]2O[C@@H](CO)O[C@@H]12	
InChI=1S/C6H10O3/c1-3-5-6(3)9-4(2-7)8-5/h3-7H,2H2,1H3	InChI=1S/C6H10O3/c1-3-5-6(3)9-4(2-7)8-5/h3-7H,2H2,1H3/t3-,4+,5+,6-
