19
gdb 61289	4.11979	0.76181	0.74297	3.3275	78.8	-0.2305	0.0223	0.2528	1560.004	0.156851	-419.189	-419.178662	-419.177717	-419.224815	37.302	
C	 0.356073795	 1.3987639222	-0.4680036589	-0.337102
N	-0.1357329559	 0.1182672398	 0.0374507089	-0.08345
C	 0.5351533791	-0.2759715608	 1.2813080781	-0.305497
C	 1.9644751378	-0.5180379622	 1.0995302506	 0.292133
C	 3.1419890004	-0.7169719639	 0.9675756731	-0.418422
C	-1.58918158	 0.1148163806	 0.1695172464	-0.245308
C	-2.3310413197	-0.0760742161	-1.1627853163	 0.365433
N	-1.5999625392	-0.7167921628	-2.1104719915	-0.501578
O	-3.4832481522	 0.2820980096	-1.3056057041	-0.362468
H	 1.4362529593	 1.3434926654	-0.6195707016	 0.138392
H	-0.1190146812	 1.6191687305	-1.4271513579	 0.133044
H	 0.1412420507	 2.2332251819	 0.2237362808	 0.103937
H	 0.3994388145	 0.4788369531	 2.0799071676	 0.116818
H	 0.0629652525	-1.1970691367	 1.6425289902	 0.136884
H	 4.1821522014	-0.8974995593	 0.8515636982	 0.200932
H	-1.8860728991	-0.7266967582	 0.8063797178	 0.126718
H	-1.993065648	 1.0269916729	 0.636524615	 0.115809
H	-0.6442322373	-0.9635406571	-1.9092411315	 0.26405
H	-2.0142665482	-0.9110454588	-3.0060315148	 0.259674
50.9529	64.8475	110.2453	138.0236	217.8289	249.5206	303.2024	317.3583	345.4476	377.2814	382.2306	422.1839	538.1973	563.7214	613.6266	623.0129	668.3094	709.9121	862.2315	879.9929	965.3913	987.7208	1012.6515	1055.6789	1095.3319	1154.0089	1165.5392	1211.8714	1290.4084	1311.5155	1347.1281	1357.9193	1401.7792	1454.5083	1469.7681	1485.777	1497.8809	1505.112	1581.5792	1810.6542	2241.3821	2917.9026	2950.028	2986.3696	3048.6202	3061.7792	3086.8124	3132.7469	3504.3175	3586.0288	3733.1305
CN(CC#C)CC(N)=O	CN(CC#C)CC(=O)N	
InChI=1S/C6H10N2O/c1-3-4-8(2)5-6(7)9/h1H,4-5H2,2H3,(H2,7,9)	InChI=1S/C6H10N2O/c1-3-4-8(2)5-6(7)9/h1H,4-5H2,2H3,(H2,7,9)
