22
gdb 10331	2.37622	1.55943	1.01606	2.7243	78.97	-0.2434	-0.0175	0.2259	1226.8609	0.197085	-350.228141	-350.217713	-350.216768	-350.264123	36.775	
C	-0.0030980167	 1.6178312995	-0.035577935	-0.389973
C	-0.007754101	 0.0854329859	 0.0127100826	-0.208882
C	-1.425818364	-0.5307551569	 0.0189848233	-0.034041
C	-2.1073619031	-0.1470694762	-1.2806409785	 0.1626
O	-3.0607147412	 0.5792513191	-1.3948573632	-0.261117
C	-1.4348199669	-2.0767719494	 0.1607809318	 0.019535
C	-0.7138037977	-2.5608940906	 1.4270147354	-0.39984
C	-2.8736471425	-2.6185911215	 0.1375622486	-0.399618
H	 1.0210835625	 2.002589549	-0.0243894779	 0.114252
H	-0.49503168	 2.0019646662	-0.9344926457	 0.130972
H	-0.528815077	 2.0390953253	 0.8278490735	 0.122881
H	 0.5533451948	-0.3171146887	-0.8421324835	 0.098892
H	 0.5260615667	-0.2438929435	 0.9086438617	 0.109052
H	-2.0113221096	-0.0877282408	 0.8346923549	 0.085492
H	-1.6237944194	-0.5992567031	-2.1826643005	 0.065301
H	-0.9022789773	-2.489606142	-0.7092436657	 0.075411
H	-1.1558267747	-2.1135940317	 2.3251606207	 0.116356
H	-0.8056735524	-3.6478204695	 1.5209980679	 0.114691
H	 0.3527282577	-2.3233966355	 1.4216563118	 0.118151
H	-3.4454023672	-2.2391590498	 0.9924009401	 0.120952
H	-3.4123427034	-2.3283878446	-0.7697128646	 0.12614
H	-2.8771198674	-3.7116495611	 0.192432552	 0.112794
44.1231	60.4598	82.0836	176.9624	195.289	222.2143	238.9303	262.6153	320.3966	347.1456	387.8979	430.7445	466.6854	526.0229	769.1822	840.3644	882.231	930.1348	935.2479	964.0456	978.2893	1007.2222	1042.6305	1079.916	1140.3642	1164.5185	1182.2325	1189.7419	1263.622	1277.2642	1334.703	1349.4684	1362.181	1374.7828	1404.476	1417.3709	1425.7814	1427.3361	1484.3774	1488.4557	1494.396	1498.9232	1504.0167	1506.5725	1513.0989	1831.4959	2819.6214	2991.5026	3016.5767	3029.7218	3033.1691	3037.1223	3040.6472	3081.0867	3093.1538	3099.2782	3105.8518	3106.2782	3111.7779	3118.7251
CCC(C=O)C(C)C	CC[C@@H](C=O)C(C)C	
InChI=1S/C7H14O/c1-4-7(5-8)6(2)3/h5-7H,4H2,1-3H3	InChI=1S/C7H14O/c1-4-7(5-8)6(2)3/h5-7H,4H2,1-3H3/t7-/m0/s1
