18
gdb 80834	2.6005	1.70717	1.33167	2.1955	73.05	-0.2589	0.0258	0.2847	1010.5495	0.148353	-439.081974	-439.074079	-439.073135	-439.113915	31.415	
C	-0.1854160923	 1.5292455487	 0.0268731632	-0.441993
C	 0.0161499262	 0.0219307682	 0.0308151564	-0.025873
C	 1.1571494241	-0.6034110045	-0.8148501291	 0.063793
C	 2.1657632297	-0.2188936559	 0.2870817892	-0.307261
C	 0.9248621498	-0.5907444735	 1.1794232851	 0.323153
O	 0.8009412734	-0.2932244034	 2.5128392443	-0.484404
C	 0.7997592031	-2.0421158596	 0.7948492563	 0.396673
N	 0.5847574346	-2.991987777	 1.5930605182	-0.612949
O	 0.9601176533	-2.0426938285	-0.5610996513	-0.252821
H	 0.7437504994	 2.0937519945	 0.1351325855	 0.124511
H	-0.6658738372	 1.8498760994	-0.9034953863	 0.121811
H	-0.8400255213	 1.8139834045	 0.8561196783	 0.140145
H	-0.9446469526	-0.48550768	-0.1037245888	 0.0891
H	 1.3044519074	-0.4445035464	-1.8791137667	 0.098213
H	 3.064840472	-0.8320466038	 0.3753860232	 0.116577
H	 2.4129090608	 0.8408116154	 0.3141235401	 0.120974
H	 0.6271451023	-1.1351981978	 2.9625511209	 0.29925
H	 0.5251240374	-3.8968588604	 1.1269459216	 0.2311
150.6318	166.6109	197.8469	267.9756	316.1324	363.8054	422.5682	474.6274	479.2747	551.0603	617.6276	687.609	694.1275	808.7762	851.1659	858.0577	881.9479	901.8521	941.1912	962.3498	1016.226	1041.3767	1050.4867	1090.2918	1114.106	1142.2019	1181.5772	1228.9573	1236.8255	1245.6562	1312.1084	1371.8064	1394.0182	1415.0094	1425.1503	1492.232	1496.1357	1509.9396	1812.0147	3042.0248	3057.6194	3087.7644	3105.006	3122.0951	3163.4179	3170.9517	3496.7471	3702.5186
CC1C2CC1(O)C(=N)O2	C[C@H]1[C@H]2C[C@]1(O)[C]([NH])O2	
InChI=1S/C6H9NO2/c1-3-4-2-6(3,8)5(7)9-4/h3-4,7-8H,2H2,1H3	InChI=1S/C6H9NO2/c1-3-4-2-6(3,8)5(7)9-4/h3-4,7-8H,2H2,1H3/t3-,4+,6+/m0/s1
