23
gdb 57426	2.65187	1.14673	1.07653	1.8625	82.1	-0.2578	0.0802	0.338	1310.2837	0.201689	-425.428711	-425.417972	-425.417028	-425.463419	41.03	
C	-0.1385640535	 0.0699714541	 1.064105037	-0.401851
C	 1.2255281881	-0.1671433091	 0.4127761058	 0.319557
C	 1.9269808137	 1.1691204108	 0.1063689012	-0.410459
O	 2.0189931787	-0.9057636175	 1.3356304867	-0.464693
C	 1.0753856877	-0.9462526164	-0.9004069735	-0.029839
O	 2.1581495357	-1.8365784472	-1.2116472708	-0.316039
C	 0.8231255692	-2.3910696919	-1.0646191358	 0.391427
C	 0.6130636833	-3.342722192	 0.0937825984	-0.477566
C	 0.2303829137	-2.8621290062	-2.3778655769	-0.445595
H	-0.7992807994	 0.6291952487	 0.394123639	 0.111615
H	-0.6187553873	-0.8788184592	 1.3157125869	 0.122669
H	-0.0164935315	 0.6477427415	 1.9849781634	 0.125334
H	 2.1131363485	 1.7066767801	 1.0398288284	 0.12157
H	 2.889037649	 0.9909987827	-0.3851499142	 0.120471
H	 1.320590644	 1.8037064976	-0.5487579465	 0.10755
H	 2.6823349873	-1.3611323764	 0.7974364909	 0.285117
H	 0.7776161256	-0.3100431164	-1.7375397066	 0.078886
H	 1.0231870074	-2.9489920609	 1.0220333097	 0.152461
H	-0.4578804599	-3.5276411157	 0.2325047345	 0.118247
H	 1.0842271395	-4.3066123928	-0.1301064535	 0.118986
H	 0.6323214458	-3.8453911657	-2.6455769568	 0.125556
H	-0.8579387102	-2.9563976606	-2.2991894849	 0.121265
H	 0.4638327048	-2.1657524974	-3.186839512	 0.125333
86.1271	144.2508	177.7439	186.5208	208.0224	227.8843	262.2219	289.8957	310.525	337.1343	375.1157	390.8757	428.0487	436.8859	517.066	552.3919	591.9562	705.7955	789.9308	833.9354	918.1642	928.6267	936.9573	949.902	978.5181	1009.3441	1016.559	1080.0318	1120.3924	1147.2688	1176.3785	1201.5573	1241.1886	1268.4967	1339.0813	1391.0015	1401.3175	1409.3236	1420.2141	1420.9323	1454.7619	1476.8031	1478.9858	1484.2063	1486.6179	1500.224	1506.1406	1512.8504	1518.6097	3032.5666	3032.9072	3038.1657	3043.453	3075.1527	3089.9668	3100.0105	3103.3642	3112.5474	3121.3403	3123.9045	3126.4351	3168.1165	3736.512
CC(C)(O)C1OC1(C)C	CC(C)(O)[C@H]1OC1(C)C	
InChI=1S/C7H14O2/c1-6(2,8)5-7(3,4)9-5/h5,8H,1-4H3	InChI=1S/C7H14O2/c1-6(2,8)5-7(3,4)9-5/h5,8H,1-4H3/t5-/m1/s1
