21
gdb 93962	3.48818	0.96623	0.86969	3.0144	78.49	-0.2595	0.0702	0.3297	1393.302	0.183047	-424.214867	-424.205881	-424.204936	-424.250115	33.451	
O	-0.8946997993	 0.9910427967	 1.0800093805	-0.439206
C	-0.1286723859	 0.228170721	 0.1491913379	 0.115701
C	 0.9733902883	-0.5969897828	 0.8467675445	-0.233002
C	 0.2952196377	-1.9244821672	 1.2885316576	-0.227944
C	-1.1486335878	-1.8814732587	 0.7145467264	 0.030312
C	-1.0680618869	-0.8366253931	-0.4169865771	-0.219895
C	-1.6479580917	-3.2301052173	 0.2671804612	 0.070314
C	-2.4649337628	-4.0997658351	 1.1232217483	-0.183814
O	-3.0552771253	-3.3659654223	 0.0493642379	-0.242915
H	-0.2974456609	 1.5961221083	 1.5305225997	 0.279717
H	 0.2813385944	 0.8844319379	-0.6318643992	 0.057678
H	 1.7888217429	-0.7927230144	 0.142361892	 0.099044
H	 1.4081453947	-0.043111955	 1.6852847137	 0.087956
H	 0.8417022309	-2.7835379017	 0.883407098	 0.096454
H	 0.2859179109	-2.0466459875	 2.374262128	 0.104539
H	-1.8325469141	-1.4991303558	 1.4779279315	 0.090616
H	-2.0411380843	-0.4249799295	-0.6924499392	 0.119472
H	-0.6169015635	-1.2791590676	-1.3143212532	 0.090591
H	-1.0385887928	-3.7136291025	-0.5017923286	 0.083645
H	-2.4337562129	-5.1807383131	 0.9914813763	 0.110459
H	-2.7373375116	-3.7630978305	 2.1230780839	 0.110279
21.5609	76.3773	117.5689	173.3564	298.4512	302.2463	334.8474	387.837	428.3315	466.0162	613.7747	754.7855	770.8451	830.4769	858.6136	863.4013	900.1809	916.6246	943.5302	976.2996	981.7778	1033.161	1063.4415	1071.4596	1103.6217	1129.8542	1157.3275	1174.8022	1192.2195	1203.9905	1218.3379	1262.1692	1284.386	1290.4041	1303.3744	1310.9229	1342.8334	1359.3645	1366.9222	1419.7691	1451.2561	1474.0018	1481.1719	1503.8331	1529.8138	2993.2439	3032.9526	3037.4908	3049.2473	3060.1338	3072.5424	3077.402	3079.1892	3101.0781	3116.905	3163.882	3818.8463
OC1CCC(C1)C1CO1	O[C@H]1CC[C@@H](C1)[C@H]1CO1	
InChI=1S/C7H12O2/c8-6-2-1-5(3-6)7-4-9-7/h5-8H,1-4H2	InChI=1S/C7H12O2/c8-6-2-1-5(3-6)7-4-9-7/h5-8H,1-4H2/t5-,6-,7+/m0/s1
