18
gdb 51086	4.21154	1.06844	1.02547	2.5275	73.81	-0.2533	0.0157	0.2691	1201.7556	0.148517	-439.053117	-439.045386	-439.044442	-439.08598	29.659	
N	-0.0790830558	 1.265620305	-0.0768520114	-0.439671
C	-0.0797512255	 0.023153811	 0.1381954055	 0.103359
O	-1.1421540961	-0.7217513945	-0.241874344	-0.241927
C	-1.0428480438	-2.1095090483	-0.0851412229	 0.370352
C	-0.6049446292	-2.8451794351	 1.2265512036	-0.297464
C	-1.3162977737	-4.0020173169	 0.4809517584	 0.096097
C	-2.33811585	-2.9570848573	-0.0333245942	-0.284447
O	-0.4700063497	-4.2382640677	-0.6612145727	-0.272165
C	-0.2340247076	-2.8987785822	-1.1337717358	-0.121682
H	 0.777001297	 1.6798768705	 0.2861453732	 0.231439
H	 0.708228266	-0.5568231642	 0.6343088402	 0.09394
H	 0.4596465786	-2.9708895272	 1.4348782989	 0.106687
H	-1.1486769131	-2.4917907449	 2.1037070367	 0.116561
H	-1.5893325507	-4.9455116155	 0.9457384931	 0.094287
H	-3.0305924357	-2.6090630984	 0.7338381026	 0.115472
H	-2.8521509547	-3.1718958223	-0.9718674763	 0.112523
H	-0.6191462382	-2.7669639153	-2.1509774449	 0.115263
H	 0.8381013321	-2.667996587	-1.1209149898	 0.101378
63.6533	97.9915	159.5971	327.2536	350.4186	414.9171	445.1621	492.4521	530.687	633.3815	760.3672	820.1906	828.158	858.6178	904.9508	921.3192	952.3606	967.9507	1005.8223	1021.0042	1027.5284	1044.2476	1071.477	1116.7572	1123.353	1163.9061	1202.2914	1216.0519	1242.7276	1248.3525	1260.1233	1292.5707	1298.2042	1374.0762	1420.3517	1472.5872	1506.676	1533.0918	1745.7965	3024.0957	3044.2882	3070.9142	3073.986	3082.9899	3144.4792	3153.1133	3163.5068	3517.8478
N=COC12CC(C1)OC2	[NH][CH]O[C@@]12C[C@@H](C1)OC2	
InChI=1S/C6H9NO2/c7-4-9-6-1-5(2-6)8-3-6/h4-5,7H,1-3H2	InChI=1S/C6H9NO2/c7-4-9-6-1-5(2-6)8-3-6/h4-5,7H,1-3H2/t5-,6-
