21
gdb 109973	1.82254	1.52529	1.06293	1.8146	83.87	-0.2511	0.0249	0.2761	1261.382	0.18016	-387.045425	-387.03541	-387.034466	-387.080868	36.908	
C	 0.2832861641	 1.7844520321	 0.0332712433	-0.387642
C	 0.2481453501	 0.2538809973	 0.1154536542	-0.201622
C	 0.7851381258	-0.4129389668	-1.1441158505	-0.05556
C	 0.8044525787	-1.9615976097	-1.2749328098	 0.128355
C	 0.0812497452	-2.8071872201	-0.242368472	-0.399034
O	 0.0738133271	-1.8992427226	-2.5280373447	-0.297157
C	-0.0941765125	-0.4648183979	-2.4369564625	-0.061603
C	-1.4902031935	-0.0628872512	-2.3309170872	 0.358447
C	-2.6423346352	 0.2732240852	-2.2507066599	-0.476569
H	 1.3040171948	 2.1496735483	-0.1269070006	 0.111579
H	-0.3379209804	 2.1474212345	-0.7912497571	 0.128461
H	-0.0919303593	 2.2364160034	 0.9563784928	 0.113502
H	 0.850133123	-0.0805359488	 0.970094198	 0.09555
H	-0.7779413967	-0.0759654229	 0.3075425426	 0.112405
H	 1.7662988428	 0.0082116258	-1.3828329446	 0.081674
H	 1.8097594207	-2.3685200099	-1.445956613	 0.075543
H	-0.9295838905	-2.4354328875	-0.0567846703	 0.128597
H	 0.0022472418	-3.8367619393	-0.6051975999	 0.126398
H	 0.6323321878	-2.8227792767	 0.7042118344	 0.113757
H	 0.3582422767	 0.0343765414	-3.3031401964	 0.103069
H	-3.6615233904	 0.5655963553	-2.1876431667	 0.201849
29.8615	105.2346	147.9269	165.7003	204.9818	228.1061	241.1799	288.5304	362.6392	401.0442	474.8584	537.5257	560.8611	622.9201	666.684	738.7859	783.1267	821.9564	861.7663	897.5411	963.857	982.7423	1025.0915	1034.201	1056.7744	1085.328	1120.0402	1158.0315	1187.2427	1226.4862	1268.163	1293.5631	1316.5371	1341.8889	1355.511	1391.0512	1402.0244	1408.4117	1414.9104	1477.8157	1488.2318	1495.6281	1500.2765	1509.3662	2227.4467	3010.2833	3018.0286	3026.882	3033.2063	3038.0724	3059.132	3076.8809	3102.6476	3105.9891	3112.0659	3124.7987	3501.2408
CCC1C(C)OC1C#C	CC[C@H]1[C@@H](C)O[C@H]1C#C	
InChI=1S/C8H12O/c1-4-7-6(3)9-8(7)5-2/h2,6-8H,4H2,1,3H3	InChI=1S/C8H12O/c1-4-7-6(3)9-8(7)5-2/h2,6-8H,4H2,1,3H3/t6-,7+,8+/m1/s1
