18
gdb 50863	3.33972	0.81915	0.69367	3.8282	73.52	-0.2487	-0.0351	0.2136	1583.1497	0.145146	-439.075778	-439.066159	-439.065215	-439.112563	33.017	
O	 0.6298254621	 0.1237297737	 0.2932058216	-0.238973
C	 0.3967257115	 1.0061437125	-0.4903229307	 0.176775
C	 1.4155279879	 2.0502330368	-0.9060436777	-0.405054
C	 0.8679749964	 3.4743934572	-0.832045045	 0.372292
O	-0.2641078744	 3.6964530854	-0.4709425025	-0.289513
C	 1.8152987587	 4.6022554541	-1.2396826614	-0.318644
C	 2.228617376	 4.5178275373	-2.6972441896	 0.017388
C	 3.5013764399	 5.1153465284	-3.1661048691	-0.244142
N	 3.3386352927	 3.649370504	-3.1318410398	-0.312301
H	-0.5930980914	 1.104861218	-0.9799480769	 0.099834
H	 2.3126128623	 1.9499932854	-0.2845802944	 0.139998
H	 1.7265777022	 1.8524153826	-1.9425635915	 0.169972
H	 1.293877068	 5.543614184	-1.0415587548	 0.135032
H	 2.7116868581	 4.5670424063	-0.6053192351	 0.111029
H	 1.3928152031	 4.5098644792	-3.3948239256	 0.109467
H	 3.5660600385	 5.5472790386	-4.1602405823	 0.128894
H	 4.1457575758	 5.583096577	-2.4259980887	 0.117817
H	 3.8268179325	 3.2781010095	-2.3195470264	 0.230127
38.691	44.1562	64.5802	100.7825	153.5433	223.1961	309.9907	345.8829	424.3762	485.1697	536.5028	620.7878	735.1936	805.6208	825.4298	859.966	907.005	937.1431	975.1926	1003.7979	1046.8651	1061.6011	1100.7783	1127.2936	1164.8991	1197.3744	1202.9334	1250.9204	1266.7102	1302.9766	1306.2449	1326.6051	1417.928	1425.3327	1431.3584	1459.0601	1511.57	1804.7547	1839.1238	2931.7635	3019.0181	3021.6495	3080.0624	3092.7862	3111.5438	3125.2736	3198.4112	3490.0167
O=CCC(=O)CC1CN1	O=CCC(=O)C[C@H]1CN1	
InChI=1S/C6H9NO2/c8-2-1-6(9)3-5-4-7-5/h2,5,7H,1,3-4H2	InChI=1S/C6H9NO2/c8-2-1-6(9)3-5-4-7-5/h2,5,7H,1,3-4H2/t5-/m0/s1
