14
gdb 133499	2.38868	1.39821	1.09644	2.6928	51.27	-0.2889	-0.0471	0.2417	1073.7342	0.094548	-605.349594	-605.340535	-605.339591	-605.384286	31.772	
C	-0.0669243748	 1.4331367281	 0.1070844513	-0.486269
C	 0.0356245933	-0.0678469644	 0.0834462798	 0.371144
O	 0.1502635061	-0.7404781844	 1.0830846858	-0.306839
C	 0.0257216653	-0.8183057909	-1.269944632	-0.107605
O	 0.1892859561	-2.1819721006	-1.0603556941	-0.417467
C	-1.28293456	-0.572101919	-2.0360189257	 0.263821
F	-1.3722647432	 0.7155425709	-2.4241802034	-0.08397
F	-1.3499796271	-1.3292816547	-3.1273963714	-0.054015
F	-2.3501671126	-0.8410615596	-1.2728877901	-0.076129
H	 0.6029174986	 1.8845363103	-0.6308216598	 0.150127
H	-1.0833858298	 1.7353797775	-0.1640498755	 0.172236
H	 0.1663290998	 1.7972018029	 1.107955391	 0.152816
H	 0.8318276939	-0.4128585989	-1.9012415473	 0.119221
H	 0.1842145144	-2.2892234872	-0.0928000385	 0.302929
52.9306	76.4274	125.3063	176.0748	229.5227	281.7014	354.1403	368.6563	438.4062	481.6538	519.152	537.9797	586.6429	629.938	711.8506	818.5579	886.8012	981.0264	1029.5086	1152.9013	1157.4301	1209.0621	1209.3793	1265.5222	1301.7448	1372.4782	1395.3716	1438.7228	1459.4479	1475.1939	1807.5233	2999.4141	3052.4512	3117.6864	3160.0214	3640.9711
CC(=O)C(O)C(F)(F)F	CC(=O)[C@@H](O)C(F)(F)F	
InChI=1S/C4H5F3O2/c1-2(8)3(9)4(5,6)7/h3,9H,1H3	InChI=1S/C4H5F3O2/c1-2(8)3(9)4(5,6)7/h3,9H,1H3/t3-/m1/s1
