23
gdb 100061	2.99294	1.11661	0.99575	1.5884	81.56	-0.2505	0.0743	0.3248	1332.892	0.204265	-425.419155	-425.409015	-425.40807	-425.453911	38.146	
C	-0.3014433599	 1.4883604783	 0.0362704326	-0.394164
C	 0.0590154799	 0.0007930576	 0.0118041943	-0.20337
C	 0.8539923475	-0.4857867656	 1.24712855	 0.334468
C	 2.2292863316	 0.1716571395	 1.354716069	-0.419054
O	 0.1484236876	-0.167958737	 2.4465220472	-0.475219
C	 0.9984341177	-2.0114427266	 1.1637149194	 0.136308
C	 1.574395498	-2.7757344398	 2.3753171852	-0.296007
C	 0.2441932684	-3.5487819481	 2.3411553284	-0.072625
O	-0.2967617048	-2.6546243431	 1.3391306761	-0.314866
H	 0.5837107424	 2.1261592511	-0.052278857	 0.112412
H	-0.9688586845	 1.7376018156	-0.7942220812	 0.107664
H	-0.8054354182	 1.7430507721	 0.9721832348	 0.128772
H	-0.8589236014	-0.5970610996	-0.0446469952	 0.109541
H	 0.633945202	-0.2347426215	-0.8930568335	 0.087756
H	 2.1256306429	 1.2511824513	 1.4852947972	 0.130928
H	 2.7775601608	-0.2159940624	 2.2176259881	 0.120767
H	 2.8216147335	-0.0121998946	 0.452892567	 0.111427
H	-0.6268312857	-0.7460499672	 2.4431552587	 0.280994
H	 1.4454464949	-2.299037508	 0.2020922543	 0.069192
H	 2.4846119422	-3.3515750911	 2.2061127647	 0.106582
H	 1.6866855175	-2.1427154769	 3.2561299058	 0.126108
H	 0.317310347	-4.5748979007	 1.9595361456	 0.104531
H	-0.3585124794	-3.5495779231	 3.2556494585	 0.107857
94.9309	104.1756	117.8015	168.8072	194.573	224.8544	277.2214	295.9942	339.8205	372.4544	389.2462	493.5053	504.3403	621.1862	702.1	787.1356	793.6509	835.7333	883.5022	923.0766	959.1673	969.8811	1005.9416	1013.2324	1014.3174	1037.3598	1070.7702	1105.3134	1155.518	1169.735	1189.2005	1220.8684	1227.7982	1264.8347	1280.7414	1301.0495	1352.2317	1357.9813	1370.3352	1402.2417	1408.8865	1429.6677	1478.4286	1481.275	1490.3758	1497.898	1508.5759	1513.82	1528.4884	3006.3807	3020.426	3023.8762	3042.0514	3047.5911	3059.9402	3068.3216	3088.496	3104.5239	3116.754	3123.3694	3128.7761	3148.973	3752.3029
CCC(C)(O)C1CCO1	CC[C@@](C)(O)[C@H]1CCO1	
InChI=1S/C7H14O2/c1-3-7(2,8)6-4-5-9-6/h6,8H,3-5H2,1-2H3	InChI=1S/C7H14O2/c1-3-7(2,8)6-4-5-9-6/h6,8H,3-5H2,1-2H3/t6-,7-/m1/s1
