13
gdb 133324	2.37737	1.86369	1.04507	2.71	68.42	-0.2172	-0.0536	0.1636	1021.0319	0.088801	-494.014226	-494.006603	-494.005659	-494.04626	28.798	
N	 0.0484959763	 1.3689276999	-0.0572341902	-0.589604
C	-0.0162280055	 0.0199242275	-0.0065294714	 0.171035
C	-1.1413471829	-0.7330478924	 0.0777676921	 0.159357
F	-2.3526133291	-0.1552389743	 0.0812034447	-0.081409
C	-1.0525411458	-2.1460569724	 0.1679118012	-0.049426
N	 0.0451023789	-2.8280265259	 0.1742122637	-0.103904
O	 1.2234139307	-2.0691532191	 0.0754429809	-0.285913
C	 1.2583571745	-0.7050439958	-0.0249200369	 0.392407
N	 2.3502123291	-0.0613560087	-0.1364784843	-0.554345
H	 0.9547243813	 1.7554863107	-0.2751140539	 0.286661
H	-0.7816085915	 1.9002450169	-0.2530208326	 0.271254
H	-1.9589961998	-2.739206302	 0.2418616811	 0.14897
H	 3.1550917738	-0.6864610944	-0.1421442546	 0.234918
118.0654	167.7625	266.8371	274.5428	304.1653	348.79	475.2079	513.205	525.2199	535.1475	551.6234	611.5371	684.5239	751.9361	833.6512	872.9749	902.5656	916.9073	983.1933	1070.179	1233.339	1253.6639	1298.2762	1379.5277	1436.1713	1589.7299	1630.66	1708.7734	1730.0147	3188.6498	3508.8813	3584.6373	3728.6756
NC1=C(F)C=NOC1=N	NC1=C(ON=C[C]1F)[NH]	
InChI=1S/C4H4FN3O/c5-2-1-8-9-4(7)3(2)6/h1,7H,6H2	InChI=1S/C4H4FN3O/c5-2-1-8-9-4(7)3(2)6/h1,7H,6H2
