15
gdb 26036	3.29789	1.13684	1.04946	3.3669	71.09	-0.2601	-0.0178	0.2423	1166.5504	0.113673	-416.853117	-416.845084	-416.84414	-416.886585	28.555	
C	-0.0412281724	 1.5711003202	 0.0506705475	-0.392316
C	-0.017315062	 0.0243440537	 0.0309020303	-0.261705
C	 0.714500604	-0.4943794061	 1.1990306127	 0.277391
N	 1.2957593496	-0.8871982215	 2.1167929357	-0.316108
C	-1.3868452856	-0.5718467954	-0.0557826152	 0.365167
C	-2.0236459094	-1.3670108367	-0.9488295205	-0.201023
N	-3.3294274735	-1.5842110675	-0.5250046621	-0.251088
C	-3.4123130245	-0.9247148177	 0.5819679852	 0.079451
O	-2.278769516	-0.2777420379	 0.9418779689	-0.176295
H	 0.9756670081	 1.9672146562	 0.095670696	 0.142781
H	-0.5279992645	 1.9389302639	-0.8557174879	 0.136336
H	-0.596397915	 1.9317453474	 0.9187932238	 0.1546
H	 0.5253110757	-0.3109333471	-0.8605903082	 0.148481
H	-1.6415628973	-1.7994665659	-1.8599836558	 0.134623
H	-4.2563473673	-0.8266318655	 1.2462044995	 0.159706
52.261	101.5177	172.205	202.8265	231.4162	331.0996	388.9602	473.5365	566.6799	666.1991	688.9828	737.1558	846.2956	853.489	867.9456	939.2649	976.296	993.9182	1078.0913	1104.5596	1121.5093	1137.9777	1240.6904	1254.1074	1301.7283	1317.1222	1365.5723	1409.063	1491.1168	1498.5767	1548.1213	1635.4946	2361.7217	3054.4049	3057.2432	3137.9215	3145.9093	3264.7586	3280.804
CC(C#N)C1=CN=CO1	C[C@@H](C#N)c1cnco1	
InChI=1S/C6H6N2O/c1-5(2-7)6-3-8-4-9-6/h3-5H,1H3	InChI=1S/C6H6N2O/c1-5(2-7)6-3-8-4-9-6/h3-5H,1H3/t5-/m0/s1
