19
gdb 91569	2.82622	1.24332	1.02647	1.8271	81.09	-0.2445	0.0534	0.2979	1215.7522	0.157543	-385.822894	-385.813816	-385.812871	-385.856971	34.483	
O	 0.1173338312	 1.3863155456	-0.0272987238	-0.427781
C	 0.1029292175	-0.0145178367	 0.1277830994	 0.050635
C	 0.1799635306	-0.6140267389	 1.5778051944	-0.267175
C	-1.1926666608	-1.251916282	 1.3474284188	-0.12416
C	-2.1969635384	-0.1769044671	 1.0353020099	-0.311669
C	-1.2774047803	-0.6415764812	-0.0585157564	 0.391393
C	-1.7770300578	-1.2529390693	-1.3488796606	-0.48785
C	-2.1660053771	-0.2627979633	-2.3511687991	 0.328805
C	-2.481873796	 0.5572176523	-3.1707169604	-0.459502
H	 1.0183586923	 1.6962676237	 0.108545458	 0.282891
H	 0.841304527	-0.4929128742	-0.531386645	 0.066529
H	 0.9961525158	-1.3306498775	 1.6962053313	 0.097961
H	 0.2280112896	 0.1249636704	 2.3842593473	 0.096676
H	-1.4891119379	-2.2448423798	 1.6637366856	 0.085864
H	-3.2248976566	-0.510380346	 0.932300665	 0.110337
H	-2.0872054565	 0.8184627092	 1.4557030631	 0.121004
H	-1.0027210171	-1.9085069017	-1.7711759231	 0.124955
H	-2.6344062359	-1.9029355157	-1.1292426371	 0.127643
H	-2.7594641199	 1.2862104323	-3.8907248272	 0.193443
47.6805	91.879	157.0296	242.277	261.4805	289.7862	344.2693	372.3491	405.0532	468.0814	539.2381	618.1874	631.8732	674.8327	742.5092	822.8978	849.1187	904.9502	916.5079	937.6448	958.0179	980.6848	1027.5284	1036.5509	1076.3253	1088.0521	1120.0605	1166.7503	1184.8534	1200.2303	1243.3891	1268.6982	1278.5863	1333.4339	1337.1839	1391.3751	1433.5048	1461.8606	1477.4872	1504.908	2239.3714	2994.7277	3006.8502	3039.0388	3045.6258	3105.8122	3121.2016	3182.3133	3206.8081	3508.1297	3816.4195
OC1CC2CC12CC#C	O[C@H]1C[C@H]2C[C@@]12CC#C	
InChI=1S/C8H10O/c1-2-3-8-5-6(8)4-7(8)9/h1,6-7,9H,3-5H2	InChI=1S/C8H10O/c1-2-3-8-5-6(8)4-7(8)9/h1,6-7,9H,3-5H2/t6-,7-,8+/m0/s1
