15
gdb 68005	3.06053	1.69891	1.30317	3.0647	63.82	-0.2408	-0.0289	0.2119	938.7525	0.112378	-457.728484	-457.721533	-457.720589	-457.759695	27.793	
O	-0.051711428	 1.3395546111	 0.0281721713	-0.465203
C	 0.0455523561	-0.045855939	-0.0319061531	 0.346343
C	 1.0466011806	-0.7087590016	-0.9647461908	-0.416947
C	 0.4099477847	-2.0779539195	-1.2754321293	 0.447649
O	 0.7631486319	-2.8741705784	-2.1004090818	-0.313365
C	-0.7616815904	-2.2128469118	-0.2926710135	-0.040294
O	-0.1055464285	-2.2216159623	 1.023472997	-0.303159
C	-0.4235499555	-0.8366054576	 1.1773477705	 0.031632
C	-1.2833265092	-0.7862534661	-0.0575511823	-0.194239
H	 0.6895382997	 1.6735716783	 0.5457067601	 0.291884
H	 1.1387878787	-0.1279358491	-1.8881145657	 0.141514
H	 2.0494246634	-0.8455822058	-0.5476227736	 0.134613
H	-1.4294761556	-3.060197181	-0.436982479	 0.104182
H	-0.5372099293	-0.4335168051	 2.1771592068	 0.115756
H	-2.2482088285	-0.350679882	-0.2719728867	 0.119634
107.9795	272.0483	300.1759	333.4814	359.9191	441.6605	467.955	551.6397	568.9026	640.2436	744.9268	769.8694	814.1499	849.0278	882.8927	918.1168	941.2903	978.4747	1021.748	1027.4465	1071.9301	1111.9644	1156.3084	1201.5297	1202.9953	1210.9707	1238.7442	1269.5758	1310.1881	1325.6028	1415.3524	1456.4592	1862.0129	3054.4625	3100.6506	3141.3535	3183.9482	3226.2009	3795.8582
OC12CC(=O)C3OC1C23	O[C@@]12CC(=O)[C@H]3O[C@@H]1[C@@H]23	
InChI=1S/C6H6O3/c7-2-1-6(8)3-4(2)9-5(3)6/h3-5,8H,1H2	InChI=1S/C6H6O3/c7-2-1-6(8)3-4(2)9-5(3)6/h3-5,8H,1H2/t3-,4+,5+,6+/m0/s1
