20
gdb 107233	2.85258	1.42765	1.10705	2.7755	79.	-0.198	0.0699	0.2679	1145.9971	0.169871	-403.058248	-403.049341	-403.048397	-403.091586	34.363	
C	-0.0684385608	 1.5423539092	 0.1158232403	-0.514888
C	 0.0859219923	 0.0557684417	 0.024732953	 0.262044
N	-0.8191267319	-0.8730384237	 0.7514948414	-0.375484
C	 0.6559475553	-0.939887604	 0.9543191302	-0.115744
C	 1.286652994	-1.7360330923	-0.2211894125	-0.102719
C	 0.2592210768	-2.1618711768	-1.2434767015	-0.346115
C	 0.702643401	-0.7252903166	-1.196147172	 0.321573
C	 1.3861947451	-0.0294825003	-2.3373430599	-0.195785
O	 2.2190961581	-0.9698542578	-3.0019969879	-0.417441
H	 0.8312073517	 2.063422659	-0.2283873112	 0.125915
H	-0.9116829095	 1.8970407806	-0.4895555045	 0.127198
H	-0.2494404424	 1.847429359	 1.1525150665	 0.116483
H	-1.1996348023	-0.3504382528	 1.5409459413	 0.220228
H	 1.0870486544	-0.8110569395	 1.9395412829	 0.08739
H	 2.2941572421	-2.1294464324	-0.2038825248	 0.093482
H	 0.6803415646	-2.7108937987	-2.0784989689	 0.121988
H	-0.7376451064	-2.4480006928	-0.9354531946	 0.133097
H	 0.6359540733	 0.3902831503	-3.0296206221	 0.08798
H	 1.9831490399	 0.8174003624	-1.9581418716	 0.081651
H	 2.5987009346	-0.5386731844	-3.7726738342	 0.289146
77.1774	144.8493	179.7622	208.6393	223.0805	283.3364	314.1775	394.5308	444.7768	474.1457	543.2341	629.5187	647.9928	779.7395	809.8764	842.1838	867.9686	893.5329	928.2603	942.1025	980.6122	1008.5412	1015.6789	1040.9	1075.246	1091.5774	1100.7223	1110.2121	1140.9273	1178.2002	1229.9371	1241.9851	1263.3577	1290.1127	1328.7724	1367.7828	1408.9414	1438.8292	1465.6059	1471.1857	1483.5446	1498.6952	1521.0019	2943.4824	2963.8413	3019.8185	3080.4532	3093.6294	3149.2365	3185.2672	3204.9288	3243.5033	3461.9473	3837.5238
CC12NC1C1CC21CO	C[C@]12N[C@H]1[C@H]1C[C@@]21CO	
InChI=1S/C7H11NO/c1-6-5(8-6)4-2-7(4,6)3-9/h4-5,8-9H,2-3H2,1H3	InChI=1S/C7H11NO/c1-6-5(8-6)4-2-7(4,6)3-9/h4-5,8-9H,2-3H2,1H3/t4-,5+,6+,7+/m1/s1
