18
gdb 100594	3.508	0.86058	0.7341	4.8329	71.76	-0.2649	-0.0432	0.2217	1533.5202	0.145397	-476.273893	-476.263899	-476.262955	-476.309762	34.897	
C	 0.1053470227	 1.53723671	-0.0105531199	-0.382926
C	 0.0129883489	 0.0102449	-0.0043882203	-0.183308
C	-1.4522783869	-0.4754431821	-0.0183031094	 0.025878
O	-2.1380729033	 0.0231551448	-1.1332635459	-0.432016
C	-1.5291506185	-2.0099444532	-0.0491540184	 0.408017
O	-1.9357154703	-2.5873497815	-1.0298308981	-0.32747
N	-1.0964816537	-2.6438087034	 1.1120378294	-0.347026
C	-1.0144824159	-4.0160269347	 1.3629355143	 0.166776
O	-1.2891474898	-4.8951447905	 0.5979776293	-0.242782
H	 1.1479639658	 1.8652276536	-0.051224147	 0.115609
H	-0.4209975968	 1.9429911998	-0.8773158099	 0.147918
H	-0.3475680394	 1.9652537316	 0.8908296732	 0.112636
H	 0.5142087808	-0.4022958007	-0.8881350219	 0.116654
H	 0.532102493	-0.3955590011	 0.8739356475	 0.082239
H	-1.951104337	-0.1211952585	 0.9002438213	 0.085771
H	-2.3255465966	-0.7531341095	-1.6870441519	 0.298063
H	-0.8160153244	-2.043493059	 1.8744564118	 0.262945
H	-0.6487703088	-4.1901999556	 2.3950262559	 0.093022
51.1967	67.2809	101.269	160.3796	188.3454	226.8146	243.3269	278.5941	356.1064	383.018	437.9724	496.1443	592.9679	614.5598	692.8459	778.2218	841.498	905.0031	953.7094	1003.8275	1027.1907	1076.2959	1082.7	1122.4221	1165.8928	1194.9273	1269.7163	1290.0567	1345.7684	1378.9766	1409.6225	1438.5438	1448.4446	1474.7966	1495.6228	1510.1684	1517.2926	1797.9706	1871.453	2931.8055	2958.7073	3020.8488	3038.6371	3065.9783	3105.5161	3134.4312	3606.3805	3668.7228
CCC(O)C(=O)NC=O	CC[C@@H](O)C(=O)NC=O	
InChI=1S/C5H9NO3/c1-2-4(8)5(9)6-3-7/h3-4,8H,2H2,1H3,(H,6,7,9)	InChI=1S/C5H9NO3/c1-2-4(8)5(9)6-3-7/h3-4,8H,2H2,1H3,(H,6,7,9)/t4-/m1/s1
