18
gdb 107961	2.8293	1.36494	1.31149	1.3217	71.7	-0.2357	0.0533	0.289	1069.5506	0.146378	-438.970216	-438.961893	-438.960949	-439.003076	31.834	
C	 0.049421923	 1.4660176298	-0.0112731262	-0.536492
C	 0.0080957213	-0.0285452721	-0.0805261458	 0.231673
N	 0.669156419	-0.8561835295	-1.1481110155	-0.372763
C	 0.0389150052	-1.8908692314	-0.2654970558	-0.124324
C	 0.3715383768	-1.085500702	 1.0140882837	 0.067535
O	-0.9732903672	-1.1565352412	 1.5726818731	-0.375038
C	-1.2027379066	-1.0209115034	 0.1294025298	 0.404286
C	-2.6278215019	-1.0472130497	-0.32713678	-0.208323
O	-3.2551363749	-2.2629717644	 0.0377509522	-0.41203
H	 1.0845221797	 1.8208203762	-0.0052665258	 0.138835
H	-0.4608107587	 1.9202019166	-0.8675163566	 0.124773
H	-0.4442552486	 1.8082182881	 0.9036708701	 0.139391
H	 0.152384938	-0.7792371317	-2.0283347224	 0.208885
H	 0.103152833	-2.9642637644	-0.439115871	 0.096803
H	 1.2269983538	-1.1411591685	 1.6851761082	 0.103689
H	-3.156808261	-0.1744467563	 0.0884648713	 0.10247
H	-2.6719832681	-0.9742150124	-1.4197525561	 0.113364
H	-3.0485040828	-2.4082264637	 0.9687905467	 0.297267
88.276	124.3008	214.9762	232.6139	242.2075	276.6955	375.8668	424.4823	526.1762	556.499	664.7454	711.1666	748.7138	790.4084	803.7292	844.7103	857.6384	938.0157	944.3224	962.7824	1050.6174	1055.2329	1082.3713	1103.2346	1126.4732	1144.2971	1182.3246	1208.3076	1256.932	1271.8755	1287.4167	1327.9113	1363.1583	1381.8854	1411.8724	1442.1632	1482.4729	1489.7351	1490.8522	2978.9225	3034.6757	3065.998	3102.1991	3115.3595	3129.0805	3142.9308	3401.6765	3794.3049
CC12NC3C1OC23CO	C[C@@]12N[C@H]3[C@@H]1O[C@@]23CO	
InChI=1S/C6H9NO2/c1-5-4-3(7-5)6(5,2-8)9-4/h3-4,7-8H,2H2,1H3	InChI=1S/C6H9NO2/c1-5-4-3(7-5)6(5,2-8)9-4/h3-4,7-8H,2H2,1H3/t3-,4-,5+,6+/m0/s1
