15
gdb 11177	3.885	1.53881	1.34074	3.4532	66.75	-0.2437	0.0214	0.2652	932.6668	0.119674	-362.675655	-362.668274	-362.66733	-362.707572	27.64	
O	 0.0439400223	-0.0167071554	 0.0050522194	-0.370101
C	-0.0286040179	 1.1882037997	 0.067740544	 0.41096
C	-1.2943170644	 2.0495909903	 0.1104917772	-0.326466
C	-0.7938399848	 3.4548373407	 0.4690971307	-0.223519
C	 0.6871078488	 3.4637942685	-0.0193883391	-0.178229
N	 1.0420779998	 2.0542833344	 0.1054310993	-0.283654
C	 0.8436703603	 3.9727640953	-1.3863050606	 0.349451
C	 0.9798041191	 4.3880750822	-2.5060372514	-0.473851
H	-1.7493385064	 2.0163445193	-0.8854168923	 0.14092
H	-2.0167381882	 1.6373716242	 0.8164045231	 0.133727
H	-1.3681496066	 4.2625208853	 0.0153185736	 0.124058
H	-0.7989153918	 3.5956513897	 1.5533347774	 0.118617
H	 1.3052244144	 4.0705294211	 0.6519757836	 0.116696
H	 1.960628271	 1.7150081392	-0.1372543744	 0.255335
H	 1.1003238543	 4.7520687356	-3.4966871604	 0.206056
76.9388	115.194	199.9911	262.5028	447.8536	466.8956	504.4347	530.9483	594.0348	638.2875	657.7439	663.6433	750.9798	801.1881	850.959	904.8403	967.6213	1003.9863	1063.8945	1087.8401	1171.3319	1201.6513	1240.2604	1284.9764	1297.9339	1353.9039	1378.0829	1417.8883	1464.9831	1494.6018	1837.81	2232.8287	3036.8846	3061.0309	3072.5541	3124.8734	3137.288	3501.7372	3630.2324
O=C1CCC(N1)C#C	O=C1CC[C@@H](N1)C#C	
InChI=1S/C6H7NO/c1-2-5-3-4-6(8)7-5/h1,5H,3-4H2,(H,7,8)	InChI=1S/C6H7NO/c1-2-5-3-4-6(8)7-5/h1,5H,3-4H2,(H,7,8)/t5-/m0/s1
