18
gdb 92212	2.72906	1.94533	1.57904	1.8325	70.03	-0.2134	0.0505	0.2639	900.9913	0.14985	-439.028991	-439.021998	-439.021054	-439.060717	28.053	
O	 0.0592475986	 1.3668843038	-0.3153331511	-0.417245
C	 0.0371528914	-0.0270934763	-0.0612264469	 0.081192
C	 0.6766971513	-0.4457099602	 1.3031102616	-0.214968
N	-0.3963072098	-0.8539715277	 2.2161183382	-0.104808
C	-1.2372704388	 0.2570728215	 2.7850797094	-0.195023
C	-2.4078705974	-0.1380445386	 1.8670930844	 0.103848
O	-2.3246477904	 0.5226068742	 0.5904222325	-0.287555
C	-1.4348402097	-0.4907223607	 0.058149059	 0.098654
C	-1.5351434433	-1.3071946246	 1.3663378901	-0.081148
H	 0.9664008388	 1.6108544156	-0.5223386606	 0.28559
H	 0.5175591782	-0.5753354833	-0.886230323	 0.063803
H	 1.3499807805	-1.2991332795	 1.1513741086	 0.098369
H	 1.2631452968	 0.3703589663	 1.7355718563	 0.105305
H	-1.4127759848	 0.1060020642	 3.855718254	 0.103534
H	-0.8631449509	 1.2700885085	 2.6080984133	 0.120635
H	-3.4278537791	-0.1837016273	 2.2511235364	 0.082246
H	-1.8346946329	-0.9050906465	-0.8719431438	 0.080702
H	-1.7658196684	-2.3724663595	 1.3625175816	 0.076869
49.2852	243.0789	274.2201	343.4974	394.9257	410.0289	505.9759	621.4779	672.4493	736.981	818.8276	824.9788	831.1513	869.9462	899.7923	924.1503	969.3857	999.2792	1006.6278	1027.7588	1045.069	1064.7054	1103.2719	1142.9874	1198.0742	1209.2275	1210.4209	1228.2983	1248.898	1258.9565	1286.846	1292.837	1314.5705	1331.1087	1351.4305	1353.3397	1429.3155	1477.281	1490.2154	2974.8381	3021.4005	3033.547	3064.0039	3088.6382	3094.4056	3100.0417	3112.8352	3826.1095
OC1CN2CC3OC1C23	O[C@H]1CN2C[C@H]3O[C@@H]1[C@@H]23	
InChI=1S/C6H9NO2/c8-3-1-7-2-4-5(7)6(3)9-4/h3-6,8H,1-2H2	InChI=1S/C6H9NO2/c8-3-1-7-2-4-5(7)6(3)9-4/h3-6,8H,1-2H2/t3-,4+,5-,6-/m0/s1
