23
gdb 90024	2.66506	1.30344	1.06153	1.5889	85.25	-0.2349	0.0716	0.3065	1259.713	0.204968	-388.274379	-388.264961	-388.264017	-388.30892	35.938	
C	 0.7227075624	 1.4149449847	 0.2824382875	-0.396596
C	-0.0187133902	 0.1162109897	-0.0191505016	 0.031846
C	 0.6719075525	-0.8064501944	-1.0688528328	-0.308724
C	 1.155606913	-1.7279462408	 0.0764817298	 0.464882
C	 0.1785389161	-1.0114106463	 1.0383606352	-0.308036
O	 0.9905750963	-3.148345528	-0.0963960161	-0.316357
C	 2.3658322645	-3.4135176419	 0.2379189507	-0.090017
C	 2.6559027378	-1.9127484515	 0.4453690191	-0.102779
C	 3.7189213206	-1.289571549	-0.446738545	-0.415187
H	 1.7784879399	 1.2314726935	 0.5147897007	 0.114725
H	 0.6874660177	 2.0991662924	-0.572527362	 0.113384
H	 0.282142771	 1.9303228607	 1.1431032624	 0.113682
H	-1.0653129412	 0.3399005671	-0.2428030708	 0.06932
H	-0.0442592507	-1.3438227101	-1.6963908595	 0.109603
H	 1.4308190848	-0.3517371531	-1.7118849886	 0.092982
H	 0.5704181796	-0.7172372192	 2.0176088529	 0.089884
H	-0.7193836323	-1.6180046211	 1.1843093982	 0.109385
H	 2.4587359392	-4.0536095013	 1.1239133286	 0.097212
H	 2.9070263632	-3.8816953785	-0.5953581123	 0.094195
H	 2.8480784359	-1.6582424214	 1.4921097666	 0.075437
H	 3.5557527173	-1.5425255275	-1.4997174831	 0.123071
H	 3.7287598127	-0.1976166162	-0.3618617018	 0.121378
H	 4.7148428699	-1.6512455776	-0.1682876182	 0.116709
50.4098	61.813	195.4172	229.0602	242.6519	257.3604	304.5902	335.7974	378.8873	405.4196	485.9949	506.9229	748.479	770.2294	812.0241	819.8327	892.3524	898.6674	918.2285	921.5683	938.192	986.6003	1029.3871	1033.796	1044.409	1097.6389	1130.8217	1139.1154	1159.2391	1164.4911	1196.3739	1206.1395	1215.3938	1253.9431	1269.7094	1280.3244	1306.0955	1344.7837	1368.0751	1383.5688	1410.2936	1413.5846	1457.3784	1479.174	1492.9237	1495.6711	1498.6038	1499.9478	1530.9951	3004.8767	3022.2032	3028.1662	3042.1911	3043.4922	3052.9545	3059.2738	3061.3922	3089.2674	3092.2853	3094.1697	3100.8687	3105.5646	3111.322
CC1CC2(C1)OCC2C	C[C@H]1C[C@@]2(C1)OC[C@H]2C	
InChI=1S/C8H14O/c1-6-3-8(4-6)7(2)5-9-8/h6-7H,3-5H2,1-2H3	InChI=1S/C8H14O/c1-6-3-8(4-6)7(2)5-9-8/h6-7H,3-5H2,1-2H3/t6-,7-,8-/m1/s1
