21
gdb 93278	2.18723	1.64376	1.2058	1.9409	78.12	-0.237	-0.0216	0.2154	1130.6134	0.180557	-424.262644	-424.25303	-424.252085	-424.296467	36.31	
C	-0.2264035567	 1.4951185892	-0.0962242078	-0.416538
C	 0.0467822649	 0.0070701321	 0.0097523012	 0.10215
O	 0.9307405126	-0.3697913043	-1.0581827218	-0.266005
C	 1.4054712493	-1.6698745947	-0.7789436972	-0.189984
C	 1.3719030378	-1.8086904086	 0.7442593762	 0.357905
O	 1.7651660029	-2.7472550277	 1.3855146195	-0.320596
C	 0.7308361102	-0.5218857987	 1.2944657794	 0.150513
C	 1.8893191816	 0.3828863636	 1.7656400618	-0.433034
C	-0.2287426926	-0.831067213	 2.4434382077	-0.4409
H	 0.6974382302	 2.0743754125	-0.028988389	 0.129181
H	-0.6973777007	 1.7177576536	-1.0575583865	 0.130207
H	-0.904226296	 1.818581805	 0.6997238906	 0.120508
H	-0.9058781588	-0.5396270836	-0.1106278711	 0.065335
H	 0.7651101097	-2.4522387982	-1.2206411731	 0.119234
H	 2.4162626659	-1.7928908989	-1.1791523905	 0.137496
H	 2.5597191409	 0.6390718143	 0.9399980726	 0.130707
H	 1.5041064232	 1.3126109297	 2.1949895136	 0.121013
H	 2.4729459958	-0.1314922636	 2.5345884135	 0.132735
H	 0.29246858	-1.3930367538	 3.2233981905	 0.1386
H	-0.6239480273	 0.089322953	 2.885760668	 0.114514
H	-1.075911333	-1.4371540778	 2.1060810824	 0.116959
78.3384	175.4529	191.9835	207.6415	218.6111	261.0362	279.0554	282.2284	295.5258	353.6898	484.1597	518.0834	566.8374	598.5768	658.2685	695.3466	806.432	872.4644	918.9098	961.299	978.8442	1023.9683	1055.5441	1069.3776	1098.857	1118.3806	1143.4618	1190.3087	1223.4719	1231.4507	1276.5516	1326.8674	1364.7661	1389.2536	1394.1068	1416.8842	1418.3368	1475.931	1480.92	1484.3106	1490.6483	1499.6307	1507.573	1512.4477	1853.8347	2936.7354	2969.2529	3033.7958	3038.5232	3048.3177	3085.2555	3100.8777	3110.7352	3115.4992	3117.7121	3118.2592	3130.7779
CC1OCC(=O)C1(C)C	C[C@H]1OCC(=O)C1(C)C	
InChI=1S/C7H12O2/c1-5-7(2,3)6(8)4-9-5/h5H,4H2,1-3H3	InChI=1S/C7H12O2/c1-5-7(2,3)6(8)4-9-5/h5H,4H2,1-3H3/t5-/m1/s1
