18
gdb 10160	2.57152	1.24007	0.88055	2.1288	70.	-0.2577	-0.0545	0.2032	1302.6014	0.150183	-384.963514	-384.954002	-384.953058	-384.998911	32.211	
C	-0.1124220381	 1.6660047093	-0.2361472628	-0.380518
C	-0.1158625772	 0.1438409854	-0.0753146789	-0.181918
C	 0.6560852701	-0.5718793659	-1.19016634	-0.190513
C	 0.6616564297	-2.0920697787	-1.0419026677	-0.1727
C	 1.0969802904	-2.8295798371	-2.3143676845	 0.136331
O	 1.346530633	-2.2867913423	-3.3562439106	-0.228316
C	 1.5422980172	-2.6019000631	 0.0957788495	 0.141868
O	 1.5046701824	-3.7285102907	 0.5166663317	-0.246296
H	 0.9079011837	 2.0641689653	-0.2151221877	 0.118275
H	-0.5624382885	 1.9618782184	-1.1899640003	 0.120713
H	-0.676744843	 2.1519598139	 0.5653088159	 0.116839
H	 0.3077546044	-0.1215938537	 0.9028434504	 0.098957
H	-1.150796941	-0.2232143258	-0.0629521956	 0.10176
H	 0.2342743535	-0.3165724451	-2.1672239598	 0.122941
H	 1.6938209135	-0.2127155319	-1.2161375988	 0.106668
H	-0.345348867	-2.4833955597	-0.8297645756	 0.130067
H	 1.1590764659	-3.9308571182	-2.1897855421	 0.112147
H	 2.270260921	-1.8572044601	 0.489541917	 0.093695
54.0375	87.8559	95.5981	121.4502	143.8987	241.8716	248.7509	303.2028	349.4185	389.4043	568.9035	672.2001	737.101	821.6806	854.5221	889.642	917.6205	991.7854	1030.2445	1062.1875	1117.1451	1142.0626	1160.9611	1219.2971	1246.5196	1299.2545	1329.3242	1343.1637	1394.3248	1408.5411	1414.8053	1417.5791	1483.3044	1492.4475	1500.0435	1509.3512	1805.8274	1844.4168	2879.0035	2920.7207	3005.8539	3011.103	3026.3037	3033.2358	3041.9416	3086.3815	3100.7593	3107.6234
CCCC(C=O)C=O	CCCC(C=O)C=O	
InChI=1S/C6H10O2/c1-2-3-6(4-7)5-8/h4-6H,2-3H2,1H3	InChI=1S/C6H10O2/c1-2-3-6(4-7)5-8/h4-6H,2-3H2,1H3
