14
gdb 94153	1.96977	1.63394	1.25498	3.7317	68.83	-0.2854	-0.028	0.2574	1047.9007	0.098153	-436.622494	-436.613631	-436.612687	-436.656645	31.565	
O	 0.2269573747	 1.2833657425	-0.2050041205	-0.400971
C	 0.0943479092	-0.0628736529	 0.0982000451	 0.034173
C	-0.0289110504	-0.330232475	 1.6016668641	-0.091452
O	-1.2920430051	-1.0194304165	 1.4365099711	-0.28927
C	-1.3663393571	-0.7069510464	 0.0275428161	 0.024128
C	-2.4350418988	 0.2148012332	-0.3179843499	 0.330015
C	-3.2993332825	 0.9959979928	-0.6087000301	-0.419741
C	-1.4336481031	-1.9285352098	-0.7873099459	 0.257135
N	-1.4270068771	-2.8812802212	-1.4411752585	-0.331872
H	 0.2898227455	 1.3918643419	-1.1600830857	 0.300509
H	 0.8238096144	-0.6939303693	-0.4202657193	 0.114054
H	 0.7301459774	-0.9751076854	 2.0523439156	 0.126601
H	-0.1402915738	 0.5913320215	 2.1820586128	 0.131929
H	-4.0734542233	 1.6796258146	-0.859312575	 0.214762
43.8488	122.0448	133.0961	162.5829	235.077	292.0675	335.8184	407.1958	492.9875	513.4231	556.5334	582.4162	617.371	650.0619	688.7958	784.4374	915.1853	966.1038	1010.7521	1027.6042	1082.2951	1132.3948	1155.3165	1194.6212	1249.7001	1311.434	1336.3158	1451.1251	1514.472	2241.2565	2354.5798	3049.2551	3052.6007	3108.9722	3497.5822	3815.0336
OC1COC1(C#C)C#N	O[C@H]1CO[C@]1(C#C)C#N	
InChI=1S/C6H5NO2/c1-2-6(4-7)5(8)3-9-6/h1,5,8H,3H2	InChI=1S/C6H5NO2/c1-2-6(4-7)5(8)3-9-6/h1,5,8H,3H2/t5-,6+/m0/s1
