18
gdb 64389	2.29938	1.63245	1.2578	3.8931	71.42	-0.2724	0.0137	0.2862	1063.4955	0.146349	-439.102313	-439.093226	-439.092282	-439.136163	33.073	
C	-0.3925364171	 1.6665673826	 0.1103653407	-0.439759
C	 0.0342335967	 0.2072701182	 0.0547269058	 0.339997
C	-1.1310896078	-0.718937557	-0.3172859662	-0.4351
O	 1.1001896614	 0.0954838348	-0.8989944627	-0.279464
C	 1.8855642016	-1.0155651574	-0.5526743023	 0.009802
O	 1.5957690915	-1.3484914692	 0.8058822392	-0.25585
C	 0.7521607174	-0.3376042019	 1.3231236909	-0.07439
C	 1.531247216	 0.6860872393	 2.0491946757	 0.291749
N	 2.1381801193	 1.4793925845	 2.629783253	-0.330992
H	 0.4610636505	 2.3145519908	 0.3164749917	 0.153717
H	-0.8284387326	 1.9575635847	-0.8489595069	 0.132112
H	-1.1465962976	 1.8185996491	 0.8882054333	 0.126007
H	-1.4770682513	-0.4818550892	-1.3264775015	 0.133719
H	-0.8271805536	-1.7690176843	-0.2909804939	 0.134159
H	-1.968392636	-0.5871242342	 0.3748803924	 0.123694
H	 1.6509668447	-1.900078669	-1.1619248767	 0.10982
H	 2.9415478186	-0.7440603333	-0.6730554744	 0.124976
H	 0.0541170284	-0.8028717385	 2.024981142	 0.135803
70.2846	111.8154	151.9146	207.9038	237.7023	251.9514	296.3996	345.4482	379.4693	420.9214	511.0805	572.601	635.723	748.6458	847.8739	878.2947	931.3823	943.7188	957.7791	983.8265	1028.183	1051.1518	1137.5305	1154.1747	1175.742	1200.8897	1219.0915	1269.056	1292.5603	1359.2026	1400.8888	1420.1761	1430.2746	1477.0336	1483.8765	1498.9427	1507.2598	1554.3393	2356.4808	2998.4035	3044.2772	3050.4856	3052.8775	3078.8539	3116.7582	3122.9079	3129.3442	3144.0845
CC1(C)OCOC1C#N	CC1(C)OCO[C@H]1C#N	
InChI=1S/C6H9NO2/c1-6(2)5(3-7)8-4-9-6/h5H,4H2,1-2H3	InChI=1S/C6H9NO2/c1-6(2)5(3-7)8-4-9-6/h5H,4H2,1-2H3/t5-/m0/s1
