17
gdb 49418	4.57069	1.32491	1.1782	2.4522	77.55	-0.2284	-0.0267	0.2017	1038.5433	0.136674	-384.63698	-384.630084	-384.62914	-384.668505	27.39	
O	-1.0304811859	 1.3846245662	-0.5627105953	-0.25386
C	 0.0747678798	 1.0448940281	-0.213704441	 0.122618
C	 1.2762089785	 1.9401463354	-0.126992487	-0.102619
C	 1.2365167227	 3.3747791506	-0.7106369154	-0.043908
C	 0.344079976	 3.8778958329	 0.4885737947	-0.060759
C	 0.8111802689	 5.2857202992	 0.8217924277	-0.105128
C	 2.1370459061	 5.2323195771	 0.6777706621	-0.117493
C	 2.3990034207	 3.7938849789	 0.2664386716	-0.060323
C	 1.4130419911	 2.8993645357	 1.1053033468	-0.058779
H	 0.2704791708	-0.0119130508	 0.0849394374	 0.073891
H	 2.1848031747	 1.3604961584	-0.3304830176	 0.074714
H	 1.1317217037	 3.6534355533	-1.761726266	 0.079589
H	-0.7114045369	 3.6237370371	 0.5141526762	 0.096499
H	 0.18006053	 6.1154946758	 1.1068788487	 0.106452
H	 2.8820149477	 6.0033007068	 0.8133575829	 0.106402
H	 3.4152180262	 3.4441097845	 0.0800108843	 0.064619
H	 1.518345766	 2.6133892609	 2.15541735	 0.078082
78.3615	169.0898	216.8762	353.2916	411.1888	506.7152	633.4819	681.1933	755.599	773.332	786.5555	802.2079	832.8578	885.1006	917.1356	927.6179	935.0079	960.3112	986.8571	1017.3457	1029.1355	1047.6653	1081.7227	1115.2136	1138.4097	1146.3345	1173.8805	1189.9419	1209.4331	1239.3233	1258.5388	1318.7714	1326.4611	1392.5256	1429.002	1632.8492	1813.9866	2853.297	3037.3454	3079.132	3091.4069	3113.105	3172.4692	3223.0944	3249.8671
O=CC1C2C3C=CC2C13	O=C[C@H]1[C@H]2[C@@H]3C=C[C@H]2[C@H]13	
InChI=1S/C8H8O/c9-3-6-7-4-1-2-5(7)8(4)6/h1-8H	InChI=1S/C8H8O/c9-3-6-7-4-1-2-5(7)8(4)6/h1-8H/t4-,5+,6-,7-,8+
