19
gdb 50340	2.99519	1.47341	1.33399	2.9996	74.1	-0.2411	-0.0243	0.2168	1024.0268	0.161418	-423.046096	-423.038724	-423.03778	-423.078131	28.985	
O	-0.5803438122	 0.657407295	 0.6163373461	-0.249283
C	 0.143256743	 1.0032465529	-0.2839898141	 0.139613
C	 1.2724301592	 1.9960547656	-0.1677566483	-0.074831
C	 1.2435579385	 3.1308816025	-1.2573301134	-0.252652
C	 1.4121757502	 4.3912629302	-0.3815401003	 0.117963
C	 2.3526523655	 3.9150870896	 0.7353576643	-0.240143
C	 1.3804926093	 2.7906490443	 1.1570962971	-0.054047
C	 0.1029287668	 3.6265863863	 1.3482329106	-0.084256
O	 0.1771035187	 4.6223512526	 0.3039074901	-0.282091
H	 0.0230890424	 0.5729352704	-1.3062983525	 0.07877
H	 2.1854176565	 1.3995453548	-0.310166562	 0.100127
H	 2.0503461482	 3.0214062807	-1.9874555703	 0.102501
H	 0.2950351157	 3.1742757853	-1.7992764861	 0.116488
H	 1.6791321081	 5.298654591	-0.9244708087	 0.076802
H	 3.3181140196	 3.5495812125	 0.3748553369	 0.096022
H	 2.5088109525	 4.6733487514	 1.5064097905	 0.106991
H	 1.6505883512	 2.1899994989	 2.0247639659	 0.07941
H	-0.8152649002	 3.0447885534	 1.2449451559	 0.126431
H	 0.0932051971	 4.1254571026	 2.3262542784	 0.096187
89.9329	131.8434	200.7467	308.4915	369.0492	407.706	463.5963	553.6867	691.661	720.8247	780.9242	803.6221	858.8419	887.018	921.265	941.7939	949.2799	964.4329	967.3456	990.2043	1041.42	1051.4209	1078.9301	1121.3673	1135.2276	1176.8133	1192.7467	1203.5389	1251.994	1268.2053	1293.8364	1304.2197	1321.9417	1338.993	1351.964	1381.6266	1427.6854	1483.3408	1499.9352	1535.4205	1821.3514	2854.3288	3002.1465	3016.2101	3056.4247	3064.0304	3105.9728	3107.2968	3114.8304	3119.9939	3128.6978
O=CC1CC2CC1CO2	O=C[C@H]1C[C@@H]2C[C@H]1CO2	
InChI=1S/C7H10O2/c8-3-5-1-7-2-6(5)4-9-7/h3,5-7H,1-2,4H2	InChI=1S/C7H10O2/c8-3-5-1-7-2-6(5)4-9-7/h3,5-7H,1-2,4H2/t5-,6+,7-/m1/s1
