18
gdb 55472	3.37458	1.18775	0.99546	4.2904	68.65	-0.2442	0.0249	0.2692	1208.0465	0.148793	-476.256004	-476.247541	-476.246597	-476.289718	31.706	
N	 0.1342088308	 0.9467556564	-0.7603257116	-0.510079
C	 0.0931177815	-0.1438949552	 0.0419796556	 0.36888
O	 1.0021084732	-0.5303409413	 0.7458561531	-0.361073
C	-1.2337374819	-0.9221432148	-0.0266202674	 0.119983
O	-2.2695980316	-0.0651895901	-0.4536209077	-0.26521
C	-3.5184523503	-0.7496102061	-0.5400858542	-0.081098
C	-3.3998337428	-1.9664584537	-1.4593164212	-0.208257
C	-2.2054565512	-2.8074147253	-1.0032065864	-0.077107
O	-1.0404102728	-1.9938284062	-0.9106037604	-0.248056
H	 0.9539176087	 1.5299683289	-0.7453185998	 0.261972
H	-0.7008456446	 1.2515465229	-1.2307171411	 0.271916
H	-1.4607440221	-1.3055780027	 0.984153568	 0.079841
H	-3.8311222563	-1.064007425	 0.4691127125	 0.098546
H	-4.2450251841	-0.0220031191	-0.9096319616	 0.115216
H	-4.3225136046	-2.5565592962	-1.4335227068	 0.103682
H	-3.2352920234	-1.6315830078	-2.488719956	 0.116281
H	-2.4149838473	-3.2690426758	-0.02375306	 0.096234
H	-1.969298371	-3.604304679	-1.7121278353	 0.118328
37.3131	121.5623	196.1193	255.8692	286.5081	310.1926	351.2838	413.7403	472.2385	522.4062	566.5981	624.9397	648.5565	743.9648	863.888	899.7548	904.0836	950.6421	976.3165	1030.1146	1033.1332	1065.7507	1105.3747	1145.3176	1176.6297	1239.8531	1261.656	1301.5503	1348.5434	1365.8634	1371.9886	1406.4706	1412.8576	1415.3157	1468.9575	1495.8854	1506.2595	1602.4839	1823.3455	2952.2499	2971.2694	2980.7827	3044.955	3092.5412	3099.0202	3104.0048	3602.2567	3742.079
NC(=O)C1OCCCO1	NC(=O)C1OCCCO1	
InChI=1S/C5H9NO3/c6-4(7)5-8-2-1-3-9-5/h5H,1-3H2,(H2,6,7)	InChI=1S/C5H9NO3/c6-4(7)5-8-2-1-3-9-5/h5H,1-3H2,(H2,6,7)
