19
gdb 76592	3.17284	0.76012	0.71923	4.7144	91.34	-0.2565	-0.0537	0.2029	1644.6504	0.156595	-385.866243	-385.856011	-385.855067	-385.902413	35.558	
C	-0.2044983547	 1.5529410233	-0.0039320216	-0.411299
C	-0.0033479734	 0.0562496113	-0.0668879493	-0.017092
C	 0.7057644508	-0.6371108296	-1.1896633781	-0.017081
C	 1.2952762801	 0.0865008803	-2.3785160827	-0.411286
C	 1.371416734	-0.5837526869	 0.197252024	-0.237452
C	 2.5172175336	 0.2300409864	 0.4182052113	 0.145732
C	 3.5038436201	 0.9023516448	 0.6258908472	-0.000625
C	 4.6581084164	 1.7242634601	 0.8473295888	 0.014065
O	 5.5730938002	 1.4497848014	 1.5929848151	-0.238862
H	 0.6656726342	 2.1035461754	-0.3665209262	 0.130998
H	-1.069765534	 1.8499643434	-0.6061921671	 0.122927
H	-0.3884691288	 1.872556095	 1.0267466512	 0.128737
H	-0.8161197918	-0.5112805939	 0.3789509408	 0.098869
H	 0.3248912137	-1.6269385675	-1.4276442234	 0.098876
H	 1.759066235	 1.0342740961	-2.0984164764	 0.130996
H	 2.0654276845	-0.5263008096	-2.8577220666	 0.12875
H	 0.5206636901	 0.2945301027	-3.1243882544	 0.122926
H	 1.3622494262	-1.5101618519	 0.7634944294	 0.120886
H	 4.6562013138	 2.6691132789	 0.2644028879	 0.089938
52.5496	79.9965	94.0094	159.4198	164.7635	175.801	205.2796	236.5846	357.1449	360.7254	482.7815	490.7416	618.985	635.6033	721.7333	775.0725	805.0012	912.8584	932.2484	973.2796	1018.6895	1031.0363	1073.7797	1074.3993	1126.2607	1150.703	1189.4868	1198.3037	1266.4167	1375.476	1376.9235	1421.3405	1422.7404	1424.9343	1432.0031	1484.9017	1491.6328	1499.578	1510.4227	1757.9954	2303.6941	2903.3282	3039.0794	3042.4068	3098.8419	3100.241	3119.7511	3129.5419	3138.1676	3144.3958	3156.3292
CC1C(C)C1C#CC=O	C[C@H]1[C@@H](C)[C@H]1C#CC=O	
InChI=1S/C8H10O/c1-6-7(2)8(6)4-3-5-9/h5-8H,1-2H3	InChI=1S/C8H10O/c1-6-7(2)8(6)4-3-5-9/h5-8H,1-2H3/t6-,7+,8-
