16
gdb 27306	3.22896	1.35294	0.95974	4.9425	76.24	-0.2218	-0.0161	0.2057	1176.4047	0.124895	-437.946812	-437.938507	-437.937563	-437.97948	31.404	
C	-0.0448141156	 1.4984460038	-0.0092571645	-0.472336
C	 0.0029639163	 0.0006771503	-0.0115957989	 0.08642
C	-0.0105776225	-0.7214222611	-1.1391021264	-0.025565
O	 0.0339394944	-2.0876300128	-1.1788382964	-0.224392
C	 0.096785361	-2.7646294306	-0.0120149051	 0.440429
N	 0.2029650953	-4.1152988766	-0.2413698042	-0.566882
C	 0.104622842	-2.1426948214	 1.1939186543	-0.349983
C	 0.0624588463	-0.6982406506	 1.2963879048	 0.334652
O	 0.0687029875	-0.0781473256	 2.3550056537	-0.38902
H	 0.8344466942	 1.9047149046	 0.5006601446	 0.145923
H	-0.0897897409	 1.9073811499	-1.0222295558	 0.10963
H	-0.9137946464	 1.8491609469	 0.5564376815	 0.145326
H	-0.056574073	-0.3188191671	-2.1432228459	 0.132357
H	-0.1753921209	-4.4291425401	-1.1229121525	 0.264133
H	-0.0295284242	-4.7071325584	 0.5404667884	 0.268788
H	 0.1492593964	-2.7267379612	 2.1048887726	 0.100519
114.938	140.4801	171.9467	269.9535	305.4521	330.9931	358.2504	417.5258	439.8122	521.6694	542.9841	580.4066	696.5456	733.0555	757.5214	781.3928	847.1963	881.1351	920.2058	1018.9959	1064.2086	1094.517	1163.9777	1183.9899	1279.0844	1306.9327	1398.2492	1413.2521	1448.2337	1465.0992	1484.3594	1620.2743	1661.297	1713.3194	1733.804	3040.3476	3100.2864	3120.1493	3207.9836	3215.6554	3582.1134	3694.9286
CC1=COC(N)=CC1=O	Cc1coc(N)cc1=O	
InChI=1S/C6H7NO2/c1-4-3-9-6(7)2-5(4)8/h2-3H,7H2,1H3	InChI=1S/C6H7NO2/c1-4-3-9-6(7)2-5(4)8/h2-3H,7H2,1H3
