17
gdb 11232	4.32189	1.39824	1.078	4.122	76.22	-0.2033	0.003	0.2063	1083.3463	0.14271	-363.908366	-363.900293	-363.899348	-363.941734	28.574	
C	-0.0097188341	 1.511914268	 0.0729545809	-0.485449
C	 0.0113483681	 0.022557024	-0.0094725523	 0.234839
C	-0.0026325502	-0.7354149429	-1.1083860925	-0.084691
N	 0.0185004608	-2.1085123653	-0.8177255703	-0.053541
C	 0.1211798727	-2.3063396335	 0.639546542	-0.174007
C	 0.0256113073	-0.8685337817	 1.2198568148	-0.319469
C	-0.0218680809	-3.101128009	-1.7477223519	 0.138758
O	-0.0872018411	-2.9286850343	-2.9484736581	-0.336149
H	 0.8725143383	 1.8978106678	 0.6006727667	 0.125214
H	-0.0335660654	 1.9675955814	-0.9205057691	 0.130612
H	-0.8857836975	 1.8700019202	 0.6300614839	 0.125348
H	-0.0317074905	-0.4461719446	-2.1482870722	 0.148831
H	-0.6814641517	-2.9573150474	 0.9967596551	 0.12552
H	 1.0759447063	-2.7799564119	 0.8905851273	 0.124531
H	 0.8697461777	-0.6439149145	 1.8823231217	 0.115349
H	-0.882287388	-0.7306429425	 1.8213429124	 0.115627
H	 0.010381838	-4.1042220337	-1.2782937783	 0.068677
34.4653	120.1088	187.9582	192.3159	228.1628	334.1698	337.3622	484.4973	499.6022	589.0072	760.1552	831.1464	886.8155	895.5665	927.7296	977.8719	1014.2809	1028.6365	1030.167	1100.0586	1163.5939	1205.1825	1249.672	1253.7254	1276.6236	1313.9531	1351.8477	1414.5198	1439.7016	1450.7779	1476.7047	1492.5614	1494.5487	1523.0065	1730.7083	1785.5715	2935.4877	3009.368	3017.8366	3038.966	3049.9358	3050.7853	3087.3299	3110.9377	3258.8172
CC1=CN(CC1)C=O	CC1=CN(CC1)C=O	
InChI=1S/C6H9NO/c1-6-2-3-7(4-6)5-8/h4-5H,2-3H2,1H3	InChI=1S/C6H9NO/c1-6-2-3-7(4-6)5-8/h4-5H,2-3H2,1H3
