22
gdb 120005	2.33683	1.07136	0.80021	3.5893	83.57	-0.241	0.0384	0.2794	1512.7314	0.19321	-404.386948	-404.376697	-404.375753	-404.422792	37.064	
C	 0.1673859252	 1.5744705961	-0.045036975	-0.384997
C	 0.0575880371	 0.0481578833	-0.0585149739	-0.169969
C	-1.386440558	-0.4471133817	 0.1081142465	-0.191659
C	-1.4776625216	-1.9695546914	 0.0445123529	-0.17606
C	-2.8765490463	-2.6878959448	 0.0651792559	 0.039703
C	-4.1419385947	-1.8447599486	 0.1272267512	-0.39751
N	-2.5340968707	-3.2123976472	-1.2652121853	-0.336069
C	-1.3020851266	-2.6146862252	-1.3538711929	 0.441511
O	-0.4537504656	-2.6120492682	-2.2084587745	-0.373338
H	 1.2068627365	 1.8986393187	-0.1543601955	 0.113826
H	-0.4068259475	 2.0202316417	-0.8649303394	 0.114891
H	-0.2156624352	 1.9938005418	 0.8924877222	 0.108967
H	 0.4616479562	-0.352553081	-0.9945295905	 0.134321
H	 0.6751880345	-0.3723612739	 0.746344902	 0.091865
H	-1.7909700209	-0.0939342445	 1.0665260952	 0.093572
H	-2.0116321611	-0.0001142616	-0.6748011543	 0.100452
H	-0.7869500146	-2.4159468357	 0.7678878225	 0.096271
H	-2.9225600817	-3.4793621902	 0.8236737008	 0.082494
H	-4.1364180705	-1.0554970987	-0.629032501	 0.126213
H	-5.0271425315	-2.4676488752	-0.0407677969	 0.116476
H	-4.2472756569	-1.381644895	 1.1137269979	 0.124376
H	-3.0111642461	-3.8531631186	-1.883052108	 0.244665
64.162	81.1105	90.7448	122.218	204.9712	222.1812	246.3519	277.1919	346.256	371.6911	411.22	496.7638	526.1154	698.5909	735.844	750.3114	811.6479	855.0625	897.5188	906.7995	925.4987	1028.5454	1050.6848	1070.8463	1082.1882	1110.5797	1144.7599	1167.1944	1184.1894	1206.0794	1252.8686	1283.9729	1307.4589	1332.8285	1362.9418	1384.2206	1392.2375	1397.062	1412.2357	1413.2098	1483.1511	1490.8735	1496.1337	1499.4142	1500.3064	1512.5152	1879.8593	3010.0582	3019.659	3020.2232	3027.8365	3036.6333	3045.9178	3062.8639	3073.8019	3097.6325	3100.0517	3102.7037	3122.3698	3600.8513
CCCC1C(C)NC1=O	CCC[C@H]1[C@@H](C)NC1=O	
InChI=1S/C7H13NO/c1-3-4-6-5(2)8-7(6)9/h5-6H,3-4H2,1-2H3,(H,8,9)	InChI=1S/C7H13NO/c1-3-4-6-5(2)8-7(6)9/h5-6H,3-4H2,1-2H3,(H,8,9)/t5-,6+/m1/s1
