17
gdb 33546	2.17397	1.60664	1.13007	3.4312	72.1	-0.2439	0.0221	0.2661	1101.1427	0.136647	-417.963744	-417.955425	-417.954481	-417.997156	30.344	
N	 0.3460666317	-1.2632762331	-0.1461474232	-0.336478
C	 0.1928132673	-0.119909554	-0.0696908708	 0.259448
C	-0.0238414611	 1.3206381151	-0.0051585097	 0.119501
C	-0.2711015775	 1.8532239105	 1.4445266087	-0.214949
N	 1.1475919464	 2.2641493954	 1.5199761212	-0.305146
C	 1.308237543	 2.1459736514	 0.0560136553	-0.201709
C	-1.0051968965	 1.7313649134	-1.0891333985	-0.003184
C	-2.439275205	 1.8935288566	-0.8355525128	-0.177722
O	-1.5720464884	 3.0292098882	-0.9633640815	-0.235135
H	-0.9894360947	 2.6810308993	 1.4265967754	 0.121051
H	-0.5695135448	 1.1129072058	 2.1914969724	 0.125106
H	 1.3008199104	 3.1947286755	 1.8908503179	 0.228353
H	 2.2189021252	 1.6318354033	-0.2630909596	 0.12682
H	 1.1997572376	 3.0842914166	-0.5026704091	 0.118206
H	-0.6847670223	 1.4724437619	-2.0989060283	 0.116848
H	-3.148738831	 1.7549181864	-1.6483158796	 0.132929
H	-2.8327479403	 1.7203377676	 0.1643335619	 0.126061
81.785	101.4382	149.7482	196.2031	211.1697	282.0982	414.995	461.9826	539.0503	571.2834	610.7535	692.267	850.3065	879.7866	908.2916	921.0971	943.4834	990.8058	1011.5428	1050.9198	1072.0822	1096.6869	1144.367	1157.7404	1164.2448	1177.0941	1213.9036	1255.2152	1281.0746	1302.3042	1362.8126	1386.2111	1427.7616	1497.5608	1519.3735	1531.6359	2353.6836	3020.1647	3033.5279	3088.967	3093.941	3096.7415	3108.7486	3187.165	3539.0541
N#CC1(CNC1)C1CO1	N#CC1(CNC1)[C@H]1CO1	
InChI=1S/C6H8N2O/c7-2-6(3-8-4-6)5-1-9-5/h5,8H,1,3-4H2	InChI=1S/C6H8N2O/c7-2-6(3-8-4-6)5-1-9-5/h5,8H,1,3-4H2/t5-/m1/s1
