15
gdb 26808	3.93808	1.07579	0.84877	1.3215	82.64	-0.1787	0.0095	0.1882	1282.2471	0.112954	-416.807599	-416.799009	-416.798065	-416.840359	32.811	
N	-0.2545974928	 1.4378634111	-0.0067590147	-0.634281
C	-0.0129088153	 0.0313590596	-0.0160693666	 0.095199
C	-1.070756334	-0.8544967405	-0.0939995835	 0.3902
O	-2.3878375018	-0.5967516875	-0.1681018544	-0.437387
N	-0.5967562051	-2.1224890448	-0.0870467498	-0.392368
C	 0.7996905311	-2.0883915683	-0.0035812523	 0.178444
C	 1.170339533	-0.7548430087	 0.0412749363	-0.349311
C	 1.5615500987	-3.266923319	 0.021767855	 0.260878
C	 2.1997446394	-4.291252383	 0.0424469602	-0.457368
H	 0.1948183536	 1.9042217779	-0.7890542631	 0.241654
H	 0.0981867906	 1.8768348642	 0.8384000957	 0.241654
H	-2.4475638717	 0.3716710523	-0.1553181555	 0.306308
H	-1.1545278791	-2.9575245788	-0.1343427531	 0.272808
H	 2.1870823592	-0.3993069851	 0.1079238814	 0.099537
H	 2.7716865542	-5.1849400293	 0.0614377345	 0.184034
119.1245	141.4062	216.9195	243.5122	265.7901	303.6973	424.8835	432.194	441.9915	480.2573	524.4097	546.8272	583.104	658.694	668.4391	680.598	701.3869	813.5928	823.9587	859.6943	1000.3704	1157.532	1173.6625	1211.8248	1236.3919	1245.4215	1376.8025	1414.7692	1519.5316	1588.4221	1632.182	1680.9442	2216.409	3252.3725	3487.3389	3505.1659	3549.2647	3683.5494	3718.6601
NC1=C(O)NC(=C1)C#C	Nc1c(O)[nH]c(c1)C#C	
InChI=1S/C6H6N2O/c1-2-4-3-5(7)6(9)8-4/h1,3,8-9H,7H2	InChI=1S/C6H6N2O/c1-2-4-3-5(7)6(9)8-4/h1,3,8-9H,7H2
