18
gdb 100451	3.8785	0.63256	0.55832	5.4149	80.02	-0.2395	-0.0382	0.2013	1943.8349	0.145393	-439.074297	-439.063811	-439.062867	-439.111983	35.98	
C	-0.0706815439	 1.5642610281	 0.088675751	-0.319475
N	 0.1254887853	 0.1204107313	 0.0347014935	-0.278276
H	 0.6787523684	-0.1914123424	 0.8264707529	 0.220596
H	-0.8213979916	-4.3127493933	 0.0411249993	 0.311248
C	 0.7329685424	-0.3736772474	-1.2050683098	-0.150419
C	 2.2011239495	 0.0460369213	-1.4499840467	-0.392058
C	 0.6123068926	-1.8331335255	-1.2548732949	 0.073099
C	 0.5469763803	-3.0366607753	-1.2990295491	-0.016986
C	 0.4596820964	-4.4812330652	-1.3608196195	 0.33403
O	 1.0814291883	-5.1729659334	-2.1184247374	-0.295456
O	-0.4064108167	-5.0216036552	-0.467425806	-0.358239
H	 0.8458730808	 2.1706116283	 0.0035824262	 0.103931
H	-0.7468856302	 1.8662959568	-0.7190606	 0.127437
H	-0.5543907527	 1.8196723395	 1.0356480505	 0.127098
H	 0.1235352542	 0.0274837484	-2.0280774429	 0.124016
H	 2.8467860567	-0.3457093937	-0.6579267684	 0.125687
H	 2.5610299232	-0.3432438725	-2.4061883129	 0.138446
H	 2.289381917	 1.1353315999	-1.4670558959	 0.125321
18.3553	61.978	72.6144	118.5057	177.3141	220.4408	231.7905	254.8375	327.4026	361.0928	468.8361	517.4735	527.1266	592.8208	609.1446	718.0157	766.9439	770.8225	871.2036	969.4751	1025.3717	1059.3695	1101.3268	1145.9445	1161.9917	1194.8956	1216.5311	1316.3461	1322.736	1346.5492	1400.2054	1456.6976	1478.2035	1486.6961	1494.8668	1503.8165	1520.9849	1847.9165	2342.7228	2969.9118	3007.2406	3044.0665	3060.2336	3107.226	3120.0433	3126.3536	3518.9122	3786.7416
C[NH2+]C(C)C#CC([O-])=O	CN[C@@H](C)C#CC(=O)O	
InChI=1S/C6H9NO2/c1-5(7-2)3-4-6(8)9/h5,7H,1-2H3,(H,8,9)	InChI=1S/C6H9NO2/c1-5(7-2)3-4-6(8)9/h5,7H,1-2H3,(H,8,9)/t5-/m0/s1
