20
gdb 88106	3.4748	1.23465	1.07692	2.3472	80.17	-0.2369	0.0297	0.2667	1191.1489	0.172041	-403.155013	-403.146684	-403.145739	-403.187824	32.26	
C	-0.1677175547	 1.5089950221	-0.0987238539	-0.414684
C	 0.0193442856	 0.0146299386	 0.0409704487	-0.078162
C	 1.362978591	-0.6540866911	-0.2038667812	-0.347479
C	 0.7625873542	-0.6135269477	 1.178408952	 0.4585
C	 1.413025044	 0.1369499583	 2.3149042531	-0.305519
C	 2.3986366141	-0.8094493388	 3.0145683438	-0.152986
N	 1.8222560041	-2.1202181839	 3.2991367872	-0.266887
C	 0.8184902116	-2.482184931	 2.622958796	 0.116233
O	 0.175222482	-1.8366352562	 1.6152166043	-0.265946
H	 0.7210196854	 2.0639312822	 0.2156762138	 0.116811
H	-0.3651359597	 1.7744158566	-1.1427275327	 0.12317
H	-1.0126111736	 1.8639063217	 0.5013829596	 0.12357
H	-0.8328427212	-0.5789858766	-0.280064659	 0.100663
H	 1.3719566681	-1.6061996935	-0.7215561835	 0.122187
H	 2.2236258369	-0.0197616496	-0.3961489173	 0.111452
H	 1.9213696592	 1.0324806657	 1.9488834809	 0.104685
H	 0.6437560854	 0.4608996251	 3.0268104372	 0.112244
H	 3.2944848971	-0.9489886403	 2.3948361975	 0.11293
H	 2.7430036104	-0.3766317885	 3.9601087112	 0.108278
H	 0.3267659702	-3.4338805432	 2.8161649124	 0.120941
85.5728	155.6437	197.0393	203.5284	235.5122	370.3577	387.1022	436.2209	466.5191	539.6331	558.9639	685.9525	785.744	817.8547	867.8952	880.331	900.2343	956.1527	956.2471	970.9758	1001.9721	1030.8867	1043.325	1080.4186	1116.4581	1129.3024	1173.0554	1178.8068	1194.3904	1248.2686	1260.4648	1320.4554	1354.1317	1387.7168	1411.0602	1411.7562	1427.6427	1476.641	1487.5795	1490.8075	1495.8221	1507.9013	1734.0796	3018.4443	3031.6493	3034.76	3061.5886	3094.1819	3096.446	3107.8391	3126.0641	3146.7376	3158.5305	3220.5914
CC1CC11CCN=CO1	C[C@H]1C[C@]21CCN=CO2	
InChI=1S/C7H11NO/c1-6-4-7(6)2-3-8-5-9-7/h5-6H,2-4H2,1H3	InChI=1S/C7H11NO/c1-6-4-7(6)2-3-8-5-9-7/h5-6H,2-4H2,1H3/t6-,7-/m0/s1
