17
gdb 87669	3.4676	1.15596	0.98991	5.0422	77.64	-0.2324	-0.0423	0.1901	1193.7736	0.135572	-421.843044	-421.83498	-421.834036	-421.875807	30.985	
O	-0.131832837	 1.4131665204	-0.0599912104	-0.413334
C	-0.0544501945	 0.0224480996	 0.0053998614	 0.05693
C	-0.4800536283	-0.6965844829	 1.2516264651	-0.380652
C	-1.3809344768	-0.707590077	 0.0204585885	 0.296353
C	-2.7057803581	 0.0410839262	-0.0374757715	-0.422259
C	-3.6138541546	-0.8528363379	-0.9037713699	 0.370096
O	-4.7643384782	-0.6208129938	-1.1944161963	-0.330849
C	-2.80805477	-2.0321493589	-1.2974978734	-0.206633
C	-1.5751030888	-1.940596259	-0.7774971289	-0.110093
H	 0.5582685162	 1.7812219055	 0.5020290273	 0.293451
H	 0.7470455443	-0.4205906596	-0.5865768348	 0.091578
H	 0.0324150572	-1.6120754561	 1.5291762311	 0.117316
H	-0.8177390608	-0.0867959238	 2.0832525767	 0.124722
H	-3.1662192692	 0.1813378169	 0.9449619253	 0.130608
H	-2.60652208	 1.0303826562	-0.4918425307	 0.153023
H	-3.1987488966	-2.8281138115	-1.9175780708	 0.115371
H	-0.7798848948	-2.6682374341	-0.9069112486	 0.114372
69.3666	158.9733	190.425	253.6472	281.452	374.4393	442.1625	451.2981	471.5074	533.6535	618.3598	695.9142	785.8419	819.0108	828.3438	837.3993	879.1354	933.7747	983.8237	993.776	1022.495	1047.3004	1088.0017	1103.1899	1162.2014	1170.6306	1182.8241	1228.9963	1266.4791	1296.1604	1329.1362	1379.2312	1423.7704	1451.8895	1478.4401	1631.3148	1813.5243	3066.0317	3094.4031	3110.7348	3125.4513	3181.1556	3218.072	3230.1184	3805.5402
OC1CC11CC(=O)C=C1	O[C@H]1C[C@]21CC(=O)C=C2	
InChI=1S/C7H8O2/c8-5-1-2-7(3-5)4-6(7)9/h1-2,6,9H,3-4H2	InChI=1S/C7H8O2/c8-5-1-2-7(3-5)4-6(7)9/h1-2,6,9H,3-4H2/t6-,7+/m0/s1
