21
gdb 120508	3.92662	0.8433	0.78447	1.1183	82.14	-0.2324	0.0168	0.2492	1560.0104	0.18106	-424.221959	-424.212282	-424.211338	-424.257314	34.878	
C	 0.0138386796	 1.4490607542	 0.615744417	-0.22329
O	-0.1164428543	 0.0688023658	 0.8567203688	-0.237719
C	 0.8343203414	-0.7052869238	 0.1605266	-0.070626
C	 0.5726052737	-2.1753867246	 0.4958668801	 0.053033
O	 1.4459036918	-2.9906965096	-0.2840449806	-0.291321
C	 2.1690552415	-3.9060847598	 0.5511548423	 0.094077
C	 3.666444673	-3.8033743774	 0.2622493275	-0.388345
C	 1.7658770648	-3.525965761	 1.9524892954	-0.101182
C	 0.8681167598	-2.5489697971	 1.9224757053	-0.091829
H	-0.1132207451	 1.6901504257	-0.4514757296	 0.105417
H	-0.766159147	 1.9574900253	 1.1879433815	 0.126057
H	 0.9963383286	 1.8295139958	 0.9372757024	 0.104644
H	 0.746784586	-0.5590170189	-0.9283748239	 0.094677
H	 1.862001117	-0.435388232	 0.4541937439	 0.086228
H	-0.4768143341	-2.3925839634	 0.2362165515	 0.087509
H	 1.8378733126	-4.9323628636	 0.3161215914	 0.079267
H	 4.038586435	-2.8057437115	 0.5130651652	 0.117818
H	 4.2224890207	-4.5427778743	 0.8484961059	 0.110667
H	 3.858721476	-3.9915841046	-0.7977846262	 0.125665
H	 2.1744530454	-4.0106102105	 2.8306425446	 0.102964
H	 0.3897505137	-2.0615374447	 2.7611465774	 0.116289
49.1568	84.8789	95.2417	173.6613	214.0077	233.6277	240.312	318.8178	345.4666	410.2932	474.8974	581.9822	717.3091	774.6652	783.8719	852.4777	873.4906	903.6443	962.4897	994.3766	1021.2946	1065.4775	1090.831	1100.9729	1119.1254	1135.0297	1145.0091	1168.6636	1185.147	1228.1642	1234.66	1298.0539	1326.5836	1351.5295	1372.1285	1381.3599	1399.7744	1409.9289	1481.4124	1485.7574	1485.9024	1494.741	1503.2589	1526.2639	1690.0261	2947.8954	2959.6966	2964.5291	2974.5489	3003.2841	3015.324	3036.4966	3110.0068	3112.4095	3120.6038	3207.2155	3238.4838
COCC1OC(C)C=C1	COC[C@H]1O[C@@H](C)C=C1	
InChI=1S/C7H12O2/c1-6-3-4-7(9-6)5-8-2/h3-4,6-7H,5H2,1-2H3	InChI=1S/C7H12O2/c1-6-3-4-7(9-6)5-8-2/h3-4,6-7H,5H2,1-2H3/t6-,7-/m0/s1
