18
gdb 52824	2.65232	0.99505	0.94961	2.4827	82.43	-0.2508	0.0218	0.2726	1383.199	0.145669	-401.926385	-401.916544	-401.915599	-401.9625	34.422	
C	 0.0066685508	 1.4941805881	-0.0674845773	-0.500222
C	 0.0228074993	 0.0390953455	-0.0365122473	 0.065704
C	 0.0236161325	-1.1647253401	-0.0170651471	 0.047483
C	 0.0409471207	-2.6175016207	 0.0068016407	-0.016257
C	 1.0406886673	-3.2067667152	-0.9995295319	-0.441972
C	 0.0705848746	-3.2624484649	 1.4270400873	-0.108563
O	-1.2385820273	-3.8625482273	 1.1952433469	-0.256754
C	-1.3378830448	-3.2902953635	-0.0528342407	 0.423561
N	-2.2406831479	-3.3469312282	-0.9166364518	-0.546065
H	 0.7799978855	 1.8866421844	-0.7367540893	 0.150375
H	-0.9601869271	 1.869411733	-0.4200814556	 0.15572
H	 0.183560271	 1.9152896974	 0.928269895	 0.149055
H	 2.0491456917	-2.8361304362	-0.7958726379	 0.12723
H	 1.0460246778	-4.29946439	-0.943910398	 0.123257
H	 0.759781352	-2.9142345	-2.0136533461	 0.150427
H	 0.8329601214	-4.0297491685	 1.5834034178	 0.119055
H	 0.0407232249	-2.5619307781	 2.2630170004	 0.128299
H	-3.0258511223	-3.9206525157	-0.604246175	 0.229668
26.3593	83.4325	86.4379	137.0711	205.4658	236.1625	275.1014	299.3081	331.3574	414.4942	506.2044	526.3721	584.8672	690.1035	761.8649	850.5214	868.8504	900.0144	962.6092	982.2398	1010.6804	1051.3233	1053.7795	1072.5596	1142.2752	1155.0689	1185.7141	1229.8136	1297.0011	1358.8098	1408.4582	1414.7878	1477.1537	1477.9073	1486.5337	1494.1295	1513.1115	1825.9887	2372.3421	3028.9528	3043.6491	3065.4067	3090.2986	3091.8344	3118.3451	3133.2692	3135.6602	3477.6993
CC#CC1(C)COC1=N	CC#C[C@@]1(C)CO[C]1[NH]	
InChI=1S/C7H9NO/c1-3-4-7(2)5-9-6(7)8/h8H,5H2,1-2H3	InChI=1S/C7H9NO/c1-3-4-7(2)5-9-6(7)8/h8H,5H2,1-2H3/t7-/m0/s1
