18
gdb 32196	2.41953	1.52173	0.94512	4.0465	81.34	-0.2408	-0.0136	0.2272	1213.6031	0.148676	-402.006155	-401.997528	-401.996584	-402.039728	31.691	
C	-0.0296638335	 1.5169038838	 0.0101846666	-0.502477
C	-0.0079658521	 0.0100686692	 0.0100993245	 0.230629
C	-0.020094009	-0.7075760527	-1.1837447715	-0.185288
C	 0.0007582384	-2.0981950977	-1.1527082068	-0.001697
N	 0.0324289971	-2.8075770922	-0.0245166543	-0.28294
C	 0.044096006	-2.1193749901	 1.1222194299	-0.051034
C	 0.0253610625	-0.7269056097	 1.2049624889	 0.168338
C	 0.0405020344	-0.0243830514	 2.5407787244	-0.178232
O	 0.0733785921	-0.9759767862	 3.5865958617	-0.41294
H	 0.8550580244	 1.9322981467	 0.5074370559	 0.13545
H	-0.0567538162	 1.9100553188	-1.0086951595	 0.127823
H	-0.9041045807	 1.907109098	 0.544580269	 0.135402
H	-0.0457297325	-0.1849166295	-2.134894385	 0.09029
H	-0.0084981595	-2.6662414993	-2.0804304099	 0.103147
H	 0.0698254637	-2.7022835649	 2.0358456704	 0.128947
H	 0.9147892645	 0.6476940031	 2.5890408016	 0.100871
H	-0.8498538432	 0.6229651178	 2.6221011787	 0.100863
H	 0.0841899934	-0.5021539038	 4.4223729851	 0.292849
65.9259	129.7804	170.1396	215.7559	216.1732	255.5881	317.5844	434.8646	478.3844	514.4866	538.8991	624.1945	756.8209	781.9832	841.0054	847.1185	960.2617	988.6392	1005.7852	1037.864	1066.8389	1080.8229	1098.8287	1181.7584	1199.175	1235.7716	1261.8509	1262.0164	1296.2108	1339.6494	1411.5332	1444.4608	1457.4887	1483.2843	1487.1157	1507.2802	1525.1789	1605.9523	1634.9249	2944.9277	2960.2555	3025.6495	3074.9145	3119.1968	3148.5049	3179.3545	3201.4679	3845.4248
CC1=CC=NC=C1CO	Cc1ccncc1CO	
InChI=1S/C7H9NO/c1-6-2-3-8-4-7(6)5-9/h2-4,9H,5H2,1H3	InChI=1S/C7H9NO/c1-6-2-3-8-4-7(6)5-9/h2-4,9H,5H2,1H3
