16
gdb 46505	4.38327	1.19428	1.03964	3.97	66.51	-0.2573	0.0365	0.2939	1122.439	0.125004	-475.005143	-474.9976	-474.996656	-475.037799	28.463	
N	-0.0835611453	 1.3362381811	 0.2188297457	-0.550393
C	-0.0027174575	 0.131857724	-0.1379101835	 0.449752
O	 1.0324406796	-0.3941685374	-0.8578182624	-0.250793
C	 1.2700985524	-1.7953908057	-0.6670913072	-0.172413
C	 0.0290491416	-2.5921961796	-1.0292051734	 0.386551
C	 0.041963314	-3.7067305824	-1.9805063816	-0.237559
O	 0.032185619	-3.9405653916	-0.5657625324	-0.26418
C	-1.2218267266	-1.764196881	-0.80046627	-0.160012
O	-0.9803817519	-0.7475921557	 0.1798359895	-0.222635
H	 0.7800199451	 1.8212438914	-0.018143127	 0.229644
H	 2.1283974661	-2.0437341283	-1.2928256342	 0.130829
H	 1.5265559664	-1.9949938179	 0.3803276547	 0.139684
H	-0.8722933478	-3.9853833736	-2.504131639	 0.124221
H	 0.9663980703	-3.9668749542	-2.494417224	 0.123869
H	-1.5580677567	-1.295653825	-1.7337188256	 0.127609
H	-2.0232110789	-2.3886265742	-0.4029092397	 0.145828
43.8668	152.7269	234.3043	317.4216	346.5332	365.7654	400.2869	453.7055	570.9573	683.1274	754.5302	798.7153	833.5179	836.4017	856.1343	918.217	945.1635	999.6671	1021.045	1088.9586	1105.3958	1123.9179	1129.6883	1171.4273	1256.4587	1264.2867	1279.6353	1311.3083	1355.2324	1406.7251	1446.3362	1490.9454	1499.5092	1533.9143	1779.3755	3030.9115	3039.3859	3080.0379	3125.1541	3130.6868	3167.3298	3521.4875
N=C1OCC2(CO2)CO1	[NH][C]1OC[C@]2(CO2)CO1	
InChI=1S/C5H7NO3/c6-4-7-1-5(2-8-4)3-9-5/h6H,1-3H2	InChI=1S/C5H7NO3/c6-4-7-1-5(2-8-4)3-9-5/h6H,1-3H2/t5-
