18
gdb 74422	2.9152	1.41401	1.09294	3.6788	79.28	-0.2297	-0.0508	0.1789	1150.7045	0.147035	-401.961616	-401.952992	-401.952047	-401.994685	32.441	
C	 0.0401888057	 1.5222482595	-0.0399561246	-0.490805
C	-0.0229963474	 0.0334453081	 0.0430025172	 0.185897
C	-1.0869332066	-0.7753497253	 0.1587728874	-0.198066
C	-0.7058982725	-2.2317473475	 0.1306395248	 0.292947
C	-1.4998776201	-3.2472588791	 0.9085623226	-0.492436
N	-0.1203145393	-2.5709112165	-1.1971243325	-0.361041
C	 0.7639293187	-2.2479524939	-0.0291312018	-0.229827
C	 1.2200236244	-0.8017893443	-0.0337971449	 0.382715
O	 2.3581083253	-0.3952469933	-0.0563345439	-0.329966
H	 0.7168644128	 1.921591431	 0.7228925577	 0.143424
H	 0.44761481	 1.8366871676	-1.0075448539	 0.145601
H	-0.9450272101	 1.9776487318	 0.0865431605	 0.121237
H	-2.1213361285	-0.4514382871	 0.2146245843	 0.109347
H	-2.5219280996	-3.3264117995	 0.5207523601	 0.13072
H	-1.0376696599	-4.2374681005	 0.8477135488	 0.121361
H	-1.5644505227	-2.9691954533	 1.9656036975	 0.134467
H	-0.1163813319	-3.587574235	-1.3011837719	 0.228875
H	 1.4100577917	-3.0173576929	 0.3766241828	 0.10555
102.0303	132.6812	160.2977	217.0326	240.9858	293.1676	331.5193	403.3265	443.5957	501.9761	563.8979	624.5629	700.2947	753.968	801.7453	851.1677	893.4731	918.5415	967.3704	980.0789	1025.4183	1051.5957	1066.1544	1077.1462	1122.5449	1144.6748	1202.7526	1297.8942	1328.2368	1346.2747	1409.4264	1413.4811	1430.9841	1472.224	1483.0346	1485.8165	1500.9264	1690.7167	1817.4077	3029.5149	3036.1239	3090.3416	3093.4119	3106.5398	3122.7019	3183.7675	3190.036	3440.0519
CC1=CC2(C)NC2C1=O	CC1=C[C@@]2(C)N[C@H]2C1=O	
InChI=1S/C7H9NO/c1-4-3-7(2)6(8-7)5(4)9/h3,6,8H,1-2H3	InChI=1S/C7H9NO/c1-4-3-7(2)6(8-7)5(4)9/h3,6,8H,1-2H3/t6-,7+/m0/s1
