15
gdb 17187	4.17324	1.86635	1.609	2.2892	60.59	-0.2403	0.0488	0.2891	810.7427	0.11872	-399.670727	-399.66405	-399.663105	-399.701705	25.66	
O	 0.016969459	 1.3828300675	 0.0260102276	-0.413027
C	 0.0008847446	-0.0327806183	 0.0067686767	-0.21268
C	-1.3999896766	-0.55281253	 0.0528203018	 0.480234
O	-2.3078044162	-0.1568083064	-1.0289575776	-0.369174
C	-3.144988809	-0.9702333371	-0.1560773398	 0.071524
C	-2.0063955384	-1.9816672031	 0.2093098425	-0.137231
N	-2.1340748642	-1.8178601902	 1.6938452593	-0.347509
C	-2.4904955009	-0.4596134127	 1.1668678752	-0.114487
H	-0.5853387833	 1.6761804118	-0.6676363866	 0.295894
H	 0.5082625331	-0.4357071186	-0.8842490247	 0.101323
H	 0.5421256441	-0.3804812575	 0.8921210058	 0.135505
H	-4.1886602766	-1.1311377019	-0.4296087882	 0.098824
H	-1.715425231	-2.9098398368	-0.2834199879	 0.094785
H	-2.9722051713	-2.2974092379	 2.0311324824	 0.215238
H	-2.7563249632	 0.3918693913	 1.7925099936	 0.100778
93.0988	158.7307	254.6774	349.7693	410.0334	519.7713	554.0145	677.8125	750.2997	771.4898	788.5817	835.6253	874.6179	913.8024	935.9816	954.128	1036.8941	1056.6384	1074.595	1095.0287	1121.7718	1137.1258	1152.8055	1205.0222	1211.2527	1263.6308	1284.151	1294.0673	1366.9361	1388.5685	1443.9196	1489.4194	2982.7804	3089.5791	3108.6096	3121.5333	3134.1446	3413.1064	3798.1945
OCC12OC3C1NC23	OC[C@@]12O[C@H]3[C@@H]1N[C@@H]23	
InChI=1S/C5H7NO2/c7-1-5-3-2(8-5)4(5)6-3/h2-4,6-7H,1H2	InChI=1S/C5H7NO2/c7-1-5-3-2(8-5)4(5)6-3/h2-4,6-7H,1H2/t2-,3-,4+,5+
