19
gdb 45903	2.13883	1.71498	1.18695	2.8254	82.73	-0.2387	-0.0234	0.2153	1104.4254	0.160095	-385.911295	-385.903093	-385.902149	-385.944251	31.579	
O	 0.002156672	 0.137301745	-0.8698654614	-0.316395
C	-0.075532909	 1.1774366573	-0.2522081136	 0.318425
C	-1.4390531914	 1.7869135183	 0.0715424918	-0.336917
C	-1.6693984175	 2.4070156256	 1.4240278426	-0.045549
C	-1.0507810545	 2.1059987026	 2.5641935332	-0.048715
C	 0.0617538739	 1.108493406	 2.7404067905	-0.282592
C	 1.45045903	 1.7494227899	 2.5694891631	-0.243887
C	 1.8030635121	 2.199701692	 1.179548108	-0.019853
C	 1.1730568846	 1.9698296799	 0.0270096464	-0.142238
H	-1.5820420626	 2.5703774655	-0.6889861186	 0.130746
H	-2.1899934012	 1.0189291543	-0.1519684707	 0.134881
H	-2.4457176536	 3.1686281033	 1.4465700142	 0.090002
H	-1.3362532519	 2.6567645724	 3.4586133324	 0.088848
H	 0.0024272986	 0.6741996331	 3.7442187244	 0.102556
H	-0.0421553358	 0.2713546822	 2.0417651516	 0.132972
H	 1.5424172258	 2.6078485251	 3.2495902994	 0.111308
H	 2.2240040155	 1.0401733011	 2.8988670274	 0.116489
H	 2.7458794734	 2.7425097612	 1.1199322346	 0.095302
H	 1.6506565018	 2.3048638352	-0.8924138254	 0.114618
75.287	93.3397	228.9378	261.6521	266.4188	317.7787	430.4872	482.7018	515.5826	539.9169	641.4499	672.3184	728.4984	752.0668	822.07	845.8178	900.7533	912.263	973.9014	997.1899	1007.7127	1010.551	1055.9425	1080.207	1151.4892	1177.5387	1215.1953	1247.0022	1269.9327	1278.0902	1340.818	1348.291	1385.4519	1413.5685	1426.6291	1443.3579	1464.0081	1504.2269	1713.4257	1735.2957	1776.9746	2999.5679	3001.9638	3026.2168	3045.2945	3051.8107	3080.3324	3123.9813	3133.8015	3148.3442	3158.0771
O=C1CC=CCCC=C1	O=C1CC=CCCC=C1	
InChI=1S/C8H10O/c9-8-6-4-2-1-3-5-7-8/h2,4-5,7H,1,3,6H2/b4-2-,7-5-	InChI=1S/C8H10O/c9-8-6-4-2-1-3-5-7-8/h2,4-5,7H,1,3,6H2/b4-2-,7-5-
