22
gdb 65032	2.32455	1.50677	1.31306	0.7055	81.14	-0.2397	0.072	0.3117	1123.9233	0.193513	-404.313813	-404.304488	-404.303544	-404.347355	36.62	
C	 0.024381856	 1.4476398377	-0.380769954	-0.476007
C	-0.0740795387	-0.0186412566	-0.0071543378	 0.327452
C	 1.1248919342	-0.8695000307	-0.2078349928	-0.282554
N	 0.6868147539	-0.5077078901	 1.1555276912	-0.358994
C	-1.4649291965	-0.6228102162	-0.1723542167	 0.355829
O	-1.7529929081	-0.497586034	-1.5541669105	-0.48631
C	-1.6758755593	-2.0269177634	 0.4737895827	-0.281578
C	-2.3814377594	-1.3473336339	 1.6739882076	-0.200759
C	-2.5223354838	-0.0534227903	 0.8311135568	-0.280491
H	 1.0587309098	 1.7988968878	-0.3069019635	 0.104228
H	-0.3216888007	 1.6023213796	-1.405512741	 0.144897
H	-0.5901721512	 2.0706136987	 0.2784192835	 0.118145
H	 1.0219379933	-1.9208470524	-0.4584692245	 0.117956
H	 2.0169645293	-0.3967649695	-0.609796842	 0.10853
H	 1.272300544	 0.2392940613	 1.5209833776	 0.22635
H	-2.6538707127	-0.803507299	-1.6976297144	 0.274144
H	-2.3661155116	-2.6172987891	-0.1383582115	 0.081317
H	-0.7923401542	-2.628410915	 0.6900523572	 0.113596
H	-3.3049751153	-1.8056861853	 2.0338113553	 0.089701
H	-1.6959457786	-1.2144746065	 2.5118446542	 0.122171
H	-2.2994643447	 0.8994287748	 1.3174251694	 0.096897
H	-3.5043388958	 0.0294065121	 0.3522880132	 0.08548
71.5735	135.8712	204.6873	227.5652	245.1228	284.5067	318.4404	337.2498	370.8356	435.5423	471.0213	499.5968	589.8335	672.8829	776.6292	788.0255	859.7862	870.8298	903.1942	934.9426	945.7218	975.0411	979.696	989.1853	1033.91	1045.2685	1070.5235	1105.3026	1119.3201	1147.5313	1178.3244	1204.9399	1221.035	1247.109	1263.9544	1280.3324	1286.3279	1302.7862	1363.5094	1410.2587	1429.8178	1459.6369	1476.5586	1483.5882	1497.8639	1505.8711	1517.8276	3034.65	3040.5434	3048.8398	3074.5289	3094.5419	3099.8981	3112.3859	3123.0632	3124.8636	3137.9814	3196.026	3496.2415	3819.6182
CC1(CN1)C1(O)CCC1	C[C@]1(CN1)C1(O)CCC1	
InChI=1S/C7H13NO/c1-6(5-8-6)7(9)3-2-4-7/h8-9H,2-5H2,1H3	InChI=1S/C7H13NO/c1-6(5-8-6)7(9)3-2-4-7/h8-9H,2-5H2,1H3/t6-/m0/s1
