21
gdb 57633	3.08984	0.92138	0.88589	3.0553	83.28	-0.2658	0.0351	0.3009	1429.4404	0.181899	-383.270577	-383.260541	-383.259597	-383.305516	37.421	
C	-0.0606848287	 1.548228162	-0.0481373414	-0.393013
C	 0.006447396	 0.0135891784	 0.0307407499	 0.07412
N	 0.7817028435	-0.3596252392	 1.2230195014	-0.512192
C	-1.3999333515	-0.6371857625	 0.1281283857	-0.210523
C	-2.2145658318	-0.1801232122	 1.3193893175	 0.02058
C	-3.2280520835	 0.9319319042	 1.1883226909	-0.255773
C	-3.6889439165	-0.4923680153	 1.3686193691	-0.284842
C	 0.653747273	-0.4953016647	-1.206675293	 0.250108
N	 1.182887399	-0.914244923	-2.1461526658	-0.344651
H	 0.9422082751	 1.9707672314	-0.1617347118	 0.125218
H	-0.6606840312	 1.8684925385	-0.9033374439	 0.131657
H	-0.5054072291	 1.9379466127	 0.8686646461	 0.144015
H	 0.9225617736	-1.3660494197	 1.2458152376	 0.239565
H	 1.7059755916	 0.060571226	 1.1822645346	 0.238764
H	-1.9435998827	-0.4350384064	-0.8017753747	 0.111429
H	-1.2586781301	-1.725493959	 0.1686812832	 0.108935
H	-1.6800169856	-0.2321500087	 2.2619000543	 0.104459
H	-3.3470144414	 1.6225182192	 2.016010979	 0.114126
H	-3.3633461631	 1.3850076953	 0.211507254	 0.111016
H	-4.1301965234	-0.9926637053	 0.5124221061	 0.112771
H	-4.1216259929	-0.7802216618	 2.320188801	 0.114231
68.741	93.0418	118.9082	193.7949	207.1805	243.451	285.6348	307.9685	330.4949	389.3563	402.2424	450.7379	586.2203	589.5719	735.0144	778.0057	809.7919	837.0885	867.5981	883.7593	921.2735	937.1011	989.4412	1012.0231	1056.0162	1057.5968	1080.2048	1107.4278	1144.0987	1174.7235	1199.7929	1209.4914	1229.2184	1278.385	1334.5303	1352.5897	1409.0453	1416.2607	1468.0851	1479.9017	1487.4517	1493.0847	1507.25	1659.0816	2338.1989	3019.8631	3051.1849	3066.5336	3121.0744	3128.3583	3133.0745	3149.9544	3168.9335	3206.3843	3221.9217	3488.213	3568.0058
CC(N)(CC1CC1)C#N	C[C@@](N)(CC1CC1)C#N	
InChI=1S/C7H12N2/c1-7(9,5-8)4-6-2-3-6/h6H,2-4,9H2,1H3	InChI=1S/C7H12N2/c1-7(9,5-8)4-6-2-3-6/h6H,2-4,9H2,1H3/t7-/m1/s1
