15
gdb 42229	4.16704	1.12101	1.01775	3.8463	73.84	-0.2634	-0.0949	0.1686	1150.7788	0.112653	-416.769762	-416.761961	-416.761017	-416.802945	28.44	
O	 0.4549513409	 0.2967184262	-0.9392238878	-0.305049
C	 0.2089345177	 1.3217170823	-0.3438105789	 0.30344
C	 1.2641592	 1.9551956035	 0.4823670129	 0.225061
N	 2.09116162	 2.4528793757	 1.1194502327	-0.295792
C	-1.0629238517	 2.084728539	-0.3400060131	-0.122531
C	-1.8503745334	 2.3840117292	-1.5837915211	-0.030946
C	-1.8284926802	 1.2546786215	-2.6089631836	-0.252694
C	-2.3918630847	 0.3612803069	-1.4755467562	-0.151497
N	-2.4319911975	 1.5252126035	-0.5063089286	-0.143896
H	-1.0743670632	 2.8841207143	 0.3952279905	 0.130722
H	-2.1807541018	 3.4045224698	-1.7534988189	 0.117519
H	-2.5343503305	 1.4212262367	-3.4241391579	 0.122349
H	-0.855341202	 0.9834357552	-3.0210225584	 0.135609
H	-3.4210536009	 0.0398872189	-1.6426633042	 0.123688
H	-1.7866715527	-0.4814766827	-1.1473025675	 0.144017
36.5296	139.8107	187.4429	246.2348	280.0336	347.6132	371.8662	497.0414	615.7838	711.3504	750.4935	758.4282	785.5944	826.7655	867.1058	940.049	950.2289	1011.4988	1038.8656	1064.4068	1069.8808	1130.3904	1179.8732	1215.4419	1234.2616	1267.5606	1287.2069	1352.385	1419.0511	1476.6396	1496.4074	1763.5935	2335.1727	3082.5659	3091.8134	3135.1206	3155.4257	3163.6502	3165.4089
O=C(C#N)C1C2CCN12	O=C(C#N)[C@H]1[C@H]2CCN12	
InChI=1S/C6H6N2O/c7-3-5(9)6-4-1-2-8(4)6/h4,6H,1-2H2	InChI=1S/C6H6N2O/c7-3-5(9)6-4-1-2-8(4)6/h4,6H,1-2H2/t4-,6-,8?/m1/s1
