18
gdb 54596	2.72189	1.57018	1.18339	2.4049	71.95	-0.2246	0.0215	0.2461	1061.2352	0.149848	-435.247599	-435.239373	-435.238429	-435.280667	31.468	
N	 0.4108104818	 0.6664620883	-0.8687421024	-0.535221
C	-0.0766750568	 0.1752905481	 0.296024142	 0.332565
O	 0.3986759635	 0.3995876683	 1.3972420276	-0.383939
C	-1.2809794038	-0.7308130993	 0.1204528288	 0.24027
C	-2.2814161174	-0.7789483929	 1.300644823	-0.223456
N	-2.3004975221	-2.2720575139	 1.2667974067	-0.324364
C	-1.2253021128	-2.2942770863	 0.2495949339	-0.057986
C	-1.7950501533	-2.3621863202	-1.1837606992	-0.152438
N	-1.8094551553	-0.8668430163	-1.2598225472	-0.398245
H	 1.2314037139	 1.247436225	-0.8581195522	 0.257524
H	-0.0483938829	 0.4068745534	-1.7280082805	 0.265742
H	-1.8287163963	-0.3523820866	 2.1999847652	 0.134392
H	-3.2602125377	-0.3167934713	 1.1244333593	 0.093672
H	-2.0142626286	-2.6802387165	 2.1486553509	 0.226755
H	-0.3238666779	-2.8585544841	 0.4913930567	 0.085329
H	-1.1340355051	-2.7983169652	-1.9407015477	 0.10393
H	-2.7752458609	-2.8448249846	-1.2294583328	 0.112148
H	-2.7300788784	-0.460492356	-1.3937712122	 0.223321
65.6453	103.052	171.9553	260.1075	305.1141	356.5453	402.4911	432.2616	492.4081	625.566	654.2025	671.0041	722.6375	752.9304	821.0428	840.7986	911.2584	937.944	978.4968	1002.992	1023.682	1048.2358	1074.6726	1094.0762	1112.5821	1140.5304	1174.8215	1195.7515	1231.9152	1285.2573	1312.733	1348.6871	1356.357	1391.1672	1395.4725	1498.0987	1499.721	1577.3295	1785.3123	3024.5075	3033.343	3094.0158	3095.3471	3106.7738	3516.3898	3544.7567	3576.2672	3729.4562
NC(=O)C12CNC1CN2	NC(=O)[C@]12CN[C@H]1CN2	
InChI=1S/C5H9N3O/c6-4(9)5-2-7-3(5)1-8-5/h3,7-8H,1-2H2,(H2,6,9)	InChI=1S/C5H9N3O/c6-4(9)5-2-7-3(5)1-8-5/h3,7-8H,1-2H2,(H2,6,9)/t3-,5-/m0/s1
