18
gdb 98560	3.61345	1.10685	0.94941	3.7312	73.49	-0.2551	-0.0377	0.2174	1252.109	0.147064	-439.050738	-439.042199	-439.041255	-439.084528	31.688	
O	 0.1793217434	 1.3532379886	 0.2303608647	-0.422494
C	-0.1477058205	 0.0637374886	 0.6552451364	-0.150359
C	-1.2237408796	-0.5424988959	-0.2378301865	 0.254094
O	-1.7234214889	 0.1410799168	-1.1128119644	-0.336867
C	-1.6263484223	-1.9529432242	-0.0484163773	 0.263679
C	-1.5072315714	-2.7055579274	 1.2313062601	-0.276079
N	-0.5829960422	-3.0728205972	 0.1663190238	-0.155059
C	-1.3831643462	-3.9107046011	-0.8043528863	-0.150658
C	-2.3947636164	-2.7690945335	-1.0826469779	-0.31546
H	-0.4439621727	 1.545269247	-0.4892763676	 0.292824
H	 0.7302251704	-0.5997030318	 0.6421582017	 0.138282
H	-0.5229224216	 0.068507888	 1.6932265874	 0.109861
H	-1.0245276795	-2.2159295885	 2.0709175318	 0.13559
H	-2.3138271906	-3.3849464471	 1.5038359788	 0.122215
H	-0.7617718943	-4.1724927665	-1.6614986769	 0.125413
H	-1.7739569173	-4.8261067343	-0.3492531522	 0.113696
H	-3.4493997173	-2.9539466698	-0.8646175444	 0.112506
H	-2.3081964128	-2.3490667715	-2.0845343012	 0.138815
55.1445	92.67	164.868	170.456	292.4778	327.307	383.7836	437.6744	474.4595	489.2499	574.5307	739.1363	751.2526	780.8302	788.6866	850.4041	939.7538	957.5776	990.8628	1007.898	1029.1378	1097.3446	1105.5584	1131.4339	1145.6913	1193.9294	1219.5746	1247.7935	1256.4079	1277.9385	1304.5219	1326.0363	1381.8933	1455.1803	1491.6735	1492.2126	1501.2589	1517.0026	1763.8577	2962.7474	3011.1806	3056.4601	3074.8921	3097.4421	3123.4614	3145.5348	3199.133	3675.3397
OCC(=O)C12CN1CC2	OCC(=O)[C@]12CN1CC2	
InChI=1S/C6H9NO2/c8-3-5(9)6-1-2-7(6)4-6/h8H,1-4H2	InChI=1S/C6H9NO2/c8-3-5(9)6-1-2-7(6)4-6/h8H,1-4H2/t6-,7?/m0/s1
