18
gdb 49991	3.34699	1.10347	1.0253	4.9321	78.77	-0.2358	-0.0126	0.2232	1213.9548	0.147227	-401.892774	-401.884817	-401.883873	-401.925575	30.59	
O	-0.0026467131	-0.0442262188	-0.287785657	-0.270845
C	 0.0786902827	 1.0948358856	 0.1012777463	 0.171308
C	 1.3115378524	 1.908974449	 0.0935000194	-0.154692
C	 1.1687562375	 3.4182226948	-0.1246820843	-0.378951
C	 1.542218146	 2.9074973419	 1.2144449085	 0.389606
C	 0.7607837068	 3.1104780194	 2.5421097087	-0.316168
C	 2.1165621668	 3.367973566	 3.2175610924	-0.035381
N	 2.9196523439	 2.1382735867	 3.0238643313	-0.328249
C	 2.8494189746	 3.150132399	 1.9374986547	-0.151685
H	-0.8149010048	 1.6298068823	 0.5041915475	 0.060328
H	 2.1824303293	 1.411871186	-0.3200607938	 0.106456
H	 1.9248839951	 3.8940954255	-0.7401888495	 0.12697
H	 0.1637709541	 3.8064409352	-0.2656916585	 0.122971
H	 0.1153624173	 3.9918647911	 2.5133108495	 0.11004
H	 0.2082355053	 2.2529600325	 2.9327542069	 0.119912
H	 2.3281040587	 4.0537320616	 4.0278485346	 0.100396
H	 3.8083230518	 2.2840922385	 3.5037851689	 0.230569
H	 3.7439703757	 3.6187679437	 1.5451004142	 0.097415
77.2648	129.1829	174.7765	219.5282	349.4138	354.6847	423.9269	471.5991	497.3181	595.7594	760.9049	815.7773	831.1507	848.8781	868.5162	887.1049	921.6692	963.5222	975.57	988.9102	1038.654	1049.6284	1059.489	1070.9432	1108.956	1116.3882	1158.4323	1173.5394	1194.1368	1229.9138	1284.7345	1291.5551	1317.0076	1362.5835	1409.145	1445.9456	1472.3249	1487.3581	1818.2598	2837.7707	3063.3724	3120.1883	3121.5307	3177.0473	3184.7192	3201.441	3208.6568	3466.0677
O=CC1CC11CC2NC12	O=C[C@H]1C[C@]21C[C@H]1N[C@@H]21	
InChI=1S/C7H9NO/c9-3-4-1-7(4)2-5-6(7)8-5/h3-6,8H,1-2H2	InChI=1S/C7H9NO/c9-3-4-1-7(4)2-5-6(7)8-5/h3-6,8H,1-2H2/t4-,5-,6-,7-/m1/s1
