18
gdb 126818	3.28364	1.26632	0.98475	2.4039	75.15	-0.214	0.0154	0.2294	1230.4976	0.148424	-435.317721	-435.308563	-435.307619	-435.352554	32.069	
C	 0.0912375063	 1.5933343425	-0.0811091179	-0.376931
C	-0.0255026255	 0.0851636537	 0.1392979815	-0.145392
N	 0.6791475955	-0.3658735583	 1.322294292	-0.082887
N	 2.0546784683	-0.3501152236	 1.3886690211	-0.254846
C	 2.3239886341	-0.8034950478	 2.5737139613	 0.042851
N	 1.1977465803	-1.114579129	 3.2883121871	-0.126013
C	 1.0806045245	-1.6435879921	 4.6292898013	-0.349539
C	 0.0890385665	-0.8303183997	 2.4773017837	 0.483805
O	-1.0892574703	-0.9698899596	 2.7482627205	-0.451092
H	 1.1398464966	 1.8865184865	-0.1787588973	 0.139003
H	-0.4352147922	 1.881162541	-0.9961241728	 0.119
H	-0.3468783328	 2.1440158223	 0.7563801245	 0.129055
H	-1.0661977833	-0.2131649157	 0.2901334245	 0.14662
H	 0.3665011136	-0.4615232094	-0.7249379473	 0.121667
H	 3.3239765049	-0.9277295488	 2.9596520052	 0.14782
H	 1.5712692889	-2.6178811736	 4.7153161945	 0.140171
H	 1.5110687768	-0.957987676	 5.3656301418	 0.140096
H	 0.0133863177	-1.7598702923	 4.8280055364	 0.176612
47.2201	86.7261	95.6733	178.6493	204.0109	263.5598	276.8629	307.0756	383.2546	557.2501	600.0605	646.4533	743.2282	772.4921	794.8152	812.2159	830.1709	958.2041	1028.5648	1059.8943	1087.3786	1111.6483	1159.0818	1222.2654	1259.0625	1315.4331	1348.4494	1387.7458	1403.3276	1411.0851	1421.632	1464.2261	1479.6166	1490.2368	1496.9405	1505.9153	1509.4529	1614.9601	1815.4313	3039.0836	3044.4415	3050.6558	3101.7627	3107.6797	3118.4895	3132.4686	3144.0678	3261.7247
CCN1N=CN(C)C1=O	CCn1ncn(C)c1=O	
InChI=1S/C5H9N3O/c1-3-8-5(9)7(2)4-6-8/h4H,3H2,1-2H3	InChI=1S/C5H9N3O/c1-3-8-5(9)7(2)4-6-8/h4H,3H2,1-2H3
