12
gdb 21593	3.61346	2.00489	1.29129	6.3072	63.71	-0.2221	-0.0249	0.1971	853.7918	0.086784	-373.731409	-373.724585	-373.723641	-373.762366	25.177	
N	 0.0060465823	 1.4125648766	 0.1680271354	-0.617997
C	-0.0185671874	 0.0287983367	 0.047928498	 0.144169
C	-1.101866286	-0.8300545566	 0.0306705892	-0.100423
N	-0.5822919038	-2.09149471	-0.0235027996	-0.176355
N	 0.7425265381	-2.1346815347	-0.040998969	-0.282004
C	 1.1073781448	-0.842182049	-0.0002491211	 0.210877
C	 2.4642879932	-0.4317741529	-0.0172461738	 0.230797
N	 3.5441258757	-0.0123961958	-0.0373068826	-0.355125
H	 0.8872559273	 1.8244909514	-0.1086826977	 0.265329
H	-0.7671456602	 1.8878008174	-0.2749676691	 0.253828
H	-2.1633527482	-0.6476958112	 0.0576539168	 0.139594
H	-1.0933207157	-2.9582453218	-0.0502699065	 0.287311
136.4715	170.4668	229.6179	317.5437	365.5822	515.957	549.72	551.7832	610.5607	641.238	673.7332	715.8548	739.3258	771.3495	949.4296	1076.9417	1103.5531	1203.4561	1273.1798	1351.2532	1386.9217	1464.2882	1524.8957	1620.8296	1661.663	2342.7683	3273.9525	3554.1306	3649.1412	3668.0966
NC1=CNN=C1C#N	Nc1c[nH]nc1C#N	
InChI=1S/C4H4N4/c5-1-4-3(6)2-7-8-4/h2H,6H2,(H,7,8)	InChI=1S/C4H4N4/c5-1-4-3(6)2-7-8-4/h2H,6H2,(H,7,8)
