17
gdb 39971	3.52194	1.43005	1.18986	2.5522	74.78	-0.2337	-0.0041	0.2296	1045.4437	0.136187	-421.765333	-421.758061	-421.757117	-421.797129	28.321	
C	-0.0968076975	 1.4873772035	 0.0012836228	-0.253313
O	 1.1576937618	 0.7783480102	 0.0734233242	-0.272724
C	-0.0332349535	 0.0314726761	 0.012350925	 0.401255
C	-0.5539589681	-0.9602663775	 1.096415494	-0.414603
C	-1.3499622405	-1.5424751028	-0.0546005321	 0.227947
C	-2.5772983543	-1.6783882464	-0.5386301935	-0.233038
C	-2.5373817547	-1.2941585773	-2.0111897537	-0.10541
O	-1.2736987624	-0.6232323986	-2.2044695974	-0.280748
C	-0.4535700265	-0.9576813359	-1.1061825556	 0.004691
H	-0.3765066915	 2.0257334033	 0.9054860671	 0.11713
H	-0.2844610864	 2.0053565788	-0.9370879633	 0.132179
H	 0.2531962751	-1.6055702508	 1.4581675296	 0.129498
H	-1.1069201056	-0.5568471241	 1.9462056699	 0.125397
H	-3.4994699174	-1.8769810258	-0.007278035	 0.108441
H	-2.6097833393	-2.1533365666	-2.6969016503	 0.108266
H	-3.3485585855	-0.6001165271	-2.2663880246	 0.115256
H	 0.4064094563	-1.5684427489	-1.421413387	 0.089776
93.1605	193.1904	205.0075	277.2955	351.4212	369.2417	495.6971	556.1872	659.0088	754.5462	775.9251	796.2097	853.4051	887.2488	908.2873	917.5957	935.9375	975.6422	1021.1555	1023.072	1069.5702	1105.994	1114.4147	1129.4355	1156.9599	1160.2313	1192.1302	1204.7873	1232.633	1288.6036	1339.543	1379.8958	1431.8316	1475.0845	1514.7582	1534.5862	1735.7078	2976.7023	2988.4737	3035.3043	3055.534	3089.3406	3122.0365	3181.554	3214.7532
C1OC11CC2=CCOC12	C1O[C@]21C[C]1[CH]CO[C@@H]21	
InChI=1S/C7H8O2/c1-2-8-6-5(1)3-7(6)4-9-7/h1,6H,2-4H2	InChI=1S/C7H8O2/c1-2-8-6-5(1)3-7(6)4-9-7/h1,6H,2-4H2/t6-,7+/m1/s1
