20
gdb 56913	3.00642	0.99603	0.88453	2.3082	82.27	-0.2429	0.0305	0.2734	1399.9354	0.167397	-403.087528	-403.076983	-403.076039	-403.123162	38.609	
C	 0.026832429	 1.5376709214	-0.1936284167	-0.435501
C	-0.0243724136	 0.0384256943	 0.0225014194	 0.322035
C	-1.2117061077	-0.6423778568	-0.6318000387	-0.459279
N	 1.2811491446	-0.6541529616	-0.0180267086	-0.364896
C	 0.5330875853	-0.5988815219	 1.2479186535	-0.076441
C	 1.1702143117	 0.1793291725	 2.3913065842	-0.054951
O	 0.1825342922	 0.8024441371	 3.2118054275	-0.418275
C	 2.055578975	-0.6858619374	 3.1769109083	 0.295422
C	 2.7296500963	-1.4285155104	 3.8401238859	-0.445538
H	 0.9563331436	 1.9674713056	 0.1823180295	 0.127978
H	-0.0333958661	 1.7664534047	-1.2635645818	 0.111889
H	-0.8121620569	 2.0306973134	 0.3078638772	 0.125599
H	-1.182066773	-0.5104426815	-1.7198798826	 0.12175
H	-1.2252353378	-1.7166246602	-0.4198423796	 0.110624
H	-2.1559218647	-0.2170807051	-0.2742502401	 0.126474
H	 1.1928749929	-1.5744034614	-0.4419709521	 0.227175
H	 0.0374884685	-1.5114610935	 1.580231117	 0.077197
H	 1.7586748178	 0.9983414004	 1.9683414138	 0.125412
H	-0.2040243414	 0.1191510803	 3.7702713287	 0.284231
H	 3.347576624	-2.0667589699	 4.4222381152	 0.199095
42.9978	97.3124	153.3203	156.6784	181.8144	222.8867	239.3797	273.5924	347.8255	379.6024	382.354	428.5266	508.1125	529.6182	594.619	633.4591	670.3665	718.2607	836.2207	914.0268	941.8058	959.1497	974.3857	994.8442	1059.0165	1062.5906	1083.8573	1130.5343	1154.6335	1203.4363	1260.4406	1293.0242	1316.0067	1354.5226	1404.4087	1411.7907	1423.7363	1458.5298	1477.9502	1488.9123	1500.4989	1513.1903	2231.0435	3023.	3037.2966	3075.9806	3087.3048	3097.2235	3098.485	3102.6171	3138.0786	3496.4223	3503.0751	3810.141
CC1(C)NC1C(O)C#C	CC1(C)N[C@H]1[C@@H](O)C#C	
InChI=1S/C7H11NO/c1-4-5(9)6-7(2,3)8-6/h1,5-6,8-9H,2-3H3	InChI=1S/C7H11NO/c1-4-5(9)6-7(2,3)8-6/h1,5-6,8-9H,2-3H3/t5-,6-/m0/s1
