23
gdb 76804	2.62701	1.53635	1.27464	0.4406	91.26	-0.2258	0.0789	0.3046	1131.5703	0.206325	-351.041396	-351.032964	-351.03202	-351.073749	34.395	
C	-0.2585671489	 1.6353991612	-0.0249593691	-0.410785
C	-0.0364737104	 0.1261542289	 0.0284349432	-0.044541
C	 0.9588574591	-0.5691596708	-1.0331809324	-0.105354
C	 1.4680808527	 0.2062875906	-2.2384009648	-0.40901
C	 1.9021788195	-0.8139936276	 0.1665604466	 0.303407
C	 2.6308272112	-1.7206255893	 1.2110495228	-0.312424
C	 2.093222147	-0.4376989214	 1.9928182144	-0.083998
C	 2.6479804112	 0.3979462171	 0.8269100309	-0.242314
C	 0.7659152548	-0.6324685816	 1.1754982623	-0.025971
H	 0.6587214647	 2.2232268294	-0.0875075584	 0.121987
H	-0.867114894	 1.8955705921	-0.8989884538	 0.112297
H	-0.8041767615	 1.9672006058	 0.864911569	 0.118737
H	-1.0266693961	-0.3364793142	-0.0285677206	 0.076657
H	 0.4981990131	-1.5072075721	-1.3624752915	 0.075544
H	 1.9668670869	 1.1339327147	-1.9408108973	 0.116846
H	 2.1903302092	-0.3905842502	-2.8062290797	 0.11595
H	 0.6491741448	 0.4695307794	-2.9172513725	 0.112068
H	 2.1468279882	-2.6724465188	 1.4458164084	 0.093125
H	 3.7199189661	-1.8243805943	 1.1555452462	 0.087545
H	 2.2268028409	-0.2483649371	 3.0627260192	 0.064039
H	 3.73496596	 0.4094885714	 0.7025848633	 0.08306
H	 2.2351706837	 1.3957436088	 0.7004083668	 0.092326
H	 0.2260717178	-1.5455848518	 1.445208037	 0.060809
138.0955	180.9249	206.0481	221.0949	236.9081	270.3156	387.6412	486.6495	499.4845	538.1341	591.0315	666.7041	716.3499	761.8462	791.2255	836.1206	868.6754	915.9587	941.5163	966.4684	993.5607	1011.2048	1017.4222	1038.5198	1055.2163	1072.5218	1088.7587	1115.0066	1132.6705	1144.2399	1155.889	1177.8802	1190.5798	1210.2518	1217.6985	1230.2342	1258.9999	1279.6955	1349.8257	1362.3866	1382.8023	1407.3909	1416.9164	1485.6182	1490.2318	1493.7807	1500.8274	1506.243	1538.9176	3027.2695	3030.8096	3033.1851	3034.9596	3040.986	3048.8612	3056.8759	3066.2997	3088.6844	3091.8066	3101.8585	3109.365	3123.3166	3165.3149
CC1C(C)C23CC(C2)C13	C[C@H]1[C@@H](C)[C@@]23C[C@@H](C2)[C@@H]13	
InChI=1S/C9H14/c1-5-6(2)9-3-7(4-9)8(5)9/h5-8H,3-4H2,1-2H3	InChI=1S/C9H14/c1-5-6(2)9-3-7(4-9)8(5)9/h5-8H,3-4H2,1-2H3/t5-,6+,7-,8+,9+/m0/s1
