18
gdb 11846	6.71741	1.05357	1.02649	2.8936	73.92	-0.2447	-0.0218	0.2229	1166.6465	0.153075	-347.788238	-347.780421	-347.779476	-347.820987	29.153	
O	 1.1265774067	-0.3181892118	-0.3129573933	-0.253791
C	 0.5324175286	 0.7046863514	-0.0868222127	 0.159935
C	 1.1551883626	 2.0617779625	 0.0652857011	-0.052045
C	 0.531363542	 3.2107437081	-0.7976392938	-0.324609
C	 0.5153447995	 4.0919606058	 0.4564837196	 0.391598
C	 1.2048489192	 5.4176001723	 0.5964263069	-0.315374
C	-0.2991349813	 5.3155570149	 0.7369678794	-0.332107
C	 0.7550617714	 2.8678827905	 1.3474242976	-0.324627
H	-0.5796384843	 0.7075859356	 0.0301260034	 0.063791
H	 2.2358254403	 1.9805780002	-0.0604341395	 0.094285
H	 1.1264309151	 3.5458934091	-1.6504823316	 0.113195
H	-0.475399389	 2.9573231269	-1.1499091876	 0.105552
H	 1.7904729754	 5.5985489107	 1.4924666384	 0.114096
H	 1.6036769927	 5.8847822203	-0.2987067194	 0.114096
H	-0.9152258427	 5.7149766786	-0.0627113861	 0.113639
H	-0.7284931074	 5.4288658314	 1.7276267294	 0.113638
H	-0.1678518139	 2.4859143541	 1.7993379173	 0.105545
H	 1.5200015252	 2.9426212394	 2.1239912608	 0.113182
58.5456	70.4583	246.8192	277.4036	286.6208	365.2645	374.3638	416.4206	593.5649	751.4513	773.4167	812.2765	868.4925	893.5316	903.7423	907.1742	935.7547	988.9063	1036.8599	1053.3224	1069.1577	1077.8742	1092.5793	1157.2934	1187.7583	1215.3088	1239.9623	1242.852	1251.5453	1272.2482	1318.8351	1386.4685	1431.3384	1463.1712	1474.31	1493.966	1504.9685	1829.7947	2828.4821	3034.0799	3038.8506	3095.0673	3101.6666	3113.6155	3120.4739	3124.4328	3198.3031	3213.1601
O=CC1CC2(CC2)C1	O=CC1CC2(CC2)C1	
InChI=1S/C7H10O/c8-5-6-3-7(4-6)1-2-7/h5-6H,1-4H2	InChI=1S/C7H10O/c8-5-6-3-7(4-6)1-2-7/h5-6H,1-4H2
