17
gdb 34438	3.0888	1.72444	1.28219	2.9884	76.82	-0.2554	0.0167	0.2721	974.7586	0.138707	-380.829532	-380.822711	-380.821767	-380.860634	27.438	
N	 0.0091419547	-1.1452630139	 0.0208615956	-0.34249
C	-0.0102363294	 0.0114135875	 0.0385838796	 0.174619
C	-0.0211884193	 1.4576142885	 0.0472831198	 0.237045
C	-0.9397798524	 2.1733115462	 1.0377336043	-0.315237
C	-0.5727931684	 3.629240374	 0.6382368424	-0.179141
N	 0.4269381604	 3.4669676321	-0.4410377746	-0.129745
C	 1.3134992043	 2.2918225035	-0.0509435842	-0.056128
C	 1.4508941462	 1.9459007835	-1.5435099008	-0.24966
C	-0.0274771066	 2.2891180598	-1.2926835393	-0.056142
H	-1.9920381487	 1.9268319219	 0.8728357442	 0.12178
H	-0.6940822554	 1.9294561423	 2.0747286543	 0.121785
H	-1.4271230221	 4.1947627385	 0.2569657295	 0.116484
H	-0.1283246	 4.197390638	 1.4596475445	 0.116485
H	 2.0811002431	 2.379799476	 0.7197969936	 0.096019
H	 2.0040396572	 2.6685422918	-2.1424355715	 0.119567
H	 1.6860466789	 0.9118627483	-1.7952042604	 0.128744
H	-0.8550348625	 2.373873922	-1.999052197	 0.096014
150.0429	153.6388	257.178	362.2728	419.5364	517.7048	529.1703	554.9011	703.471	723.8433	732.6691	824.5419	858.6056	865.776	907.8401	923.3083	950.5732	1006.1478	1031.628	1035.8791	1107.6471	1115.566	1124.89	1156.3371	1158.7936	1188.0924	1214.1262	1227.9358	1232.3773	1255.8353	1285.4372	1309.0106	1330.4726	1492.3421	1499.1491	1510.9922	2345.4982	3060.8763	3068.3822	3090.9996	3100.1141	3103.3543	3110.9934	3118.9725	3168.2128
N#CC12CCN3C1CC23	N#C[C@@]12CCN3[C@@H]1C[C@@H]23	
InChI=1S/C7H8N2/c8-4-7-1-2-9-5(7)3-6(7)9/h5-6H,1-3H2	InChI=1S/C7H8N2/c8-4-7-1-2-9-5(7)3-6(7)9/h5-6H,1-3H2/t5-,6+,7+
