18
gdb 95057	2.20802	1.92094	1.22078	4.8265	71.57	-0.2398	0.0363	0.2761	1030.9164	0.149196	-439.11695	-439.108954	-439.10801	-439.149599	30.787	
O	 0.0449656658	 1.4231418637	-0.0940136724	-0.423743
C	 0.0393504803	 0.0149760732	 0.0051693004	 0.139035
C	 0.6880425913	-0.5552644848	 1.2855230313	-0.26439
C	 0.075107547	-1.9604860441	 1.4150711782	-0.225527
C	-1.3789574342	-1.7790740166	 0.9520120546	 0.026564
N	-2.2444082254	-1.0383857753	 1.8777521866	-0.327721
C	-2.3357317286	 0.109422537	 1.1223210599	 0.436352
O	-2.9350518868	 1.1364446023	 1.27719691	-0.357065
C	-1.4046545584	-0.5085453684	 0.0381486651	-0.202764
H	 0.9603416328	 1.7189826006	-0.1190362557	 0.284606
H	 0.5376082453	-0.4355519925	-0.8706298198	 0.066473
H	 1.7808623579	-0.5667465782	 1.2356382921	 0.092485
H	 0.3992977109	 0.0762791051	 2.1322759923	 0.122987
H	 0.577132508	-2.6618809912	 0.7376991396	 0.104067
H	 0.1481887881	-2.3767459847	 2.4243341383	 0.102462
H	-1.8395056596	-2.6896145935	 0.5593115179	 0.081957
H	-2.6525201315	-1.2868699285	 2.7674741447	 0.244871
H	-1.8683596929	-0.5917968041	-0.9445441731	 0.099352
70.5806	136.9894	205.3924	255.6427	335.8122	356.1244	385.0611	454.4082	532.9672	539.1671	608.8129	721.993	788.5482	817.0242	861.6421	880.3857	920.3251	947.8346	971.0972	1034.8951	1048.128	1093.5309	1121.6033	1148.4507	1162.7742	1172.3972	1196.6619	1237.8432	1279.9264	1297.565	1305.3225	1336.9033	1361.6914	1377.7455	1386.3597	1429.1054	1481.1779	1496.711	1898.8439	2944.5018	3036.4038	3051.7605	3070.9381	3085.6409	3100.1455	3122.1327	3600.4791	3819.8969
OC1CCC2NC(=O)C12	O[C@H]1CC[C@H]2NC(=O)[C@@H]12	
InChI=1S/C6H9NO2/c8-4-2-1-3-5(4)6(9)7-3/h3-5,8H,1-2H2,(H,7,9)	InChI=1S/C6H9NO2/c8-4-2-1-3-5(4)6(9)7-3/h3-5,8H,1-2H2,(H,7,9)/t3-,4+,5-/m1/s1
