18
gdb 120598	4.05678	0.77308	0.71878	5.0167	74.92	-0.2732	0.0044	0.2776	1599.7869	0.144313	-439.063009	-439.052934	-439.05199	-439.098844	34.698	
C	-0.2568482394	 1.3343570136	 0.0049255885	-0.228689
O	-0.1334288721	-0.068071299	-0.0684498428	-0.233036
C	 0.7918060132	-0.4860019293	-1.0430365094	-0.093
C	 0.8338324722	-1.992652847	-1.0014931403	 0.012085
O	-0.0012719055	-2.7247751181	-1.8998368629	-0.262094
C	 1.4153062508	-2.821964385	-2.0823895921	 0.222485
C	 1.995300729	-2.2666313394	-3.3668774873	-0.469338
C	 1.9798198043	-4.1073183029	-1.6880601482	 0.256867
N	 2.4562385746	-5.1181439991	-1.3936057795	-0.328223
H	 0.7010620311	 1.8140393259	 0.2606497506	 0.1081
H	-0.6144044811	 1.7621189383	-0.9444590798	 0.110533
H	-0.9844732032	 1.554327917	 0.7888866432	 0.136983
H	 0.4970424714	-0.1363172586	-2.0434700653	 0.103093
H	 1.7973019116	-0.0827578318	-0.8261998834	 0.099846
H	 0.8592631494	-2.3969367232	 0.0103407188	 0.124987
H	 1.5286493011	-1.3147433345	-3.6214640441	 0.140038
H	 3.074993879	-2.1218014446	-3.2668538351	 0.146087
H	 1.8210671536	-2.9683968022	-4.1871999506	 0.153277
55.4962	80.2585	107.0672	152.7913	161.9802	199.212	232.1365	271.472	329.5638	383.3963	405.4438	498.1502	580.6979	612.9181	684.746	840.1463	894.9943	938.3727	986.6948	1049.1253	1099.4255	1112.4793	1130.2719	1165.0736	1185.1089	1226.6392	1239.0456	1269.3882	1327.162	1390.0073	1415.4911	1464.2261	1476.2284	1484.5675	1486.429	1496.1373	1500.3363	1520.7722	2358.3254	2948.6611	2974.7743	3010.6402	3021.1952	3054.6513	3121.6703	3124.1864	3124.3954	3153.9409
COCC1OC1(C)C#N	COC[C@H]1O[C@]1(C)C#N	
InChI=1S/C6H9NO2/c1-6(4-7)5(9-6)3-8-2/h5H,3H2,1-2H3	InChI=1S/C6H9NO2/c1-6(4-7)5(9-6)3-8-2/h5H,3H2,1-2H3/t5-,6-/m1/s1
