18
gdb 67563	2.93968	1.99399	1.48426	1.7658	73.94	-0.2288	0.0755	0.3044	912.8831	0.148749	-401.851616	-401.844908	-401.843964	-401.882192	28.29	
C	 0.0372348177	 1.5206112199	-0.001581852	-0.515516
C	 0.0856673428	 0.0150347235	-0.0170374692	 0.343756
C	 0.6131808399	-0.742898881	-1.2201597807	-0.110466
C	 1.7730003348	-1.6560028276	-1.0322025459	-0.248518
N	 0.400903184	-2.1701614259	-0.8602222656	-0.118902
C	-0.1074460399	-2.0103569562	 0.5033353351	-0.023538
C	 0.4960235787	-0.7820401496	 1.2635040045	-0.020325
O	-0.795296861	-0.5172668094	 1.9078301361	-0.318672
C	-1.1343399672	-0.8421318064	 0.5250178842	 0.01755
H	 1.0424355314	 1.9499126231	-0.0728644121	 0.120868
H	-0.548580225	 1.9082620425	-0.8423515601	 0.119311
H	-0.4221338979	 1.8647127948	 0.9291294074	 0.139944
H	 0.3109539024	-0.4349972612	-2.2177549842	 0.094945
H	 2.2859741441	-2.0449466674	-1.9068728662	 0.122468
H	 2.4034832813	-1.5402435794	-0.1545977876	 0.118159
H	-0.3153271297	-2.9309328423	 1.0449586093	 0.091478
H	 1.3877102054	-0.6919051125	 1.8843327829	 0.092216
H	-2.1851755019	-0.8251427147	 0.2337785943	 0.095241
234.1846	245.5009	269.7692	313.8724	380.0273	485.7801	541.9255	660.8937	672.7904	683.6881	768.6386	806.5309	813.987	841.5756	884.6178	894.8	931.0781	939.2689	1008.3095	1013.0298	1061.9149	1073.917	1097.7516	1110.4729	1136.879	1152.0182	1163.6157	1183.2515	1200.3809	1229.0547	1250.2539	1262.1695	1281.5924	1323.4327	1395.3596	1410.7377	1492.878	1498.2979	1504.4483	3032.2755	3092.3455	3107.8216	3114.6954	3117.2298	3117.7889	3142.0013	3150.8144	3199.7974
CC12C3CN3C3C1OC23	C[C@@]12[C@H]3CN3[C@H]3[C@@H]1O[C@@H]23	
InChI=1S/C7H9NO/c1-7-3-2-8(3)4-5(7)9-6(4)7/h3-6H,2H2,1H3	InChI=1S/C7H9NO/c1-7-3-2-8(3)4-5(7)9-6(4)7/h3-6H,2H2,1H3/t3-,4-,5-,6+,7+,8?/m1/s1
