21
gdb 86344	1.96571	1.57285	0.97205	1.6878	77.95	-0.2473	0.0621	0.3094	1249.558	0.181775	-424.191856	-424.18234	-424.181396	-424.226727	35.786	
O	 0.3541090618	 0.521862702	-1.0793467633	-0.431525
C	 0.0140410473	-0.3570327717	-0.0387062226	 0.151246
C	 0.1120326145	 0.0955316505	 1.4450636218	-0.319505
C	-1.133600465	-0.7904074874	 1.7270679917	 0.15126
O	-2.0887883622	-0.4005672336	 2.6792627109	-0.431539
C	-1.4827611986	-0.7420690469	 0.2029838325	-0.109123
C	-2.4546703762	 0.3581784674	-0.1586240753	-0.005679
C	-3.1286100481	 0.3609542236	-1.5121448473	-0.278648
C	-3.9319435444	 0.0577103196	-0.2755147312	-0.278639
H	-0.2805529375	 1.2455425562	-1.0796451613	 0.280614
H	 0.6168929049	-1.2542098067	-0.2053427068	 0.091177
H	 1.0338464092	-0.1044785613	 1.9950887603	 0.102453
H	-0.1337754143	 1.1591353691	 1.5463605833	 0.090739
H	-0.8272945258	-1.7995623578	 2.0167401553	 0.091167
H	-2.5182826975	 0.4003419047	 2.3621061061	 0.280625
H	-1.8194842193	-1.6815934208	-0.2464512908	 0.063026
H	-2.2160015127	 1.3444211404	 0.2382677626	 0.076767
H	-3.2894420786	 1.3116465763	-2.0083629512	 0.113752
H	-2.8956316085	-0.4569676223	-2.1850348565	 0.124035
H	-4.2456576097	-0.966584028	-0.1068132342	 0.124043
H	-4.6405381591	 0.8016319468	 0.0714604759	 0.113752
35.5044	112.3238	152.3956	176.2793	194.9664	271.9759	288.7254	339.7022	381.8244	435.2368	488.7779	614.9023	629.6196	760.2772	771.5349	815.6615	838.0983	891.1849	927.8105	940.5388	961.9069	1011.2241	1045.5592	1059.4979	1078.2128	1087.2432	1105.2211	1142.0181	1144.406	1162.2061	1187.1743	1201.5367	1226.7228	1246.2119	1256.5697	1278.8868	1309.75	1313.1914	1329.6092	1426.2159	1430.3608	1453.7878	1471.7548	1484.9058	1504.9511	3042.2563	3051.4339	3068.2487	3076.0425	3102.0365	3115.5396	3133.8599	3138.4323	3212.5237	3226.9795	3817.5634	3818.5018
OC1CC(O)C1C1CC1	O[C@H]1C[C@@H](O)[C@H]1C1CC1	
InChI=1S/C7H12O2/c8-5-3-6(9)7(5)4-1-2-4/h4-9H,1-3H2	InChI=1S/C7H12O2/c8-5-3-6(9)7(5)4-1-2-4/h4-9H,1-3H2/t5-,6+,7-
