18
gdb 71880	2.96242	1.94556	1.46799	2.2922	76.94	-0.2077	-0.006	0.2017	914.4098	0.148974	-401.868552	-401.861569	-401.860625	-401.899295	29.266	
O	 0.0714636279	 1.3938455495	 0.0645463552	-0.497319
C	 0.0241267382	-0.0079292131	 0.0455482818	 0.405889
C	 0.12890184	-0.6728998697	-1.3908783992	-0.232158
N	-1.3144480597	-1.1441454935	-1.3748066947	-0.139474
C	-1.4942879905	-2.5697894675	-0.8713208399	-0.220241
C	-1.0257004841	-2.0469529311	 0.4779566485	 0.111444
C	 0.1734282025	-2.1259358102	 1.0716331542	-0.156182
C	 0.7857768218	-0.7314091646	 1.1894056941	-0.321131
C	-1.3762744771	-0.6348020068	 0.0587306742	-0.054445
H	 0.9934868663	 1.6677690945	 0.0140841511	 0.278831
H	 0.253827463	 0.0825060654	-2.1701677241	 0.113985
H	 0.8723677877	-1.4652892957	-1.5214565442	 0.098589
H	-2.5533696103	-2.8257534461	-0.9619065911	 0.118908
H	-0.8824137027	-3.3356508662	-1.3567262537	 0.110946
H	 0.7659370746	-3.0305959589	 1.1548814074	 0.092726
H	 1.8692358592	-0.762701891	 1.0178881417	 0.096994
H	 0.6242022876	-0.2157696647	 2.1459714438	 0.110714
H	-2.2702634944	-0.1097456904	 0.396755545	 0.081924
220.592	259.3393	264.7597	336.2417	356.707	419.4625	442.4385	559.935	586.2653	663.1124	735.3839	794.0351	800.9695	847.3052	874.6607	893.6017	931.7273	941.0645	949.0144	986.4685	1022.8226	1045.8394	1089.6269	1107.1359	1143.5541	1167.7513	1185.8192	1191.7643	1205.2491	1243.9509	1261.7627	1278.4934	1285.983	1317.3928	1392.7442	1470.7906	1482.9668	1496.9953	1660.992	3008.3329	3046.7051	3050.1912	3052.5566	3107.5729	3108.2738	3112.9729	3185.4715	3805.2055
OC12CN3CC(=CC1)C23	O[C@@]12CN3C[C]([CH]C1)[C@@H]23	
InChI=1S/C7H9NO/c9-7-2-1-5-3-8(4-7)6(5)7/h1,6,9H,2-4H2	InChI=1S/C7H9NO/c9-7-2-1-5-3-8(4-7)6(5)7/h1,6,9H,2-4H2/t6-,7+/m0/s1
