14
gdb 20362	6.22067	1.50579	1.3399	2.2717	63.92	-0.2686	-0.0217	0.2469	898.9683	0.109039	-378.714664	-378.708237	-378.707293	-378.74585	23.545	
C	-0.1218738583	 1.4572946452	-0.0581526637	-0.261463
C	 1.2637438155	 0.9216814835	 0.1084623155	-0.261473
C	 0.0913157315	-0.044895309	 0.045806291	-0.115582
C	-0.3313051419	-0.7650182027	 1.2450536331	 0.453887
N	-0.8093525394	-1.976103059	 1.3241662564	-0.33322
C	-1.0212414213	-2.1054819739	 2.6732616925	 0.036419
N	-0.7074370375	-1.0680303089	 3.3974904639	-0.118337
O	-0.2385031159	-0.154869743	 2.4371384901	-0.212585
H	-0.5828653094	 1.9467481182	 0.791560963	 0.142414
H	-0.4235334171	 1.8399043557	-1.0261452204	 0.129445
H	 1.9346101501	 0.9283724568	-0.7425917931	 0.129444
H	 1.7444640373	 1.0471296284	 1.0714065772	 0.142417
H	-0.0288454757	-0.6353491786	-0.8532121798	 0.122951
H	-1.4220654279	-3.0002720427	 3.1274944943	 0.145684
64.771	170.0795	181.6237	393.964	427.1396	641.8957	651.5423	765.004	792.6187	829.7567	905.6529	913.0939	917.716	933.7179	979.6707	1020.3534	1059.2909	1071.9696	1092.3882	1129.4801	1185.3963	1205.882	1216.7692	1265.6166	1341.092	1358.1048	1466.4382	1497.097	1530.986	1623.6983	3145.2716	3148.1132	3202.8419	3230.1907	3245.1612	3258.3871
C1CC1C1=NC=NO1	C1CC1c1ncno1	
InChI=1S/C5H6N2O/c1-2-4(1)5-6-3-7-8-5/h3-4H,1-2H2	InChI=1S/C5H6N2O/c1-2-4(1)5-6-3-7-8-5/h3-4H,1-2H2
