15
gdb 16641	3.01221	2.40472	1.58034	4.5081	60.12	-0.2346	-0.0223	0.2124	799.5158	0.119696	-399.794182	-399.787224	-399.786279	-399.82563	26.418	
O	-0.0945899267	 1.4696304206	 0.022640105	-0.419706
C	-0.0179691732	 0.0684069773	-0.0053644226	 0.055493
C	-1.3447735326	-0.6623192824	 0.0065754298	-0.074578
N	-2.0351049161	-0.504005359	-1.293138945	-0.349318
C	-1.3212736776	-1.7644437413	-0.9922802711	-0.041545
C	 0.0312921273	-1.8232344686	-1.670921087	-0.316624
C	 0.6799155984	-0.4880291522	-1.281972648	 0.337331
O	 1.5539460047	 0.0788133926	-1.8775383294	-0.294194
H	-0.5673362299	 1.7376461286	-0.7748385043	 0.292352
H	 0.583780289	-0.2255479061	 0.8654599263	 0.111152
H	-1.929793695	-0.7212070292	 0.9176334947	 0.096898
H	-3.035624653	-0.6335236973	-1.1699123115	 0.240052
H	-1.8987969944	-2.6694726684	-0.83878981	 0.096984
H	 0.6378868746	-2.6490127922	-1.2765833891	 0.127724
H	-0.0128480054	-1.9248311323	-2.7580630377	 0.137978
58.0227	184.3049	252.239	352.7594	363.5925	460.4877	508.2257	575.6954	614.2453	691.2555	754.0842	826.4121	868.0666	884.2566	953.407	981.6622	997.7781	1053.7951	1087.7003	1123.1104	1146.2792	1153.3003	1188.6875	1234.9008	1268.8513	1287.3226	1315.874	1366.4428	1420.2805	1430.0796	1447.124	1864.2368	3029.1977	3037.3276	3106.8075	3168.0423	3178.6868	3514.6549	3791.1885
OC1C2NC2CC1=O	O[C@H]1[C@H]2N[C@H]2CC1=O	
InChI=1S/C5H7NO2/c7-3-1-2-4(6-2)5(3)8/h2,4-6,8H,1H2	InChI=1S/C5H7NO2/c7-3-1-2-4(6-2)5(3)8/h2,4-6,8H,1H2/t2-,4-,5+/m0/s1
