18
gdb 51588	6.03976	0.62694	0.60587	2.5883	80.1	-0.2443	-0.0238	0.2205	1784.9958	0.144916	-401.893098	-401.883346	-401.882402	-401.929401	34.264	
O	-0.8071733563	 0.6134982422	 0.3024196148	-0.238486
C	-0.118069214	 1.5993797444	 0.2511487519	 0.157298
C	 1.312660776	 1.6290119925	-0.2508625779	-0.283225
C	 1.4801087461	 2.6669893685	-1.3454698068	-0.043326
N	 1.5416206015	 4.0775307558	-0.9209811365	-0.32694
C	 2.7108555741	 3.4757253687	-1.568876599	-0.012067
C	 3.9803917066	 3.3483783513	-0.7390419577	-0.357372
C	 4.8172253587	 4.5403285082	-0.8333870419	 0.294095
C	 5.4946251554	 5.5274306314	-0.9361582933	-0.435864
H	-0.5010722396	 2.5923751617	 0.5758965399	 0.090617
H	 1.9498806343	 1.888918344	 0.6024900061	 0.124694
H	 1.5843238513	 0.6289799046	-0.6015616385	 0.122169
H	 0.9057590982	 2.4458117206	-2.2445238783	 0.098561
H	 1.0344845196	 4.6810012012	-1.5612509877	 0.239038
H	 2.9033835562	 3.7540320628	-2.6034635164	 0.100413
H	 3.7178892827	 3.1703134966	 0.3086894331	 0.138946
H	 4.5490285588	 2.47294899	-1.0798899821	 0.134001
H	 6.0976176302	 6.3980489554	-1.0117430097	 0.197448
36.7953	57.6783	70.5295	113.7578	171.2017	229.9649	333.7615	351.625	415.7621	482.7749	501.091	550.1066	619.5479	644.79	794.3745	798.6761	871.1457	872.7907	945.4844	970.1209	990.3594	1024.3504	1040.3054	1082.6807	1133.3295	1182.9925	1217.7542	1259.9891	1263.2273	1276.2067	1293.5688	1323.9017	1411.9526	1418.8455	1447.3151	1459.8605	1475.2409	1833.9714	2241.198	2889.9136	3024.2423	3043.3928	3076.3362	3100.6998	3114.1051	3127.9974	3506.6387	3518.3894
O=CCC1NC1CC#C	O=CC[C@H]1N[C@H]1CC#C	
InChI=1S/C7H9NO/c1-2-3-6-7(8-6)4-5-9/h1,5-8H,3-4H2	InChI=1S/C7H9NO/c1-2-3-6-7(8-6)4-5-9/h1,5-8H,3-4H2/t6-,7+/m0/s1
