17
gdb 47013	3.84318	1.36118	1.04835	5.0349	80.3	-0.2115	-0.0066	0.2049	1105.8372	0.139292	-418.00365	-417.996515	-417.995571	-418.035142	28.361	
N	-0.0822397867	 1.2922735685	-0.147927321	-0.53721
C	-0.0302911168	 0.0262538989	-0.0390572224	 0.407108
O	 1.1990903887	-0.6076214841	 0.0783006471	-0.274369
C	 1.2622297313	-1.9395958023	 0.611736142	-0.110785
C	 0.2963166372	-2.8066808597	-0.1740035299	-0.101884
C	-0.4831728761	-4.0351016615	 0.3982519523	-0.202282
N	-1.7357661165	-3.324866445	 0.0099944524	-0.376813
C	-1.0452753624	-2.1284083811	-0.1371547463	 0.415729
C	-1.2316393332	-0.809200622	-0.0281569091	-0.35667
H	 0.8601487438	 1.6813161467	-0.0814203231	 0.213334
H	 2.3083633178	-2.2396891708	 0.5140632021	 0.117114
H	 0.9958599038	-1.9308303423	 1.6778346886	 0.104914
H	 0.6645662956	-2.9889385415	-1.1870664722	 0.112994
H	-0.3394543751	-4.9985941445	-0.0961040387	 0.120389
H	-0.3665896729	-4.1506312262	 1.482313178	 0.115528
H	-2.5930412899	-3.3935210708	 0.5437567652	 0.244943
H	-2.1847748987	-0.3171280922	 0.1096268351	 0.107962
115.5142	212.1152	226.4268	331.1598	360.9937	433.9268	478.9403	540.4658	629.5417	676.7367	693.9043	784.4944	826.2839	842.1117	861.7821	884.8392	922.7827	980.6459	1000.9837	1037.1257	1076.2507	1107.7391	1142.7649	1161.4953	1196.0229	1218.5884	1251.0741	1270.5158	1296.0808	1345.9832	1368.223	1382.1925	1414.5172	1505.0049	1513.0135	1717.3885	1751.3509	3010.0902	3033.5338	3075.6013	3099.0017	3105.6824	3224.4878	3469.3013	3565.5294
N=C1OCC2CNC2=C1	[NH]C1=C[C]2[C@@H](CO1)CN2	
InChI=1S/C6H8N2O/c7-6-1-5-4(2-8-5)3-9-6/h1,4,7-8H,2-3H2	InChI=1S/C6H8N2O/c7-6-1-5-4(2-8-5)3-9-6/h1,4,7-8H,2-3H2/t4-/m1/s1
