20
gdb 101539	2.62101	0.95858	0.8269	2.9787	82.91	-0.2228	-0.0577	0.1651	1480.9424	0.167063	-403.108906	-403.09817	-403.097226	-403.145845	37.683	
C	-0.8326547381	 0.7781829436	-0.0684966807	-0.395508
C	 0.2805789394	-0.2550773906	 0.1021671183	-0.105656
N	 0.8145079093	-0.7469203369	-1.1682203559	-0.059409
C	 1.5128208326	 0.2793811476	-1.9327338468	-0.331604
C	 1.6387664635	-1.9280549646	-1.0016943787	-0.251553
C	 1.8125835423	-2.7289445064	-2.2922040643	 0.220259
O	 2.8589780561	-3.2654983384	-2.5824986638	-0.279042
C	 0.6350210688	-2.8595626629	-3.1354898737	 0.32158
C	-0.3180434257	-3.0146803448	-3.8542022822	-0.465789
H	-0.4656281264	 1.7210632511	-0.4833744424	 0.12145
H	-1.6135534662	 0.3926624981	-0.7305125221	 0.12727
H	-1.2808809008	 1.0040460569	 0.9038682875	 0.11688
H	 1.0806755669	 0.1660372516	 0.7428114003	 0.078873
H	-0.1243309535	-1.1203472594	 0.6387139772	 0.101327
H	 2.3874117471	 0.6920788866	-1.3947638245	 0.096735
H	 1.8673226755	-0.1383510633	-2.8794564017	 0.130985
H	 0.8375001038	 1.1031475889	-2.1725350653	 0.126022
H	 2.6517365935	-1.7287155666	-0.6088423522	 0.105683
H	 1.1429554809	-2.6044731916	-0.292237166	 0.126487
H	-1.160168009	-3.1489186188	-4.4887058431	 0.21501
36.0991	51.4612	96.5903	118.6436	183.7307	212.1339	250.8629	262.24	303.9944	366.0758	381.3031	399.9768	510.5968	603.5426	639.8002	679.155	714.2299	748.8476	808.9974	840.6366	956.5214	1010.0004	1072.4925	1079.4303	1123.0508	1154.2757	1180.3107	1204.8182	1259.1334	1296.9013	1338.0018	1360.6546	1398.3283	1420.1714	1457.3021	1471.3936	1484.6689	1492.1404	1501.0919	1507.1348	1517.1997	1769.9086	2210.3239	2908.2453	2931.8996	2951.6437	3037.0318	3043.7821	3052.9243	3079.2342	3111.9104	3119.0455	3126.9944	3495.4478
CCN(C)CC(=O)C#C	CCN(C)CC(=O)C#C	
InChI=1S/C7H11NO/c1-4-7(9)6-8(3)5-2/h1H,5-6H2,2-3H3	InChI=1S/C7H11NO/c1-4-7(9)6-8(3)5-2/h1H,5-6H2,2-3H3
