19
gdb 124463	3.19392	1.21434	1.08502	5.7266	76.77	-0.2456	0.0094	0.255	1183.3683	0.160452	-415.391544	-415.382664	-415.38172	-415.424977	33.746	
C	 0.4370098404	 1.4805760995	 0.2486238088	-0.389466
C	-0.0297365781	 0.0167568674	 0.1176741311	 0.100137
C	 0.3598415879	-0.7747511116	 1.3800993577	-0.412965
N	-1.4892718099	 0.0369835267	-0.1249479821	-0.546155
H	-0.8906326735	-0.1622419276	-2.5247245029	 0.281728
H	-1.8664939869	-0.9018070069	-0.0174470824	 0.23267
H	-1.94087325	 0.6076280932	 0.5845269737	 0.230952
C	 0.6040999576	-0.6072551662	-1.1022144588	 0.401567
C	 1.7838443583	-1.271288835	-1.359691798	-0.19292
N	 1.8437297509	-1.5763522192	-2.687164382	-0.193132
N	 0.7627631918	-1.1419305127	-3.2719007165	-0.121048
N	 0.0164041228	-0.5542364963	-2.3208416857	-0.237794
H	 1.523864384	 1.5321446407	 0.3466292351	 0.13105
H	 0.139471177	 2.0579299486	-0.6302860664	 0.129518
H	-0.0085450781	 1.9446377493	 1.1361671111	 0.111017
H	-0.1045175163	-0.3232537373	 2.2629685384	 0.110952
H	 0.0269600106	-1.8146965214	 1.3060763049	 0.121239
H	 1.4434643391	-0.7788299259	 1.5354273677	 0.126241
H	 2.5790963323	-1.5440192853	-0.6852285836	 0.116409
62.2467	144.6136	192.5195	234.5182	275.9186	300.2658	323.6773	350.5541	370.1733	459.683	489.9955	601.5671	661.1323	729.8412	755.1746	836.3611	848.7862	921.5383	930.5376	968.6162	998.0572	1025.5168	1052.1452	1074.7108	1089.9783	1130.8955	1181.4374	1218.686	1249.0246	1303.9515	1343.5625	1375.7831	1396.3209	1416.8076	1432.1331	1478.3977	1482.6706	1497.8259	1505.1214	1593.3322	1655.0024	3030.2215	3035.8946	3103.3824	3108.4666	3110.0945	3133.4649	3268.8771	3477.1957	3557.8318	3645.8151
CC(C)([NH3+])C1=CN=N[N-]1	CC(C)(N)c1cnn[nH]1	
InChI=1S/C5H9N4/c1-5(2,6)4-3-7-9-8-4/h3H,6H2,1-2H3/q-1/p+1	InChI=1S/C5H10N4/c1-5(2,6)4-3-7-9-8-4/h3H,6H2,1-2H3,(H,7,8,9)
