19
gdb 93279	2.24609	1.67024	1.22794	1.0809	71.34	-0.2499	-0.0358	0.2141	1081.8309	0.15695	-460.189316	-460.180054	-460.17911	-460.222792	34.99	
C	-0.2126782646	 1.532118481	-0.0812517548	-0.426533
C	 0.0457879892	 0.0472609558	 0.0612184631	 0.104763
O	 0.9091817599	-0.3834272798	-1.007349892	-0.268705
C	 1.3699513782	-1.686538696	-0.7015706075	-0.185572
C	 1.2927193461	-1.7934316964	 0.8160129363	 0.325235
O	 1.5051684357	-2.7522668966	 1.5128311226	-0.32784
C	 0.7696745113	-0.4460163979	 1.3328711243	 0.273926
C	 1.960811902	 0.4319360997	 1.7475930269	-0.437575
O	-0.1218096148	-0.6421819698	 2.4057019906	-0.483925
H	 0.7199357002	 2.1012465916	-0.0694928275	 0.127838
H	-0.7234077564	 1.7334885411	-1.0267407778	 0.12963
H	-0.8503765845	 1.8779405411	 0.7374714945	 0.135607
H	-0.9104658766	-0.4995575339	 0.0113639799	 0.081538
H	 0.7356772676	-2.4704776459	-1.1461490951	 0.129459
H	 2.3891565785	-1.8197133604	-1.0785770085	 0.141211
H	 2.6103119499	 0.6601993963	 0.8973568881	 0.130257
H	 1.5928885789	 1.3683039371	 2.1745051138	 0.134797
H	 2.5506356789	-0.085189224	 2.5103256826	 0.126398
H	 0.1702919407	-1.446320423	 2.8590528104	 0.28949
81.576	172.7383	202.5739	214.318	252.51	274.6019	276.4221	298.3944	365.2113	401.0771	482.0058	530.2721	585.6984	610.3433	651.3304	699.6019	851.5524	878.7649	923.4335	995.2673	1031.6745	1068.6494	1081.6942	1103.1716	1111.1317	1167.7003	1189.0211	1218.9719	1259.827	1317.6144	1346.042	1372.7991	1391.0873	1405.2491	1424.1082	1473.3154	1481.9229	1491.3793	1496.7671	1506.2102	1854.6994	2969.1414	2984.4274	3041.4331	3050.5186	3077.353	3116.7885	3123.2447	3126.5076	3131.3329	3731.742
CC1OCC(=O)C1(C)O	C[C@H]1OCC(=O)[C@]1(C)O	
InChI=1S/C6H10O3/c1-4-6(2,8)5(7)3-9-4/h4,8H,3H2,1-2H3	InChI=1S/C6H10O3/c1-4-6(2,8)5(7)3-9-4/h4,8H,3H2,1-2H3/t4-,6-/m1/s1
