18
gdb 87198	2.84988	1.04389	0.99943	5.0113	68.29	-0.2438	0.0287	0.2725	1260.159	0.147261	-476.237838	-476.228918	-476.227974	-476.271747	33.814	
N	-0.4003475707	 0.9580737828	-0.3393288033	-0.581144
H	 0.2162360854	 0.1555953686	-0.2365521213	 0.249285
H	 0.3732256896	 2.5239906789	-0.6815302099	 0.31415
H	-1.1952769543	 0.6739047695	-0.9045807142	 0.245093
C	-0.8193915883	 1.4068741828	 0.9797337098	 0.256125
C	-1.2287237458	 2.869245997	 1.0139519519	-0.396313
C	-0.1355293358	 3.8574483718	 0.5779732339	 0.400215
O	 0.6343471186	 3.4508175458	-0.4399209484	-0.375806
O	 0.005351533	 4.932892597	 1.0985194629	-0.333819
C	-1.4688209717	 0.4181710222	 1.9353729539	-0.354043
C	-0.0380789522	 0.8231787661	 2.1379842689	 0.078992
O	 0.9190814268	-0.1632649831	 1.8682508066	-0.420295
H	-2.0957521232	 3.0227712538	 0.3554747203	 0.125815
H	-1.5437409056	 3.1627769091	 2.0169557226	 0.131164
H	-2.2124755829	 0.7696956556	 2.6422593377	 0.124623
H	-1.6307777546	-0.5879448247	 1.5622525432	 0.124191
H	 0.197156898	 1.4803945986	 2.9732486098	 0.111507
H	 1.7729948637	 0.2724178681	 1.7652784455	 0.300259
69.2359	78.598	175.2883	250.3149	302.9743	321.2895	334.3759	390.8591	436.9458	444.9253	495.5423	538.8018	599.6884	675.2283	775.1909	818.4127	874.8874	889.8409	925.4717	960.5366	979.831	987.1212	1008.5309	1050.2763	1108.4008	1148.2699	1179.5827	1203.2814	1266.0317	1283.8979	1313.7153	1325.8664	1358.0684	1433.0137	1461.6984	1491.2222	1500.0226	1638.8778	1858.5882	3017.1029	3116.7448	3122.0685	3132.0947	3222.2646	3239.0479	3479.8282	3558.4139	3797.8069
[NH3+]C1(CC([O-])=O)CC1O	N[C@@]1(CC(=O)O)C[C@H]1O	
InChI=1S/C5H9NO3/c6-5(1-3(5)7)2-4(8)9/h3,7H,1-2,6H2,(H,8,9)	InChI=1S/C5H9NO3/c6-5(1-3(5)7)2-4(8)9/h3,7H,1-2,6H2,(H,8,9)/t3-,5-/m1/s1
