22
gdb 56017	3.32606	0.99112	0.90513	2.4284	83.1	-0.2576	0.0367	0.2943	1411.7364	0.195024	-404.380941	-404.371552	-404.370607	-404.416237	34.734	
C	-0.7385087969	 1.3272161046	 0.2279245144	-0.440165
C	-0.1111441566	-0.0349444264	 0.3333105092	 0.405305
N	 1.0645419445	-0.190994443	 0.7869510418	-0.523673
O	-0.9808321226	-0.9780672493	-0.1206229762	-0.258052
C	-0.5772190352	-2.3580267314	-0.1302108036	 0.106398
C	-0.650493443	-2.9824443865	 1.2906252183	-0.223052
C	-1.9508946884	-3.8320369709	 1.3224289863	-0.201245
C	-2.7411703588	-3.4043238298	 0.0715649897	-0.196838
C	-1.6346329807	-3.1068486426	-0.9502424872	-0.222034
H	-0.0405911233	 2.0803567246	 0.59061629	 0.145283
H	-1.0079601664	 1.5403883233	-0.811149358	 0.136007
H	-1.6615937096	 1.3644345406	 0.8149762571	 0.134795
H	 1.3531932278	-1.167646919	 0.808042918	 0.216236
H	 0.421092148	-2.4252240396	-0.5762859254	 0.079622
H	 0.2335594258	-3.5932587203	 1.4962084127	 0.102214
H	-0.664963365	-2.1852296987	 2.0371647105	 0.123107
H	-1.7032629397	-4.8972106307	 1.2557234607	 0.100707
H	-2.5151906323	-3.6949457019	 2.2483158978	 0.100943
H	-3.449998229	-4.1643780768	-0.2673997844	 0.095166
H	-3.3058478219	-2.4874967306	 0.2726179078	 0.11146
H	-1.9594174761	-2.521584044	-1.8133556113	 0.108725
H	-1.1995650005	-4.0437941717	-1.3183813282	 0.099092
35.599	88.1686	104.2125	147.6009	162.9217	244.3549	325.0751	403.5519	450.476	565.4893	569.2824	602.176	695.4938	797.7938	828.7667	863.6536	876.3466	887.0746	906.4754	915.6448	957.0513	983.1662	1017.1057	1046.6478	1056.2587	1075.7172	1096.005	1129.0799	1189.6934	1195.3525	1229.9818	1249.489	1298.4808	1313.6309	1323.954	1342.0801	1351.524	1359.093	1386.6985	1414.0786	1474.2615	1476.2673	1478.8367	1481.0607	1491.6856	1510.16	1727.5116	3032.9056	3042.0078	3045.6168	3050.1886	3050.6619	3065.0096	3089.9796	3101.2086	3107.9072	3111.386	3115.7194	3168.8091	3499.1374
CC(=N)OC1CCCC1	C[C]([NH])OC1CCCC1	
InChI=1S/C7H13NO/c1-6(8)9-7-4-2-3-5-7/h7-8H,2-5H2,1H3	InChI=1S/C7H13NO/c1-6(8)9-7-4-2-3-5-7/h7-8H,2-5H2,1H3
