13
gdb 18822	4.47061	2.32859	1.92403	4.3604	56.6	-0.23	0.0041	0.2341	682.1206	0.097679	-398.576024	-398.570558	-398.569613	-398.605398	22.132	
O	 0.0260437519	-0.0344720313	-0.0103002417	-0.372954
C	 0.007247918	 1.1713435625	-0.0551553965	 0.445346
N	-1.1048776471	 1.9957644395	 0.0107854899	-0.319829
C	-0.7318865198	 3.3808104678	 0.0080112115	-0.044804
C	 0.4538450363	 3.8073124228	 0.8922042397	 0.082917
O	 1.1586008138	 2.6600734989	 1.3412179783	-0.292541
C	 1.1917545718	 2.1539267751	-0.0451759808	-0.049971
C	 0.6537915177	 3.4998679899	-0.5686504638	-0.163255
H	-1.9405941631	 1.6568072884	 0.4621312526	 0.257865
H	-1.4923150469	 4.106204634	-0.2516894603	 0.116143
H	 0.5071478613	 4.7104590933	 1.4886307567	 0.118832
H	 2.164805121	 1.7582111574	-0.3238284558	 0.108435
H	 0.9623300851	 4.0754120817	-1.4299526697	 0.113818
181.8352	362.0625	443.8655	474.8296	558.4249	632.0409	730.4477	739.7909	780.8863	810.7089	825.8749	882.3314	887.6988	933.4917	990.0312	1031.6919	1046.3259	1052.0656	1101.673	1115.8024	1206.2442	1223.6129	1241.3637	1265.5699	1330.9189	1365.9164	1419.6195	1845.1693	3162.3136	3187.1649	3200.3319	3214.4659	3631.5536
O=C1NC2C3OC1C23	O=C1N[C@H]2[C@H]3O[C@@H]1[C@@H]23	
InChI=1S/C5H5NO2/c7-5-4-1-2(6-5)3(1)8-4/h1-4H,(H,6,7)	InChI=1S/C5H5NO2/c7-5-4-1-2(6-5)3(1)8-4/h1-4H,(H,6,7)/t1-,2+,3-,4+/m0/s1
