21
gdb 119277	2.55729	0.82952	0.68173	1.1857	74.98	-0.2597	0.0747	0.3344	1669.8879	0.179987	-461.326092	-461.315392	-461.314448	-461.362948	37.64	
O	-0.5123959283	 1.4731855556	-0.6281421514	-0.421593
C	-0.3617597339	 0.0644838928	-0.7297377541	-0.075795
C	-1.5622181214	-0.5659354725	-0.0275125389	-0.244728
C	-1.6109893629	-2.0801210492	-0.1396621058	 0.378456
C	-0.4844080226	-2.8320053512	 0.55160936	-0.244528
C	-0.5634332984	-4.3529181855	 0.4872808396	-0.096345
O	 0.6716066469	-4.8523693456	 0.9815093308	-0.423103
C	-2.9144547147	-2.7133699715	-0.4030998163	-0.231061
O	-1.9581325852	-2.5548527671	-1.4552005317	-0.275185
H	 0.2276712498	 1.8868241775	-1.081669146	 0.286117
H	-0.3450015468	-0.2659338312	-1.7792713579	 0.10417
H	 0.5785551403	-0.2641846752	-0.261648568	 0.08886
H	-1.5543565961	-0.2719526469	 1.0289646229	 0.106919
H	-2.4672601272	-0.1428861216	-0.4744470228	 0.111968
H	 0.4691178737	-2.5403874602	 0.0957704603	 0.122385
H	-0.4339995552	-2.5138663606	 1.5998162328	 0.11132
H	-1.4041771771	-4.7206519657	 1.0959099919	 0.084441
H	-0.7387295923	-4.6623518657	-0.5529472436	 0.109124
H	 0.6529853772	-5.8114810207	 0.9168049542	 0.286009
H	-3.1059519039	-3.7406413538	-0.0998793539	 0.11131
H	-3.803563342	-2.0886520117	-0.4819082422	 0.111257
53.9464	73.9674	83.4576	104.3259	151.0422	215.6069	259.2709	260.3095	322.2212	338.1317	358.9798	393.0495	462.5835	583.0968	743.6793	790.7602	793.169	864.9288	914.8368	965.7435	1017.7981	1031.0156	1058.5375	1074.9216	1081.2805	1123.4416	1139.2671	1170.4152	1202.5423	1232.0639	1241.532	1247.9744	1262.2329	1314.1409	1319.4602	1335.872	1371.7351	1412.5161	1460.8208	1465.1158	1478.266	1484.2479	1528.6258	1530.5795	1541.1251	2974.3887	2978.6786	3009.8778	3018.9557	3035.8469	3041.7006	3076.7716	3085.6779	3091.2397	3170.3204	3831.5726	3831.6296
OCCC1(CCO)CO1	OCCC1(CCO)CO1	
InChI=1S/C6H12O3/c7-3-1-6(2-4-8)5-9-6/h7-8H,1-5H2	InChI=1S/C6H12O3/c7-3-1-6(2-4-8)5-9-6/h7-8H,1-5H2
