23
gdb 68545	2.05206	1.84347	1.56339	0.2011	89.58	-0.2197	0.0165	0.2361	1058.1555	0.205022	-351.13085	-351.121834	-351.120889	-351.163435	36.747	
C	 0.1916000506	 1.4421259303	-0.1733623489	-0.517927
C	 0.0698573869	-0.0638675038	-0.1058851923	 0.280839
C	 0.3932353249	-1.00559305	-1.3229682325	-0.263662
C	-0.4014201552	-2.0340118135	-0.4497862489	-0.111874
C	 0.5475347645	-2.1082063044	 0.7520572792	-0.096328
C	 0.8526981254	-0.8275009039	 0.9772659272	-0.127805
C	-1.3410911003	-0.8230988052	-0.0272103024	 0.320414
C	-2.0681536931	-0.8870809849	 1.3179782963	-0.460203
C	-2.3735288674	-0.3998586169	-1.0813808398	-0.460599
H	 1.2317811019	 1.7449674687	-0.3398368428	 0.117152
H	-0.4081763258	 1.8586858145	-0.989122322	 0.115185
H	-0.1425275158	 1.9117233901	 0.7591403175	 0.116152
H	-0.0803948694	-0.7231069802	-2.2644707565	 0.090126
H	 1.4490301069	-1.2302983822	-1.4872455612	 0.088647
H	-0.8063290665	-2.9606407214	-0.8590620949	 0.051563
H	 0.8557392563	-3.000790784	 1.2782654475	 0.095662
H	 1.4789514288	-0.3815815993	 1.738437439	 0.092066
H	-1.4138807371	-1.1832669369	 2.1376951005	 0.116235
H	-2.5035707047	 0.0888206164	 1.5638078254	 0.106842
H	-2.8975613567	-1.60250019	 1.2686187642	 0.107077
H	-3.2000918615	-1.1195457081	-1.1030565505	 0.113077
H	-2.8059082003	 0.5726195609	-0.8182856021	 0.113994
H	-1.9832099125	-0.3216613362	-2.0964787321	 0.113367
150.0338	177.4797	192.9784	209.0299	240.9824	291.8979	334.8514	379.7705	422.8936	509.1796	530.071	558.0287	616.1657	621.1169	715.7494	732.1804	811.0685	838.3951	880.6943	907.1142	920.5567	930.5811	947.5705	951.5448	1010.2119	1022.2253	1054.0577	1085.1304	1109.357	1147.2244	1169.5139	1192.3244	1206.0049	1213.1217	1247.3965	1266.3274	1281.3546	1339.7591	1397.746	1409.8368	1417.8934	1478.0231	1485.0999	1492.4347	1495.6142	1498.99	1513.2268	1520.8378	1623.6614	3023.9231	3025.0428	3032.7993	3070.3466	3075.9693	3083.2286	3085.6438	3094.7475	3104.9129	3122.6396	3141.0055	3141.8464	3207.9135	3237.0645
CC12CC(C=C1)C2(C)C	C[C@@]12C[C@@H](C=C1)C2(C)C	
InChI=1S/C9H14/c1-8(2)7-4-5-9(8,3)6-7/h4-5,7H,6H2,1-3H3	InChI=1S/C9H14/c1-8(2)7-4-5-9(8,3)6-7/h4-5,7H,6H2,1-3H3/t7-,9+/m1/s1
