22
gdb 58934	3.2732	1.28244	1.17576	1.5088	85.25	-0.2317	0.0846	0.3164	1181.1161	0.194473	-367.155916	-367.147326	-367.146382	-367.189004	33.847	
C	 0.0623811168	 1.3850683409	-0.3092244858	-0.394201
C	-0.0084055478	-0.0884871125	 0.1207520474	-0.076704
C	 0.6864405537	-0.3187136239	 1.4708135873	-0.396342
C	-1.4355393097	-0.5659799377	 0.1421609347	 0.383763
C	-2.5612066401	-0.2030595884	 1.1201231955	-0.299282
C	-3.3770982261	-1.3280393919	 0.4297352648	-0.086471
C	-3.5312772052	-0.7826128	-0.9972903968	-0.147673
N	-2.0500193613	-0.9137338575	-1.1960294258	-0.190338
C	-2.0076639802	-1.9163839137	-0.087476538	-0.121424
H	 1.101434867	 1.7226751295	-0.3789289147	 0.107472
H	-0.4115005657	 1.5243011092	-1.2847956724	 0.129293
H	-0.4482220654	 2.0319163472	 0.4138712876	 0.109646
H	 0.5069387312	-0.6874450524	-0.6408250194	 0.083699
H	 0.2196766418	 0.2757935879	 2.2643776798	 0.113825
H	 0.6416514885	-1.3711040764	 1.7692268197	 0.111609
H	 1.7399654063	-0.0264384083	 1.4175835341	 0.112115
H	-2.2830037515	-0.4707837858	 2.1426451364	 0.105391
H	-2.9820039771	 0.8089822328	 1.1037204515	 0.091799
H	-4.1739738689	-1.8499091567	 0.9565398794	 0.071501
H	-4.0310678446	-1.4741802135	-1.6808538047	 0.106312
H	-3.9384109722	 0.2278223428	-1.1275896049	 0.092823
H	-1.5810235793	-2.9072589416	-0.1784376653	 0.093187
64.3889	143.813	191.3745	227.5788	258.8767	300.9091	346.6822	437.4971	454.2089	517.8796	605.8171	719.0733	750.5254	806.1947	851.1334	869.776	921.1815	928.3355	935.7487	954.4598	965.0786	979.6107	999.1825	1019.3903	1035.4308	1077.2338	1123.1808	1133.8009	1148.6725	1159.7371	1187.5361	1189.7188	1230.8378	1248.7227	1275.3657	1311.7443	1332.3077	1344.4922	1394.731	1412.5311	1426.4712	1489.0189	1490.909	1494.7503	1502.3275	1513.9858	1514.8374	3024.6314	3025.1191	3027.3142	3031.7872	3036.3407	3091.5583	3096.0551	3097.9309	3102.0187	3103.5921	3115.5601	3130.0605	3194.7166
CC(C)C12CC3CN1C23	CC(C)[C@@]12C[C@H]3CN1[C@@H]23	
InChI=1S/C8H13N/c1-5(2)8-3-6-4-9(8)7(6)8/h5-7H,3-4H2,1-2H3	InChI=1S/C8H13N/c1-5(2)8-3-6-4-9(8)7(6)8/h5-7H,3-4H2,1-2H3/t6-,7+,8+,9?/m0/s1
