18
gdb 43718	4.87602	1.04729	1.0036	4.0128	77.27	-0.2358	0.0371	0.2729	1211.7814	0.148128	-401.934775	-401.92695	-401.926006	-401.967352	30.43	
O	 0.053696554	 0.0315419207	 0.0031638232	-0.360818
C	-0.0342913794	 1.2290879266	 0.0102904432	 0.43562
C	-1.1851876616	 2.2722257613	 0.0323500411	-0.495237
C	-0.0573247373	 3.3224607438	 0.0219406231	 0.444493
N	 0.9061928882	 2.2343016971	 0.0014461608	-0.405151
C	 0.1414987435	 4.5841349816	-0.750857924	-0.138759
C	-1.138042492	 5.4280228431	-0.7330470836	-0.228373
C	-1.1152591471	 5.4187552437	 0.8328577853	-0.228381
C	 0.1641458743	 4.5750009461	 0.8034186443	-0.13879
H	-1.8227475253	 2.2502136144	-0.8533439606	 0.13375
H	-1.7970441034	 2.240452448	 0.9357014339	 0.133762
H	 1.9150421111	 2.2126691027	-0.0111982185	 0.249766
H	 0.9633934812	 4.6888131357	-1.4504131465	 0.087734
H	-0.9908332339	 6.4307035404	-1.1392808793	 0.110277
H	-2.0125126793	 4.9830725896	-1.2187528947	 0.101063
H	-0.9561311024	 6.4165862804	 1.2464707331	 0.110274
H	-1.9752892368	 4.9679225616	 1.3385199054	 0.101062
H	 1.0060827661	 4.6716203929	 1.4799253137	 0.08771
59.9853	153.3373	183.099	283.9779	320.1114	392.0146	437.7173	482.8754	560.2335	570.7971	703.5995	766.8155	782.1342	828.7535	868.245	905.9111	950.0573	957.0729	979.9872	993.8037	1021.4005	1040.077	1057.7674	1094.4375	1140.3531	1143.7974	1177.513	1206.2311	1224.1463	1251.8556	1251.8871	1276.8251	1287.1316	1345.3516	1451.3118	1482.0169	1482.2989	1506.5929	1899.0199	3046.02	3053.3804	3083.8705	3099.1952	3117.3526	3142.3591	3167.2389	3177.5073	3613.0619
O=C1CC2(N1)C1CCC21	O=C1C[C@@]2(N1)[C@H]1CC[C@@H]21	
InChI=1S/C7H9NO/c9-6-3-7(8-6)4-1-2-5(4)7/h4-5H,1-3H2,(H,8,9)	InChI=1S/C7H9NO/c9-6-3-7(8-6)4-1-2-5(4)7/h4-5H,1-3H2,(H,8,9)/t4-,5+,7+
