19
gdb 97651	2.84482	0.69517	0.58413	1.0106	77.95	-0.2591	0.0228	0.2819	1873.2497	0.156322	-460.105984	-460.095008	-460.094063	-460.143985	37.32	
C	 0.1020939785	 1.406841372	-0.5057224718	-0.240142
O	 0.3055148664	 0.0616326259	-0.1200099045	-0.245545
C	 0.7652164138	-0.7836322938	-1.1697092213	-0.097365
C	 1.1877137396	-2.0891345122	-0.4763310917	-0.062368
O	 2.1670915553	-1.8378743086	 0.5033490284	-0.418783
C	-0.247183489	-1.0129811339	-2.2016664821	 0.074837
C	-1.0959114186	-1.2233774139	-3.0317666481	 0.055958
C	-2.086994107	-1.4639583573	-4.0802809693	-0.197519
O	-2.041110471	-0.5166446801	-5.1372859913	-0.399671
H	 1.0308046512	 1.8610631174	-0.8829289235	 0.109147
H	-0.6705557094	 1.4899169726	-1.2810146768	 0.126459
H	-0.2233981249	 1.948080944	 0.3853271159	 0.130955
H	 1.6611704522	-0.3336716744	-1.6293368836	 0.098228
H	 0.2883026019	-2.562578824	-0.0544826913	 0.102675
H	 1.6204111283	-2.7706019774	-1.2136966873	 0.116757
H	 1.8112630993	-1.124896849	 1.0479718349	 0.290209
H	-1.9708591139	-2.4933577844	-4.4556116942	 0.122243
H	-3.0970737377	-1.3946695938	-3.6617235237	 0.145595
H	-1.1364618951	-0.4940322991	-5.4663499286	 0.288332
21.5574	68.8555	90.906	108.7766	153.4924	172.7271	223.0899	249.9467	279.6761	328.6161	363.6572	447.1121	474.2974	528.704	540.9657	596.5043	803.8343	859.9563	984.5723	1029.0322	1048.5165	1072.3273	1090.8409	1139.2946	1149.4078	1184.5622	1196.2162	1215.2044	1256.05	1293.9443	1359.7433	1362.221	1384.8661	1417.2553	1433.0096	1478.6493	1485.2952	1488.3049	1498.2486	1510.3199	2349.5842	2965.3861	2978.1339	2989.2012	2998.6997	3052.9754	3065.943	3098.7192	3123.7245	3787.909	3816.4962
COC(CO)C#CCO	CO[C@@H](CO)C#CCO	
InChI=1S/C6H10O3/c1-9-6(5-8)3-2-4-7/h6-8H,4-5H2,1H3	InChI=1S/C6H10O3/c1-9-6(5-8)3-2-4-7/h6-8H,4-5H2,1H3/t6-/m1/s1
