20
gdb 81884	2.96722	1.25685	1.04147	3.9793	80.43	-0.2402	-0.0379	0.2023	1216.0023	0.169308	-403.118149	-403.10888	-403.107935	-403.151934	34.429	
C	-1.0047770038	 1.338397203	-0.1512262093	-0.407207
C	-0.3272624085	-0.0209208475	-0.1886019438	 0.055822
C	 0.6049494476	-0.4334702301	-1.3773429273	-0.100396
C	 0.849227498	 0.5032890925	-2.5554694813	-0.412153
C	 1.7118958051	-0.6071229288	-0.3370207428	 0.241625
C	 1.8879398737	 0.6058361492	 0.5008070037	-0.279481
N	 0.7634414963	-0.2585628891	 0.8382766906	-0.158588
C	 2.6405189166	-1.7574368304	-0.2343206782	 0.066118
O	 3.4276799853	-1.920026952	 0.6660041376	-0.253327
H	-0.3222009629	 2.1667007206	-0.3582158614	 0.118967
H	-1.8083542931	 1.3793851863	-0.8938097361	 0.123646
H	-1.4488851482	 1.5051143363	 0.8354399525	 0.133981
H	-1.0809288547	-0.7928744289	-0.0139541829	 0.09155
H	 0.2943133682	-1.4120029933	-1.7585635319	 0.084918
H	 1.1782557052	 1.4964682252	-2.2366712748	 0.118488
H	 1.6230245471	 0.0958857118	-3.2152779934	 0.122345
H	-0.0608956535	 0.6295768452	-3.1512517736	 0.120849
H	 2.6869329961	 0.5496350053	 1.2329585976	 0.148382
H	 1.7219623241	 1.58689455	 0.0651802136	 0.115063
H	 2.5606876914	-2.4894479452	-1.0707578688	 0.069396
94.4493	143.023	168.7718	194.5397	196.7244	223.1044	237.8048	337.3312	348.4439	482.6781	533.1709	588.3766	682.1363	700.492	756.9808	774.9261	837.3372	914.5069	958.7942	1013.1429	1037.203	1041.8746	1075.3961	1103.5661	1118.7659	1136.4652	1148.5332	1190.4874	1221.9067	1262.8824	1313.6016	1341.9043	1377.4823	1395.3171	1409.6846	1415.7807	1432.1713	1483.9892	1487.9251	1491.0044	1502.9178	1506.8768	1809.3914	2865.5367	3033.886	3040.3097	3044.961	3070.4772	3097.4304	3106.2202	3109.546	3115.6938	3125.1705	3216.4272
CC1C(C)C2(CN12)C=O	C[C@H]1[C@@H](C)[C@]2(CN12)C=O	
InChI=1S/C7H11NO/c1-5-6(2)8-3-7(5,8)4-9/h4-6H,3H2,1-2H3	InChI=1S/C7H11NO/c1-5-6(2)8-3-7(5,8)4-9/h4-6H,3H2,1-2H3/t5-,6+,7+,8?/m1/s1
