19
gdb 90228	2.57311	1.74237	1.55947	1.3033	73.75	-0.2391	0.0406	0.2797	973.033	0.158709	-422.939774	-422.931988	-422.931044	-422.971645	31.015	
C	-0.5697727175	 1.3061275795	-0.0474794896	-0.402249
C	 0.0812626592	-0.0581451059	-0.0082849233	 0.067309
O	 1.2489378316	-0.145683976	-0.9197508006	-0.353128
C	 2.0836229905	-0.5572382763	 0.1774056741	 0.321785
C	 2.9257296167	 0.5058011257	 0.9341936635	-0.2978
C	 1.8001011316	 0.5293817966	 2.0486885517	-0.307984
C	 0.9893743197	-0.4715751763	 1.1810280868	 0.305016
O	 1.0422502985	-1.8769630075	 1.5038629695	-0.337225
C	 2.1307376719	-2.0596051279	 0.5294365938	-0.154894
H	 0.1364088241	 2.0967373471	 0.2215324126	 0.12156
H	-0.9415271716	 1.5142693162	-1.0554539347	 0.132374
H	-1.417109922	 1.3409347786	 0.6458438362	 0.1236
H	-0.6414215365	-0.8470188705	-0.2473948181	 0.093274
H	 3.9186237633	 0.1932988699	 1.2660017868	 0.108511
H	 3.0146257335	 1.4357682276	 0.3702542341	 0.121433
H	 2.103765303	 0.0861113296	 2.9983397324	 0.12337
H	 1.3393363133	 1.5004699549	 2.242463817	 0.11029
H	 1.8444471532	-2.7341484088	-0.2837860786	 0.117835
H	 3.0444633376	-2.4220164066	 1.0145107363	 0.106925
110.4949	206.3609	230.2293	257.064	290.4433	348.3284	381.0828	466.8428	546.7215	668.6751	700.2656	716.9881	732.8244	832.5421	849.7746	878.1398	886.3954	902.6255	939.362	986.85	1018.1574	1053.9054	1106.5172	1134.9866	1160.0187	1182.5216	1193.1114	1223.4951	1240.6709	1249.4844	1260.4714	1269.995	1295.957	1339.4041	1373.596	1406.2652	1455.7902	1468.2631	1481.0145	1495.1396	1498.3161	3026.3468	3036.4833	3040.3998	3068.3128	3074.2355	3087.8113	3109.6356	3116.7757	3124.9035	3141.094
CC1OC23CCC12OC3	C[C@H]1O[C@@]23CC[C@@]12OC3	
InChI=1S/C7H10O2/c1-5-7-3-2-6(7,9-5)4-8-7/h5H,2-4H2,1H3	InChI=1S/C7H10O2/c1-5-7-3-2-6(7,9-5)4-8-7/h5H,2-4H2,1H3/t5-,6-,7-/m1/s1
