15
gdb 130980	4.37614	0.98293	0.8338	3.2124	67.59	-0.2182	-0.0181	0.2001	1299.6265	0.113927	-450.15056	-450.142399	-450.141454	-450.184556	28.807	
O	 0.6766289771	 0.9817533767	 1.2441028287	-0.242921
C	 0.6280813057	 1.7538274125	 0.3254167728	 0.183455
C	 1.2447800691	 1.471066006	-1.0434443914	-0.256689
N	 1.3280006972	 2.664301911	-1.8594422794	-0.381151
C	 2.3063650024	 3.5880609022	-1.5803837771	 0.440742
N	 2.9568141723	 3.6093174471	-0.4227489953	-0.299373
N	 3.7625614975	 4.7002560626	-0.5882036911	-0.1858
C	 3.5663100901	 5.2456222314	-1.7983563342	 0.027443
N	 2.6481393798	 4.5717563865	-2.4657136021	-0.338949
H	 0.0941895542	 2.7279274531	 0.3878413973	 0.089971
H	 2.2146455209	 0.9796964114	-0.8846557959	 0.139776
H	 0.5858572954	 0.7546616943	-1.5468406279	 0.134925
H	 1.1424841332	 2.5653526987	-2.8444673794	 0.256656
H	 4.3908024619	 4.973027566	 0.1483241088	 0.283208
H	 4.1009823534	 6.1147914605	-2.1512608238	 0.148706
49.3356	72.1206	122.6021	197.4822	288.4868	376.758	409.8845	474.2862	478.0717	635.8357	661.5163	676.0766	778.545	797.1064	858.8234	990.3764	997.1403	1029.679	1092.4419	1107.367	1136.4423	1184.8311	1262.8663	1291.1664	1326.3368	1345.2745	1403.3495	1442.2899	1449.709	1480.8479	1566.0143	1614.4152	1844.4729	2894.0703	3014.6996	3078.7885	3258.416	3641.7367	3678.3608
O=CCNC1=NNC=N1	O=CCNc1n[nH]cn1	
InChI=1S/C4H6N4O/c9-2-1-5-4-6-3-7-8-4/h2-3H,1H2,(H2,5,6,7,8)	InChI=1S/C4H6N4O/c9-2-1-5-4-6-3-7-8-4/h2-3H,1H2,(H2,5,6,7,8)
