23
gdb 99985	2.66788	1.08644	0.94945	1.2464	87.32	-0.2618	0.032	0.2939	1376.0407	0.201449	-388.261771	-388.250359	-388.249415	-388.29758	42.601	
C	 0.1835961218	 1.5539578461	 0.0299632325	-0.410874
C	-0.0290668815	 0.0368607737	-0.0145115067	-0.185113
C	-1.4983033417	-0.4554180799	 0.0295882393	 0.256414
C	-2.2234301785	 0.0612157989	 1.2841609066	-0.437411
C	-2.2572732125	-0.0206271846	-1.2356527326	-0.42596
C	-1.4394682684	-2.0198676838	 0.0648241587	-0.057843
O	-0.7064689817	-2.514220207	 1.1860730406	-0.429675
C	-2.7620240543	-2.6506901753	 0.003101159	 0.29321
C	-3.8428384922	-3.1787066994	 0.0061550217	-0.442976
H	 1.2520512571	 1.7836830091	-0.0322862644	 0.114333
H	-0.3076012423	 2.0678017466	-0.8024222766	 0.115157
H	-0.1883012842	 1.9934505752	 0.9604937105	 0.117113
H	 0.4330414414	-0.3568030524	-0.9303675919	 0.086167
H	 0.5072467695	-0.4277219989	 0.8186438046	 0.113724
H	-2.3366828794	 1.1481247611	 1.2536669797	 0.118271
H	-3.2254548198	-0.3726387805	 1.3616661617	 0.120927
H	-1.6684046603	-0.186270474	 2.1954639646	 0.107862
H	-1.7719184289	-0.4044762691	-2.1405594391	 0.109031
H	-3.2873449585	-0.3868773787	-1.2257606876	 0.125788
H	-2.292220887	 1.0695537869	-1.3142255078	 0.115095
H	-0.8605815733	-2.3421627073	-0.8104908838	 0.111184
H	-1.3058782352	-2.5311250486	 1.9394163681	 0.287386
H	-4.7931703001	-3.6530280282	-0.008230187	 0.198188
73.3481	76.5216	137.2015	205.4793	207.0844	227.2984	235.8695	273.1981	287.1675	294.8673	336.7757	345.1706	389.0517	405.419	464.5409	578.3285	613.4691	629.0661	665.3872	748.7609	787.8994	835.4573	934.3319	943.6116	970.5672	1000.2721	1031.4408	1044.4134	1066.8916	1092.1624	1198.9598	1224.8812	1241.9765	1265.9545	1308.2489	1349.6695	1369.1356	1395.3738	1412.0052	1415.7919	1421.6008	1485.6199	1488.6418	1489.5966	1508.1888	1509.5493	1511.8925	1515.2685	2226.1633	3011.6331	3025.1884	3031.6849	3035.5749	3039.8326	3076.3683	3099.4524	3100.3894	3103.0015	3108.417	3114.6799	3118.1052	3501.5701	3820.2916
CCC(C)(C)C(O)C#C	CCC(C)(C)[C@@H](O)C#C	
InChI=1S/C8H14O/c1-5-7(9)8(3,4)6-2/h1,7,9H,6H2,2-4H3	InChI=1S/C8H14O/c1-5-7(9)8(3,4)6-2/h1,7,9H,6H2,2-4H3/t7-/m0/s1
