14
gdb 24006	1.99232	1.86079	0.96215	3.2265	86.35	-0.2139	0.0024	0.2162	1142.6509	0.100456	-362.390485	-362.382389	-362.381445	-362.422939	31.2	
C	 0.0423934479	-1.1880079707	-0.0037399108	-0.419079
C	 0.0195784338	 0.0161062886	 0.0031421255	 0.184817
C	-0.0012550798	 1.4283093216	 0.0109932281	 0.080691
C	-1.1249928136	 2.2313455426	 0.029446461	-0.181226
N	-0.7144175914	 3.5354573025	 0.0312931986	-0.23979
C	 0.6510313908	 3.6029091218	 0.0144737739	-0.181228
C	 1.1437044532	 2.3125236721	 0.0013489169	 0.080665
C	 2.5046146284	 1.9352049437	-0.0177856418	 0.184812
C	 3.6637378816	 1.608675759	-0.0342223859	-0.419063
H	 0.0682121372	-2.2489814134	-0.0099992811	 0.179471
H	-2.1683723594	 1.9641936391	 0.0411438275	 0.138687
H	-1.3286132135	 4.3309070477	 0.0433296265	 0.273086
H	 1.1733452876	 4.5448933089	 0.012951018	 0.138688
H	 4.6836260372	 1.3154543067	-0.0490453163	 0.17947
102.5625	152.912	184.7286	196.8695	432.0486	454.9021	485.0268	504.067	524.0631	534.442	554.0652	622.7522	635.1021	652.0578	652.4527	655.2146	675.8736	761.1964	769.5301	907.1987	1093.6024	1100.0131	1196.0852	1254.7012	1333.016	1342.7415	1470.3689	1547.1526	1580.099	2231.9337	2236.1482	3277.0618	3279.8756	3505.197	3505.7492	3684.4275
C#CC1=CNC=C1C#C	C#Cc1c[nH]cc1C#C	
InChI=1S/C8H5N/c1-3-7-5-9-6-8(7)4-2/h1-2,5-6,9H	InChI=1S/C8H5N/c1-3-7-5-9-6-8(7)4-2/h1-2,5-6,9H
