19
gdb 116531	3.40022	0.87169	0.80937	3.6144	81.2	-0.241	0.0057	0.2467	1498.7854	0.156529	-419.167365	-419.156752	-419.155808	-419.20374	38.305	
C	-0.2509555959	 1.6735204259	 0.3880193379	-0.365687
C	 0.2086935732	 0.2425380472	 0.0794620611	-0.153797
N	 0.8338018151	-0.3793407192	 1.2350402374	-0.268427
C	 0.1302067122	-1.0494063475	 2.0557031531	 0.33652
N	-1.2464185568	-1.2560382436	 2.0571177987	-0.562376
C	 0.8149469983	-1.6174113568	 3.301111485	-0.098523
O	 0.4724681349	-0.8612150455	 4.4578849064	-0.407425
C	 0.5069923045	-3.045136353	 3.4766498342	 0.29518
C	 0.2056047066	-4.2010704996	 3.618849742	-0.46389
H	 0.587367598	 2.2639515911	 0.7676690882	 0.134204
H	-0.6395499944	 2.1590404173	-0.5128212697	 0.110855
H	-1.0373395703	 1.6815390945	 1.1495372703	 0.11772
H	-0.6396827278	-0.3415431676	-0.3210557742	 0.069405
H	 0.9570127863	 0.2726162399	-0.7203216624	 0.108284
H	-1.7389372946	-0.9929677988	 1.2166334823	 0.254835
H	-1.5323997707	-2.1597809586	 2.4118363062	 0.256612
H	 1.887783813	-1.4784036653	 3.1546592955	 0.142817
H	-0.4903802271	-0.824516658	 4.4998112414	 0.288745
H	-0.0280876144	-5.2285836223	 3.7547041168	 0.204948
33.5546	60.2679	114.5915	154.7607	189.0688	227.6813	231.9285	322.477	334.6412	382.3025	404.2186	447.1392	517.4772	573.3633	607.5182	646.6762	665.7714	670.3835	755.8785	810.814	864.0578	878.8093	971.9886	1036.2183	1044.8468	1096.1791	1137.6845	1179.5518	1260.2277	1287.9908	1308.995	1328.4733	1362.6337	1402.2396	1417.5785	1489.4284	1498.2156	1526.6893	1637.3453	1750.0661	2224.5728	2931.8574	3037.6837	3049.8063	3106.4204	3107.7522	3120.0805	3499.283	3545.9619	3656.378	3798.6828
CCN=C(N)C(O)C#C	CCN=C(N)[C@@H](O)C#C	
InChI=1S/C6H10N2O/c1-3-5(9)6(7)8-4-2/h1,5,9H,4H2,2H3,(H2,7,8)	InChI=1S/C6H10N2O/c1-3-5(9)6(7)8-4-2/h1,5,9H,4H2,2H3,(H2,7,8)/t5-/m0/s1
