23
gdb 88982	3.37624	0.85378	0.7676	0.6605	87.35	-0.2188	0.0819	0.3007	1602.1409	0.205085	-384.415812	-384.405721	-384.404777	-384.451635	37.161	
C	-0.1950654658	 1.3542497024	-0.3154499996	-0.393625
C	 0.1394459994	-0.1002006964	-0.0774703332	-0.003269
N	 1.5633634824	-0.4592314394	 0.0469649304	-0.339852
C	 0.6633987868	-0.656508288	 1.1994946196	 0.002874
C	 0.9477514208	 0.1612170519	 2.4384211397	-0.156255
N	 1.8589242143	-0.5821357817	 3.3038239235	-0.091547
C	 3.292428568	-0.387012872	 3.0964033069	-0.246351
C	 2.631600699	 0.1190550774	 4.3334498685	 0.027879
C	 2.5028078172	 1.6012534675	 4.6131909956	-0.411758
H	 0.4835010815	 2.0150214211	 0.227753701	 0.125373
H	-0.1106905686	 1.5953679794	-1.380701002	 0.118162
H	-1.2214193543	 1.5753220087	-0.0021177693	 0.114423
H	-0.4849813059	-0.7885756763	-0.6473336857	 0.07866
H	 1.7550990441	-1.3444308814	-0.4133049728	 0.228422
H	 0.3749249594	-1.6806968185	 1.4307413556	 0.086749
H	 1.3339724026	 1.1451622003	 2.1386328745	 0.089879
H	 0.0140342542	 0.3225858082	 2.9928830306	 0.098124
H	 3.9053451442	-1.2848863514	 3.1129260618	 0.106339
H	 3.5959481594	 0.3528695242	 2.3572356626	 0.116795
H	 2.7410116974	-0.4805388568	 5.2370162986	 0.085516
H	 2.4980214621	 2.2027972152	 3.7013265992	 0.122397
H	 1.586843765	 1.8226070157	 5.1729001405	 0.120002
H	 3.348873317	 1.9359746598	 5.222925154	 0.121062
48.5261	63.1488	100.4746	167.7347	184.4321	227.4121	253.616	304.402	374.7031	422.6542	447.6159	501.437	519.7983	752.2392	769.0424	794.8684	869.6127	881.2689	899.8685	949.2098	961.7524	986.3544	1026.25	1031.7397	1049.7231	1076.5614	1101.5544	1114.1214	1147.6703	1152.9336	1166.7137	1188.3219	1214.697	1256.0756	1278.8018	1298.1432	1335.6632	1352.6037	1401.6792	1406.1462	1419.6062	1428.0466	1469.5439	1481.229	1490.6623	1494.0211	1499.901	1504.8663	1514.8308	2996.5456	3033.5254	3035.0556	3044.4436	3090.4382	3091.7715	3092.882	3096.4741	3097.0738	3121.904	3124.3258	3132.5255	3174.7567	3507.9131
CC1NC1CN1CC1C	C[C@H]1N[C@H]1CN1C[C@H]1C	
InChI=1S/C7H14N2/c1-5-3-9(5)4-7-6(2)8-7/h5-8H,3-4H2,1-2H3	InChI=1S/C7H14N2/c1-5-3-9(5)4-7-6(2)8-7/h5-8H,3-4H2,1-2H3/t5-,6-,7+,9?/m1/s1
