17
gdb 115463	3.52523	1.14404	1.08497	2.2495	64.69	-0.2536	-0.0352	0.2184	1151.4181	0.134764	-496.09517	-496.086509	-496.085565	-496.129347	30.784	
O	-0.269726714	 1.4128439176	 0.4597524274	-0.418838
C	-0.0693399313	 0.0484570164	 0.1547589198	-0.093683
C	-1.3796978629	-0.6525277215	-0.1927112921	 0.209201
O	-2.2708912733	-0.7174090897	 0.9076328901	-0.261245
C	-3.2887712274	 0.2459834298	 0.7088692761	-0.11873
C	-3.3705878898	 0.3028427612	-0.8288211311	-0.00884
O	-2.0274632882	 0.1077403041	-1.2148896518	-0.275991
C	-4.296390458	-0.7796748475	-1.3703822614	 0.151094
O	-3.92225629	-1.7859556163	-1.9073122205	-0.226291
H	-0.6743894642	 1.7998947839	-0.3251434211	 0.287717
H	 0.6360246389	-0.0909367254	-0.679790123	 0.097615
H	 0.3567207346	-0.4261395415	 1.0432553232	 0.125099
H	-1.2042222356	-1.6798060537	-0.5378305722	 0.102688
H	-4.2040530656	-0.1047831075	 1.194189136	 0.12146
H	-3.0052616942	 1.22343769	 1.117244652	 0.120993
H	-3.7136323507	 1.2786197097	-1.1932716224	 0.109299
H	-5.3792763083	-0.5662128996	-1.2050389792	 0.078451
59.0243	84.9761	129.7913	166.3967	211.4833	292.6205	349.5237	355.7808	436.7899	621.2717	680.2861	762.9072	787.2978	834.0962	846.6395	894.7321	927.2624	974.7401	1026.4403	1033.7681	1082.3723	1099.2638	1127.0571	1182.8021	1216.5538	1225.6415	1260.8158	1324.963	1364.8138	1370.7252	1376.5496	1407.5617	1414.4683	1430.1595	1488.4361	1513.0306	1846.7277	2854.2273	2986.0379	3028.8686	3032.5897	3051.0996	3095.1359	3098.4065	3800.2635
OCC1OCC(O1)C=O	OC[C@H]1OC[C@@H](O1)C=O	
InChI=1S/C5H8O4/c6-1-4-3-8-5(2-7)9-4/h1,4-5,7H,2-3H2	InChI=1S/C5H8O4/c6-1-4-3-8-5(2-7)9-4/h1,4-5,7H,2-3H2/t4-,5-/m0/s1
