15
gdb 52642	2.62304	0.66978	0.56419	3.7372	82.62	-0.269	-0.0668	0.2022	1909.8586	0.108334	-420.563618	-420.552962	-420.552017	-420.602843	34.344	
C	-0.1170064414	 1.4722144556	-0.1465251243	-0.499661
C	-0.0252950166	 0.0225634307	-0.068869086	 0.060123
C	 0.0548378459	-1.1763371768	 0.0017919316	 0.09357
C	 0.109410132	-2.6414351158	 0.0762174086	-0.24288
O	-1.1693983347	-3.2392896036	 0.2423318086	-0.383659
C	 0.8185256809	-3.1761280345	-1.0987267434	 0.163911
C	 1.3596168485	-3.6275236053	-2.0795970282	-0.017447
C	 2.045656982	-4.1535312246	-3.2323174908	 0.027806
O	 1.4940570244	-4.6129848689	-4.2054162746	-0.226682
H	 0.6322494453	 1.9486660027	 0.4945209787	 0.15755
H	 0.0429193825	 1.8256826781	-1.1705880928	 0.15741
H	-1.1031704655	 1.8206188378	 0.1785222619	 0.158202
H	 0.6658983854	-2.9362642305	 0.9757164061	 0.15485
H	-1.7128722142	-2.9733355595	-0.509016622	 0.293682
H	 3.1511090355	-4.1043405454	-3.1606038631	 0.103226
12.935	34.5143	63.602	93.4619	131.9703	166.858	237.3836	275.0617	310.3864	350.1282	397.9336	441.9725	502.7323	585.4553	671.8499	784.095	851.1515	1018.719	1021.1274	1051.2017	1053.5245	1120.3179	1170.3654	1260.28	1306.375	1411.3895	1414.6245	1421.8563	1474.6256	1475.8577	1769.3253	2325.5238	2371.2027	2921.9551	3027.7963	3032.8243	3096.6557	3097.4948	3798.5747
CC#CC(O)C#CC=O	CC#C[C@@H](O)C#CC=O	
InChI=1S/C7H6O2/c1-2-4-7(9)5-3-6-8/h6-7,9H,1H3	InChI=1S/C7H6O2/c1-2-4-7(9)5-3-6-8/h6-7,9H,1H3/t7-/m1/s1
