17
gdb 77647	2.18335	1.42354	1.29634	1.8782	77.3	-0.2202	0.0342	0.2544	1092.1637	0.133605	-421.757098	-421.74815	-421.747206	-421.790183	34.372	
O	-0.1510638273	 1.41561199	-0.067438765	-0.420109
C	-0.0737047622	 0.0247575627	 0.0507145433	 0.012824
C	-0.4192704206	-0.7211991471	 1.2885680526	 0.271679
O	 0.4877680855	-1.6177484511	 1.7999312101	-0.442342
C	-1.5364764268	-0.0358169729	 2.0708064459	-0.291089
C	-2.4376950678	-0.0431787492	 0.7984355568	-0.28193
C	-1.34907421	-0.7827188325	-0.001604242	 0.075311
C	-1.5751589166	-1.814080474	-0.9497865453	 0.165794
C	-1.779550076	-2.7095328428	-1.7295278002	-0.397692
H	 0.5951927476	 1.7972800946	 0.4075625963	 0.291046
H	 0.7384613077	-0.4445745232	-0.5049717987	 0.106404
H	 0.0066246264	-2.3204643351	 2.2521131318	 0.291738
H	-1.9384886595	-0.6797305406	 2.8582378387	 0.098949
H	-1.2889005563	 0.9376965213	 2.5038471903	 0.104038
H	-3.3384702423	-0.6457321179	 0.920104995	 0.112107
H	-2.7034566538	 0.93828182	 0.4027315267	 0.121241
H	-1.956172268	-3.4868463421	-2.4304209764	 0.182031
103.39	143.1554	205.4187	235.4817	247.0443	279.0843	331.9959	379.0353	416.377	509.9459	524.8649	552.08	576.9832	632.7049	642.071	674.3521	764.7385	799.2957	823.1847	956.1499	1008.0828	1040.9713	1088.1748	1105.9189	1136.6632	1209.3383	1214.0605	1238.9917	1243.1911	1277.1653	1302.3198	1333.8768	1379.6947	1468.1492	1477.2627	1518.3	2224.8729	3050.7442	3082.5835	3097.5462	3115.3171	3139.8499	3503.7426	3788.3563	3803.2231
OC1C2(O)CCC12C#C	O[C@H]1[C@@]2(O)CC[C@@]12C#C	
InChI=1S/C7H8O2/c1-2-6-3-4-7(6,9)5(6)8/h1,5,8-9H,3-4H2	InChI=1S/C7H8O2/c1-2-6-3-4-7(6,9)5(6)8/h1,5,8-9H,3-4H2/t5-,6+,7+/m1/s1
