12
gdb 21416	3.89942	2.05561	1.34603	3.1488	60.71	-0.2482	-0.0649	0.1834	822.2064	0.086764	-410.874458	-410.868096	-410.867152	-410.905101	23.876	
N	-0.0802564451	 1.2878731915	 0.34932489	-0.551927
C	 0.0107230976	 0.0709106918	-0.0111269495	 0.486661
N	 1.1741689882	-0.6384320221	-0.3122286566	-0.30936
N	 1.2619220874	-1.9265373527	-0.6931657562	-0.127497
C	 0.1694245299	-2.5986178599	-0.7985421806	-0.104486
C	-1.1712587878	-2.0431881975	-0.5275196738	 0.424157
O	-2.2079887069	-2.663359839	-0.6222659372	-0.358607
N	-1.1278561749	-0.7106423648	-0.1444230119	-0.386233
H	 0.8275151632	 1.7430438668	 0.4069234869	 0.217744
H	 2.0583850075	-0.1614059119	-0.2464742419	 0.278034
H	 0.238707677	-3.6348481636	-1.1048246314	 0.152228
H	-2.0048552362	-0.2504186484	 0.0610109722	 0.279285
125.9894	152.6274	370.6129	377.9285	510.3925	527.5294	538.9263	557.7946	677.4247	714.0626	739.1426	756.4631	768.5162	898.3371	967.5022	1006.8291	1098.8179	1147.511	1280.9374	1359.6303	1391.498	1433.6109	1464.6458	1653.2149	1751.9581	1807.9922	3221.3257	3522.3018	3606.9939	3654.3555
N=C1NN=CC(=O)N1	[NH][C]1NN=CC(=O)N1	
InChI=1S/C3H4N4O/c4-3-6-2(8)1-5-7-3/h1H,(H3,4,6,7,8)	InChI=1S/C3H4N4O/c4-3-6-2(8)1-5-7-3/h1H,(H3,4,6,7,8)
