18
gdb 93074	2.25653	1.60976	0.99559	3.0474	74.17	-0.2581	-0.0205	0.2376	1174.5115	0.148154	-439.1275	-439.119103	-439.118159	-439.16085	31.176	
C	-0.0339791689	 1.5116260217	 0.132569994	-0.402176
C	 0.0301443009	-0.0140315454	-0.0074594089	-0.018595
C	 0.5206099204	-0.3901128332	-1.4112907994	-0.141442
N	 0.8183052128	-1.7692674094	-1.7207632542	-0.241717
C	 0.8261788061	-2.7695849824	-0.9683897478	 0.133829
O	 0.5441401675	-2.9745164211	 0.3739028692	-0.222432
C	 0.5566854955	-2.0522127318	 1.3995119224	 0.419407
O	 0.2452319916	-2.4364611766	 2.4884787144	-0.294585
C	 0.9479372528	-0.6348088548	 1.0667613961	-0.342539
H	 0.9650195392	 1.9556062328	 0.0519775649	 0.121428
H	-0.6597461521	 1.9522133947	-0.6502677019	 0.122517
H	-0.4529964213	 1.8014732474	 1.1005178222	 0.125574
H	-0.9837800572	-0.4114134279	 0.1314906078	 0.0965
H	-0.2079916583	-0.0504962007	-2.1582992634	 0.123413
H	 1.4375276766	 0.1787895239	-1.6261748252	 0.119612
H	 1.0612672932	-3.7491117033	-1.381631953	 0.136318
H	 1.9907453479	-0.6107962003	 0.7247641351	 0.129627
H	 0.8918148833	-0.0820745736	 2.0061766778	 0.135259
75.8235	113.6934	146.1884	234.7775	280.9867	323.8035	378.331	407.299	458.7506	500.1011	557.6266	657.4272	793.4942	820.0694	874.5904	890.443	941.7343	947.1842	969.2936	1001.9998	1063.3688	1107.0791	1122.662	1146.3992	1177.7434	1241.1749	1303.2842	1310.2006	1340.54	1381.7998	1398.9619	1415.7226	1447.2269	1466.1086	1476.8641	1499.1228	1499.5124	1785.0419	1861.3253	3000.389	3018.4002	3030.548	3037.2664	3046.0183	3099.1992	3110.024	3119.2424	3153.2877
CC1CN=COC(=O)C1	C[C@H]1CN=COC(=O)C1	
InChI=1S/C6H9NO2/c1-5-2-6(8)9-4-7-3-5/h4-5H,2-3H2,1H3	InChI=1S/C6H9NO2/c1-5-2-6(8)9-4-7-3-5/h4-5H,2-3H2,1H3/t5-/m1/s1
