18
gdb 122781	5.31935	0.56896	0.51896	0.5661	78.38	-0.2648	-0.0267	0.2381	2031.228	0.144954	-439.045249	-439.03491	-439.033965	-439.081896	35.768	
O	-0.2214235552	 1.4511621715	 0.0118907287	-0.419267
C	-0.0323989096	 0.0454416505	 0.0026799162	-0.073028
C	-1.4112575784	-0.6033889367	 0.0125219071	-0.190541
C	-1.32665786	-2.1203958714	 0.0035122181	-0.062798
O	-2.6730964425	-2.6216643461	 0.0139675515	-0.2334
C	-2.8089800724	-3.9581615176	 0.0079916204	 0.255976
N	-1.8086780968	-4.7466233875	-0.0065714903	-0.53925
C	-4.1922326181	-4.352707034	 0.0188000034	 0.276898
C	-5.3321964537	-4.7340228012	 0.0273841291	-0.407185
H	 0.6436395163	 1.8708390689	 0.006175354	 0.286935
H	 0.5267683689	-0.2767108541	-0.8912026969	 0.088719
H	 0.5438231051	-0.286044127	 0.8821985979	 0.088721
H	-1.9575561401	-0.2682311821	 0.9004238217	 0.119515
H	-1.9745811159	-0.258710816	-0.8609818302	 0.119523
H	-0.8104807344	-2.5014688955	-0.8848684576	 0.122101
H	-0.7932720506	-2.5109800338	 0.8774821632	 0.122081
H	-2.1204473229	-5.7149389517	-0.0093198318	 0.23532
H	-6.3413214798	-5.0666118565	 0.0348136955	 0.20968
49.6115	65.3353	83.8536	125.7372	154.7372	176.7759	269.59	269.6171	305.6918	343.7349	461.3789	566.337	591.4967	659.1431	659.9113	732.6798	775.5176	850.5745	885.0777	902.9861	1001.6066	1035.3848	1070.1229	1099.2043	1123.9337	1173.1031	1230.5146	1244.5483	1297.2492	1307.927	1317.8666	1366.1973	1432.634	1467.9127	1498.1073	1515.3764	1531.6108	1679.4125	2236.8009	2959.199	2984.0632	3037.6286	3053.0655	3072.6523	3103.3326	3498.8945	3527.1147	3832.4036
OCCCOC(=N)C#C	OCCCO[C]([NH])C#C	
InChI=1S/C6H9NO2/c1-2-6(7)9-5-3-4-8/h1,7-8H,3-5H2	InChI=1S/C6H9NO2/c1-2-6(7)9-5-3-4-8/h1,7-8H,3-5H2
