18
gdb 66139	3.02442	1.34808	1.23863	3.2259	71.61	-0.2412	-0.0379	0.2033	1068.5089	0.148143	-439.077913	-439.06995	-439.069005	-439.110265	31.156	
O	-0.0245146648	 1.4283397244	 0.0971086737	-0.484867
C	 0.0117989516	 0.0293311947	 0.0464533658	 0.345966
C	 0.6304066633	-0.6000631945	 1.3393647537	-0.290115
C	-0.0355905787	-1.9809910083	 1.5210937024	-0.219752
C	-1.3940496071	-1.8216659242	 0.8567632241	-0.026654
N	-2.075371001	-0.5823086519	 1.2789091052	-0.333468
C	-1.3717365676	-0.6243453766	-0.0179347732	-0.098302
C	 0.8197853198	-0.4094569111	-1.1617501078	 0.11567
O	 1.3368444659	 0.382919933	-1.9126882608	-0.276795
H	 0.4961526484	 1.7345385411	-0.6621907388	 0.289457
H	 1.7219040558	-0.6493808657	 1.2990637903	 0.103785
H	 0.3539955877	 0.0742296808	 2.1506925751	 0.148196
H	 0.5288540334	-2.7699612197	 1.0101921035	 0.100288
H	-0.1133273481	-2.2644683273	 2.5753959887	 0.112451
H	-1.9892769744	-2.6956899848	 0.6124936481	 0.08823
H	-3.0743952224	-0.6659594664	 1.1088486454	 0.235606
H	-1.9493388614	-0.5528654898	-0.9341566475	 0.092254
H	 0.9248684894	-1.5031121039	-1.3133951481	 0.09805
100.3671	133.8359	224.9742	295.1103	322.5916	361.5703	375.3112	435.1146	487.3214	524.3802	651.8888	707.041	808.121	824.2392	836.7632	874.01	903.1747	938.0315	947.6117	977.6338	1003.8828	1049.9177	1073.0614	1115.263	1143.093	1167.5149	1187.7146	1229.2323	1238.018	1264.6228	1309.8008	1339.0033	1368.6236	1386.2173	1417.6985	1445.5788	1477.3024	1494.145	1809.072	2927.6479	3039.4285	3072.4385	3082.335	3134.6417	3156.3967	3167.3156	3506.8678	3691.3034
OC1(CCC2NC12)C=O	O[C@]1(CC[C@H]2N[C@@H]12)C=O	
InChI=1S/C6H9NO2/c8-3-6(9)2-1-4-5(6)7-4/h3-5,7,9H,1-2H2	InChI=1S/C6H9NO2/c8-3-6(9)2-1-4-5(6)7-4/h3-5,7,9H,1-2H2/t4-,5-,6-/m1/s1
