16
gdb 81721	3.17506	1.33442	1.04898	2.0565	78.62	-0.2423	-0.0294	0.2129	1140.8648	0.12202	-400.687356	-400.678808	-400.677864	-400.7204	31.962	
C	-0.2844216267	 1.5366070125	-0.0398302307	-0.421289
C	 0.1072516834	 0.0706566501	-0.0063239103	-0.057149
N	 0.7863209206	-0.5295832015	-1.2196058203	-0.160862
C	 2.1057507779	 0.0738046341	-1.2920212768	-0.264153
C	 1.9304807384	-1.0577856423	-0.3179528818	 0.052848
C	 2.5652340886	-2.3220656554	-0.4332046228	 0.185025
C	 3.1106415905	-3.392564339	-0.4859506928	-0.393223
C	 1.2297097367	-0.4830699552	 0.8992327531	 0.337627
O	 1.3813709598	-0.5946603497	 2.0776668046	-0.29213
H	 0.5641680221	 2.1991409788	-0.2276316999	 0.125912
H	-1.036150988	 1.7119120143	-0.8154251529	 0.138238
H	-0.7174567731	 1.8171206817	 0.9248942676	 0.145339
H	-0.7790442747	-0.5441590516	 0.192881829	 0.128064
H	 2.6522419163	-0.1730252209	-2.1967399141	 0.149068
H	 2.2773939703	 1.0791380213	-0.9162976247	 0.128116
H	 3.5851471977	-4.3414110872	-0.535958467	 0.198568
100.888	125.6791	178.1453	182.7711	226.0426	304.6393	382.0147	439.1997	517.1985	545.5717	602.3533	621.1729	660.1715	666.8003	730.0508	745.4427	820.5401	864.2906	920.9685	987.059	1074.3942	1093.3703	1118.4834	1134.971	1167.5095	1212.3857	1262.6919	1325.876	1362.4353	1407.4355	1487.0936	1493.4035	1507.218	1898.363	2237.7887	3044.4437	3046.2249	3114.118	3116.9728	3124.1782	3208.8656	3501.2427
CC1N2CC2(C#C)C1=O	C[C@H]1N2C[C@@]2(C#C)C1=O	
InChI=1S/C7H7NO/c1-3-7-4-8(7)5(2)6(7)9/h1,5H,4H2,2H3	InChI=1S/C7H7NO/c1-3-7-4-8(7)5(2)6(7)9/h1,5H,4H2,2H3/t5-,7+,8?/m1/s1
