19
gdb 14150	4.27143	1.48348	1.30118	1.5877	71.2	-0.2373	0.076	0.3133	1003.0032	0.166659	-365.043029	-365.035216	-365.034271	-365.075495	29.393	
C	-0.0407232553	 1.506518048	-0.2272262502	-0.395698
C	 0.0339100286	 0.0159804146	-0.0020896473	-0.057657
N	 1.3749648847	-0.6018296818	-0.0383454601	-0.371482
C	 0.607737336	-0.605636798	 1.2170360896	 0.31506
C	 1.1964932778	 0.1397576711	 2.4198721384	-0.299242
C	 0.8320442313	-0.779410666	 3.6016031497	-0.082221
O	 0.678308941	-2.0803890449	 3.0447585577	-0.242619
C	 0.0270306882	-1.8960960947	 1.8009775931	-0.151226
H	 0.8144265809	 2.0111545873	 0.2290394826	 0.128515
H	-0.0325545731	 1.7360599111	-1.2980768453	 0.121015
H	-0.9602476563	 1.9231785986	 0.1989385032	 0.113901
H	-0.7737814377	-0.5475010565	-0.4727063127	 0.0769
H	 1.3366233525	-1.5161381437	-0.4835965822	 0.22396
H	 2.2789253069	 0.222792012	 2.2960779832	 0.123467
H	 0.790613664	 1.147491536	 2.5418841241	 0.104258
H	 1.6028239423	-0.8352647819	 4.3736151608	 0.111931
H	-0.1092376743	-0.4535522103	 4.0745555502	 0.087622
H	-1.063461118	-1.7984288077	 1.9452203983	 0.089196
H	 0.2132889903	-2.7779716133	 1.179289027	 0.104321
50.8577	168.2054	191.6341	215.3254	267.9326	375.8451	432.9248	463.3538	526.4006	659.3142	759.1393	777.9292	870.5618	878.5111	939.5829	960.8064	977.3111	1003.754	1038.6383	1057.912	1076.7969	1101.9507	1123.1255	1143.7736	1216.6122	1221.3665	1240.6453	1266.4358	1288.9115	1296.0222	1332.2861	1357.3093	1403.9564	1412.3114	1468.5833	1489.9086	1490.8925	1500.5867	1503.4096	1519.7481	2946.0932	2967.2813	3033.6733	3065.0129	3068.8104	3085.3503	3094.6112	3098.5068	3114.432	3125.3763	3484.9267
CC1NC11CCOC1	C[C@H]1N[C@]21CCOC2	
InChI=1S/C6H11NO/c1-5-6(7-5)2-3-8-4-6/h5,7H,2-4H2,1H3	InChI=1S/C6H11NO/c1-5-6(7-5)2-3-8-4-6/h5,7H,2-4H2,1H3/t5-,6-/m1/s1
