13
gdb 133191	3.06029	1.46598	0.99719	2.0303	65.4	-0.2625	-0.0986	0.1639	1076.2171	0.087614	-494.010928	-494.003314	-494.00237	-494.043507	27.758	
C	 0.0858147511	 1.4746386976	 0.0123742491	-0.466202
C	 0.0405247805	-0.0141856628	-0.0164813769	 0.294209
N	-0.0183696644	-0.6494422469	-1.1376676035	-0.337035
C	-0.0563016961	-2.0183002642	-1.0497167758	 0.386537
F	-0.1140467935	-2.6233841503	-2.2158936469	-0.043058
N	-0.0421570621	-2.786366061	-0.0257922056	-0.156809
O	 0.0218260874	-2.1080854773	 1.2010014535	-0.273251
C	 0.0648787608	-0.7393669039	 1.2705969656	 0.380707
N	 0.1226432173	-0.1243642048	 2.3783424228	-0.511516
H	 0.988505192	 1.8091746598	 0.5334561562	 0.16764
H	 0.0613909935	 1.868868817	-1.0032120162	 0.149974
H	-0.7561415928	 1.8610677355	 0.5955378619	 0.167649
H	 0.1313286462	-0.7767697586	 3.1644224359	 0.241155
69.2279	140.106	203.5942	296.6374	332.4181	374.9493	385.0496	496.8453	529.1381	571.8996	661.1853	682.5365	774.0662	805.3905	881.7385	925.4781	1005.4381	1050.0607	1055.237	1080.2771	1218.0998	1365.5088	1391.4725	1415.3387	1452.9262	1459.0673	1630.9472	1678.0282	1720.0783	3051.8166	3108.295	3165.7672	3479.2871
CC1=NC(F)=NOC1=N	CC1=C(ON=C([N]1)F)[NH]	
InChI=1S/C4H4FN3O/c1-2-3(6)9-8-4(5)7-2/h6H,1H3	InChI=1S/C4H4FN3O/c1-2-3(6)9-8-4(5)7-2/h6H,1H3
