18
gdb 97165	3.42873	1.32239	1.07479	3.5879	75.	-0.2436	0.0076	0.2512	1152.3476	0.148618	-439.073028	-439.064846	-439.063902	-439.106551	29.588	
C	-0.2123836628	 1.373999666	 0.2300566782	-0.332976
N	-0.0626815407	-0.0682037667	 0.1229597131	-0.318801
C	 0.6460062783	-0.6823131976	 0.9609688016	 0.43337
O	 1.3190574971	-0.1093596827	 2.0156521208	-0.2548
C	 2.3441844288	-0.992882944	 2.4981474851	-0.103585
C	 1.9589108682	-2.4037977083	 2.0466233867	-0.110403
C	 0.8423111546	-3.1060190706	 2.8451594468	-0.077416
O	-0.1295072992	-2.8483902523	 1.8092770258	-0.282703
C	 0.8567710216	-2.1785070183	 0.9873588203	 0.02405
H	 0.5690228376	 1.8594694409	 0.8262419012	 0.120282
H	-0.2214953487	 1.8043981573	-0.7760956077	 0.122372
H	-1.1829117555	 1.6051760442	 0.686083536	 0.131496
H	 3.3063825401	-0.6847882437	 2.0707388565	 0.11445
H	 2.3949396498	-0.882988454	 3.5851970568	 0.121265
H	 2.8175569939	-3.0181551114	 1.7802605492	 0.095271
H	 0.9855155196	-4.1808027651	 3.0064778572	 0.108271
H	 0.5702374383	-2.6325039132	 3.7970811227	 0.108183
H	 0.9278350989	-2.6131184305	-0.0111417603	 0.101674
78.0363	84.5487	125.6418	176.7807	233.0599	344.5167	358.1677	445.0519	647.8404	697.2466	726.6048	795.4041	846.3131	883.1411	901.0959	951.4573	988.6089	1013.1689	1028.9303	1037.5399	1090.1455	1123.6413	1130.8129	1156.5518	1166.6849	1204.3426	1210.9211	1247.4231	1266.5233	1312.6854	1334.3114	1355.0494	1402.1924	1436.2355	1489.8591	1496.9789	1515.9351	1524.7456	1799.4792	3015.0506	3016.0675	3027.4118	3060.7915	3075.5367	3089.3038	3094.8298	3101.8629	3127.1169
CN=C1OCC2COC12	CN=C1OC[C@H]2CO[C@@H]12	
InChI=1S/C6H9NO2/c1-7-6-5-4(2-8-5)3-9-6/h4-5H,2-3H2,1H3	InChI=1S/C6H9NO2/c1-7-6-5-4(2-8-5)3-9-6/h4-5H,2-3H2,1H3/t4-,5-/m1/s1
