20
gdb 126305	3.91577	0.89989	0.78421	1.8224	84.04	-0.1859	0.0358	0.2216	1527.6235	0.172202	-399.354497	-399.344818	-399.343874	-399.390081	34.833	
C	 0.0911503487	 1.5382048171	-0.2744324267	-0.36382
C	 0.0136923151	 0.0222921991	-0.0155547762	-0.302743
C	-1.3871857376	-0.4812336292	 0.146233751	 0.397917
C	-2.1983392139	-0.5964116796	 1.2614122277	-0.391444
C	-3.4339592458	-1.0879943919	 0.765742621	 0.40854
N	-4.6044545923	-1.327101772	 1.4715335917	-0.367533
C	-4.5116458731	-1.6820797753	 2.8757758467	-0.321448
N	-3.3959299403	-1.2788757384	-0.5523777717	-0.336962
N	-2.1411789122	-0.8890951092	-0.9008384983	-0.258936
H	 1.1311839417	 1.8617592414	-0.382080021	 0.113555
H	-0.4463282351	 1.8093127811	-1.188375356	 0.119779
H	-0.3585151141	 2.0957557335	 0.5520685756	 0.128532
H	 0.5030070724	-0.5147784941	-0.8379439284	 0.103139
H	 0.5802875256	-0.2229104875	 0.8886965175	 0.118753
H	-1.9317084594	-0.3567650078	 2.2774875119	 0.09197
H	-5.2413206102	-1.9040519689	 0.9400989813	 0.237604
H	-5.5160931842	-1.8780735517	 3.2590431381	 0.121709
H	-3.8832076928	-2.565319973	 3.074333929	 0.108259
H	-4.1022661394	-0.8434168773	 3.4489089654	 0.129457
H	-1.8638593629	-0.9599952363	-1.8642649886	 0.263673
29.9145	82.2325	118.4238	163.5071	184.9531	226.3386	299.2316	341.3006	371.6939	459.9625	479.5245	570.2974	645.1522	701.9965	728.961	758.9381	775.841	785.6652	960.4565	989.5571	1046.9426	1059.6021	1081.4343	1089.7077	1150.1032	1153.8598	1191.7741	1208.4878	1263.3794	1326.1472	1352.6043	1401.4258	1412.1189	1454.8484	1465.6043	1483.4026	1488.2782	1496.21	1506.318	1516.4751	1524.2661	1560.23	1622.6485	2972.2754	3028.4757	3038.6848	3064.5096	3073.3233	3110.202	3114.4597	3118.4452	3265.431	3591.5197	3680.5988
CCC1=CC(NC)=NN1	CCc1cc(NC)n[nH]1	
InChI=1S/C6H11N3/c1-3-5-4-6(7-2)9-8-5/h4H,3H2,1-2H3,(H2,7,8,9)	InChI=1S/C6H11N3/c1-3-5-4-6(7-2)9-8-5/h4H,3H2,1-2H3,(H2,7,8,9)
