15
gdb 42276	3.34033	1.21183	1.06585	2.1698	70.62	-0.2593	-0.0916	0.1677	1118.4586	0.112531	-416.771216	-416.763297	-416.762353	-416.804827	28.452	
O	 0.3593454939	 0.3331546341	-1.2825493987	-0.273943
C	 0.0499521814	 1.2382489603	-0.5481770133	 0.29117
C	 1.0046573853	 1.7362747103	 0.4695003225	 0.226671
N	 1.7345601599	 2.1534623514	 1.263610819	-0.297432
C	-1.2900669845	 1.9219991882	-0.5207025905	-0.125526
C	-2.4322398467	 1.3721312707	-1.4066882464	-0.197109
N	-3.3196792861	 1.1293914037	-0.211210656	-0.11488
C	-2.6082230851	 0.1467859728	 0.6224153669	-0.236949
C	-2.1768553752	 1.5585266234	 0.6865777301	-0.050226
H	-1.1519857037	 3.0028100824	-0.6091868	 0.125218
H	-2.875484596	 2.1242136013	-2.0596172718	 0.127092
H	-2.1992658757	 0.4724539114	-1.9809870322	 0.135449
H	-3.2084548073	-0.2202721475	 1.4484693648	 0.135917
H	-1.9807759773	-0.6018871505	 0.143607772	 0.135916
H	-2.3246564027	 2.1892166778	 1.5557432138	 0.118632
34.868	118.9193	128.3239	233.2133	272.2224	357.2874	447.2138	483.4374	577.253	683.748	735.273	766.8991	787.5336	802.7629	941.5579	970.3975	993.0298	995.5055	1058.1702	1080.0458	1112.864	1124.8447	1140.4808	1191.5855	1201.831	1234.7753	1292.5691	1342.3396	1364.9453	1490.59	1507.6397	1789.1402	2334.772	3077.1712	3082.5767	3111.4224	3140.2914	3179.635	3208.0995
O=C(C#N)C1CN2CC12	O=C(C#N)[C@H]1CN2C[C@@H]12	
InChI=1S/C6H6N2O/c7-1-6(9)4-2-8-3-5(4)8/h4-5H,2-3H2	InChI=1S/C6H6N2O/c7-1-6(9)4-2-8-3-5(4)8/h4-5H,2-3H2/t4-,5-,8?/m0/s1
