18
gdb 86683	2.1738	1.62195	1.38492	1.9411	72.45	-0.2469	-0.0447	0.2022	1031.8755	0.147089	-439.048576	-439.040074	-439.03913	-439.081963	31.807	
O	 0.2018987876	 1.3369426054	 0.0639779731	-0.434505
C	 0.0377825648	-0.0545573036	 0.1136022356	 0.05245
C	 0.0825327412	-0.6902640822	 1.5383731064	-0.260904
C	-1.4775995295	-0.8476276223	 1.5276487519	-0.184414
C	-2.1749422043	 0.2521290195	 2.2844635783	 0.150505
O	-1.862807601	 1.4208116049	 2.2000052218	-0.267294
C	-1.4182381038	-0.5454254134	 0.0039784496	 0.330372
C	-2.4606095912	-0.0835230923	-0.9314419519	-0.302243
N	-1.948908411	-1.4691897857	-0.9873419108	-0.370175
H	-0.4048279119	 1.7122414067	 0.7224723143	 0.293786
H	 0.7340301457	-0.4774327987	-0.6179140495	 0.083009
H	 0.5827011603	-1.6604208008	 1.5598258262	 0.114681
H	 0.4960756754	-0.0428117317	 2.3134300787	 0.117606
H	-1.8776524284	-1.8282626886	 1.7890845367	 0.092821
H	-3.0215691884	-0.0468793631	 2.9372505581	 0.096012
H	-3.4937484621	 0.0059574351	-0.6066040465	 0.120935
H	-2.1588795234	 0.6249811267	-1.6983298947	 0.130703
H	-1.2892338402	-1.5724783858	-1.7561498672	 0.236655
68.479	103.9651	174.8248	207.7559	233.1985	313.0369	356.3721	401.6475	501.63	570.1557	615.0301	656.9502	782.4354	826.3819	860.3036	867.3583	927.6415	938.3325	969.8671	993.482	1020.2675	1054.9229	1071.7731	1100.3241	1122.3341	1157.8655	1181.8388	1231.3571	1253.5949	1257.5953	1283.6078	1321.0648	1332.4447	1390.6703	1421.6684	1460.9585	1471.8086	1511.4381	1787.6954	2912.8445	3058.6652	3076.8481	3105.8012	3108.6887	3140.2477	3195.3432	3482.765	3681.26
OC1CC(C=O)C11CN1	O[C@H]1C[C@@H](C=O)[C@]21CN2	
InChI=1S/C6H9NO2/c8-2-4-1-5(9)6(4)3-7-6/h2,4-5,7,9H,1,3H2	InChI=1S/C6H9NO2/c8-2-4-1-5(9)6(4)3-7-6/h2,4-5,7,9H,1,3H2/t4-,5-,6-/m0/s1
