20
gdb 36825	4.5265	0.62336	0.58454	1.3831	90.31	-0.2316	0.0476	0.2792	1947.8171	0.171133	-365.942519	-365.933145	-365.932201	-365.978709	33.906	
C	 0.3131539499	 1.4330508086	-0.794962902	-0.390791
C	 0.0731430366	 0.0055139486	-0.5989218406	 0.051476
C	-0.103151857	-1.1737203718	-0.4201688411	 0.099743
C	-0.3147575233	-2.5772803555	-0.2136461753	-0.155298
C	 0.1671145035	-3.2437999325	 1.0659568367	-0.251759
C	-1.3034679965	-3.0594967786	 0.8369451087	-0.25209
C	 1.406904248	 1.9874080787	 0.1063787215	 0.052305
C	 1.3392002599	 3.3935822997	 0.5705785165	-0.249332
N	 1.1292249729	 2.2813283214	 1.5171416681	-0.307197
H	 0.5851714558	 1.6182588014	-1.8433927631	 0.132957
H	-0.6132791651	 1.9992109076	-0.6203583709	 0.116596
H	-0.2518280627	-3.1865553005	-1.1108686913	 0.107588
H	 0.585902762	-4.2400229356	 0.9788955816	 0.117249
H	 0.6530808424	-2.6087029972	 1.7967762764	 0.130146
H	-1.817925894	-2.3001067145	 1.4134771525	 0.124271
H	-1.9044041532	-3.9278225065	 0.5911791361	 0.116983
H	 2.3841677053	 1.5375226468	-0.054398109	 0.100932
H	 2.2487390186	 3.9657966944	 0.7294232518	 0.1192
H	 0.4815029623	 3.9875770029	 0.2629110185	 0.108178
H	 0.1349478644	 2.1663742327	 1.7019941448	 0.22884
28.3354	50.6746	83.2901	139.2757	186.954	300.5727	333.0775	362.7318	437.9185	512.5091	552.8924	705.024	785.8554	796.6223	821.5164	830.5336	895.7863	902.529	923.33	942.1367	977.8836	1051.7807	1058.6385	1062.7282	1079.9597	1118.2598	1125.6821	1149.417	1176.8678	1184.1802	1201.3464	1230.0891	1248.1252	1266.4087	1312.2351	1323.8182	1391.9083	1419.6885	1462.3184	1467.0765	1497.8235	1514.852	2362.349	2999.7647	3031.7889	3105.3154	3133.8475	3140.3965	3141.0677	3146.4797	3189.8139	3225.11	3240.2148	3489.9228
C(C#CC1CC1)C1CN1	C(C#CC1CC1)[C@H]1CN1	
InChI=1S/C8H11N/c1(2-7-4-5-7)3-8-6-9-8/h7-9H,3-6H2	InChI=1S/C8H11N/c1(2-7-4-5-7)3-8-6-9-8/h7-9H,3-6H2/t8-/m0/s1
