21
gdb 122097	3.0861	0.68771	0.58009	0.8161	82.49	-0.258	0.0435	0.3015	1907.6248	0.179198	-424.174502	-424.163398	-424.162454	-424.211763	38.768	
C	-0.1863780226	 1.3656614848	 0.073884081	-0.230734
O	-0.1140627339	-0.0374891779	-0.0067486471	-0.231063
C	 0.6734808764	-0.4861022538	-1.0867796311	-0.06508
C	 0.6979884195	-2.0108087555	-1.0430063377	-0.207405
C	 1.3757538171	-2.6589743894	-2.2698468211	-0.191922
C	 2.8870560298	-2.3320961941	-2.3687425385	-0.053568
O	 3.5000813524	-2.93859053	-3.4834670154	-0.421628
C	 1.2072114916	-4.1117687775	-2.2525322597	 0.289427
C	 1.1249337706	-5.3121226695	-2.2321338425	-0.44641
H	 0.8076610386	 1.819514408	 0.2145121881	 0.104137
H	-0.637491943	 1.8053103165	-0.8300657399	 0.104137
H	-0.8116104278	 1.6120933837	 0.9353912582	 0.128526
H	 0.2489544004	-0.1371227367	-2.0454992873	 0.086533
H	 1.6895838246	-0.0637283585	-1.0139622226	 0.090469
H	 1.1987475979	-2.341714586	-0.1265042729	 0.117041
H	-0.336301575	-2.3620331419	-0.979056755	 0.123574
H	 0.9022986524	-2.2739730661	-3.1838301419	 0.113317
H	 3.0221009221	-1.2546069966	-2.4978021265	 0.111084
H	 3.3729618591	-2.6222126433	-1.4229733716	 0.09382
H	 3.3268444064	-3.8860053697	-3.4199222749	 0.285502
H	 1.0193289534	-6.3688815366	-2.2151679217	 0.200243
55.099	66.822	96.1473	113.3227	133.6709	169.1599	226.8323	236.3818	267.0457	314.9052	411.6489	414.4174	466.413	540.3556	605.506	628.104	655.0504	780.2105	830.0743	952.3461	979.2963	1031.9851	1069.1627	1082.9277	1090.5571	1138.1984	1164.1947	1182.3166	1210.7663	1225.5466	1239.6796	1292.2591	1303.4353	1326.2057	1368.0156	1380.4945	1427.4705	1436.5343	1481.5805	1484.9013	1492.2822	1504.645	1506.0017	1532.6351	2226.7604	2941.1604	2968.6666	2973.4459	2976.8077	3011.8466	3014.9869	3051.4935	3090.5054	3096.5498	3115.0914	3501.7882	3775.2158
COCCC(CO)C#C	COCC[C@@H](CO)C#C	
InChI=1S/C7H12O2/c1-3-7(6-8)4-5-9-2/h1,7-8H,4-6H2,2H3	InChI=1S/C7H12O2/c1-3-7(6-8)4-5-9-2/h1,7-8H,4-6H2,2H3/t7-/m0/s1
