19
gdb 63251	2.69724	1.32576	1.10783	4.4473	78.72	-0.2338	-0.0569	0.1769	1174.2768	0.158917	-419.255924	-419.246971	-419.246027	-419.289435	34.392	
C	-0.2018607046	 1.5960762149	 0.0483078493	-0.42078
C	 0.036089306	 0.0828452173	 0.0250644865	 0.261173
C	-1.3011334115	-0.673265437	-0.0810184255	-0.409307
N	 0.9239258511	-0.2672076674	-1.0967595204	-0.322866
C	 1.8373370537	-1.2532506076	-0.8347434081	 0.272745
N	 2.5381462501	-1.8890914305	-1.6874171449	-0.543589
C	 1.8449044323	-1.4186829588	 0.6767730286	 0.346827
O	 2.5245986909	-2.2124347546	 1.2722318886	-0.305997
C	 0.8554196468	-0.4114128025	 1.2453894157	-0.369098
H	 0.7478475002	 2.1358901754	 0.0966589531	 0.125708
H	-0.732498708	 1.9199503147	-0.8538944193	 0.116554
H	-0.8109566931	 1.8799407333	 0.9121971684	 0.123106
H	-1.8198407757	-0.4118175483	-1.0094279383	 0.117464
H	-1.1395973719	-1.7558669228	-0.0780704478	 0.127074
H	-1.9608594791	-0.4211608296	 0.75554072	 0.122318
H	 0.6286200666	-0.1069252559	-2.0484962468	 0.24856
H	 3.1475163145	-2.5326910129	-1.1776934715	 0.231374
H	 1.4317567408	 0.4087486459	 1.6895917298	 0.141461
H	 0.2436859211	-0.8501312439	 2.0361145027	 0.137275
63.9069	100.5515	238.3861	263.9505	303.9195	315.7646	328.1668	360.2537	378.8412	448.2569	510.9996	545.4975	593.6543	637.0076	671.4441	757.3967	829.6073	854.9909	909.6789	943.1431	954.9607	971.0657	1025.468	1089.1387	1117.6688	1159.3619	1202.3378	1241.498	1257.4048	1282.8836	1398.1434	1401.6695	1417.9459	1422.696	1449.9082	1479.4147	1486.9984	1503.8452	1504.502	1740.9158	1853.4413	3029.4193	3035.3832	3049.5903	3099.1198	3105.4881	3108.7643	3117.9166	3120.0766	3458.0791	3615.8909
CC1(C)NC(=N)C(=O)C1	CC1(C)N[C]([NH])C(=O)C1	
InChI=1S/C6H10N2O/c1-6(2)3-4(9)5(7)8-6/h3H2,1-2H3,(H2,7,8)	InChI=1S/C6H10N2O/c1-6(2)3-4(9)5(7)8-6/h3H2,1-2H3,(H2,7,8)
