17
gdb 38004	3.06699	2.24843	1.97764	1.5474	76.35	-0.2154	-0.0209	0.1945	784.1422	0.138894	-384.59083	-384.585215	-384.584271	-384.620362	24.896	
C	-0.1655964283	 1.3553025619	 0.0780622143	-0.285581
C	 1.4067585776	 1.3591822565	 0.0207260647	-0.056847
C	 2.3241541376	 0.3174448167	 0.8534380708	 0.10176
O	 1.7448802177	-0.6609269345	 1.7338443814	-0.300427
C	 1.4418159473	-1.5508617327	 0.5830821338	 0.050916
C	 0.0165786935	-1.1666637718	 0.2670862843	-0.150056
C	 0.033427771	-0.0537266094	-0.4835908063	 0.107379
C	 1.387659137	 0.2617978159	-1.0963706211	-0.07696
C	 2.3431003257	-0.6700181523	-0.3373889992	-0.099853
H	-0.6672322523	 1.4250193711	 1.0450086575	 0.115881
H	-0.5587983441	 2.1124028253	-0.6094777271	 0.106512
H	 1.8933213555	 2.3299410581	-0.1076075851	 0.072228
H	 3.2088983293	 0.7821692091	 1.2940060568	 0.086692
H	 1.6965720273	-2.5832173341	 0.828588918	 0.079157
H	-0.7435186768	-1.3726219102	 1.0147216825	 0.101933
H	 1.4673082123	 0.4874833041	-2.1591160216	 0.072501
H	 3.2531492599	-1.0821035038	-0.7660559036	 0.074764
245.1027	373.6015	437.7726	523.9416	595.7469	647.5664	688.8643	718.6759	765.5002	815.856	842.2072	858.6701	865.4314	890.5444	914.3176	933.1181	948.6579	959.8951	976.9085	994.6198	1032.6071	1054.2029	1087.6004	1101.7916	1157.5358	1190.8719	1202.5423	1212.0908	1226.5604	1248.2425	1266.6366	1279.1107	1303.4803	1323.0593	1330.9823	1482.0931	1632.0616	3038.5106	3065.1376	3083.7659	3095.8578	3113.8721	3118.0705	3147.3561	3176.1682
C1C2C3OC4C=C1C2C34	C1[C@H]2[C@H]3O[C@H]4[CH][C]1[C@@H]2[C@@H]34	
InChI=1S/C8H8O/c1-3-2-5-7-6(3)4(1)8(7)9-5/h2,4-8H,1H2	InChI=1S/C8H8O/c1-3-2-5-7-6(3)4(1)8(7)9-5/h2,4-8H,1H2/t4-,5+,6+,7+,8-/m1/s1
