18
gdb 126960	3.33548	1.03771	0.80206	1.1973	76.04	-0.1899	0.0198	0.2097	1415.4599	0.149464	-431.447725	-431.438276	-431.437331	-431.482572	33.592	
C	-0.0954512565	 1.4955497433	 0.054250623	-0.40121
C	 0.0553585302	-0.0208548807	 0.0149206129	-0.100873
N	 0.6256683549	-0.4468636166	-1.2606675148	-0.4109
C	 0.8080364345	-1.8062869859	-1.4648745885	 0.353098
N	 0.3055579151	-2.7638488546	-0.6896836161	-0.295862
N	 0.6910049469	-3.8861923733	-1.3069175806	-0.109548
N	 1.4138110908	-3.7323303804	-2.4174338586	-0.270973
C	 1.5006279015	-2.413745276	-2.5435680095	 0.235666
N	 2.2239219794	-1.7582974372	-3.5458835101	-0.608476
H	 0.8770762033	 1.994327357	-0.0348258161	 0.11304
H	-0.7316917641	 1.8461700997	-0.7637013317	 0.126362
H	-0.5415816993	 1.8112616768	 1.001468738	 0.121616
H	 0.660002356	-0.3694611138	 0.8673833519	 0.099865
H	-0.9208859584	-0.5053174455	 0.1159544558	 0.127454
H	 1.4537472155	 0.0784473162	-1.5171085032	 0.234829
H	 0.4919931276	-4.7932034819	-0.9251102996	 0.283964
H	 2.6087753694	-2.4224375816	-4.2071738864	 0.252925
H	 1.6537993833	-1.0835706455	-4.0451440666	 0.249021
66.4657	76.2632	121.5306	172.1118	228.3159	252.6129	284.0032	294.3241	344.721	393.0615	526.3405	623.7308	675.4048	700.1822	750.9981	807.2696	827.4909	866.3533	930.7843	974.4148	1078.6088	1116.3158	1143.3484	1155.2695	1186.7905	1237.1376	1273.0928	1293.5552	1376.7486	1411.2385	1426.54	1464.4589	1486.9132	1497.3325	1502.1035	1523.5839	1593.7847	1608.5357	1649.4447	2978.0254	3032.2923	3071.735	3101.9231	3120.5093	3509.7526	3540.5038	3606.7564	3704.2843
CCNC1=NNN=C1N	CCNc1n[nH]nc1N	
InChI=1S/C4H9N5/c1-2-6-4-3(5)7-9-8-4/h2H2,1H3,(H4,5,6,7,8,9)	InChI=1S/C4H9N5/c1-2-6-4-3(5)7-9-8-4/h2H2,1H3,(H4,5,6,7,8,9)
