20
gdb 104105	2.86838	1.15892	1.0894	2.7852	76.13	-0.2531	0.0326	0.2857	1217.6377	0.170959	-440.307761	-440.298555	-440.297611	-440.341527	34.667	
C	-0.2546187386	 1.6426824466	 0.0466168837	-0.457997
C	 0.0608259116	 0.1456628001	 0.0171871719	 0.264293
C	-1.2347698516	-0.6770179601	-0.0573628607	-0.108549
O	-1.9210852682	-0.3290331113	-1.250666794	-0.425816
C	 0.9875470773	-0.2408727077	-1.1552660061	-0.108663
O	 1.7074055785	-1.4092865243	-0.7263165817	-0.241553
C	 1.7106189714	-1.4912437117	 0.6383301119	 0.406138
N	 2.2944181131	-2.3918736582	 1.3033454371	-0.546189
C	 0.9037326893	-0.3453103923	 1.2098753901	-0.350821
H	 0.6634552221	 2.2377945077	 0.0837544917	 0.112489
H	-0.8247676086	 1.9358308536	-0.8384324909	 0.140354
H	-0.8545873795	 1.8948173862	 0.9276677856	 0.117392
H	-0.9925853101	-1.7504964511	-0.0389829672	 0.103426
H	-1.8470019393	-0.4585258065	 0.831977065	 0.09088
H	-2.6899614248	-0.8992631473	-1.3372277413	 0.293023
H	 0.4364296511	-0.4918296549	-2.0627320746	 0.132989
H	 1.7050473974	 0.5585895346	-1.3789531745	 0.101891
H	 2.7822385105	-3.0355970459	 0.6773328872	 0.219452
H	 1.5874023609	 0.4409177837	 1.5503606894	 0.126807
H	 0.3218716975	-0.6681892112	 2.0756671074	 0.130452
81.9883	128.7704	169.6605	213.7246	237.6349	253.2813	286.5862	346.4841	376.0524	427.3935	508.5908	526.3955	618.0264	688.8776	799.0574	857.1877	895.6244	907.8737	928.7939	955.8296	984.2361	1005.5156	1032.5659	1082.2546	1105.189	1136.3925	1174.1277	1198.1322	1216.2278	1262.5658	1277.2978	1285.8723	1317.5756	1341.2092	1399.1368	1410.4824	1458.6563	1473.3588	1490.3111	1504.3127	1518.5319	1524.0024	1777.2992	2972.0756	3010.2882	3025.5413	3035.5354	3048.6548	3099.1192	3113.1739	3122.8588	3125.347	3466.8749	3839.9449
CC1(CO)COC(=N)C1	C[C@@]1(CO)CO[C]([NH])C1	
InChI=1S/C6H11NO2/c1-6(3-8)2-5(7)9-4-6/h7-8H,2-4H2,1H3	InChI=1S/C6H11NO2/c1-6(3-8)2-5(7)9-4-6/h7-8H,2-4H2,1H3/t6-/m1/s1
