18
gdb 43398	2.54223	1.78453	1.18681	5.1519	80.22	-0.2147	-0.026	0.1887	1045.5445	0.150113	-401.975965	-401.968283	-401.967339	-402.007967	30.354	
O	 0.0644909387	-0.0590072301	-0.0455875669	-0.374955
C	 0.0183197453	 1.161273355	 0.0073470758	 0.318364
C	-1.2191246698	 1.9267750119	-0.0077263077	-0.232054
C	-1.204131776	 3.2815279738	-0.091139333	 0.018468
N	-0.0682775697	 4.0329244995	-0.0430914165	-0.293456
C	 1.1283822534	 3.4086793477	 0.5150568302	-0.269757
C	 1.2816536503	 1.997586211	-0.0135326022	 0.240429
C	 2.5876865182	 1.2790368269	 0.1972690825	-0.302385
C	 2.2130394028	 1.7205072603	-1.1857628185	-0.285525
H	-2.1520416692	 1.3828025901	-0.0765303888	 0.099819
H	-2.1225040218	 3.8451182256	-0.2309304653	 0.120353
H	-0.1823290205	 5.019681652	 0.1237547148	 0.250139
H	 2.0012184855	 4.0173957085	 0.2602888415	 0.110486
H	 1.0511504693	 3.3768891222	 1.6154560988	 0.10949
H	 3.3793698399	 1.8110502843	 0.7148026955	 0.105172
H	 2.5015687093	 0.2227720755	 0.4242346427	 0.142417
H	 1.8979656906	 0.9592498638	-1.8900180979	 0.134072
H	 2.7299709838	 2.569022122	-1.6222999751	 0.108924
92.3574	176.5111	248.2986	277.4881	327.6054	393.296	417.9317	479.7279	539.0216	559.8261	662.015	738.2519	788.2933	824.8205	842.8049	848.1145	934.1621	957.4015	978.7686	993.6356	997.6099	1051.6482	1066.959	1093.3642	1096.8541	1192.9514	1200.0799	1238.7703	1266.7087	1322.7474	1326.5775	1387.8974	1430.1302	1450.9691	1483.9609	1495.9223	1531.0415	1662.6626	1742.1928	2955.8756	3072.9581	3130.9591	3133.4129	3171.7681	3219.939	3220.9556	3233.6077	3633.1331
O=C1C=CNCC11CC1	O=C1C=CNCC21CC2	
InChI=1S/C7H9NO/c9-6-1-4-8-5-7(6)2-3-7/h1,4,8H,2-3,5H2	InChI=1S/C7H9NO/c9-6-1-4-8-5-7(6)2-3-7/h1,4,8H,2-3,5H2
