18
gdb 74522	4.09861	1.11142	1.01461	2.3795	73.56	-0.2478	0.0184	0.2662	1213.1564	0.147877	-439.08736	-439.079024	-439.07808	-439.121133	30.204	
C	 0.0895392506	 1.4989634995	-0.0116105623	-0.477053
C	-0.0163289041	 0.0135706026	-0.0409341392	 0.395048
N	-1.0545857051	-0.6779640949	 0.214081716	-0.334081
C	-0.6859038132	-2.0815672547	 0.0590602758	 0.233811
C	-1.1197989171	-3.0201999416	 1.2122425258	-0.109766
O	-1.9543796793	-3.8003970577	 0.3364391983	-0.271002
C	-1.6614188813	-2.9422517153	-0.7816059052	-0.109766
C	 0.8064416611	-2.0429037679	-0.344813935	-0.182405
O	 1.1300053277	-0.6389755742	-0.3778507455	-0.25142
H	 0.8549977378	 1.8091560644	 0.7064793352	 0.148039
H	 0.3936707382	 1.8755935982	-0.993164597	 0.148036
H	-0.8712804881	 1.930363462	 0.2660567354	 0.154975
H	-0.3190419072	-3.6211549367	 1.6641635428	 0.093811
H	-1.6921427263	-2.5147856748	 1.9982705096	 0.113072
H	-2.5423584281	-2.3924247897	-1.1316013416	 0.113072
H	-1.2107594877	-3.4928217627	-1.6184869095	 0.093811
H	 1.4634361915	-2.5326528438	 0.3808837333	 0.120909
H	 0.9969587105	-2.4655533324	-1.3363796669	 0.12091
65.3058	72.2208	136.7437	177.0887	285.5179	294.92	421.9542	431.6196	442.4875	634.0227	667.1421	820.7578	854.5422	894.2989	900.9765	942.1199	975.3061	988.568	1022.4704	1044.2317	1049.7028	1066.991	1145.6646	1154.6297	1160.8516	1193.589	1219.9231	1229.1066	1301.2572	1305.7043	1378.7336	1385.2077	1415.1466	1474.883	1475.6708	1499.3181	1516.2369	1527.475	1727.9313	3000.1487	3011.0506	3044.6402	3052.2033	3066.0571	3067.8667	3089.9781	3109.8495	3168.2643
CC1=NC2(COC2)CO1	CC1=NC2(COC2)CO1	
InChI=1S/C6H9NO2/c1-5-7-6(4-9-5)2-8-3-6/h2-4H2,1H3	InChI=1S/C6H9NO2/c1-5-7-6(4-9-5)2-8-3-6/h2-4H2,1H3
