17
gdb 68819	2.6626	1.40528	1.15023	3.2655	70.41	-0.2372	-0.0301	0.2072	1106.3208	0.132456	-458.922441	-458.913489	-458.912545	-458.956016	32.918	
C	-0.0353783742	 1.5131423889	 0.059368243	-0.494006
C	-0.0003949478	 0.0227141109	 0.0821135169	 0.421114
C	 1.1127389114	-0.8754713673	-0.4019819889	-0.409374
C	 0.5830443332	-1.01433349	 1.0117172771	 0.231275
O	 1.3287156898	-0.8713568879	 2.157457527	-0.450006
C	-0.8252296366	-1.6592084331	 0.9494069412	-0.016491
O	-1.2531619137	-0.6795965808	-0.0119349438	-0.313089
C	-0.858569635	-3.0924401084	 0.4919063872	 0.135041
O	-1.0013518007	-3.4581542924	-0.646207234	-0.246044
H	 0.9582089357	 1.9193827685	 0.2669997712	 0.13186
H	-0.3535755175	 1.8753061507	-0.9243019085	 0.138802
H	-0.7346559666	 1.8956989165	 0.8086942824	 0.134674
H	 0.9166941112	-1.6311572872	-1.157165316	 0.142027
H	 2.0866931418	-0.3965826875	-0.4468859549	 0.119594
H	 2.0694317702	-1.4869366518	 2.1252110233	 0.295675
H	-1.3574005444	-1.5458459354	 1.9036261111	 0.105312
H	-0.6772144567	-3.8174816938	 1.3215309659	 0.073636
87.7529	129.4678	170.4801	188.213	204.1164	282.5769	309.2959	353.9464	385.387	459.7269	540.9373	578.7004	719.3743	742.7471	762.8996	838.8025	886.5021	919.6808	951.5374	973.8231	1035.4749	1062.3639	1103.2895	1107.3366	1147.2903	1187.4391	1203.9351	1295.9856	1327.8881	1355.8872	1406.7956	1417.1274	1428.7615	1472.8124	1493.6274	1519.7217	1829.1569	2844.5685	3026.2237	3038.1884	3103.8266	3117.3795	3123.6464	3214.0043	3792.866
CC12CC1(O)C(O2)C=O	C[C@@]12C[C@]1(O)[C@@H](O2)C=O	
InChI=1S/C6H8O3/c1-5-3-6(5,8)4(2-7)9-5/h2,4,8H,3H2,1H3	InChI=1S/C6H8O3/c1-5-3-6(5,8)4(2-7)9-5/h2,4,8H,3H2,1H3/t4-,5+,6-/m0/s1
