22
gdb 9682	4.77199	1.04479	0.98644	1.2563	79.13	-0.2497	0.0708	0.3205	1316.4319	0.198215	-350.201679	-350.19183	-350.190886	-350.236008	36.464	
C	-0.3719654424	 1.4590418093	 0.2385389788	-0.372107
C	 0.2321746637	 0.0892501898	-0.0906306521	-0.193946
C	 0.9220082246	-0.546609541	 1.0988355204	-0.03266
C	 0.1133467254	-1.2948921275	 2.1484297624	-0.356102
C	 1.0627700354	-2.0364851101	 1.2334814265	 0.392565
O	 0.4953666338	-2.7838235078	 0.1835598122	-0.469567
C	 2.3447405258	-2.6283465521	 1.7901079124	-0.218831
C	 2.1532233695	-4.0200983294	 2.404246809	-0.393923
H	 0.397028172	 2.1618875385	 0.5784696004	 0.109456
H	-0.8588734531	 1.8978819482	-0.6381863492	 0.108196
H	-1.1196236255	 1.3791074484	 1.0348910364	 0.114152
H	-0.5433304826	-0.5896825603	-0.4569822801	 0.108035
H	 0.9536817981	 0.1949390371	-0.9112257735	 0.095348
H	 1.763052658	 0.0267694034	 1.4848485639	 0.077547
H	 0.3677042057	-1.1811309456	 3.1973626214	 0.104282
H	-0.9474231041	-1.4142356928	 1.9495744779	 0.10626
H	 0.0530338368	-3.5465314641	 0.5698816207	 0.28269
H	 3.08286647	-2.6830461173	 0.9800830725	 0.102899
H	 2.7514911716	-1.9442701936	 2.5439933798	 0.09299
H	 1.4303399188	-3.9957277467	 3.2272824905	 0.115017
H	 1.7919830756	-4.7335977936	 1.6557723524	 0.112206
H	 3.0959549529	-4.4113945728	 2.7976457973	 0.115495
75.8013	89.1412	148.9875	162.5198	232.1173	242.6536	275.8538	304.6113	318.7155	370.23	412.8409	465.0612	616.1999	691.9586	777.9632	785.2844	813.1696	900.1151	903.0766	951.1673	968.034	993.0296	1036.6912	1048.2423	1064.2293	1096.4448	1114.3538	1141.0719	1194.0268	1245.2466	1248.8328	1293.4079	1310.7815	1338.7103	1352.0018	1380.4196	1407.1221	1408.3362	1427.1116	1475.9772	1485.715	1494.3818	1498.1515	1501.8522	1508.5733	1511.6157	3025.2852	3025.991	3029.0894	3032.0655	3063.3161	3077.9651	3099.4966	3099.9014	3102.0101	3106.5397	3120.5743	3123.1272	3208.4964	3810.5837
CCC1CC1(O)CC	CC[C@H]1C[C@]1(O)CC	
InChI=1S/C7H14O/c1-3-6-5-7(6,8)4-2/h6,8H,3-5H2,1-2H3	InChI=1S/C7H14O/c1-3-6-5-7(6,8)4-2/h6,8H,3-5H2,1-2H3/t6-,7+/m0/s1
