12
gdb 129320	3.17759	1.50812	1.02272	2.6337	76.94	-0.2606	-0.1133	0.1473	1048.1166	0.075766	-431.58598	-431.578371	-431.577427	-431.61837	27.914	
N	-0.034505084	 1.2619520067	 0.3805796735	-0.522958
C	-0.0310381449	 0.0549993764	-0.0003936717	 0.387513
O	 1.1009579549	-0.5630857863	-0.4720576954	-0.289235
N	 1.1184432132	-1.9613751359	-0.9166940177	 0.05436
N	 0.0719346471	-2.5992067819	-0.8614755445	-0.101438
C	-1.1285941841	-2.0661436272	-0.3997899929	-0.07438
C	-1.2368030859	-0.7880712734	 0.0292029226	-0.001823
C	-2.4559679753	-0.2496025906	 0.4970984366	 0.299164
C	-3.5110559233	 0.1764323339	 0.8895770906	-0.354696
H	 0.8940346468	 1.6759845198	 0.2837400394	 0.235617
H	-1.9620200802	-2.7546791241	-0.412686221	 0.152279
H	-4.4324030543	 0.5729987327	 1.2406179005	 0.215597
81.9401	146.7341	152.2195	284.3572	325.7459	447.3058	470.8033	514.8585	562.5328	617.2867	634.032	656.2624	663.9789	775.3996	785.2376	879.1007	920.3138	927.2503	1023.9942	1093.7507	1192.7775	1293.9035	1399.9652	1580.4745	1650.394	1728.4363	2229.4962	3236.766	3484.5214	3497.8088
N=C1ON=NC=C1C#C	[NH]C1=C(C=N[N]O1)C#C	
InChI=1S/C5H3N3O/c1-2-4-3-7-8-9-5(4)6/h1,3,6H	InChI=1S/C5H3N3O/c1-2-4-3-7-8-9-5(4)6/h1,3,6H
