12
gdb 23953	2.01487	1.92936	0.98559	7.0966	78.08	-0.2441	-0.0535	0.1907	1085.1142	0.079022	-394.552985	-394.545588	-394.544643	-394.585104	27.229	
C	 0.1221592978	-1.2064137485	-0.0055553088	-0.419372
C	 0.0366690489	-0.0054126606	 0.0023894029	 0.270526
C	-0.0602303092	 1.3951668621	 0.0116741343	 0.12871
C	-1.1499866642	 2.2589886243	 0.031815717	 0.094585
N	-0.7354571449	 3.5699425578	 0.0333990505	-0.296888
C	 0.5740038209	 3.5169510941	 0.0148316263	 0.014238
N	 1.0332981723	 2.2344172607	 0.0012051975	-0.321167
C	-2.518914685	 1.8855305237	 0.0488241717	 0.226772
N	-3.630219411	 1.5625224148	 0.0625056704	-0.3452
H	 0.1800972683	-2.2672833762	-0.0123004367	 0.208812
H	 1.2386532482	 4.36755073	 0.0103567654	 0.154138
H	 1.993510268	 1.9297554278	-0.0138903305	 0.284846
105.0356	157.7989	188.4531	205.5058	439.6119	469.2149	524.4899	530.8399	565.2652	586.6399	636.3289	662.8035	671.8159	697.7378	770.3362	837.5814	956.1061	1096.0121	1141.7558	1260.98	1290.4586	1375.2103	1434.1577	1507.7227	1572.4596	2235.2401	2353.2052	3260.8096	3497.4197	3655.5363
C#CC1=C(N=CN1)C#N	C#Cc1c(nc[nH]1)C#N	
InChI=1S/C6H3N3/c1-2-5-6(3-7)9-4-8-5/h1,4H,(H,8,9)	InChI=1S/C6H3N3/c1-2-5-6(3-7)9-4-8-5/h1,4H,(H,8,9)
