17
gdb 24192	4.04486	1.5735	1.3685	0.9814	78.32	-0.1917	0.024	0.2158	954.101	0.139658	-384.664279	-384.658051	-384.657107	-384.695058	25.912	
C	-0.0338203419	 1.5829274857	-0.054313059	-0.203286
C	 1.529164884	 1.3545553184	-0.0237900123	-0.179433
C	 1.1930880619	 0.1751135268	 0.9721843018	-0.203286
C	-0.063624894	 0.0088065244	 0.034307329	-0.171627
C	 0.6318577495	-0.3460002437	-1.2836203547	 0.274678
C	 1.6568479238	 0.5395469208	-1.2941386082	 0.349871
O	 2.4360339682	 0.4257724092	-2.3816236533	-0.215976
C	 1.8696733461	-0.5997110269	-3.1110396552	-0.024868
C	 0.762056311	-1.1068140517	-2.4829827128	-0.408419
H	-0.4060898605	 2.0704907922	 0.8526511456	 0.095171
H	-0.4561405092	 2.0463225328	-0.948533862	 0.101489
H	 2.2385822151	 2.1445967579	 0.2118171302	 0.079117
H	 1.8993087425	-0.6564352962	 1.0221648609	 0.101488
H	 0.9354558272	 0.5311463197	 1.9750565225	 0.095176
H	-0.951839597	-0.5340175902	 0.3514564434	 0.070036
H	 2.3708261254	-0.8361614982	-4.0341763972	 0.130206
H	 0.1485500178	-1.912844711	-2.8553449488	 0.109664
70.9203	299.3509	397.981	477.031	504.763	600.3399	659.364	668.8712	686.6245	741.3675	793.9234	820.4153	826.533	855.1856	885.6752	923.7526	996.5839	998.3165	999.4685	1034.7815	1069.2111	1084.5391	1098.3476	1124.0699	1159.9138	1209.7742	1217.6991	1226.2157	1247.0462	1256.645	1288.2642	1378.5783	1468.8673	1476.9774	1483.2256	1513.3124	1603.763	3040.4533	3051.5084	3117.9045	3122.5207	3137.1425	3146.131	3248.9927	3290.3373
C1C2CC1C1=C2OC=C1	C1[C@H]2C[C@@H]1c1c2occ1	
InChI=1S/C8H8O/c1-2-9-8-6-3-5(4-6)7(1)8/h1-2,5-6H,3-4H2	InChI=1S/C8H8O/c1-2-9-8-6-3-5(4-6)7(1)8/h1-2,5-6H,3-4H2/t5-,6+
