23
gdb 109672	2.00289	1.2409	1.05098	1.2558	82.79	-0.2317	0.0775	0.3092	1346.0549	0.202271	-425.40336	-425.392211	-425.391267	-425.439419	40.435	
C	-0.1445014601	 1.5834281883	 0.0380942366	-0.400234
C	 0.0981683278	 0.0692108627	 0.090377425	-0.225533
C	 0.7318552023	-0.4656582703	-1.1792343398	 0.336199
O	 2.0005772787	 0.0725677743	-1.4748405233	-0.475252
C	 0.6094690255	-1.9153947545	-1.5903447255	-0.097172
C	-0.1358804204	-2.9418716131	-0.7655349615	-0.420778
C	-0.1209621954	-0.821876893	-2.3679767671	 0.032348
O	-1.5007135487	-0.6737404132	-2.2361121514	-0.241279
C	-2.2307872042	-1.4459091367	-3.1708774112	-0.232697
H	 0.7917504973	 2.1376204784	-0.0924151272	 0.106195
H	-0.8171581555	 1.8399413828	-0.7865293894	 0.12997
H	-0.5996572937	 1.9381489945	 0.967494301	 0.113868
H	 0.7552848001	-0.1743604658	 0.9342835942	 0.09905
H	-0.8544816294	-0.436907725	 0.2614688166	 0.11103
H	 1.8785700946	 0.9945357833	-1.7270882312	 0.279257
H	 1.5039644983	-2.2836703058	-2.0852523186	 0.094041
H	-1.1253569693	-2.5823074809	-0.4738326154	 0.129697
H	-0.2748783699	-3.8662387464	-1.3362663528	 0.114118
H	 0.4144255	-3.1974837657	 0.1464276879	 0.119807
H	 0.2699452085	-0.5645699387	-3.3541202624	 0.080881
H	-1.9890110346	-1.1563784898	-4.2046267922	 0.107596
H	-2.0322898004	-2.5203249112	-3.0569027925	 0.112801
H	-3.2910798513	-1.2547713841	-2.9888230295	 0.126086
57.4952	108.1816	129.6556	155.0984	178.4014	201.777	231.0627	240.9778	268.1574	287.8955	316.704	355.9135	430.7271	472.3964	550.0497	612.128	712.6494	779.4811	809.7554	884.462	945.2693	985.8505	1022.7235	1028.5708	1049.5928	1085.9246	1094.8567	1127.282	1160.8534	1164.4974	1181.8954	1216.3227	1247.4012	1291.7886	1313.1243	1316.9826	1352.2149	1378.6222	1400.4487	1414.8691	1454.8788	1469.5456	1484.9012	1486.7775	1499.5598	1501.3833	1506.7485	1509.3834	1510.1457	2986.847	3031.9502	3033.3391	3036.0128	3042.2277	3083.1982	3089.1489	3090.0488	3109.251	3113.8379	3117.1737	3120.3882	3150.0926	3797.7004
CCC1(O)C(C)C1OC	CC[C@@]1(O)[C@@H](C)[C@H]1OC	
InChI=1S/C7H14O2/c1-4-7(8)5(2)6(7)9-3/h5-6,8H,4H2,1-3H3	InChI=1S/C7H14O2/c1-4-7(8)5(2)6(7)9-3/h5-6,8H,4H2,1-3H3/t5-,6+,7+/m0/s1
