19
gdb 111468	2.73125	1.44408	1.0564	2.8164	74.81	-0.2442	-0.0214	0.2228	1166.7571	0.158775	-423.045012	-423.036549	-423.035605	-423.078577	31.84	
C	-0.164681971	 1.4709435017	 0.2061487117	-0.393028
C	-0.1092995585	-0.044380338	-0.0087178367	-0.17234
C	 0.6491087509	-0.4717842199	-1.2789809553	-0.131595
C	 0.9143515975	-1.959017941	-1.3800149277	 0.026659
O	-0.2786532352	-2.7286037927	-1.5954082057	-0.260935
C	 0.5724020811	-2.4647543495	-2.7194471985	 0.035303
C	 0.0618593197	-1.3350135838	-3.5787513879	-0.345719
C	-0.0922090956	-0.1573040542	-2.5989234076	 0.386925
O	-0.6995672969	 0.8533917079	-2.8382670923	-0.30425
H	 0.843296684	 1.8910484054	 0.3029288294	 0.106068
H	-0.6571621028	 1.9665037729	-0.6321722739	 0.152118
H	-0.7121612482	 1.7093192765	 1.1232782644	 0.109757
H	 0.3791578165	-0.5199620151	 0.8511858256	 0.095969
H	-1.1213557638	-0.4608026889	-0.0542802568	 0.118062
H	 1.6125590882	 0.0612759317	-1.3181520413	 0.099853
H	 1.6645345598	-2.4301147843	-0.7496089954	 0.099576
H	 1.054549811	-3.3345114733	-3.156897928	 0.102568
H	 0.7831124772	-1.0613893199	-4.3596448318	 0.130785
H	-0.8912947739	-1.5482974954	-4.0699699922	 0.144223
53.7452	106.3975	167.2134	205.2533	261.417	325.2993	359.5081	456.3725	470.549	570.5542	664.1931	685.4516	733.8201	800.0104	835.9298	868.6721	889.2591	922.0417	987.1821	997.8903	1039.7823	1049.5095	1086.4905	1106.6657	1126.8859	1159.6742	1190.6606	1250.0842	1261.0999	1280.7938	1288.4402	1322.9781	1357.0576	1370.6705	1411.0653	1432.5018	1443.3742	1490.0061	1497.1398	1515.1269	1843.9197	2990.9296	3026.1289	3034.5961	3040.3286	3072.5116	3098.4756	3103.426	3142.2614	3143.1578	3157.8583
CCC1C2OC2CC1=O	CC[C@H]1[C@H]2O[C@H]2CC1=O	
InChI=1S/C7H10O2/c1-2-4-5(8)3-6-7(4)9-6/h4,6-7H,2-3H2,1H3	InChI=1S/C7H10O2/c1-2-4-5(8)3-6-7(4)9-6/h4,6-7H,2-3H2,1H3/t4-,6+,7-/m1/s1
