19
gdb 70811	2.53284	1.92632	1.41697	1.4725	79.82	-0.2156	0.011	0.2266	978.9197	0.159169	-385.845616	-385.837858	-385.836913	-385.877098	31.865	
C	-0.0061965402	 1.4760712798	-0.0333622593	-0.515681
C	 0.0275163027	-0.0249427578	-0.0319434794	 0.344606
C	 0.5833866328	-0.9644603566	-1.1291353616	-0.360662
C	 0.0457447637	-1.9024843247	-0.0242124763	 0.400582
O	-0.0187496916	-3.2787008702	-0.0311939439	-0.470796
C	 0.6450113872	-0.9460303185	 1.0958983102	-0.172602
C	-0.3351623246	-0.9442523464	 2.2472018424	-0.10866
C	-1.5337928491	-0.9763217787	 1.6548924245	-0.110507
C	-1.2121597938	-0.9933180465	 0.174760497	-0.133058
H	 1.0047500607	 1.893224456	-0.0971490141	 0.117831
H	-0.5791228009	 1.8573479107	-0.8855637398	 0.118893
H	-0.4719650569	 1.8483951741	 0.8853972375	 0.126086
H	 0.0495567103	-0.9754773832	-2.0844386398	 0.090129
H	 1.6679504259	-0.9484471403	-1.2820194853	 0.080987
H	 0.8445526283	-3.6256010123	-0.2806192182	 0.283847
H	 1.7219947389	-0.921304839	 1.2738110176	 0.052602
H	-0.0895311901	-0.9354969728	 3.2997954637	 0.097758
H	-2.5199976743	-0.9935090687	 2.0964840325	 0.098796
H	-2.0072546088	-1.0101916247	-0.5723902279	 0.059848
206.4676	219.7895	223.2167	234.5449	283.1999	340.1337	429.0536	500.0887	561.9928	594.1378	617.3141	704.9165	750.1396	762.8549	814.063	827.3446	904.6226	907.2599	944.7945	961.3604	985.4868	1001.341	1032.0872	1048.1795	1091.8129	1116.9957	1127.43	1128.7737	1170.9938	1175.5811	1251.4745	1260.2923	1284.9138	1322.9271	1342.1084	1385.077	1409.1992	1487.6848	1489.6453	1514.7203	1627.2151	3026.7961	3033.4906	3092.8048	3094.3153	3097.6006	3098.3406	3108.0096	3219.4796	3246.1432	3808.9836
CC12CC3(O)C1C=CC23	C[C@@]12C[C@@]3(O)[C@@H]1C=C[C@@H]23	
InChI=1S/C8H10O/c1-7-4-8(9)5(7)2-3-6(7)8/h2-3,5-6,9H,4H2,1H3	InChI=1S/C8H10O/c1-7-4-8(9)5(7)2-3-6(7)8/h2-3,5-6,9H,4H2,1H3/t5-,6+,7-,8-
