23
gdb 58946	2.50838	1.28811	1.05541	1.8296	85.22	-0.2275	0.0716	0.2991	1283.1421	0.20422	-388.256537	-388.24665	-388.245706	-388.29122	37.289	
C	 0.0987685371	 1.4902888587	 0.139974147	-0.385832
C	-0.0835958299	-0.0298829387	-0.0111961552	-0.086214
C	-1.5711960774	-0.4148240877	 0.0103035406	-0.393183
C	 0.6335850365	-0.5373202836	-1.2409969875	 0.291784
C	 0.1656022156	-0.3864983916	-2.692340763	-0.148478
O	 0.6758154131	-1.7013801004	-3.0412161281	-0.286883
C	 1.0597342644	-1.9245840937	-1.6805227157	 0.012604
C	 2.1063229408	-0.9375787449	-1.2483273516	-0.09001
C	 3.1672703284	-0.3944178113	-2.1797905616	-0.425064
H	 1.1585743653	 1.7605030287	 0.1768486888	 0.116667
H	-0.3538953615	 2.0250120129	-0.7033533099	 0.114107
H	-0.3778244871	 1.8548588119	 1.0558505082	 0.110015
H	 0.3942577946	-0.5101685698	 0.8539885322	 0.072596
H	-2.1254778423	 0.0798112488	-0.7947908229	 0.114737
H	-1.7047177039	-1.4949957362	-0.1050225943	 0.116318
H	-2.033639035	-0.1143153104	 0.9560838417	 0.111418
H	-0.9239004525	-0.3647922935	-2.8041303198	 0.107629
H	 0.6111196436	 0.4111596128	-3.2986115408	 0.101666
H	 0.9014135354	-2.9171401174	-1.2716192959	 0.097268
H	 2.4483723205	-1.1298723888	-0.2317928467	 0.082698
H	 2.8328526297	-0.4425532614	-3.2187185082	 0.136965
H	 3.4213883277	 0.6443508978	-1.9428248761	 0.112471
H	 4.0841675369	-0.9884252821	-2.1032680411	 0.116719
47.018	127.65	166.2553	197.3882	226.585	244.1718	260.1208	280.232	309.5682	344.3986	453.1095	503.6219	584.058	641.8583	764.5928	786.5261	857.0481	919.3456	926.8525	935.5324	961.1301	978.1651	996.5091	1012.1739	1048.9224	1068.1035	1093.9331	1106.9943	1137.0436	1144.5525	1166.4645	1188.3785	1228.8968	1272.1347	1299.4361	1339.1367	1352.768	1372.3639	1396.9994	1412.7022	1418.6153	1464.2674	1485.5983	1491.2599	1493.7004	1503.3114	1504.9433	1510.7858	1520.5838	3005.0221	3023.9901	3026.6192	3032.8366	3035.3968	3071.1914	3091.6933	3091.7947	3099.6309	3104.308	3106.2146	3113.4748	3128.7237	3165.4599
CC(C)C12COC1C2C	CC(C)[C@]12CO[C@H]1[C@H]2C	
InChI=1S/C8H14O/c1-5(2)8-4-9-7(8)6(8)3/h5-7H,4H2,1-3H3	InChI=1S/C8H14O/c1-5(2)8-4-9-7(8)6(8)3/h5-7H,4H2,1-3H3/t6-,7+,8+/m1/s1
