16
gdb 14109	3.7448	1.85696	1.42619	2.2262	66.18	-0.2397	-0.022	0.2177	887.3543	0.128877	-383.718349	-383.710665	-383.709721	-383.750652	28.119	
C	 0.0639415395	 1.0966809364	-0.8104263348	-0.481235
C	-0.0640492132	 0.0593996286	 0.2826784969	 0.292284
O	 0.7871156997	-0.1337091488	 1.1259910148	-0.321525
C	-1.3099342223	-0.7475116829	 0.2758673982	 0.351939
C	-1.8826431752	-1.4462194427	 1.4790095211	-0.321352
C	-1.4898404133	-2.2680941881	 0.2869011375	-0.153855
C	-2.4632780871	-2.0109661825	-0.8586785246	-0.096758
O	-2.3047518665	-0.5693514778	-0.737434967	-0.324859
H	 1.0079013285	 1.6307036482	-0.6991600045	 0.137539
H	 0.0096817308	 0.6178115072	-1.7935966432	 0.146182
H	-0.777237114	 1.7972560755	-0.7662844249	 0.150691
H	-1.201497856	-1.5061766625	 2.3202542342	 0.148335
H	-2.9297230338	-1.2764100777	 1.713539664	 0.121812
H	-0.7215392386	-3.0280982792	 0.317932596	 0.120987
H	-2.0995843779	-2.3552889288	-1.8325448825	 0.116472
H	-3.5036107307	-2.324909405	-0.7164427012	 0.113341
68.5468	123.0368	174.2515	188.766	337.3019	376.0805	437.3289	508.5358	581.919	634.3163	762.7709	818.7327	851.8959	926.0791	941.6339	974.7596	990.1236	996.071	1024.9644	1051.4447	1073.9775	1122.2403	1152.6154	1161.3953	1201.3529	1300.7857	1343.0254	1372.6588	1397.5353	1454.45	1464.3158	1466.6454	1516.2761	1787.229	3031.1493	3042.8382	3082.4576	3103.197	3123.5354	3158.4222	3214.1628	3231.5385
CC(=O)C12CC1CO2	CC(=O)[C@]12C[C@H]1CO2	
InChI=1S/C6H8O2/c1-4(7)6-2-5(6)3-8-6/h5H,2-3H2,1H3	InChI=1S/C6H8O2/c1-4(7)6-2-5(6)3-8-6/h5H,2-3H2,1H3/t5-,6+/m0/s1
