17
gdb 131503	3.73821	1.32488	1.12901	1.6186	73.84	-0.2298	0.0192	0.249	1076.5455	0.13991	-418.029837	-418.02267	-418.021726	-418.061459	28.403	
O	 0.0926964262	 1.3981805928	-0.0018779367	-0.431135
C	 0.0307880004	-0.0184224019	 0.0224385041	 0.139111
C	 0.6307584381	-0.5791608372	 1.359391005	-0.37252
C	-0.6178498445	-0.729150641	 2.1692057652	 0.354123
C	-1.7737086448	-0.6964360133	 1.4226711049	 0.202881
C	-1.4507599997	-0.521720531	-0.0359770057	-0.377889
C	-2.8111354743	-0.8895271574	 2.3578007839	-0.1708
N	-2.3266840286	-1.0261607898	 3.5941327126	-0.224845
N	-0.9801079907	-0.9323246983	 3.4538531505	-0.334039
H	-0.4679777192	 1.7228426404	 0.7130090881	 0.282654
H	 0.6118228756	-0.3421307614	-0.8444293356	 0.087864
H	 1.1328919262	-1.5426342059	 1.2013136216	 0.117604
H	 1.3721227507	 0.1210896624	 1.7553279876	 0.120022
H	-2.0626549049	 0.2113705842	-0.5700171512	 0.11571
H	-1.5241314994	-1.4678967765	-0.5879113293	 0.110685
H	-3.8800126825	-0.931456891	 2.2065868652	 0.109976
H	-0.4052128086	-0.997436135	 4.2764131597	 0.270599
88.4891	218.6089	241.9716	372.3448	381.2152	386.338	483.8845	503.4908	633.7674	664.4547	686.7728	719.2369	789.727	856.81	876.8915	889.3042	933.9767	980.1295	1024.0062	1063.9939	1098.6873	1110.4102	1161.9527	1174.7266	1222.2438	1230.8985	1276.3367	1310.3438	1316.4328	1335.4779	1400.0713	1432.6591	1440.1122	1476.1321	1490.4611	1542.5929	1598.9228	3021.1955	3021.9659	3081.5462	3084.7327	3089.0544	3241.6664	3674.6833	3784.7605
OC1CC2=C(C1)C=NN2	O[C@H]1Cc2c(C1)cn[nH]2	
InChI=1S/C6H8N2O/c9-5-1-4-3-7-8-6(4)2-5/h3,5,9H,1-2H2,(H,7,8)	InChI=1S/C6H8N2O/c9-5-1-4-3-7-8-6(4)2-5/h3,5,9H,1-2H2,(H,7,8)/t5-/m1/s1
