20
gdb 58823	3.04001	1.25863	1.21608	3.2071	78.03	-0.2186	0.0593	0.2779	1155.3219	0.169072	-403.051544	-403.042818	-403.041874	-403.084873	33.851	
C	-0.0028323895	 1.6094652972	-0.1614461942	-0.396237
C	 0.0125331674	 0.0845937438	 0.0260398942	-0.099518
C	 0.5680008099	-0.63675752	-1.2127629562	-0.393582
C	 0.7861628964	-0.3112753483	 1.249969822	 0.478859
O	 0.568181867	-1.6026422435	 1.8224741296	-0.272613
C	 0.450580498	-0.4552731173	 2.6689573429	-0.08436
C	 1.8892062614	 0.0211717269	 3.0793690594	-0.091604
N	 2.8682739779	-0.9102949402	 2.4695854486	-0.312635
C	 2.2465230751	 0.1588200181	 1.6513403055	-0.155718
H	 1.0053900306	 1.9997071596	-0.3390625268	 0.116133
H	-0.6159139108	 1.8825203055	-1.0258008287	 0.11717
H	-0.4110460005	 2.1172781613	 0.7179964878	 0.115661
H	-1.0168394583	-0.2576196258	 0.1912498652	 0.087228
H	 1.6036450877	-0.3374701798	-1.4100425038	 0.115419
H	 0.5523815178	-1.7208194669	-1.0712929818	 0.136934
H	-0.0246060803	-0.3953200155	-2.1008091693	 0.110388
H	-0.4739343843	-0.3169396943	 3.2173822863	 0.104757
H	 2.1349555209	 0.6499803511	 3.9245069803	 0.097227
H	 3.7925189765	-0.5655262642	 2.7334628263	 0.229865
H	 2.8356830771	 0.9175157825	 1.1538678224	 0.096624
63.2367	134.2632	174.5755	220.588	247.9487	304.9824	340.336	415.1902	469.8069	503.7492	577.1629	660.9779	756.0805	801.4802	810.4299	822.6013	874.9113	888.3749	914.1473	927.762	940.7608	970.8624	982.0794	1014.0341	1025.9453	1098.8046	1105.265	1131.1687	1181.2959	1194.5429	1216.2303	1286.4792	1288.7859	1320.4521	1341.1099	1353.4118	1396.9424	1416.7951	1468.7761	1488.1213	1490.771	1502.907	1515.7465	3028.6328	3031.1887	3035.5224	3096.658	3102.5187	3107.5354	3118.0245	3183.6842	3199.6417	3212.3013	3458.6424
CC(C)C12OC1C1NC21	CC(C)[C@]12O[C@H]1[C@H]1N[C@@H]21	
InChI=1S/C7H11NO/c1-3(2)7-5-4(8-5)6(7)9-7/h3-6,8H,1-2H3	InChI=1S/C7H11NO/c1-3(2)7-5-4(8-5)6(7)9-7/h3-6,8H,1-2H3/t4-,5+,6-,7+/m0/s1
