17
gdb 27344	1.99826	1.84238	0.97011	4.1974	81.31	-0.2274	-0.021	0.2064	1199.0198	0.136024	-418.062127	-418.053575	-418.052631	-418.095392	31.483	
C	 0.0830829239	 1.4737293554	-0.0249765792	-0.475935
C	-0.0538168657	-0.0096293156	 0.0160613421	 0.361665
C	-1.1602775586	-0.7358064034	-0.1790141061	-0.221418
C	-1.1120938961	-2.1901541324	-0.1001847637	 0.325074
N	-2.1566951301	-2.9043028259	-0.2829681695	-0.529453
N	 0.155241904	-2.7547981004	 0.1895399711	-0.349689
C	 1.1581780159	-1.9911013771	 0.3612811458	 0.394665
C	 2.5302922598	-2.4988782784	 0.6699595776	-0.47044
O	 1.1466649107	-0.624206126	 0.2939618194	-0.259561
H	 0.8077063328	 1.7738148882	-0.7899910222	 0.146187
H	-0.878700896	 1.9386389027	-0.2464608097	 0.143703
H	 0.44931743	 1.8542048296	 0.9349923183	 0.146205
H	-2.1049395848	-0.2559938996	-0.3975771226	 0.11952
H	-1.8996947342	-3.8889188365	-0.182983641	 0.21514
H	 2.5121589534	-3.5864336715	 0.7174366863	 0.156874
H	 3.2369262095	-2.1721887183	-0.099696854	 0.14873
H	 2.8790498155	-2.0911151008	 1.6241908473	 0.148734
114.6801	124.9609	157.7182	178.4209	215.5881	269.7803	325.9856	491.5292	517.4299	548.1547	554.3542	591.1067	618.4665	751.2457	884.6781	893.4265	913.2577	925.7236	956.6704	1043.4307	1063.8681	1068.5942	1070.8427	1130.4765	1190.5819	1237.3237	1320.8276	1399.8654	1408.58	1419.7331	1469.1681	1471.3147	1475.3893	1483.7769	1670.2627	1710.7858	1750.5531	3037.9017	3049.6698	3092.1882	3107.276	3144.9017	3173.2615	3227.3503	3456.4176
CC1=CC(=N)N=C(C)O1	C[C@@H]1C=C([NH])N=C(C)O1	
InChI=1S/C6H8N2O/c1-4-3-6(7)8-5(2)9-4/h3,7H,1-2H3	InChI=1S/C6H9N2O/c1-4-3-6(7)8-5(2)9-4/h3-4,7H,1-2H3/t4-/m1/s1
