23
gdb 100471	4.42965	0.58652	0.54442	0.1364	98.28	-0.2255	0.0555	0.281	2141.6612	0.204234	-351.127272	-351.116467	-351.115523	-351.164957	38.842	
C	 0.0973301453	 1.5454975562	 0.0065531363	-0.393525
C	 0.0041611264	 0.0175579085	-0.0281281346	-0.154425
C	-1.4444576498	-0.531832596	-0.0066287942	-0.143865
C	-2.2557338798	-0.1230562986	-1.2534548397	-0.380755
C	-1.4327044352	-1.9869806614	 0.1520465789	 0.049483
C	-1.4063682325	-3.1879230903	 0.2640981563	 0.093147
C	-1.3743970654	-4.6162627614	 0.4012645464	-0.155115
C	-1.9640512161	-5.2850141546	 1.6333262058	-0.251763
C	-2.6574122723	-5.4274796323	 0.3104140215	-0.251445
H	 1.1420911447	 1.8664202929	 0.0635170491	 0.113355
H	-0.3375672134	 2.0067813714	-0.8852439977	 0.119292
H	-0.4223793877	 1.9545421828	 0.8806809845	 0.113474
H	 0.5115775353	-0.3709308249	-0.9197284935	 0.102034
H	 0.5373935729	-0.3990833802	 0.8331325799	 0.10523
H	-1.9439631627	-0.0995214023	 0.8736248717	 0.096004
H	-3.2651665123	-0.5402163234	-1.2098988006	 0.120815
H	-2.3402151371	 0.9645498849	-1.3299405104	 0.112629
H	-1.7757651919	-0.4979598541	-2.1631551472	 0.120812
H	-0.4902020067	-5.0950900437	-0.0104310933	 0.105943
H	-1.4340766184	-6.1405064688	 2.036876908	 0.115475
H	-2.4125276072	-4.6369773193	 2.3767088545	 0.123997
H	-3.5768352776	-4.8759352187	 0.154902142	 0.123767
H	-2.6079675987	-6.3817081765	-0.2020568337	 0.115434
17.7105	71.5162	75.6408	116.7095	168.7047	204.1956	217.0296	272.8915	297.7378	369.4181	459.3968	489.3758	496.8484	554.2809	694.5688	773.7478	794.2644	820.6909	827.7399	896.9346	897.5005	961.653	977.0074	1019.6988	1048.9215	1061.709	1078.477	1105.5237	1119.0718	1131.3029	1169.257	1195.9467	1200.9065	1232.3877	1283.6	1313.5307	1344.7125	1373.1224	1393.6343	1405.1831	1413.4679	1466.9129	1483.3537	1492.2119	1497.8571	1498.5995	1504.799	1511.0155	2356.3303	2987.0044	3031.7108	3034.4294	3041.1067	3069.6266	3098.8128	3107.6836	3113.9818	3120.126	3138.8794	3139.3909	3145.1989	3223.9667	3239.148
CCC(C)C#CC1CC1	CC[C@@H](C)C#CC1CC1	
InChI=1S/C9H14/c1-3-8(2)4-5-9-6-7-9/h8-9H,3,6-7H2,1-2H3	InChI=1S/C9H14/c1-3-8(2)4-5-9-6-7-9/h8-9H,3,6-7H2,1-2H3/t8-/m1/s1
