23
gdb 74412	2.6126	1.36523	1.07737	0.2433	92.5	-0.2125	0.0295	0.242	1262.1374	0.204643	-351.175813	-351.166227	-351.165282	-351.209278	37.446	
C	 0.0481633276	 1.5013166022	 0.0479000249	-0.486294
C	-0.0247106296	 0.0082456103	-0.0098911865	 0.310514
C	-0.065983248	-0.7641815554	-1.1002262991	-0.239549
C	-0.0636736383	-2.2260800394	-0.7824547088	 0.296189
C	-0.8404722087	-3.1746322106	-1.6654403241	-0.485221
C	 1.2015456508	-2.681065348	-0.0695509424	-0.363281
C	-0.0100889667	-2.2874203939	 0.7453139112	 0.299876
C	-0.7252409509	-3.3331746435	 1.5680970772	-0.481908
C	-0.0449002938	-0.8404803791	 1.248483016	-0.377062
H	 0.971918468	 1.8397838717	 0.5351581331	 0.122235
H	 0.0135730586	 1.9445082471	-0.9512944011	 0.120921
H	-0.780830174	 1.9183987272	 0.6348081726	 0.120393
H	-0.067444621	-0.3953221763	-2.1217860457	 0.079845
H	-0.4296071445	-3.1865189049	-2.682145186	 0.115727
H	-0.80313886	-4.2011927256	-1.2893311787	 0.113642
H	-1.8942386635	-2.8821286891	-1.7389143491	 0.115384
H	 1.4360818071	-3.7420731835	-0.1007823017	 0.098198
H	 2.0688955443	-2.0281071007	-0.093145688	 0.100964
H	-0.7021350568	-4.3161385233	 1.0883334031	 0.113026
H	-0.2581401595	-3.4421761091	 2.5545355884	 0.115646
H	-1.7761181986	-3.0650608756	 1.7300605382	 0.112775
H	 0.7992820758	-0.6100806667	 1.9133797245	 0.101796
H	-0.9541477184	-0.6464888639	 1.8377071418	 0.096185
138.1631	170.757	177.4755	187.6225	210.9076	231.0006	254.4591	353.0428	380.7103	410.3412	449.9947	498.1433	546.0946	569.1027	695.7144	752.4986	845.6898	861.9586	892.5973	918.8788	942.966	963.4506	980.7639	1001.8413	1021.6161	1051.1393	1060.0247	1097.017	1107.6726	1160.0395	1173.1691	1210.4784	1243.5284	1260.9208	1332.4455	1359.1882	1386.8472	1412.1247	1413.5617	1422.9212	1471.4947	1478.1792	1482.8508	1486.2192	1491.2586	1494.501	1495.293	1507.5265	1712.8021	2991.0955	3012.185	3019.1953	3023.7655	3024.2112	3055.3288	3074.2262	3078.6714	3097.987	3103.9781	3106.1681	3108.1289	3171.8417	3193.971
CC1=CC2(C)CC2(C)C1	CC1=C[C@@]2(C)C[C@@]2(C)C1	
InChI=1S/C9H14/c1-7-4-8(2)6-9(8,3)5-7/h4H,5-6H2,1-3H3	InChI=1S/C9H14/c1-7-4-8(2)6-9(8,3)5-7/h4H,5-6H2,1-3H3/t8-,9+/m0/s1
