18
gdb 17106	4.93291	1.42808	1.34315	1.5242	73.39	-0.2109	0.0265	0.2374	975.4394	0.155054	-347.763645	-347.756437	-347.755493	-347.795266	27.93	
O	-0.0344200872	 1.4001381908	 0.0465935645	-0.413171
C	-0.0408599639	-0.0162370478	 0.0163229911	-0.220245
C	-1.4440414107	-0.5040858648	 0.0095544048	 0.362063
C	-2.6091943807	 0.1494303454	 0.0264253791	-0.188364
C	-3.6491652642	-0.9823715031	 0.0049979745	-0.062296
C	-3.0162845892	-1.966048985	 1.0489532658	-0.203282
C	-1.8702466485	-1.9837237401	-0.0208491676	-0.125952
C	-3.021725406	-1.9206819878	-1.0830699471	-0.203282
H	 0.8808842721	 1.6938075299	 0.0508652487	 0.288636
H	 0.4870879066	-0.4016845372	-0.8753805486	 0.093751
H	 0.4917142173	-0.4394127779	 0.8879361677	 0.093749
H	-2.7982094127	 1.2116649861	 0.0495233049	 0.108439
H	-4.7072808794	-0.7224179936	 0.0132300561	 0.057593
H	-2.7770906143	-1.5652992493	 2.0368689284	 0.090959
H	-3.547063167	-2.9204334456	 1.1306846504	 0.088486
H	-1.0957136052	-2.7518644397	-0.0391701292	 0.053469
H	-3.5530190029	-2.8707827822	-1.2026149865	 0.088486
H	-2.7875319539	-1.4782482381	-2.054253937	 0.09096
73.2958	176.2043	186.9216	243.6424	382.754	491.9646	542.8829	564.2486	657.3107	784.1645	809.6654	832.7229	838.6372	867.4129	889.6913	931.4488	998.1863	1009.775	1043.0812	1056.8138	1067.0877	1083.0866	1106.4028	1109.6025	1177.4774	1195.6196	1225.6747	1234.3942	1238.2652	1242.5247	1255.3371	1275.2243	1316.9292	1465.3782	1476.8389	1505.1064	1514.8309	1697.7732	2928.489	2936.5543	3038.4658	3048.1444	3104.1877	3111.3286	3116.2337	3119.6071	3252.1951	3837.1163
OCC1=CC2CC1C2	OCC1=C[C@@H]2C[C@H]1C2	
InChI=1S/C7H10O/c8-4-7-3-5-1-6(7)2-5/h3,5-6,8H,1-2,4H2	InChI=1S/C7H10O/c8-4-7-3-5-1-6(7)2-5/h3,5-6,8H,1-2,4H2/t5-,6+
