18
gdb 120433	3.70225	0.92984	0.79346	4.7993	75.87	-0.2411	-0.0281	0.213	1440.5104	0.147758	-439.119908	-439.111047	-439.110103	-439.15432	31.908	
C	-0.1280091208	 1.3641375941	-0.0089886809	-0.231097
O	-0.027629576	-0.0423013639	-0.0252059684	-0.239589
C	 0.7141863017	-0.5322552804	-1.1194036443	-0.060458
C	 0.675180915	-2.0603439676	-1.0465387088	-0.044785
N	-0.6657537459	-2.5827311579	-1.1740991708	-0.318286
C	-0.8368669343	-3.3956652944	-2.2753533185	 0.397743
O	-1.8715041568	-3.9052068042	-2.6491605256	-0.38441
C	 0.527926261	-3.4924352882	-2.8858638305	-0.192324
C	 1.3821696942	-2.7350473107	-2.1972685803	-0.084636
H	 0.8615736226	 1.8409049149	 0.0651399263	 0.108867
H	-0.6283634926	 1.7464581978	-0.911829872	 0.112128
H	-0.719157831	 1.6381293044	 0.8676966621	 0.133525
H	 0.2785227058	-0.1961942665	-2.074057252	 0.100383
H	 1.7581827418	-0.1781187169	-1.0768762895	 0.089931
H	 1.1249233069	-2.3559925333	-0.0861265319	 0.108317
H	-1.4377996587	-2.2240458809	-0.6380329059	 0.26037
H	 0.7225248537	-4.1001916737	-3.757969628	 0.12534
H	 2.4384545434	-2.5911721024	-2.386021061	 0.118979
55.8478	103.4667	119.0472	145.4428	231.159	290.8858	347.4174	398.3626	446.3437	491.8728	554.8963	677.9194	700.985	788.1217	830.4811	906.8245	929.5942	975.5535	989.777	1014.7173	1077.3753	1107.1938	1140.4881	1160.9172	1185.3693	1214.0481	1226.59	1257.275	1282.3728	1333.3863	1379.0548	1400.402	1418.1173	1479.1831	1486.1153	1499.8766	1521.9729	1654.1535	1823.5303	2957.3854	2978.81	2986.7882	3007.3377	3025.2513	3120.5165	3213.3651	3249.3062	3673.1549
COCC1NC(=O)C=C1	COC[C@H]1NC(=O)C=C1	
InChI=1S/C6H9NO2/c1-9-4-5-2-3-6(8)7-5/h2-3,5H,4H2,1H3,(H,7,8)	InChI=1S/C6H9NO2/c1-9-4-5-2-3-6(8)7-5/h2-3,5H,4H2,1H3,(H,7,8)/t5-/m0/s1
