19
gdb 128477	2.93935	1.27547	0.95074	2.4253	79.01	-0.2194	0.0372	0.2567	1271.1182	0.15841	-419.229122	-419.219183	-419.218239	-419.264586	34.764	
C	 0.3143323118	 0.851842866	 0.550433924	-0.251942
O	-0.3769720933	 0.3417919015	-0.5929396415	-0.270283
C	 0.3507502859	-0.4893687985	-1.3757185805	 0.356849
C	 0.6504242584	-1.8325010732	-1.2670507579	 0.03441
C	 0.2504433874	-2.768356895	-0.1702020124	-0.519829
C	 1.3966318959	-2.1071727206	-2.4464807291	 0.286915
C	 1.9845872806	-3.4159313561	-2.8684379168	-0.492117
N	 1.5365245527	-1.0267465176	-3.2131156087	-0.297514
N	 0.9011765541	-0.0452499309	-2.5353690283	-0.268651
H	 0.6363851844	 0.0410362362	 1.213283006	 0.129173
H	 1.1910501905	 1.4387754386	 0.2506771445	 0.122103
H	-0.392811246	 1.4950630959	 1.0774308445	 0.135866
H	-0.1858260818	-3.6906685298	-0.5700771225	 0.127985
H	 1.0996345022	-3.0645922451	 0.4583412199	 0.123269
H	-0.4990376324	-2.3055911702	 0.4786224622	 0.12688
H	 1.2179979541	-4.196179644	-2.9426245837	 0.124094
H	 2.4626957492	-3.308651615	-3.8444647424	 0.139272
H	 2.735911559	-3.7717956026	-2.1536087864	 0.123129
H	 0.8125982074	 0.8730902004	-2.9357595608	 0.270391
38.7885	121.776	126.5483	136.3335	156.5291	220.1462	233.2827	285.0869	302.0161	409.8583	489.4732	507.8479	580.7529	696.7319	702.5145	734.9991	775.1632	953.8776	1000.3369	1035.1683	1052.6685	1077.0155	1133.4753	1172.38	1175.9094	1209.2221	1247.2454	1287.6674	1403.0213	1416.9757	1422.2558	1464.6447	1477.4811	1481.3151	1487.2836	1490.7069	1498.4099	1504.0827	1511.7559	1530.0457	1645.6022	3016.6511	3019.9632	3027.3177	3068.8176	3074.8917	3084.178	3104.8503	3129.9104	3135.9399	3675.0876
COC1=C(C)C(C)=NN1	COc1c(C)c(C)n[nH]1	
InChI=1S/C6H10N2O/c1-4-5(2)7-8-6(4)9-3/h1-3H3,(H,7,8)	InChI=1S/C6H10N2O/c1-4-5(2)7-8-6(4)9-3/h1-3H3,(H,7,8)
