21
gdb 84398	2.94098	1.41732	1.12678	1.6315	84.18	-0.2424	0.0232	0.2656	1171.9757	0.183145	-387.096403	-387.087837	-387.086893	-387.129392	33.472	
C	 0.6462523003	 1.5122963621	-0.0060836118	-0.389795
C	-0.0064332542	 0.116944345	 0.0012094708	-0.074123
C	 0.2747734246	-0.6314610876	-1.2762745398	-0.060573
C	 0.6952180648	-1.8914825227	-1.352847208	-0.060575
C	 0.9645258202	-2.7930301753	-0.1756300211	-0.074122
C	 2.3216760111	-3.5091314767	-0.3112254164	-0.389799
C	 0.8821283436	-2.0542610713	 1.14493191	 0.043945
O	 1.811346452	-0.979777149	 1.3326697056	-0.265265
C	 0.4177853747	-0.6626656101	 1.2295027387	 0.043935
H	 1.7351235286	 1.416911017	-0.0330402969	 0.137952
H	 0.3266329001	 2.0883371	-0.8800845235	 0.111363
H	 0.3734965671	 2.0785132205	 0.8904989432	 0.111685
H	-1.0961891398	 0.2594257693	 0.0804088839	 0.084195
H	 0.1106808001	-0.0697549865	-2.1939195965	 0.084185
H	 0.866710495	-2.3354732958	-2.3316092012	 0.084185
H	 0.1805047204	-3.5669183221	-0.1521152271	 0.084197
H	 3.1350739366	-2.7788491425	-0.2880055799	 0.137951
H	 2.4748389065	-4.219501983	 0.5077810555	 0.111685
H	 2.378831487	-4.0623497732	-1.253849808	 0.111364
H	 0.7697300234	-2.6916643435	 2.0239551609	 0.083804
H	-0.0216860822	-0.3198656947	 2.1680920417	 0.083806
63.9495	186.7619	225.3303	238.9754	242.821	271.6156	332.937	390.7212	438.9082	549.4959	600.6059	635.878	731.8122	743.0289	788.6813	853.7811	872.7139	914.6563	956.3188	975.0654	1003.2695	1009.004	1042.3868	1055.6081	1094.7372	1102.1156	1150.7077	1156.6358	1163.3939	1212.6662	1285.6149	1308.1574	1315.7957	1354.0365	1368.4961	1372.1462	1398.1005	1402.4555	1435.2025	1473.8193	1493.7542	1495.0219	1503.824	1504.7277	1731.5312	2976.4321	2976.7389	3035.9786	3036.4384	3083.2735	3096.4107	3103.465	3103.9133	3121.7099	3121.9735	3131.9903	3155.5664
CC1C=CC(C)C2OC12	C[C@H]1C=C[C@@H](C)[C@H]2O[C@@H]12	
InChI=1S/C8H12O/c1-5-3-4-6(2)8-7(5)9-8/h3-8H,1-2H3	InChI=1S/C8H12O/c1-5-3-4-6(2)8-7(5)9-8/h3-8H,1-2H3/t5-,6+,7-,8+
