14
gdb 73783	2.50234	1.68664	1.01018	2.5222	70.37	-0.2025	-0.0642	0.1383	1077.5341	0.10235	-470.091758	-470.083334	-470.08239	-470.124627	31.189	
N	 0.0628338141	 1.418192276	 0.110704864	-0.612668
C	-0.0396100383	 0.0421567417	 0.0249947004	 0.120423
C	-1.1120688274	-0.7805614381	-0.0222708716	 0.120281
N	-2.4686038809	-0.5227184448	-0.09159558	-0.612687
C	-0.6243814765	-2.1875893189	-0.0399929726	 0.412968
O	-1.301442982	-3.1895434759	-0.05654933	-0.364964
N	 0.7694565188	-2.121829742	-0.0161585108	-0.429162
C	 1.1936072074	-0.7927864606	 0.0202456245	 0.412983
O	 2.3366481376	-0.3978861294	 0.0306469965	-0.364963
H	 1.0160373168	 1.7310313415	-0.0311473473	 0.266196
H	-0.5939660966	 1.935383896	-0.458510424	 0.256108
H	-2.7928230817	 0.2376922049	 0.4911231411	 0.256089
H	-3.0158045376	-1.3645219848	 0.0445918072	 0.266179
H	 1.3821044263	-2.9200026056	-0.0242714974	 0.273218
92.7768	141.7245	223.982	245.984	276.2542	280.7198	375.5899	383.9422	427.6099	503.0032	555.0688	648.64	670.9462	687.1087	705.0841	752.08	758.3807	791.9931	910.8269	1062.4406	1066.0573	1279.4144	1281.8624	1327.8943	1381.6063	1405.9515	1632.2769	1636.0424	1761.7985	1812.1106	1855.1649	3528.0947	3530.427	3628.9814	3631.4742	3673.298
NC1=C(N)C(=O)NC1=O	NC1=C(N)C(=O)NC1=O	
InChI=1S/C4H5N3O2/c5-1-2(6)4(9)7-3(1)8/h(H5,5,6,7,8,9)	InChI=1S/C4H5N3O2/c5-1-2(6)4(9)7-3(1)8/h(H5,5,6,7,8,9)
