15
gdb 123940	3.57874	1.66363	1.1762	6.1639	66.92	-0.2089	0.0046	0.2135	975.7614	0.11706	-450.108872	-450.102299	-450.101355	-450.139799	25.934	
C	-0.0268650505	 1.4298041588	 0.0719275262	-0.193128
C	 1.4266216504	 1.9423846709	 0.0258943729	-0.087783
O	 2.2039337184	 1.4635653354	 1.1283612702	-0.263172
C	 1.9822324514	 0.1416131065	 1.3213232693	 0.359538
C	 0.9370063039	-0.5685904132	 0.7768987497	 0.284044
N	 1.1190140392	-1.8152853515	 1.2784505268	-0.285755
N	 2.2234867478	-1.8678623835	 2.0613835065	-0.127293
N	 2.7399179361	-0.6642513896	 2.0936365263	-0.283165
N	-0.1204837836	-0.0422980963	 0.0304444395	-0.412658
H	-0.4959804106	 1.7760963819	 0.9992229661	 0.138662
H	-0.5905784572	 1.8461332991	-0.766360269	 0.119519
H	 1.9003366898	 1.6283923899	-0.9154441843	 0.106886
H	 1.4532751106	 3.0325899946	 0.0868677548	 0.125906
H	 0.57311781	-2.6490170736	 1.1340386229	 0.277728
H	-0.1520885256	-0.3933366393	-0.9211041079	 0.24067
125.1629	238.9404	332.7487	374.3768	424.9939	472.0825	505.6179	538.1715	660.6324	709.503	729.6636	731.4903	779.0437	875.0668	944.95	1007.7956	1043.079	1051.3312	1081.028	1119.1722	1229.4462	1230.7022	1285.5898	1289.3645	1360.7326	1369.9667	1386.4565	1396.4828	1451.9466	1479.3629	1489.0721	1553.1469	1662.0729	3005.5072	3053.2329	3111.0034	3113.6643	3508.6483	3662.1189
C1COC2=C(NN=N2)N1	C1COc2c([nH]nn2)N1	
InChI=1S/C4H6N4O/c1-2-9-4-3(5-1)6-8-7-4/h1-2H2,(H2,5,6,7,8)	InChI=1S/C4H6N4O/c1-2-9-4-3(5-1)6-8-7-4/h1-2H2,(H2,5,6,7,8)
