21
gdb 89729	2.42045	1.42294	1.21135	1.3824	78.31	-0.2542	0.0664	0.3206	1144.5598	0.179629	-424.197117	-424.187359	-424.186415	-424.231157	37.062	
C	-0.100704524	 1.5071809056	-0.0225061143	-0.423041
C	-0.0187276303	-0.0223826351	-0.0130279578	 0.189163
C	-1.3832754679	-0.6631358372	-0.2407537045	-0.445851
C	 1.1492791786	-0.564725051	-0.9053658557	 0.097878
O	 1.5683677284	 0.3303287371	-1.9083785485	-0.432716
C	 2.0435739847	-0.7376925666	 0.36003611	-0.366293
C	 0.7793997125	-0.5521916001	 1.2001330418	 0.422042
C	 0.5939558655	-0.3427944068	 2.6341182707	-0.268445
O	 0.2796746233	-1.602302268	 2.0193242549	-0.274049
H	 0.8693839999	 1.9711853535	 0.1749538523	 0.116658
H	-0.4432121423	 1.8679127999	-0.9964326679	 0.126234
H	-0.8061820888	 1.8519746552	 0.7409144815	 0.106325
H	-1.7786303729	-0.3816969132	-1.2229516288	 0.115623
H	-1.3249436709	-1.7536699213	-0.1886375695	 0.122826
H	-2.1035531853	-0.3359673553	 0.5169130055	 0.114417
H	 0.8811366822	-1.5408821798	-1.3330711138	 0.070067
H	 2.2871658945	-0.0794618791	-2.3994296554	 0.285757
H	 2.5666693768	-1.6881798359	 0.4868191631	 0.109472
H	 2.7501561794	 0.090785502	 0.4655366542	 0.109532
H	 1.4561431995	-0.3514307648	 3.3005054168	 0.111865
H	-0.2636648828	 0.2230556409	 2.9969890654	 0.112533
63.5923	180.6619	187.3626	215.8741	234.0412	235.8693	260.4197	280.9582	337.0432	366.6978	424.0704	478.4516	520.1138	583.6499	666.0907	758.0049	822.3915	864.878	909.5574	949.8967	960.1667	982.401	1009.1419	1014.9175	1107.3703	1120.685	1131.4339	1161.0433	1168.0953	1180.2589	1197.3928	1233.4107	1264.7784	1276.8146	1330.6344	1399.5851	1411.1979	1415.9229	1438.4594	1472.9378	1478.5838	1483.5631	1501.9778	1502.1837	1536.3495	2998.5586	3030.2482	3037.7125	3057.036	3075.1391	3094.8625	3106.5675	3112.7357	3116.4975	3119.7313	3159.3037	3820.8181
CC1(C)C(O)CC11CO1	CC1(C)[C@@H](O)C[C@]21CO2	
InChI=1S/C7H12O2/c1-6(2)5(8)3-7(6)4-9-7/h5,8H,3-4H2,1-2H3	InChI=1S/C7H12O2/c1-6(2)5(8)3-7(6)4-9-7/h5,8H,3-4H2,1-2H3/t5-,7+/m0/s1
