18
gdb 90565	2.77166	1.316	1.13622	3.3905	73.66	-0.2465	0.0252	0.2717	1143.3437	0.146591	-439.03132	-439.022755	-439.021811	-439.065076	31.546	
C	-0.0104668525	 1.6622284079	-0.0389695997	-0.421482
C	 0.3437340799	 0.1934150811	-0.1251652546	 0.15339
O	 1.6912332693	-0.081780333	-0.635112433	-0.298641
C	 1.9229854892	-1.0031714576	 0.4197782322	 0.028339
C	 1.9304489871	-0.3192056851	 1.7496359907	 0.089258
O	 2.3363073111	 1.0101737592	 1.9361972117	-0.195981
C	 3.5507911794	 1.3521986425	 1.441173329	 0.146585
N	 3.9867850374	 2.5200938114	 1.6273416863	-0.450711
C	 0.6080791581	-0.6580892839	 1.1222567016	-0.209112
H	 0.0265041584	 2.1112253744	-1.0368147569	 0.126696
H	-1.0337105696	 1.7684680699	 0.3379779739	 0.118586
H	 0.6663639432	 2.2030821157	 0.621724686	 0.164979
H	-0.3663571867	-0.3332341575	-0.7754790971	 0.090171
H	 2.4190218236	-1.9385315814	 0.1839121677	 0.109981
H	 2.1856815096	-0.9677799165	 2.5864062258	 0.112121
H	 4.0452156017	 0.5356374056	 0.9033850818	 0.099919
H	 4.8991731002	 2.6219344363	 1.1876230009	 0.229775
H	-0.1247345096	-1.2801549589	 1.6184598939	 0.106127
55.221	128.9907	134.0226	203.0708	211.1962	284.0655	307.9641	426.1232	528.1469	579.8067	722.8441	738.8988	761.6808	811.8494	823.4695	861.0595	922.1748	972.2359	986.2916	1035.1641	1043.2305	1056.7336	1070.3855	1075.9744	1100.4471	1140.7929	1159.8431	1221.2477	1266.6256	1282.6919	1301.9862	1346.7089	1389.2998	1407.0393	1413.4907	1437.0971	1484.4261	1500.3989	1745.5501	3020.9109	3043.6589	3061.155	3103.5622	3122.43	3163.9398	3170.6179	3203.6026	3517.9008
CC1OC2C(OC=N)C12	C[C@H]1O[C@H]2[C@@H](O[CH][NH])[C@@H]12	
InChI=1S/C6H9NO2/c1-3-4-5(8-2-7)6(4)9-3/h2-7H,1H3	InChI=1S/C6H9NO2/c1-3-4-5(8-2-7)6(4)9-3/h2-7H,1H3/t3-,4-,5+,6-/m1/s1
