19
gdb 62653	2.61066	1.58013	1.44688	2.9539	74.25	-0.2251	0.0599	0.285	1016.4729	0.15653	-422.93363	-422.925038	-422.924094	-422.966056	33.721	
C	-0.1284381871	 1.5704527874	 0.0025016127	-0.450703
C	-0.0789471749	 0.0445720508	-0.0066934905	 0.210763
C	-1.4368280245	-0.5594833106	-0.3607426573	-0.462782
C	 1.16311403	-0.6076768823	-0.6703696165	-0.122967
C	 2.0849803075	-0.3261526437	 0.5602892099	 0.024585
O	 2.568853707	-1.695427215	 0.6591182231	-0.331628
C	 1.1687511378	-1.8378760206	 0.2878695434	-0.010151
C	 0.6850771763	-0.6220093391	 1.1748380203	 0.340003
O	 0.4108199447	-0.5763157032	 2.5212879088	-0.463239
H	 0.8435888049	 2.0119814773	 0.2418333093	 0.117972
H	-0.441697504	 1.9600607923	-0.9726778826	 0.114584
H	-0.8473757371	 1.9313213945	 0.7467357907	 0.118288
H	-1.7684996245	-0.2283133012	-1.3511270329	 0.12125
H	-1.4133809839	-1.6541105141	-0.3693798374	 0.113169
H	-2.2055518358	-0.2454081416	 0.3560755088	 0.112106
H	 1.470745228	-0.6097394888	-1.7137892345	 0.085067
H	 2.7808310848	 0.4890662453	 0.7501485068	 0.100148
H	 0.7649191203	-2.8403382739	 0.1532163197	 0.094403
H	-0.4507339095	-0.9789383935	 2.6772083681	 0.289133
182.0861	185.1951	192.9978	217.9665	227.6107	267.6789	332.6565	357.8413	374.5224	546.7582	589.1403	609.9918	690.6082	772.2505	808.7483	847.7229	891.908	900.3145	915.7712	928.6932	952.9538	995.0758	1013.7364	1020.9315	1082.4463	1122.9705	1136.4121	1170.4384	1175.5001	1211.7197	1229.1115	1260.1551	1295.7728	1344.1176	1403.7657	1407.1828	1424.1318	1479.4614	1490.4426	1502.3956	1510.3896	3021.3734	3028.9014	3081.0065	3088.7561	3096.8044	3104.4727	3126.9395	3135.6736	3152.2353	3802.7778
CC1(C)C2C3OC2C13O	CC1(C)[C@H]2[C@@H]3O[C@H]2[C@]13O	
InChI=1S/C7H10O2/c1-6(2)3-4-7(6,8)5(3)9-4/h3-5,8H,1-2H3	InChI=1S/C7H10O2/c1-6(2)3-4-7(6,8)5(3)9-4/h3-5,8H,1-2H3/t3-,4-,5+,7-
