15
gdb 43160	2.84843	1.53557	1.25464	2.431	71.56	-0.2339	-0.0278	0.2061	1005.0296	0.111927	-420.569039	-420.561582	-420.560638	-420.600981	28.738	
O	-0.0024231669	-0.0558352681	 0.190796261	-0.303311
C	-0.006329242	 1.1313478622	 0.1250568363	 0.440017
C	-1.0658783132	 2.2635344821	 0.020615064	-0.188455
C	-0.6823882122	 3.0447276825	 1.2838727912	-0.104151
O	 0.7730922582	 3.0356817308	 1.1833749364	-0.278689
C	 1.0073787062	 2.2953313091	-0.0151230471	-0.016282
C	-0.0489254951	 2.9066432591	-1.0094469682	-0.222838
C	-0.0685857109	 2.3484455165	-2.3416903338	 0.294017
C	-0.0740267976	 1.8699033811	-3.4445180641	-0.410315
H	-2.1145657398	 2.0934504561	-0.2060574851	 0.109312
H	-1.0396184567	 4.080097463	 1.2900418556	 0.117322
H	-0.9978143118	 2.5476812855	 2.2075856469	 0.126056
H	 2.068343271	 2.2063944705	-0.22910051	 0.114855
H	-0.0398246288	 3.9999114233	-1.0077889812	 0.119967
H	-0.0791481005	 1.4479628663	-4.4191834019	 0.202496
106.6949	149.3083	181.1738	299.4053	368.7159	450.4433	477.8379	486.1475	623.9021	630.1328	644.007	662.1657	764.3221	852.6822	896.24	899.792	937.9569	968.0127	1007.8859	1014.9773	1072.7881	1079.9516	1085.2125	1157.8391	1193.0372	1212.1785	1220.9675	1258.4598	1326.621	1365.1664	1527.8532	1925.4321	2238.1189	3033.3715	3077.598	3079.5997	3171.6954	3179.9809	3502.695
O=C1C2COC1C2C#C	O=C1[C@H]2CO[C@@H]1[C@H]2C#C	
InChI=1S/C7H6O2/c1-2-4-5-3-9-7(4)6(5)8/h1,4-5,7H,3H2	InChI=1S/C7H6O2/c1-2-4-5-3-9-7(4)6(5)8/h1,4-5,7H,3H2/t4-,5-,7+/m0/s1
