17
gdb 93177	2.79047	1.4053	0.97515	5.9047	69.7	-0.254	-0.0759	0.1781	1180.793	0.135261	-459.019884	-459.011437	-459.010493	-459.053809	31.049	
C	-0.2507235822	 1.4395979927	 0.0908376808	-0.400263
C	-0.0752125342	-0.0547737259	-0.1247220698	 0.141292
C	 0.922222007	-0.412253573	-1.2187399354	-0.237452
C	 1.0204369672	-1.9324542257	-1.3503163029	-0.330387
C	 1.3034401117	-2.5901344566	-0.0138385109	 0.27647
O	 1.7931417131	-3.6808251241	 0.1011603187	-0.257063
C	 0.9386835054	-1.8002073168	 1.2829068691	 0.316983
O	 1.2040421914	-2.2342377791	 2.365728326	-0.287768
O	 0.342165752	-0.5948860399	 1.1554298573	-0.237468
H	 0.7091612722	 1.9098481414	 0.3237328598	 0.133547
H	-0.659999719	 1.9051924413	-0.8104558418	 0.123404
H	-0.9355880445	 1.6257887393	 0.9213877907	 0.140628
H	-1.0491415203	-0.5063905927	-0.3627897067	 0.095361
H	 0.6026538881	 0.037619411	-2.1638667209	 0.119292
H	 1.8989441775	 0.0199622402	-0.968354932	 0.122329
H	 0.0608665041	-2.3363829384	-1.7048132305	 0.140579
H	 1.7803732804	-2.2594178237	-2.0650375715	 0.140516
33.5787	97.7651	206.4446	230.2851	280.1053	348.7016	389.3963	405.232	444.2436	495.9173	569.7156	595.5559	669.0658	734.7824	838.1566	896.6	950.5376	969.6654	1017.7568	1069.3329	1099.5379	1136.8213	1161.2859	1205.1848	1225.8804	1273.7896	1334.9501	1345.2435	1377.8921	1405.894	1414.89	1450.3449	1481.8811	1487.2981	1498.8815	1833.0058	1847.4533	3002.1259	3016.481	3038.9325	3048.2083	3089.5944	3099.54	3122.4485	3132.3018
CC1CCC(=O)C(=O)O1	C[C@H]1CCC(=O)C(=O)O1	
InChI=1S/C6H8O3/c1-4-2-3-5(7)6(8)9-4/h4H,2-3H2,1H3	InChI=1S/C6H8O3/c1-4-2-3-5(7)6(8)9-4/h4H,2-3H2,1H3/t4-/m0/s1
