20
gdb 65159	2.58324	1.24647	1.09329	4.0736	83.6	-0.2614	0.0301	0.2914	1212.1428	0.170729	-366.005637	-365.996628	-365.995684	-366.039653	34.383	
C	 0.1244910867	 1.5449787028	-0.0235446179	-0.499579
C	 0.0565657378	 0.0282580224	-0.0186675102	 0.380044
C	 1.125442409	-0.7308901037	-0.7752464131	-0.290439
C	 1.1529221771	-0.7013304829	 0.7316984122	-0.314064
C	-1.3040213749	-0.6195513835	 0.0261447101	-0.073524
C	-2.566117576	 0.1093335426	 0.3738929091	-0.310852
C	-2.383291262	-0.4153547318	-1.0436800026	-0.176762
C	-2.2015795393	 0.4939076533	-2.1382282353	 0.29704
N	-2.0643522096	 1.2136937838	-3.0344900036	-0.351295
H	 1.1663135602	 1.8722432238	-0.08705146	 0.11692
H	-0.4061395462	 1.9811536678	-0.8747149762	 0.150808
H	-0.2950464395	 1.9653675467	 0.8973715963	 0.116363
H	 0.8438403265	-1.6587767402	-1.2618559749	 0.112238
H	 1.8668810644	-0.1550934881	-1.3179324865	 0.118974
H	 1.911589755	-0.1003210242	 1.2215066363	 0.114085
H	 0.8971996062	-1.6097696113	 1.2673085416	 0.110053
H	-1.2685487845	-1.6541397345	 0.357172363	 0.098261
H	-3.3123077842	-0.3815529998	 0.9880665277	 0.128015
H	-2.5156148308	 1.1839687861	 0.4995759085	 0.142104
H	-2.9537974859	-1.2975565894	-1.3147937944	 0.131611
38.7504	121.0294	192.7408	225.9785	251.4638	267.3969	336.5653	346.7735	420.1586	454.388	561.2257	621.5915	695.4601	767.6	780.902	826.7136	863.1264	870.9929	923.3955	953.2774	960.79	1008.8985	1030.6716	1052.3113	1078.9959	1083.1281	1095.2927	1122.4144	1126.2869	1159.6861	1188.528	1216.1792	1290.7739	1343.6516	1378.4241	1413.047	1431.6368	1470.0525	1488.6601	1496.1355	1504.334	1511.0578	2347.3942	3033.2154	3098.0934	3115.7475	3127.3723	3133.2503	3138.7247	3146.7729	3165.4132	3206.2202	3221.7253	3236.9498
CC1(CC1)C1CC1C#N	CC1(CC1)[C@H]1C[C@H]1C#N	
InChI=1S/C8H11N/c1-8(2-3-8)7-4-6(7)5-9/h6-7H,2-4H2,1H3	InChI=1S/C8H11N/c1-8(2-3-8)7-4-6(7)5-9/h6-7H,2-4H2,1H3/t6-,7-/m0/s1
