18
gdb 81823	2.13846	1.65956	1.15542	4.8199	75.89	-0.2578	0.0257	0.2835	1104.3154	0.146994	-401.934053	-401.925361	-401.924417	-401.96715	33.052	
C	-0.1374955372	 1.588036612	-0.0876164597	-0.411085
C	 0.0330416069	 0.0756229031	-0.0677732165	 0.011506
C	 0.6858693633	-0.6248210088	-1.26709153	-0.157642
C	 2.1475658645	-0.2373076254	-1.3877422865	-0.321391
C	 1.7590276472	-1.242574406	-0.3632211044	 0.419167
O	 2.3598443807	-2.4796767268	-0.3490961644	-0.450464
C	 1.1399988436	-0.564235493	 0.8782402101	-0.269044
C	 1.9912370162	 0.3258196605	 1.6535356686	 0.286203
N	 2.6660908357	 1.0554398955	 2.2453331765	-0.339224
H	 0.7986429996	 2.1051232849	-0.3148211313	 0.134838
H	-0.8724745369	 1.8722959267	-0.8476913569	 0.12044
H	-0.4917400203	 1.9571511236	 0.8799336051	 0.12967
H	-0.924390216	-0.3957950058	 0.1720110235	 0.086857
H	 0.1492890324	-1.0629641091	-2.0996614642	 0.097415
H	 2.6508714129	-0.6767450435	-2.2424057897	 0.130189
H	 2.5071303087	 0.7503273029	-1.1125370369	 0.129472
H	 1.7283979496	-3.1307725281	-0.0221230425	 0.287937
H	 0.6872236891	-1.2974875526	 1.5521208191	 0.115155
100.4697	127.4672	184.5458	202.9999	237.651	338.4032	382.1234	383.9892	396.0864	497.5728	529.8597	570.9019	657.8632	725.7307	787.8825	849.4625	878.9692	943.256	963.2401	998.2472	1003.3132	1041.6214	1073.6571	1095.0989	1114.7751	1120.8333	1168.575	1193.732	1256.8363	1296.9522	1302.1926	1327.1757	1368.9176	1414.3923	1435.4106	1491.8519	1492.909	1509.9827	2347.657	3040.4061	3055.365	3072.1839	3106.5424	3118.4754	3123.5875	3190.2339	3214.7589	3788.6558
CC1C2CC2(O)C1C#N	C[C@H]1[C@H]2C[C@@]2(O)[C@H]1C#N	
InChI=1S/C7H9NO/c1-4-5-2-7(5,9)6(4)3-8/h4-6,9H,2H2,1H3	InChI=1S/C7H9NO/c1-4-5-2-7(5,9)6(4)3-8/h4-6,9H,2H2,1H3/t4-,5+,6-,7-/m0/s1
