18
gdb 50589	3.62999	1.23977	1.03435	2.8702	72.85	-0.2437	0.0271	0.2709	1145.0723	0.149891	-439.103589	-439.095942	-439.094998	-439.136184	29.148	
O	-0.0517684274	-0.0577269494	-0.0499914335	-0.34196
C	 0.0042503455	 1.1539940011	-0.0223798488	 0.149427
N	 1.1435644102	 1.8963601754	-0.1090934311	-0.050925
C	 2.4477661246	 1.2492646858	-0.1722624355	-0.189453
C	 3.2344001214	 1.5232666931	 1.1164288068	-0.239176
C	 3.2417009294	 2.9988640123	 1.4496726287	 0.063499
O	 3.5393393754	 3.8890079632	 0.3672806877	-0.254441
C	 2.2076380103	 3.88756587	 0.8947214365	 0.038522
C	 1.1255618382	 3.3469147735	-0.0283711288	-0.199945
H	-0.8950518588	 1.7947609893	 0.0762762279	 0.07019
H	 2.2718054584	 0.1825671367	-0.3107614135	 0.149214
H	 3.0011465691	 1.6361544212	-1.0352236483	 0.123521
H	 2.7805819367	 0.9775136531	 1.9524249802	 0.121459
H	 4.2639662206	 1.1613659084	 1.0127426241	 0.115527
H	 3.7086988759	 3.2758040077	 2.3952252758	 0.096081
H	 1.9461221397	 4.7999021665	 1.4301248155	 0.10237
H	 1.268429655	 3.798693924	-1.0214194342	 0.125583
H	 0.1419287057	 3.6610275482	 0.3351457205	 0.120506
55.076	147.0793	259.7102	296.0352	330.9396	347.3791	370.7581	464.9347	556.6698	638.08	705.821	801.6608	805.9498	828.6818	915.8009	949.6209	965.7444	1025.3263	1028.7593	1039.1795	1062.204	1096.7364	1158.1136	1195.7063	1244.9115	1255.3994	1290.0642	1304.51	1357.8941	1368.5754	1380.4828	1403.7607	1436.4113	1459.2175	1466.2926	1480.3936	1487.7784	1491.9162	1793.6272	2928.064	2994.483	3035.3467	3046.603	3076.8941	3078.7471	3105.2967	3118.5322	3143.4473
O=CN1CCC2OC2C1	O=CN1CC[C@H]2O[C@H]2C1	
InChI=1S/C6H9NO2/c8-4-7-2-1-5-6(3-7)9-5/h4-6H,1-3H2	InChI=1S/C6H9NO2/c8-4-7-2-1-5-6(3-7)9-5/h4-6H,1-3H2/t5-,6+/m1/s1
