16
gdb 49572	2.12404	1.94714	1.23831	2.0431	68.43	-0.2501	-0.0405	0.2096	1007.4035	0.12263	-437.810055	-437.802242	-437.801297	-437.842868	29.003	
O	-1.000138788	 1.156060253	-0.0754831787	-0.243161
C	 0.1463479745	 0.9368143165	 0.2231842869	 0.143589
C	 1.2895476945	 1.8838498674	-0.051609493	-0.157171
N	 2.6166797656	 1.2279378807	-0.3668758825	-0.149677
C	 2.4375861322	 0.5541765974	-1.6724356219	-0.253651
C	 2.6457053627	 2.0155928978	-1.6715174446	-0.126243
C	 1.3429850537	 2.7083677762	-1.3444112561	 0.449425
C	 0.3095762771	 3.3154213714	-2.1812615737	-0.266939
O	 1.181614486	 4.1042800083	-1.3452119147	-0.279159
H	 0.448141539	-0.0003364536	 0.7433131277	 0.097388
H	 1.4180531121	 2.5352925261	 0.8215016452	 0.137478
H	 3.2786807189	-0.0802278463	-1.9324095963	 0.135483
H	 1.4640887613	 0.1483761533	-1.9426013188	 0.127558
H	 3.5450880635	 2.5045732768	-2.0279899094	 0.120784
H	 0.4763828315	 3.4215214545	-3.2518301024	 0.119905
H	-0.7265107745	 3.2661946304	-1.8574061878	 0.144391
64.7099	132.8853	161.78	228.3916	289.5452	354.1777	461.2609	490.9068	550.5739	657.7605	729.2426	779.4998	804.3102	863.9832	895.5535	939.3473	982.0621	999.361	1044.1712	1075.0917	1095.8667	1117.0719	1125.8574	1138.684	1157.7856	1174.6141	1218.253	1232.972	1313.6316	1318.9493	1405.0299	1449.5489	1502.3653	1535.5921	1823.2391	2882.7646	3047.042	3097.2415	3102.5588	3184.7519	3197.2358	3202.5156
O=CC1N2CC2C11CO1	O=C[C@H]1N2C[C@H]2[C@]21CO2	
InChI=1S/C6H7NO2/c8-2-5-6(3-9-6)4-1-7(4)5/h2,4-5H,1,3H2	InChI=1S/C6H7NO2/c8-2-5-6(3-9-6)4-1-7(4)5/h2,4-5H,1,3H2/t4-,5+,6-,7?/m0/s1
