15
gdb 10288	2.60261	1.79706	1.15005	2.7748	62.82	-0.2696	-0.0377	0.2319	1024.798	0.115137	-399.808909	-399.799681	-399.798737	-399.843671	30.714	
C	-0.2605441088	 1.3537006632	 0.0821469585	-0.249084
O	 0.0806164422	-0.0173608893	-0.0517866354	-0.206526
C	 0.8452157973	-0.5193380476	 0.9953729601	-0.102421
C	 0.08794931	-0.5975497434	 2.2636712728	 0.257326
N	-0.5157624761	-0.6572106923	 3.2476180715	-0.323563
C	 1.4022083544	-1.9224897496	 0.5919319871	 0.370947
C	 2.1168585447	-2.6843363472	 1.6844796936	-0.494068
O	 1.2750583157	-2.3137864668	-0.5338084774	-0.25605
H	 0.6389211742	 1.9825975138	 0.1546658529	 0.11523
H	-0.8149781399	 1.6222618865	-0.8182094391	 0.147477
H	-0.8915395394	 1.5317270998	 0.9628939191	 0.136016
H	 1.7318124375	 0.1135782473	 1.1912913371	 0.129079
H	 1.3868420097	-3.0617808643	 2.4087440933	 0.17647
H	 2.6575335288	-3.522752488	 1.2449131763	 0.155264
H	 2.8069193397	-2.0371970122	 2.2362386897	 0.143906
44.759	94.001	112.4234	144.5069	183.5575	195.1642	267.6687	359.9997	378.6082	447.8827	529.9626	589.5319	628.4166	798.606	936.1704	949.1744	1041.7137	1045.6695	1158.9853	1181.4319	1183.92	1225.3283	1270.1588	1348.2178	1388.1237	1459.8575	1472.713	1480.3922	1489.3888	1505.7817	1855.0008	2346.8607	2930.8323	2992.8858	3043.3649	3054.8504	3105.8649	3139.189	3158.3807
COC(C#N)C(C)=O	CO[C@@H](C#N)C(=O)C	
InChI=1S/C5H7NO2/c1-4(7)5(3-6)8-2/h5H,1-2H3	InChI=1S/C5H7NO2/c1-4(7)5(3-6)8-2/h5H,1-2H3/t5-/m0/s1
