19
gdb 38774	3.03841	1.68498	1.2297	1.0886	81.43	-0.2268	0.0185	0.2453	1036.1135	0.161241	-385.859038	-385.851915	-385.850971	-385.8902	29.614	
C	 0.0537549829	 1.5483737012	 0.0473551798	-0.319981
C	 1.3106546493	 0.7372154727	 0.0111627425	 0.105232
O	 2.0713485182	 0.7554286847	 1.1827866937	-0.245488
C	 2.6424411423	-0.4830475515	 1.4856435589	 0.105232
C	 2.6644112382	-0.8436610789	 2.9377313555	-0.319981
C	 1.7478819119	-1.5933130211	 1.9750115035	-0.095676
C	 0.2730644696	-1.4278349642	 2.0556582267	-0.070478
C	-0.4893712147	-0.7292467127	 1.2115288635	-0.070478
C	-0.0174874961	 0.0242227157	 0.0204860223	-0.095677
H	-0.1637434147	 2.0303525254	 0.9938796069	 0.127057
H	-0.2424071839	 2.1039027101	-0.8353268007	 0.111371
H	 1.8982885186	 0.7157112486	-0.9072262561	 0.083349
H	 3.4972261799	-0.7493336234	 0.8630295827	 0.08335
H	 3.5312181694	-1.3537166267	 3.3426276072	 0.111371
H	 2.193222176	-0.1292285544	 3.6033773246	 0.127057
H	 2.0751286411	-2.6034745737	 1.7333170478	 0.094906
H	-0.2125226272	-1.9451011974	 2.8824769943	 0.086965
H	-1.5646371178	-0.7062135231	 1.3854865041	 0.086965
H	-0.333061263	-0.396946251	-0.9329093672	 0.094906
148.43	203.669	290.9327	344.8671	359.2564	423.1909	427.909	548.4161	688.0634	753.1397	763.6345	764.0439	809.2228	811.6371	841.5806	847.0978	891.5027	981.5641	1000.4787	1034.9699	1042.288	1047.919	1071.8979	1077.3974	1104.8098	1112.2487	1127.8355	1129.6814	1176.6946	1179.1763	1212.5801	1249.892	1251.0388	1336.3648	1388.8369	1390.8636	1420.6739	1434.3022	1475.8211	1487.5545	1720.3127	3088.6993	3093.3156	3111.87	3113.0553	3118.6558	3137.9571	3137.9798	3142.0499	3230.6185	3230.6696
C1C2OC3CC3C=CC12	C1[C@H]2O[C@H]3C[C@H]3C=C[C@@H]12	
InChI=1S/C8H10O/c1-2-6-4-8(6)9-7-3-5(1)7/h1-2,5-8H,3-4H2	InChI=1S/C8H10O/c1-2-6-4-8(6)9-7-3-5(1)7/h1-2,5-8H,3-4H2/t5-,6+,7+,8-
