16
gdb 34464	3.61412	1.48817	1.24892	3.7103	72.73	-0.2626	0.02	0.2826	987.6637	0.126673	-400.73251	-400.72575	-400.724806	-400.763612	26.872	
N	 0.0764529695	-1.0545373953	-0.02112381	-0.338726
C	 0.0349955302	 0.1018499675	-0.0234705187	 0.183012
C	-0.0308817808	 1.5319042389	 0.0002609403	 0.177697
C	-1.2379771224	 2.2135130488	 0.6639496458	-0.156347
O	-1.402832211	 3.4426066932	-0.0408523564	-0.254473
C	-0.1843594716	 3.6972940266	-0.7134651688	 0.070044
C	 1.0318931045	 3.7786468562	 0.2714001221	-0.267285
C	 1.2996644968	 2.3043062824	-0.0345219148	-0.109008
C	 0.3605577361	 2.3345615354	-1.2199072992	-0.113984
H	-2.1478808767	 1.6156099271	 0.5561991942	 0.130371
H	-1.0628381529	 2.3952575267	 1.731840468	 0.116292
H	-0.3347566292	 4.516423959	-1.4137574345	 0.100749
H	 1.8298806071	 4.4097641926	-0.1278318857	 0.118236
H	 0.8091072044	 4.0781969793	 1.2994582124	 0.111784
H	 2.2341028297	 1.7681200467	 0.0739485174	 0.114179
H	 0.4388496264	 1.9378394148	-2.2220793323	 0.117458
146.1927	160.3719	247.5957	378.449	431.4531	495.9407	539.3368	558.2747	664.2364	702.2907	784.1287	846.3894	866.9484	869.6794	922.7926	970.9962	986.1363	1001.7165	1013.3083	1052.0453	1083.6943	1098.6808	1119.0969	1179.6234	1197.4461	1219.5116	1237.0414	1259.4026	1278.7678	1321.6015	1357.0561	1403.4588	1491.197	1523.6414	2352.6516	3022.472	3057.9793	3083.0491	3113.7213	3144.2848	3196.6769	3223.7834
N#CC12COC3CC1C23	N#C[C@@]12CO[C@H]3C[C@@H]1[C@@H]23	
InChI=1S/C7H7NO/c8-2-7-3-9-5-1-4(7)6(5)7/h4-6H,1,3H2	InChI=1S/C7H7NO/c8-2-7-3-9-5-1-4(7)6(5)7/h4-6H,1,3H2/t4-,5+,6-,7-/m1/s1
