19
gdb 95640	2.29395	1.55872	1.11919	1.8232	71.58	-0.2306	-0.0303	0.2003	1133.0593	0.158899	-460.178181	-460.169236	-460.168292	-460.211793	33.436	
C	-0.0009217033	 1.5783133181	-0.0114397741	-0.410614
C	 0.0376332514	 0.0474504837	-0.0319867119	-0.008995
C	 0.7596344067	-0.505598859	-1.2671131866	-0.081164
O	 0.6936618306	-1.9241723899	-1.3049790579	-0.251272
C	 1.3825722131	-2.5375642095	-0.2323015915	-0.174231
C	 0.88923933	-2.0503447136	 1.1285397703	 0.352789
O	 0.7595341078	-2.7835716204	 2.0805288739	-0.310553
C	 0.6816380431	-0.5331713036	 1.2333416969	 0.012879
O	 1.9872318937	 0.0389600374	 1.3691748705	-0.436645
H	 1.008297409	 1.9947633308	 0.0319629188	 0.139031
H	-0.498355175	 1.9655225452	-0.9062260585	 0.115085
H	-0.5512854724	 1.943078265	 0.8617770551	 0.117384
H	-0.9889730919	-0.3407760459	-0.0658471662	 0.090718
H	 0.2742806883	-0.1580359787	-2.1832475627	 0.109823
H	 1.8066994118	-0.1652974757	-1.2798216381	 0.106438
H	 1.2231188196	-3.6150826495	-0.3060223495	 0.13329
H	 2.4670178114	-2.3379663337	-0.2924757571	 0.116244
H	 0.0680393126	-0.3249689349	 2.1201703028	 0.081697
H	 2.3540916535	-0.2646068359	 2.2066073358	 0.298093
68.4604	124.7465	199.7311	216.2946	254.9648	286.6111	298.9371	370.0709	414.1314	428.6278	477.5115	540.4135	627.4144	668.5712	811.2082	857.6706	930.6264	958.962	971.017	998.6626	1018.5878	1097.487	1131.648	1133.8356	1163.4431	1210.9606	1249.5201	1264.7584	1292.981	1315.9845	1330.0198	1358.8087	1378.5029	1395.4058	1404.7401	1427.1235	1465.142	1493.0495	1496.9653	1504.5112	1821.5901	2958.1799	2992.1761	3015.0054	3028.9783	3040.6104	3091.6291	3103.9267	3117.6657	3127.5374	3812.9884
CC1COCC(=O)C1O	C[C@H]1COCC(=O)[C@H]1O	
InChI=1S/C6H10O3/c1-4-2-9-3-5(7)6(4)8/h4,6,8H,2-3H2,1H3	InChI=1S/C6H10O3/c1-4-2-9-3-5(7)6(4)8/h4,6,8H,2-3H2,1H3/t4-,6-/m0/s1
