17
gdb 64599	3.24899	1.34721	1.25372	2.6028	73.75	-0.2393	-0.044	0.1953	1048.0888	0.135686	-421.826306	-421.818512	-421.817568	-421.85861	30.427	
O	 0.0183886873	 1.4962483121	-0.0155930594	-0.478088
C	-0.0004294343	 0.0918914522	 0.0279964929	 0.285016
C	 0.7774228887	-0.4552819687	-1.1637528406	 0.109432
O	 1.3269830779	 0.2671838358	-1.9591813806	-0.274971
C	 0.6170282748	-0.464102633	 1.314731909	-0.154094
C	-0.1956050542	-1.3160553697	 1.9399914806	-0.077632
C	-1.5116067564	-1.4388495364	 1.243712332	-0.080229
C	-2.3087484626	-0.1498248916	 1.1932562554	-0.287088
C	-1.4126887446	-0.5224842743	 0.0420947181	-0.090548
H	 0.52673055	 1.7272319486	-0.8098446089	 0.291076
H	 0.8118425326	-1.559593011	-1.248144768	 0.104465
H	 1.5878939392	-0.1231893627	 1.6531800653	 0.110374
H	 0.0227071985	-1.8171973988	 2.8766299122	 0.107529
H	-2.0295845633	-2.389770013	 1.204947653	 0.094055
H	-3.3758525222	-0.2270582604	 1.0143349023	 0.114886
H	-2.0071610326	 0.6642842672	 1.8422191695	 0.133465
H	-1.8746050688	-0.7798653061	-0.9037783727	 0.092351
87.7032	116.9671	233.5672	302.0637	361.1786	372.196	406.7744	471.839	504.7067	573.9342	705.029	753.2253	790.2578	806.7208	823.756	858.9704	937.8933	950.3312	978.392	986.7476	1008.949	1040.6328	1066.1916	1081.5524	1098.1359	1128.211	1151.8516	1193.5378	1217.2844	1302.9457	1352.1824	1367.3375	1384.5672	1435.5411	1479.258	1665.8873	1809.9932	2943.2519	3135.1817	3173.1656	3181.8527	3191.1565	3218.6238	3228.4184	3681.4273
OC1(C=O)C=CC2CC12	O[C@@]1(C=O)C=C[C@H]2C[C@@H]12	
InChI=1S/C7H8O2/c8-4-7(9)2-1-5-3-6(5)7/h1-2,4-6,9H,3H2	InChI=1S/C7H8O2/c8-4-7(9)2-1-5-3-6(5)7/h1-2,4-6,9H,3H2/t5-,6+,7+/m0/s1
