18
gdb 19480	4.55907	1.55078	1.49538	0.9742	67.63	-0.2273	0.0837	0.311	921.7802	0.154866	-384.899054	-384.891937	-384.890993	-384.930425	27.349	
C	-0.1508341048	 1.3436270361	-0.0690823145	-0.2433
O	 0.3040760764	 0.0166477887	 0.0974859971	-0.256088
C	 0.789491758	-0.5542098474	-1.084879125	 0.160485
C	 1.1108191899	-2.0695036348	-0.9077428002	-0.11038
C	-0.4235769794	-2.3196097613	-1.0761043745	-0.241152
C	-0.2572780349	-1.1564729814	-2.0808378793	 0.065791
O	 0.5909877992	-1.694387342	-3.1050245708	-0.28151
C	 1.5980059854	-2.3888174052	-2.3226322013	-0.08342
H	 0.646601741	 1.9968229235	-0.4548918796	 0.109676
H	-1.0082303061	 1.4052086472	-0.7547210907	 0.110044
H	-0.4586207155	 1.7044850896	 0.9149743551	 0.129096
H	 1.5626697215	 0.0772123195	-1.5478897447	 0.06499
H	 1.689107077	-2.4401564514	-0.0628604806	 0.078422
H	-0.7512088049	-3.2815715743	-1.4766155907	 0.096033
H	-0.9853836224	-2.0389700638	-0.187190151	 0.119709
H	-1.0790000343	-0.6037411118	-2.5332523558	 0.077631
H	 2.5908660118	-1.9843728226	-2.5507373773	 0.10208
H	 1.5857067421	-3.4595691287	-2.5580743461	 0.101894
95.436	179.3014	191.7746	306.5106	349.0215	411.5349	477.872	530.394	651.7111	836.2175	848.5392	897.3969	912.4208	935.1432	946.8724	981.7436	996.0609	1026.926	1062.1454	1078.5824	1100.1011	1136.2053	1160.6101	1178.0345	1183.4133	1223.482	1231.1844	1248.4363	1267.1604	1271.336	1292.2477	1358.6641	1392.2871	1476.8889	1486.0478	1488.5968	1508.0196	1528.5415	2981.1786	2995.463	3023.3142	3032.5262	3063.4661	3079.8945	3118.9912	3134.0243	3137.8393	3164.6544
COC1C2CC1OC2	CO[C@H]1[C@H]2C[C@@H]1OC2	
InChI=1S/C6H10O2/c1-7-6-4-2-5(6)8-3-4/h4-6H,2-3H2,1H3	InChI=1S/C6H10O2/c1-7-6-4-2-5(6)8-3-4/h4-6H,2-3H2,1H3/t4-,5-,6-/m0/s1
