17
gdb 101988	3.32374	0.70438	0.59854	2.1908	93.48	-0.2457	-0.0437	0.202	1805.8077	0.131826	-384.648814	-384.638513	-384.637569	-384.685204	35.785	
C	-0.0553512115	 1.5726831279	 0.0008298238	-0.395401
C	 0.0345847607	 0.0453354642	 0.0033761915	-0.187007
C	 0.7101436356	-0.5265693516	-1.2789308791	-0.294845
C	 2.1919084204	-0.1274470808	-1.2869699493	 0.173326
O	 2.6541506505	 0.7324015527	-1.9853271513	-0.240172
C	 0.6026165146	-1.9749781966	-1.3471584878	 0.363089
C	 0.5491539138	-3.1838305742	-1.3934221901	-0.204162
C	 0.48053695	-4.5414898837	-1.4448230106	 0.293381
C	 0.4204065277	-5.7466005649	-1.4908560287	-0.554499
H	 0.9306706822	 2.0394822049	-0.0802352916	 0.137253
H	-0.6591763254	 1.9305702195	-0.839492156	 0.126648
H	-0.5216361836	 1.9279961304	 0.9241433412	 0.121458
H	 0.5920721447	-0.3088360465	 0.8788053146	 0.11646
H	-0.9639939327	-0.3962115348	 0.0763385061	 0.124399
H	 0.2504136068	-0.0673811758	-2.1623863146	 0.129733
H	 2.8116972553	-0.6935810744	-0.5568104784	 0.095277
H	 0.367532421	-6.8062984064	-1.5315878698	 0.195061
50.3869	71.2294	81.2686	111.5109	201.8794	219.2562	233.9334	299.953	343.1925	437.5742	466.9325	467.4609	530.9555	537.4571	597.5242	602.6105	771.4151	789.1034	871.5797	945.9851	1010.9881	1055.2689	1100.6257	1134.5236	1183.9094	1243.5056	1294.8604	1317.7787	1358.0697	1415.5101	1419.2824	1488.3928	1497.1495	1504.6197	1837.0923	2181.3167	2358.0432	2890.9326	3036.8013	3041.4576	3047.2654	3082.0497	3111.4583	3118.5254	3504.2329
CCC(C=O)C#CC#C	CC[C@@H](C=O)C#CC#C	
InChI=1S/C8H8O/c1-3-5-6-8(4-2)7-9/h1,7-8H,4H2,2H3	InChI=1S/C8H8O/c1-3-5-6-8(4-2)7-9/h1,7-8H,4H2,2H3/t8-/m1/s1
