16
gdb 28347	3.17383	1.35548	0.95538	3.0975	77.48	-0.2	-0.0212	0.1788	1173.7912	0.124643	-437.96788	-437.959374	-437.958429	-438.001087	31.372	
C	-0.0182874253	 1.5244344819	 0.0074235788	-0.473352
C	-0.0016893565	 0.0238621029	-0.0334926376	 0.11655
C	-0.0511494154	-0.7141845414	-1.18437467	-0.126229
C	-0.0348482655	-2.1328540718	-1.2108076763	-0.277102
C	 0.0343148042	-2.7879956832	-0.0170465428	 0.502573
O	 0.0548330561	-4.1366246641	 0.0483742056	-0.415042
N	 0.0844753451	-2.072501681	 1.1409935738	-0.458909
C	 0.0721970428	-0.6576270845	 1.2438604841	 0.372439
O	 0.1226765471	-0.1458952907	 2.3523180463	-0.395415
H	 0.8788359197	 1.9142221132	 0.5010637095	 0.137465
H	-0.0752197206	 1.9465958903	-0.9992789004	 0.110295
H	-0.869645651	 1.8924047231	 0.5907163661	 0.137457
H	-0.1062331113	-0.1913977989	-2.1356463395	 0.103732
H	-0.075148949	-2.6977396121	-2.1303581892	 0.11213
H	 0.0999213425	-4.438601022	 0.9615445742	 0.304344
H	 0.1375659972	-2.5331827015	 2.0403024975	 0.249064
101.6822	123.1969	135.771	183.0878	280.2541	327.0601	348.7114	436.0028	458.6567	542.7571	591.4562	593.0269	688.2881	745.9491	768.2265	781.7346	787.1107	947.2801	984.0485	1037.1146	1069.5536	1108.4602	1151.8245	1193.7309	1239.4049	1289.3886	1351.3973	1416.3028	1427.6904	1470.5718	1491.1054	1508.1018	1623.1888	1689.5244	1766.4993	3032.1575	3083.23	3117.171	3165.776	3241.2295	3587.0449	3827.2093
CC1=CC=C(O)NC1=O	Cc1ccc(O)[nH]c1=O	
InChI=1S/C6H7NO2/c1-4-2-3-5(8)7-6(4)9/h2-3H,1H3,(H2,7,8,9)	InChI=1S/C6H7NO2/c1-4-2-3-5(8)7-6(4)9/h2-3H,1H3,(H2,7,8,9)
