20
gdb 80993	2.66455	1.52137	1.20244	4.0256	79.2	-0.235	0.0253	0.2603	1106.324	0.17159	-403.171335	-403.162963	-403.162019	-403.203614	33.372	
C	-0.1620192585	 1.5620618418	-0.0475044275	-0.438958
C	-0.0006456092	 0.0493003443	 0.0058255175	 0.017506
C	 1.1525396267	-0.5897707615	-0.849692028	-0.171906
C	 2.117158881	-0.2347923841	 0.3372954373	-0.279509
C	 0.8406149519	-0.5824417872	 1.169501836	 0.329991
C	 0.6542562636	-0.2467430605	 2.6256579149	-0.512099
N	 0.6307161644	-2.0164174628	 0.8305582331	-0.349809
C	 0.9527296886	-2.0778182822	-0.5288832062	 0.413949
O	 1.077920008	-3.0565348506	-1.2202789913	-0.37754
H	 0.7805212988	 2.1067298696	 0.0524981523	 0.119812
H	-0.6124323775	 1.857344955	-1.0008830689	 0.126275
H	-0.831160414	 1.9052453731	 0.7492049869	 0.121856
H	-0.9764354138	-0.4304879101	-0.118635027	 0.083721
H	 1.3503228677	-0.3344812996	-1.8881089507	 0.084565
H	 2.9947637986	-0.8701496311	 0.4853305064	 0.10265
H	 2.4073077954	 0.8160388041	 0.3671418663	 0.105904
H	 0.7654104497	 0.828907489	 2.7896294225	 0.128322
H	-0.3403898196	-0.5471348343	 2.9709875962	 0.132042
H	 1.3986533133	-0.7565233874	 3.2481896636	 0.121654
H	 0.968139395	-2.7463938457	 1.4433101167	 0.241576
167.5784	198.7215	202.6548	208.01	261.7472	289.638	368.0195	435.2463	494.4949	503.4224	538.8112	602.39	669.505	738.8341	797.8649	814.4381	843.33	885.1425	922.3597	946.4114	998.8327	1047.2489	1055.0728	1087.6641	1096.1562	1114.6693	1149.4537	1193.48	1214.1052	1236.9702	1247.8709	1265.1618	1281.3604	1372.6816	1389.8235	1415.3956	1417.5876	1485.9659	1492.1105	1496.9614	1497.9911	1516.5747	1865.1048	3031.2682	3036.1347	3056.8586	3067.1056	3094.9323	3096.3991	3112.9065	3113.8419	3135.5493	3151.9188	3595.5907
CC1C2CC1(C)NC2=O	C[C@H]1[C@H]2C[C@]1(C)NC2=O	
InChI=1S/C7H11NO/c1-4-5-3-7(4,2)8-6(5)9/h4-5H,3H2,1-2H3,(H,8,9)	InChI=1S/C7H11NO/c1-4-5-3-7(4,2)8-6(5)9/h4-5H,3H2,1-2H3,(H,8,9)/t4-,5+,7-/m0/s1
