16
gdb 127918	2.67823	1.57909	0.99965	3.8054	79.5	-0.2113	-0.0229	0.1884	1136.9119	0.126089	-430.242626	-430.234322	-430.233378	-430.275747	30.674	
C	 0.1872298115	 1.4195506452	 0.1418154721	-0.348062
N	 0.1914914581	-0.0294384127	 0.1252901087	-0.250089
C	 0.4702888373	-0.6212522226	-0.9629779303	 0.390443
N	 0.779408287	 0.0116118043	-2.1701153096	-0.402521
C	 1.0777484052	-0.6588210392	-3.3355011241	 0.104177
N	 1.10588845	-1.9334432848	-3.4443666652	-0.222499
N	 0.8122633263	-2.6223342466	-2.2965246982	-0.326709
C	 0.4904778891	-2.1214685014	-1.0411138869	 0.328276
N	 0.2261863841	-2.8223149932	-0.0093297021	-0.500653
H	 1.1707351894	 1.847962494	-0.1138114962	 0.112072
H	-0.5530308857	 1.8478336238	-0.5544194116	 0.112107
H	-0.0690614604	 1.7685994047	 1.1443699627	 0.138294
H	 0.7821793799	 1.0187589008	-2.1820361253	 0.261868
H	 1.300413982	-0.0548578548	-4.2060797787	 0.140566
H	 0.8424635018	-3.622725115	-2.4130477533	 0.259617
H	 0.2797615244	-3.8218889725	-0.218277762	 0.203114
78.4399	123.7009	166.3696	211.4298	222.6179	363.3621	446.6889	486.2355	520.3947	553.588	560.3187	573.9635	618.6601	749.5364	773.8176	839.1684	867.971	919.8568	1044.6256	1073.3677	1098.9178	1118.1612	1157.9477	1189.9271	1231.6772	1380.7948	1406.0067	1432.2733	1460.7738	1472.7328	1510.4379	1511.7781	1710.0942	1721.0124	1742.4853	2954.0047	2999.7047	3108.0883	3217.6564	3446.0841	3636.2162	3645.835
CN=C1NC=NNC1=N	C[N]c1[nH]cn[nH]c1[NH]	
InChI=1S/C4H7N5/c1-6-4-3(5)9-8-2-7-4/h2H,1H3,(H2,5,9)(H,6,7,8)	InChI=1S/C4H7N5/c1-6-4-3(5)9-8-2-7-4/h2H,1H3,(H2,5,9)(H,6,7,8)
