15
gdb 16458	3.38146	2.93679	1.91011	2.023	64.39	-0.2268	-0.0041	0.2228	701.5076	0.120515	-362.579706	-362.573974	-362.57303	-362.609023	24.482	
O	 0.1139881803	 1.3836047991	 0.0873613574	-0.501763
C	 0.0705220203	 0.0080128072	 0.0745427986	 0.450392
C	 0.9267810916	-0.7490617206	 1.0674970079	-0.158661
C	 0.668206564	-2.0331515143	 0.8078485032	-0.103837
C	-0.3362047719	-1.9844717093	-0.3345966502	-0.090873
C	-1.2951464813	-0.7731877901	-0.0628152953	-0.085991
N	-1.3371477306	-0.3562438349	-1.5150828856	-0.378041
C	 0.0866218899	-0.8055137502	-1.2790103904	-0.085991
H	-0.4937494431	 1.6685612404	-0.610664895	 0.291228
H	 1.5805433587	-0.2957872492	 1.7982158619	 0.113901
H	 1.0636994753	-2.9206237127	 1.2807729843	 0.108935
H	-0.7426600909	-2.8960870195	-0.7721563314	 0.069736
H	-2.1744721686	-0.7295146232	 0.5862452509	 0.080253
H	-1.8404858359	-1.0545545375	-2.0683838711	 0.21046
H	 0.8427062015	-0.8000992354	-2.0693948347	 0.080253
296.7491	320.6415	399.9728	491.3144	500.5395	530.6757	672.8576	673.7278	708.6054	748.7125	807.1381	834.3022	882.2542	903.1259	918.5738	928.6622	953.4613	1036.8351	1049.5806	1073.9587	1102.5928	1122.3807	1126.0685	1149.3199	1219.611	1241.0107	1278.7067	1296.8938	1305.628	1349.7487	1432.2524	1634.3255	3075.995	3081.7352	3125.731	3226.8357	3254.3562	3405.8786	3739.142
OC12C=CC3C1NC23	O[C@@]12C=C[C@H]3[C@@H]1N[C@@H]23	
InChI=1S/C6H7NO/c8-6-2-1-3-4(6)7-5(3)6/h1-5,7-8H	InChI=1S/C6H7NO/c8-6-2-1-3-4(6)7-5(3)6/h1-5,7-8H/t3-,4-,5+,6-
