20
gdb 6090	4.08827	1.05116	0.94696	3.4448	72.24	-0.2442	0.057	0.3012	1301.574	0.176395	-382.374149	-382.364227	-382.363283	-382.4095	35.696	
C	-0.4229717523	 1.3530904893	-0.0521483404	-0.38233
C	 0.1508293113	-0.0527892705	 0.1542896593	 0.05305
C	 0.7753043217	-0.5996655805	-1.1345250305	-0.391328
C	 1.1859942137	-0.0853311939	 1.292717617	-0.150716
N	 0.6398057321	 0.2953268161	 2.5900788042	-0.334509
C	 0.0651512373	-0.6543454065	 3.4014960761	 0.44644
N	-0.2574129671	-0.1934193851	 4.6766365561	-0.566099
O	-0.1216011092	-1.8057736432	 3.0520298062	-0.391958
H	 0.3558690967	 2.0507592197	-0.3863197677	 0.102601
H	-1.2113223688	 1.351295817	-0.8117106409	 0.112115
H	-0.8511022	 1.7444232807	 0.8755909621	 0.10692
H	-0.6627075621	-0.7232319033	 0.4570587207	 0.098649
H	 1.6152000279	 0.0254945109	-1.4627887252	 0.106717
H	 1.1511601416	-1.6187582	-0.9960402964	 0.118281
H	 0.0436464342	-0.6205188481	-1.9483820869	 0.112128
H	 1.5988570741	-1.0958480477	 1.3746265805	 0.126815
H	 2.0109334489	 0.5996393887	 1.0632333349	 0.090083
H	 0.990144307	 1.1341758033	 3.0209302803	 0.240345
H	-0.5324005409	 0.7741298669	 4.7623309203	 0.243736
H	-0.8724818963	-0.8294826739	 5.1618026402	 0.259061
37.5451	70.106	84.7053	220.8418	239.1755	256.7594	297.858	320.1278	334.459	407.7785	410.4492	434.7689	534.8915	577.8579	678.8137	782.2285	820.0364	850.3094	929.2649	951.6916	961.5499	977.3857	1090.4435	1137.9419	1146.8174	1192.1678	1195.8721	1299.0927	1328.1001	1342.5331	1376.997	1394.7636	1404.7002	1424.3965	1466.2653	1490.2353	1493.6892	1504.1138	1512.3435	1532.6734	1628.1768	1799.9972	3019.8482	3023.0908	3029.0846	3042.7159	3084.6206	3085.9232	3094.7025	3102.6987	3106.796	3569.7389	3646.9007	3682.1926
CC(C)CNC(N)=O	CC(C)CNC(=O)N	
InChI=1S/C5H12N2O/c1-4(2)3-7-5(6)8/h4H,3H2,1-2H3,(H3,6,7,8)	InChI=1S/C5H12N2O/c1-4(2)3-7-5(6)8/h4H,3H2,1-2H3,(H3,6,7,8)
