20
gdb 16371	2.29835	2.28239	1.48225	1.5737	74.97	-0.2382	0.0849	0.3231	960.3525	0.175816	-348.983616	-348.975142	-348.974198	-349.016314	32.139	
C	-0.3357220805	 1.2681629736	-1.2426697594	-0.40233
C	 0.2367600008	-0.0784065418	-0.8469471165	 0.099094
O	 1.6236247915	-0.2308372922	-1.2450295709	-0.323949
C	 2.0384137431	-0.5966740786	 0.0963177345	 0.099094
C	 3.1861133245	 0.255063837	 0.6012040767	-0.40233
C	 0.6225578837	-0.3311314742	 0.6119215765	 0.276541
C	 0.2047468263	 0.43502545	 1.8309089671	-0.323239
C	-0.1422327139	-1.0311061113	 1.6880911094	-0.332019
H	 0.2446974112	 2.0833906496	-0.8016416639	 0.119796
H	-0.3172318315	 1.3787425953	-2.3315629187	 0.12606
H	-1.3767188687	 1.3583565557	-0.9120433886	 0.111489
H	-0.3731032253	-0.8884759863	-1.2753601107	 0.069761
H	 2.3146180959	-1.6616317203	 0.1318097122	 0.069761
H	 2.9163154712	 1.3148661765	 0.5971038584	 0.119796
H	 3.4626367837	-0.0337458264	 1.6216190153	 0.111489
H	 4.0645494586	 0.1182733522	-0.0374635381	 0.12606
H	 0.9693297931	 0.7132159796	 2.5492605369	 0.114878
H	-0.594064893	 1.1629484278	 1.7307385982	 0.114878
H	-1.176877139	-1.2956276642	 1.4914926372	 0.112585
H	 0.3877387281	-1.745710512	 2.3106523445	 0.112585
64.8747	201.7847	203.513	217.8306	218.9189	232.2945	358.4799	398.402	461.4927	518.3519	556.3156	755.0766	770.0106	829.085	872.1474	909.2281	919.959	921.6453	979.1917	1039.2965	1053.5929	1071.4616	1079.3472	1103.2355	1116.9388	1118.0093	1154.4422	1188.3127	1241.636	1283.0545	1306.8098	1366.5817	1383.9008	1398.3591	1404.3143	1423.7619	1466.311	1480.0095	1487.8251	1489.2243	1491.8674	1511.6449	2977.954	2984.3684	3032.518	3033.2525	3101.6662	3102.188	3117.1882	3118.5078	3119.3822	3128.0318	3196.9775	3213.7201
CC1OC(C)C11CC1	C[C@H]1O[C@@H](C)C21CC2	
InChI=1S/C7H12O/c1-5-7(3-4-7)6(2)8-5/h5-6H,3-4H2,1-2H3	InChI=1S/C7H12O/c1-5-7(3-4-7)6(2)8-5/h5-6H,3-4H2,1-2H3/t5-,6+
