17
gdb 15417	4.96278	0.98389	0.92689	2.5521	67.79	-0.2508	-0.0381	0.2127	1247.6584	0.140794	-400.965608	-400.957192	-400.956248	-400.999224	29.995	
O	 0.352570557	 1.2697029207	-0.3625799452	-0.418453
C	 0.1686318895	-0.0898079437	-0.0376423453	-0.045023
C	-1.2981517882	-0.3980753325	 0.2666841298	-0.165555
N	-2.0832928919	-0.016694794	-0.9137628494	-0.090576
C	-2.561565142	-1.0425614158	-1.8055190727	-0.252423
C	-3.5332192042	-0.2384364231	-0.9798201577	-0.089331
C	-4.2722413643	-0.9436188143	 0.1012763158	 0.158163
O	-5.4208130264	-0.7067766096	 0.3816066163	-0.258357
H	-0.3558667737	 1.4833625432	-0.9840100241	 0.287787
H	 0.5165497143	-0.7522943434	-0.8489167172	 0.085315
H	 0.7808406018	-0.3028625827	 0.8450365169	 0.10992
H	-1.4093370427	-1.4567151071	 0.5452046996	 0.095155
H	-1.6292046429	 0.2195924513	 1.1082693917	 0.125275
H	-2.494018597	-0.8446610547	-2.8714564762	 0.137738
H	-2.4094530227	-2.083377631	-1.5184049328	 0.124398
H	-4.0997676103	 0.5608573069	-1.4502091575	 0.118736
H	-3.6966282162	-1.72923262	 0.638354058	 0.07723
53.7823	112.5724	128.9174	187.7794	239.3711	298.2711	400.9213	425.9383	470.0363	485.417	582.3149	726.5456	863.6568	897.6312	910.1661	934.2021	1014.7472	1027.4309	1078.8219	1097.0687	1114.26	1118.0571	1159.2301	1181.056	1228.1118	1277.6515	1306.872	1343.7557	1377.5902	1383.7361	1440.3386	1445.3434	1478.3938	1506.3136	1508.0251	1817.6104	2889.5254	2958.249	2991.3994	3071.284	3081.1046	3087.2407	3153.4699	3185.2042	3762.1396
OCCN1CC1C=O	OCCN1C[C@H]1C=O	
InChI=1S/C5H9NO2/c7-2-1-6-3-5(6)4-8/h4-5,7H,1-3H2	InChI=1S/C5H9NO2/c7-2-1-6-3-5(6)4-8/h4-5,7H,1-3H2/t5-,6?/m0/s1
