19
gdb 59917	3.66503	0.74708	0.67476	5.0064	73.59	-0.2418	-0.0282	0.2136	1672.8088	0.154767	-460.189074	-460.178469	-460.177525	-460.226532	36.559	
C	 0.1991633817	 1.3971845641	 0.2653290935	-0.412321
C	-0.03205107	-0.1113485962	 0.2343359122	 0.139046
O	-0.0331179196	-0.6644047639	 1.5498595196	-0.427913
C	-1.3217805822	-0.4832145603	-0.5353260771	-0.299753
C	-1.4380721771	-1.9922291758	-0.7071781541	 0.378292
O	-0.9352459209	-2.5541436699	-1.6538643625	-0.3042
C	-2.1631030011	-2.7547073737	 0.3938865635	-0.399664
C	-2.2259681205	-4.2492456359	 0.1594617023	 0.170002
O	-3.2182367485	-4.9095221922	 0.3297803043	-0.244243
H	 1.1081627238	 1.6257003181	 0.8284503121	 0.133099
H	 0.3042147263	 1.8027575078	-0.7451862641	 0.129694
H	-0.643427454	 1.9113939879	 0.7451661172	 0.112288
H	 0.8107782494	-0.5976809346	-0.2695792177	 0.11653
H	-0.6050819105	-0.1170463548	 2.1000347742	 0.281918
H	-2.1887802147	-0.074624105	-0.0019010563	 0.096938
H	-1.2812523087	-0.0392817144	-1.5341563611	 0.128021
H	-1.6008208893	-2.5551093122	 1.3191725525	 0.164472
H	-3.1737460771	-2.3607976457	 0.5464253996	 0.137889
H	-1.2720930469	-4.7068507334	-0.171810208	 0.099903
38.9852	44.6863	65.4189	92.891	166.165	219.1324	249.4044	285.7983	325.649	380.032	417.1164	458.3035	478.6348	544.0528	657.8169	738.1284	841.1931	875.0921	908.9406	937.5968	1009.654	1019.084	1073.7971	1080.8318	1120.8708	1133.8427	1198.412	1221.4255	1291.4567	1314.9062	1332.1909	1365.7495	1405.1595	1422.5831	1425.691	1433.0867	1467.3099	1491.9755	1495.5602	1800.3101	1835.6007	2934.1458	3014.974	3025.2935	3033.0663	3056.8323	3083.9095	3097.0679	3106.6264	3123.2477	3795.3399
CC(O)CC(=O)CC=O	C[C@@H](O)CC(=O)CC=O	
InChI=1S/C6H10O3/c1-5(8)4-6(9)2-3-7/h3,5,8H,2,4H2,1H3	InChI=1S/C6H10O3/c1-5(8)4-6(9)2-3-7/h3,5,8H,2,4H2,1H3/t5-/m1/s1
