16
gdb 15950	3.71503	1.82274	1.49325	1.6167	60.04	-0.253	0.0448	0.2979	861.3767	0.130474	-420.820896	-420.813632	-420.812688	-420.852682	26.918	
O	 0.0018788607	 1.4428819905	-0.0617820245	-0.416608
C	 0.0920278099	 0.0380354568	 0.1015208452	-0.16069
C	-1.2838167773	-0.5731300519	 0.0435540301	 0.386741
C	-2.2729967137	-0.4844672518	 1.2182608809	-0.115977
O	-2.6681443166	-1.8711388765	 1.0252208539	-0.294063
C	-1.7234358235	-2.0518932597	-0.0405342023	-0.003862
C	-2.2848999056	-1.6776417384	-1.4192677505	-0.098703
O	-1.9282390755	-0.2813213871	-1.2238128887	-0.344091
H	-0.4794593068	 1.5868107741	-0.8858577343	 0.298345
H	 0.7303731198	-0.4205519474	-0.6699355743	 0.092626
H	 0.55626317	-0.1426980801	 1.0763419573	 0.114123
H	-1.8150241507	-0.3373899735	 2.2040949547	 0.107312
H	-3.1016359486	 0.2160802158	 1.0780775852	 0.117878
H	-1.1044634546	-2.9437325891	 0.0742266568	 0.09099
H	-1.7466379336	-2.1076958154	-2.2731012883	 0.107125
H	-3.3629619339	-1.8241987465	-1.5385820013	 0.118854
79.1054	150.4214	169.6481	312.0199	349.2009	403.7766	437.5102	457.7907	698.3638	708.6351	841.8919	904.8989	912.403	921.1704	987.9932	989.384	1033.0916	1060.55	1071.4205	1099.6387	1133.3833	1148.618	1162.9874	1188.8518	1252.8531	1274.4273	1311.9888	1338.3272	1373.1933	1383.7638	1437.101	1496.2887	1501.0065	1506.3455	2983.0446	3021.5847	3024.9323	3079.7981	3087.5547	3091.9487	3096.5671	3788.2031
OCC12COC1CO2	OC[C@]12CO[C@H]1CO2	
InChI=1S/C5H8O3/c6-2-5-3-7-4(5)1-8-5/h4,6H,1-3H2	InChI=1S/C5H8O3/c6-2-5-3-7-4(5)1-8-5/h4,6H,1-3H2/t4-,5-/m0/s1
