20
gdb 61826	2.51144	1.10829	0.89008	4.2725	76.5	-0.2498	0.0273	0.2771	1356.4771	0.169357	-440.293265	-440.283214	-440.28227	-440.329361	36.229	
C	 0.0252814635	 1.4325213328	-0.1766038695	-0.395549
C	 0.0165818795	-0.0867764884	 0.0323002236	 0.032946
N	 0.7508192396	-0.4683508148	 1.2483199696	-0.288651
C	 2.108198084	-0.5343609457	 1.2983747144	 0.150031
O	 2.8477140024	-0.3867829537	 0.3480937606	-0.324671
C	-1.3831035266	-0.6566134111	 0.1065562692	-0.062203
C	-2.106084142	-1.074403516	-1.1577970165	-0.309932
C	-1.6173936789	-2.1188037216	-0.2012116662	 0.101743
O	-0.5509849693	-2.904293359	-0.6446689858	-0.416618
H	 1.05320021	 1.7970402988	-0.2420831889	 0.142602
H	-0.4963152338	 1.690722233	-1.1031125108	 0.122451
H	-0.4766810496	 1.9460744518	 0.6510296706	 0.104943
H	 0.5528519982	-0.5600171503	-0.7935700189	 0.123916
H	 0.2449876692	-0.491653302	 2.1209878952	 0.241611
H	 2.4742262227	-0.7643045579	 2.3200610772	 0.073637
H	-2.0029011855	-0.225114155	 0.8915369765	 0.080003
H	-3.1711708942	-0.8898691237	-1.2366715182	 0.115185
H	-1.5573738388	-0.9942727845	-2.0901583859	 0.130739
H	-2.3595613159	-2.647855311	 0.3967404528	 0.085375
H	 0.0701882056	-3.0058571619	 0.085190561	 0.292444
32.3483	51.0371	130.8669	162.9951	215.1294	233.086	253.1487	330.5644	364.9438	368.9412	439.9265	473.9018	533.8791	610.008	739.4671	806.8738	836.2549	865.548	899.2348	979.0135	995.1132	1029.716	1033.4509	1068.463	1098.3204	1127.3404	1133.6304	1176.2804	1189.157	1211.9316	1238.2663	1295.6857	1307.3885	1379.0887	1399.2778	1410.6437	1425.9289	1428.7114	1480.8588	1488.8198	1499.234	1516.8297	1801.7998	2922.7427	3035.3506	3089.3335	3095.4503	3107.5917	3117.636	3128.9775	3138.2844	3227.6032	3615.9315	3797.1072
CC(NC=O)C1CC1O	C[C@@H](NC=O)[C@H]1C[C@H]1O	
InChI=1S/C6H11NO2/c1-4(7-3-8)5-2-6(5)9/h3-6,9H,2H2,1H3,(H,7,8)	InChI=1S/C6H11NO2/c1-4(7-3-8)5-2-6(5)9/h3-6,9H,2H2,1H3,(H,7,8)/t4-,5-,6-/m1/s1
