15
gdb 75070	2.02267	1.88774	1.0339	2.8943	73.57	-0.2359	-0.0299	0.2061	1100.1602	0.111893	-416.807641	-416.799278	-416.798334	-416.840911	31.403	
N	 0.0191822361	 1.299754716	-0.02221685	-0.560302
C	-0.0357080205	-0.0652922635	-0.0074823053	 0.379864
N	-1.110425555	-0.7422542647	 0.1499486559	-0.291108
C	-0.8003092881	-2.1627184484	 0.1669729917	-0.271727
C	 0.69252529	-2.3073788891	-0.1550709162	 0.384952
O	 1.3034404037	-3.3068859194	-0.3970606592	-0.28707
C	 1.2660073209	-0.8583759062	-0.0991673822	-0.391183
C	 2.1509337959	-0.4856807403	-1.1841843401	 0.321531
C	 2.8645918126	-0.1531690499	-2.0925667985	-0.449689
H	 0.7878710175	 1.7076529489	-0.5329523629	 0.263655
H	-0.870372927	 1.7625812325	-0.1427811276	 0.261551
H	-1.0092297614	-2.6163047312	 1.1466855867	 0.135768
H	-1.4004413326	-2.7190882024	-0.5634647316	 0.1404
H	 1.8023586321	-0.7721071434	 0.8583965025	 0.156134
H	 3.5044012058	 0.1197545313	-2.8953265933	 0.207224
51.4761	121.4443	173.1118	248.8809	326.8328	395.9684	409.6328	458.8684	477.5465	540.1595	570.3004	597.1995	631.7428	649.0729	666.9092	713.6805	782.0857	906.4726	967.6866	1013.2255	1029.2844	1110.6066	1157.3041	1194.4353	1203.9363	1273.0704	1304.0108	1402.3127	1461.9378	1625.7257	1728.9333	1874.5047	2236.4947	2998.427	3010.8333	3052.8789	3500.8353	3566.7436	3680.8411
NC1=NCC(=O)C1C#C	NC1=NCC(=O)[C@H]1C#C	
InChI=1S/C6H6N2O/c1-2-4-5(9)3-8-6(4)7/h1,4H,3H2,(H2,7,8)	InChI=1S/C6H6N2O/c1-2-4-5(9)3-8-6(4)7/h1,4H,3H2,(H2,7,8)/t4-/m1/s1
