18
gdb 112989	2.45689	1.16716	0.95773	3.2038	75.71	-0.2489	-0.0332	0.2157	1296.3911	0.146273	-439.119788	-439.110371	-439.109426	-439.155322	32.525	
C	-0.2124132398	 1.5996437524	 0.4231499584	-0.37871
C	-0.1761134911	 0.148913472	-0.0638212403	-0.16132
N	-1.4796865734	-0.4784838199	-0.078392381	-0.068275
C	-2.4144966966	-0.8477118113	 0.9949972875	-0.191864
C	-3.3501194435	-1.4225349828	-0.0948897997	-0.256314
C	-4.6650958665	-0.7227138942	-0.3081732612	 0.150378
O	-5.0395744659	 0.2319113645	 0.3258589699	-0.241204
C	-2.2258110307	-0.9780670536	-1.1063232627	 0.396851
O	-2.06024283	-1.041461657	-2.294322408	-0.364688
H	 0.7950625531	 2.0261839701	 0.410973064	 0.124474
H	-0.8548291377	 2.2090282479	-0.2184890103	 0.13698
H	-0.5914501323	 1.6659136122	 1.4477933396	 0.125868
H	 0.1956883389	 0.0943488618	-1.0914351933	 0.144351
H	 0.504907277	-0.4434386152	 0.5624271091	 0.11209
H	-2.0105810095	-1.585570114	 1.6961168191	 0.112375
H	-2.8397334634	 0.0011084197	 1.535185526	 0.141204
H	-3.4858319737	-2.5074422153	-0.0963126935	 0.12052
H	-5.2757382349	-1.1416027074	-1.1362045935	 0.097286
51.5303	60.969	107.2688	128.8778	187.7507	217.7885	280.5646	296.6497	369.5899	484.5253	626.5887	685.388	705.9346	762.1838	794.0522	850.034	922.7056	982.4535	1016.749	1044.748	1067.8027	1085.5	1110.858	1144.4528	1165.5615	1233.697	1260.8606	1315.9614	1354.1257	1389.5489	1411.7367	1418.5589	1430.4209	1481.626	1492.6328	1503.9874	1522.8129	1815.0778	1882.6567	2908.348	3014.4043	3042.0595	3045.924	3088.7314	3090.2486	3112.412	3115.6082	3124.411
CCN1CC(C=O)C1=O	CCN1C[C@@H](C=O)C1=O	
InChI=1S/C6H9NO2/c1-2-7-3-5(4-8)6(7)9/h4-5H,2-3H2,1H3	InChI=1S/C6H9NO2/c1-2-7-3-5(4-8)6(7)9/h4-5H,2-3H2,1H3/t5-/m0/s1
