14
gdb 131099	3.31653	1.1955	0.91185	2.3885	67.76	-0.2657	-0.0189	0.2467	1190.224	0.099929	-436.628352	-436.620253	-436.619308	-436.661855	29.452	
O	 0.5427123614	 1.5859580505	-0.1448503474	-0.404678
C	 0.1601273312	 0.2224959216	 0.0048079513	-0.180091
C	 0.4347486062	-0.5685292274	-1.2014317833	 0.300185
C	 0.6847815407	-1.2058268321	-2.1889487324	-0.444867
C	 0.7940136368	-0.3950709825	 1.228594214	 0.129679
C	 1.2548111444	 0.2521064783	 2.3320861917	-0.007207
O	 1.7351258117	-0.6227596563	 3.2259088403	-0.163005
N	 1.5955487991	-1.9112713007	 2.7189611635	-0.132771
C	 1.0414151179	-1.7618944448	 1.5421671243	-0.048021
H	 1.474218977	 1.596502574	-0.3955034448	 0.289173
H	-0.9279483622	 0.2663257925	 0.1454725858	 0.142983
H	 0.8947030468	-1.7648832912	-3.0677841508	 0.209439
H	 1.3053594126	 1.2941959122	 2.6034061657	 0.165072
H	 0.8370173465	-2.6336037542	 0.9372101321	 0.144109
43.3435	112.4166	175.804	213.6728	283.2953	342.8522	415.9058	475.836	577.4116	611.7209	640.2422	652.682	685.6511	780.6004	867.0101	896.563	918.5801	930.7781	940.1565	1037.3701	1062.1161	1148.7876	1198.5819	1260.4648	1267.8353	1320.4813	1381.1204	1419.5946	1475.5577	1642.1292	2236.6982	3024.066	3250.7661	3278.6138	3499.9718	3795.0464
OC(C#C)C1=CON=C1	O[C@@H](C#C)c1conc1	
InChI=1S/C6H5NO2/c1-2-6(8)5-3-7-9-4-5/h1,3-4,6,8H	InChI=1S/C6H5NO2/c1-2-6(8)5-3-7-9-4-5/h1,3-4,6,8H/t6-/m0/s1
