20
gdb 103391	2.28344	1.50302	1.31574	1.9061	79.24	-0.2381	-0.0217	0.2164	1109.8522	0.169438	-403.12822	-403.119038	-403.118094	-403.161966	34.544	
C	-0.1347317549	 1.5825637419	 0.0672838217	-0.391102
C	 0.1234714893	 0.0695716864	 0.116340787	-0.239318
C	 0.6845247058	-0.495586935	-1.1888078048	 0.179832
C	 2.0627671908	 0.0786035731	-1.5295508738	-0.425423
N	 0.786511569	-2.0195973103	-1.2817876958	-0.144759
C	-0.5660557474	-2.5589133141	-1.2398422239	-0.248823
C	-0.0829305896	-2.0041026536	-2.5378830218	-0.158688
C	-0.1735566448	-0.5078964994	-2.482857227	 0.393163
O	-0.5553015095	 0.3426900099	-3.2359672486	-0.328239
H	 0.7944512519	 2.1517408942	-0.0234643922	 0.123021
H	-0.7710955776	 1.8448359441	-0.7830468851	 0.14339
H	-0.6347208877	 1.9120258866	 0.9826964012	 0.115646
H	 0.8303145995	-0.1682343116	 0.9222157939	 0.108356
H	-0.8136102124	-0.4334215177	 0.3737462293	 0.099798
H	 2.7463309119	-0.0683715379	-0.6876039698	 0.124798
H	 2.4865113367	-0.4259870081	-2.4019141646	 0.12762
H	 1.9929647357	 1.1458069622	-1.7512650623	 0.136447
H	-0.5979805161	-3.6419289563	-1.1646177056	 0.135711
H	-1.3543779415	-2.04973845	-0.6939751051	 0.127139
H	 0.107579861	-2.6227543244	-3.4073690129	 0.121431
72.5278	122.9068	169.3698	197.621	230.3809	251.5992	301.053	322.1535	386.4245	479.5743	494.7789	651.2039	665.555	726.6346	771.3431	802.9704	810.7135	915.694	928.5936	943.0024	1009.4675	1023.1618	1036.8058	1051.3221	1087.1385	1113.2265	1129.096	1162.7254	1212.0434	1217.3604	1247.9225	1300.5498	1318.0515	1363.3273	1402.0728	1414.2862	1477.4336	1484.1672	1496.134	1500.2117	1506.9928	1514.8861	1880.9835	3024.0809	3043.8517	3045.7875	3070.928	3113.6773	3116.4282	3120.0692	3122.2985	3134.1473	3184.8308	3205.1481
CCC1(C)N2CC2C1=O	CC[C@@]1(C)N2C[C@H]2C1=O	
InChI=1S/C7H11NO/c1-3-7(2)6(9)5-4-8(5)7/h5H,3-4H2,1-2H3	InChI=1S/C7H11NO/c1-3-7(2)6(9)5-4-8(5)7/h5H,3-4H2,1-2H3/t5-,7+,8?/m0/s1
