17
gdb 78410	3.15005	1.46744	1.28309	4.5448	72.61	-0.2231	0.0273	0.2505	1029.6794	0.136527	-417.958522	-417.951113	-417.950169	-417.990182	29.316	
C	-0.2046465055	 1.2499658788	-0.0230048128	-0.322659
N	 0.0904514612	-0.1751672713	 0.10137754	-0.095198
C	 1.5002907308	-0.5064004745	-0.1403914445	-0.060597
C	 0.9492412472	-0.500455171	 1.2485478686	-0.029929
C	 1.0520147046	-2.0449350278	 1.3444516979	-0.237768
C	 1.6393873976	-2.0620767709	-0.0981270686	-0.013203
N	 0.5028580182	-2.8857048407	-0.5043068023	-0.314931
C	-0.1473858949	-2.8192009645	 0.7260593274	 0.429921
O	-1.2092932086	-3.2283330276	 1.0990690333	-0.354249
H	 0.615438824	 1.9070277549	 0.3112539583	 0.100251
H	-0.422474996	 1.4787646529	-1.0706227181	 0.12759
H	-1.0940573397	 1.4794534985	 0.5709202091	 0.135329
H	 2.1578847251	 0.1975950013	-0.6364348921	 0.09487
H	 1.0885321926	 0.2113107055	 2.0524840136	 0.100291
H	 1.5785129299	-2.4636695915	 2.1986854476	 0.102025
H	 2.6274609688	-2.4603237905	-0.3276621059	 0.091555
H	 0.0588470547	-2.9497682616	-1.4104699815	 0.2467
116.9514	200.2769	238.9083	282.6709	298.0885	394.6173	466.6705	493.0992	587.6544	694.6391	733.732	762.3143	804.9927	837.6855	849.9309	889.8163	926.7993	955.7662	978.4877	1008.4525	1032.585	1099.4991	1124.3412	1134.6535	1145.4728	1162.0186	1209.0537	1214.275	1245.2958	1277.692	1315.9375	1344.2075	1366.6204	1453.8899	1493.711	1499.5206	1899.635	2965.4962	3073.864	3111.924	3115.0532	3153.3174	3181.3006	3198.4851	3589.0823
CN1C2C1C1C2NC1=O	CN1[C@H]2[C@@H]1[C@@H]1[C@H]2NC1=O	
InChI=1S/C6H8N2O/c1-8-4-2-3(5(4)8)7-6(2)9/h2-5H,1H3,(H,7,9)	InChI=1S/C6H8N2O/c1-8-4-2-3(5(4)8)7-6(2)9/h2-5H,1H3,(H,7,9)/t2-,3+,4-,5+,8?/m0/s1
