18
gdb 80278	2.42327	1.53499	1.27352	3.6927	71.85	-0.2404	0.0246	0.265	1064.2548	0.147511	-439.11656	-439.107996	-439.107052	-439.149508	32.818	
C	-0.0504098255	 1.5130139523	-0.0162394913	-0.479495
C	 0.0474443855	 0.0115245636	 0.0382511279	 0.271371
N	-1.1420301855	-0.7350819417	-0.2826500023	-0.363757
C	-1.3964992953	-1.8285353033	 0.5221195845	 0.383889
O	-2.3566752353	-2.5568196211	 0.4354616424	-0.36403
C	-0.2087236013	-1.9459105223	 1.4924139141	-0.353436
C	 0.7071484647	-0.7819584647	 1.1597661113	-0.151017
C	 1.328514394	-0.7504765603	-0.2290126754	 0.081919
O	 1.3463531917	-1.8868683565	-1.0310587808	-0.430718
H	 0.898412619	 1.9666921972	 0.2831403128	 0.13023
H	-0.2772003034	 1.865168056	-1.0297127432	 0.122926
H	-0.8326512591	 1.881063288	 0.6565816527	 0.129039
H	-1.805635444	-0.4470393888	-0.9847581187	 0.252276
H	-0.5803100007	-1.9084786081	 2.5197868675	 0.133104
H	 0.2638782825	-2.9218101735	 1.3453590987	 0.147678
H	 1.2163091248	-0.2607896512	 1.9623990684	 0.095236
H	 2.2356192827	-0.1610009082	-0.3351247541	 0.102332
H	 0.4772193654	-1.9713723773	-1.4430169246	 0.292452
77.2558	178.4452	209.32	221.7865	251.5872	292.7046	304.2496	445.5176	466.3656	547.9068	558.6784	592.6072	615.5426	680.4184	763.6236	819.5059	853.8524	887.7309	951.6704	987.0062	1030.7264	1059.0459	1072.374	1128.365	1151.2313	1187.207	1215.3592	1236.8674	1287.1262	1302.4627	1337.4286	1354.1009	1396.5008	1418.856	1452.4454	1468.7173	1486.9293	1501.1159	1834.8455	3026.2567	3065.5557	3087.5597	3108.4513	3113.7567	3142.2465	3174.9355	3636.8962	3766.5001
CC12NC(=O)CC1C2O	C[C@]12NC(=O)C[C@H]1[C@H]2O	
InChI=1S/C6H9NO2/c1-6-3(5(6)9)2-4(8)7-6/h3,5,9H,2H2,1H3,(H,7,8)	InChI=1S/C6H9NO2/c1-6-3(5(6)9)2-4(8)7-6/h3,5,9H,2H2,1H3,(H,7,8)/t3-,5+,6-/m0/s1
