15
gdb 112250	2.02039	1.52688	0.95648	2.0763	62.39	-0.2758	-0.0534	0.2225	1173.459	0.110728	-494.921765	-494.91312	-494.912176	-494.955972	30.176	
O	 0.0088959381	 1.3191607606	-0.0846800163	-0.415314
C	 0.0725087729	-0.0894674805	 0.0192774041	-0.078157
C	-1.3143808913	-0.6502334243	 0.2757368426	 0.099971
O	-2.1785407069	-0.4004379517	-0.9058399573	-0.261072
C	-2.4259634045	-1.7297803756	-1.0883058736	 0.449463
O	-3.062080489	-2.2581085467	-1.9388966671	-0.309571
C	-1.6106542583	-2.1579660628	 0.1502997147	-0.326653
C	-0.5260961201	-3.1850133831	-0.072543935	 0.143786
O	 0.6469836061	-2.9989657627	 0.1185431494	-0.230083
H	-0.5377128216	 1.5266917228	-0.851098808	 0.296729
H	 0.5092373599	-0.5514836438	-0.8754146895	 0.109402
H	 0.7259654623	-0.3249283357	 0.8628546676	 0.137156
H	-1.7642475512	-0.1662482683	 1.1453053071	 0.117549
H	-2.2876933783	-2.5452056252	 0.9207484949	 0.149496
H	-0.9125953381	-4.1613971432	-0.4339797038	 0.117298
68.264	99.268	132.523	155.3133	190.8567	266.1177	373.6392	408.643	439.3997	501.9304	642.5218	685.2055	755.7188	839.3421	861.5586	899.471	995.9863	1012.9271	1074.3394	1079.6137	1114.7333	1150.5871	1166.5337	1218.4944	1287.673	1318.9695	1348.3343	1399.9324	1419.1988	1430.5293	1481.4791	1825.3354	1938.6495	2916.0451	3028.3296	3059.7197	3097.2994	3114.6481	3804.7344
OCC1OC(=O)C1C=O	OC[C@H]1OC(=O)[C@H]1C=O	
InChI=1S/C5H6O4/c6-1-3-4(2-7)9-5(3)8/h1,3-4,7H,2H2	InChI=1S/C5H6O4/c6-1-3-4(2-7)9-5(3)8/h1,3-4,7H,2H2/t3-,4+/m0/s1
