16
gdb 31389	2.81624	1.39135	0.93671	5.6701	76.53	-0.2188	-0.0242	0.1947	1186.8304	0.12654	-434.103055	-434.095083	-434.094139	-434.135932	29.914	
O	 0.0754821366	 1.3981390753	-0.264448223	-0.41512
C	 0.0420022581	 0.0134044214	-0.1147165799	-0.128307
C	-1.3822371313	-0.4960215404	 0.0073879764	 0.377695
N	-2.3403327059	 0.3595770386	-0.0386010683	-0.389682
C	-3.6881220566	-0.0634410636	 0.0709863634	 0.329101
N	-4.6782684349	 0.7465436139	 0.0311133379	-0.535428
C	-3.8994474424	-1.5016756876	 0.2361726317	-0.130764
C	-2.8538479042	-2.34084074	 0.2759307664	-0.011389
N	-1.5650024353	-1.8410726297	 0.1592860568	-0.355688
H	-0.8581476489	 1.674527399	-0.2491373913	 0.295414
H	 0.518731358	-0.488792488	-0.9739940783	 0.111425
H	 0.6018282795	-0.3010373779	 0.7829188023	 0.11123
H	-4.3236641548	 1.697723311	-0.0881679999	 0.20991
H	-4.9144856702	-1.8642613221	 0.3242448785	 0.124469
H	-2.9362829501	-3.4134969138	 0.3950583131	 0.137218
H	-0.7712376575	-2.4594894961	 0.1915030141	 0.269915
75.6147	126.7825	180.977	201.9285	400.004	419.0056	430.669	465.7045	466.5058	543.3819	588.8838	620.6238	738.4305	746.9115	835.4452	903.2856	938.9069	967.9644	1011.2535	1036.4274	1060.4349	1128.3726	1152.8225	1214.6513	1249.8393	1252.5226	1330.0467	1344.8947	1426.1967	1473.9482	1509.8465	1524.719	1647.9651	1688.1541	1725.2053	2958.1394	2971.6456	3215.7147	3238.0351	3458.945	3623.7323	3649.9294
OCC1=NC(=N)C=CN1	OC[C@H]1N=C([NH])C=CN1	
InChI=1S/C5H7N3O/c6-4-1-2-7-5(3-9)8-4/h1-2,9H,3H2,(H2,6,7,8)	InChI=1S/C5H8N3O/c6-4-1-2-7-5(3-9)8-4/h1-2,5-7,9H,3H2/t5-/m1/s1
