17
gdb 99067	3.6572	0.83916	0.75842	4.0221	71.63	-0.2694	0.0146	0.284	1520.6217	0.13413	-455.201623	-455.191362	-455.190418	-455.23859	34.477	
C	 0.1036437771	 1.286297779	 0.1626620177	-0.332656
N	-0.080466911	-0.1482831026	 0.0795150015	-0.359607
C	-1.3033198553	-0.7198359428	-0.0001986104	 0.539394
O	-2.3700866942	-0.1468881225	-0.0276072316	-0.409977
O	-1.1615844408	-2.0836185535	-0.0549322996	-0.283787
C	-2.3923086292	-2.8156314442	-0.1329922564	-0.015132
C	-2.7504223767	-3.1246836937	-1.5874345029	-0.402562
C	-2.2100976106	-4.039129024	 0.660616051	 0.281715
N	-2.0981677949	-5.0141245313	 1.2692119329	-0.315896
H	 0.7153572124	 1.6556965709	-0.6673434032	 0.132331
H	-0.8818642974	 1.7496781306	 0.110521233	 0.173346
H	 0.5805202517	 1.5730078018	 1.1062515236	 0.13402
H	 0.7142018635	-0.7646985287	 0.1182942405	 0.261452
H	-3.1822049504	-2.2100445969	 0.3216002305	 0.162393
H	-1.9412214575	-3.6748911571	-2.072953661	 0.142957
H	-3.6630430615	-3.7247987767	-1.6324404815	 0.14287
H	-2.9207218455	-2.1833994483	-2.114276914	 0.149138
29.8604	60.3528	80.2236	127.8619	150.0021	185.6639	235.7095	274.843	347.4015	381.2266	444.8107	487.9549	567.8121	583.7535	721.4138	772.1733	842.3525	907.7034	975.0692	1058.404	1109.4808	1138.0251	1158.5441	1160.356	1179.3915	1250.7679	1340.7427	1364.2019	1405.7031	1448.8255	1486.1127	1493.4335	1497.5383	1500.1675	1570.9359	1822.3359	2367.9764	3032.3929	3055.6024	3078.5807	3085.6181	3136.1688	3146.0541	3157.7578	3655.0699
CNC(=O)OC(C)C#N	CNC(=O)O[C@@H](C)C#N	
InChI=1S/C5H8N2O2/c1-4(3-6)9-5(8)7-2/h4H,1-2H3,(H,7,8)	InChI=1S/C5H8N2O2/c1-4(3-6)9-5(8)7-2/h4H,1-2H3,(H,7,8)/t4-/m0/s1
