17
gdb 47670	2.31822	1.68166	1.07164	4.5866	72.01	-0.2659	0.0017	0.2676	1101.641	0.137755	-455.155355	-455.147442	-455.146498	-455.188416	29.714	
N	-0.0795537477	 1.3230621968	 0.1269898713	-0.469761
C	 0.0322533551	 0.0772525747	-0.0558928039	 0.357237
C	-1.2116105955	-0.7889903767	-0.1170619144	-0.346313
C	-1.4293149409	-1.6076567608	-1.3709117655	 0.369075
N	-2.4052183469	-1.3620139323	-2.1360663259	-0.487924
O	-0.5760686973	-2.6450918401	-1.6236284429	-0.244581
C	 0.587078337	-2.8134678483	-0.8169576472	-0.103646
C	 1.549650593	-1.6385463018	-0.8996027217	-0.090593
O	 1.2614239886	-0.5286797363	-0.0502281089	-0.24892
H	 0.8484453756	 1.7489389953	 0.1846076945	 0.223457
H	-1.2020063558	-1.4602888283	 0.7517738525	 0.135682
H	-2.0637073902	-0.1204242615	-0.0256258384	 0.171735
H	-2.4159987022	-2.024560673	-2.914880066	 0.222251
H	 0.325222265	-3.0300303501	 0.2261865907	 0.123456
H	 1.0814709783	-3.6968924448	-1.2294483855	 0.132118
H	 2.5429899794	-1.9699142546	-0.5844128344	 0.129224
H	 1.6135934845	-1.3052259983	-1.9442201545	 0.127501
58.7647	116.7235	144.0859	317.2009	324.7957	378.323	444.3285	485.012	511.908	568.8581	588.6952	668.256	823.0438	845.8362	896.6284	920.7746	933.9544	979.3222	986.4497	1040.4652	1056.8158	1100.7813	1145.3327	1172.1951	1206.4687	1267.1871	1300.6867	1322.6359	1326.7784	1353.5232	1414.8077	1427.0271	1459.9301	1491.9143	1498.9283	1740.9782	1756.3336	3022.0354	3030.4133	3039.1929	3097.4935	3105.4582	3175.2008	3460.5252	3461.5902
N=C1CC(=N)OCCO1	[NH][C]1C[C]([NH])OCCO1	
InChI=1S/C5H8N2O2/c6-4-3-5(7)9-2-1-8-4/h6-7H,1-3H2	InChI=1S/C5H8N2O2/c6-4-3-5(7)9-2-1-8-4/h6-7H,1-3H2
