23
gdb 122827	6.62907	0.50978	0.48181	1.8783	84.34	-0.2641	0.022	0.2861	2367.0444	0.20311	-425.480811	-425.469366	-425.468422	-425.519699	39.037	
C	 0.0401490882	 1.5932839593	-0.0919602856	-0.380676
C	 0.0271818317	 0.0629687817	-0.0494038462	-0.166585
C	 0.7182317585	-0.570450917	-1.2622069122	-0.185479
C	 0.6986844265	-2.0890931516	-1.2081126917	-0.062887
O	 1.368174006	-2.5812215812	-2.3845583406	-0.249806
C	 1.4440569068	-3.9225017373	-2.502873226	 0.443827
O	 0.9904155201	-4.6920410377	-1.6927342891	-0.355181
C	 2.1682895543	-4.3094161258	-3.777331524	-0.301394
C	 2.2806359253	-5.8210217733	-3.9584741985	-0.369615
H	 1.0651126039	 1.9794578397	-0.1137628112	 0.116233
H	-0.472930167	 1.9682812874	-0.9843069081	 0.116233
H	-0.4585068471	 2.0200051169	 0.783566002	 0.114332
H	 0.5166285052	-0.2825929402	 0.8705434484	 0.100304
H	-1.0096038426	-0.2936828147	 0.0066953673	 0.100307
H	 0.2291295151	-0.2395587207	-2.1867683626	 0.104801
H	 1.758942695	-0.2283991887	-1.3209117565	 0.104803
H	 1.2114934905	-2.4713237382	-0.3187646174	 0.118059
H	-0.3234534357	-2.4825479007	-1.1875571257	 0.11809
H	 1.6384342275	-3.842039331	-4.6158682345	 0.130326
H	 3.1553238457	-3.8322600594	-3.7568278497	 0.13033
H	 2.8080212809	-6.0573662556	-4.8868254973	 0.110376
H	 2.8238658173	-6.2755434766	-3.1261732233	 0.131806
H	 1.2919529736	-6.2854200952	-3.9939349174	 0.131796
24.1495	46.0662	72.897	82.7745	122.0133	169.0637	203.0837	218.9846	247.5261	271.4515	308.4845	425.9767	504.078	580.5979	665.3847	744.4314	804.8638	811.8224	879.2627	924.4988	949.9072	988.2198	1017.9945	1048.5151	1074.4509	1104.5822	1107.3788	1144.3419	1192.3955	1217.124	1252.6223	1276.9222	1295.0901	1307.7034	1328.0607	1373.0849	1389.2829	1413.214	1417.1092	1424.9917	1459.1096	1488.8343	1494.2834	1495.712	1499.6848	1500.7788	1508.7337	1521.5348	1816.795	3016.5131	3027.6991	3032.5773	3041.2385	3042.4852	3043.661	3052.0324	3064.0651	3070.7081	3090.9534	3099.8472	3104.959	3123.3644	3129.1022
CCCCOC(=O)CC	CCCCOC(=O)CC	
InChI=1S/C7H14O2/c1-3-5-6-9-7(8)4-2/h3-6H2,1-2H3	InChI=1S/C7H14O2/c1-3-5-6-9-7(8)4-2/h3-6H2,1-2H3
