17
gdb 91793	2.39137	1.75119	1.2734	1.5371	68.69	-0.2434	-0.0345	0.2089	1008.9506	0.135525	-458.971132	-458.962868	-458.961924	-459.003758	31.823	
O	-0.489838686	 1.1525375737	-1.0307206728	-0.422794
C	-0.1506395523	 0.1214095821	-0.1056720523	-0.007843
C	-1.3985666077	-0.7285383615	 0.2048064289	-0.235263
C	-1.3177990097	-1.9580329696	-0.7027925397	-0.118485
C	-1.1397913635	-1.6828759948	-2.1689442632	-0.341871
C	 0.0769599233	-2.0187766317	-1.3222285043	 0.346094
O	 0.7954694176	-3.1715444965	-1.5753592464	-0.477822
C	 0.8300164203	-0.8787582796	-0.750032427	 0.317417
O	 2.0405651229	-0.820251012	-0.7179579961	-0.36174
H	 0.3214424618	 1.6218778971	-1.2568797374	 0.296412
H	 0.3022846816	 0.5448023794	 0.7993274575	 0.095369
H	-1.3773108395	-1.035749118	 1.2549360384	 0.114096
H	-2.3069123303	-0.1401864633	 0.0431975707	 0.122621
H	-1.8057863568	-2.8769579496	-0.4000852459	 0.106331
H	-1.4040971943	-2.4854444471	-2.8491934874	 0.131962
H	-1.2788553142	-0.6761983021	-2.5456406571	 0.140284
H	 1.7219614569	-2.9314333764	-1.424119566	 0.29523
78.6544	159.8742	218.456	278.2806	318.5288	337.8571	363.1274	381.5611	438.4562	473.9594	569.084	639.8806	673.2743	807.3504	838.2413	849.2993	892.6694	899.9046	972.8028	1002.6521	1036.0304	1066.3354	1081.4145	1108.2826	1119.6535	1204.666	1213.9811	1240.692	1294.626	1333.5351	1337.302	1389.7172	1411.3778	1428.3108	1472.2524	1486.8859	1807.5181	3028.0168	3054.1827	3098.0907	3136.348	3186.2746	3233.7364	3724.4071	3801.0453
OC1CC2CC2(O)C1=O	O[C@H]1C[C@H]2C[C@@]2(O)C1=O	
InChI=1S/C6H8O3/c7-4-1-3-2-6(3,9)5(4)8/h3-4,7,9H,1-2H2	InChI=1S/C6H8O3/c7-4-1-3-2-6(3,9)5(4)8/h3-4,7,9H,1-2H2/t3-,4-,6-/m0/s1
