19
gdb 94074	4.32512	0.94298	0.81361	3.9033	76.	-0.2387	0.025	0.2637	1369.3659	0.161309	-419.223233	-419.214658	-419.213714	-419.256338	32.812	
O	-0.0766843484	 1.4429035818	 0.0063208802	-0.429527
C	 0.0086961034	 0.0270484911	 0.0121205936	 0.127828
C	-1.419334052	-0.5150044156	 0.0433160741	-0.216681
C	-1.43414229	-2.04591035	-0.0526005767	-0.211923
C	-0.6290682459	-2.5035608446	-1.2934086377	-0.103177
N	 0.7342756563	-1.9641468136	-1.3533209526	-0.292872
C	 0.745584435	-0.5053953263	-1.2303441868	-0.200882
C	-0.5792404865	-3.9686487541	-1.3747604399	 0.269121
N	-0.5514214969	-5.1231230274	-1.4038279855	-0.317461
H	 0.8166685418	 1.8013515597	 0.0258550476	 0.28453
H	 0.5414025197	-0.3271293428	 0.9128158799	 0.061202
H	-1.92315616	-0.1798247517	 0.9548053544	 0.112782
H	-1.9671634523	-0.0782309845	-0.8019385969	 0.11065
H	-0.9814087751	-2.491655439	 0.8414621986	 0.111826
H	-2.4606603506	-2.4219019705	-0.1128212424	 0.11974
H	-1.1524172051	-2.1449705148	-2.1916936251	 0.131112
H	 1.2936862554	-2.3841344559	-0.6163198342	 0.228186
H	 0.2689106248	-0.0746961846	-2.120994406	 0.117045
H	 1.7898061163	-0.1714624472	-1.2325288745	 0.098501
81.9303	149.6962	207.8761	226.2206	286.9584	328.9742	333.4823	377.544	451.4911	461.4248	540.761	566.0397	597.2878	743.9742	804.698	866.9942	899.2581	934.458	990.7315	1028.0709	1054.634	1084.1244	1108.4905	1129.6979	1130.1298	1153.2918	1250.1788	1254.6706	1289.452	1318.2027	1334.2724	1345.1012	1357.5383	1371.8546	1392.3208	1439.5729	1477.7582	1482.0588	1492.0144	1500.7016	2364.2258	2939.2318	3008.3281	3020.09	3030.7501	3037.0431	3068.2076	3083.5362	3089.4877	3507.6594	3814.0942
OC1CCC(NC1)C#N	O[C@H]1CC[C@@H](NC1)C#N	
InChI=1S/C6H10N2O/c7-3-5-1-2-6(9)4-8-5/h5-6,8-9H,1-2,4H2	InChI=1S/C6H10N2O/c7-3-5-1-2-6(9)4-8-5/h5-6,8-9H,1-2,4H2/t5-,6+/m1/s1
