15
gdb 42784	2.55913	1.71828	1.44405	4.1941	67.48	-0.2446	-0.0352	0.2094	939.6098	0.114328	-453.940243	-453.93309	-453.932146	-453.971918	27.505	
N	-0.107214807	 1.2493951489	-0.3455176604	-0.542347
C	-0.0226444872	 0.0257712917	-0.0013520498	 0.420844
N	 1.0938657533	-0.6769595441	 0.4178820939	-0.355027
C	 1.0942687738	-2.1266196847	 0.6190678719	-0.168098
C	-0.3509883066	-2.6175064635	 0.5656524625	-0.046459
O	-0.9600634056	-2.1015237989	-0.6487017098	-0.287872
C	-1.2666743261	-0.8408785872	 0.0233571565	-0.107602
C	-1.2688173323	-1.6478445849	 1.3405072674	 0.437136
O	-1.8265364413	-1.6239312591	 2.3896192194	-0.294638
H	 0.7996701323	 1.7209328643	-0.3010535171	 0.20331
H	 1.9880364137	-0.2335866517	 0.273855081	 0.243874
H	 1.6727820978	-2.6360920948	-0.1634455697	 0.125139
H	 1.5342965735	-2.3806873051	 1.5918047702	 0.127755
H	-0.4494744085	-3.6979845406	 0.6844726925	 0.114455
H	-2.1469723599	-0.3259333304	-0.3548158885	 0.12953
115.3176	140.2464	206.7923	363.1177	417.0899	450.0055	469.7781	511.7747	546.8172	643.6897	721.5541	785.8945	834.6804	868.9262	900.5892	927.5593	940.159	1003.9796	1050.0318	1075.3184	1086.72	1156.4755	1172.3861	1207.214	1236.0163	1261.3478	1304.5506	1340.2232	1413.7004	1467.6789	1513.7281	1736.3927	1931.5415	3007.9467	3048.0099	3111.4417	3160.9626	3436.3903	3618.1412
N=C1NCC2OC1C2=O	[NH][C]1NC[C@@H]2O[C@H]1C2=O	
InChI=1S/C5H6N2O2/c6-5-4-3(8)2(9-4)1-7-5/h2,4H,1H2,(H2,6,7)	InChI=1S/C5H6N2O2/c6-5-4-3(8)2(9-4)1-7-5/h2,4H,1H2,(H2,6,7)/t2-,4-/m0/s1
