20
gdb 99377	6.30185	0.50682	0.48907	4.4591	78.89	-0.2464	-0.0204	0.226	2205.0241	0.168253	-440.331836	-440.320823	-440.319879	-440.370564	36.546	
C	 0.0850480731	 1.4648935318	-0.0508995565	-0.334045
N	-0.0923760302	 0.0329944665	-0.1964817221	-0.313737
C	-1.1816614415	-0.6277649863	 0.2906510157	 0.419958
O	-2.1005950102	-0.0665558163	 0.8622794849	-0.375307
C	-1.1562924308	-2.1439674296	 0.0920764711	-0.320551
C	-2.5617338918	-2.7073216871	-0.1373108816	-0.178037
C	-2.5940887142	-4.2437132171	-0.1392265634	-0.280805
C	-4.0040095421	-4.7736614432	-0.2725907935	 0.159841
O	-4.3735106848	-5.5545303741	-1.1109395058	-0.237748
H	 0.9777169325	 1.70011342	 0.5396445409	 0.126089
H	 0.170583318	 1.9565217703	-1.0261627243	 0.126602
H	-0.7953149543	 1.8481354588	 0.4659609896	 0.173341
H	 0.6240647077	-0.4981327651	-0.6622393639	 0.245006
H	-0.4843987588	-2.4228061195	-0.7283764825	 0.098497
H	-0.730644657	-2.581148157	 1.0057120229	 0.129053
H	-3.2172046574	-2.3095939141	 0.643792671	 0.136509
H	-2.9545953787	-2.3308995706	-1.0892985725	 0.115696
H	-1.9860660013	-4.6691023601	-0.9436670551	 0.117605
H	-2.1952580843	-4.6124564234	 0.817990131	 0.117589
H	-4.7142346739	-4.3721209238	 0.488606954	 0.074446
27.6197	52.767	72.9356	79.174	88.9972	133.4496	174.2968	259.2106	272.8767	341.7379	441.3545	469.8219	516.5226	624.9262	712.1307	756.4981	804.4088	900.2282	914.4072	985.9238	1044.8171	1068.2988	1097.3856	1118.731	1154.6387	1170.4956	1179.3991	1225.6289	1260.5902	1284.6768	1324.3816	1356.0179	1393.9387	1430.7696	1438.7007	1462.2694	1465.9302	1493.062	1500.1446	1501.1221	1560.538	1777.4099	1836.93	2855.0026	3004.6855	3018.2903	3028.2777	3042.6886	3059.1097	3080.4721	3082.531	3101.9757	3155.4869	3650.8446
CNC(=O)CCCC=O	CNC(=O)CCCC=O	
InChI=1S/C6H11NO2/c1-7-6(9)4-2-3-5-8/h5H,2-4H2,1H3,(H,7,9)	InChI=1S/C6H11NO2/c1-7-6(9)4-2-3-5-8/h5H,2-4H2,1H3,(H,7,9)
