14
gdb 13162	3.78058	1.5794	1.24251	2.0009	58.51	-0.2452	-0.1003	0.1449	944.4932	0.105169	-419.663122	-419.655254	-419.65431	-419.696836	26.294	
O	-1.0467931715	 1.6542331456	-0.0664043003	-0.217108
C	 0.0001684244	 1.1497458108	-0.3801088657	 0.077286
C	 1.3415818055	 1.8933496164	-0.3214879547	 0.261283
O	 2.3518785761	 1.301627969	-0.6106828993	-0.262377
C	 1.2749465547	 3.3354613899	 0.1373613943	 0.052798
C	 1.160794408	 3.5312485525	 1.6756717649	-0.291392
C	 2.5198665323	 4.2450394582	 1.5192406274	-0.061494
O	 2.5366512532	 4.0037043667	 0.0937174216	-0.27108
H	 0.0979262057	 0.1003494223	-0.730333707	 0.113957
H	 0.4999884913	 3.856560216	-0.4397934123	 0.112076
H	 0.3233420129	 4.1504321583	 1.9945388761	 0.132295
H	 1.1781670838	 2.6141786844	 2.2663901961	 0.122865
H	 2.5199425961	 5.3166910938	 1.7480237686	 0.112748
H	 3.3694122375	 3.768519506	 2.0203592702	 0.118142
45.1703	68.0215	126.4057	154.4049	238.7903	285.3766	498.1011	557.5271	629.9015	738.3015	795.9203	842.7112	948.022	966.2642	975.9246	1040.538	1074.9961	1094.1027	1163.2563	1181.3072	1208.4487	1245.5868	1254.313	1344.3959	1361.9603	1375.8856	1489.7925	1528.9711	1815.8743	1817.1841	2923.5946	3023.6786	3032.1004	3074.9332	3090.59	3151.6719
O=CC(=O)C1CCO1	O=CC(=O)[C@H]1CCO1	
InChI=1S/C5H6O3/c6-3-4(7)5-1-2-8-5/h3,5H,1-2H2	InChI=1S/C5H6O3/c6-3-4(7)5-1-2-8-5/h3,5H,1-2H2/t5-/m1/s1
