15
gdb 25955	4.84865	1.04317	1.00428	2.1736	67.87	-0.2372	0.0077	0.245	1209.0688	0.112593	-453.977903	-453.969838	-453.968894	-454.011681	28.647	
C	-0.2719389872	 1.412783429	-0.115691918	-0.465609
C	 0.1690996373	-0.0164561706	 0.005797553	 0.38193
N	 1.0552130027	-0.5490287739	 0.7242400681	-0.486726
O	-0.5863214201	-0.7967361803	-0.8503530352	-0.272629
C	-0.3405110035	-2.1200378146	-0.8798757509	 0.530023
N	-1.056194782	-3.0559113413	-0.3616373383	-0.338936
C	-0.4131337731	-4.2199902616	-0.7773310494	-0.103386
C	 0.6583638157	-3.8948171686	-1.5339879899	-0.035129
O	 0.7129204877	-2.5259941165	-1.6154537371	-0.168996
H	 0.3054437407	 2.0539005597	 0.5512777764	 0.13464
H	-0.1476207082	 1.7575182652	-1.1466826167	 0.156373
H	-1.3348284809	 1.4979372973	 0.1293992111	 0.160106
H	 1.5218331305	 0.1437274959	 1.3045885476	 0.233071
H	-0.7755096813	-5.1959767831	-0.4975057902	 0.127601
H	 1.4282389115	-4.4376168366	-2.0535292706	 0.147667
58.0206	73.1698	120.5222	138.2812	330.073	351.4906	455.8806	558.471	569.537	631.0976	695.4671	746.1994	809.7949	857.0234	861.7579	916.539	931.6553	977.3288	1033.3604	1062.4265	1070.9786	1103.8362	1141.8858	1176.3977	1275.8092	1333.9253	1393.6805	1412.6211	1469.9476	1480.727	1563.9447	1636.8263	1763.9887	3052.1076	3116.3398	3151.4456	3267.8044	3305.3571	3527.0656
CC(=N)OC1=NC=CO1	C[C]([NH])Oc1ncco1	
InChI=1S/C5H6N2O2/c1-4(6)9-5-7-2-3-8-5/h2-3,6H,1H3	InChI=1S/C5H6N2O2/c1-4(6)9-5-7-2-3-8-5/h2-3,6H,1H3
