16
gdb 43370	2.90719	1.61781	1.22549	4.9302	71.43	-0.2258	-0.0409	0.1849	1003.3885	0.125379	-437.891054	-437.883462	-437.882518	-437.923494	28.466	
O	-0.0512550687	-0.0040919383	-0.073774045	-0.364141
C	-0.1042358403	 1.2084542007	-0.0218583756	 0.350658
C	-1.2384584819	 2.1131344777	 0.0695817258	-0.281248
C	-0.7524723462	 3.381825606	 0.0635849323	-0.000631
N	 0.606533551	 3.4501088094	-0.1009467701	-0.350099
C	 1.1547674737	 2.1096081501	-0.0508285314	 0.149497
C	 2.2461532351	 1.7992251074	 1.007708734	-0.103881
O	 3.2328565472	 1.5439408173	-0.0038568635	-0.267072
C	 2.2650250975	 1.7268723386	-1.0563107765	-0.100568
H	-2.2744464493	 1.8179140792	 0.1131559353	 0.117361
H	-1.3144258638	 4.3046724673	 0.1439002406	 0.138542
H	 1.1299043073	 4.2370029654	 0.2490610497	 0.255746
H	 2.5175295255	 2.6393266435	 1.6604952394	 0.095849
H	 2.0316234081	 0.9102607516	 1.6119690479	 0.127569
H	 2.0587281584	 0.7929220844	-1.5907653592	 0.127753
H	 2.5501699563	 2.5183521796	-1.7582288038	 0.104665
81.8495	105.7382	199.4358	275.8315	299.9957	420.2656	426.2006	526.8713	561.7345	679.2925	729.4133	792.387	804.3326	843.719	911.4203	947.6308	967.5402	984.7031	1047.4249	1053.1645	1090.8088	1100.4654	1157.6384	1163.4999	1165.0676	1225.3654	1264.2155	1306.5935	1365.2238	1377.1879	1453.1322	1492.2397	1518.4746	1605.7888	1792.603	3006.7615	3028.2264	3067.3707	3085.0822	3213.0762	3268.4988	3628.6676
O=C1C=CNC11COC1	O=C1C=CNC21COC2	
InChI=1S/C6H7NO2/c8-5-1-2-7-6(5)3-9-4-6/h1-2,7H,3-4H2	InChI=1S/C6H7NO2/c8-5-1-2-7-6(5)3-9-4-6/h1-2,7H,3-4H2
