21
gdb 93874	2.07484	1.6302	1.11071	1.4512	83.91	-0.2412	0.0452	0.2864	1191.1139	0.181282	-387.071422	-387.061808	-387.060864	-387.105592	36.166	
C	-0.702143905	 1.3035078125	-0.0491636096	-0.423936
C	 0.123365021	 0.0220711788	-0.0181670258	-0.000022
C	 1.2615007307	-0.0319764031	-1.0523854214	-0.068388
O	 2.2645110515	-0.8988930976	-0.528413633	-0.275775
C	 1.8895752576	-1.35756048	 0.7691250467	 0.148621
C	 3.140900509	-1.6112355713	 1.5893229217	-0.409168
C	 0.8904212588	-0.2932352657	 1.2986992036	-0.230343
C	 1.5414852674	 0.8753922593	 1.8785528036	 0.373123
C	 2.0735051196	 1.8428288825	 2.3560158742	-0.498077
H	-0.0794616379	 2.1763356528	 0.1657090157	 0.134633
H	-1.1600143068	 1.4429503918	-1.0342383211	 0.11546
H	-1.5091306476	 1.2741078433	 0.6898146517	 0.117275
H	-0.5411010563	-0.8331956408	-0.1922947028	 0.08236
H	 0.9149797598	-0.4075702896	-2.0233675373	 0.097724
H	 1.6978351902	 0.9644435827	-1.2094974894	 0.101998
H	 1.3240542413	-2.3007979404	 0.6744598299	 0.064568
H	 3.7028278026	-0.6855512242	 1.7319537588	 0.135615
H	 2.8804555812	-2.0206189151	 2.5706022971	 0.111471
H	 3.7791773449	-2.3339421616	 1.0736851543	 0.124159
H	 0.2206516283	-0.7373132375	 2.0435295767	 0.100681
H	 2.5444443596	 2.6930068234	 2.7840378665	 0.198021
86.6726	101.2139	146.377	182.7923	225.1411	234.0784	268.6391	345.4947	389.3692	416.1582	466.8271	580.2536	628.2821	630.0865	637.9286	698.9394	832.2999	845.8725	882.7923	936.9289	957.0993	967.4211	1022.1994	1063.7771	1095.1	1124.5487	1160.0684	1169.9826	1179.822	1202.8224	1245.5887	1310.1684	1327.0787	1349.5552	1377.185	1390.7492	1403.8302	1414.9056	1419.3285	1485.0595	1497.191	1498.1027	1500.6226	1527.075	2228.2018	2943.4554	3002.9801	3021.8437	3036.9136	3044.2346	3046.3448	3051.4325	3100.1888	3116.2172	3119.0679	3135.3237	3501.8175
CC1COC(C)C1C#C	C[C@H]1CO[C@@H](C)[C@H]1C#C	
InChI=1S/C8H12O/c1-4-8-6(2)5-9-7(8)3/h1,6-8H,5H2,2-3H3	InChI=1S/C8H12O/c1-4-8-6(2)5-9-7(8)3/h1,6-8H,5H2,2-3H3/t6-,7-,8-/m0/s1
