21
gdb 121023	2.98714	1.11641	0.91175	1.4805	80.49	-0.2443	0.0188	0.2632	1355.3404	0.182328	-424.229726	-424.220407	-424.219463	-424.264501	34.781	
C	-0.5166095785	 1.5085482255	 0.1363509092	-0.386567
C	-0.4345524036	 0.0718921214	-0.3497861648	-0.052809
O	-1.2326203734	-0.7362846759	 0.5102992046	-0.270093
C	-1.2385558556	-2.1180823688	 0.1782923487	 0.076304
C	-1.457894154	-2.9354277784	 1.4730780272	-0.27889
C	-2.8831569188	-3.4172381733	 1.3721479738	-0.065428
C	-3.4245782761	-3.1637233223	 0.1836248283	-0.099191
C	-2.4721852765	-2.450752061	-0.7473425056	 0.081881
O	-3.0266076466	-1.2976192541	-1.3552826509	-0.430764
H	 0.109849974	 2.1548576922	-0.4856073168	 0.117863
H	-1.5453036538	 1.878231013	 0.0870247089	 0.122754
H	-0.1756818207	 1.5849207889	 1.1727701741	 0.126422
H	-0.789701768	-0.0110664353	-1.3854399862	 0.111502
H	 0.6072668076	-0.2857948108	-0.3225573833	 0.090579
H	-0.2916361725	-2.3761333191	-0.3102667213	 0.067041
H	-0.7548956948	-3.7758056744	 1.5363031857	 0.107745
H	-1.2767263132	-2.304472894	 2.3499448631	 0.119054
H	-3.3780204293	-3.9291536614	 2.1906378568	 0.094994
H	-4.4307140399	-3.4182733334	-0.1295126702	 0.097984
H	-2.1697210841	-3.1001609028	-1.5779377441	 0.087431
H	-3.0541300223	-0.6336567059	-0.6534853772	 0.282188
49.9437	70.1205	120.8972	199.1307	249.217	280.1619	292.1612	356.3044	432.0835	470.5474	479.2224	575.8305	715.3289	758.2118	816.0696	821.8966	838.0558	863.142	922.7715	967.979	984.569	1013.9068	1044.2282	1068.8898	1089.2116	1115.1285	1135.9054	1148.2558	1187.7399	1208.305	1235.437	1280.0431	1297.3432	1304.7202	1324.5715	1367.5393	1377.7018	1405.5141	1435.6884	1444.9561	1476.175	1484.612	1500.6927	1527.9182	1689.6411	2976.6693	3018.7173	3028.596	3034.7647	3042.5175	3043.4882	3070.5123	3115.9108	3121.13	3181.8955	3209.5475	3761.0544
CCOC1CC=CC1O	CCO[C@H]1CC=C[C@H]1O	
InChI=1S/C7H12O2/c1-2-9-7-5-3-4-6(7)8/h3-4,6-8H,2,5H2,1H3	InChI=1S/C7H12O2/c1-2-9-7-5-3-4-6(7)8/h3-4,6-8H,2,5H2,1H3/t6-,7+/m1/s1
