17
gdb 19957	3.90092	1.50506	1.15579	3.4814	69.42	-0.2399	0.0371	0.277	1027.5605	0.14292	-363.869726	-363.861991	-363.861047	-363.90251	28.239	
O	 0.3018108301	 0.0681154739	-0.1356594156	-0.36034
C	 0.093843792	 1.2473943042	-0.0410900629	 0.412807
N	-1.0580252519	 1.996688914	-0.0214798775	-0.321201
C	-0.4042503068	 3.2948343097	 0.1568778144	-0.182619
C	 0.9606266482	 2.5335538587	 0.1180941355	-0.15684
C	 1.8460457968	 2.6034413176	 1.3306559919	 0.032854
C	 3.2739473488	 2.1282585676	 1.2480560774	-0.25922
C	 2.9808972613	 3.5993737774	 1.3975192186	-0.281829
H	-2.0294360279	 1.7306071918	-0.0825881464	 0.24968
H	-0.5748718832	 4.0025389312	-0.6606418147	 0.110666
H	-0.6232593006	 3.7800680786	 1.1137911245	 0.112031
H	 1.5327309971	 2.7421701155	-0.7912937299	 0.095614
H	 1.3327416958	 2.4019499433	 2.2678145623	 0.086433
H	 3.6834139561	 1.5928133364	 2.0968063761	 0.117496
H	 3.6319060964	 1.7735161798	 0.2877278439	 0.120557
H	 3.1442284862	 4.2409643268	 0.5376432618	 0.110336
H	 3.1900985817	 4.0740426135	 2.3497146207	 0.113575
63.5094	92.0446	144.4854	215.717	300.1005	373.2064	451.5417	526.1442	672.8936	746.6738	773.8746	825.2055	833.734	895.0688	923.4949	955.8667	990.3914	1012.3232	1060.0853	1069.2734	1078.6348	1134.8933	1155.0889	1165.2714	1180.5709	1197.584	1216.8005	1233.7664	1287.3898	1294.6283	1391.9691	1428.626	1471.1613	1506.659	1527.7917	1893.4761	3036.7162	3065.8804	3085.0141	3130.7526	3135.3218	3140.8416	3210.4261	3227.1857	3612.7025
O=C1NCC1C1CC1	O=C1NC[C@H]1C1CC1	
InChI=1S/C6H9NO/c8-6-5(3-7-6)4-1-2-4/h4-5H,1-3H2,(H,7,8)	InChI=1S/C6H9NO/c8-6-5(3-7-6)4-1-2-4/h4-5H,1-3H2,(H,7,8)/t5-/m0/s1
