21
gdb 37986	2.90289	1.61043	1.22831	2.2121	81.51	-0.2317	0.0705	0.3022	1071.9088	0.185937	-387.033008	-387.025892	-387.024947	-387.064301	29.737	
C	-0.0678166261	 1.5481627645	-0.0121506071	-0.192968
C	 1.2965742196	 2.23828105	-0.0124592116	-0.192967
C	 2.0106631569	 2.1530044635	 1.3391757818	-0.250722
C	 2.2350115471	 0.7723038291	 1.950605485	 0.052719
C	 2.4147292651	-0.5600855318	 1.167402974	-0.009933
O	 2.2155245771	-1.271363094	 2.453609753	-0.304841
C	 1.1405081532	-0.2513939122	 2.3909346497	-0.009933
C	 0.8786605964	-0.711098433	 0.9276987758	 0.05275
C	 0.0326877741	 0.023501306	-0.1092176199	-0.250728
H	-0.6167930596	 1.8288642706	 0.8975512467	 0.092823
H	-0.6713618804	 1.907217055	-0.8539001306	 0.09277
H	 1.9272503816	 1.796115274	-0.796336283	 0.092824
H	 1.1830025556	 3.2965000378	-0.2751436617	 0.09277
H	 2.9942612092	 2.6307230173	 1.2475238243	 0.099605
H	 1.4595386707	 2.7581810281	 2.0731715416	 0.100976
H	 2.988830573	 0.8412268613	 2.7402976288	 0.083135
H	 3.2451440437	-0.8927864232	 0.541262578	 0.084004
H	 0.4540012183	-0.20310492	 3.2387003688	 0.084005
H	 0.6287902129	-1.7759901993	 0.9141114096	 0.083138
H	-0.9788557307	-0.3989837097	-0.0605780944	 0.099601
H	 0.4143048723	-0.246723194	-1.1042416788	 0.100972
125.6002	207.5925	320.2524	339.063	355.5734	369.231	508.5513	587.2931	631.3011	710.7588	749.6183	822.1075	828.491	863.6141	863.9773	884.5352	923.629	949.255	955.5854	980.6871	1022.3758	1055.2836	1106.3939	1117.3088	1123.0303	1129.1146	1168.9044	1198.2938	1216.7111	1227.7484	1246.6462	1253.0111	1292.1232	1298.513	1307.7582	1346.9714	1381.1153	1381.2393	1401.5864	1403.1511	1433.5629	1478.6976	1481.8289	1493.7889	1501.3573	3006.0988	3006.4745	3008.4033	3013.0606	3043.3946	3044.3645	3058.3929	3059.2701	3069.5673	3070.4176	3093.0025	3101.128
C1CCC2C3OC2C3C1	C1CC[C@@H]2[C@H]3O[C@@H]2[C@H]3C1	
InChI=1S/C8H12O/c1-2-4-6-7-5(3-1)8(6)9-7/h5-8H,1-4H2	InChI=1S/C8H12O/c1-2-4-6-7-5(3-1)8(6)9-7/h5-8H,1-4H2/t5-,6+,7-,8+
