17
gdb 25651	6.46226	0.73762	0.6676	3.7685	90.86	-0.2026	0.0126	0.2152	1686.5842	0.136068	-380.89095	-380.881603	-380.880659	-380.927249	31.997	
C	-0.0534087218	 1.4672210885	 0.0464047238	-0.509683
C	-0.0021174467	 0.0145363922	 0.0017835511	 0.220732
C	 0.031231348	-1.1905732965	-0.0370992842	-0.108987
C	 0.0767566278	-2.6049706573	-0.0814309699	 0.141428
C	 1.1779120556	-3.4136048765	 0.1122734326	-0.227454
N	 0.7317454125	-4.7044767951	-0.0275539495	 0.02508
C	 1.52307508	-5.9125782201	 0.0878856203	-0.338268
C	-0.605685114	-4.6236642081	-0.2969819332	-0.020916
N	-1.0383984433	-3.3885904751	-0.3383345834	-0.322059
H	 0.6083768553	 1.9160246163	-0.7034371631	 0.145498
H	-1.0685137709	 1.8298261473	-0.1496314479	 0.151927
H	 0.2506062248	 1.8502451059	 1.0274857118	 0.145504
H	 2.2073719808	-3.1837496963	 0.3307297102	 0.129549
H	 1.9679677164	-5.9947420314	 1.0842528592	 0.147522
H	 0.8757621581	-6.7759532727	-0.0767110908	 0.147692
H	 2.3230430977	-5.9286978511	-0.6585854389	 0.147522
H	-1.2037972104	-5.5102912699	-0.4524452583	 0.124912
16.6435	79.9558	86.7562	91.106	193.6919	280.0947	297.696	361.8599	451.5494	479.1841	550.4304	633.7985	700.6655	704.0043	755.7476	823.2843	938.0338	1044.0159	1052.2323	1052.2974	1061.4201	1080.7046	1151.3546	1199.0373	1250.3315	1301.0189	1387.7849	1412.4955	1425.6137	1458.4108	1475.8631	1478.0376	1482.5268	1516.8129	1532.3123	1577.4521	2362.6583	3021.5797	3040.4656	3077.7176	3086.1734	3102.1656	3137.591	3239.6579	3274.5
CC#CC1=CN(C)C=N1	CC#Cc1cn(C)cn1	
InChI=1S/C7H8N2/c1-3-4-7-5-9(2)6-8-7/h5-6H,1-2H3	InChI=1S/C7H8N2/c1-3-4-7-5-9(2)6-8-7/h5-6H,1-2H3
