12
gdb 131278	5.59086	1.32833	1.07332	6.4198	61.82	-0.2153	0.0003	0.2156	993.5937	0.080713	-464.983526	-464.976882	-464.975938	-465.014403	25.31	
O	 0.0825725835	 1.2929967291	 0.1535630279	-0.416885
C	 0.0712001851	-0.0370565066	 0.011470286	 0.436273
N	 0.0966231859	-0.7104622294	-1.1017829008	-0.431014
C	 0.0679690913	-2.0277858025	-0.6618613395	 0.323157
C	 0.025951494	-2.0940391513	 0.714908836	 0.436847
N	 0.0016680704	-3.4016501212	 1.01320794	-0.359176
N	 0.0287255625	-4.123580802	-0.1726321772	-0.131082
N	 0.0683871128	-3.2859390371	-1.1690763047	-0.279061
N	 0.0273674718	-0.7990493652	 1.1765416468	-0.465656
H	 0.1134485887	 1.6637994592	-0.7382477175	 0.323428
H	-0.0303741168	-3.9004587546	 1.8852959345	 0.280144
H	 0.0034256808	-0.4375171884	 2.1138890385	 0.283026
155.8805	211.5596	342.5909	346.5467	389.6835	421.6746	434.6943	557.8143	593.9031	680.8033	714.9019	778.5683	788.6104	864.3747	916.3891	988.1536	1027.673	1175.9268	1217.4814	1243.3675	1291.9784	1363.226	1450.3798	1498.8534	1528.3469	1627.0077	1651.6758	3683.2216	3685.0488	3798.5492
OC1=NC2=C(NN=N2)N1	Oc1nc2c([nH]nn2)[nH]1	
InChI=1S/C3H3N5O/c9-3-4-1-2(5-3)7-8-6-1/h(H3,4,5,6,7,8,9)	InChI=1S/C3H3N5O/c9-3-4-1-2(5-3)7-8-6-1/h(H3,4,5,6,7,8,9)
