18
gdb 60625	3.04287	1.07699	0.85691	6.2257	68.19	-0.2573	0.0091	0.2664	1334.0343	0.146503	-476.230338	-476.22093	-476.219986	-476.265358	33.976	
C	-1.5975802499	-0.249413462	 2.9452480522	-0.426061
C	-1.1387940843	-0.2744456889	 1.5080086342	 0.06742
O	-0.8750805907	 0.9809491312	 0.8756801826	-0.242389
C	 0.215412633	 0.0783472791	 1.0432591035	 0.057792
C	 1.3324723032	 0.4911444976	 1.9860416264	-0.173798
N	 1.931932226	-0.6007260983	 2.7727617671	-0.542434
H	 3.5345424034	 0.4655170649	 2.5264870377	 0.306517
H	 1.3276968457	-0.8659362937	 3.5429368988	 0.250229
H	 2.0566572393	-1.4287366378	 2.1960052642	 0.247416
C	 2.4531858152	 1.2304590869	 1.2215380834	 0.434558
O	 2.2592247205	 1.8742265379	 0.2279909204	-0.321529
O	 3.6599851819	 1.1017080603	 1.7916642235	-0.374314
H	-1.0074955442	 0.4391473354	 3.5546731098	 0.122785
H	-2.6420068257	 0.0741079125	 2.9994194011	 0.140272
H	-1.5399189595	-1.2517056003	 3.384574618	 0.120396
H	-1.6970459864	-0.9679886322	 0.8751531762	 0.093713
H	 0.5646709171	-0.370017586	 0.1113054203	 0.103796
H	 0.9298483953	 1.2262234532	 2.6911008606	 0.135632
46.7085	73.4622	126.0064	190.2913	202.0531	278.73	315.8981	352.8835	386.263	400.689	500.5181	565.5315	613.6189	726.7412	784.94	823.1068	840.9453	874.455	906.265	983.118	1003.7904	1054.0369	1102.463	1128.9444	1157.991	1172.3913	1191.2338	1212.4281	1266.1147	1305.0947	1379.9562	1397.3393	1413.9315	1416.1177	1467.4931	1490.6011	1508.3109	1658.1328	1876.3373	3036.8065	3065.4272	3080.4345	3098.1844	3099.7147	3126.0792	3494.3925	3530.1244	3581.5023
CC1OC1C([NH3+])C([O-])=O	C[C@H]1O[C@H]1[C@@H](N)C(=O)O	
InChI=1S/C5H9NO3/c1-2-4(9-2)3(6)5(7)8/h2-4H,6H2,1H3,(H,7,8)	InChI=1S/C5H9NO3/c1-2-4(9-2)3(6)5(7)8/h2-4H,6H2,1H3,(H,7,8)/t2-,3-,4-/m1/s1
