17
gdb 22731	3.18216	1.12225	0.92083	2.1462	73.71	-0.2473	-0.0107	0.2366	1257.4526	0.134319	-455.04543	-455.036545	-455.035601	-455.079514	32.955	
O	-0.1983086422	 1.2887489712	 0.4680004183	-0.386641
N	-0.0876042977	-0.110948056	 0.4837342002	-0.243225
C	-1.1022377351	-0.6594806391	-0.0353573266	 0.398707
C	-2.4183025733	-0.2099248848	-0.6417855062	-0.420266
C	-2.796369614	-1.7053296145	-0.7011706176	 0.352601
C	-4.1002675584	-2.3004305516	-0.3365553117	-0.304785
N	-3.5707019303	-2.4013991575	-1.7103994968	-0.343788
C	-1.3867435874	-2.1449240026	-0.2446843363	-0.053189
O	-0.658823656	-2.7414111842	-1.2959247556	-0.414107
H	 0.6197229464	 1.5651427742	 0.8957463406	 0.30838
H	-3.0343087045	 0.4408507427	-0.0146133402	 0.130464
H	-2.2955472266	 0.2645732893	-1.6224926522	 0.133973
H	-4.1399872767	-3.2426345562	 0.2040174939	 0.123648
H	-4.9272561515	-1.6234622869	-0.1346653858	 0.112685
H	-4.0319323988	-1.7343804103	-2.3246157999	 0.23384
H	-1.3607170396	-2.7570124395	 0.6682209487	 0.080554
H	 0.2730172955	-2.7069623642	-1.0528987626	 0.291148
38.0775	136.5278	181.0034	201.4743	261.9142	295.1846	338.3843	366.253	407.0663	465.7214	495.6676	561.164	660.4574	759.5576	835.5906	847.0308	899.5382	937.6511	967.6031	977.7814	997.0056	1053.5892	1103.4042	1113.8875	1131.9303	1165.947	1192.1174	1218.0126	1258.3107	1286.514	1303.0245	1372.3642	1403.7832	1430.9679	1459.194	1514.0982	1785.8571	3000.0651	3039.3155	3092.9131	3100.0888	3185.6348	3496.225	3808.3891	3812.7624
ON=C1CC2(CN2)C1O	ON=C1C[C@]2(CN2)[C@H]1O	
InChI=1S/C5H8N2O2/c8-4-3(7-9)1-5(4)2-6-5/h4,6,8-9H,1-2H2	InChI=1S/C5H8N2O2/c8-4-3(7-9)1-5(4)2-6-5/h4,6,8-9H,1-2H2/t4-,5-/m0/s1
