14
gdb 43911	2.86126	1.50737	1.15164	4.9845	68.78	-0.2456	-0.0066	0.2391	1033.1097	0.100163	-436.633472	-436.625906	-436.624962	-436.665628	28.646	
O	-0.0739502648	 0.12179802	 0.5559828125	-0.313165
C	 0.0217073406	 1.223347259	 0.1307482062	 0.483885
O	-1.0004299057	 2.0474147586	-0.309002031	-0.284106
C	-0.0715701612	 3.1174626989	-0.6980114296	 0.2505
C	 0.1996128712	 4.1100526076	 0.4621032757	-0.223172
N	 1.2064932573	 3.1788813319	 1.0471267941	-0.318675
C	 1.1114887128	 2.2751207875	-0.1247673538	-0.268772
C	-0.2576460466	 3.577894453	-2.0421195995	 0.244123
C	-0.3880654364	 3.989727449	-3.1636630284	-0.394301
H	 0.6186732453	 5.0522171806	 0.0957993636	 0.124202
H	-0.6590397578	 4.3114138192	 1.1082459625	 0.134372
H	 2.1241620129	 3.5921607119	 1.1523986794	 0.239285
H	 2.0219689845	 1.9915574905	-0.6501142908	 0.118671
H	-0.5130259723	 4.3460781025	-4.1569201609	 0.207151
99.9303	149.125	187.4418	242.2443	359.8848	428.6931	474.2055	501.1336	577.9774	639.1034	670.2685	679.5856	700.0104	798.6089	836.3603	849.2695	965.2765	984.0672	1012.8303	1022.115	1058.4351	1133.5046	1139.2092	1173.8604	1240.9691	1272.9779	1341.4532	1383.4702	1491.8784	1952.76	2242.193	3049.5394	3108.0575	3136.8984	3497.53	3565.6734
O=C1OC2(CNC12)C#C	O=C1O[C@]2(CN[C@@H]12)C#C	
InChI=1S/C6H5NO2/c1-2-6-3-7-4(6)5(8)9-6/h1,4,7H,3H2	InChI=1S/C6H5NO2/c1-2-6-3-7-4(6)5(8)9-6/h1,4,7H,3H2/t4-,6-/m0/s1
