19
gdb 39388	2.39837	2.1652	1.46187	1.5086	74.17	-0.2519	0.0679	0.3199	935.6549	0.161457	-422.965718	-422.95887	-422.957926	-422.996444	29.047	
C	-0.042122949	 1.5021547817	-0.1432783096	-0.323392
C	 1.4917141751	 1.3309251242	-0.0211352694	 0.126525
C	 1.2165244892	 0.0658722724	 0.8772330676	-0.310931
C	-0.0189256081	-0.0194691853	-0.0260363976	 0.405539
O	-1.0591286796	-0.9192847002	-0.3289089768	-0.324489
C	 0.0820911641	-0.8305000339	-1.2268406601	 0.026342
C	 0.1144236728	-0.0689973739	-2.5288693067	-0.309517
C	 1.347573836	 0.921923096	-2.4678179111	-0.067606
O	 2.0997528644	 0.9266781849	-1.2517905291	-0.275933
H	-0.4475609841	 1.970302855	 0.7578186069	 0.106797
H	-0.4596507616	 1.9895869059	-1.0229065836	 0.10633
H	 2.0820864518	 2.1414253128	 0.413087825	 0.08014
H	 1.9464634549	-0.7432077292	 0.8314539278	 0.110801
H	 1.0154392615	 0.3573856579	 1.9124657163	 0.101691
H	 0.7122818245	-1.7167480868	-1.1763957692	 0.09894
H	 0.2123669917	-0.7332299466	-3.3921378178	 0.106325
H	-0.8163868795	 0.4899460896	-2.6548076403	 0.121897
H	 2.0869597468	 0.6321777325	-3.2180028261	 0.117404
H	 1.0150774792	 1.938004763	-2.7181720962	 0.103136
196.7028	251.1365	345.7848	368.9765	390.6362	424.6245	461.7699	521.4221	576.9651	649.9214	777.3611	810.668	830.1559	845.7177	864.5266	905.8029	935.9163	963.9558	970.1894	1007.596	1031.7361	1046.322	1096.5551	1114.7771	1131.9177	1149.8981	1176.6866	1185.8094	1224.4935	1249.0383	1264.6351	1287.8319	1311.0683	1346.4444	1359.7391	1400.0737	1473.0445	1491.4604	1496.3715	1514.3845	1524.7897	3011.6817	3058.5258	3060.0812	3071.0187	3084.0365	3090.6302	3107.9271	3126.4596	3136.8509	3147.4719
C1C2CC11OC1CCO2	C1[C@H]2C[C@]31O[C@H]3CCO2	
InChI=1S/C7H10O2/c1-2-8-5-3-7(4-5)6(1)9-7/h5-6H,1-4H2	InChI=1S/C7H10O2/c1-2-8-5-3-7(4-5)6(1)9-7/h5-6H,1-4H2/t5-,6-,7-/m0/s1
