19
gdb 41986	2.48705	2.09703	1.62397	2.4429	72.62	-0.2492	0.071	0.3202	907.529	0.163668	-423.024271	-423.017633	-423.016689	-423.055127	27.443	
C	-0.0645802955	 1.488089438	-0.1986275361	-0.103034
O	 1.1376149249	 2.0214757865	 0.3592292809	-0.265208
C	 1.8994413535	 1.0211726551	 1.0185622153	 0.18622
O	 1.864915403	 1.2091873059	 2.4166215973	-0.245174
C	 0.5374267543	 1.2429307724	 2.9240286398	-0.09063
C	-0.2278090965	-0.065645556	 2.6586086644	-0.241462
C	 0.0658053636	-0.6905241342	 1.3031394853	-0.038832
C	 0.0041843841	-0.0216841234	-0.0560382589	-0.084781
C	 1.3360502529	-0.3289778684	 0.577052375	-0.104168
H	-0.931723285	 1.9361418095	 0.3058629928	 0.099806
H	-0.1123660361	 1.7682567055	-1.2582099751	 0.106277
H	 2.9509923944	 1.1506284147	 0.749850429	 0.089286
H	 0.6329526248	 1.4111943229	 3.9995151141	 0.104979
H	 0.0066726715	 2.1033355788	 2.4994502144	 0.109973
H	 0.066068365	-0.8014915592	 3.4163712042	 0.109092
H	-1.3025268227	 0.1085733651	 2.7918145676	 0.100174
H	-0.1993500626	-1.7438409049	 1.2584298596	 0.086867
H	-0.3711442513	-0.6167155186	-0.8808345282	 0.091865
H	 2.0216269977	-1.0806654997	 0.2062342686	 0.088751
144.1027	183.0384	292.2902	380.9427	461.3528	493.7724	569.8942	678.2067	704.495	715.8128	771.7359	804.216	851.1016	903.5417	931.8722	951.7428	966.9971	989.2477	1008.1076	1046.2841	1064.227	1070.1425	1082.0332	1110.1341	1131.3938	1166.3168	1197.6822	1229.4337	1261.1409	1284.7063	1315.2715	1337.4601	1363.9738	1368.7825	1380.6531	1393.8678	1417.8814	1449.8104	1484.4764	1513.0908	1530.6526	3005.0594	3025.795	3034.551	3041.3002	3062.5574	3081.1904	3098.0973	3133.1196	3171.3049	3187.2642
C1OC2OCCC3C1C23	C1O[C@H]2OCC[C@H]3[C@@H]1[C@@H]23	
InChI=1S/C7H10O2/c1-2-8-7-6-4(1)5(6)3-9-7/h4-7H,1-3H2	InChI=1S/C7H10O2/c1-2-8-7-6-4(1)5(6)3-9-7/h4-7H,1-3H2/t4-,5+,6-,7+/m0/s1
