17
gdb 92011	2.68561	1.60515	1.29002	4.1338	67.1	-0.2525	-0.0222	0.2303	1003.9283	0.135871	-458.961101	-458.953329	-458.952384	-458.993605	29.618	
O	 0.0716589479	 1.4671866146	-0.034665977	-0.433034
C	 0.1236946516	 0.0548306942	 0.0532866327	 0.094956
C	 0.622590903	-0.4328569609	 1.4380829593	-0.269522
C	-0.6471730414	-0.5527828062	 2.2569184962	 0.037359
O	-1.5225064237	 0.5804572674	 2.0919487341	-0.268691
C	-1.8031095294	-0.6242752729	 1.3528135939	 0.053645
C	-1.3028849104	-0.5688165709	-0.0775976185	-0.166003
C	-2.1797788945	 0.1949866806	-1.0490876507	 0.162512
O	-3.2812660907	 0.6035990495	-0.7878221789	-0.245643
H	-0.489421723	 1.7548497937	 0.7001068184	 0.295179
H	 0.7824695326	-0.2695575666	-0.7550866703	 0.092308
H	 1.1070413491	-1.4142693926	 1.3670589898	 0.109014
H	 1.3453663735	 0.2745099369	 1.8541229564	 0.125398
H	-0.6467498262	-0.9927510102	 3.2501961151	 0.105614
H	-2.7393035176	-1.1110832975	 1.6046382063	 0.115395
H	-1.2138064675	-1.5968825895	-0.4633050145	 0.104496
H	-1.7326949435	 0.3391978005	-2.0567206624	 0.087016
80.7115	132.6752	190.7544	229.9972	315.4158	381.2969	434.7404	479.705	590.8993	650.4897	714.0388	757.9153	820.8289	832.3303	867.5754	882.733	916.9533	962.8514	983.6837	1025.4163	1045.1306	1062.5762	1098.2817	1130.0817	1201.6887	1216.3245	1234.3894	1261.88	1305.2587	1322.3135	1335.8541	1363.1795	1427.1222	1430.2539	1455.3774	1472.1859	1830.9335	2896.0872	2995.7352	3041.2643	3091.1002	3101.1744	3157.0338	3179.4824	3734.9203
OC1CC2OC2C1C=O	O[C@H]1C[C@H]2O[C@H]2[C@H]1C=O	
InChI=1S/C6H8O3/c7-2-3-4(8)1-5-6(3)9-5/h2-6,8H,1H2	InChI=1S/C6H8O3/c7-2-3-4(8)1-5-6(3)9-5/h2-6,8H,1H2/t3-,4-,5+,6-/m0/s1
