14
gdb 12908	3.43486	1.83032	1.51468	2.0069	63.9	-0.2329	0.0427	0.2755	848.2582	0.105136	-382.446903	-382.439525	-382.438581	-382.478252	28.033	
O	-0.0419011702	 1.4405804911	-0.0177369161	-0.446015
C	-0.0134228973	 0.066260939	-0.0378249152	 0.293689
C	 0.5820099398	-0.7976819364	-1.15178959	-0.154219
O	-0.5202302463	-1.7430194848	-1.026594561	-0.27486
C	-1.1372042087	-0.924480233	-0.045286624	 0.041795
C	-0.2622914932	-0.7975330734	 1.2027776479	-0.33769
C	 0.6279066599	-1.8215316813	 1.6595852419	 0.34219
C	 1.3908354371	-2.6729168427	 2.0344721806	-0.441314
H	 0.6996328994	 1.7559402682	 0.5116779178	 0.295828
H	 0.5516243091	-0.2982498674	-2.1254768466	 0.120879
H	 1.5551500699	-1.2671958115	-0.9791256137	 0.120271
H	-2.2176753887	-0.8459018381	-0.0314122893	 0.122559
H	-0.7634945029	-0.2174330589	 1.9756486424	 0.120526
H	 2.0507821221	-3.4349544107	 2.3674634153	 0.196362
127.7693	142.4066	260.6762	303.4575	349.0558	368.4118	388.4578	538.6482	581.1043	618.399	652.0621	657.7965	772.0238	831.6552	910.882	916.5499	984.4774	1024.7141	1046.6723	1070.4812	1071.2317	1147.624	1202.9207	1256.0844	1279.0628	1319.8802	1340.9505	1480.0034	1505.6734	2233.6406	3043.4488	3104.5878	3133.5086	3191.7791	3504.0657	3789.2484
OC12COC1C2C#C	O[C@]12CO[C@H]1[C@H]2C#C	
InChI=1S/C6H6O2/c1-2-4-5-6(4,7)3-8-5/h1,4-5,7H,3H2	InChI=1S/C6H6O2/c1-2-4-5-6(4,7)3-8-5/h1,4-5,7H,3H2/t4-,5+,6+/m1/s1
