19
gdb 102919	2.31471	0.92335	0.71175	5.7719	78.17	-0.26	0.0098	0.2698	1581.4835	0.158408	-419.251435	-419.241313	-419.240369	-419.287897	34.849	
C	-0.0305896527	 1.5949633319	-0.1489646681	-0.373506
C	-0.0268769161	 0.0842087241	 0.09993781	-0.174871
N	-1.3540064529	-0.5201550828	 0.0686765994	-0.027318
C	-2.032510012	-0.7246175759	-1.202170005	-0.176827
C	-1.9632217802	-2.2034814075	-1.6540563914	-0.336735
C	-2.565787684	-2.3956659376	-2.9689924858	 0.258829
N	-3.0408102207	-2.5168204066	-4.0154374289	-0.301941
C	-1.988029042	-0.9208173438	 1.2065375633	 0.141051
O	-3.0816726195	-1.4484753687	 1.2343081858	-0.344002
H	 0.9917778131	 1.9839954485	-0.119348849	 0.127584
H	-0.452782505	 1.8424755776	-1.1276767423	 0.131282
H	-0.6198781483	 2.1112589602	 0.6143742451	 0.13247
H	 0.6110068462	-0.4198307075	-0.6370533072	 0.116858
H	 0.4069729532	-0.1289977651	 1.0821309502	 0.125505
H	-3.0817395445	-0.4395244389	-1.0953468604	 0.157077
H	-1.5749365764	-0.0795905554	-1.9548455381	 0.128618
H	-0.9216337234	-2.5413478588	-1.6884617939	 0.148311
H	-2.489720054	-2.8163132227	-0.916757848	 0.185504
H	-1.3915924109	-0.7137657711	 2.1162624243	 0.08211
50.732	71.3317	80.2633	101.3019	174.4458	221.9519	248.1851	312.1784	336.3626	397.2916	417.2409	484.611	532.6593	644.7334	759.5083	792.9813	888.5541	960.3904	971.6317	1017.711	1034.1688	1054.7813	1098.6018	1121.9962	1184.4246	1272.9158	1285.7706	1301.0827	1344.6454	1388.7186	1407.0308	1413.4589	1426.8112	1453.1304	1469.7052	1477.3945	1492.6779	1493.6094	1506.1529	1784.1593	2362.8294	2944.8933	3026.8635	3042.2867	3052.8231	3076.3212	3078.0348	3103.8011	3115.4483	3121.3207	3132.9914
CCN(CCC#N)C=O	CCN(CCC#N)C=O	
InChI=1S/C6H10N2O/c1-2-8(6-9)5-3-4-7/h6H,2-3,5H2,1H3	InChI=1S/C6H10N2O/c1-2-8(6-9)5-3-4-7/h6H,2-3,5H2,1H3
