20
gdb 77621	2.07126	1.4242	1.29126	4.5276	85.43	-0.2573	0.0206	0.2779	1155.626	0.170704	-366.017299	-366.00813	-366.007186	-366.050763	34.609	
C	-0.0058930836	 1.5568619772	 0.0057379123	-0.425335
C	 0.0975352134	 0.0497361499	-0.0877091984	-0.099988
C	 0.6956449954	-0.7392705409	-1.2150066265	 0.277931
C	-0.0307773584	-1.8559059747	-1.9072784008	-0.490987
C	 1.9302410531	-0.0263646334	-1.7929070062	-0.28391
C	 2.6071919522	-0.0324709315	-0.3884989817	-0.293498
C	 1.3703475465	-0.7379448153	 0.1932622469	 0.156473
C	 1.40796658	-1.7793547575	 1.1643931933	 0.187206
N	 1.4446569586	-2.634102508	 1.9460698762	-0.359781
H	 0.8706504049	 2.0683799954	-0.3977734218	 0.124999
H	-0.8803383544	 1.9116793163	-0.5502429022	 0.126174
H	-0.1238879261	 1.87065353	 1.0478437924	 0.131466
H	-0.7680346407	-0.4608353233	 0.3306101946	 0.105549
H	-0.6464715248	-1.4683135979	-2.7279765326	 0.127165
H	 0.6692112849	-2.5837256842	-2.3313374905	 0.126928
H	-0.6921368856	-2.3875733058	-1.2163806526	 0.134886
H	 2.467007366	-0.6538762519	-2.5074864931	 0.112903
H	 1.7511090547	 0.9478838462	-2.2567897085	 0.105412
H	 3.4934543262	-0.6673800952	-0.3573052472	 0.126069
H	 2.8555631078	 0.9349998146	 0.0560973366	 0.110336
111.295	144.5036	167.5381	187.4889	222.597	250.5951	264.4605	325.4497	411.1111	493.3579	541.0524	557.8127	588.0247	692.2436	726.1518	753.4919	804.7274	928.0687	954.289	966.0847	1014.453	1021.0725	1081.751	1104.8505	1119.7502	1133.2773	1165.6042	1217.9175	1237.6477	1245.0782	1264.3741	1319.0595	1323.8212	1414.7709	1417.6032	1464.9442	1477.5089	1483.8767	1494.4691	1501.9056	1507.0583	1515.6609	2334.1043	3025.3729	3040.4307	3059.2044	3067.3215	3086.2518	3099.4283	3106.2705	3107.7351	3119.6408	3130.3828	3137.4869
CC1C2(C)CCC12C#N	C[C@H]1[C@@]2(C)CC[C@@]12C#N	
InChI=1S/C8H11N/c1-6-7(2)3-4-8(6,7)5-9/h6H,3-4H2,1-2H3	InChI=1S/C8H11N/c1-6-7(2)3-4-8(6,7)5-9/h6H,3-4H2,1-2H3/t6-,7+,8+/m0/s1
