23
gdb 116512	2.74218	1.14711	0.88576	2.5916	81.7	-0.2524	0.0769	0.3293	1377.0685	0.207792	-425.432362	-425.423222	-425.422278	-425.466325	35.188	
O	 0.1092784212	 1.4065768508	 0.285797277	-0.428494
C	 0.0882639245	 0.0207437624	 0.0253379451	-0.064456
C	-1.3425856369	-0.5135334883	-0.0642235966	 0.097883
C	-1.3744747627	-2.0378074266	-0.2259874839	-0.201674
C	-2.6679784784	-2.639985485	-0.8162816549	-0.205659
C	-3.9841085101	-1.9095956704	-0.4793182978	-0.192598
C	-4.1030619848	-1.3585739959	 0.9507590024	-0.19941
C	-3.3704000648	-0.0298510502	 1.1671659227	-0.066839
O	-1.9565908946	-0.1101212692	 1.1636084015	-0.272809
H	-0.521995482	 1.5318334201	 1.005797206	 0.284213
H	 0.6013152665	-0.1421057133	-0.9281794385	 0.103816
H	 0.630748164	-0.5469096429	 0.8004789792	 0.085333
H	-1.8476847634	-0.0075716964	-0.9027021936	 0.070881
H	-0.5272501489	-2.3495898536	-0.8497400765	 0.09608
H	-1.1863326858	-2.4508786635	 0.7712559188	 0.109523
H	-2.5818217576	-2.6883629966	-1.9082248813	 0.099211
H	-2.7380759495	-3.6812609121	-0.4800952668	 0.099695
H	-4.1296100518	-1.0743360515	-1.1770284133	 0.097117
H	-4.8131700607	-2.5995497637	-0.6732252793	 0.095275
H	-5.1617103977	-1.1734548333	 1.1736730207	 0.097214
H	-3.7537335679	-2.0928039202	 1.6872735712	 0.103297
H	-3.7073171958	 0.6939493518	 0.4052500736	 0.088518
H	-3.6277094328	 0.3806553576	 2.1492039443	 0.103883
77.7702	100.4151	176.7434	183.9716	230.2986	323.4877	335.28	358.0827	440.4575	472.3146	486.4552	518.5617	590.0906	752.6907	763.98	827.7029	880.3361	893.1554	940.9924	972.7867	1014.6441	1049.1524	1056.6872	1082.4973	1095.3315	1129.1408	1139.722	1151.2574	1206.9167	1224.5	1246.7676	1264.8516	1288.7109	1315.0426	1320.4373	1366.1339	1374.2557	1380.4298	1392.3194	1397.1791	1405.1812	1424.8182	1445.7567	1470.0497	1475.7184	1488.379	1495.771	1501.3211	1505.9524	2960.1306	2962.4189	2981.6951	3015.9849	3020.7511	3022.7072	3033.8937	3049.998	3062.3089	3064.1052	3071.4053	3074.7409	3080.7721	3774.6163
OCC1CCCCCO1	OC[C@H]1CCCCCO1	
InChI=1S/C7H14O2/c8-6-7-4-2-1-3-5-9-7/h7-8H,1-6H2	InChI=1S/C7H14O2/c8-6-7-4-2-1-3-5-9-7/h7-8H,1-6H2/t7-/m1/s1
