19
gdb 30161	4.37441	1.19745	0.97661	0.8393	81.86	-0.2048	0.0253	0.2301	1218.6408	0.161883	-385.931438	-385.923877	-385.922933	-385.963464	29.925	
C	 0.0360190066	 1.5340590105	-0.0207762097	-0.402163
C	 0.0932503035	 0.0082821727	 0.0033735387	 0.054221
C	 0.8802006834	-0.6150852293	-1.2051359154	-0.372165
C	 1.4868044576	-1.7969653421	-0.5352826203	 0.324499
C	 1.4244719722	-1.8104125552	 0.8161470523	 0.247992
C	 0.7227234058	-0.5821113503	 1.3185869869	-0.370406
C	 2.1261446565	-2.9883752276	 1.232854962	-0.36202
C	 2.546811762	-3.5827738222	 0.0798868862	-0.015633
O	 2.1668120574	-2.8605115453	-1.0225444006	-0.20207
H	 1.0420248238	 1.9659132225	 0.034281164	 0.115916
H	-0.4352539066	 1.9026534304	-0.9382546626	 0.113903
H	-0.5388466856	 1.9215693892	 0.8272212141	 0.114627
H	-0.9300397881	-0.3797322376	-0.0575763631	 0.084614
H	 0.217570745	-0.8557591836	-2.0434492378	 0.112508
H	 1.6419961309	 0.0784286506	-1.5895184958	 0.109578
H	 1.4272609278	 0.1308169518	 1.7695973369	 0.103608
H	-0.0482547346	-0.776508733	 2.0721995258	 0.104553
H	 2.2966830162	-3.3593781693	 2.2318251682	 0.108623
H	 3.0922677063	-4.4885309721	-0.1280106899	 0.129815
79.4859	215.9263	238.5543	253.8445	288.7333	414.0678	443.9769	513.244	615.3227	655.9298	709.9961	725.8068	766.1491	803.7824	819.0343	904.1586	919.8021	933.6821	956.9671	1048.4366	1051.5913	1074.9012	1106.872	1145.6829	1152.6587	1174.0454	1222.8659	1242.7374	1264.325	1290.4282	1340.2906	1356.6765	1373.0476	1414.6791	1463.1038	1495.4786	1497.0798	1499.6445	1504.7989	1519.7854	1655.8471	3000.9631	3005.7962	3026.1128	3030.6193	3056.9074	3062.8114	3094.9438	3096.0481	3248.9031	3281.8351
CC1CC2=C(C1)C=CO2	C[C@H]1Cc2c(C1)cco2	
InChI=1S/C8H10O/c1-6-4-7-2-3-9-8(7)5-6/h2-3,6H,4-5H2,1H3	InChI=1S/C8H10O/c1-6-4-7-2-3-9-8(7)5-6/h2-3,6H,4-5H2,1H3/t6-/m1/s1
