17
gdb 23481	3.58898	1.40402	1.21399	1.5279	75.77	-0.2288	-0.0045	0.2242	1038.0076	0.137585	-417.904149	-417.897045	-417.896101	-417.935666	28.258	
O	-0.104698787	 1.3376748375	 0.0346427956	-0.39309
N	 0.0447369734	-0.0616663522	 0.0393654414	-0.265325
C	-1.0787156926	-0.6374918072	-0.0624052262	 0.449888
C	-2.5310706404	-0.2395752129	-0.035425754	-0.09687
C	-3.2517679266	-0.426779605	-1.3919049864	-0.247345
C	-3.2604319062	-1.9404204974	-1.1004610759	 0.01682
C	-1.9272413437	-2.6761474852	-1.3379630809	-0.248714
C	-1.4405072848	-2.0940275157	 0.0118078332	-0.095871
N	-2.8879560409	-1.6859806468	 0.3705951431	-0.161641
H	 0.8010752667	 1.6386020789	 0.1657540027	 0.308803
H	-2.8185539441	 0.5921416007	 0.6085858457	 0.099539
H	-4.2618263725	-0.0114374904	-1.3516305077	 0.117745
H	-2.7538552281	-0.0658746073	-2.2949468879	 0.113104
H	-4.1803573941	-2.4875838095	-1.3133382143	 0.079305
H	-2.0568305342	-3.75888798	-1.2650146938	 0.117169
H	-1.349652658	-2.4456440766	-2.2364267824	 0.112052
H	-0.875237687	-2.7355871809	 0.6889957578	 0.094431
105.6468	178.0818	250.9173	336.927	356.6143	416.1261	488.2775	605.4295	656.6434	708.1556	718.0294	830.4256	871.3631	873.4548	895.6425	919.2764	958.5246	971.2488	983.2956	1005.2165	1016.0913	1084.2574	1112.2072	1135.6836	1155.3225	1197.4749	1202.2977	1239.8585	1245.6025	1271.1837	1296.6968	1322.0074	1349.0932	1413.5825	1475.7346	1488.3773	1783.6744	3060.7861	3061.8529	3089.929	3103.4997	3107.704	3116.1496	3119.5867	3814.9012
ON=C1C2CC3CC1N23	ON=C1[C@H]2C[C@H]3C[C@@H]1N23	
InChI=1S/C6H8N2O/c9-7-6-4-1-3-2-5(6)8(3)4/h3-5,9H,1-2H2	InChI=1S/C6H8N2O/c9-7-6-4-1-3-2-5(6)8(3)4/h3-5,9H,1-2H2/t3-,4+,5-
