16
gdb 7130	5.16094	0.82732	0.76533	2.4597	63.11	-0.2513	-0.0394	0.2119	1433.6513	0.126724	-420.89527	-420.885912	-420.884968	-420.931219	31.101	
O	-0.2955352574	 1.4249870827	-0.5000217995	-0.423018
C	-0.0072842363	 0.0873914363	-0.1247115355	-0.074017
C	-1.3413752119	-0.625921456	 0.0365069781	-0.290737
C	-1.2069725462	-2.074662112	 0.4490702072	 0.359951
O	-0.1366081026	-2.6139076906	 0.6221122748	-0.308542
C	-2.5059905795	-2.8639536742	 0.6246223183	-0.375037
C	-2.4813051174	-4.1391911075	-0.2079942599	 0.163175
O	-3.4074801347	-4.5239298422	-0.8698745038	-0.230839
H	 0.5384378054	 1.8893005954	-0.615871912	 0.290015
H	 0.5969279754	-0.4301507772	-0.8832414699	 0.105331
H	 0.5530314609	 0.0386233182	 0.8199565768	 0.104223
H	-1.96360292	-0.1039733465	 0.7764351477	 0.13838
H	-1.9139434894	-0.5798757697	-0.9002808376	 0.141558
H	-2.5447792041	-3.1738316003	 1.6780098522	 0.15888
H	-3.4040104204	-2.2884770355	 0.3926338644	 0.130924
H	-1.5206005918	-4.6911336411	-0.1519769712	 0.109752
25.1552	79.2894	98.2837	103.9374	158.9396	236.3379	269.3698	334.8953	403.2423	467.2496	515.8671	645.1147	775.0527	801.9163	887.05	957.1951	997.4147	1049.9803	1072.4894	1094.617	1111.0877	1185.9813	1218.3103	1250.1266	1282.8713	1302.8951	1358.553	1407.011	1441.7001	1445.2037	1471.0597	1522.7327	1790.9307	1840.1201	2930.2435	2996.3725	3023.4993	3024.3388	3032.3667	3058.0747	3125.6071	3832.9276
OCCC(=O)CC=O	OCCC(=O)CC=O	
InChI=1S/C5H8O3/c6-3-1-5(8)2-4-7/h3,7H,1-2,4H2	InChI=1S/C5H8O3/c6-3-1-5(8)2-4-7/h3,7H,1-2,4H2
