22
gdb 59728	3.14429	1.11332	0.86505	2.3571	82.38	-0.2424	0.0296	0.272	1376.4014	0.195147	-404.370056	-404.360742	-404.359798	-404.404317	34.947	
C	-0.0403790176	 1.5610230965	-0.040714185	-0.401758
C	 0.0260929691	 0.0251003085	-0.0140858186	 0.030135
C	 0.6942863778	-0.4866039783	-1.3003386621	-0.39669
C	 0.7327186281	-0.5130994831	 1.2510998175	-0.018251
C	 0.0482568576	-0.0486147856	 2.5385783027	-0.087899
O	 0.6829667168	-0.5819675328	 3.7100680069	-0.226176
C	 1.1319860256	-1.8548741368	 3.6068454717	 0.125518
N	 1.1990954234	-2.6015251494	 2.5906411523	-0.274643
C	 0.7994988314	-2.0505648586	 1.2979559583	-0.173155
H	 0.9645459442	 1.9977283674	 0.003685937	 0.116285
H	-0.5087199655	 1.9071543945	-0.9676327497	 0.114689
H	-0.6214808358	 1.9726436108	 0.7892518776	 0.1162
H	-1.0060197808	-0.3570507185	 0.001479666	 0.073713
H	 1.7437000074	-0.1720517001	-1.3480765336	 0.115353
H	 0.6673381058	-1.5763725504	-1.378943901	 0.122708
H	 0.1877160127	-0.08031417	-2.1816139639	 0.112246
H	 1.7615247245	-0.1248009405	 1.2659947929	 0.082684
H	 0.0844863777	 1.0340631112	 2.6655759311	 0.118643
H	-1.0058993196	-0.3609519159	 2.5428638288	 0.108036
H	 1.468040677	-2.2064793802	 4.58099309	 0.120976
H	-0.1765998662	-2.4780566219	 1.0246415329	 0.107038
H	 1.5104898365	-2.4258759866	 0.5558071382	 0.114351
58.4989	116.7062	160.3656	183.4346	229.9783	238.4353	329.7595	355.9719	394.9077	452.8107	486.1045	500.2515	543.4156	778.9428	860.852	892.1211	924.6674	927.9266	957.0793	967.1363	967.8728	969.1804	987.8584	1080.3356	1115.3057	1162.4885	1170.7442	1180.3287	1191.8918	1243.8973	1273.3477	1315.0319	1339.5979	1353.8863	1364.1923	1374.7346	1402.74	1405.5075	1421.3449	1424.3939	1483.7977	1487.4564	1495.6106	1504.35	1511.152	1513.8326	1743.5326	2986.7798	2997.2522	3001.8326	3018.9311	3028.1842	3032.7719	3068.5097	3092.3778	3098.2152	3102.587	3114.213	3118.3519	3155.7142
CC(C)C1COC=NC1	CC(C)[C@H]1COC=NC1	
InChI=1S/C7H13NO/c1-6(2)7-3-8-5-9-4-7/h5-7H,3-4H2,1-2H3	InChI=1S/C7H13NO/c1-6(2)7-3-8-5-9-4-7/h5-7H,3-4H2,1-2H3/t7-/m1/s1
