14
gdb 96748	3.34719	0.86635	0.69413	4.5285	72.18	-0.3031	-0.0685	0.2347	1511.5822	0.099052	-432.875358	-432.865989	-432.865045	-432.910664	31.24	
C	 0.0706186578	 1.475402521	-0.0862151547	-0.346595
N	 0.0475850882	 0.0263190892	-0.0775715061	-0.301599
C	-1.0212766574	-0.6180740453	 0.0969037428	 0.356169
O	-1.0771257433	-1.9678880551	 0.1111073501	-0.240368
C	 0.1811358666	-2.6175023042	-0.0883806372	-0.20552
C	-0.0481661229	-4.0599971712	-0.045941949	 0.278186
N	-0.1820454202	-5.2059743191	-0.0199852822	-0.28134
C	-2.341934485	-0.0530769298	 0.3068059237	 0.264624
N	-3.3628239633	 0.4634673084	 0.4686469129	-0.318484
H	 0.7571072391	 1.8198381282	 0.6938764734	 0.149746
H	 0.4783848461	 1.8143112292	-1.043972145	 0.149735
H	-0.9089693548	 1.9433126703	 0.0695847945	 0.144454
H	 0.6122573069	-2.3277037241	-1.0523539027	 0.175506
H	 0.892015532	-2.3209001875	 0.6899313096	 0.175486
46.3501	103.8417	126.6546	133.5799	166.6963	237.2343	259.332	348.8317	352.1591	383.2011	487.5081	542.4436	663.2832	719.9165	807.1648	961.3595	1016.9905	1037.3001	1113.847	1134.2934	1163.6847	1245.3417	1285.0465	1391.0856	1445.738	1481.9228	1483.8793	1501.3795	1740.9591	2356.9537	2379.647	3019.5648	3054.6151	3093.3576	3095.1257	3098.5064
CN=C(OCC#N)C#N	CN=C(OCC#N)C#N	
InChI=1S/C5H5N3O/c1-8-5(4-7)9-3-2-6/h3H2,1H3	InChI=1S/C5H5N3O/c1-8-5(4-7)9-3-2-6/h3H2,1H3
