18
gdb 55773	4.0066	1.05789	1.02093	2.4832	72.53	-0.252	0.0553	0.3074	1232.0451	0.147653	-439.098708	-439.090174	-439.08923	-439.13242	32.238	
N	-0.1833997902	 1.3017702907	-0.1113035737	-0.568035
C	 0.0494162729	-0.0442295905	-0.1018966572	 0.460762
O	 1.1057886797	-0.5788866334	-0.3313533481	-0.389117
O	-1.1130409303	-0.7027400907	 0.1846432341	-0.307663
C	-1.0274123945	-2.0994479669	 0.1432139984	 0.504721
C	-1.1885308802	-2.8557945999	-1.1339043522	-0.316907
C	-2.1871289668	-3.0643768025	-0.0117709949	-0.151869
C	-1.5703151974	-3.9766157483	 1.0592210742	-0.222388
C	-0.3967895524	-2.9514987767	 1.2400341072	-0.289984
H	 0.629079808	 1.8934866292	-0.0931970955	 0.268962
H	-1.0331515326	 1.6504820282	 0.2981919446	 0.265243
H	-1.5587317615	-2.2575287636	-1.959967653	 0.116782
H	-0.4867792181	-3.6379145166	-1.4150439855	 0.1103
H	-3.241986594	-2.8614506228	-0.1477295299	 0.093431
H	-2.1839096075	-4.0710997891	 1.9573501667	 0.105196
H	-1.2898825428	-4.9775145055	 0.7168396695	 0.100639
H	 0.6227135842	-3.2954630272	 1.0510657449	 0.113346
H	-0.4354141564	-2.4607589041	 2.2151920404	 0.106582
53.672	84.512	138.6163	236.9206	338.077	351.4835	364.8945	429.4663	442.9796	512.7669	598.0171	685.6318	754.2164	780.6705	788.9034	842.4313	914.4281	935.1241	944.0374	970.9269	980.5455	1019.2828	1039.2206	1084.154	1111.2331	1122.4112	1151.3138	1216.361	1224.6711	1235.8196	1257.4471	1305.7604	1347.3244	1394.7777	1480.9371	1483.1404	1513.4139	1610.5904	1844.2666	3053.3382	3068.6475	3105.8554	3108.4379	3126.1126	3191.0821	3207.7005	3615.4618	3745.2729
NC(=O)OC12CC1CC2	NC(=O)O[C@]12C[C@H]1CC2	
InChI=1S/C6H9NO2/c7-5(8)9-6-2-1-4(6)3-6/h4H,1-3H2,(H2,7,8)	InChI=1S/C6H9NO2/c7-5(8)9-6-2-1-4(6)3-6/h4H,1-3H2,(H2,7,8)/t4-,6-/m1/s1
