19
gdb 69264	2.74048	1.53629	1.15623	3.726	77.7	-0.2505	0.0062	0.2567	1102.998	0.161329	-419.204477	-419.196377	-419.195433	-419.237045	31.478	
C	 0.0416386366	 1.5167589122	-0.0544129495	-0.454858
C	-0.0093218636	 0.006780177	 0.0217404485	 0.318426
C	-1.2374439367	-0.6627481577	-0.5979638363	-0.300399
C	-1.8214844446	-1.7347536148	 0.3160616084	-0.091466
O	-0.8142823099	-2.6078926285	 0.8514401463	-0.258225
C	 0.1132530954	-1.9937441811	 1.6582092078	 0.368445
N	 0.5559200515	-2.5333976898	 2.7139226048	-0.510768
C	 0.6435323562	-0.6921308961	 1.1764182462	-0.107942
N	 1.2868497988	-0.6550788533	-0.1612698359	-0.364239
H	 0.9785206431	 1.8899872811	 0.3656773371	 0.134325
H	-0.018114701	 1.8501471639	-1.0967474388	 0.122758
H	-0.7938656926	 1.9658086918	 0.4936632261	 0.116738
H	-2.0139801968	 0.0841935471	-0.7947933756	 0.112997
H	-0.9678432382	-1.0959190311	-1.5689400755	 0.11571
H	-2.3633253184	-1.2700260147	 1.1507150617	 0.112419
H	-2.5163456222	-2.3865444687	-0.2182628239	 0.121175
H	 0.0780081433	-3.4232759242	 2.8735919668	 0.221579
H	 1.1642959547	-0.1258113606	 1.9406866677	 0.110465
H	 1.1590663744	-1.5580501726	-0.6156421959	 0.232859
80.2888	159.569	221.0759	230.7165	307.6445	354.3627	394.6398	427.4041	478.633	515.9189	643.5418	690.7269	752.9543	803.3932	833.1332	885.5722	904.1765	932.2874	975.1816	1030.2903	1038.5017	1053.7733	1065.2085	1107.2729	1139.9672	1151.8779	1189.1574	1229.195	1282.9467	1301.7337	1314.5056	1354.6097	1368.6195	1411.1119	1423.2715	1437.8156	1485.4607	1488.157	1494.7125	1508.2986	1747.8008	3016.7899	3029.3983	3032.8927	3077.3829	3093.2687	3106.2208	3125.7966	3176.9067	3460.7139	3480.264
CC12CCOC(=N)C1N2	C[C@]12CCO[C]([NH])[C@H]1N2	
InChI=1S/C6H10N2O/c1-6-2-3-9-5(7)4(6)8-6/h4,7-8H,2-3H2,1H3	InChI=1S/C6H10N2O/c1-6-2-3-9-5(7)4(6)8-6/h4,7-8H,2-3H2,1H3/t4-,6+/m1/s1
