16
gdb 56718	2.02566	1.41082	1.25101	0.2282	76.51	-0.2556	0.0156	0.2712	1116.7724	0.120947	-400.636107	-400.626703	-400.625759	-400.670283	34.909	
O	 0.4766631573	 1.5639200561	-0.0543094451	-0.401529
C	 0.1450401432	 0.191874922	 0.040166681	-0.15925
C	 0.4791569457	-0.5505589097	-1.1822683663	 0.323769
C	 0.7632421714	-1.153040867	-2.1823528519	-0.450877
C	 0.7892881015	-0.4585931244	 1.2775131219	 0.087758
C	-0.0239890983	-0.5164901822	 2.5279802342	-0.273045
N	 0.2465236991	-1.7411169619	 1.7670555533	-0.333235
C	 2.2206537327	-0.2911736511	 1.3384040317	 0.324515
C	 3.4056487831	-0.0866482574	 1.351810759	-0.432107
H	 1.4376067523	 1.6169848323	-0.1388368831	 0.291516
H	-0.9423924654	 0.1670419372	 0.1833224526	 0.115869
H	 1.0138111887	-1.6854023738	-3.0667844116	 0.204456
H	 0.4772875416	-0.4584899437	 3.4887300927	 0.1354
H	-1.0157102757	-0.0722881693	 2.496653694	 0.123468
H	-0.5579042073	-2.0036537274	 1.19998924	 0.241009
H	 4.4567913499	 0.0639788305	 1.3783639076	 0.202284
56.2461	115.1194	140.6325	208.8175	216.7714	265.6046	316.8574	362.3655	417.2001	459.5858	550.2243	574.4894	604.4288	615.3006	642.5929	674.2575	675.1642	753.9782	869.1908	880.1693	932.6896	980.5058	994.8992	1068.7074	1084.2773	1138.6833	1235.6008	1255.6021	1290.9361	1309.8851	1382.3444	1423.7754	1505.9981	2234.6799	2235.4823	3037.0701	3112.1268	3205.9413	3485.0541	3500.1223	3501.9695	3774.0817
OC(C#C)C1(CN1)C#C	O[C@@H](C#C)[C@]1(CN1)C#C	
InChI=1S/C7H7NO/c1-3-6(9)7(4-2)5-8-7/h1-2,6,8-9H,5H2	InChI=1S/C7H7NO/c1-3-6(9)7(4-2)5-8-7/h1-2,6,8-9H,5H2/t6-,7+/m0/s1
