13
gdb 43431	3.34897	1.285	0.92867	1.3351	79.7	-0.2645	-0.093	0.1715	1152.1313	0.089604	-415.63272	-415.625049	-415.624105	-415.664984	28.785	
N	-0.1296870399	 1.2953384656	 0.0107605478	-0.517552
C	-0.0203860119	 0.0302622313	 0.0036091416	 0.316496
N	 1.1073411013	-0.7835999988	-0.0078277645	-0.408005
C	 0.7801375165	-2.1435949299	-0.01264368	 0.446501
O	 1.5674202742	-3.0588477946	-0.0224525749	-0.353326
C	-0.7071041624	-2.1786888835	-0.0032739264	-0.385445
C	-1.1839380557	-0.9174908098	 0.0062381996	 0.1501
C	-2.5222772727	-0.4778915769	 0.0170919594	 0.282366
C	-3.6688169971	-0.11157862	 0.0263249494	-0.368125
H	 0.7822726625	 1.756292094	 0.0072329555	 0.22347
H	 2.0590851984	-0.4548650642	-0.0123563522	 0.266029
H	-1.2669195326	-3.1013880779	-0.0043979077	 0.142103
H	-4.6771968905	 0.2221026947	 0.0344506625	 0.205386
127.1024	137.2885	140.0343	302.0854	352.6982	432.7133	442.4054	508.9339	524.146	611.5714	645.003	650.3007	669.2668	734.935	777.2779	778.8212	885.5656	894.6095	941.1394	1072.1557	1144.2767	1196.6648	1289.0659	1342.4716	1393.8681	1636.177	1744.1454	1835.9444	2234.1153	3262.2246	3462.9807	3501.7431	3659.8987
N=C1NC(=O)C=C1C#C	[NH]C1=C([CH]C(=O)N1)C#C	
InChI=1S/C6H4N2O/c1-2-4-3-5(9)8-6(4)7/h1,3H,(H2,7,8,9)	InChI=1S/C6H4N2O/c1-2-4-3-5(9)8-6(4)7/h1,3H,(H2,7,8,9)
