20
gdb 15771	4.45624	1.07878	0.94456	0.7767	80.98	-0.2556	0.0575	0.3131	1269.691	0.175169	-311.829209	-311.820066	-311.819122	-311.862996	34.099	
C	-0.2162310375	 1.4225623633	 0.1247230884	-0.39388
C	 0.0338484675	-0.0821006946	-0.0307819544	 0.013284
C	 0.7770546118	-0.4052166843	-1.3530788223	-0.356499
C	 0.0338419222	-0.0358889583	-2.5514557848	 0.299692
C	-0.6018335123	 0.266625041	-3.5263967804	-0.445998
C	 0.8071196823	-0.6417104239	 1.1488641226	 0.043651
C	 0.0923585276	-1.0258234147	 2.4183734198	-0.28203
C	 0.6857935023	-2.0950988956	 1.5322510145	-0.277185
H	 0.7318086731	 1.9707146692	 0.184560059	 0.1091
H	-0.7792416236	 1.8179426925	-0.7250516525	 0.128099
H	-0.7781311171	 1.6294018225	 1.0403112889	 0.114697
H	-0.9376727998	-0.5927872706	-0.0716634877	 0.078848
H	 1.7483289037	 0.1088858313	-1.3518851791	 0.123471
H	 1.0010811412	-1.4786525402	-1.3807743322	 0.130044
H	-1.1519886637	 0.5317177237	-4.3947380299	 0.191631
H	 1.7934051859	-0.199246191	 1.2784054038	 0.078002
H	 0.5715906267	-0.8172944451	 3.3684392875	 0.111106
H	-0.9886527891	-0.9301974053	 2.4369345325	 0.111612
H	-0.0005315895	-2.7138734132	 0.9622954458	 0.111368
H	 1.5708869281	-2.6185450765	 1.8765624504	 0.110986
68.1479	95.8645	128.1861	200.333	234.6507	282.3759	322.365	354.4644	412.9639	453.2251	531.4663	612.9626	633.578	768.9421	820.2916	829.9374	866.096	890.0252	929.8425	962.8784	982.4029	1002.1349	1057.2922	1079.0006	1106.5281	1124.0004	1140.3186	1195.7429	1198.2372	1225.4758	1246.1932	1288.9738	1339.3588	1356.3387	1408.6146	1422.0823	1469.2453	1471.0955	1497.1683	1500.6736	1508.6661	2234.9408	3008.5282	3018.4203	3030.5857	3052.8013	3096.9682	3118.7872	3119.8274	3126.8994	3132.4457	3204.8972	3220.0857	3507.0088
CC(CC#C)C1CC1	C[C@@H](CC#C)C1CC1	
InChI=1S/C8H12/c1-3-4-7(2)8-5-6-8/h1,7-8H,4-6H2,2H3	InChI=1S/C8H12/c1-3-4-7(2)8-5-6-8/h1,7-8H,4-6H2,2H3/t7-/m0/s1
