17
gdb 124469	3.25949	1.23386	1.11122	4.7218	70.6	-0.2662	-0.0336	0.2326	1135.9403	0.133256	-455.129233	-455.120192	-455.119248	-455.163033	33.257	
C	-0.1852053969	 1.5208381459	-0.0843160445	-0.417294
C	 0.011336066	-0.0007412505	 0.0338291677	 0.220926
C	 0.8670981595	-0.3609515665	 1.260902193	-0.417302
O	-1.2479744785	-0.6679586795	 0.085578626	-0.457623
C	 0.6569993804	-0.5321897958	-1.2146713568	 0.444369
C	 0.2464027785	-1.4308273834	-2.1503861412	-0.215158
N	 1.2586458424	-1.526634719	-3.075819337	-0.110102
N	 2.2182947792	-0.7789614014	-2.7822229561	-0.017107
O	 1.8662815123	-0.0936755683	-1.5470874692	-0.247395
H	 0.7708232319	 2.0319513866	-0.2234143146	 0.141594
H	-0.8349726928	 1.7508293545	-0.9322114495	 0.136654
H	-0.650852337	 1.9068402819	 0.829126762	 0.111386
H	 0.3974121989	 0.032278847	 2.1691798501	 0.111389
H	 0.9529123694	-1.4463604487	 1.3533365205	 0.136656
H	 1.8696918074	 0.066890535	 1.1813288922	 0.141596
H	-1.7085980065	-0.3622572957	 0.8736677318	 0.284929
H	-0.6662444443	-1.993073962	-2.2227487443	 0.152481
52.5917	145.1554	182.1443	217.1534	231.2723	271.7991	322.9506	346.7294	347.6706	464.4305	466.3169	598.4951	607.3912	695.2418	746.9051	836.5721	849.4313	924.2457	976.7982	984.9751	1019.8259	1031.5042	1114.6376	1133.9933	1187.8805	1212.3456	1226.5377	1364.97	1374.1729	1392.7098	1414.0097	1469.7309	1477.6834	1481.2777	1494.8978	1510.281	1606.1524	3036.1359	3040.8745	3110.5839	3115.8199	3133.4906	3136.4363	3315.9888	3822.3657
CC(C)(O)C1=CN=NO1	CC(C)(O)c1cnno1	
InChI=1S/C5H8N2O2/c1-5(2,8)4-3-6-7-9-4/h3,8H,1-2H3	InChI=1S/C5H8N2O2/c1-5(2,8)4-3-6-7-9-4/h3,8H,1-2H3
