17
gdb 75037	2.27562	1.74002	1.0191	2.1257	80.23	-0.1915	-0.0242	0.1673	1140.5114	0.138262	-418.070782	-418.06263	-418.061686	-418.103558	31.061	
C	-0.1932770166	 1.4501985659	 0.121296527	-0.478819
C	 0.0540268666	-0.0175731393	-0.0842378475	 0.312765
C	-0.0816924079	-0.6218393358	-1.2753946901	-0.177242
C	 0.1507983078	-2.0284254471	-1.5454227078	-0.105884
C	 0.056656002	-3.0191611096	-0.6508981188	-0.037987
N	-0.3112555619	-2.8840775249	 0.6988443576	-0.356462
C	 0.0876678515	-1.9083082422	 1.6000096585	 0.420887
O	 0.096908309	-2.1219346718	 2.7944174277	-0.377673
N	 0.4872080431	-0.6762500379	 1.0903970795	-0.407364
H	 0.695463853	 1.9441766627	 0.5367226458	 0.130149
H	-0.4411680218	 1.941765523	-0.8206175733	 0.135924
H	-1.0141753516	 1.6195520853	 0.8294983713	 0.137015
H	-0.3872156294	-0.0008329044	-2.1108761718	 0.088922
H	 0.414725778	-2.3063265611	-2.5606527935	 0.094577
H	 0.2450610753	-4.0468631548	-0.9437194738	 0.112096
H	-0.5103049819	-3.740488787	 1.1929415766	 0.257564
H	 0.7077549148	-0.065485831	 1.8638076526	 0.251532
103.1265	106.9305	182.359	227.7903	308.8535	384.2814	406.3859	475.4461	510.9514	569.6064	603.5741	623.3791	664.3039	757.9327	772.364	829.1728	858.5178	917.4885	927.7595	963.5813	1019.7558	1065.1403	1067.8759	1138.1039	1185.387	1267.9731	1314.1266	1382.7525	1415.1991	1448.5689	1473.5488	1479.0457	1485.662	1506.1031	1714.3133	1730.2354	1809.2233	3014.2197	3061.0882	3135.594	3168.8855	3179.7047	3192.2434	3611.1448	3630.481
CC1=CC=CNC(=O)N1	Cc1ccc[nH]c(=O)[nH]1	
InChI=1S/C6H8N2O/c1-5-3-2-4-7-6(9)8-5/h2-4H,1H3,(H2,7,8,9)	InChI=1S/C6H8N2O/c1-5-3-2-4-7-6(9)8-5/h2-4H,1H3,(H2,7,8,9)
