18
gdb 50428	3.10835	1.41935	1.09813	2.2554	77.12	-0.2314	-0.0255	0.2058	1100.655	0.148412	-401.93733	-401.929562	-401.928618	-401.969922	29.835	
O	 0.4461391897	-0.2231300051	-0.279054219	-0.243643
C	 0.8611033394	 0.5875541438	 0.5080557902	 0.153153
C	 1.1977763496	 2.0315124101	 0.1623501023	-0.057313
C	 0.7276258738	 2.4339774789	-1.2487657733	-0.275193
C	 0.8016191512	 3.9242595922	-1.4360720579	-0.110323
C	 0.7061512334	 4.7659065997	-0.4051443429	-0.031294
C	 0.5297241538	 4.2900156711	 0.9880374205	-0.061203
C	-0.611201002	 3.3673843631	 1.3092110688	-0.251218
N	 0.7592209606	 2.8693024936	 1.2825501073	-0.110965
H	 1.0374266274	 0.3339920072	 1.5758680181	 0.095256
H	 2.298240693	 2.0874356427	 0.1841176903	 0.111493
H	 1.3431551437	 1.9135314906	-1.9895612271	 0.119782
H	-0.2907556036	 2.0615967206	-1.4178349345	 0.128974
H	 0.9284702813	 4.3048739539	-2.4450673269	 0.0963
H	 0.7668232348	 5.8399915582	-0.5522226328	 0.093834
H	 0.8722690676	 4.964588467	 1.7698093959	 0.095899
H	-1.0734994383	 3.391515428	 2.2924277518	 0.120818
H	-1.2850366254	 3.1230084445	 0.4916731492	 0.125645
66.3598	132.3774	211.2568	235.4346	305.685	385.5276	470.9383	514.6337	573.5618	618.1206	713.3846	739.5578	770.3575	825.371	878.0805	912.9482	936.2032	975.0206	992.0576	1042.709	1060.4613	1074.7683	1099.8922	1111.202	1130.5378	1160.5751	1196.1896	1214.5638	1286.9421	1318.3941	1335.0291	1356.0196	1382.1526	1405.6205	1425.4687	1475.2862	1506.1569	1709.7713	1832.3573	2904.3187	2982.3076	3032.5634	3072.8277	3104.873	3126.2321	3163.5212	3185.1336	3192.5456
O=CC1CC=CC2CN12	O=C[C@H]1CC=C[C@H]2CN12	
InChI=1S/C7H9NO/c9-5-7-3-1-2-6-4-8(6)7/h1-2,5-7H,3-4H2	InChI=1S/C7H9NO/c9-5-7-3-1-2-6-4-8(6)7/h1-2,5-7H,3-4H2/t6-,7+,8?/m0/s1
