18
gdb 75889	2.43337	1.58003	1.21555	1.574	68.49	-0.2655	0.0154	0.2809	1063.148	0.146809	-476.241142	-476.23224	-476.231296	-476.274207	34.062	
C	 0.3635648373	 1.5058483807	 0.023661296	-0.441776
C	-0.0266595914	 0.0301175099	-0.0571659964	 0.325135
O	-1.4219497962	-0.1311658953	-0.2394508756	-0.480919
C	 0.6700849974	-0.7028769915	-1.2209751673	-0.119743
O	 1.9560113809	-1.1240201413	-0.7130045452	-0.237324
C	 1.9326335492	-1.1104223236	 0.6423751465	 0.397461
N	 2.9075376526	-1.2844601501	 1.4240230376	-0.574153
C	 0.539914153	-0.7846110907	 1.1304017462	 0.009426
O	 0.535620491	-0.1381074007	 2.3719497016	-0.444335
H	 1.4507629649	 1.6305932411	 0.0426838681	 0.131486
H	-0.0369200065	 2.0410301988	-0.8414866036	 0.122647
H	-0.0298987059	 1.9515055762	 0.9411197864	 0.134689
H	-1.8689197168	 0.3558067812	 0.4613908302	 0.288219
H	 0.0842725136	-1.5789125818	-1.5174567109	 0.12906
H	 0.8481240901	-0.0715233914	-2.093246111	 0.12556
H	 3.7821269599	-1.452779441	 0.9273197847	 0.231813
H	-0.0454884058	-1.7189363081	 1.173654646	 0.103239
H	 1.4099911928	-0.3060256325	 2.7558419667	 0.299516
92.3621	163.7535	223.9332	246.9477	256.9667	289.0808	326.4421	345.3381	389.8636	413.9289	490.4711	555.2691	557.4499	647.5669	690.1295	800.0032	875.6838	916.5346	941.4631	964.306	986.3741	996.3722	1092.0084	1109.7359	1158.0527	1171.8382	1209.572	1230.8237	1263.7592	1310.9669	1352.6109	1382.1966	1398.838	1424.7383	1432.9216	1488.4381	1493.2795	1518.0186	1785.4049	2964.364	3043.7774	3057.4821	3116.1731	3122.3108	3128.0996	3495.8737	3709.6491	3810.5058
CC1(O)COC(=N)C1O	C[C@@]1(O)CO[C]([NH])[C@H]1O	
InChI=1S/C5H9NO3/c1-5(8)2-9-4(6)3(5)7/h3,6-8H,2H2,1H3	InChI=1S/C5H9NO3/c1-5(8)2-9-4(6)3(5)7/h3,6-8H,2H2,1H3/t3-,5-/m1/s1
