16
gdb 49093	3.51391	1.52204	1.25273	2.7313	68.65	-0.2497	-0.0363	0.2134	981.605	0.125263	-437.840453	-437.833535	-437.832591	-437.871864	26.93	
O	-0.5292992641	 0.7172031121	 0.6921494289	-0.264459
C	 0.2039908279	 1.0177293743	-0.2174471286	 0.094882
C	 1.381076345	 1.9095426503	-0.0666064121	 0.201793
C	 1.8203794744	 2.3919945826	 1.3085746398	-0.168493
O	 2.4569053351	 3.6574773191	 1.0842352135	-0.257018
C	 2.7945662756	 3.6842419512	-0.2860172963	 0.069428
C	 3.643929923	 2.4523012572	-0.6978411139	-0.184849
N	 2.4118455802	 1.7123275266	-1.1537390922	-0.190521
C	 1.6445164283	 2.9876186189	-1.056376628	-0.101897
H	 0.0546145206	 0.6423541249	-1.2515466263	 0.094035
H	 0.9550523861	 2.5269771416	 1.9622699578	 0.139986
H	 2.512295602	 1.6900895931	 1.7911826716	 0.115089
H	 3.1285284006	 4.6846930056	-0.5563450166	 0.100029
H	 4.2704168714	 2.6318726989	-1.5742443877	 0.124185
H	 4.230639159	 1.9622169393	 0.084362997	 0.117884
H	 0.9650996049	 3.3506061242	-1.8182367771	 0.109924
104.0068	196.1273	244.0878	299.1735	394.8746	444.9085	465.7732	653.0068	665.9227	715.1692	800.6495	845.5089	862.4049	903.7919	919.4267	971.8405	985.4508	1005.5387	1030.9775	1064.1205	1078.3393	1118.1887	1162.1339	1193.1815	1203.1312	1224.2198	1278.5362	1294.1051	1323.9754	1343.1985	1389.8637	1420.7731	1492.8577	1522.0419	1814.1868	2918.528	3024.3867	3061.0753	3100.4604	3121.6567	3137.242	3189.1783
O=CC12COC3CN1C23	O=C[C@@]12CO[C@H]3CN1[C@@H]23	
InChI=1S/C6H7NO2/c8-2-6-3-9-4-1-7(6)5(4)6/h2,4-5H,1,3H2	InChI=1S/C6H7NO2/c8-2-6-3-9-4-1-7(6)5(4)6/h2,4-5H,1,3H2/t4-,5+,6-,7?/m0/s1
