22
gdb 114738	2.89698	1.24356	1.00038	2.8301	80.98	-0.2415	0.0643	0.3058	1271.4377	0.196031	-404.337754	-404.329016	-404.328071	-404.371302	34.245	
C	-0.0212154441	 1.5690642833	 0.0979687809	-0.388799
C	-0.0008678071	 0.0386257115	 0.0288724112	-0.174212
C	 0.7140383459	-0.511861052	-1.2053172371	 0.017528
C	 2.2241958461	-0.1579948258	-1.3232130358	-0.239882
C	 2.8217970576	-1.2950430062	-2.1442637161	-0.030035
N	 3.0496384025	-2.5237484157	-1.3512204542	-0.349704
C	 1.8505641705	-2.4170668413	-2.2107447541	-0.080816
C	 0.625183301	-2.0632551452	-1.3539684176	 0.101367
O	 0.6366682309	-2.7601239334	-0.1235265559	-0.434245
H	 0.9907073118	 1.9850901414	 0.149207677	 0.114334
H	-0.5112533506	 2.0021031965	-0.7819394603	 0.108336
H	-0.5639640199	 1.9159995024	 0.9829386314	 0.110655
H	 0.474484078	-0.3731425992	 0.9255266823	 0.103591
H	-1.0302465948	-0.3412533806	 0.0391529181	 0.094623
H	 0.2275389866	-0.1027319212	-2.1032566869	 0.063823
H	 2.3776593829	 0.8095026695	-1.8089878727	 0.099916
H	 2.7056212682	-0.1107664111	-0.3397829709	 0.108973
H	 3.5061478709	-1.0836897813	-2.9596953641	 0.088631
H	 3.7461583446	-3.1123076118	-1.7999707864	 0.23591
H	 1.7611169543	-3.0732290846	-3.0695665059	 0.088249
H	-0.3062805909	-2.3420247476	-1.8576234092	 0.075097
H	 1.5763834258	-2.8630840175	 0.0933589264	 0.286662
69.2327	98.6312	171.7532	220.4898	271.6965	302.6239	373.406	410.1629	481.226	533.6065	588.3729	669.3748	707.957	771.6141	789.6098	818.0557	859.956	901.5546	935.3178	956.3735	958.1042	974.9829	991.1005	1050.7064	1066.0822	1100.9059	1123.0751	1147.2351	1161.4854	1163.8155	1211.9656	1229.8528	1273.9949	1285.3563	1309.8681	1321.7814	1329.2646	1347.8436	1375.1714	1389.6483	1413.6555	1414.7679	1458.1787	1482.6244	1490.4356	1501.4488	1507.711	2990.7884	3027.4068	3031.3201	3042.7192	3054.9632	3068.7348	3091.7141	3096.0583	3100.1732	3157.9475	3171.9519	3509.1395	3692.5328
CCC1CC2NC2C1O	CC[C@H]1C[C@H]2N[C@H]2[C@H]1O	
InChI=1S/C7H13NO/c1-2-4-3-5-6(8-5)7(4)9/h4-9H,2-3H2,1H3	InChI=1S/C7H13NO/c1-2-4-3-5-6(8-5)7(4)9/h4-9H,2-3H2,1H3/t4-,5+,6+,7-/m0/s1
