17
gdb 126011	2.97005	1.62481	1.09896	3.8142	74.75	-0.2023	-0.0063	0.196	1075.1111	0.138687	-417.988566	-417.981177	-417.980233	-418.020501	28.443	
C	-0.2157323803	 1.5659359345	-0.0080267096	-0.400877
C	 0.0417580931	 0.0590658991	 0.0697702343	-0.129298
C	 0.8480845627	-0.5111097116	-1.1542027523	-0.177218
N	 1.7020808787	-1.6303475543	-0.6420857065	-0.417096
C	 1.8443894882	-1.3388163885	 0.7291010563	 0.164047
C	 0.9470495865	-0.4232081769	 1.1588348883	 0.374265
O	 1.0049856222	-0.2646072438	 2.485218882	-0.231483
N	 2.0232680823	-1.1013572548	 2.9645092937	-0.148069
C	 2.5035416823	-1.7441729565	 1.9137425955	-0.102459
H	 0.725560287	 2.1210481714	-0.0692702188	 0.123588
H	-0.8170250681	 1.8110743297	-0.8893723846	 0.120064
H	-0.7578037642	 1.9143104112	 0.8757210217	 0.13456
H	-0.9253031125	-0.4596735583	 0.1425364197	 0.10522
H	 0.1906129472	-0.8688477548	-1.9501521733	 0.116749
H	 1.4724011728	 0.2969817052	-1.5618275212	 0.104322
H	 2.5747073691	-1.7045422752	-1.1511773521	 0.235046
H	 3.304225523	-2.4530093765	 2.068599117	 0.128638
105.0621	156.4732	217.3291	258.9102	319.7984	416.3275	477.8085	561.1024	628.2914	645.4036	693.02	727.6369	806.4821	885.4166	889.65	908.2222	943.9256	965.1918	999.8861	1047.2215	1102.402	1129.4507	1154.8162	1204.5032	1225.1025	1296.8698	1317.7969	1344.1324	1371.4141	1380.4671	1411.5106	1441.3326	1495.5141	1498.9341	1508.9234	1528.9661	1672.4174	2992.0217	3001.2392	3037.5359	3094.3255	3108.6884	3115.8546	3245.9973	3543.0426
CC1CNC2=C1ON=C2	C[C@H]1CNc2c1onc2	
InChI=1S/C6H8N2O/c1-4-2-7-5-3-8-9-6(4)5/h3-4,7H,2H2,1H3	InChI=1S/C6H8N2O/c1-4-2-7-5-3-8-9-6(4)5/h3-4,7H,2H2,1H3/t4-/m0/s1
