21
gdb 84103	2.45886	1.45759	1.1107	1.9487	84.44	-0.2236	0.0149	0.2385	1195.431	0.181834	-387.097321	-387.088136	-387.087192	-387.130537	35.691	
C	 0.0010464603	 1.5174035653	 0.0817466476	-0.494506
C	-0.015991901	 0.0241947021	-0.0069641163	 0.334574
C	-0.0027692449	-0.7321942428	-1.1099105266	-0.248926
C	-0.0511467078	-2.2162083449	-0.8026056547	 0.029844
O	 0.9374299502	-2.9960402721	-1.4667781303	-0.434327
C	 0.0113353112	-2.271882847	 0.7345260954	 0.34015
C	-0.7125573098	-3.400658939	 1.426182999	-0.493571
C	 1.2531698182	-1.683620219	 1.366520318	-0.335521
C	-0.0030185854	-0.8404425356	 1.2199882046	-0.173492
H	 0.8704565594	 1.8684895595	 0.6518470558	 0.128642
H	 0.0266828292	 1.9805863274	-0.9080174519	 0.125356
H	-0.8863941481	 1.890600263	 0.6085360574	 0.127585
H	 0.0530789124	-0.3644083035	-2.1286814368	 0.090665
H	-0.9973809973	-2.6565510753	-1.1459551769	 0.085747
H	 1.797284128	-2.6649724825	-1.1839466614	 0.273365
H	-0.2986702929	-4.3678665088	 1.1183941042	 0.128366
H	-0.6260908104	-3.3304367116	 2.5151167547	 0.11019
H	-1.7795651039	-3.4009946186	 1.1746244104	 0.116511
H	 1.5077180223	-2.0480978351	 2.3570700107	 0.109272
H	 2.1095912314	-1.4133586817	 0.754793513	 0.097516
H	-0.541606741	-0.53455642	 2.111352964	 0.082559
136.1526	146.2791	188.7676	198.6642	240.2021	248.5391	305.5751	322.9899	371.3811	452.2198	499.9022	578.3919	586.531	649.6035	748.6007	812.5843	843.5019	861.438	917.0395	959.1521	980.0803	1003.8757	1037.1118	1042.3469	1060.9996	1064.2158	1069.1558	1102.3572	1120.5507	1180.6936	1224.5066	1254.9744	1273.0598	1315.6857	1341.8229	1398.9093	1412.431	1420.0892	1429.265	1478.311	1480.8581	1487.4059	1489.1737	1502.0027	1706.3248	3012.3248	3018.7067	3022.9267	3065.2119	3083.7137	3096.9262	3111.2261	3114.0854	3159.6023	3191.8821	3198.3577	3797.3294
CC1=CC(O)C2(C)CC12	CC1=C[C@@H](O)[C@@]2(C)C[C@@H]12	
InChI=1S/C8H12O/c1-5-3-7(9)8(2)4-6(5)8/h3,6-7,9H,4H2,1-2H3	InChI=1S/C8H12O/c1-5-3-7(9)8(2)4-6(5)8/h3,6-7,9H,4H2,1-2H3/t6-,7+,8-/m0/s1
