19
gdb 79872	2.8977	1.57178	1.377	1.734	74.61	-0.2511	0.0742	0.3253	1009.3182	0.160534	-422.992331	-422.984601	-422.983657	-423.023996	31.253	
O	-0.0418271166	 1.4595950904	-0.09983091	-0.451211
C	 0.0239362515	 0.0542468225	-0.0047451683	 0.054383
C	-0.0107936389	-0.6275732502	 1.3883684955	-0.128527
C	-1.4927894159	-0.1710489487	 1.5757978463	-0.073898
C	-2.2620722767	-1.2507937655	 2.3364709634	-0.244726
C	-1.6377787913	-2.5252629373	 1.7007475971	-0.241004
C	-0.6652768012	-1.8788716221	 0.7128213926	-0.050029
C	-1.3456588381	-0.6377275502	 0.0777717122	 0.38659
O	-2.3304072864	-0.7193861316	-0.8884845551	-0.486048
H	 0.8461821394	 1.8144691141	 0.0025902701	 0.284866
H	 0.7362659058	-0.3665382024	-0.727512883	 0.062056
H	 0.7695007866	-0.6384530818	 2.1476415683	 0.069579
H	-1.6947352022	 0.8780003439	 1.7841351234	 0.072053
H	-2.1022995704	-1.1939262445	 3.4178094402	 0.093113
H	-3.3396644169	-1.1797304386	 2.1584793881	 0.101333
H	-1.1209969042	-3.1546656565	 2.4319219983	 0.093654
H	-2.3776607458	-3.1496378254	 1.191258579	 0.106758
H	-0.0510918909	-2.5225994998	 0.0799547198	 0.061573
H	-2.5699272278	 0.1789044537	-1.1431975779	 0.289484
198.0757	198.6847	225.1515	242.92	268.9071	304.7739	396.9871	510.4473	529.1587	651.7487	712.2434	739.3277	764.9983	821.5202	842.7781	904.8207	927.8078	942.5754	963.7013	990.0887	1005.5124	1033.4122	1035.0152	1098.1857	1108.8863	1112.3001	1162.3551	1171.1968	1189.6008	1245.6197	1249.5768	1253.2719	1273.6971	1282.2729	1311.0728	1314.2101	1343.2325	1398.5478	1462.3698	1487.0941	1509.1411	3012.1173	3044.1086	3054.1528	3078.1335	3097.786	3098.8123	3128.0388	3140.3033	3803.0431	3826.4556
OC1C2C3CCC2C13O	O[C@H]1[C@H]2[C@@H]3CC[C@H]2[C@]13O	
InChI=1S/C7H10O2/c8-6-5-3-1-2-4(5)7(3,6)9/h3-6,8-9H,1-2H2	InChI=1S/C7H10O2/c8-6-5-3-1-2-4(5)7(3,6)9/h3-6,8-9H,1-2H2/t3-,4+,5-,6-,7-/m0/s1
