13
gdb 27915	2.05458	2.01863	1.01822	0.0062	63.38	-0.2525	0.001	0.2536	1058.8594	0.092156	-486.168793	-486.161164	-486.16022	-486.201791	27.933	
N	-0.0157581616	 1.3380023812	 0.0998306507	-0.553322
C	 0.0021574605	-0.005779819	 0.0204474536	 0.456925
N	-1.1891884969	-0.6303242177	-0.0090938376	-0.35681
C	-1.0884927977	-1.9453771241	-0.0872875221	 0.443586
O	-2.2392712959	-2.6218982027	-0.1201400408	-0.384816
N	 0.0376300057	-2.6663511862	-0.1367204206	-0.465272
C	 1.1441217949	-1.9149077096	-0.0991816636	 0.443586
O	 2.3125177342	-2.5597792762	-0.1443787843	-0.384816
N	 1.209720973	-0.597585466	-0.021874858	-0.35681
H	 0.852157894	 1.8419311231	 0.1241572607	 0.273362
H	-0.8967934291	 1.8180644099	 0.1334688513	 0.273362
H	-2.0026412356	-3.5579491257	-0.1768034883	 0.305512
H	 2.1009289247	-3.501946737	-0.198660201	 0.305512
36.6342	192.3056	201.1159	216.5819	345.8945	369.8613	570.2553	578.1929	584.7236	585.0073	587.037	589.4238	678.6583	764.7341	770.0483	845.9067	988.2574	1015.5009	1095.9903	1164.2866	1249.278	1263.2946	1344.4389	1471.9988	1508.5888	1534.1493	1595.8061	1653.1794	1684.5707	3633.6603	3774.725	3777.9223	3779.6111
NC1=NC(O)=NC(O)=N1	Nc1nc(O)nc(O)n1	
InChI=1S/C3H4N4O2/c4-1-5-2(8)7-3(9)6-1/h(H4,4,5,6,7,8,9)	InChI=1S/C3H4N4O2/c4-1-5-2(8)7-3(9)6-1/h(H4,4,5,6,7,8,9)
