19
gdb 36866	4.33646	0.97327	0.86734	1.5721	77.15	-0.243	0.0221	0.2652	1368.6485	0.161273	-419.19734	-419.188829	-419.187885	-419.232078	30.487	
C	 0.2976658787	 1.1186087238	 0.8232572907	-0.335452
C	-0.0668432138	-0.0642650189	-0.0601866142	 0.031643
C	-1.4841881457	-0.3163982527	-0.4196290881	-0.245616
N	-0.5275691099	 0.1484530883	-1.4379051287	-0.30806
C	 1.5608569687	 1.7872056836	 0.376226912	 0.420955
N	 2.6954997727	 1.7272057723	 0.9410839296	-0.308549
C	 3.6171287131	 2.5247024682	 0.1173605169	-0.184689
C	 2.7586243436	 3.0084189558	-1.0807520637	-0.111739
O	 1.4355960194	 2.51287755	-0.7743668449	-0.256598
H	-0.5133009875	 1.8563288504	 0.8003163047	 0.114642
H	 0.4352000475	 0.790644303	 1.8564023641	 0.13637
H	 0.6026532521	-0.9157489095	 0.0441263502	 0.103804
H	-1.8430850295	-1.3324518003	-0.5568896504	 0.119488
H	-2.2311409179	 0.3784943966	-0.0425517503	 0.109478
H	-0.6396288597	 1.1446214232	-1.610017921	 0.236512
H	 4.0197690444	 3.3543171712	 0.7087948558	 0.116824
H	 4.4660166382	 1.9099216314	-0.1982006258	 0.119322
H	 2.7036827473	 4.0959698411	-1.1757224147	 0.118964
H	 3.0702121082	 2.5833954625	-2.0392564521	 0.1227
44.6377	66.0015	90.526	126.0763	271.9832	313.7937	351.902	434.2536	632.7568	752.3419	764.8822	802.9432	827.8706	834.7945	902.3776	923.8423	941.4047	956.3022	978.0553	1011.3745	1029.7398	1054.0776	1117.2534	1126.1917	1148.1958	1166.4107	1215.4534	1236.2762	1247.0173	1252.5569	1274.7607	1312.5257	1320.7724	1349.9531	1388.5288	1417.9682	1462.3736	1502.366	1513.8278	1525.5309	1745.5337	3040.7293	3040.9235	3056.0051	3071.2101	3104.6323	3105.5753	3110.3487	3130.9121	3189.6676	3505.405
C(C1CN1)C1=NCCO1	C([C@H]1CN1)C1=NCCO1	
InChI=1S/C6H10N2O/c1-2-9-6(7-1)3-5-4-8-5/h5,8H,1-4H2	InChI=1S/C6H10N2O/c1-2-9-6(7-1)3-5-4-8-5/h5,8H,1-4H2/t5-/m0/s1
