16
gdb 51144	3.12928	1.26436	0.99735	4.3438	73.86	-0.2464	0.0031	0.2495	1171.7413	0.124315	-434.017193	-434.009028	-434.008084	-434.050794	30.067	
N	-0.1383852414	 1.3025924289	-0.1173184273	-0.439774
C	-0.0688053298	 0.0537188816	 0.0243069933	 0.104641
O	-1.226530138	-0.6675261274	 0.0636626781	-0.224703
C	-1.0760011609	-2.0372436326	 0.1034003648	 0.359232
C	-1.265141216	-2.9188703287	-1.1317686242	-0.347108
C	-2.160574624	-3.089021786	 0.065635735	-0.096072
N	-1.4806370467	-3.8129323067	 1.1527837806	-0.342811
C	-0.4280221773	-2.8537502781	 1.1916366219	 0.319671
N	 0.6219842121	-2.6852875178	 1.8676516682	-0.548739
H	 0.7975737789	 1.7030277576	-0.1048763134	 0.234067
H	 0.8277590212	-0.5609229172	 0.1492433864	 0.127732
H	-1.7013002102	-2.3793370178	-1.9675581597	 0.140286
H	-0.5400593811	-3.6836205569	-1.3962628114	 0.121161
H	-3.2346636813	-2.9625452937	 0.068294123	 0.131694
H	-1.2554664726	-4.7961831707	 1.031898023	 0.236794
H	 0.7744563372	-3.4451082646	 2.5332603617	 0.223929
50.4296	97.6457	135.1613	200.1427	298.8868	363.6556	434.9113	455.382	540.8467	629.6253	672.8498	758.1206	795.2722	825.9023	860.4053	877.555	919.2102	947.798	985.1288	1012.5738	1042.2183	1050.4603	1065.087	1083.2181	1092.0479	1200.1412	1270.4931	1280.2541	1305.1795	1331.8789	1401.1005	1423.8995	1482.064	1747.4106	1805.4237	3086.6201	3114.8034	3209.1428	3216.6432	3465.4269	3514.4647	3518.3476
N=COC12CC1NC2=N	[NH][CH]O[C@]12C[C@H]1N[C]2[NH]	
InChI=1S/C5H7N3O/c6-2-9-5-1-3(5)8-4(5)7/h2-3,6H,1H2,(H2,7,8)	InChI=1S/C5H7N3O/c6-2-9-5-1-3(5)8-4(5)7/h2-3,6H,1H2,(H2,7,8)/t3-,5-/m1/s1
