17
gdb 94777	3.98421	1.16814	1.02313	2.4319	70.22	-0.2589	-0.0456	0.2133	1170.36	0.134435	-458.958466	-458.950189	-458.949245	-458.99147	30.477	
C	 0.2364164245	 1.5801455366	-0.0250316513	-0.405032
C	 0.0645453129	 0.0694866961	 0.0231611226	 0.122003
O	 0.7011525764	-0.4995487718	-1.1202376807	-0.272855
C	 1.1939840091	-1.7979509416	-0.8156673676	-0.15177
C	 1.423965325	-1.8005179466	 0.6806087202	 0.291308
O	 2.1349512028	-0.64237415	 1.1575638956	-0.277321
C	 0.7174675406	-0.617012536	 1.2141615748	-0.064015
C	 1.6045133788	-3.0449878645	 1.4710636709	 0.082681
O	 1.403400436	-4.1506029286	 1.0344261225	-0.253753
H	 1.2966583752	 1.8358993163	 0.0411018093	 0.141128
H	-0.1611906793	 1.9701542648	-0.9652800355	 0.134951
H	-0.3004020971	 2.0566149691	 0.801092723	 0.116947
H	-1.007840161	-0.1924994909	 0.0395217203	 0.07845
H	 0.4742485743	-2.590624238	-1.0657643922	 0.120991
H	 2.1076572074	-1.9578403804	-1.395359746	 0.128735
H	 0.2691247307	-0.5756044683	 2.2041289578	 0.113518
H	 1.9498446238	-2.8631806963	 2.5117865961	 0.094033
87.2587	148.8632	163.341	209.4738	240.2783	276.0144	371.3897	403.8147	480.2877	548.3638	644.9675	717.2316	789.2017	839.2536	865.1334	902.1142	956.7149	1002.6678	1034.3076	1050.8855	1079.6831	1093.5712	1128.8008	1153.2893	1224.1958	1271.379	1273.7956	1338.8179	1358.8786	1379.35	1397.0589	1407.0776	1449.6976	1485.3059	1498.0521	1506.6338	1816.345	2905.7687	2954.6949	3011.6974	3048.0065	3089.487	3121.7657	3136.2301	3148.942
CC1OCC2(OC12)C=O	C[C@H]1OC[C@]2(O[C@@H]12)C=O	
InChI=1S/C6H8O3/c1-4-5-6(2-7,9-5)3-8-4/h2,4-5H,3H2,1H3	InChI=1S/C6H8O3/c1-4-5-6(2-7,9-5)3-8-4/h2,4-5H,3H2,1H3/t4-,5+,6-/m1/s1
