17
gdb 62980	2.29035	1.61108	1.29384	4.7822	72.1	-0.2633	0.0209	0.2843	1038.3954	0.135172	-417.974734	-417.966181	-417.965237	-418.007593	32.411	
C	-0.0806974736	 1.5673368062	-0.1562360228	-0.456959
C	-0.0117285766	 0.0501714808	-0.0468262945	 0.229425
N	-1.269923314	-0.62646759	 0.2545812804	-0.557873
C	 0.6952070335	-0.6823028786	-1.2108527311	 0.029712
O	 2.0339783341	-0.1882354345	-1.2804866416	-0.235283
C	 1.7422108228	-1.217808977	-0.3375023003	 0.021885
C	 1.1218823228	-0.5552315037	 0.9079949943	-0.21952
C	 1.9597294391	 0.3497229859	 1.6743828822	 0.297671
N	 2.6125231805	 1.0794937184	 2.2892922414	-0.338694
H	 0.8882455033	 1.9870457403	-0.4363161717	 0.153067
H	-0.8170097153	 1.8549872446	-0.9152387227	 0.109996
H	-0.3829798397	 2.012462675	 0.7977822249	 0.125813
H	-1.6601165426	-0.2538442706	 1.1172875613	 0.235648
H	-1.9495201834	-0.4122261044	-0.4720838739	 0.232325
H	 0.2512743377	-1.0864406469	-2.1131590692	 0.114477
H	 2.3255183904	-2.1288199796	-0.3817387016	 0.123381
H	 0.6615904109	-1.2973321959	 1.5640665147	 0.13493
100.501	138.82	219.6533	222.907	245.0188	289.8806	353.2163	385.3306	404.1647	517.697	551.4723	580.0455	681.5071	790.3428	856.7747	859.3081	884.0572	900.3126	916.5162	972.1248	1009.4476	1048.0925	1053.7361	1082.5632	1133.0177	1191.3974	1228.2407	1247.0101	1262.0734	1312.2954	1333.5871	1393.8334	1412.17	1482.6183	1498.6246	1654.1551	2355.1185	3031.5766	3096.8182	3097.6487	3129.0563	3187.8406	3206.4356	3470.6177	3546.0795
CC1(N)C2OC2C1C#N	C[C@@]1(N)[C@H]2O[C@H]2[C@H]1C#N	
InChI=1S/C6H8N2O/c1-6(8)3(2-7)4-5(6)9-4/h3-5H,8H2,1H3	InChI=1S/C6H8N2O/c1-6(8)3(2-7)4-5(6)9-4/h3-5H,8H2,1H3/t3-,4+,5+,6+/m1/s1
