13
gdb 42213	3.43714	1.24556	0.92484	4.8241	66.59	-0.2799	-0.1194	0.1605	1167.9283	0.089305	-452.763326	-452.755329	-452.754385	-452.797288	27.071	
O	 0.5632441741	 1.5043087883	 1.6480071457	-0.23422
C	 0.1000929336	 1.6290195127	 0.5460914426	 0.220029
C	 0.8700352761	 1.2381345722	-0.6494788116	 0.266199
N	 1.5141412511	 0.9168651267	-1.5538761808	-0.304615
C	-1.2690585657	 2.178801859	 0.2765319433	 0.353596
N	-2.0725425227	 2.5659673122	 1.1779729407	-0.283141
C	-3.2784494831	 3.0205698934	 0.4672015932	-0.19317
C	-2.9645798832	 2.8007060384	-1.0377814626	-0.1209
O	-1.6224126816	 2.2449419041	-1.0278606675	-0.258535
H	-4.1414715105	 2.4422979714	 0.8115972693	 0.139676
H	-3.4708760988	 4.0693257606	 0.7137632477	 0.139681
H	-3.6234863864	 2.0793495105	-1.5260780145	 0.137723
H	-2.942449773	 3.7222197705	-1.6237463553	 0.137677
40.6346	98.4449	123.5952	172.482	249.7735	292.2863	441.5309	478.0178	560.9927	668.0951	750.2751	803.6308	827.0072	900.5787	960.4903	979.6471	1000.8967	1090.3727	1112.4399	1212.6159	1245.9936	1257.8286	1345.1352	1386.9194	1492.671	1524.9122	1703.9962	1799.7137	2344.3552	3053.5745	3071.8888	3085.2519	3124.1804
O=C(C#N)C1=NCCO1	O=C(C#N)C1=NCCO1	
InChI=1S/C5H4N2O2/c6-3-4(8)5-7-1-2-9-5/h1-2H2	InChI=1S/C5H4N2O2/c6-3-4(8)5-7-1-2-9-5/h1-2H2
