12
gdb 11145	5.04435	1.51706	1.28922	4.5306	62.39	-0.2753	-0.0525	0.2227	894.8728	0.083354	-381.344039	-381.337348	-381.336404	-381.375136	24.692	
O	-0.0243562275	-0.0285388187	 0.0662306242	-0.334027
C	 0.0381175741	 1.165049535	 0.0364809988	 0.429099
O	-1.0861274305	 1.9628187868	 0.0001367437	-0.220514
C	-0.7062365964	 3.3455674413	-0.014280791	-0.104814
C	 0.8080838529	 3.3239165278	 0.0090062275	-0.07255
C	 1.2215021359	 2.0619348984	 0.0391881136	-0.223755
C	-1.2537540618	 4.036258098	-1.1776304107	 0.333595
C	-1.6889715908	 4.6302931508	-2.1256221627	-0.451522
H	-1.1006806541	 3.806760409	 0.9025080523	 0.141893
H	 1.395068775	 4.2318794908	-0.0062553146	 0.145418
H	 2.2300727036	 1.6770005927	 0.0624192582	 0.143297
H	-2.0824705604	 5.1464661881	-2.9668976294	 0.213881
95.7647	147.7289	240.9047	335.7328	452.0742	506.7573	543.423	638.4925	685.238	697.4502	709.9073	799.3179	835.4176	888.6814	921.5449	977.5097	1034.9498	1046.6712	1111.0184	1153.4636	1291.7291	1323.5089	1348.9798	1668.4998	1881.5936	2245.9014	3009.552	3233.6223	3262.2015	3500.4782
O=C1OC(C=C1)C#C	O=C1O[C@@H](C=C1)C#C	
InChI=1S/C6H4O2/c1-2-5-3-4-6(7)8-5/h1,3-5H	InChI=1S/C6H4O2/c1-2-5-3-4-6(7)8-5/h1,3-5H/t5-/m1/s1
