15
gdb 126355	2.99772	1.34268	0.94084	2.497	72.74	-0.2693	-0.1099	0.1594	1197.2353	0.110599	-450.084099	-450.075666	-450.074722	-450.118329	29.973	
C	-0.1189700894	 1.5336295451	 0.1560892275	-0.384173
C	 0.0492985118	 0.0288091444	-0.0283081579	-0.265413
C	 0.7569042525	-0.3670158359	-1.2848452399	 0.377658
N	 1.2106734219	 0.4710137023	-2.1291811181	-0.26827
C	 1.8428824857	-0.0172111707	-3.2706605175	 0.446871
N	 2.443039528	 0.7538382458	-4.0688295216	-0.501147
O	 1.7583335343	-1.3807637095	-3.5105422868	-0.26718
N	 1.3201060216	-2.2768274559	-2.4657857926	 0.0672
N	 0.8760766289	-1.792763013	-1.4324289484	-0.136785
H	 0.8502930841	 2.0374320835	 0.1777873363	 0.142805
H	-0.6941035054	 1.9687608217	-0.6648991556	 0.140393
H	-0.6408407044	 1.7401651237	 1.0938593499	 0.120364
H	 0.6029233347	-0.4219000231	 0.807301547	 0.14529
H	-0.9193200866	-0.4903292398	-0.0253760916	 0.143726
H	 2.8573300023	 0.2235530914	-4.8360473107	 0.238662
34.4164	90.275	153.6426	178.0429	229.7031	351.0997	372.6004	436.3703	548.6302	564.9074	613.0001	675.4083	755.6181	759.2696	810.5841	873.3931	891.6635	970.9067	992.4237	1057.7124	1100.5013	1119.0525	1176.8376	1273.2088	1287.4392	1389.5317	1421.0917	1449.0205	1492.5485	1498.7219	1624.6253	1725.3991	1748.4119	3021.0737	3043.3698	3055.8934	3129.6836	3132.2198	3499.1593
CCC1=NC(=N)ON=N1	CCC1=N[N]OC(=N1)[NH]	
InChI=1S/C4H6N4O/c1-2-3-6-4(5)9-8-7-3/h5H,2H2,1H3	InChI=1S/C4H6N4O/c1-2-3-6-4(5)9-8-7-3/h5H,2H2,1H3
