16
gdb 20649	5.13605	1.29308	1.06964	1.6867	68.15	-0.229	0.0266	0.2555	1091.0913	0.131291	-379.943052	-379.934797	-379.933853	-379.97661	28.991	
C	-0.0836836743	 1.5146372041	 0.1313147329	-0.5038
C	-0.0152113079	 0.0361381423	-0.0707330012	 0.386178
C	-0.1817134045	-0.7493045583	-1.192856511	-0.358783
C	 0.0203381528	-2.0779479214	-0.7511435304	 0.358154
C	-0.0722501995	-3.3366379085	-1.5532680042	-0.186598
O	 0.5532134507	-3.1154679725	-2.8128880882	-0.418643
N	 0.2956831674	-2.1231738143	 0.5489398411	-0.297718
N	 0.2605970445	-0.8314150046	 0.9396397277	-0.251942
H	 0.8794262132	 1.9285996925	 0.452297682	 0.136399
H	-0.3609260352	 2.0060755616	-0.8033263512	 0.144285
H	-0.8287544388	 1.7893855531	 0.8869325927	 0.133652
H	-0.4014463293	-0.4156452417	-2.1935583275	 0.10523
H	 0.4063056903	-4.1488643708	-0.9879396843	 0.106295
H	-1.1305738918	-3.6127018546	-1.6934632402	 0.094236
H	 0.38446084	-3.8866385376	-3.3622370667	 0.286705
H	 0.4517110627	-0.6107953595	 1.9023107587	 0.266349
51.4609	65.558	144.5373	209.4484	259.7863	306.8412	366.9752	457.186	495.5107	607.6466	670.1633	703.4176	762.4678	817.9935	988.4672	1006.1495	1023.7648	1042.0048	1062.6403	1071.2871	1156.8126	1186.2417	1239.2574	1240.7608	1309.5924	1411.9185	1429.3461	1443.4068	1468.3781	1483.2389	1512.0581	1513.2535	1518.1595	1617.3687	2960.8998	3017.6753	3028.5603	3077.7117	3130.5244	3273.0663	3670.2006	3828.1945
CC1=CC(CO)=NN1	Cc1cc(CO)n[nH]1	
InChI=1S/C5H8N2O/c1-4-2-5(3-8)7-6-4/h2,8H,3H2,1H3,(H,6,7)	InChI=1S/C5H8N2O/c1-4-2-5(3-8)7-6-4/h2,8H,3H2,1H3,(H,6,7)
