19
gdb 38428	3.6843	1.26895	1.26601	2.8277	73.44	-0.2432	0.0745	0.3177	1066.1326	0.160623	-422.99707	-422.9896	-422.988656	-423.029608	29.058	
C	-0.3953187695	 1.2009115454	-0.2137076542	-0.104045
O	 0.8095493236	 1.8783109822	 0.2019837876	-0.274325
C	 1.4758341723	 0.6285132688	 0.456039871	-0.142362
C	 0.2384744666	-0.1903426719	 0.0303273075	 0.308701
C	-0.4544496272	-1.0681842233	 1.0954345287	-0.325947
C	-1.325472185	-2.0029895081	 0.2820240156	 0.051313
O	-2.0512654508	-1.3353729171	-0.7629224828	-0.257447
C	-0.8360346744	-2.0227267376	-1.1022656156	 0.051307
C	 0.3610250356	-1.1010921864	-1.210950051	-0.325913
H	-1.250535798	 1.4488893284	 0.4264559501	 0.100678
H	-0.6567521388	 1.4245535918	-1.2550139261	 0.100711
H	 2.3664435302	 0.4987928594	-0.174102108	 0.094143
H	 1.7708582303	 0.5234551674	 1.5091448334	 0.094125
H	 0.2825742075	-1.6616279355	 1.653333282	 0.10399
H	-1.0158557617	-0.4740396914	 1.8232690957	 0.114507
H	-1.838262987	-2.8434222368	 0.7421367246	 0.096029
H	-0.9532646704	-2.8791110181	-1.7609376922	 0.096028
H	 0.3871270465	-0.5306513061	-2.1446767076	 0.114519
H	 1.2795533404	-1.701885551	-1.1664371088	 0.103988
51.3825	109.0798	240.5217	323.8245	373.6586	395.9303	417.8565	501.3282	666.4866	776.2671	812.0205	860.3919	861.2075	881.2312	907.5984	932.5311	956.7656	983.2124	989.0936	1004.4902	1032.2832	1040.7295	1097.1757	1130.818	1150.191	1159.15	1161.9321	1179.1407	1243.5241	1254.3892	1281.9299	1298.8629	1310.4022	1335.8516	1338.4677	1386.7435	1439.3231	1474.7669	1484.4492	1512.5929	1536.2481	2991.5933	3016.4325	3020.3106	3025.5593	3033.8413	3058.7561	3080.7073	3081.1894	3145.3578	3157.739
C1OCC11CC2OC2C1	C1OCC21C[C@H]1O[C@H]1C2	
InChI=1S/C7H10O2/c1-5-6(9-5)2-7(1)3-8-4-7/h5-6H,1-4H2	InChI=1S/C7H10O2/c1-5-6(9-5)2-7(1)3-8-4-7/h5-6H,1-4H2/t5-,6+
