21
gdb 115106	2.68685	1.2789	1.04832	2.497	80.02	-0.2455	0.0171	0.2627	1236.9582	0.182757	-424.227121	-424.217968	-424.217024	-424.260948	34.652	
C	 0.0320752852	 1.3606733906	-0.1320492783	-0.238883
O	-0.0053070468	-0.0151433985	 0.1650599386	-0.249832
C	-1.287416897	-0.6028418026	 0.0836823033	 0.146411
C	-1.7919729203	-0.75645334	-1.3616082643	-0.297482
C	-2.9792398558	-1.6839863073	-1.4422965148	-0.0559
C	-3.3652276118	-2.4784787143	-0.4419543114	-0.069505
C	-2.6408808667	-2.5539931946	 0.8809121785	-0.288312
C	-1.2225966799	-1.9759597242	 0.768888914	 0.095521
O	-0.352708965	-2.8711394709	 0.0889191491	-0.438128
H	 1.0464777654	 1.7074396615	 0.0807143822	 0.127966
H	-0.1923467616	 1.574912321	-1.1873545576	 0.104768
H	-0.6745799755	 1.9318672226	 0.491807593	 0.099725
H	-2.0102593358	 0.0143893013	 0.6467799227	 0.060801
H	-2.0597422259	 0.2191061753	-1.7833591474	 0.106548
H	-0.9631119212	-1.1322960257	-1.9780388754	 0.121882
H	-3.5359477931	-1.6860847267	-2.3764924145	 0.089043
H	-4.2388453977	-3.1136127778	-0.5668836498	 0.089851
H	-3.2115944048	-2.0232198605	 1.6558287104	 0.111596
H	-2.5666884105	-3.5945715879	 1.2181350889	 0.11327
H	-0.779459011	-1.8431617673	 1.7603220272	 0.087854
H	-0.81572216	-3.1847320041	-0.6960579443	 0.282805
79.9293	120.4731	143.4653	203.3617	208.9502	328.1122	333.82	358.5834	401.5315	413.3873	465.1655	574.4299	638.4022	689.6619	769.2476	865.8483	905.8207	915.0002	953.1123	989.3869	1008.1224	1027.8247	1043.0477	1077.4599	1108.1051	1156.2218	1178.3722	1191.8676	1197.2692	1220.7544	1224.9797	1268.998	1316.8356	1339.7908	1355.7769	1377.7276	1402.8729	1415.8795	1434.2978	1469.6471	1478.7758	1480.4384	1495.2228	1510.6126	1714.9894	2943.0571	2970.7891	3011.9436	3014.4496	3021.5483	3056.2879	3056.8576	3072.7029	3110.0543	3143.3099	3166.8125	3799.6302
COC1CC=CCC1O	CO[C@H]1CC=CC[C@H]1O	
InChI=1S/C7H12O2/c1-9-7-5-3-2-4-6(7)8/h2-3,6-8H,4-5H2,1H3	InChI=1S/C7H12O2/c1-9-7-5-3-2-4-6(7)8/h2-3,6-8H,4-5H2,1H3/t6-,7+/m1/s1
