17
gdb 95144	2.18321	1.94244	1.51552	3.0263	67.47	-0.2335	-0.034	0.1995	940.1192	0.136783	-458.949971	-458.942364	-458.94142	-458.981985	29.549	
O	 0.052641712	 1.4106448786	-0.2573359071	-0.435154
C	 0.0255784393	 0.025932848	 0.0218641118	 0.120343
C	 0.6383070133	-0.3541581507	 1.3925506373	-0.111987
O	-0.3141228437	-0.439403052	 2.4565411116	-0.279635
C	-1.5911917009	-0.9396862205	 2.0545949315	 0.012107
C	-1.5076797901	-1.8512242043	 0.7958614979	-0.285546
C	-1.4178089093	-0.542681851	-0.0537827005	-0.181968
C	-2.1791607009	 0.1293434122	 1.1038595327	 0.414374
O	-2.9011393512	 1.0792799594	 1.2028583095	-0.322298
H	-0.6308272865	 1.8508948856	 0.2623894173	 0.297159
H	 0.6411032984	-0.4320477008	-0.7612743183	 0.09787
H	 1.1718438854	-1.3100895586	 1.2998494443	 0.101278
H	 1.3633803016	 0.4092214422	 1.6842330882	 0.129693
H	-2.1186783285	-1.2637256277	 2.9519522916	 0.10206
H	-0.6777895046	-2.5561661036	 0.7369271099	 0.119057
H	-2.4493326804	-2.3809276148	 0.6355625512	 0.12277
H	-1.8243893038	-0.4909451018	-1.0640559988	 0.099876
103.3566	136.7588	219.5367	309.7119	380.1804	396.9701	409.0643	458.9819	472.2572	592.2163	704.7062	781.1121	800.2013	825.8978	895.8202	912.5406	930.5923	966.8932	1034.7189	1051.1229	1069.7772	1082.0532	1128.1212	1139.8455	1174.9256	1191.471	1241.442	1259.2067	1275.7034	1308.5934	1331.9471	1341.0013	1390.7405	1436.7147	1485.4391	1514.4423	1885.3622	3005.6861	3044.8415	3080.4028	3105.7867	3116.6698	3119.8558	3140.6718	3787.3296
OC1COC2CC1C2=O	O[C@H]1CO[C@@H]2C[C@H]1C2=O	
InChI=1S/C6H8O3/c7-4-2-9-5-1-3(4)6(5)8/h3-5,7H,1-2H2	InChI=1S/C6H8O3/c7-4-2-9-5-1-3(4)6(5)8/h3-5,7H,1-2H2/t3-,4+,5-/m1/s1
