17
gdb 112322	2.85708	1.36553	1.03447	3.824	70.54	-0.2274	0.0208	0.2483	1142.4202	0.137001	-455.128078	-455.119902	-455.118958	-455.160991	30.85	
O	-0.0559986911	 1.34446875	-0.229468528	-0.428073
C	 0.0177847996	-0.0704040069	-0.1013419481	-0.087809
C	-1.4007768109	-0.5607146549	 0.1746924058	 0.004077
N	-2.3264902777	-0.1573374884	-0.8771362191	-0.346643
C	-3.016294129	-1.1856823421	-1.4870020753	 0.402186
N	-3.9066144637	-1.1710349951	-2.3992199022	-0.561528
C	-2.531982905	-2.4503312469	-0.8388893242	-0.020756
O	-1.1241362995	-2.6692475277	-1.0617091434	-0.248711
C	-1.5332258748	-2.0788135454	 0.1712523043	 0.008596
H	 0.7900383961	 1.6648805488	-0.5545385712	 0.295156
H	 0.3798777033	-0.54421244	-1.0224609124	 0.116584
H	 0.678205314	-0.3652940337	 0.7289789069	 0.092074
H	-1.7249679004	-0.1652795819	 1.148369034	 0.093303
H	-2.2230393626	 0.7519029416	-1.2981560567	 0.250667
H	-4.1155307816	-0.2162719034	-2.6989533345	 0.202186
H	-3.1594682077	-3.3330671972	-0.8119338579	 0.120527
H	-1.3375778589	-2.6534789069	 1.0712286319	 0.108164
89.5971	133.1659	162.9891	238.9842	262.7517	341.2241	419.79	433.9788	488.1836	507.1167	634.7599	700.1466	771.3178	842.8797	854.9506	876.0823	902.5267	938.044	982.5914	1029.6593	1069.6053	1080.352	1105.3184	1121.352	1161.6352	1230.4196	1244.1577	1257.1385	1292.9178	1304.1217	1359.3948	1397.0229	1418.7141	1428.4035	1455.9093	1518.5272	1748.4343	2983.1222	2998.9327	3051.5199	3166.1745	3201.4956	3446.9565	3646.1048	3838.1774
OCC1NC(=N)C2OC12	OC[C@H]1N[C]([NH])[C@H]2O[C@@H]12	
InChI=1S/C5H8N2O2/c6-5-4-3(9-4)2(1-8)7-5/h2-4,8H,1H2,(H2,6,7)	InChI=1S/C5H8N2O2/c6-5-4-3(9-4)2(1-8)7-5/h2-4,8H,1H2,(H2,6,7)/t2-,3+,4+/m1/s1
