20
gdb 43669	5.44184	0.72373	0.69743	3.9288	80.79	-0.2458	0.0378	0.2836	1642.459	0.171091	-403.161213	-403.152287	-403.151342	-403.195974	33.197	
O	 0.2425389689	 0.0813836061	-0.4544048922	-0.35819
C	 0.052064421	 1.2337897374	-0.1744796426	 0.430111
C	-1.1612039861	 2.098964011	 0.2475933199	-0.41339
C	-0.1756060346	 3.3053577087	 0.2140234959	 0.072471
C	 0.0415132001	 4.0708146887	 1.5159978365	-0.225483
C	 1.2073478786	 5.0354078305	 1.4535991142	 0.028643
C	 1.030919847	 6.4145808182	 0.8643278434	-0.257853
C	 1.2528651865	 6.2470651272	 2.3476310205	-0.273455
N	 0.8776586585	 2.3329269147	-0.1299515685	-0.327147
H	-1.9673273823	 2.1224081331	-0.4874517784	 0.130728
H	-1.5671225425	 1.8583661307	 1.2324209568	 0.128395
H	-0.3799120207	 4.0048179218	-0.6056145149	 0.085631
H	-0.877993433	 4.6241732346	 1.7486361026	 0.098039
H	 0.1942839503	 3.3485493518	 2.3286423407	 0.102008
H	 2.166683074	 4.5597012662	 1.2627259848	 0.080271
H	 1.8330741845	 6.8325447462	 0.2662909859	 0.113156
H	 0.0377155789	 6.7005770168	 0.5326003673	 0.110956
H	 0.4095237655	 6.4196756483	 3.0085038137	 0.112747
H	 2.2084654634	 6.5470281788	 2.7629296606	 0.114419
H	 1.8283615521	 2.4536315492	-0.447193596	 0.247946
52.2062	61.6581	104.0131	146.17	283.9822	317.3211	382.8374	406.1917	463.3886	517.4165	565.4275	725.5392	774.0463	806.6371	815.2042	840.875	884.1904	930.6336	945.4944	962.5546	1000.1117	1039.9678	1057.5246	1076.94	1079.5481	1121.9624	1143.5219	1161.366	1186.8234	1197.1378	1200.8816	1226.3248	1256.4519	1281.097	1323.7314	1383.8136	1400.8551	1417.3137	1459.0608	1467.556	1473.6949	1506.4119	1895.6339	3013.5957	3029.5739	3058.3804	3083.644	3128.191	3129.5375	3134.5666	3142.6027	3206.6126	3221.8504	3608.3111
O=C1CC(CC2CC2)N1	O=C1C[C@@H](CC2CC2)N1	
InChI=1S/C7H11NO/c9-7-4-6(8-7)3-5-1-2-5/h5-6H,1-4H2,(H,8,9)	InChI=1S/C7H11NO/c9-7-4-6(8-7)3-5-1-2-5/h5-6H,1-4H2,(H,8,9)/t6-/m1/s1
