13
gdb 132768	2.41998	1.80197	1.03951	1.5747	62.37	-0.2808	-0.04	0.2408	1020.6434	0.088855	-502.067886	-502.060433	-502.059489	-502.101053	26.509	
C	-0.0160890927	 1.5488624708	 0.0061804931	-0.511398
C	 0.0026316489	 0.0476734768	 0.0126857188	-0.065371
C	 0.1027024195	-0.7213953903	-1.1453365696	 0.319362
F	 0.184771766	-0.0835702251	-2.303951122	-0.050376
N	 0.1234705739	-2.0363037634	-1.1957152918	-0.308418
C	 0.0392233723	-2.6475061284	-0.0136508017	 0.069466
N	-0.0610501092	-2.0605395307	 1.1769688411	-0.307882
C	-0.0763569549	-0.7423282031	 1.156701851	 0.318633
F	-0.1757937265	-0.1423914215	 2.334352749	-0.054196
H	 0.898034884	 1.9497743869	-0.4429003671	 0.150832
H	-0.8566792956	 1.9272116792	-0.5839346815	 0.150813
H	-0.1025858817	 1.9358028191	 1.021627013	 0.149275
H	 0.0539205161	-3.7331784103	-0.0236955323	 0.139261
30.9159	132.1219	248.9245	265.0953	289.9309	360.1815	516.0965	542.124	554.2763	578.9846	705.0424	718.1238	811.6892	872.4402	950.9471	990.5543	1063.2979	1137.5623	1176.9438	1292.7363	1339.0381	1341.7128	1414.9292	1467.3409	1474.9817	1488.2358	1496.658	1605.4397	1650.4122	3047.4346	3101.0515	3152.0688	3185.4799
CC1=C(F)N=CN=C1F	Cc1c(F)ncnc1F	
InChI=1S/C5H4F2N2/c1-3-4(6)8-2-9-5(3)7/h2H,1H3	InChI=1S/C5H4F2N2/c1-3-4(6)8-2-9-5(3)7/h2H,1H3
