14
gdb 61153	2.75704	1.04377	0.79187	5.2405	70.26	-0.2941	-0.0943	0.1998	1341.3058	0.097741	-436.670932	-436.661637	-436.660693	-436.705959	32.361	
O	 0.1458855223	 1.5258118694	-0.0849747654	-0.421289
C	 0.0422520145	 0.140430297	-0.0100928187	 0.0286
C	 0.6841837642	-0.5302847103	-1.2529791368	-0.362362
C	-0.0065434036	-0.161208537	-2.4843884277	 0.277348
N	-0.5617745843	 0.1118204889	-3.459713717	-0.297702
C	 0.7147131017	-0.3631492725	 1.2739705458	 0.207194
O	 1.2613806044	 0.4292328148	 2.0138587227	-0.302109
C	 0.6461832403	-1.7766983566	 1.5498763414	 0.280219
C	 0.5671666662	-2.9601183315	 1.7557169488	-0.393758
H	 0.6530422968	 1.7998132745	 0.6971335875	 0.302754
H	-1.0142907136	-0.1695571243	 0.0352254474	 0.123986
H	 1.7315823812	-0.2176919071	-1.3218504602	 0.163949
H	 0.6616414184	-1.6199960628	-1.1476113734	 0.160887
H	 0.5058039615	-4.0036513225	 1.9539199355	 0.232283
54.7797	68.5106	120.4859	148.2631	213.1003	285.3619	340.4363	373.3533	393.347	438.496	489.6743	532.0992	625.2781	665.9346	694.6017	726.7283	859.7352	890.5895	970.8813	1031.1148	1102.9961	1167.2156	1242.8589	1254.9688	1319.9454	1364.9792	1431.6111	1454.7356	1757.0612	2215.1561	2368.5911	2983.8763	3052.5238	3100.834	3487.8379	3675.3379
OC(CC#N)C(=O)C#C	O[C@@H](CC#N)C(=O)C#C	
InChI=1S/C6H5NO2/c1-2-5(8)6(9)3-4-7/h1,6,9H,3H2	InChI=1S/C6H5NO2/c1-2-5(8)6(9)3-4-7/h1,6,9H,3H2/t6-/m0/s1
