19
gdb 111117	3.46079	1.2715	1.16999	0.2764	73.33	-0.2399	0.0711	0.311	1131.6954	0.159697	-422.961535	-422.953993	-422.953049	-422.993617	30.048	
C	 0.0262846946	 1.5516672752	-0.1005825471	-0.383924
C	-0.0202490201	 0.0402447723	 0.1497573592	-0.217621
C	-1.4387340484	-0.5170008079	 0.1183005881	 0.038415
C	-2.0394448626	-0.7495379542	-1.2959772874	 0.012364
O	-1.2394156089	-1.9832423878	-1.3871705592	-0.305313
C	-1.5417131946	-2.0636330894	 0.0531478432	-0.00136
C	-3.0679237963	-2.3396783699	-0.0032696724	 0.032042
O	-3.9031281273	-1.2219219591	 0.3396110744	-0.242403
C	-3.4414488203	-1.3528315957	-1.0149040279	 0.03195
H	 1.0527974125	 1.9270351073	-0.0501841447	 0.115267
H	-0.3696771968	 1.80630379	-1.0897589885	 0.115101
H	-0.5658274634	 2.0970380604	 0.6425452807	 0.116718
H	 0.5934457284	-0.4851818905	-0.588299273	 0.114388
H	 0.4143892232	-0.176842043	 1.1343346605	 0.09409
H	-2.0847898116	-0.0181741648	 0.841097032	 0.097256
H	-1.9114720507	-0.0761624076	-2.142764943	 0.080228
H	-0.8952540722	-2.7464551604	 0.6040504409	 0.078495
H	-3.4984194102	-3.3275649128	 0.1130602477	 0.112384
H	-4.1981830854	-1.480053702	-1.7803929035	 0.111923
94.9391	154.1047	195.1316	285.7075	354.671	393.032	434.8274	589.494	607.0139	703.6546	753.2285	795.5497	852.165	856.0112	863.2747	887.3506	892.756	924.0258	945.5968	965.7609	987.8693	1053.6448	1074.9484	1078.1455	1097.5668	1136.0254	1173.6124	1212.5576	1226.7342	1248.0265	1256.6132	1282.2682	1295.1253	1298.8562	1346.5494	1384.0931	1410.9952	1413.5495	1490.2752	1500.1794	1506.2302	3023.304	3031.3571	3076.1299	3098.4527	3105.0587	3113.8787	3126.1055	3129.6945	3180.312	3192.5977
CCC1C2OC1C1OC21	CC[C@H]1[C@H]2O[C@@H]1[C@H]1O[C@@H]21	
InChI=1S/C7H10O2/c1-2-3-4-6-7(9-6)5(3)8-4/h3-7H,2H2,1H3	InChI=1S/C7H10O2/c1-2-3-4-6-7(9-6)5(3)8-4/h3-7H,2H2,1H3/t3-,4+,5-,6-,7+
