15
gdb 5512	3.40703	1.93873	1.24532	4.6893	73.21	-0.2248	-0.042	0.1828	925.4437	0.119932	-362.712795	-362.705464	-362.70452	-362.744516	26.521	
C	-0.0279474307	 1.4390481784	 0.0338430709	-0.345905
N	-0.0084128541	-0.013200573	 0.0153707182	-0.046896
C	-0.0265900658	-0.7721088847	-1.1131354427	-0.086686
C	 0.0001029941	-2.1123843264	-0.7595802115	-0.163127
C	 0.0361445054	-2.164437924	 0.6429965386	-0.193773
C	 0.0308191881	-0.8562036257	 1.118263504	 0.193879
C	 0.0589906629	-0.3893831253	 2.489105396	 0.066943
O	 0.0932876217	-1.1173817179	 3.4616099447	-0.288712
H	 0.8669659311	 1.8407782572	 0.517756857	 0.151668
H	-0.0560493325	 1.799109202	-0.9957126287	 0.144798
H	-0.9107380814	 1.8165848241	 0.557920908	 0.151615
H	-0.0572765912	-0.3035222673	-2.085110065	 0.128422
H	-0.0060906536	-2.9440841513	-1.4466689745	 0.108162
H	 0.0637581244	-3.0375407527	 1.2758947177	 0.128536
H	 0.0472370115	 0.7172024166	 2.6141567573	 0.051074
116.7889	154.9864	188.3377	200.6172	270.7909	342.5657	539.9142	617.5803	643.5306	643.9967	755.0785	813.2322	818.2258	887.6792	906.3825	1022.8874	1035.5196	1073.9782	1112.117	1149.1194	1192.2395	1267.2395	1347.2325	1386.7119	1429.5897	1454.9414	1474.0419	1484.5766	1510.6095	1527.3799	1570.7288	1769.7849	2865.6371	3045.2943	3107.4839	3141.5373	3244.653	3259.6254	3271.2709
CN1C=CC=C1C=O	Cn1cccc1C=O	
InChI=1S/C6H7NO/c1-7-4-2-3-6(7)5-8/h2-5H,1H3	InChI=1S/C6H7NO/c1-7-4-2-3-6(7)5-8/h2-5H,1H3
