17
gdb 86684	2.64415	1.27101	0.98489	3.8002	70.31	-0.2517	-0.0297	0.2219	1191.9559	0.13342	-458.929193	-458.920339	-458.919394	-458.963385	32.01	
O	 0.53233257	 0.7847333693	-0.9160972802	-0.426393
C	 0.1223389232	-0.2319382259	-0.0404092036	 0.041872
C	 0.0782551834	 0.0536936651	 1.4930249073	-0.297998
C	-1.3301364563	-0.6237757459	 1.564853575	-0.171123
C	-2.3759062912	 0.0887287587	 2.3767331278	 0.156193
O	-3.1162647381	-0.4343967272	 3.1687118952	-0.247867
C	-1.3831298726	-0.4515489756	 0.0296835341	 0.411331
C	-2.4080601323	 0.1948108141	-0.7927844632	-0.258325
O	-2.142933008	-1.2165651331	-0.8692183515	-0.266828
H	 1.4659597985	 0.670227422	-1.1153964459	 0.292963
H	 0.6319694948	-1.1823527894	-0.2495985683	 0.089488
H	 0.8617396468	-0.37279964	 2.1202298825	 0.115524
H	 0.0095056239	 1.1313194747	 1.6691319683	 0.120256
H	-1.2919935894	-1.6764313793	 1.8538287458	 0.105554
H	-2.4187752151	 1.1877018832	 2.1862203705	 0.071625
H	-3.3697504218	 0.4613888785	-0.3573334093	 0.125752
H	-2.0979367156	 0.7736228709	-1.6593830443	 0.137978
63.0151	71.0335	189.2638	197.318	222.822	252.6542	310.9639	412.4967	428.7161	462.2223	541.1258	587.3826	729.2701	851.1023	859.8872	884.8495	918.8244	969.6932	1030.1559	1066.9912	1077.4786	1114.0123	1139.1065	1148.0477	1157.8579	1171.8816	1200.9305	1242.2567	1253.6901	1287.7846	1307.9639	1409.454	1427.8614	1451.9923	1484.1311	1531.0103	1827.9873	2848.3453	3015.3114	3065.4753	3094.4189	3096.4504	3136.1002	3190.9461	3834.4276
OC1CC(C=O)C11CO1	O[C@H]1C[C@@H](C=O)[C@]21CO2	
InChI=1S/C6H8O3/c7-2-4-1-5(8)6(4)3-9-6/h2,4-5,8H,1,3H2	InChI=1S/C6H8O3/c7-2-4-1-5(8)6(4)3-9-6/h2,4-5,8H,1,3H2/t4-,5-,6-/m0/s1
