15
gdb 67759	2.70665	1.99745	1.54453	2.874	68.64	-0.2271	-0.0159	0.2112	871.8986	0.112995	-420.612157	-420.605403	-420.604459	-420.642924	27.669	
O	 0.1561111429	 1.4246219809	-0.1064839383	-0.495955
C	 0.0492753217	 0.0490894425	-0.1652787023	 0.284709
C	 0.7786077591	-0.6611801542	-1.2808739052	-0.142397
C	 0.2573332943	-1.8760063903	-1.4516871131	-0.096546
C	-0.9121307112	-2.0500121087	-0.5275134515	-0.093532
C	-0.7184265044	-1.720727967	 0.9667193333	-0.198996
C	-1.3384632082	-0.7057941492	-0.0501057516	-0.138153
C	 0.3108012389	-0.6807174325	 1.1841196709	 0.354595
O	 0.8464252685	-0.2295280606	 2.166415959	-0.356784
H	 0.432456545	 1.6409919023	 0.7965354888	 0.297056
H	 1.6645880353	-0.2425184418	-1.7386997475	 0.119481
H	 0.6180275134	-2.6586990786	-2.1049624115	 0.114052
H	-1.6539930159	-2.8213295203	-0.7029934592	 0.106305
H	-1.2069087919	-2.2939435743	 1.7433365751	 0.120972
H	-2.3256161974	-0.2661348681	-0.009213477	 0.125193
144.9945	235.2688	330.8865	374.169	412.514	419.6027	538.4208	620.0067	669.5523	690.6196	723.346	740.028	792.3106	832.9746	844.4931	867.3604	898.2078	944.3974	947.58	966.8282	1040.033	1069.1827	1090.0015	1120.8151	1125.7984	1203.6027	1271.4248	1292.3981	1343.5598	1364.1338	1406.8603	1654.4744	1834.2541	3175.3349	3209.8606	3218.7475	3219.7342	3242.6822	3722.4466
OC12C=CC3C(C13)C2=O	O[C@]12C=C[C@H]3[C@H]([C@@H]13)C2=O	
InChI=1S/C7H6O2/c8-6-4-3-1-2-7(6,9)5(3)4/h1-5,9H	InChI=1S/C7H6O2/c8-6-4-3-1-2-7(6,9)5(3)4/h1-5,9H/t3-,4+,5-,7+/m0/s1
