20
gdb 107891	2.37395	1.75174	1.19997	1.7316	79.65	-0.2421	0.0786	0.3207	1100.5849	0.170163	-403.045275	-403.036789	-403.035845	-403.078323	32.397	
C	-0.0610143312	 1.4477332817	 0.0505355696	-0.266373
O	-0.068931171	 0.0306631118	 0.1007896692	-0.287334
C	 0.6173971484	-0.4941466131	 1.1758098222	 0.386374
C	 0.4003468549	-0.305569402	 2.6767108494	-0.24775
N	 1.5274931465	-1.3312993098	 2.6515961342	-0.160143
C	 0.9088478593	-2.0009531283	 1.3951179955	-0.076545
C	 2.2701137684	-1.98351185	 0.6787016589	 0.007225
C	 2.3372416254	-2.0149147371	-0.8395344965	-0.435249
C	 2.1678176779	-0.6417090046	 1.4242579574	-0.091086
H	 0.9600900024	 1.8434782722	-0.0415527007	 0.113625
H	-0.6369587857	 1.739611176	-0.8297344781	 0.132508
H	-0.5276073188	 1.8857072799	 0.9434792458	 0.117144
H	 0.6910704907	 0.642859689	 3.1392867474	 0.099936
H	-0.5264820486	-0.687707189	 3.1166893885	 0.103433
H	 0.1775583	-2.8037429574	 1.5083590205	 0.080475
H	 2.9948668691	-2.6651628982	 1.1380625852	 0.080596
H	 1.6009857966	-1.3417607428	-1.2854471088	 0.13553
H	 3.3321781357	-1.7192985214	-1.1904169364	 0.114188
H	 2.1453734883	-3.0259940021	-1.2149282906	 0.116959
H	 2.9119134518	 0.1443458952	 1.5681267572	 0.076489
77.8949	158.5412	175.7456	214.4935	221.4582	258.2058	374.809	415.9325	465.5224	534.9924	637.2272	743.4144	749.5188	847.5929	864.7542	868.5378	906.4256	933.4669	1017.4338	1019.0122	1039.9696	1078.3126	1094.6246	1102.2097	1119.2899	1125.0153	1151.6217	1179.4852	1182.4831	1198.6918	1222.891	1243.2069	1249.8891	1267.9013	1338.4218	1392.1657	1413.7952	1483.0471	1489.1477	1499.5147	1503.88	1506.4953	1518.2175	2995.4038	3033.4687	3039.0862	3048.7642	3050.5	3091.5665	3093.4245	3100.5838	3101.2648	3126.2253	3127.2899
COC12CN3C1C(C)C23	CO[C@@]12CN3[C@@H]1[C@@H](C)[C@@H]23	
InChI=1S/C7H11NO/c1-4-5-7(9-2)3-8(5)6(4)7/h4-6H,3H2,1-2H3	InChI=1S/C7H11NO/c1-4-5-7(9-2)3-8(5)6(4)7/h4-6H,3H2,1-2H3/t4-,5-,6+,7+
