14
gdb 132068	2.42048	1.86649	1.05489	3.1379	71.9	-0.1902	-0.0237	0.1665	1028.5394	0.103129	-474.196654	-474.189275	-474.188331	-474.228262	28.887	
N	 0.0265288527	 1.4002062361	 0.1514414681	-0.59539
C	-0.0001102125	 0.027070725	 0.0562599994	 0.148347
C	-1.1301672245	-0.7349799339	 0.0259493985	 0.243599
F	-2.3161251605	-0.1139882503	 0.0261135656	-0.082587
N	-1.1877104861	-2.0859602156	-0.004992024	-0.312145
C	-0.0529090579	-2.7015714944	-0.0157407994	 0.074368
N	 1.1497103239	-2.0523044132	-0.0058080129	-0.366932
C	 1.2835551062	-0.6587221688	 0.0152563606	 0.341434
N	 2.3820612129	 0.0086085027	-0.005305315	-0.574235
H	 0.9186415752	 1.7925828675	-0.118890743	 0.271107
H	-0.7883200179	 1.8827577939	-0.1930747204	 0.256065
H	-0.0108421163	-3.7854521011	-0.0335599876	 0.136657
H	 1.9982737232	-2.5989756436	-0.0289088208	 0.25873
H	 3.2068353916	-0.5881139942	-0.0460566092	 0.200983
136.9613	201.7988	282.7683	300.1509	356.8051	406.5066	510.6129	528.5254	535.1013	560.6627	591.9966	598.3707	668.4024	722.2074	758.039	764.2667	879.3581	892.1146	983.3798	1081.072	1163.918	1246.1556	1297.3388	1313.7125	1419.0579	1440.7471	1471.0262	1600.5404	1633.5541	1678.2887	1714.1524	3190.7567	3489.2523	3554.9752	3612.7776	3683.2577
NC1=C(F)N=CNC1=N	NC1=C(NC=N[C@H]1F)[NH]	
InChI=1S/C4H5FN4/c5-3-2(6)4(7)9-1-8-3/h1H,6H2,(H2,7,8,9)	InChI=1S/C4H6FN4/c5-3-2(6)4(7)9-1-8-3/h1,3,7H,6H2,(H,8,9)/t3-/m1/s1
