19
gdb 86748	4.43053	0.97749	0.85658	1.418	78.28	-0.2374	0.01	0.2473	1370.8996	0.158441	-423.007168	-422.998591	-422.997647	-423.041117	31.802	
C	 0.2253860361	 1.66823213	 0.0080843734	-0.388307
C	-0.1028468097	 0.1953774649	 0.2551466984	 0.089803
O	 0.0667991126	-0.5576467537	-0.9559978272	-0.290141
C	 0.99737344	-1.6241706011	-0.767778586	 0.045306
C	 1.4352803708	-1.5015574011	 0.6682569508	-0.103559
C	 0.8015107501	-0.4890486968	 1.2462188243	-0.100773
C	 0.3234699691	-2.9483997955	-1.0788248685	 0.078224
C	 0.4404017293	-3.5775131978	-2.3972334768	-0.176135
O	 1.2060048509	-4.0525758986	-1.2857122885	-0.238705
H	 1.2740589431	 1.7844886682	-0.2807207675	 0.121149
H	-0.4040103483	 2.063702078	-0.7940197645	 0.12664
H	 0.0429929557	 2.2599356277	 0.9115404508	 0.111666
H	-1.1578459194	 0.1187509821	 0.5659765899	 0.083871
H	 1.8449782261	-1.5094339044	-1.4626629084	 0.085993
H	 2.1545888096	-2.1746276088	 1.1160549391	 0.119904
H	 0.9003260066	-0.1598374773	 2.2731360829	 0.10749
H	-0.5526892001	-3.1680046884	-0.4671427272	 0.093941
H	-0.3415824401	-4.2495316538	-2.7465184289	 0.116819
H	 1.0120725075	-3.0788723239	-3.1789600661	 0.116813
59.287	72.882	151.3108	227.4542	233.1771	302.5919	323.6216	439.6109	452.9965	554.6206	730.6875	760.6129	804.431	848.4651	858.2246	875.4892	896.9126	933.5742	964.1952	1013.1907	1022.4973	1083.2961	1093.5055	1110.6392	1119.2002	1135.1395	1146.1698	1158.2565	1176.3361	1278.2497	1283.4049	1304.7417	1340.827	1359.852	1376.8661	1399.7319	1444.8018	1485.48	1494.6054	1527.9633	1690.4518	2963.1246	2972.4176	3037.0656	3085.2961	3106.0058	3110.4877	3121.7747	3173.9129	3207.6411	3234.5163
CC1OC(C=C1)C1CO1	C[C@H]1O[C@@H](C=C1)[C@H]1CO1	
InChI=1S/C7H10O2/c1-5-2-3-6(9-5)7-4-8-7/h2-3,5-7H,4H2,1H3	InChI=1S/C7H10O2/c1-5-2-3-6(9-5)7-4-8-7/h2-3,5-7H,4H2,1H3/t5-,6+,7-/m1/s1
