21
gdb 91491	2.44375	1.85327	1.45478	1.7704	82.13	-0.2357	0.0592	0.2949	1008.8702	0.184434	-386.983237	-386.975814	-386.97487	-387.014518	31.257	
C	 0.0176069199	 1.5379911448	 0.1239699676	-0.428451
C	 0.124056791	 0.0257751724	-0.0650934659	 0.018857
C	 1.101356439	-0.4762494683	-1.169719449	-0.226171
C	 1.9803272165	-1.3912755567	-0.3090961416	-0.085548
C	 2.274112613	-0.4491343779	 0.9691188274	-0.331004
C	 0.7409689576	-0.7315289418	 1.1481585741	 0.421033
O	-0.2771709751	-1.1616971652	 2.107345141	-0.36689
C	-0.445448283	-2.3649096487	 1.2531013448	-0.184707
C	 1.0042318226	-2.1267836134	 0.7026584453	-0.040895
H	 0.991674012	 2.0051348882	 0.3012528018	 0.113946
H	-0.4166223358	 2.0114798013	-0.7630496221	 0.112008
H	-0.6276369745	 1.7725854465	 0.9772764862	 0.126989
H	-0.8825345512	-0.3547528922	-0.2556054511	 0.07018
H	 0.5920140646	-1.0148184652	-1.973831695	 0.098461
H	 1.6830017507	 0.333036864	-1.6237137545	 0.096448
H	 2.7988724767	-1.925874128	-0.792369618	 0.073399
H	 2.9025438558	-0.9396818417	 1.7117469117	 0.114439
H	 2.6299831602	 0.5647000585	 0.7664473925	 0.097308
H	-0.5733378569	-3.2628427397	 1.8618056002	 0.114941
H	-1.2897292469	-2.2471303414	 0.5692195248	 0.114797
H	 1.6487352739	-2.6154455153	 1.4378634196	 0.090859
162.8667	217.5099	251.4725	297.0039	355.4052	420.4427	444.7275	537.4873	560.1055	614.1173	652.644	754.2588	779.7087	822.0476	856.5128	881.9248	917.9558	941.4186	946.3305	989.5686	1004.4474	1042.7059	1043.8581	1065.569	1098.6272	1118.9721	1123.623	1137.3016	1150.9558	1186.6781	1203.0691	1213.9864	1239.8301	1269.1267	1287.4273	1310.3264	1324.0938	1386.3837	1408.9606	1429.4095	1490.0785	1498.8595	1501.0335	1510.3351	1513.9203	3031.445	3044.3021	3054.2296	3057.5037	3064.6729	3068.9082	3090.3087	3097.0999	3105.8256	3109.4396	3121.9028	3148.5061
CC1CC2CC11OCC21	C[C@H]1C[C@H]2C[C@]31OC[C@@H]23	
InChI=1S/C8H12O/c1-5-2-6-3-8(5)7(6)4-9-8/h5-7H,2-4H2,1H3	InChI=1S/C8H12O/c1-5-2-6-3-8(5)7(6)4-9-8/h5-7H,2-4H2,1H3/t5-,6-,7-,8+/m0/s1
