17
gdb 105563	1.98229	1.51227	1.33784	4.383	73.76	-0.2494	-0.0461	0.2033	1089.3952	0.134806	-418.01173	-418.002519	-418.001575	-418.045943	32.933	
C	-0.0875272986	 1.5178217069	-0.0554565934	-0.345962
N	 0.0303629509	 0.056331221	-0.0552057022	-0.32501
C	 0.7795697182	-0.5007192154	-1.1737913721	 0.045051
C	 0.650665877	-2.0601406536	-1.2109519621	-0.277641
C	-0.5113988539	-1.9666952202	-2.2429340379	-0.335143
C	-0.1722040096	-0.486923919	-2.4286284757	 0.408169
O	-0.4601268699	 0.3591178259	-3.2157493523	-0.276511
C	 2.128964638	 0.0474506009	-1.3514886232	 0.240291
N	 3.18948529	 0.4930901551	-1.4743685621	-0.340717
H	 0.8803264007	 2.0391114216	-0.0155130946	 0.130786
H	-0.608825514	 1.8385721893	-0.9607214403	 0.15588
H	-0.6857856249	 1.817312942	 0.8085613015	 0.128257
H	 0.4506921917	-0.261054107	 0.8132733542	 0.233927
H	 1.5436614883	-2.5363996565	-1.6170225173	 0.137133
H	 0.4048976119	-2.5022281762	-0.2454938771	 0.123309
H	-0.4341384645	-2.5732610732	-3.1477839975	 0.14415
H	-1.5042855412	-2.1061659315	-1.8079248577	 0.154033
75.7948	116.4266	120.6352	164.1391	174.5656	254.3413	270.601	380.929	406.6831	481.2653	540.1863	598.8918	639.5576	715.3911	742.3344	764.6966	904.0153	937.0397	971.5792	1039.6983	1061.702	1078.4877	1143.8974	1156.062	1181.9071	1203.7211	1232.6942	1254.6852	1276.0515	1435.1928	1458.1216	1466.5733	1482.2377	1495.0985	1521.0195	1904.7952	2336.103	2999.5157	3076.4286	3092.2597	3093.0816	3129.0542	3131.9581	3155.1281	3508.2315
CNC1(CCC1=O)C#N	CN[C@]1(CCC1=O)C#N	
InChI=1S/C6H8N2O/c1-8-6(4-7)3-2-5(6)9/h8H,2-3H2,1H3	InChI=1S/C6H8N2O/c1-8-6(4-7)3-2-5(6)9/h8H,2-3H2,1H3/t6-/m1/s1
