19
gdb 117458	6.50072	0.56455	0.54265	4.6013	76.59	-0.2447	-0.0251	0.2196	2023.5696	0.156874	-456.391828	-456.381026	-456.380082	-456.430407	36.369	
C	-0.000315933	 1.346142201	 0.2595489304	-0.375244
C	-0.4376346903	 0.059805129	-0.4391365442	-0.133178
N	 0.5725175537	-0.4287537951	-1.366550287	-0.373939
C	 0.9223618689	-1.7555802265	-1.4157561224	 0.516938
O	 0.5186535704	-2.5928557729	-0.6263212493	-0.402708
N	 1.7877751421	-2.0713436616	-2.4568475558	-0.386954
C	 2.3921333682	-3.3841203583	-2.5189956867	-0.23964
C	 2.1384004725	-4.0630932243	-3.8539908536	 0.156743
O	 2.9162653337	-4.800144814	-4.3996944215	-0.237079
H	 0.9183807454	 1.1857188238	 0.8309864651	 0.128469
H	 0.1846157237	 2.1512192883	-0.4608737298	 0.109553
H	-0.7804946279	 1.6900707013	 0.9455517404	 0.122288
H	-0.5969104152	-0.7444885121	 0.281182286	 0.154446
H	-1.3916402369	 0.2205373698	-0.9610906373	 0.103573
H	 0.7806531604	 0.1484926303	-2.1660239257	 0.233752
H	 2.288733227	-1.3161862966	-2.8975167086	 0.240162
H	 3.4697331082	-3.3751913312	-2.3185828061	 0.124885
H	 1.9055287829	-3.9803788241	-1.7358832498	 0.178201
H	 1.1433942562	-3.8196141668	-4.2930252141	 0.079731
16.3932	41.1195	67.1228	98.6275	110.6653	186.5696	255.9538	308.8996	326.7775	338.1163	373.6024	429.8766	481.5118	578.3185	702.8773	761.6679	780.3315	811.3357	914.7485	970.5974	1058.3908	1069.7467	1110.6672	1115.6561	1167.292	1192.1984	1230.3034	1260.5873	1306.7526	1333.9159	1391.8183	1409.5598	1413.3842	1449.9556	1490.0828	1494.9396	1505.6385	1511.555	1555.8616	1782.645	1839.692	2874.1129	3004.6007	3029.5668	3033.4834	3080.9264	3095.2846	3118.5912	3130.1112	3620.0153	3627.2752
CCNC(=O)NCC=O	CCNC(=O)NCC=O	
InChI=1S/C5H10N2O2/c1-2-6-5(9)7-3-4-8/h4H,2-3H2,1H3,(H2,6,7,9)	InChI=1S/C5H10N2O2/c1-2-6-5(9)7-3-4-8/h4H,2-3H2,1H3,(H2,6,7,9)
