13
gdb 130191	3.51296	1.66754	1.13246	2.6715	66.55	-0.2138	-0.0303	0.1836	971.2575	0.092379	-448.89842	-448.891427	-448.890483	-448.92977	26.331	
N	-0.013918134	 1.3852181001	 0.1570325712	-0.595306
C	 0.0421540644	 0.0018044309	 0.043085179	 0.229332
N	-1.0561380946	-0.7518219305	 0.0153753925	-0.281517
N	-0.6501558508	-2.0591846058	-0.0115103668	-0.379793
C	 0.7033260333	-2.1414485655	-0.0151217839	 0.269325
C	 1.1742960717	-0.8489834292	 0.0219292741	 0.30475
O	 2.5228298409	-0.8293041088	 0.0180879606	-0.24862
N	 2.950348333	-2.1657495361	-0.0220646333	-0.127842
C	 1.8808233971	-2.9327035307	-0.0394224101	-0.102694
H	 0.6890442795	 1.8650942848	-0.3886953442	 0.257335
H	-0.9386840816	 1.7413336047	-0.0475261668	 0.257437
H	-1.3470854445	-2.7803078516	-0.0137122019	 0.277234
H	 2.0161060457	-4.0036848324	-0.0699570103	 0.140359
149.4693	187.1413	243.8693	268.9653	293.2821	448.8906	541.0398	613.8817	642.8438	650.8058	675.4214	719.6264	764.3515	856.5715	876.1573	887.4829	964.9418	1060.6693	1151.2372	1180.7073	1225.5784	1293.2581	1369.3343	1437.7127	1458.6113	1549.8985	1606.5637	1623.3102	1653.5634	3252.4209	3546.3577	3644.5776	3711.0855
NC1=NNC2=C1ON=C2	Nc1n[nH]c2c1onc2	
InChI=1S/C4H4N4O/c5-4-3-2(7-8-4)1-6-9-3/h1H,(H3,5,7,8)	InChI=1S/C4H4N4O/c5-4-3-2(7-8-4)1-6-9-3/h1H,(H3,5,7,8)
