14
gdb 22024	2.55273	1.59714	0.98336	3.2102	74.54	-0.1978	-0.0462	0.1516	1101.6889	0.10124	-469.930835	-469.922984	-469.92204	-469.962997	30.002	
N	 0.083554231	 1.3892808943	 0.0061494169	-0.590359
C	 0.0325606899	 0.0073939945	 0.0237601115	 0.177783
C	-1.0973355881	-0.727340071	 0.1165415326	 0.005149
O	-1.1326469351	-2.0889756713	 0.2020070825	-0.240028
N	 0.0323251035	-2.8174464959	 0.1908626258	-0.073777
C	 1.1403225417	-2.1637246756	 0.0893609087	-0.034413
C	 1.2848710391	-0.7233122618	-0.0110013606	 0.308688
N	 2.3880899945	-0.0583671026	-0.1338977123	-0.270919
O	 3.5020391913	-0.9099591799	-0.1769809432	-0.394804
H	 0.947943637	 1.7443179619	-0.3790100783	 0.26639
H	-0.7388032965	 1.8634104119	-0.3349087111	 0.250374
H	-2.0998039454	-0.3198185735	 0.1439026533	 0.129119
H	 2.0256102617	-2.7872951382	 0.0812668223	 0.15693
H	 4.2337867654	-0.2881091627	-0.2405940381	 0.309868
114.5288	216.3526	218.6756	275.3427	325.2357	353.6475	366.3693	462.832	497.3018	546.7781	558.7917	602.425	624.7611	737.9633	801.0182	820.8248	881.4482	906.7965	943.3611	1015.7598	1082.0301	1191.0756	1255.0609	1306.381	1354.9081	1370.9703	1502.339	1612.6559	1629.8483	1663.8742	1698.4844	3217.9466	3223.0434	3559.1975	3671.008	3830.3081
NC1=CON=CC1=NO	Nc1concc1=NO	
InChI=1S/C4H5N3O2/c5-3-2-9-6-1-4(3)7-8/h1-2,8H,5H2	InChI=1S/C4H5N3O2/c5-3-2-9-6-1-4(3)7-8/h1-2,8H,5H2
