19
gdb 101537	3.24498	0.84502	0.75207	3.6489	79.34	-0.2599	-0.0589	0.2009	1560.3628	0.15532	-423.006163	-422.995565	-422.994621	-423.042767	37.419	
C	-0.1537429449	 1.4546426401	-0.6820179714	-0.383024
C	-0.1116228795	 0.1045444139	 0.0376018364	-0.191762
C	-1.4734331992	-0.5985439125	 0.064302784	 0.147013
O	-1.9911415161	-0.8130659624	-1.2444078556	-0.42939
C	-1.4250253889	-1.9174502582	 0.8651645626	-0.335605
C	-2.7995103176	-2.5686486704	 0.8975273077	 0.272413
O	-3.6572198188	-2.2257575214	 1.6816010558	-0.289259
C	-3.0378353378	-3.6148504561	-0.082725096	 0.284065
C	-3.2139306467	-4.4985854374	-0.8813375056	-0.46436
H	 0.8417108134	 1.9051370677	-0.7337075969	 0.112161
H	-0.5342902364	 1.336908267	-1.6998052848	 0.129841
H	-0.813030701	 2.1569269941	-0.1605772424	 0.119422
H	 0.6152161227	-0.5605400255	-0.4517607421	 0.087045
H	 0.2397588082	 0.2344264295	 1.0686963874	 0.101602
H	-2.2105471103	 0.0567930904	 0.5436685267	 0.111245
H	-1.3939949289	-1.4110500844	-1.708756413	 0.279856
H	-0.6865842303	-2.5948430831	 0.4205164837	 0.102476
H	-1.1318329033	-1.7046571211	 1.8977520379	 0.129823
H	-3.3938338445	-5.2765715802	-1.5830306145	 0.216437
40.1268	56.7423	112.3106	122.7084	174.4566	221.6548	239.1152	269.6087	312.5142	339.9748	437.5713	463.6129	484.5768	619.9113	644.3186	695.5203	710.5948	776.7639	805.4608	875.3837	933.1464	983.2326	1009.0418	1059.3058	1108.4248	1113.1539	1135.4139	1226.2628	1266.9217	1282.0817	1339.4727	1358.996	1382.9555	1409.3133	1425.61	1466.4413	1483.768	1496.4689	1509.1528	1770.0283	2209.2088	3003.0312	3036.5374	3040.5884	3047.7861	3058.4968	3102.0727	3106.1683	3124.6105	3494.6245	3792.1608
CCC(O)CC(=O)C#C	CC[C@@H](O)CC(=O)C#C	
InChI=1S/C7H10O2/c1-3-6(8)5-7(9)4-2/h1,7,9H,4-5H2,2H3	InChI=1S/C7H10O2/c1-3-6(8)5-7(9)4-2/h1,7,9H,4-5H2,2H3/t7-/m1/s1
