19
gdb 126499	3.53512	1.23241	0.97232	3.1358	82.47	-0.2334	0.0322	0.2656	1237.2117	0.161599	-382.062438	-382.054337	-382.053393	-382.095683	30.204	
C	 0.0663213139	 1.5867195598	-0.058200253	-0.381984
C	-0.1614135527	 0.0799142118	 0.0876851328	-0.18429
C	 0.6920254424	-0.5381767608	 1.1928977005	-0.155988
C	 0.7200466797	-2.1252863622	 1.2655482044	-0.201662
N	 2.1566520511	-1.9958464439	 0.9970448664	 0.089148
N	 3.3300728909	-2.6246886007	 0.8668144903	-0.308873
C	 4.1670899603	-1.5832860715	 0.7078004769	 0.013662
C	 3.5259694124	-0.313318782	 0.7521331826	-0.407085
C	 2.1998633806	-0.6574517474	 0.9468902543	 0.394539
H	 1.1104610994	 1.8020189708	-0.3077073533	 0.128872
H	-0.5603702759	 2.0044804224	-0.851424747	 0.118733
H	-0.1723602649	 2.1166311959	 0.8704737084	 0.117117
H	-1.2185932954	-0.1175873851	 0.3065597767	 0.100583
H	 0.0635308695	-0.423096561	-0.8608117213	 0.106554
H	 0.4456318513	-0.0879195811	 2.1605179403	 0.096567
H	 0.4873175459	-2.561756745	 2.2403697666	 0.131543
H	 0.1631730436	-2.6407443264	 0.4779998103	 0.129425
H	 5.2203622658	-1.7768491929	 0.5621496939	 0.109134
H	 3.9839726322	 0.6568498793	 0.6584997402	 0.104004
81.7529	92.6665	131.3713	195.3913	252.4239	358.5572	412.68	505.8018	650.5922	666.4237	715.0711	774.7129	781.6083	816.7819	858.2518	872.8028	937.3141	967.1057	983.4901	1021.9203	1058.1742	1091.7163	1112.8826	1134.8394	1176.7006	1191.6257	1215.3954	1266.9545	1284.1401	1302.1857	1330.329	1356.0112	1385.4873	1410.8163	1416.2988	1482.3862	1486.2499	1499.5921	1507.1905	1520.011	1558.4598	3022.2384	3034.4606	3046.3891	3056.2842	3064.9059	3103.2038	3110.7928	3113.9005	3240.424	3277.2022
CCC1CN2N=CC=C12	CC[C@H]1Cn2nccc12	
InChI=1S/C7H10N2/c1-2-6-5-9-7(6)3-4-8-9/h3-4,6H,2,5H2,1H3	InChI=1S/C7H10N2/c1-2-6-5-9-7(6)3-4-8-9/h3-4,6H,2,5H2,1H3/t6-/m0/s1
