21
gdb 90770	3.14257	1.34607	1.18163	1.8904	77.19	-0.2423	0.0686	0.311	1132.4761	0.183566	-424.227549	-424.219092	-424.218148	-424.260265	33.216	
C	 0.3911634856	 1.6096649572	-0.0543380429	-0.412192
C	 0.1909435279	 0.1096285945	 0.0094549801	 0.160625
O	 1.0738488814	-0.6262709281	-0.8797811471	-0.327276
C	 1.3643657691	-1.5983953617	 0.1470242589	 0.139248
C	 0.6608209363	-0.7322821841	 1.2244000678	-0.088093
C	 1.792114734	-0.1687614334	 2.1043356187	-0.220714
C	 3.083630116	-0.3488503452	 1.2756009883	-0.251078
C	 2.8507879284	-1.6515042981	 0.4900749729	 0.104197
O	 3.010258322	-2.8107075611	 1.3039520804	-0.446763
H	 1.4077496931	 1.904175601	 0.2184916254	 0.121868
H	 0.1980347531	 1.9652884339	-1.0716259331	 0.128108
H	-0.3101619224	 2.1151291403	 0.6185801973	 0.116576
H	-0.8548384922	-0.1228601801	-0.2426816322	 0.070832
H	 0.9549808391	-2.5878042596	-0.0811816034	 0.075864
H	-0.1426329715	-1.1854155103	 1.8054976724	 0.07272
H	 1.6248840864	 0.8683919209	 2.4093948914	 0.096713
H	 1.8565443272	-0.7686865641	 3.0168987296	 0.107815
H	 3.2134922728	 0.4726858232	 0.564541337	 0.113089
H	 3.9875646559	-0.3925313176	 1.8926491658	 0.084112
H	 3.4672793757	-1.7131091939	-0.417724384	 0.070689
H	 3.9081526721	-2.8093213138	 1.649078377	 0.28366
101.9849	152.9661	207.5596	239.441	264.2518	279.178	356.5863	388.8916	447.1061	506.1747	595.9821	707.8505	763.2662	829.8727	848.3253	852.7297	897.1055	907.1258	942.2752	991.7155	995.8641	1018.6765	1050.7087	1083.5655	1101.649	1115.6854	1143.5695	1176.6295	1188.2001	1193.5956	1253.4116	1270.5847	1290.1798	1307.306	1330.4171	1341.9247	1351.6497	1372.0648	1398.9862	1410.2247	1423.4571	1472.536	1485.0042	1488.5815	1499.251	2980.5706	3007.4028	3038.0377	3046.9249	3056.1765	3059.041	3085.544	3099.6573	3104.4264	3107.647	3122.1001	3824.5763
CC1OC2C1CCC2O	C[C@H]1O[C@@H]2[C@H]1CC[C@H]2O	
InChI=1S/C7H12O2/c1-4-5-2-3-6(8)7(5)9-4/h4-8H,2-3H2,1H3	InChI=1S/C7H12O2/c1-4-5-2-3-6(8)7(5)9-4/h4-8H,2-3H2,1H3/t4-,5+,6-,7-/m1/s1
