16
gdb 131375	3.24483	1.54704	1.06764	2.5833	71.43	-0.1816	0.0318	0.2134	1069.7663	0.128216	-434.071405	-434.063978	-434.063034	-434.103094	28.716	
O	 0.1018377144	 1.3429259348	 0.040990726	-0.43654
C	 0.0970413164	-0.0094671374	 0.0750833534	 0.283027
N	 0.2677750538	-0.7402186624	-1.0252463953	-0.335263
N	 0.188928037	-2.0359052675	-0.6049915371	-0.349591
C	 0.0293790265	-2.1076446404	 0.7373805618	 0.34421
C	-0.0553335896	-0.8261524831	 1.2119266406	 0.168997
N	-0.3852363732	-0.7783649558	 2.5876610378	-0.421335
C	-0.0933789845	-2.162496978	 3.0671016806	-0.160119
C	-0.2437457214	-3.1015345284	 1.8235598353	-0.345698
H	 0.2373690727	 1.5974690536	-0.8802996585	 0.300169
H	 0.3475043902	-2.7684440658	-1.2725301083	 0.268023
H	 0.1348342369	-0.0838358905	 3.1110520021	 0.233358
H	 0.9379917049	-2.238335043	 3.440157931	 0.102379
H	-0.7708843996	-2.4373102881	 3.8794527394	 0.111151
H	-1.2613940149	-3.5082830589	 1.7518613706	 0.122898
H	 0.4459315304	-3.9493325692	 1.8746391006	 0.114335
149.4936	174.6769	244.0664	274.3049	299.1984	370.2174	433.6838	512.6335	588.9217	628.4491	649.0962	700.9276	717.1081	804.4426	846.3356	877.0796	944.8273	1019.2997	1075.146	1088.4369	1115.6278	1182.06	1198.1722	1231.5713	1282.7735	1299.1284	1335.9407	1349.5807	1422.3238	1452.9452	1489.4998	1513.0687	1547.9653	1603.5953	1649.589	2996.9274	3014.1899	3074.1793	3091.3048	3538.1968	3697.4576	3795.9679
OC1=NNC2=C1NCC2	Oc1n[nH]c2c1NCC2	
InChI=1S/C5H7N3O/c9-5-4-3(7-8-5)1-2-6-4/h6H,1-2H2,(H2,7,8,9)	InChI=1S/C5H7N3O/c9-5-4-3(7-8-5)1-2-6-4/h6H,1-2H2,(H2,7,8,9)
