20
gdb 126524	5.28943	0.74288	0.69308	2.26	83.37	-0.1957	0.0362	0.2319	1682.8805	0.172513	-399.362288	-399.352734	-399.35179	-399.397576	35.017	
C	-0.0128700711	 1.5868322503	 0.1569013828	-0.380738
C	 0.0022349168	 0.0588422107	 0.0779676716	-0.152972
C	-1.4098900893	-0.5436456165	-0.0694483311	-0.312167
C	-1.4178525814	-2.0372608769	-0.1613605354	 0.405074
C	-1.4580571499	-2.8900187383	-1.2486325516	-0.382563
C	-1.3974620916	-4.1937480646	-0.6949696242	 0.374417
N	-1.4811832596	-5.408910079	-1.378430736	-0.589713
N	-1.3199766879	-4.1642855276	 0.6317153116	-0.310856
N	-1.3404630448	-2.8373278854	 0.9296526695	-0.262743
H	 0.9997429217	 1.9893162086	 0.256349261	 0.115658
H	-0.458930025	 2.0252986904	-0.7427571657	 0.116779
H	-0.5959495502	 1.9355009051	 1.0167520061	 0.114232
H	 0.614760509	-0.2684090937	-0.7701956337	 0.107495
H	 0.4788442826	-0.3568957784	 0.974194663	 0.097207
H	-2.0304101154	-0.2204052519	 0.7773805256	 0.102794
H	-1.8844663318	-0.1354092848	-0.9683078907	 0.11587
H	-1.5393632779	-2.6118252201	-2.2873061636	 0.0898
H	-0.9476119006	-5.4185789198	-2.2373307048	 0.242053
H	-1.2054182601	-6.1818746262	-0.7857051318	 0.246745
H	-1.3102509635	-2.5582513919	 1.8945414975	 0.263628
33.5602	81.3197	96.4451	236.5683	244.6928	268.2798	283.8421	310.0886	359.2514	431.1216	462.2762	634.3499	679.2833	717.1352	743.5093	759.7398	770.3755	807.9847	869.6793	895.9658	1000.4507	1038.3663	1051.5188	1080.5182	1096.3733	1109.7975	1183.4163	1206.5102	1247.6991	1307.0945	1313.2138	1342.2796	1381.1464	1411.7569	1445.1401	1481.9171	1492.5223	1497.9981	1509.962	1513.2361	1533.8889	1615.1307	1648.5451	3016.844	3028.871	3031.821	3057.5339	3077.2386	3098.4082	3104.4926	3257.3916	3540.1121	3635.2133	3682.4665
CCCC1=CC(N)=NN1	CCCc1cc(N)n[nH]1	
InChI=1S/C6H11N3/c1-2-3-5-4-6(7)9-8-5/h4H,2-3H2,1H3,(H3,7,8,9)	InChI=1S/C6H11N3/c1-2-3-5-4-6(7)9-8-5/h4H,2-3H2,1H3,(H3,7,8,9)
