23
gdb 116201	2.23382	1.48283	1.16879	0.5131	81.41	-0.2546	0.081	0.3356	1209.4342	0.204756	-425.440707	-425.430637	-425.429693	-425.475324	37.369	
C	 0.286399468	 1.3040441015	 0.3635663084	-0.24447
O	 0.1810821722	-0.1004750257	 0.2323326412	-0.257122
C	 0.47530047	-0.5687232837	-1.0600494626	 0.224006
O	 1.8167270787	-0.3260506322	-1.418284589	-0.269341
C	 2.6341984274	-1.4199875288	-0.9693985799	-0.087136
C	 1.6706187543	-2.5162966487	-0.47894397	-0.265337
C	 0.309060876	-2.102317369	-1.0886429758	 0.248785
C	-0.8901003979	-2.6096384565	-0.2846784314	-0.440643
C	 0.2033063893	-2.5615320315	-2.5536755272	-0.433042
H	 1.3008176577	 1.6544303624	 0.1402888506	 0.124651
H	-0.4172335252	 1.8216185145	-0.3067603166	 0.103141
H	 0.0352518284	 1.5499813847	 1.3978002133	 0.122412
H	-0.1430471177	-0.0360135231	-1.7984482735	 0.062299
H	 3.2447991304	-1.7461535381	-1.8188621817	 0.102815
H	 3.3115491072	-1.0768862435	-0.1793254294	 0.102893
H	 1.9823839361	-3.5158338009	-0.7934078067	 0.097238
H	 1.6032818785	-2.5084642161	 0.6118796758	 0.111429
H	-0.8431615207	-2.2716037491	 0.7516631613	 0.131377
H	-1.8319945021	-2.2509675152	-0.7144682305	 0.109061
H	-0.9192155591	-3.7047327124	-0.2949937753	 0.106474
H	 0.2126594535	-3.6548012584	-2.6132060081	 0.111352
H	-0.7308538042	-2.2123120858	-3.0068195314	 0.112905
H	 1.0308376093	-2.1791160544	-3.1577776416	 0.126251
93.3351	111.6458	134.6687	183.8812	199.7207	204.7188	238.7361	298.3192	331.7119	334.6081	385.5564	489.8008	541.7535	603.6178	735.4594	782.0862	885.1861	929.9282	942.2693	947.6671	959.6951	984.5856	998.34	1023.3455	1057.1626	1076.3934	1133.0189	1182.0323	1190.3843	1205.1042	1218.7188	1239.8385	1255.5958	1272.173	1324.7761	1353.641	1389.4037	1396.4616	1401.874	1425.4627	1474.3977	1480.683	1483.5246	1487.6058	1494.3639	1502.6988	1511.8616	1515.3958	1532.4448	2986.1836	2996.5351	3029.4808	3030.5884	3035.2455	3059.1971	3062.0919	3064.4674	3089.6415	3097.7284	3109.7571	3113.6555	3121.481	3135.6122
COC1OCCC1(C)C	CO[C@H]1OCCC1(C)C	
InChI=1S/C7H14O2/c1-7(2)4-5-9-6(7)8-3/h6H,4-5H2,1-3H3	InChI=1S/C7H14O2/c1-7(2)4-5-9-6(7)8-3/h6H,4-5H2,1-3H3/t6-/m0/s1
