17
gdb 50151	4.34164	1.05052	0.95293	3.0992	77.08	-0.2221	-0.034	0.1881	1239.5829	0.134239	-421.819168	-421.811023	-421.810079	-421.852582	30.478	
O	-0.4091215382	 0.2859112584	 0.1943656541	-0.24109
C	 0.0185611496	 1.321112656	-0.2403669765	 0.139414
C	 1.453166632	 1.8099850715	-0.0257408286	-0.028328
O	 1.8091861986	 2.7208268154	-1.0594130288	-0.312461
C	 2.1222819392	 3.9868639842	-0.4973492204	 0.429341
C	 3.2266912186	 4.7849659684	-1.139839156	-0.325706
C	 1.780989936	 5.2122254696	-1.3017406576	-0.324934
C	 1.9258927811	 3.8527423834	 0.9601479856	-0.154874
C	 1.5567571014	 2.6088131587	 1.2533396758	-0.127946
H	-0.6032176117	 2.038778807	-0.8215087774	 0.088816
H	 2.1168939464	 0.9330098565	-0.0334980384	 0.11209
H	 3.8816710442	 5.3733865946	-0.5061964617	 0.117769
H	 3.7081019462	 4.3253825647	-1.9956539046	 0.13161
H	 1.3142450604	 5.0356138953	-2.2643429108	 0.13041
H	 1.4317489134	 6.0960982139	-0.7787219513	 0.118264
H	 2.0890183612	 4.6660526055	 1.6550163366	 0.120429
H	 1.3394803618	 2.1873263271	 2.2248061001	 0.127194
58.0006	74.3037	177.9131	253.1585	299.9971	311.4618	424.9205	440.2959	562.6869	577.243	749.4317	761.5075	795.3305	855.298	887.9362	894.3987	900.6396	926.6578	950.2411	982.6602	1034.4625	1050.5943	1065.6289	1066.8989	1076.906	1127.4312	1191.2968	1231.9388	1272.419	1302.056	1314.1697	1388.1371	1400.6317	1449.5402	1490.0054	1670.207	1836.8359	2887.1904	3001.4655	3132.2839	3134.6735	3218.1421	3218.833	3232.8777	3245.4229
O=CC1OC2(CC2)C=C1	O=C[C@H]1OC2(CC2)C=C1	
InChI=1S/C7H8O2/c8-5-6-1-2-7(9-6)3-4-7/h1-2,5-6H,3-4H2	InChI=1S/C7H8O2/c8-5-6-1-2-7(9-6)3-4-7/h1-2,5-6H,3-4H2/t6-/m0/s1
