19
gdb 90084	3.08897	1.64251	1.47015	2.6448	75.36	-0.235	0.0668	0.3018	962.5167	0.160809	-422.951251	-422.944139	-422.943194	-422.982278	29.792	
O	 0.2431180253	 1.3203912481	-0.3526362155	-0.41092
C	 0.0725888375	-0.043460575	-0.0535410776	 0.033196
C	 0.2605653084	-0.4297312845	 1.4790030292	-0.406323
C	-1.2656367171	-0.2232520546	 1.6349974636	 0.279439
C	-2.6414487586	-0.7457669258	 2.1426872761	-0.340142
C	-3.099869654	 0.4502452855	 1.2154267414	 0.099859
C	-1.8749986348	 1.213628462	 1.7423974292	-0.257853
O	-2.6835874238	 0.1258504136	-0.1441576089	-0.297556
C	-1.4252091547	-0.4792207099	 0.1510293492	 0.157419
H	 1.1794593836	 1.5280562089	-0.270267122	 0.28705
H	 0.6265534239	-0.6724308561	-0.7629224987	 0.070577
H	 0.5891993399	-1.4663866485	 1.5931505505	 0.109174
H	 0.9118002197	 0.2236412863	 2.0649553787	 0.10211
H	-2.9321867081	-1.7612282915	 1.8618637672	 0.09914
H	-2.8774958351	-0.5448174516	 3.1895814211	 0.100792
H	-4.1170016153	 0.8374997911	 1.2026602292	 0.083164
H	-1.9663607434	 1.5339505696	 2.7832485353	 0.090544
H	-1.4765885078	 2.0020010464	 1.1075812492	 0.128904
H	-1.4701990355	-1.547122034	-0.1014916271	 0.071427
191.8374	206.4154	257.5424	303.8137	400.1827	423.6617	486.8401	543.6971	600.1872	678.8252	766.916	771.0061	805.1933	833.2932	868.0961	874.13	897.3924	944.2962	977.7191	1002.8964	1013.6458	1035.2968	1071.5517	1095.8719	1115.2904	1160.5524	1162.3667	1170.9822	1199.5697	1210.8639	1231.7867	1250.0635	1271.3315	1275.7155	1303.8162	1315.8315	1398.2119	1424.174	1468.0566	1477.8442	1514.4042	2998.8776	3015.465	3058.8965	3062.6075	3075.7244	3116.1825	3130.3531	3144.6593	3170.0764	3813.036
OC1CC23CC(C2)OC13	O[C@H]1C[C@@]23C[C@@H](C2)O[C@@H]13	
InChI=1S/C7H10O2/c8-5-3-7-1-4(2-7)9-6(5)7/h4-6,8H,1-3H2	InChI=1S/C7H10O2/c8-5-3-7-1-4(2-7)9-6(5)7/h4-6,8H,1-3H2/t4-,5-,6-,7+/m0/s1
