18
gdb 98995	3.99043	0.82224	0.69004	1.2452	71.73	-0.2507	-0.0107	0.24	1605.5631	0.147576	-472.475584	-472.465105	-472.46416	-472.513526	35.2	
C	 0.8138684722	 1.3250278777	 0.1799541809	-0.332704
N	 0.9072950404	-0.00689497	 0.7416486256	-0.342053
C	-0.1845661503	-0.6703010955	 1.1751942268	 0.491256
O	-1.3337315278	-0.2734533161	 1.1593386922	-0.407239
N	 0.0788762547	-1.9708512401	 1.7003211893	-0.403634
C	 1.2625545779	-2.6499726154	 1.8332759885	 0.411961
O	 2.347672033	-2.2037571866	 1.4942862114	-0.379839
C	 1.1238754906	-4.0487510089	 2.4554628246	-0.271569
N	 2.3636136518	-4.7831552818	 2.6029181183	-0.482635
H	 1.3969497328	 2.0427316227	 0.7676043541	 0.128428
H	 1.178550338	 1.3439155553	-0.8530311016	 0.128426
H	-0.2343293652	 1.6245501341	 0.1920702437	 0.168417
H	 1.7968203813	-0.4854853609	 0.827849446	 0.276106
H	-0.7731623741	-2.4175303944	 2.0080647614	 0.264202
H	 0.6428449842	-3.9406321616	 3.4365004899	 0.136885
H	 0.4247213863	-4.6295895122	 1.8396187279	 0.1368
H	 2.8095026713	-4.8656159535	 1.6933206142	 0.238563
H	 3.0114144928	-4.2305577729	 3.1578920766	 0.23863
17.2847	54.3904	71.6116	107.6302	144.3425	169.8812	222.049	258.8506	340.6488	354.0855	435.4149	545.591	639.6534	681.7546	687.0299	722.9119	769.6785	891.3192	922.0304	923.1947	977.4797	1118.3587	1156.3842	1164.3742	1178.2595	1187.9119	1207.2178	1255.6338	1362.041	1396.8887	1442.5209	1462.7624	1489.0523	1499.4658	1503.2087	1599.8647	1678.6685	1769.5346	1821.0702	3022.8215	3029.5184	3059.5986	3080.4135	3155.6211	3496.3068	3523.9236	3563.4852	3616.554
CNC(=O)NC(=O)CN	CNC(=O)NC(=O)CN	
InChI=1S/C4H9N3O2/c1-6-4(9)7-3(8)2-5/h2,5H2,1H3,(H2,6,7,8,9)	InChI=1S/C4H9N3O2/c1-6-4(9)7-3(8)2-5/h2,5H2,1H3,(H2,6,7,8,9)
