15
gdb 17714	6.96667	1.52487	1.46264	2.7197	65.57	-0.2236	0.0011	0.2247	861.1667	0.118629	-362.574107	-362.567679	-362.566734	-362.604449	25.101	
C	 0.027985796	 1.5196945281	-0.1950291461	-0.328603
N	 0.023650523	 0.0694610525	-0.0349421436	-0.111868
C	-1.0968835702	-0.5008251612	 0.7672579674	-0.002581
C	-0.2357746509	-1.7484859317	 1.176256748	-0.211718
C	 0.6572010799	-0.4573511352	 1.2082063052	-0.002577
C	-0.5322831745	-0.0737479712	 2.1906710509	-0.233926
C	-0.6076138328	-1.5271827042	 2.6336037622	 0.450088
O	-0.8389269114	-2.1641686725	 3.6165718328	-0.330103
H	 1.0180564954	 1.8368735983	-0.5378070966	 0.126066
H	-0.695785836	 1.7944154791	-0.9689923032	 0.126066
H	-0.2166185363	 2.0817338886	 0.7218788027	 0.099139
H	-2.1395233494	-0.5033398743	 0.4492085845	 0.103824
H	-0.0619975561	-2.6343839485	 0.5723134351	 0.108765
H	 1.7251968324	-0.4075542477	 1.4207298324	 0.103822
H	-0.692601499	 0.85096555	 2.7372476184	 0.103605
147.6074	217.4205	224.6472	326.964	438.8485	566.7199	656.6808	668.3423	763.6273	786.2026	798.5575	812.8721	832.5529	917.5911	948.3162	985.7919	1022.5182	1087.4637	1101.9185	1105.2476	1134.1994	1135.3747	1162.3436	1168.9527	1200.4602	1222.1105	1259.8711	1310.0158	1448.3846	1491.406	1495.8082	1918.1839	2966.6144	3068.3804	3104.2303	3115.6445	3118.9743	3168.0843	3173.17
CN1C2C3C1C2C3=O	CN1[C@H]2[C@H]3[C@@H]1[C@@H]2C3=O	
InChI=1S/C6H7NO/c1-7-4-2-5(7)3(4)6(2)8/h2-5H,1H3	InChI=1S/C6H7NO/c1-7-4-2-5(7)3(4)6(2)8/h2-5H,1H3/t2-,3+,4-,5+
