16
gdb 20188	3.42015	2.72079	2.06166	1.6854	62.29	-0.2369	0.0834	0.3203	703.7231	0.133679	-383.695614	-383.689892	-383.688948	-383.725213	23.532	
C	 0.0162777922	 1.6012880616	-0.0259483676	-0.278721
C	 1.5438237906	 1.5953142218	-0.0771621592	-0.115317
C	 2.1682381372	 0.6866271775	 0.9556580512	 0.133039
O	 1.7298128178	 0.4259483538	 2.2626340785	-0.271659
C	 0.34374423	 0.1940556131	 2.4201123984	 0.024161
O	-0.2498844176	-0.5200420809	 1.3697912468	-0.259549
C	 0.0363494365	 0.039158092	 0.0935910997	 0.093736
C	 1.5394569984	 0.0471466174	-0.2282377944	-0.123893
H	-0.4835219414	 2.1853621812	 0.7507680863	 0.106175
H	-0.4092674779	 1.8817922498	-0.9931223993	 0.108488
H	 2.1481137993	 2.3205916548	-0.6101789519	 0.088628
H	 3.25287253	 0.7153119819	 0.9613807105	 0.107557
H	 0.2326684458	-0.4194638925	 3.3174525056	 0.117915
H	-0.1706519483	 1.1559951312	 2.569443084	 0.089219
H	-0.6080252015	-0.4817150862	-0.6133164858	 0.091715
H	 2.0524547291	-0.6060265465	-0.9231822027	 0.088505
159.8081	327.749	403.2882	460.0095	533.2783	554.1127	707.6792	741.8615	785.2225	815.8054	841.3345	926.5114	938.8448	966.603	982.6365	1016.7693	1024.2436	1041.3239	1069.8768	1087.102	1119.5925	1152.1144	1184.5258	1222.7276	1231.3935	1260.5874	1289.4906	1297.5407	1350.3201	1377.0534	1424.8862	1464.4635	1494.4638	1532.0343	2977.6147	3059.7585	3096.8931	3103.2072	3121.3105	3168.3616	3175.4279	3190.5191
C1C2C3OCOC1C23	C1[C@H]2[C@H]3OCO[C@@H]1[C@@H]23	
InChI=1S/C6H8O2/c1-3-5-4(1)7-2-8-6(3)5/h3-6H,1-2H2	InChI=1S/C6H8O2/c1-3-5-4(1)7-2-8-6(3)5/h3-6H,1-2H2/t3-,4+,5-,6-/m1/s1
