18
gdb 51335	4.38367	1.06413	1.03025	3.7493	77.02	-0.2467	0.0303	0.277	1197.9738	0.149466	-401.922944	-401.915452	-401.914508	-401.955778	29.001	
O	-0.1359538621	-0.0110491799	-0.2961157236	-0.32293
C	-0.0483683055	 1.1764878218	-0.0671573651	 0.150442
N	 1.1117377959	 1.8513180076	 0.1631589994	-0.300391
C	 2.4162863648	 1.2284095738	 0.1305791693	 0.077636
C	 3.591394559	 1.9745711407	-0.484557035	-0.10776
C	 4.2410600265	 2.8215127548	 0.6246353451	-0.073772
C	 3.440433899	 2.6013352443	 1.9079624027	-0.239268
C	 3.2787588537	 1.1346180909	 1.4294067638	-0.086911
C	 4.5462784281	 1.3495404483	 0.507668808	-0.078926
H	-0.9293019239	 1.8485775708	-0.0235308235	 0.070743
H	 1.0547554374	 2.8441583234	 0.3248040005	 0.248254
H	 2.2868771762	 0.2409565586	-0.3130773748	 0.12025
H	 3.7701778307	 2.1873270932	-1.5308365938	 0.091273
H	 4.8863703314	 3.6523982475	 0.3701854973	 0.089394
H	 4.0872540047	 2.6603272991	 2.7870953399	 0.106953
H	 2.5305236711	 3.1866481283	 2.0921170034	 0.076933
H	 3.1144313095	 0.3249165022	 2.1362792852	 0.080268
H	 5.4622722438	 0.7982440946	 0.3616116912	 0.097812
38.0494	140.7201	193.1302	238.024	355.6909	502.009	535.1875	543.9775	679.6632	734.4917	781.1024	794.8896	818.4126	824.5425	887.4094	933.3753	980.4123	991.5053	997.3851	1024.7789	1029.6853	1033.034	1043.4113	1077.4967	1094.1529	1135.5868	1160.293	1169.6193	1206.0727	1207.9137	1247.6891	1276.5347	1329.8045	1363.4301	1372.6999	1433.4833	1504.7758	1529.6223	1806.3946	2926.7211	3022.8069	3097.05	3124.8638	3147.7399	3194.1058	3201.9736	3238.9376	3637.4567
O=CNC1C2C3CC1C23	O=CN[C@H]1[C@H]2[C@H]3C[C@@H]1[C@@H]23	
InChI=1S/C7H9NO/c9-2-8-7-4-1-3-5(4)6(3)7/h2-7H,1H2,(H,8,9)	InChI=1S/C7H9NO/c9-2-8-7-4-1-3-5(4)6(3)7/h2-7H,1H2,(H,8,9)/t3-,4+,5-,6-,7+/m0/s1
