19
gdb 94672	2.18999	1.78627	1.37267	0.8148	70.55	-0.2183	0.0598	0.2782	1025.3604	0.158399	-460.148319	-460.139688	-460.138744	-460.180936	34.037	
C	-0.1098961538	 1.4745778147	 0.0740132408	-0.471582
C	 0.0039000818	-0.0193832899	 0.0649762813	 0.357667
C	 1.3076527454	-0.7320347686	-0.2665976753	-0.419932
C	 0.7120889201	-0.8566709039	 1.1086619929	 0.344253
O	 1.4220741294	-0.3460695832	 2.1872486325	-0.475153
C	-0.238939494	-2.0108686039	 1.3919775205	 0.041229
O	-0.9486683917	-1.7126737907	 2.5990092767	-0.447534
C	-1.1351025735	-2.0213318718	 0.147622466	-0.147547
O	-1.1950432758	-0.6709326449	-0.3191693325	-0.302894
H	 0.7707548457	 1.9097356412	 0.5535134764	 0.135087
H	-0.1917346545	 1.8778905163	-0.940357074	 0.127757
H	-0.9977310917	 1.7861744867	 0.6342996534	 0.116441
H	 1.3258362912	-1.580671414	-0.9424562021	 0.113469
H	 2.1840504289	-0.094806981	-0.3220700394	 0.127534
H	 0.8311470185	-0.4412030866	 2.9477612599	 0.284258
H	 0.2523784308	-2.971180693	 1.5681083956	 0.099432
H	-1.5692117468	-1.0020284127	 2.395051322	 0.292519
H	-0.7195262415	-2.682893873	-0.624559721	 0.107107
H	-2.1511222986	-2.3551209517	 0.3752168363	 0.11789
118.3994	175.653	194.8232	211.9169	278.1494	357.9706	378.2537	397.4466	442.5904	479.2389	505.2757	538.7884	572.6241	694.861	741.745	798.885	856.4764	894.724	907.2078	934.491	963.2263	1017.8965	1043.171	1061.488	1089.7557	1114.3696	1147.0892	1216.711	1229.3122	1241.7672	1287.4813	1332.2026	1341.4466	1383.5551	1409.726	1423.0715	1433.1335	1477.6312	1487.4392	1507.3389	1513.2275	3011.4184	3036.5705	3088.6311	3093.5949	3098.7709	3123.5953	3129.7755	3218.0417	3743.0044	3785.126
CC12CC1(O)C(O)CO2	C[C@@]12C[C@]1(O)[C@@H](O)CO2	
InChI=1S/C6H10O3/c1-5-3-6(5,8)4(7)2-9-5/h4,7-8H,2-3H2,1H3	InChI=1S/C6H10O3/c1-5-3-6(5,8)4(7)2-9-5/h4,7-8H,2-3H2,1H3/t4-,5+,6-/m0/s1
