19
gdb 32881	5.09357	0.73666	0.68194	2.7279	80.29	-0.1716	0.051	0.2227	1645.0229	0.160008	-419.231375	-419.221669	-419.220725	-419.266613	35.378	
N	-0.0954447889	 1.4531274191	 0.2626582618	-0.605392
C	-0.0076366858	 0.0579673999	 0.0753257673	 0.26495
C	-1.0482334232	-0.8277782346	-0.1039131423	-0.176924
N	-0.5062930987	-2.099295845	-0.1505903061	-0.300972
C	 0.8548228338	-2.0420901098	-0.0073662567	 0.314545
C	 1.7107485745	-3.2662669366	-0.0609480367	-0.302622
C	 1.996705233	-3.7409109438	-1.4895329095	-0.059886
O	 2.7871335871	-4.9160999104	-1.4035365588	-0.418433
C	 1.1916642674	-0.7105740319	 0.1343741471	-0.304264
H	 0.6874321765	 1.9401154594	-0.1559911279	 0.236967
H	-0.9505647963	 1.8377448136	-0.1191403652	 0.234061
H	-2.1111085177	-0.6664548099	-0.18146188	 0.099304
H	-1.0373086502	-2.9460819566	-0.2497027603	 0.253166
H	 2.6660475068	-3.0654010079	 0.4330580457	 0.121256
H	 1.2447968255	-4.0953637237	 0.4869910312	 0.105776
H	 1.0459362452	-3.9334973829	-2.012833702	 0.078848
H	 2.5142378129	-2.9407411392	-2.0401745862	 0.093572
H	 3.0114310975	-5.1949322994	-2.2959261869	 0.286
H	 2.1913373305	-0.3270437902	 0.2778443455	 0.080049
42.6356	90.095	99.336	176.0169	253.2822	262.7493	276.2326	328.4694	345.3308	415.7459	437.8737	624.4448	629.3008	659.3671	692.9272	767.5378	768.0441	793.8304	807.4043	985.5477	998.8405	1008.6074	1047.5067	1075.9214	1104.6999	1130.2753	1184.2878	1211.4533	1238.9345	1292.7539	1316.2325	1321.3834	1347.2161	1452.4799	1459.8123	1478.7292	1489.1344	1526.5527	1550.037	1641.0845	1659.4136	2966.2063	3001.758	3029.9905	3091.9393	3235.8409	3261.233	3526.4315	3613.4705	3686.0038	3831.013
NC1=CNC(CCO)=C1	Nc1c[nH]c(CCO)c1	
InChI=1S/C6H10N2O/c7-5-3-6(1-2-9)8-4-5/h3-4,8-9H,1-2,7H2	InChI=1S/C6H10N2O/c7-5-3-6(1-2-9)8-4-5/h3-4,8-9H,1-2,7H2
