19
gdb 115305	2.80576	1.20414	0.96212	3.0545	71.38	-0.2467	-0.0324	0.2142	1260.2827	0.158481	-460.183109	-460.173925	-460.172981	-460.217512	33.472	
C	-0.2357315153	 1.5452832046	 0.0258946868	-0.407621
C	 0.1746941882	 0.0785358321	-0.04487154	-0.104179
C	 1.2447276352	-0.306667573	-1.0719668699	-0.110899
O	 1.845234442	-1.510905753	-0.5748802793	-0.279199
C	 1.8786895317	-1.4535399472	 0.851524048	-0.02838
C	 3.2744480374	-1.0413288191	 1.3373721321	-0.057816
O	 4.2530555627	-1.9232827812	 0.835688601	-0.420726
C	 0.8006908569	-0.4468315572	 1.2502168391	 0.371959
O	 0.5306658172	-0.1088702618	 2.3732432845	-0.318856
H	 0.6409588945	 2.1936811848	 0.1256391939	 0.123982
H	-0.7839514028	 1.8501305483	-0.8699080921	 0.121236
H	-0.8728950891	 1.7113308492	 0.8982970061	 0.145537
H	-0.7106670109	-0.5511487808	-0.2172909501	 0.117866
H	 0.8506102676	-0.5272383172	-2.0662686187	 0.121738
H	 1.9932831004	 0.4953455115	-1.1678545318	 0.101197
H	 1.648543891	-2.4535810966	 1.2362690476	 0.118778
H	 3.4782655376	 0.0011710553	 1.0407599164	 0.08486
H	 3.3051525998	-1.0862948511	 2.4296844688	 0.13093
H	 4.0788495259	-2.0025297377	-0.1105126726	 0.289592
55.9141	110.2189	151.7912	176.2675	188.8749	242.8046	310.6755	352.8511	447.6349	460.1283	512.232	604.2464	647.9737	658.257	815.3153	854.7678	904.4739	956.2499	987.3804	1030.4477	1052.7058	1074.8198	1097.0068	1121.9161	1160.001	1169.0379	1219.7762	1233.2998	1262.867	1298.3768	1312.5307	1341.3949	1386.8718	1392.3048	1411.8939	1426.2045	1496.0401	1497.1155	1500.4413	1521.5139	1848.6091	2963.6266	2984.3745	3009.9759	3042.4868	3053.4916	3096.1357	3103.5301	3110.9009	3125.7257	3781.5292
CC1COC(CO)C1=O	C[C@H]1CO[C@@H](CO)C1=O	
InChI=1S/C6H10O3/c1-4-3-9-5(2-7)6(4)8/h4-5,7H,2-3H2,1H3	InChI=1S/C6H10O3/c1-4-3-9-5(2-7)6(4)8/h4-5,7H,2-3H2,1H3/t4-,5-/m0/s1
