20
gdb 114854	4.29812	1.03477	0.89898	3.4554	80.87	-0.2472	0.0193	0.2664	1341.696	0.172093	-403.134079	-403.125845	-403.124901	-403.167042	31.632	
C	 0.0383939549	 1.632636077	 0.0016296911	-0.383476
C	 0.0764213478	 0.1038104113	 0.0511936418	-0.168958
C	 0.6144912269	-0.5281964339	-1.2298976549	 0.063011
C	 0.7581724559	-2.1003094157	-1.1453293743	-0.278187
C	 0.6253131746	-2.4720047514	-2.6294958839	-0.150705
C	-0.4811984886	-3.2636479405	-3.3898630239	-0.124887
O	-1.0063639252	-1.9945336584	-3.9600571751	-0.274976
C	-0.2233998306	-1.3262850367	-3.0580397905	 0.434669
N	-0.3307791528	-0.2750703223	-2.3728487116	-0.320822
H	 1.0438214028	 2.0488525998	-0.1289296504	 0.107751
H	-0.5763181958	 1.9711966075	-0.83633253	 0.143894
H	-0.3763420321	 2.0477486082	 0.9253740026	 0.106733
H	 0.7009470775	-0.2320062828	 0.8899201373	 0.089349
H	-0.9321790196	-0.2892268143	 0.2309167924	 0.098164
H	 1.5930197916	-0.0805644608	-1.4612888428	 0.076422
H	 1.691958043	-2.4207552554	-0.6770083191	 0.104695
H	-0.0771830096	-2.4993533415	-0.5582099811	 0.108885
H	 1.5870331667	-2.5458755348	-3.1433231007	 0.108592
H	-0.1537942455	-3.9368170796	-4.1832313546	 0.1291
H	-1.2485681418	-3.7266653456	-2.7642051522	 0.130747
88.0119	115.1391	185.7469	228.9827	251.4089	321.869	386.1132	466.797	494.3853	591.8948	662.8022	745.1343	785.7693	814.3936	833.1144	911.1147	915.9556	934.0513	955.1613	973.1059	1028.926	1071.0181	1094.8028	1111.009	1136.6824	1156.9394	1168.2784	1200.0449	1221.2412	1262.3764	1276.2578	1316.325	1334.5923	1339.1331	1361.868	1392.2519	1408.0868	1475.5566	1483.2736	1496.6035	1499.799	1509.5504	1775.099	2987.2046	3016.1884	3034.4648	3044.5301	3055.7207	3067.3146	3079.2036	3098.412	3109.4826	3124.6463	3142.1119
CCC1CC2COC2=N1	CC[C@H]1C[C@H]2CO[C]2[N]1	
InChI=1S/C7H11NO/c1-2-6-3-5-4-9-7(5)8-6/h5-6H,2-4H2,1H3	InChI=1S/C7H11NO/c1-2-6-3-5-4-9-7(5)8-6/h5-6H,2-4H2,1H3/t5-,6-/m0/s1
