18
gdb 117521	2.27671	1.16398	0.80701	6.2162	75.12	-0.2529	0.0215	0.2743	1403.38	0.14608	-439.076384	-439.066702	-439.065758	-439.111416	34.754	
C	-0.1166165117	 1.5293281953	 0.1276025677	-0.329243
N	 0.0906271903	 0.0814020124	 0.0519645739	-0.303906
H	-1.196726682	-1.0876398279	 0.2009955884	 0.307212
H	 0.6268278241	-0.1388869345	-0.7829564202	 0.236934
C	 0.7743265353	-0.4810573937	 1.2235528754	-0.16317
C	 0.7211792422	-2.0305013974	 1.1969755939	-0.401101
C	 1.5773189488	-2.5861146597	 2.2348615735	 0.355551
C	 2.3124006547	-2.9876666357	 3.0950101135	-0.427286
C	-0.7282892774	-2.5979376484	 1.2747675278	 0.439283
O	-1.6302465985	-1.9027827831	 0.5758026598	-0.384172
O	-1.0038296235	-3.596075784	 1.8790933951	-0.320291
H	 0.8147015912	 2.0913599042	 0.2939323521	 0.118359
H	-0.5750350162	 1.8791305525	-0.8005904285	 0.136455
H	-0.8015436321	 1.7530451632	 0.9507431145	 0.144987
H	 1.8217966289	-0.157445981	 1.2981305217	 0.120194
H	 0.2607290442	-0.1185183955	 2.1203614481	 0.138906
H	 1.1048146955	-2.3554968611	 0.2163098924	 0.131532
H	 2.943602426	-3.3723815158	 3.8574119608	 0.199759
62.1201	101.2064	122.2495	146.8883	193.0048	250.4754	287.7077	321.2629	358.4968	424.743	489.5287	507.7754	620.9738	641.7236	657.8822	736.7443	800.0348	832.0781	958.8788	989.2007	1029.3233	1032.4189	1073.6066	1127.994	1146.1201	1181.3054	1221.7149	1269.8434	1295.861	1323.8483	1390.3707	1460.6804	1474.6773	1492.1499	1506.2646	1511.1788	1521.4015	1867.7991	2248.1706	2982.6292	2993.5739	3008.2263	3079.3302	3084.5913	3125.0173	3163.6142	3502.2914	3504.9344
C[NH2+]CC(C#C)C([O-])=O	CNC[C@@H](C#C)C(=O)O	
InChI=1S/C6H9NO2/c1-3-5(4-7-2)6(8)9/h1,5,7H,4H2,2H3,(H,8,9)	InChI=1S/C6H9NO2/c1-3-5(4-7-2)6(8)9/h1,5,7H,4H2,2H3,(H,8,9)/t5-/m1/s1
