16
gdb 14190	2.80935	2.24823	2.19886	0.9309	64.52	-0.2328	0.0619	0.2947	755.6654	0.130008	-383.663401	-383.656408	-383.655464	-383.693981	27.928	
O	 0.0708251369	 1.3200712823	 0.1196640242	-0.478742
C	 0.0635745441	-0.0559260825	-0.0254043978	 0.339648
C	 0.6366290995	-0.930486845	-1.1600465121	-0.337155
C	 0.0963257072	-1.9308547056	-0.1126719471	-0.083411
C	 0.5294859475	-1.0256720295	 1.0949787213	-0.083234
C	-0.8657011008	-1.1016712614	 1.7562894971	-0.337307
C	-1.1406457098	-1.0594696776	 0.2387656493	 0.339607
O	-2.3405427704	-1.145793765	-0.4448939133	-0.478781
H	-0.3639180298	 1.7058049133	-0.6488098728	 0.283982
H	 0.1135721226	-0.9040548333	-2.1207434784	 0.098212
H	 1.7214980871	-0.9039933819	-1.3006660809	 0.094403
H	 0.1210965206	-3.0179676492	-0.1241560509	 0.08305
H	 1.5118248179	-1.0274120677	 1.5614057376	 0.083107
H	-1.1139194446	-2.0326789585	 2.2749650569	 0.094419
H	-1.1731986107	-0.2298502239	 2.3416414556	 0.09818
H	-2.9209535172	-0.4473077145	-0.1231407886	 0.284024
197.2687	216.7486	252.5984	302.7049	329.4322	425.0419	450.9476	508.6174	652.5849	679.2325	693.2924	788.1034	867.4094	889.9646	934.356	939.4932	977.3835	994.3548	1037.4381	1052.642	1093.365	1097.4742	1115.6629	1138.5103	1182.2136	1208.0809	1210.9301	1244.9463	1300.7446	1304.854	1364.9237	1389.2109	1504.7586	1513.8869	3044.5019	3046.4037	3106.0618	3106.1371	3144.1175	3152.9907	3803.3894	3804.1804
OC12CC3C1CC23O	O[C@@]12C[C@H]3[C@@H]1C[C@@]23O	
InChI=1S/C6H8O2/c7-5-1-3-4(5)2-6(3,5)8/h3-4,7-8H,1-2H2	InChI=1S/C6H8O2/c7-5-1-3-4(5)2-6(3,5)8/h3-4,7-8H,1-2H2/t3-,4-,5-,6-/m0/s1
