12
gdb 130018	5.55339	1.38704	1.11057	2.7532	63.09	-0.2249	-0.0151	0.2098	976.9414	0.081409	-464.987543	-464.98102	-464.980076	-465.018247	24.978	
N	 0.0636264933	 1.2885355963	 0.1540863654	-0.584592
C	-0.0643038897	-0.0574016583	 0.0591484496	 0.457176
N	-1.163504617	-0.7521660787	 0.0257694151	-0.41225
C	-0.676181519	-2.0537974136	 0.0022279118	 0.326588
N	-1.0908511257	-3.3143922435	-0.0381320753	-0.324014
N	 0.086739639	-3.9731045221	-0.049878738	-0.11885
N	 1.2292294905	-3.2465936941	-0.0180307014	-0.33063
C	 0.7139797196	-2.0400568525	 0.0146892804	 0.371495
O	 1.1477238615	-0.7478376409	 0.0524490823	-0.242657
H	 0.9346691171	 1.6849990545	-0.1608385528	 0.278122
H	-0.7691065214	 1.8123730724	-0.0635160407	 0.2842
H	 0.1202944117	-4.9777136496	-0.0693781263	 0.295412
163.3756	258.4225	322.7194	360.0361	374.2499	406.1582	482.232	580.9039	611.6665	665.9673	740.7236	785.1685	796.6758	878.056	900.6113	974.6652	1108.7939	1147.9259	1158.33	1214.2715	1368.882	1442.9233	1493.823	1543.4574	1596.5466	1638.7928	1705.9896	3599.3048	3696.6588	3716.9199
NC1=NC2=NNN=C2O1	Nc1nc2n[nH]nc2o1	
InChI=1S/C3H3N5O/c4-3-5-1-2(9-3)7-8-6-1/h(H3,4,5,6,7,8)	InChI=1S/C3H3N5O/c4-3-5-1-2(9-3)7-8-6-1/h(H3,4,5,6,7,8)
