18
gdb 83059	2.72916	1.47988	1.24506	1.7402	84.85	-0.2266	-0.0013	0.2253	1080.4416	0.14663	-364.754375	-364.746059	-364.745115	-364.786783	32.594	
C	-0.1654414615	 1.4492963798	 0.1493929882	-0.322641
N	 0.0835310988	 0.032485609	-0.0590670164	-0.125388
C	 0.6896738295	-0.46766075	-1.2753087008	-0.088326
C	 1.479565975	 0.4655282956	-2.1949587706	-0.294807
C	 2.6220823421	 0.9485668017	-1.3285327024	-0.079702
C	 2.6154141408	 0.3716150094	-0.125192996	-0.146661
C	 1.4443419508	-0.5498271544	 0.0439544999	 0.111115
C	 1.5826952291	-1.7303337058	 0.8500720645	 0.231368
C	 1.7359223365	-2.7090237736	 1.5317610692	-0.385123
H	 0.6327121537	 2.1218982707	-0.1928062808	 0.109595
H	-1.090222744	 1.7113002728	-0.3748884781	 0.123721
H	-0.3233680594	 1.6203989653	 1.2185365789	 0.128675
H	 0.206357851	-1.3411422274	-1.7032608483	 0.102604
H	 1.8400120859	-0.0788725854	-3.0762348643	 0.120538
H	 0.8675720677	 1.294848071	-2.5738373019	 0.118761
H	 3.328992511	 1.7012884135	-1.6596358772	 0.102965
H	 3.3294295031	 0.5413555787	 0.671006487	 0.105991
H	 1.8564832498	-3.5765222809	 2.131812779	 0.187317
131.9637	151.9063	168.7489	227.4836	253.602	357.384	410.3518	495.2111	508.8118	556.9306	586.7466	600.6617	646.7659	702.4861	731.5761	767.6147	836.5609	878.2003	929.4829	962.0665	976.3174	1002.0483	1053.6504	1082.2498	1139.195	1148.2129	1168.8458	1187.2853	1213.2481	1296.455	1318.7654	1339.5036	1397.2323	1445.999	1466.8393	1484.581	1507.5052	1664.8899	2239.3277	3002.9376	3025.3706	3054.6124	3074.7218	3104.5589	3150.3918	3190.0352	3220.4848	3503.4013
CN1C2CC=CC12C#C	CN1[C@H]2CC=C[C@@]12C#C	
InChI=1S/C8H9N/c1-3-8-6-4-5-7(8)9(8)2/h1,4,6-7H,5H2,2H3	InChI=1S/C8H9N/c1-3-8-6-4-5-7(8)9(8)2/h1,4,6-7H,5H2,2H3/t7-,8+,9?/m0/s1
