16
gdb 27921	2.53284	1.33343	0.87926	4.0739	77.75	-0.1986	-0.0353	0.1633	1259.6447	0.123664	-437.936546	-437.927745	-437.926801	-437.970078	31.868	
C	 0.1040297966	 1.4562485315	 0.0511834297	-0.495115
C	-0.0651459485	-0.0182482032	 0.0373056813	 0.28019
C	-1.1379275136	-0.8656082153	-0.0552364372	 0.110776
C	-2.5377363415	-0.4851736397	-0.1752867922	 0.064435
O	-3.4576961431	-1.2713040726	-0.2643558589	-0.286603
C	-0.6156761015	-2.2119935153	-0.0261981521	-0.389275
C	 0.7282215142	-2.0783810695	 0.0900757846	 0.383213
N	 1.7827782487	-2.9597965615	 0.2562948124	-0.594495
O	 1.0807571825	-0.7566553103	 0.130916468	-0.208798
H	 0.725710135	 1.7929470625	-0.7867611383	 0.143853
H	-0.8651932124	 1.9522375066	-0.0223788105	 0.145794
H	 0.5918349594	 1.7906565299	 0.9741060637	 0.146597
H	-2.7281654058	 0.6112101506	-0.1822264693	 0.056166
H	-1.1912206483	-3.1199529607	-0.0884518484	 0.124156
H	 1.5502746116	-3.9028929018	-0.0218786408	 0.261075
H	 2.6354575668	-2.6496833311	-0.192604262	 0.258032
112.5364	137.9336	169.4219	195.7004	209.753	214.3587	274.5836	386.1536	412.8041	531.6511	630.4703	642.2894	653.4206	674.0276	731.2928	776.6873	848.0403	953.9313	1023.1874	1028.6918	1058.2131	1093.6799	1133.1281	1198.478	1261.9547	1349.4752	1415.7582	1433.5799	1455.7782	1468.7733	1485.3557	1619.7923	1639.5558	1685.1477	1778.1986	2876.2698	3029.2734	3077.7455	3139.0125	3280.0162	3546.4951	3649.6574
CC1=C(C=O)C=C(N)O1	Cc1c(C=O)cc(N)o1	
InChI=1S/C6H7NO2/c1-4-5(3-8)2-6(7)9-4/h2-3H,7H2,1H3	InChI=1S/C6H7NO2/c1-4-5(3-8)2-6(7)9-4/h2-3H,7H2,1H3
