19
gdb 93755	2.0165	1.65122	0.97679	3.6249	82.01	-0.2421	-0.0598	0.1824	1225.8036	0.157302	-423.057049	-423.047597	-423.046653	-423.091618	33.779	
C	 0.1547755896	 1.5875071977	-0.1157961084	-0.399801
C	-0.0035882854	 0.0781713801	 0.0474350255	 0.048365
O	 0.5781987948	-0.6000674018	-1.078659863	-0.280508
C	 1.5172282319	-1.565111179	-0.6485247972	-0.144839
C	 1.585251209	-1.4507244412	 0.8507350633	 0.180606
C	 2.510925992	-2.3117478244	 1.644320493	-0.500472
C	 0.7056866766	-0.5138502017	 1.2468226164	 0.110808
C	 0.3981275713	-0.1245853661	 2.6205578673	 0.066783
O	-0.4418970822	 0.697973121	 2.9238632944	-0.273374
H	 1.2135032698	 1.8644620257	-0.1307011389	 0.109175
H	-0.2996967501	 1.906193685	-1.0579147008	 0.122688
H	-0.3378282773	 2.102954298	 0.7117099396	 0.144252
H	-1.0776528776	-0.1612090171	 0.0869310321	 0.094083
H	 1.2058026737	-2.5803287852	-0.9511204182	 0.109055
H	 2.4981739499	-1.3841060236	-1.1182672975	 0.11154
H	 2.3024550511	-3.3720332232	 1.4553944912	 0.144199
H	 3.5497519929	-2.1402706301	 1.3362183255	 0.144753
H	 2.4417777141	-2.1367872326	 2.7187917688	 0.142462
H	 0.9850685958	-0.6440621816	 3.4077094669	 0.070224
62.2668	114.9944	138.1849	171.6701	193.2613	239.4641	253.7126	296.3053	368.8209	412.4481	510.2391	560.7275	612.3738	703.6442	772.454	878.7534	925.6241	953.5944	1009.8994	1027.159	1065.9913	1085.3269	1096.2994	1117.6687	1133.3663	1203.1826	1217.5161	1281.379	1362.735	1373.7545	1387.1141	1397.7484	1411.1122	1434.2562	1476.5421	1481.8437	1491.6585	1495.6118	1510.6906	1704.249	1768.8242	2896.9827	2952.0269	2974.6108	2981.41	3027.9046	3043.9776	3073.613	3117.1872	3138.1976	3139.0845
CC1OCC(C)=C1C=O	C[C@H]1OCC(=C1C=O)C	
InChI=1S/C7H10O2/c1-5-4-9-6(2)7(5)3-8/h3,6H,4H2,1-2H3	InChI=1S/C7H10O2/c1-5-4-9-6(2)7(5)3-8/h3,6H,4H2,1-2H3/t6-/m1/s1
