19
gdb 115192	4.31001	0.96143	0.82262	3.6908	80.19	-0.2391	-0.0518	0.1873	1389.758	0.15927	-423.052332	-423.043624	-423.04268	-423.086094	32.266	
C	 0.0315807438	 1.4335945495	 0.0063459913	-0.244606
O	-0.0796141223	 0.0293131767	 0.0615412874	-0.244404
C	 0.6403858725	-0.5768303202	 1.1244957145	 0.093487
C	-0.0293180768	-1.9130180753	 1.4428261861	-0.244176
C	 0.809042312	-2.7191283552	 2.4425157448	-0.33123
C	 2.2467435636	-2.9208154193	 1.9748049029	 0.389228
O	 2.9020904781	-3.8922117409	 2.2931516505	-0.331879
C	 2.8091918107	-1.8436511795	 1.128807509	-0.159067
C	 2.0921564256	-0.7762353157	 0.7572703111	-0.060263
H	 1.0648735872	 1.7721320645	-0.1628019508	 0.107332
H	-0.5828918723	 1.7715887169	-0.8313213962	 0.134103
H	-0.3354725761	 1.9049309746	 0.9314085655	 0.109162
H	 0.587481816	 0.0762213558	 2.0157728408	 0.080246
H	-1.0382085678	-1.7366970121	 1.8265216231	 0.108394
H	-0.1321704957	-2.4652749287	 0.5018773197	 0.122015
H	 0.8551204907	-2.1863840725	 3.4037433102	 0.12442
H	 0.3752666949	-3.7007475813	 2.6477906138	 0.127023
H	 3.845841188	-1.9711098966	 0.8319688167	 0.109065
H	 2.547072798	 0.0006816793	 0.1471805795	 0.11115
67.0636	98.3873	170.8235	178.415	272.2913	281.6244	357.1793	404.1291	455.8454	489.0915	542.6257	628.9732	714.8184	755.9931	775.8316	886.6524	934.3121	978.4484	1015.9058	1028.7841	1059.0819	1081.1505	1138.0895	1148.2665	1181.7426	1196.412	1225.0764	1232.1707	1264.1054	1329.3876	1343.2772	1350.6899	1377.4932	1407.3837	1461.3481	1479.6825	1490.0821	1496.8665	1509.0363	1678.4243	1781.8976	2923.4301	2976.3238	3012.6998	3022.5884	3048.5787	3095.7374	3104.3283	3118.0653	3155.188	3185.7572
COC1CCC(=O)C=C1	CO[C@H]1CCC(=O)C=C1	
InChI=1S/C7H10O2/c1-9-7-4-2-6(8)3-5-7/h2,4,7H,3,5H2,1H3	InChI=1S/C7H10O2/c1-9-7-4-2-6(8)3-5-7/h2,4,7H,3,5H2,1H3/t7-/m1/s1
