20
gdb 58000	3.77326	0.7217	0.67765	3.0032	77.78	-0.2508	-0.03	0.2209	1719.2198	0.168236	-440.339998	-440.329311	-440.328366	-440.377937	36.764	
C	-0.089639	 1.5359742904	-0.1935987888	-0.387568
C	-0.0613552803	 0.0030545945	-0.0121449644	-0.070224
C	 0.7118984058	-0.3994769968	 1.2497828154	-0.387118
C	-1.5001396005	-0.4953085583	 0.0504889031	 0.376951
O	-2.1633930837	-0.4430958336	 1.0637897811	-0.328965
C	-2.0894591537	-1.0461066961	-1.2388624538	-0.237382
N	-3.4786818794	-1.3669548842	-1.0513794986	-0.281371
C	-4.2771417828	-1.7651036833	-2.0703958795	 0.154394
O	-3.9069955087	-1.908135687	-3.2179960601	-0.329371
H	 0.9303451765	 1.9230041808	-0.2725452981	 0.125966
H	-0.6316920056	 1.8311693943	-1.0976381342	 0.123067
H	-0.5736665162	 2.0108039031	 0.6650175973	 0.139094
H	 0.4156501826	-0.4379972037	-0.8962092557	 0.08715
H	 0.2038451986	-0.0203703027	 2.139888583	 0.14194
H	 0.7869798087	-1.4870967795	 1.343194009	 0.11968
H	 1.7257022988	 0.0102747216	 1.2226787271	 0.116153
H	-1.9514609955	-0.3185590322	-2.0505000567	 0.149271
H	-1.50261432	-1.9280398543	-1.5378448422	 0.146572
H	-3.8333613745	-1.2410165083	-0.113394694	 0.262928
H	-5.3176338202	-1.9486277148	-1.73764569	 0.078833
16.9892	38.6516	93.5949	123.5233	203.0524	221.4659	235.9181	254.8249	305.052	306.4266	320.2975	438.9919	567.3069	584.1782	642.9369	758.8049	854.9084	903.6878	932.5657	963.8639	981.5864	1019.4914	1036.7468	1105.6011	1117.1371	1126.7293	1199.0587	1226.9846	1231.4783	1329.027	1344.2043	1386.0847	1396.426	1417.5027	1423.8821	1475.1702	1485.7971	1488.6323	1500.6909	1511.5556	1515.5582	1790.8843	1808.6685	2943.2617	3002.4019	3032.2631	3033.1676	3038.0445	3044.5278	3108.3513	3112.2812	3118.9529	3130.6885	3597.3658
CC(C)C(=O)CNC=O	CC(C)C(=O)CNC=O	
InChI=1S/C6H11NO2/c1-5(2)6(9)3-7-4-8/h4-5H,3H2,1-2H3,(H,7,8)	InChI=1S/C6H11NO2/c1-5(2)6(9)3-7-4-8/h4-5H,3H2,1-2H3,(H,7,8)
