19
gdb 86788	3.40705	0.95308	0.82383	3.6095	76.68	-0.2492	0.0357	0.285	1407.5978	0.159003	-419.201585	-419.192143	-419.191199	-419.23649	34.349	
C	-0.0660637984	 1.5803472789	-0.0609796122	-0.399221
C	 0.0572175545	 0.0750455803	 0.0826388139	 0.021431
N	 1.0851216728	-0.5860446633	-0.7637931764	-0.33857
C	 1.3624079526	-1.5678091277	 0.3025278727	 0.008648
C	 2.8254440755	-1.9962496898	 0.4538096921	-0.341841
C	 3.2853382098	-2.7493949144	-0.710094956	 0.256278
N	 3.6182257317	-3.3452824713	-1.6428142915	-0.310025
C	 0.7792579817	-0.5411847463	 1.3218769367	 0.106515
O	 1.7291043423	 0.2853471832	 1.9486142995	-0.424697
H	 0.8942395483	 2.0820582458	 0.0888793537	 0.110313
H	-0.4212244459	 1.8395966005	-1.0636997527	 0.123582
H	-0.7798641128	 1.9806301247	 0.6660085875	 0.125293
H	-0.9362223664	-0.3898916851	-0.0174742686	 0.070276
H	 0.7752893484	-0.9615579324	-1.6541418195	 0.228785
H	 0.7258896027	-2.463979055	 0.2562851447	 0.081282
H	 3.46181395	-1.1167087566	 0.5853221646	 0.142755
H	 2.940476972	-2.6164295995	 1.3500550643	 0.153525
H	 0.1506064685	-0.9442001364	 2.1166213713	 0.093666
H	 2.2105804427	 0.7590452345	 1.2605834858	 0.292007
52.1142	85.5816	109.1578	174.5886	221.2753	244.7198	347.6513	380.2812	389.0628	404.2803	461.8242	550.9476	596.9939	705.7251	786.9565	820.774	869.278	907.4383	948.0163	981.0872	1022.8974	1033.9404	1086.9394	1116.1007	1147.2113	1164.4759	1190.2009	1221.5826	1237.3974	1264.714	1305.316	1351.5841	1365.2324	1375.4334	1405.7286	1421.0725	1442.7744	1450.3884	1482.3652	1493.7462	2360.3095	2974.3394	2990.3741	3037.7285	3054.4704	3103.2074	3106.179	3111.7035	3113.8476	3525.5417	3799.7922
CC1NC(CC#N)C1O	C[C@H]1N[C@@H](CC#N)[C@H]1O	
InChI=1S/C6H10N2O/c1-4-6(9)5(8-4)2-3-7/h4-6,8-9H,2H2,1H3	InChI=1S/C6H10N2O/c1-4-6(9)5(8-4)2-3-7/h4-6,8-9H,2H2,1H3/t4-,5+,6+/m1/s1
