16
gdb 74697	3.16692	1.41934	1.40973	2.8036	69.97	-0.2276	-0.0317	0.1959	997.9159	0.124722	-437.893907	-437.886428	-437.885484	-437.925841	28.571	
C	-0.046322775	 1.4274690108	 0.0659188309	-0.465238
C	-0.00907146	-0.0627082959	-0.0511911779	 0.40149
N	-0.063818125	-0.6788573065	-1.1635370952	-0.302531
C	 0.0289284849	-2.1543281941	-1.0729311792	-0.113053
C	 1.1477821096	-2.5154956915	-0.0446726032	-0.26811
C	 0.1312149415	-2.1107809101	 1.061202938	-0.010944
O	 0.0909930108	-0.6713587173	 1.1695178946	-0.27171
C	-0.9412226056	-2.5743952701	 0.0378676296	 0.428162
O	-1.9804371833	-3.1581917194	 0.1132422232	-0.308008
H	 0.8534735243	 1.7885778633	 0.5738101998	 0.144637
H	-0.1143154366	 1.870367647	-0.9265108365	 0.153688
H	-0.905769599	 1.7364011198	 0.669048722	 0.149083
H	-0.0030827313	-2.6082638061	-2.0613387725	 0.098793
H	 1.372112801	-3.583594961	-0.0148470355	 0.12772
H	 2.0616435315	-1.9220791061	-0.1025144047	 0.125503
H	 0.1742387821	-2.5142771726	 2.0707583867	 0.110516
111.3082	142.5105	205.3584	266.6575	337.2095	437.9555	447.6435	468.3372	547.3355	638.225	682.91	820.9823	828.8205	851.5627	861.4712	914.7234	965.2029	1021.359	1032.9901	1043.6019	1066.0238	1114.7502	1138.6454	1145.627	1231.4057	1236.1435	1250.5555	1309.1858	1342.2032	1409.1983	1469.682	1473.2921	1475.6014	1720.3959	1901.2833	3051.0176	3076.4567	3109.1026	3137.0224	3144.3187	3147.2705	3171.1956
CC1=NC2CC(O1)C2=O	CC1=N[C@H]2C[C@@H](O1)C2=O	
InChI=1S/C6H7NO2/c1-3-7-4-2-5(9-3)6(4)8/h4-5H,2H2,1H3	InChI=1S/C6H7NO2/c1-3-7-4-2-5(9-3)6(4)8/h4-5H,2H2,1H3/t4-,5+/m0/s1
