17
gdb 45426	2.62634	1.76082	1.7286	2.91	68.27	-0.2347	0.0242	0.2589	897.6871	0.140127	-455.151177	-455.144356	-455.143412	-455.182383	27.234	
N	-0.0652476408	 1.2862645318	-0.0476693993	-0.547712
C	-0.0291585436	 0.0276502095	 0.0144339516	 0.47233
O	 1.1246387983	-0.7131851439	 0.0488522883	-0.259362
C	 0.8450493457	-2.1265055953	 0.0347158917	 0.187847
C	 0.0409958518	-2.4684704471	 1.2890548969	-0.193949
N	-1.1961451697	-1.6584869021	 1.2626028539	-0.302639
C	-1.2459776093	-0.8694018204	 0.0192071411	-0.135454
C	-1.1179087456	-1.7904805245	-1.2083379527	-0.079863
O	 0.1474629696	-2.4709462593	-1.1298243243	-0.261209
H	 0.8828455991	 1.6691365959	-0.0621417365	 0.222874
H	 1.8128384494	-2.6254276502	-0.0068352374	 0.105076
H	-0.1666095759	-3.5441128355	 1.2895178213	 0.112097
H	 0.6382973537	-2.2368582122	 2.1796083188	 0.119479
H	-2.0127357619	-2.256862564	 1.3098407594	 0.226826
H	-2.151294403	-0.2646277138	-0.0126541167	 0.109636
H	-1.9270025433	-2.5329672716	-1.2124899089	 0.099638
H	-1.1513613847	-1.2307212373	-2.1505986371	 0.124385
104.4531	188.9667	299.5875	385.2781	394.9397	427.4698	522.7236	596.6437	664.3694	702.3406	785.5553	830.2178	863.1253	878.7194	910.8131	917.3759	944.7015	984.3461	1013.6468	1052.3816	1069.3588	1101.392	1141.6457	1159.3139	1211.1622	1235.8455	1283.7167	1295.2375	1306.4067	1347.3325	1393.2197	1397.227	1407.2992	1465.7871	1506.5365	1515.1863	1786.6657	3009.814	3023.0148	3058.4952	3067.0677	3129.3941	3132.4423	3461.0637	3536.3849
N=C1OC2CNC1CO2	[NH][C]1O[C@H]2CN[C@@H]1CO2	
InChI=1S/C5H8N2O2/c6-5-3-2-8-4(9-5)1-7-3/h3-4,6-7H,1-2H2	InChI=1S/C5H8N2O2/c6-5-3-2-8-4(9-5)1-7-3/h3-4,6-7H,1-2H2/t3-,4+/m1/s1
