21
gdb 94393	2.83774	1.30595	1.19539	1.2957	82.58	-0.2368	0.0278	0.2647	1152.1334	0.183725	-387.090471	-387.082192	-387.081247	-387.123224	32.968	
O	 0.7755037316	 0.8947043719	-0.4200284476	-0.431147
C	 0.2218653566	-0.207358385	 0.2532415065	 0.104968
C	-0.2336072909	-0.0853315176	 1.7271407425	-0.269837
C	-1.3774142492	-1.0793647099	 1.3920061576	-0.272992
C	-1.1964512613	-0.7452876815	-0.1225586942	 0.325967
C	-2.1989016487	 0.3314042994	-0.621724636	-0.329933
C	-3.1241987904	-0.4418350014	-1.5307134253	-0.061711
C	-2.6463411901	-1.6510663173	-1.8164272991	-0.056763
C	-1.320760149	-1.9012263992	-1.141045269	-0.352091
H	 0.2210718149	 1.662051889	-0.2443640191	 0.279272
H	 0.9574491897	-1.0116657193	 0.1433833009	 0.087749
H	 0.479550455	-0.3487717031	 2.5113698896	 0.100082
H	-0.6228471902	 0.9182927071	 1.9335302367	 0.092984
H	-1.0959714229	-2.1129332127	 1.614316571	 0.09889
H	-2.3597718985	-0.88453998	 1.8286587317	 0.100766
H	-2.7241685758	 0.833108264	 0.2002351553	 0.097807
H	-1.6859634654	 1.1194125709	-1.194323484	 0.098505
H	-4.0411569369	-0.0171635552	-1.924430228	 0.088881
H	-3.1132201404	-2.3699773008	-2.480818412	 0.089873
H	-0.5000102612	-1.8710839441	-1.8738014489	 0.111116
H	-1.2609447067	-2.8827773352	-0.6546995085	 0.097613
83.2407	121.6406	201.7994	258.6986	317.2359	348.5037	392.603	412.2536	484.4118	562.5841	648.3978	695.1555	767.6193	777.4373	797.8167	885.8991	900.8843	942.7531	944.7498	968.3695	975.6144	984.739	989.1733	1063.3562	1076.1768	1120.2182	1131.0596	1148.9095	1159.5621	1192.2252	1226.1602	1235.7742	1248.9789	1267.0103	1292.1786	1301.4864	1317.8461	1342.4599	1368.1288	1433.6994	1476.5674	1480.2981	1486.7177	1500.7806	1689.814	2989.2789	2994.739	3038.4043	3040.0076	3042.0504	3052.3085	3056.4745	3101.5873	3113.5235	3179.743	3205.4728	3811.5444
OC1CCC11CC=CC1	O[C@H]1CC[C@]21CC=CC2	
InChI=1S/C8H12O/c9-7-3-6-8(7)4-1-2-5-8/h1-2,7,9H,3-6H2	InChI=1S/C8H12O/c9-7-3-6-8(7)4-1-2-5-8/h1-2,7,9H,3-6H2/t7-/m0/s1
