18
gdb 62597	3.10483	1.73508	1.69653	2.3199	72.48	-0.2238	0.0609	0.2846	897.4926	0.148088	-401.885187	-401.877953	-401.877009	-401.916262	29.849	
C	 0.0275131503	 1.5272311731	 0.0253883154	-0.441264
C	 0.0063381919	-0.0020895493	 0.0178109185	 0.398589
O	-1.3266928084	-0.4952483443	-0.0763619209	-0.475768
C	 0.8088244558	-0.6334727596	-1.1040804774	-0.098465
C	 2.2622377222	-0.8137801978	-0.7034088404	-0.128438
C	 1.3083477128	-1.9766840636	-0.655787756	-0.024804
N	 1.2768554068	-1.9834774718	 0.8617444821	-0.158457
C	 2.2054041982	-0.8070312918	 0.8366183151	-0.051553
C	 0.7768617099	-0.6156221028	 1.1805953801	-0.125189
H	 1.0522429446	 1.9091018305	 0.0201589801	 0.125749
H	-0.4977551662	 1.9142743146	-0.8524678883	 0.125417
H	-0.4729124227	 1.9201293588	 0.9187549833	 0.105683
H	-1.831911789	-0.1284812928	 0.6567627203	 0.277032
H	 0.5476122322	-0.4708220353	-2.1417325076	 0.09583
H	 3.113815216	-0.61475105	-1.3376643474	 0.09415
H	 1.2485691282	-2.9053279905	-1.2056761441	 0.099052
H	 3.0440006038	-0.7253900559	 1.5182353173	 0.094755
H	 0.4512209534	-0.4706834214	 2.20594943	 0.087682
169.7336	229.3132	239.0335	247.1647	352.1164	382.6346	558.9456	599.3548	605.046	707.1908	740.5412	768.4927	780.7984	843.2047	852.6462	889.6259	934.3514	946.8363	957.7173	968.6889	987.8861	1020.2698	1037.5777	1044.1587	1064.9789	1076.8503	1116.6214	1166.9205	1169.1385	1203.4961	1240.2832	1249.6381	1302.4019	1332.815	1376.126	1404.8291	1413.3048	1489.2668	1497.4178	3028.664	3095.9376	3121.4789	3163.3736	3178.9547	3203.8227	3209.1823	3223.6974	3810.5283
CC1(O)C2C3C2N2C3C12	C[C@@]1(O)[C@H]2[C@@H]3[C@H]2N2[C@@H]3[C@@H]12	
InChI=1S/C7H9NO/c1-7(9)3-2-4(3)8-5(2)6(7)8/h2-6,9H,1H3	InChI=1S/C7H9NO/c1-7(9)3-2-4(3)8-5(2)6(7)8/h2-6,9H,1H3/t2-,3+,4-,5+,6+,7-,8?/m1/s1
