20
gdb 82051	2.79382	1.48335	1.26455	2.7694	78.02	-0.226	0.0698	0.2958	1088.2403	0.170934	-403.084271	-403.075989	-403.075045	-403.117149	31.922	
C	-0.1686524512	 1.6331730839	-0.2705330022	-0.418168
C	 0.0588081854	 0.1418315977	-0.109071161	-0.004031
N	 1.0359817174	-0.5209514891	-1.0587398463	-0.143834
C	 2.3832617114	-0.0626541622	-0.6753444369	-0.251393
C	 1.7415692301	-1.1041729239	 0.1512582667	-0.107746
C	 0.7730435451	-0.4593792652	 1.1343954701	 0.438799
C	 1.2205204734	 0.2981768592	 2.4017954932	-0.360677
C	 0.3574608311	-0.7316758921	 3.1525483208	-0.077119
O	-0.0375749703	-1.3598065218	 1.9132299596	-0.321872
H	 0.7413628878	 2.2201007963	-0.1128521992	 0.115133
H	-0.539017694	 1.8500190321	-1.2776721731	 0.132166
H	-0.919100081	 1.982960722	 0.4464639844	 0.121866
H	-0.8880955932	-0.3957697609	-0.2168479922	 0.102401
H	 3.1492585235	-0.3746805421	-1.3787089286	 0.123807
H	 2.5278344106	 0.9374932185	-0.2734460524	 0.110606
H	 2.0683222386	-2.1381624941	 0.1896173233	 0.103034
H	 2.2928374421	 0.2636459741	 2.6033610994	 0.11335
H	 0.8758306707	 1.3320998279	 2.4670498607	 0.1132
H	 0.9014491855	-1.424511643	 3.8053729513	 0.105133
H	-0.5048823929	-0.3319901273	 3.6983615321	 0.105344
81.7647	134.8762	184.132	193.8819	265.8744	295.0402	399.4632	453.2135	534.5514	539.111	725.3743	768.9216	782.0654	793.3906	860.552	881.9485	907.4538	948.5222	979.2851	1013.2006	1027.0501	1049.8732	1098.8845	1102.165	1109.4073	1116.759	1156.7431	1163.9138	1183.9026	1201.4476	1224.0922	1240.0945	1269.0946	1278.5255	1349.5225	1354.1217	1380.01	1403.5329	1483.2292	1487.9597	1493.2858	1508.8918	1531.7894	3022.3071	3034.7461	3063.0196	3065.5444	3074.7726	3102.3377	3105.635	3111.9037	3129.2003	3168.9928	3195.7747
CC1N2CC2C11CCO1	C[C@H]1N2C[C@H]2[C@]21CCO2	
InChI=1S/C7H11NO/c1-5-7(2-3-9-7)6-4-8(5)6/h5-6H,2-4H2,1H3	InChI=1S/C7H11NO/c1-5-7(2-3-9-7)6-4-8(5)6/h5-6H,2-4H2,1H3/t5-,6+,7-,8?/m1/s1
