18
gdb 99492	1.84908	1.33688	0.9846	2.8875	75.98	-0.2389	0.0105	0.2495	1304.3994	0.144314	-439.063428	-439.052789	-439.051845	-439.099914	36.508	
C	 0.5625887904	 1.4785943818	-0.5864131857	-0.333001
N	 0.8539565489	 0.0865800586	-0.8619826454	-0.295293
C	-0.0797083733	-0.8908320204	-0.7710798448	 0.36526
O	-1.2518436857	-0.7282429686	-0.4959354516	-0.371603
C	 0.4978196983	-2.3124449914	-1.039072352	-0.160971
O	 1.631841939	-2.2930876985	-1.8965657438	-0.24584
C	 1.2877481319	-2.1548815883	-3.2656524725	-0.244065
C	 0.8796349791	-2.9248667168	 0.2289988677	 0.318813
C	 1.1833888655	-3.4079197852	 1.2854709783	-0.425687
H	 0.8241293652	 2.1147587796	-1.4387274417	 0.126074
H	-0.508579095	 1.557404642	-0.3956439018	 0.170065
H	 1.1077952081	 1.8336242108	 0.2954153616	 0.130786
H	 1.7914486813	-0.2034741695	-1.0943132411	 0.26052
H	-0.3234858777	-2.8858232545	-1.4919338871	 0.12337
H	 2.2233047876	-2.1697446533	-3.8284907385	 0.135135
H	 0.6537151877	-2.9873600627	-3.60137665	 0.122637
H	 0.7634292935	-1.2099717487	-3.4647781333	 0.120643
H	 1.4483704451	-3.8428373048	 2.2175344516	 0.203159
51.8785	86.0513	94.2693	114.9134	156.7658	172.5632	191.5209	242.2585	329.691	357.5703	405.1691	471.7064	542.7751	589.8959	619.485	675.8314	681.0314	774.5595	867.8461	986.1197	1010.9758	1100.1955	1124.5624	1153.4073	1177.5206	1180.1082	1216.0504	1245.4111	1286.5446	1345.1878	1441.095	1476.0694	1487.9879	1493.9906	1499.1915	1506.233	1567.3254	1799.5172	2243.7401	2994.9017	3012.0039	3029.2422	3051.0909	3082.4315	3127.1287	3150.5445	3503.9396	3628.0241
CNC(=O)C(OC)C#C	CNC(=O)[C@@H](OC)C#C	
InChI=1S/C6H9NO2/c1-4-5(9-3)6(8)7-2/h1,5H,2-3H3,(H,7,8)	InChI=1S/C6H9NO2/c1-4-5(9-3)6(8)7-2/h1,5H,2-3H3,(H,7,8)/t5-/m0/s1
