14
gdb 29166	3.16064	1.48149	1.00869	1.6785	71.9	-0.1911	-0.0416	0.1495	1083.0533	0.101799	-470.041736	-470.033746	-470.032802	-470.074192	30.295	
N	 0.0148098066	 1.2879341604	-0.1381124233	-0.543234
C	-0.0301370471	-0.0537326829	-0.0636660778	 0.359787
N	-1.1514643174	-0.710162409	-0.0372260857	-0.429169
C	-1.0768956751	-2.0807893233	 0.0404565083	 0.339521
O	-2.2668762838	-2.73018328	 0.0658963797	-0.431422
C	 0.0843389775	-2.7545680325	 0.0890615495	-0.093121
O	 1.2826028502	-2.061167737	 0.0610931336	-0.218178
C	 1.299728417	-0.7152071292	-0.0144170239	 0.363618
N	 2.3639917747	-0.0141703106	-0.0443296661	-0.561984
H	 0.9216605837	 1.7258822876	-0.1557392133	 0.287019
H	-0.8360603814	 1.8201495666	-0.1772950926	 0.267165
H	-2.9406599008	-2.0402841354	 0.0211355949	 0.296339
H	 0.2161632568	-3.8218030597	 0.1502787282	 0.135143
H	 3.1972996492	-0.6001517752	-0.0039334215	 0.228516
83.4043	152.8729	220.5374	315.7956	324.3723	370.568	390.1404	446.3653	487.1521	525.0151	587.9893	601.3343	658.7352	689.6773	725.915	799.288	813.3296	846.3305	976.016	1035.81	1116.29	1198.8857	1241.6053	1267.3888	1354.6831	1407.0871	1452.923	1573.8227	1674.1518	1691.6067	1736.9848	3273.738	3499.4549	3600.5895	3748.4581	3796.2
NC1=NC(O)=COC1=N	NC1=C(OC=C([N]1)O)[NH]	
InChI=1S/C4H5N3O2/c5-3-4(6)9-1-2(8)7-3/h1,6,8H,(H2,5,7)	InChI=1S/C4H5N3O2/c5-3-4(6)9-1-2(8)7-3/h1,6,8H,(H2,5,7)
