21
gdb 99172	3.41297	0.88368	0.78951	3.8327	81.36	-0.2256	0.04	0.2656	1532.3753	0.182864	-420.415207	-420.405432	-420.404488	-420.450941	34.651	
C	-0.737921112	 1.1542063378	-0.7903890301	-0.330943
N	-1.0223112991	-0.1899588133	-0.3387202771	-0.291897
C	-0.597360711	-0.6711448723	 0.8577695802	 0.383483
O	 0.0345941642	-0.0312343596	 1.6801486754	-0.383538
C	-0.9532494601	-2.1459240582	 1.091981083	-0.267893
N	-2.0492690522	-2.6229158613	 0.2741328532	-0.084565
C	-3.4415310601	-2.3832714296	 0.7248001012	-0.160614
C	-3.8248597372	-3.778425667	 0.1770246901	-0.227062
C	-2.3067523806	-4.0786520002	 0.1944606518	-0.156926
H	-0.0764670644	 1.1564780966	-1.6650811201	 0.122156
H	-1.6578337682	 1.689546987	-1.0506593807	 0.120957
H	-0.2400239785	 1.6752144981	 0.0289690441	 0.166533
H	-1.514698069	-0.848767837	-0.924810529	 0.248505
H	-0.0575563058	-2.7305643231	 0.846564711	 0.128959
H	-1.1276196871	-2.2683215654	 2.1738594261	 0.10928
H	-3.5251328523	-2.328437301	 1.8218195774	 0.096846
H	-3.9224903139	-1.5007225293	 0.292239778	 0.104778
H	-4.462760178	-4.4014979473	 0.8035229506	 0.110094
H	-4.2349945146	-3.7375576328	-0.8335404416	 0.113983
H	-1.8619607086	-4.5759466858	-0.6735293408	 0.10481
H	-2.0042685315	-4.617101696	 1.1060060972	 0.093054
65.5336	77.3047	93.8392	106.5108	156.5773	178.8672	283.9277	342.1956	354.8916	419.5431	571.2912	660.7555	679.4905	700.5892	790.0233	843.8627	876.0879	927.4963	937.3986	970.4056	1005.7648	1093.4884	1105.1728	1130.5543	1145.5928	1155.4706	1178.0218	1207.8291	1213.8563	1230.6489	1246.5963	1265.5011	1271.6249	1299.536	1339.7277	1369.5636	1437.8161	1465.13	1488.1317	1494.1127	1500.4914	1506.5781	1533.6018	1564.6596	1787.9707	2971.44	2978.3345	2987.2565	3022.2627	3051.7679	3064.365	3069.8547	3072.619	3088.5077	3144.5994	3145.6524	3597.2221
CNC(=O)CN1CCC1	CNC(=O)CN1CCC1	
InChI=1S/C6H12N2O/c1-7-6(9)5-8-3-2-4-8/h2-5H2,1H3,(H,7,9)	InChI=1S/C6H12N2O/c1-7-6(9)5-8-3-2-4-8/h2-5H2,1H3,(H,7,9)
