23
gdb 112822	2.0536	1.3333	0.90057	2.977	82.33	-0.2456	0.0737	0.3193	1383.1368	0.205048	-425.40631	-425.396189	-425.395245	-425.441298	37.616	
C	-0.7168998489	 1.7225189682	 0.2454317006	-0.243683
O	-0.5786231978	 0.442642207	 0.8244499978	-0.25303
C	-1.2756225695	-0.57274907	 0.1336676519	 0.152804
C	-0.7034303451	-1.0915213115	-1.212331087	-0.277884
C	-1.0243911445	-2.5351603126	-0.72769125	 0.023774
C	-0.0623569969	-3.6627715009	-1.0776638266	-0.410691
C	-1.1111713244	-1.9907781218	 0.7395477825	-0.093181
C	 0.1517268576	-2.142185753	 1.5907502348	-0.061056
O	 0.0352925142	-1.4486863403	 2.819396015	-0.433513
H	-0.1491688805	 2.423724476	 0.861148321	 0.130987
H	-0.3214778203	 1.7485216813	-0.7799516607	 0.115073
H	-1.7704602787	 2.0400611616	 0.2198444023	 0.110121
H	-2.3351696898	-0.2923756976	 0.0346945229	 0.068096
H	-1.1649838395	-0.7468482274	-2.14072353	 0.094543
H	 0.3760159981	-0.9167629902	-1.2637401383	 0.106453
H	-2.0316477443	-2.8110308557	-1.0584636899	 0.074669
H	 0.9647193969	-3.4291385528	-0.7807810445	 0.119221
H	-0.3482181218	-4.5992342565	-0.5861172252	 0.117818
H	-0.0600098212	-3.8447257484	-2.158138739	 0.113722
H	-1.9609877562	-2.3421849116	 1.3313115759	 0.072897
H	 0.3046156772	-3.1979888407	 1.8399055263	 0.101593
H	 1.0404288242	-1.8098900988	 1.0320566191	 0.08261
H	-0.0975104289	-0.5232449542	 2.577393771	 0.288654
79.6657	96.9351	153.7101	178.8472	187.4614	200.0076	242.3197	299.556	339.0148	370.6716	427.3047	472.3283	532.2601	560.1813	648.6817	777.8311	860.8116	893.7933	906.7852	940.4423	983.2829	1011.9998	1030.9204	1078.6773	1102.1567	1123.4325	1148.4751	1161.5095	1178.4901	1183.9586	1208.1165	1233.8296	1245.3408	1265.3807	1278.0569	1313.4694	1343.0521	1370.7001	1394.9377	1407.218	1414.6375	1450.2977	1480.4906	1485.4176	1488.4641	1496.8492	1501.0401	1508.6757	1510.664	2978.2522	2981.0446	2987.5734	3030.2077	3036.1091	3038.1756	3053.3264	3059.5792	3073.2452	3091.6642	3105.704	3111.7704	3119.8893	3771.1652
COC1CC(C)C1CO	CO[C@H]1C[C@@H](C)[C@H]1CO	
InChI=1S/C7H14O2/c1-5-3-7(9-2)6(5)4-8/h5-8H,3-4H2,1-2H3	InChI=1S/C7H14O2/c1-5-3-7(9-2)6(5)4-8/h5-8H,3-4H2,1-2H3/t5-,6-,7+/m1/s1
