21
gdb 64004	2.63126	1.57157	1.28352	1.3936	83.87	-0.2347	0.0068	0.2415	1090.6361	0.182308	-387.063328	-387.054823	-387.053879	-387.095773	33.774	
C	 0.0151699109	 1.512367903	 0.0357350776	-0.409025
C	-0.018125383	-0.0219933575	 0.003837417	 0.248139
C	-1.4559880306	-0.5258142614	-0.1522782542	-0.449908
C	 0.93468245	-0.5531466297	-1.1433904781	-0.275031
C	 2.305741559	-0.6346512438	-0.47675524	-0.216244
C	 2.1260172642	-0.7399494956	 0.8339392465	 0.194576
C	 2.5296560743	-0.2265606561	 2.1927897587	-0.158652
O	 1.1482822751	 0.2093441221	 2.3899516493	-0.309269
C	 0.7018496851	-0.6111385321	 1.2495971517	 0.088339
H	 1.0397888166	 1.885842879	 0.1115519826	 0.117213
H	-0.4329539013	 1.919253019	-0.8770827712	 0.104296
H	-0.5415590171	 1.8984721477	 0.8942365199	 0.122862
H	-1.8935694821	-0.1862457649	-1.0975208273	 0.111726
H	-1.4977723414	-1.6207093998	-0.1409941345	 0.109623
H	-2.0926395638	-0.1565965321	 0.6589653653	 0.118397
H	 0.5901231204	-1.5254294942	-1.5215289932	 0.103117
H	 0.9415950696	 0.1278723271	-2.0025349929	 0.102979
H	 3.2393782013	-0.5036600807	-1.0109245392	 0.099108
H	 2.8096523484	-0.9856168196	 2.9352233383	 0.107921
H	 3.2462230896	 0.601233611	 2.2265974346	 0.118831
H	 0.1953697849	-1.5073231515	 1.635464999	 0.071002
111.6268	204.6814	231.3927	247.2295	271.4869	291.9645	326.3546	341.7693	404.7754	484.472	569.3069	647.4169	749.0825	779.7987	837.3722	872.0001	894.7104	914.1976	944.7436	952.4128	957.7709	979.0162	998.9206	1027.7489	1040.183	1103.8044	1137.0667	1146.1752	1187.8163	1207.5247	1244.4077	1263.9598	1294.0942	1303.2798	1338.9004	1356.7296	1400.5326	1421.299	1479.7757	1482.3157	1492.9949	1502.7712	1504.9587	1508.9539	1747.3047	2995.7233	3010.0072	3011.7489	3024.4145	3037.541	3057.4736	3069.518	3091.0234	3094.7065	3106.8012	3119.0344	3200.6787
CC1(C)CC=C2COC12	CC1(C)C[CH][C]2CO[C@@H]12	
InChI=1S/C8H12O/c1-8(2)4-3-6-5-9-7(6)8/h3,7H,4-5H2,1-2H3	InChI=1S/C8H12O/c1-8(2)4-3-6-5-9-7(6)8/h3,7H,4-5H2,1-2H3/t7-/m1/s1
