14
gdb 18003	4.26803	1.73939	1.48125	3.3381	57.32	-0.2536	-0.0391	0.2144	836.1679	0.106234	-419.627027	-419.620211	-419.619266	-419.658737	24.387	
O	-0.6628955852	 0.6996895445	 0.2993089643	-0.238609
C	 0.3867388443	 0.695507184	-0.2873363321	 0.151406
C	 1.4678465333	 1.7334968548	-0.0517775272	 0.016153
O	 2.7796688514	 1.3233834526	-0.5111805002	-0.309903
C	 2.9084937176	 2.4766883004	-1.3663255815	 0.07121
C	 2.3619594061	 2.2423100766	-2.7810611076	-0.09391
O	 1.0181627896	 2.5984829955	-2.3499143646	-0.288942
C	 1.476623668	 2.9343778689	-1.0299364128	 0.048
H	 0.6443372812	-0.0646080397	-1.0549205854	 0.093794
H	 1.4795162745	 2.0246975462	 1.0055132502	 0.110503
H	 3.841550913	 3.0203618605	-1.2165867729	 0.100593
H	 2.7277682754	 2.9423984689	-3.5418031488	 0.113891
H	 2.4339318649	 1.213378508	-3.1470099348	 0.122365
H	 1.1315659757	 3.9084857688	-0.6830172566	 0.10345
70.3132	108.9671	202.2895	284.2375	398.9216	464.1509	523.0039	722.5595	804.8131	809.3718	904.6901	938.7506	944.7494	999.4934	1016.2395	1036.3984	1070.3102	1079.6902	1095.7066	1162.7798	1195.0186	1214.6428	1264.8637	1284.112	1305.2511	1333.0096	1355.7027	1401.4333	1502.6745	1833.2794	2912.3363	3027.8125	3043.3345	3091.4354	3108.4848	3120.6506
O=CC1OC2COC12	O=C[C@H]1O[C@H]2CO[C@@H]12	
InChI=1S/C5H6O3/c6-1-3-5-4(8-3)2-7-5/h1,3-5H,2H2	InChI=1S/C5H6O3/c6-1-3-5-4(8-3)2-7-5/h1,3-5H,2H2/t3-,4+,5+/m1/s1
