16
gdb 131517	3.043	1.59069	1.15028	2.329	70.29	-0.2488	-0.016	0.2328	1032.9159	0.12657	-437.877898	-437.870651	-437.869707	-437.909855	27.649	
O	-0.3653789883	 1.4363627416	-0.3557831149	-0.42608
C	 0.0553595243	 0.1157092607	-0.0222811368	-0.034471
C	-1.2082101035	-0.7735068184	 0.1789036417	-0.213611
C	-1.4402946544	-1.6120093056	-1.1273825704	-0.359888
C	-0.1026161043	-1.5048579586	-1.7991713093	 0.171688
C	 0.6855594046	-0.5973199824	-1.1798320514	 0.372397
O	 1.8636999384	-0.4538634561	-1.7885770346	-0.237558
N	 1.8725368532	-1.3278023829	-2.8929820739	-0.140242
C	 0.7036913412	-1.9346995342	-2.8840147112	-0.128747
H	 0.4161100449	 1.9522598031	-0.5817533769	 0.291277
H	 0.6864773184	 0.1339580064	 0.8762891576	 0.086426
H	-1.03274902	-1.4515537146	 1.0182074449	 0.115915
H	-2.0599058558	-0.1397449942	 0.4334886078	 0.125948
H	-1.7362826861	-2.6385853492	-0.8915968844	 0.116203
H	-2.2379774475	-1.1847710653	-1.7452851068	 0.126573
H	 0.5036442349	-2.6589279703	-3.6616063013	 0.134172
87.998	143.1616	243.1425	287.445	328.5423	425.2088	457.041	602.1949	642.0246	693.9896	718.3675	787.657	834.4141	870.3705	903.6555	912.2688	970.3461	982.4666	999.1609	1079.7035	1118.2239	1182.2767	1197.5956	1218.7816	1240.8791	1289.1078	1298.9813	1331.7468	1372.9807	1397.5185	1417.7008	1474.2613	1498.1645	1503.5705	1661.1736	3011.1734	3043.7058	3069.9047	3082.3021	3127.2041	3239.7608	3811.8484
OC1CCC2=C1ON=C2	O[C@H]1CCc2c1onc2	
InChI=1S/C6H7NO2/c8-5-2-1-4-3-7-9-6(4)5/h3,5,8H,1-2H2	InChI=1S/C6H7NO2/c8-5-2-1-4-3-7-9-6(4)5/h3,5,8H,1-2H2/t5-/m0/s1
