16
gdb 26531	2.37403	1.83489	1.04317	3.5773	76.75	-0.2077	-0.0301	0.1777	1091.7101	0.125224	-437.942549	-437.934401	-437.933456	-437.975096	30.881	
C	 0.116769017	 1.5158276931	 0.0120271374	-0.498652
C	-0.0129558757	 0.0285593981	-0.0031517784	 0.302467
C	-1.1750127919	-0.6695066419	 0.0690471906	 0.059004
N	-2.4297607455	-0.0865876482	 0.200067909	-0.589783
C	-1.1704604083	-2.1449737465	 0.0690250884	 0.36108
O	-2.2235920091	-2.7775405403	 0.1302778634	-0.40544
C	 0.1527094135	-2.7307904558	-0.0205688127	-0.273586
C	 1.2435739972	-1.9454303427	-0.1057084279	 0.061824
O	 1.1969387519	-0.6061336017	-0.1031788397	-0.218021
H	 1.0596412598	 1.8077617103	 0.4820047202	 0.14521
H	 0.1040349978	 1.9449845911	-0.998297237	 0.139394
H	-0.7086748645	 1.9562662871	 0.5781276946	 0.146913
H	-2.6074884129	 0.7244497271	-0.3732400562	 0.246091
H	-3.1414175062	-0.8040934312	 0.0982270421	 0.262711
H	 0.252192152	-3.8086959356	-0.0344941903	 0.120498
H	 2.2627525748	-2.303732043	-0.1842923835	 0.14029
110.9257	131.3754	188.5456	276.6303	302.2652	340.5851	360.2406	489.3453	516.1417	517.7048	536.2932	556.3794	686.6517	720.2172	779.2105	854.5734	860.4704	917.1322	950.8588	1013.3332	1056.5459	1079.454	1213.0854	1222.027	1247.579	1304.7438	1397.6651	1421.3628	1452.3639	1480.13	1490.2064	1615.2737	1631.9681	1692.0516	1726.0404	3023.3344	3089.3128	3127.6218	3207.9646	3227.1656	3510.7516	3641.6458
CC1=C(N)C(=O)C=CO1	Cc1c(N)c(=O)cco1	
InChI=1S/C6H7NO2/c1-4-6(7)5(8)2-3-9-4/h2-3H,7H2,1H3	InChI=1S/C6H7NO2/c1-4-6(7)5(8)2-3-9-4/h2-3H,7H2,1H3
