16
gdb 52362	5.79169	0.57287	0.52986	0.9052	74.78	-0.2627	-0.0501	0.2126	1925.76	0.122692	-434.083904	-434.074018	-434.073074	-434.120817	32.991	
N	 0.0013982321	 1.3641222742	 0.2315739875	-0.520081
C	-0.0009962006	 0.0975797925	 0.0475400498	 0.303263
N	-1.149998842	-0.6211848574	-0.1301397296	-0.326415
C	-2.4336319291	 0.0467480464	-0.2659379651	-0.140595
C	-3.5812601859	-0.9463467654	-0.0545450256	-0.303203
C	-4.9278121892	-0.2510096513	-0.0466631732	 0.159722
O	-5.8616050608	-0.5631971377	-0.7364243889	-0.224953
C	 1.206612469	-0.7159141585	 0.0395869919	 0.226954
N	 2.1878572404	-1.3274431634	 0.0292747769	-0.316199
H	 0.9415362682	 1.7104139856	 0.4033102544	 0.243905
H	-1.0595116813	-1.5524227845	-0.5039539256	 0.264425
H	-2.46598795	 0.8467842696	 0.4794963519	 0.153237
H	-2.5220519081	 0.5325024074	-1.2482105813	 0.131617
H	-3.5994618226	-1.722851553	-0.8257864848	 0.127009
H	-3.4512840201	-1.4314028128	 0.9231588783	 0.137234
H	-5.0011274798	 0.5970243084	 0.6731484934	 0.084083
36.9217	57.473	66.4406	91.5928	155.9892	205.6453	291.7304	328.4586	349.1232	405.5904	504.3377	548.9848	611.8435	722.1893	769.9489	825.616	863.3396	910.6493	1001.5707	1064.0516	1107.8872	1136.2278	1170.595	1222.8281	1269.4271	1312.4466	1325.4921	1402.0058	1430.1407	1468.8523	1518.0308	1544.8206	1686.0278	1841.7184	2348.8152	2867.2522	3007.2487	3023.7663	3083.2236	3100.7306	3536.5911	3640.1303
N=C(NCCC=O)C#N	N=C(NCCC=O)C#N	
InChI=1S/C5H7N3O/c6-4-5(7)8-2-1-3-9/h3H,1-2H2,(H2,7,8)	InChI=1S/C5H7N3O/c6-4-5(7)8-2-1-3-9/h3H,1-2H2,(H2,7,8)
