21
gdb 74426	2.66703	1.44104	1.0881	1.1237	85.61	-0.213	0.0213	0.2343	1201.7766	0.182115	-387.08866	-387.079811	-387.078867	-387.121597	34.55	
C	 0.0094145999	 1.5076137659	-0.0349702484	-0.475836
C	-0.0041421544	 0.0082890942	 0.0465118888	 0.255089
C	-1.1082357173	-0.7329854016	-0.0760831823	-0.194996
C	-1.0918368384	-2.2177659756	-0.0289733844	 0.262416
C	-2.3784875433	-2.8975895087	 0.3887943982	-0.475506
C	-0.1774756718	-2.9137075193	-1.0525936006	-0.373032
C	 0.2397060306	-2.789416501	 0.3862542758	 0.097097
O	 1.260070878	-1.9527164126	 0.8395939992	-0.260009
C	 1.3337726916	-0.6627025521	 0.2511837461	-0.169021
H	 0.6755325484	 1.8606225106	-0.8338873632	 0.122746
H	-0.9899503536	 1.9046225433	-0.2324497837	 0.122957
H	 0.3785062628	 1.9549348758	 0.8971745781	 0.125195
H	-2.0742971282	-0.2510351542	-0.2162263147	 0.076109
H	-3.1892488105	-2.6724036656	-0.3148502757	 0.115923
H	-2.2609161248	-3.9853206039	 0.4190006533	 0.112542
H	-2.6977538952	-2.5675371339	 1.3837370301	 0.121434
H	-0.4636165533	-3.8985629183	-1.4091202167	 0.109255
H	 0.2926750568	-2.2842644696	-1.7994177525	 0.117563
H	 0.2389592957	-3.691766101	 0.9892001757	 0.099284
H	 1.8840775924	-0.7092946404	-0.7060183232	 0.098875
H	 1.9540081547	-0.0694515921	 0.93355456	 0.111914
127.105	149.7325	195.5991	205.5711	243.5089	276.3269	359.2567	372.7197	413.2082	469.8997	501.1291	532.498	627.3317	750.7675	809.3138	847.1064	864.5832	899.0929	941.4285	954.9423	1004.2217	1009.6844	1029.9542	1045.4748	1052.0844	1088.2267	1114.2397	1116.965	1168.2838	1213.0088	1269.4725	1272.8098	1329.2809	1356.868	1393.1209	1412.4983	1415.89	1427.4907	1476.3285	1478.9795	1489.8147	1492.2503	1500.5517	1501.5481	1734.7532	2934.8044	3010.1784	3020.7371	3048.6562	3054.6608	3081.4431	3099.0848	3109.5469	3126.5473	3136.9112	3163.4629	3218.4966
CC1=CC2(C)CC2OC1	CC1=C[C@@]2(C)C[C@H]2OC1	
InChI=1S/C8H12O/c1-6-3-8(2)4-7(8)9-5-6/h3,7H,4-5H2,1-2H3	InChI=1S/C8H12O/c1-6-3-8(2)4-7(8)9-5-6/h3,7H,4-5H2,1-2H3/t7-,8+/m1/s1
