18
gdb 127404	2.99361	1.66761	1.10688	3.3377	79.18	-0.1842	0.042	0.2262	1078.3499	0.151412	-398.136807	-398.129129	-398.128185	-398.168835	29.41	
C	-0.132380222	 1.4921231569	-0.0189305711	-0.338938
N	 0.0796360265	 0.0582193571	 0.0404054987	-0.173333
C	 0.6838202725	-0.5656655319	-1.1702917059	-0.160932
C	 1.3534413387	-1.8960491003	-0.6944838052	-0.370639
C	 1.5611717781	-1.5976988911	 0.766641638	 0.15229
C	 0.8150815948	-0.4892804001	 1.0848728936	 0.471971
N	 0.9349662535	-0.2661903074	 2.4072337877	-0.354459
N	 1.7547372633	-1.1993876977	 2.993977778	-0.246768
C	 2.1143630862	-2.0073870727	 1.994502777	-0.152371
H	 0.8026244124	 2.0608541605	-0.1641388811	 0.110921
H	-0.8083010852	 1.7257150549	-0.8463566642	 0.131833
H	-0.6102994423	 1.8379469302	 0.9027238702	 0.123187
H	-0.0804070369	-0.7164964495	-1.9377155063	 0.110359
H	 1.451783996	 0.1096890592	-1.5807462841	 0.098168
H	 0.6779866426	-2.747273223	-0.8496924638	 0.114538
H	 2.2646168412	-2.0998235932	-1.2644204171	 0.112989
H	 0.5512838566	 0.4669109961	 2.9765040378	 0.266965
H	 2.7678309741	-2.8406089481	 2.2106314977	 0.104221
128.0515	158.8819	216.6963	231.2194	268.7673	353.5794	428.8837	482.8103	583.5249	641.5852	661.0955	712.9792	739.4309	837.9095	886.1322	939.1867	969.9005	990.736	1056.0639	1070.2159	1091.1511	1144.746	1180.1536	1203.9416	1223.3112	1233.7249	1269.0155	1297.8634	1329.0402	1373.6242	1418.8716	1451.3668	1462.0862	1488.4219	1495.3061	1500.4979	1513.9224	1592.5599	1621.3009	2954.4448	2972.6659	3017.5758	3071.2777	3074.184	3085.6129	3110.7161	3237.2301	3689.8668
CN1CCC2=C1NN=C2	CN1CCc2c1[nH]nc2	
InChI=1S/C6H9N3/c1-9-3-2-5-4-7-8-6(5)9/h4H,2-3H2,1H3,(H,7,8)	InChI=1S/C6H9N3/c1-9-3-2-5-4-7-8-6(5)9/h4H,2-3H2,1H3,(H,7,8)
