15
gdb 54020	2.21386	1.58128	0.99879	3.2008	64.68	-0.2687	-0.0434	0.2253	1145.3996	0.110807	-491.164485	-491.155359	-491.154415	-491.199108	32.344	
C	-0.3986958577	 1.417979753	-0.2140545765	-0.504216
C	 0.1022628241	-0.0108939138	-0.1157369708	 0.420218
O	 0.6005269493	-0.4521907536	 0.8805212882	-0.271924
N	-0.0403201407	-0.8427107339	-1.2861386521	-0.227217
C	-0.0453675469	-0.2807966565	-2.5514287411	 0.183356
O	-0.004661774	-0.8868337839	-3.6011299664	-0.331079
C	-0.1623395838	-2.2930616326	-1.0547120355	 0.459977
N	 0.4014477657	-3.0478734606	-2.0278702978	-0.543606
O	-0.7122564539	-2.7000771117	-0.0668168201	-0.337136
H	 0.3019426728	 2.0483132074	-0.7715239271	 0.159065
H	-1.3770460721	 1.4831508493	-0.696394801	 0.151991
H	-0.458264067	 1.802039892	 0.8041814163	 0.165907
H	-0.0804492373	 0.8171353252	-2.5278047349	 0.115772
H	 0.5343556886	-2.6287099424	-2.9397419836	 0.28862
H	 0.182564713	-4.0304800577	-1.9739062774	 0.270271
39.6003	89.2517	155.4341	185.3019	233.5717	266.7611	302.2246	380.9204	440.3639	497.9215	533.8183	554.3541	593.618	618.9162	658.0429	722.8109	775.106	955.4289	1028.4647	1046.5274	1056.8589	1142.9258	1230.7467	1295.0788	1326.8495	1392.7359	1456.1486	1477.5228	1488.0111	1617.5461	1773.0181	1833.8521	1883.8655	3041.288	3052.8979	3119.7622	3162.4656	3526.1769	3682.3464
CC(=O)N(C=O)C(N)=O	CC(=O)N(C=O)C(=O)N	
InChI=1S/C4H6N2O3/c1-3(8)6(2-7)4(5)9/h2H,1H3,(H2,5,9)	InChI=1S/C4H6N2O3/c1-3(8)6(2-7)4(5)9/h2H,1H3,(H2,5,9)
