16
gdb 49604	2.32751	1.85842	1.17641	2.7496	69.34	-0.2526	-0.0282	0.2244	1019.5589	0.124459	-437.893268	-437.88567	-437.884725	-437.925856	28.576	
N	 0.0991772551	 1.2853171204	-0.4070171827	-0.534192
C	 0.085434184	 0.0871168378	-0.0129157535	 0.394495
O	 1.1411417739	-0.5771014407	 0.5427213285	-0.23249
C	 0.7481756803	-1.8715936099	 0.9737539533	 0.071908
C	-0.2441447164	-1.9219929407	 2.0949870369	-0.308259
C	-0.7065002366	-2.0796245165	 0.6589262893	-0.057612
C	-1.1402576916	-0.8248681173	-0.0658908076	-0.225039
C	-2.3743166353	-0.1058532642	 0.474738233	 0.151039
O	-3.1185953213	-0.5739899145	 1.2940624689	-0.237191
H	 1.013152487	 1.7135172037	-0.2541111273	 0.230754
H	 1.5309834536	-2.6056338224	 0.8354772817	 0.116822
H	-0.2593278978	-2.8121316556	 2.7136020256	 0.128467
H	-0.4677632683	-1.000404059	 2.6210429112	 0.137466
H	-1.0867937948	-3.0375997103	 0.3306233409	 0.109831
H	-1.3522048185	-1.0311669996	-1.1243827711	 0.13579
H	-2.5252691433	 0.9014190689	 0.036817743	 0.118213
76.4871	111.9539	167.4201	240.5595	340.9864	418.4759	449.2597	579.0582	638.9853	693.9544	718.4719	760.8251	812.072	826.6903	888.9302	936.9878	965.0012	987.8849	1019.5671	1045.9175	1054.0008	1068.632	1095.4755	1114.4033	1154.7953	1202.5273	1224.2549	1267.2363	1308.4705	1362.5847	1389.2219	1410.2308	1477.8115	1766.5717	1833.8098	2939.9185	3022.6113	3140.5052	3198.2712	3205.7065	3230.9693	3483.7665
N=C1OC2CC2C1C=O	[NH][C]1O[C@H]2C[C@H]2[C@H]1C=O	
InChI=1S/C6H7NO2/c7-6-4(2-8)3-1-5(3)9-6/h2-5,7H,1H2	InChI=1S/C6H7NO2/c7-6-4(2-8)3-1-5(3)9-6/h2-5,7H,1H2/t3-,4+,5-/m0/s1
