19
gdb 90062	2.4858	1.82959	1.50889	2.6962	76.19	-0.2342	0.0627	0.2969	968.9651	0.158259	-422.899044	-422.89131	-422.890365	-422.930563	31.924	
C	-0.160180703	 1.5552590596	-0.1859981852	-0.491146
C	-0.0195219157	 0.0548257988	-0.0354616646	 0.28161
C	-1.2723220697	-0.6612511673	 0.6665745065	 0.08482
O	-1.828788649	-1.8080060853	 0.1109357002	-0.427052
C	-0.366422753	-0.8535324826	 1.981585806	-0.372386
C	 0.8185569858	-0.6600102773	 1.0430848164	 0.344693
C	 2.1527449361	-0.2102761279	 0.403668315	-0.326719
C	 1.1477429247	-0.7180809134	-0.7189676144	-0.028446
O	 0.8733222833	-1.875500067	 0.1335797461	-0.355981
H	 0.7862140661	 2.0524466271	-0.4181870056	 0.117496
H	-0.8555432522	 1.7818795415	-1.0030320922	 0.130772
H	-0.5678629966	 2.0189822409	 0.7197706294	 0.120315
H	-2.0913401034	 0.0466533802	 0.8197279485	 0.086098
H	-1.0687694576	-2.3735552583	-0.0878856912	 0.286348
H	-0.4991499726	-0.0282703184	 2.6856480343	 0.113951
H	-0.4399720958	-1.8110116758	 2.5021629073	 0.118877
H	 2.4005840736	 0.8511437897	 0.453303699	 0.108904
H	 3.0205336709	-0.8549406334	 0.5509232305	 0.116215
H	 1.378101338	-0.9119369711	-1.7715027259	 0.091631
180.0528	184.282	248.1084	276.0897	307.8568	383.0975	443.9985	478.6887	561.5582	596.4597	618.7441	668.8933	688.8428	759.0281	775.3939	822.9254	844.906	886.1662	931.4601	955.245	1012.7742	1022.148	1058.1707	1105.9165	1125.9994	1146.9328	1160.3564	1170.2366	1180.9705	1199.0524	1225.6157	1230.2345	1256.2136	1307.2996	1344.6625	1410.834	1455.1632	1468.3028	1480.1657	1492.8099	1500.9337	3023.5205	3058.7429	3065.4006	3074.105	3078.3644	3081.9873	3101.5702	3131.8742	3153.8366	3731.7781
CC12C(O)CC11CC2O1	C[C@]12[C@@H](O)C[C@@]31C[C@H]2O3	
InChI=1S/C7H10O2/c1-6-4(8)2-7(6)3-5(6)9-7/h4-5,8H,2-3H2,1H3	InChI=1S/C7H10O2/c1-6-4(8)2-7(6)3-5(6)9-7/h4-5,8H,2-3H2,1H3/t4-,5+,6+,7-/m0/s1
