15
gdb 43581	3.6486	1.24597	1.02508	2.5401	71.12	-0.2503	-0.0381	0.2122	1117.5258	0.11158	-420.595128	-420.587419	-420.586475	-420.627586	29.233	
O	 0.0561154603	-0.0238672837	-0.0088659611	-0.309419
C	-0.0007980404	 1.1766705492	-0.0573415244	 0.410323
C	-1.2687165177	 2.0335186509	-0.1612890863	-0.348401
C	-0.8235254627	 3.3228720863	-0.9113230313	-0.216641
C	-1.5665499278	 4.5238575737	-0.5573373065	 0.321476
C	-2.1764081814	 5.5157671372	-0.2611265581	-0.439875
C	 0.6773162449	 3.4164856329	-0.6041111129	 0.044754
O	 0.9765916609	 3.2456355728	 0.7698413304	-0.2369
C	 1.1756884245	 2.1193020856	-0.1113051377	-0.08784
H	-2.0641137827	 1.4889249024	-0.6704693762	 0.140091
H	-1.6135219241	 2.278960364	 0.8470213697	 0.1584
H	-0.9196818487	 3.1515105331	-1.9920351976	 0.120564
H	-2.7145501499	 6.3922782852	 0.0037012426	 0.202532
H	 1.3050192657	 4.1152614202	-1.1500007709	 0.11922
H	 2.1917980489	 1.7574866004	-0.2265551995	 0.121715
83.9734	125.6981	168.8391	271.2545	354.003	419.6363	483.037	522.5326	546.1597	629.0728	642.2265	651.1699	694.1448	817.0498	821.8414	864.461	884.1474	963.2103	1005.8258	1045.2003	1076.3881	1088.389	1156.073	1191.5517	1240.2247	1251.1932	1287.8457	1309.7982	1343.8001	1404.5534	1452.8163	1850.548	2241.6106	3019.4017	3079.127	3142.1656	3159.961	3186.2954	3502.9494
O=C1CC(C#C)C2OC12	O=C1C[C@@H](C#C)[C@H]2O[C@@H]12	
InChI=1S/C7H6O2/c1-2-4-3-5(8)7-6(4)9-7/h1,4,6-7H,3H2	InChI=1S/C7H6O2/c1-2-4-3-5(8)7-6(4)9-7/h1,4,6-7H,3H2/t4-,6-,7+/m1/s1
