19
gdb 69605	3.25612	1.22012	1.15468	1.0353	87.77	-0.2035	0.0381	0.2417	1168.0148	0.157523	-348.658283	-348.649821	-348.648876	-348.690765	33.982	
C	 0.004184921	 1.5126990483	 0.0327521358	-0.492585
C	 0.0087277886	 0.0126411156	 0.0082901915	 0.358461
C	-0.9112777327	-0.8494605266	 0.8320376732	-0.360967
C	 0.5797829802	-0.9762976325	 1.0097322881	-0.152259
C	 1.3042851889	-1.7517027181	-0.1362030878	 0.176578
C	 0.3678856607	-2.2255320354	-1.2299819683	-0.354741
C	 0.692781466	-0.7668375758	-1.1527875026	-0.162972
C	 2.6491110007	-2.1905597417	-0.0232783342	 0.200835
C	 3.7906635633	-2.5543986818	 0.1036202862	-0.419947
H	 0.9978411609	 1.9176391862	-0.192605354	 0.121602
H	-0.6957705315	 1.9224045856	-0.7063347741	 0.119972
H	-0.2942356195	 1.8881669569	 1.0166416319	 0.118634
H	-1.3971174392	-0.314704369	 1.6439403693	 0.112574
H	-1.5291662349	-1.6383376237	 0.4176405417	 0.111748
H	 1.0759108559	-0.7750992936	 1.9503985994	 0.092446
H	 0.8778834274	-2.7533943653	-2.0294483428	 0.127788
H	-0.6147824698	-2.6238906759	-1.0051742973	 0.117573
H	 1.2258594966	-0.257260476	-1.9455040607	 0.102362
H	 4.7962907175	-2.8776413172	 0.2069266748	 0.182899
103.9073	148.7458	210.5055	238.8341	293.8727	361.6397	438.8452	461.9466	484.759	510.2837	536.0133	581.3112	616.1253	646.3998	767.0351	795.5671	810.7478	862.132	907.972	944.0119	957.8635	981.5272	990.1118	1021.5707	1029.7885	1063.3352	1093.1356	1096.3158	1133.6029	1173.1045	1202.63	1245.4355	1309.2633	1341.0591	1397.8641	1421.5669	1480.614	1483.3656	1500.9967	1515.1692	2225.555	3016.9333	3072.9846	3098.2183	3121.9681	3137.907	3193.2857	3195.1147	3201.5471	3216.869	3505.1953
CC12CC1C1(CC21)C#C	C[C@]12C[C@H]1[C@]1(C[C@@H]21)C#C	
InChI=1S/C9H10/c1-3-9-5-7(9)8(2)4-6(8)9/h1,6-7H,4-5H2,2H3	InChI=1S/C9H10/c1-3-9-5-7(9)8(2)4-6(8)9/h1,6-7H,4-5H2,2H3/t6-,7+,8+,9-/m1/s1
