20
gdb 115672	2.05431	1.58742	0.94581	5.2694	77.25	-0.2412	0.0174	0.2585	1257.3039	0.170458	-440.309437	-440.299855	-440.298911	-440.344677	34.18	
C	-0.0048980227	 1.4286703039	 0.0786481593	-0.484413
C	 0.0472852127	-0.0879908841	 0.0936062401	 0.380835
O	 1.1001707527	-0.7068565544	 0.2383084523	-0.393444
N	-1.1374070598	-0.7131259927	-0.070052892	-0.072098
C	-2.5091012966	-0.2559588921	-0.305196287	-0.176775
C	-2.931392989	-1.7454535744	-0.4448857784	-0.27392
C	-1.4856870753	-2.1488409059	-0.0311774837	 0.020497
C	-0.692955233	-3.0625278834	-0.9604826088	-0.059084
O	 0.5820868682	-3.368333316	-0.46321422	-0.42924
H	 1.0079742868	 1.8120871887	 0.1953843644	 0.152894
H	-0.4261207452	 1.7975539321	-0.862396775	 0.139394
H	-0.6339504334	 1.8077195877	 0.8908643811	 0.1398
H	-2.9516987332	 0.2663412798	 0.5516168848	 0.117223
H	-2.633207344	 0.3665283484	-1.1976992305	 0.120134
H	-3.7267484887	-2.0795443341	 0.2205443755	 0.120302
H	-3.1758791455	-2.0290115466	-1.4706840122	 0.12021
H	-1.4129103778	-2.5468134058	 0.9885509035	 0.098809
H	-1.2432118296	-4.0079806186	-1.0570834757	 0.102278
H	-0.6599417512	-2.6011759945	-1.9642255209	 0.073371
H	 0.9907582845	-2.5202785882	-0.2069803369	 0.303227
60.5562	79.5548	101.7261	145.4968	180.4652	200.6799	240.8464	361.6682	398.5196	485.4567	557.664	599.2481	655.3392	675.3147	749.6796	830.2866	903.3602	937.5653	959.99	1015.828	1050.4985	1051.4371	1107.7299	1126.8308	1139.7067	1159.8065	1193.8477	1218.341	1239.728	1267.8265	1297.8669	1320.4447	1349.6983	1383.3157	1405.3901	1458.9931	1472.9313	1482.0117	1489.777	1498.1148	1499.7586	1521.2552	1724.2747	2939.594	3022.1779	3031.3076	3042.3855	3043.4218	3066.109	3085.9217	3104.241	3146.3838	3164.7993	3577.0915
CC(=O)N1CCC1CO	CC(=O)N1CC[C@H]1CO	
InChI=1S/C6H11NO2/c1-5(9)7-3-2-6(7)4-8/h6,8H,2-4H2,1H3	InChI=1S/C6H11NO2/c1-5(9)7-3-2-6(7)4-8/h6,8H,2-4H2,1H3/t6-/m0/s1
