20
gdb 56018	3.70704	0.96169	0.92822	2.1563	76.72	-0.2532	0.0337	0.2869	1379.3019	0.171316	-440.311199	-440.301978	-440.301034	-440.346739	33.066	
C	 0.478314319	 1.3108234845	-0.2454998973	-0.461064
C	 0.0170842869	-0.0868281637	 0.0818687804	 0.40191
N	-0.4726530639	-0.5210414722	 1.1675437178	-0.515413
O	 0.1857602223	-0.8855729922	-1.0018501615	-0.271309
C	-0.1048328358	-2.2895154106	-0.8572535523	 0.246144
C	-0.3573348199	-2.8447753186	-2.275279765	-0.270057
C	 0.822216551	-3.8143353952	-2.5115940924	-0.211508
C	 1.8212978429	-3.376871323	-1.4347755368	-0.085687
O	 1.0026079261	-2.9676208109	-0.3387064797	-0.241372
H	 1.5447331166	 1.3045467995	-0.4916502331	 0.145856
H	-0.0534416453	 1.687236107	-1.1246513312	 0.14327
H	 0.3094397831	 1.9870248137	 0.5941028391	 0.12479
H	-0.5386403741	 0.2270418192	 1.8532491383	 0.219262
H	-0.9221342639	-2.3956931256	-0.1459794648	 0.119551
H	-1.3261445893	-3.3442733192	-2.3357396577	 0.112971
H	-0.3594246808	-2.0181527616	-2.9884067706	 0.119612
H	 0.5139495189	-4.8489295942	-2.3360845311	 0.111108
H	 1.2317268507	-3.7502744313	-3.5223937605	 0.103914
H	 2.476712631	-4.1744496707	-1.0779768	 0.109889
H	 2.4433846944	-2.5397301749	-1.7834689116	 0.098133
45.6879	52.5266	86.5432	122.6513	203.0201	223.2362	331.9638	413.8295	516.4694	573.6121	605.186	636.8813	746.5094	818.4915	848.0454	866.7988	912.1184	926.8364	933.9958	971.8413	987.2231	1038.1539	1052.3283	1067.6286	1080.1434	1118.5281	1137.7457	1209.1876	1229.8288	1256.4065	1309.2094	1313.6915	1344.9406	1363.2088	1388.0727	1406.2359	1427.8575	1471.1235	1481.3873	1482.9267	1498.8915	1520.6908	1733.4308	3001.413	3047.3516	3060.9962	3079.5242	3102.2652	3110.1902	3111.0009	3127.858	3141.3638	3142.3726	3519.711
CC(=N)OC1CCCO1	C[C]([NH])O[C@H]1CCCO1	
InChI=1S/C6H11NO2/c1-5(7)9-6-3-2-4-8-6/h6-7H,2-4H2,1H3	InChI=1S/C6H11NO2/c1-5(7)9-6-3-2-4-8-6/h6-7H,2-4H2,1H3/t6-/m0/s1
