18
gdb 99398	5.71603	0.57768	0.55516	2.7963	70.95	-0.2557	-0.0331	0.2227	1922.2637	0.145073	-476.256666	-476.246285	-476.24534	-476.294569	34.821	
O	 0.0541589047	 0.9984344176	 0.8698139125	-0.417358
C	-0.0066816758	-0.0342439072	-0.0665016588	-0.141776
C	-1.3986341665	-0.6730431296	-0.048196796	 0.389581
O	-2.259585872	-0.2395899377	 0.7054471969	-0.393415
N	-1.6114575996	-1.7040185007	-0.9009091393	-0.311608
C	-2.8820151247	-2.4100975649	-0.951568665	-0.175202
C	-3.0264143174	-3.4694999975	 0.1604648579	-0.271089
C	-4.4066285591	-4.0868673362	 0.1600143942	 0.155706
O	-4.6349980893	-5.2580131459	 0.0012916405	-0.232049
H	-0.8362101345	 1.0271988253	 1.2597402145	 0.295861
H	 0.1993029752	 0.3355051949	-1.0842345122	 0.112621
H	 0.7452844765	-0.8107686796	 0.1493900866	 0.10923
H	-0.8374640325	-2.0595323971	-1.4388457091	 0.257077
H	-3.6765894884	-1.6648757405	-0.8542471699	 0.147572
H	-2.9733756875	-2.8757424229	-1.9368387477	 0.125589
H	-2.2818261472	-4.2631956778	 0.0558109756	 0.118825
H	-2.8805067166	-2.9610895591	 1.1219247319	 0.147753
H	-5.2353638853	-3.3574687309	 0.3161958373	 0.082683
32.4764	54.1189	66.1623	67.7039	86.1706	220.4942	271.3388	303.1017	369.1742	411.1435	446.7767	505.4069	526.7181	612.4203	692.0121	774.6944	844.6388	927.3398	982.1872	1037.0947	1060.8714	1089.3154	1136.7163	1143.7859	1221.1634	1247.1508	1262.0898	1282.9062	1318.6506	1340.8837	1406.7316	1431.2999	1460.92	1463.0496	1480.5045	1508.0243	1554.9202	1762.8517	1836.4279	2863.8828	2971.0963	2989.2827	3037.8559	3061.6837	3101.223	3120.7046	3637.6862	3656.8608
OCC(=O)NCCC=O	OCC(=O)NCCC=O	
InChI=1S/C5H9NO3/c7-3-1-2-6-5(9)4-8/h3,8H,1-2,4H2,(H,6,9)	InChI=1S/C5H9NO3/c7-3-1-2-6-5(9)4-8/h3,8H,1-2,4H2,(H,6,9)
