19
gdb 38192	3.22938	1.84301	1.84147	1.4332	78.74	-0.2442	0.0877	0.332	867.0798	0.16254	-385.779898	-385.773938	-385.772993	-385.809649	27.11	
C	-0.0514205395	 1.5318455648	 0.0002634309	 0.098152
O	-0.4679248955	 1.8328377674	 1.3743653095	-0.334075
C	 0.3660378405	 0.917099507	 2.0453072218	 0.405345
C	 1.68646566	 1.0397673825	 2.8674423373	-0.297082
C	 1.6449683704	-0.4136647627	 2.2700435169	-0.18626
C	 0.1426228136	-0.4672245046	 2.7295681977	-0.297081
C	 1.1397713344	 0.2263777109	 0.9310242132	 0.26017
C	-0.0235158333	-0.02813551	-0.077143091	-0.311523
C	 1.5082554589	 1.4670673757	 0.0596304658	-0.311524
H	-0.6031125459	 2.1607800877	-0.6966433892	 0.08484
H	 2.461128327	 1.7067373215	 2.4909163221	 0.101413
H	 1.5947093523	 1.1053681435	 3.9540357402	 0.095242
H	 2.3903383173	-1.1915272109	 2.4259708649	 0.081992
H	-0.0198378508	-0.4706389628	 3.8098471061	 0.095241
H	-0.502627617	-1.1862732566	 2.2262345198	 0.101414
H	-0.9199814813	-0.5555245498	 0.2491426658	 0.106625
H	 0.2994171595	-0.3857909382	-1.0571851161	 0.100243
H	 1.9471546817	 1.2226094534	-0.9100567952	 0.100243
H	 2.0215532777	 2.3157868513	 0.5117943296	 0.106624
306.5417	328.9465	469.4456	485.9706	515.3575	534.5227	562.9709	587.3944	724.8576	776.6787	811.3784	843.3596	855.0483	880.6259	917.3171	928.899	938.9035	953.9121	976.8466	984.5022	1025.653	1060.6247	1075.7312	1081.6623	1100.8686	1113.3207	1128.939	1136.0106	1157.2553	1164.2209	1200.9034	1210.2345	1224.5384	1227.5296	1256.2599	1284.2943	1321.4058	1478.4001	1504.1069	1514.6613	1542.2361	3069.3934	3073.842	3075.1356	3082.9902	3130.2864	3136.2568	3141.0333	3142.2381	3150.7792	3152.5086
C12OC34CC(C3)C4(C1)C2	[C@@H]12O[C@@]34C[C@@H](C3)[C@]4(C1)C2	
InChI=1S/C8H10O/c1-5-2-8(1)7(5)3-6(4-7)9-8/h5-6H,1-4H2	InChI=1S/C8H10O/c1-5-2-8(1)7(5)3-6(4-7)9-8/h5-6H,1-4H2/t5-,6-,7+,8-
