21
gdb 42111	2.06281	1.77267	1.10063	1.0143	87.18	-0.2237	-0.0003	0.2234	1159.1323	0.184316	-387.084246	-387.075892	-387.074948	-387.11696	32.816	
C	-0.0330911277	 1.4269927675	 0.0037381134	-0.064174
C	 1.3345150356	 2.1231020982	 0.0834968138	-0.275597
C	 2.1920494736	 1.6405563583	 1.2198042322	-0.012084
C	 3.288466458	 0.8867444622	 1.092456257	-0.103359
C	 3.8216712309	 0.3799732394	-0.184577225	-0.095885
C	 3.2379171018	-0.5049888553	-1.0003703339	-0.055673
C	 1.9685208806	-1.2860156313	-0.7581321914	-0.238752
C	 0.6197968924	-0.612513608	-1.1155124155	-0.074863
O	 0.0375346268	 0.0178424484	 0.0135572809	-0.23646
H	-0.6380135384	 1.6845119844	 0.8805445318	 0.104711
H	-0.5731307895	 1.7887884036	-0.8870699383	 0.085414
H	 1.8684340752	 1.9879259706	-0.8617858297	 0.108912
H	 1.1452248887	 3.2004926991	 0.1915972558	 0.097675
H	 1.8961590084	 1.9622688679	 2.2172661463	 0.085434
H	 3.8779214696	 0.6707343356	 1.9836963163	 0.090769
H	 4.8000706314	 0.7659181405	-0.4743235805	 0.089853
H	 3.7583774141	-0.7422182711	-1.9270929037	 0.084333
H	 2.0369981342	-2.2182726603	-1.330676889	 0.094052
H	 1.8886393304	-1.5651424564	 0.2973754658	 0.124226
H	 0.7328473316	 0.0894249023	-1.9526541278	 0.092584
H	-0.0837097177	-1.3919391055	-1.4353090483	 0.098885
110.7472	138.4205	180.9055	223.0689	292.3913	343.2638	380.4342	417.1034	476.6284	496.0854	611.9373	682.0041	734.2805	789.256	799.2979	855.1764	860.6262	951.0733	977.6361	990.9686	1004.5835	1010.8084	1023.2067	1044.1016	1075.3565	1125.5367	1143.5808	1219.6683	1240.5687	1264.5501	1279.6344	1297.4249	1321.4904	1352.9171	1357.356	1391.4851	1409.688	1416.4464	1446.0913	1474.0335	1478.9398	1493.714	1505.0472	1701.3212	1711.6766	2966.1715	3002.4175	3014.9593	3031.2862	3049.776	3059.2036	3085.0595	3087.8068	3105.5467	3116.7944	3140.1627	3145.6309
C1CC=CC=CCCO1	C1CC=CC=CCCO1	
InChI=1S/C8H12O/c1-2-4-6-8-9-7-5-3-1/h1-4H,5-8H2/b3-1-,4-2-	InChI=1S/C8H12O/c1-2-4-6-8-9-7-5-3-1/h1-4H,5-8H2/b3-1-,4-2-
