16
gdb 9055	4.96922	0.89919	0.79617	2.5404	71.75	-0.2645	0.0227	0.2872	1365.7667	0.129481	-342.759447	-342.750409	-342.749465	-342.793526	32.006	
N	-0.0141266869	 1.4980803182	 0.0350995708	-0.493929
C	-0.0028745762	 0.0347492474	-0.0340591021	-0.137635
C	-1.4284369948	-0.5298578773	 0.1163433526	-0.169597
C	-2.0483263239	-0.1683821655	 1.4799604754	-0.358589
C	-3.4122996446	-0.6618812891	 1.6144398327	 0.285292
C	-4.5367698479	-1.0775932227	 1.6988047131	-0.429312
C	 0.6203924105	-0.4814142602	-1.2727857353	 0.25468
N	 1.109385893	-0.8424256046	-2.2564978842	-0.318032
H	 0.934714089	 1.8591330934	 0.0171903261	 0.247846
H	-0.4833203801	 1.8770679907	-0.7833512529	 0.244152
H	 0.6042886295	-0.3267986823	 0.8054696723	 0.133374
H	-2.0566376398	-0.1389217567	-0.6917120743	 0.125454
H	-1.3995419515	-1.6163001302	-0.0059500512	 0.13376
H	-1.4261994503	-0.5842347009	 2.2838727588	 0.129692
H	-2.023108545	 0.9189024997	 1.6067220795	 0.155633
H	-5.531187391	-1.4390991498	 1.7869668987	 0.19721
64.1118	95.9707	109.5147	193.8247	231.6449	278.8693	304.6891	346.368	415.2248	466.5806	585.1619	594.1101	619.9573	644.8889	773.4656	840.2811	921.3835	945.7991	994.4086	1015.8937	1051.0609	1137.3138	1145.562	1266.1228	1266.87	1325.9096	1336.565	1384.6592	1394.5522	1476.1295	1491.6057	1663.0486	2241.1906	2345.3007	3021.3636	3035.6715	3055.7408	3074.5452	3105.36	3493.4252	3507.2415	3574.275
NC(CCC#C)C#N	N[C@@H](CCC#C)C#N	
InChI=1S/C6H8N2/c1-2-3-4-6(8)5-7/h1,6H,3-4,8H2	InChI=1S/C6H8N2/c1-2-3-4-6(8)5-7/h1,6H,3-4,8H2/t6-/m0/s1
