20
gdb 7272	3.97115	1.12393	0.93084	1.7579	77.36	-0.2548	0.0503	0.3051	1277.7552	0.173522	-348.975792	-348.965712	-348.964767	-349.010516	36.737	
C	 0.0043117499	 1.5427679163	-0.0533137758	-0.39199
C	 0.0178820245	 0.0094852511	 0.0237403595	 0.022764
C	 0.8474780599	-0.459796398	 1.2285355444	-0.400032
C	-1.4265310745	-0.537456552	 0.0426380265	 0.144756
O	-2.1859630191	-0.0365686407	-1.0484708497	-0.421964
C	-1.484650148	-2.082707499	 0.0837980613	-0.411245
C	-2.8434803056	-2.6086564446	 0.0768733458	 0.318096
C	-3.9626135149	-3.0459452794	 0.0861042026	-0.436664
H	 1.0191773492	 1.9345540222	-0.1744667462	 0.106358
H	-0.6089088989	 1.8886805331	-0.8872554167	 0.127665
H	-0.4100983447	 1.9719337696	 0.866988237	 0.112095
H	 0.4944676717	-0.3759537093	-0.8921206956	 0.060021
H	 1.0205694441	-1.539525143	 1.2297901534	 0.116185
H	 1.8277550459	 0.0269786859	 1.2278302338	 0.115578
H	 0.3518585398	-0.1962473957	 2.1707013682	 0.117989
H	-1.9376922437	-0.1506868549	 0.9333576163	 0.09698
H	-1.8372817978	-0.4259662417	-1.858454605	 0.277421
H	-0.9277932693	-2.4794942149	-0.7786131597	 0.116706
H	-0.9618179654	-2.4477489736	 0.9743736091	 0.136315
H	-4.9533486329	-3.4272415814	 0.0890515408	 0.192967
65.3179	75.5047	126.384	202.1497	220.4974	258.8709	261.8848	334.9249	347.4896	362.6077	379.7977	423.9242	495.3619	566.4726	615.9788	635.6236	834.6386	875.9545	925.1513	934.1882	960.4824	970.8022	1038.5503	1077.6489	1133.7034	1145.263	1191.0781	1200.2613	1276.7864	1311.1185	1345.8367	1356.9831	1383.2694	1398.4803	1414.9211	1425.0561	1467.9438	1488.8267	1491.0788	1506.3879	1515.8513	2241.586	2973.5947	2998.291	3029.48	3033.0234	3041.4289	3069.7843	3092.323	3097.8774	3110.4098	3134.5108	3507.7399	3794.118
CC(C)C(O)CC#C	CC(C)[C@@H](O)CC#C	
InChI=1S/C7H12O/c1-4-5-7(8)6(2)3/h1,6-8H,5H2,2-3H3	InChI=1S/C7H12O/c1-4-5-7(8)6(2)3/h1,6-8H,5H2,2-3H3/t7-/m0/s1
