21
gdb 90785	3.86503	1.32765	1.22082	1.4904	81.93	-0.2203	0.0917	0.312	1124.2569	0.183125	-387.074549	-387.066437	-387.065493	-387.106637	32.596	
C	-0.0565587154	 1.5539796503	-0.0273539873	-0.404075
C	 0.0063325456	 0.0322153688	 0.0438609273	 0.134569
O	 0.7174166983	-0.5002510879	-1.0947021266	-0.282802
C	 2.0085434981	-0.8564442919	-0.648794385	 0.065758
C	 2.2678490251	-0.4600129096	 0.7630505098	-0.175152
C	 0.7898393326	-0.518985162	 1.2412445894	-0.066905
C	 0.8572712701	-2.0766498293	 1.1585079637	-0.292095
C	 2.1752695592	-1.9528906376	 0.388463348	 0.304807
C	 3.2468387092	-3.0012466609	 0.315005572	-0.505919
H	 0.9454635271	 1.9887956575	 0.0488182417	 0.119439
H	-0.4926252752	 1.8688627033	-0.9794563656	 0.12371
H	-0.6717372436	 1.9568353621	 0.7847188362	 0.108142
H	-1.0064525828	-0.3879785893	 0.0092686724	 0.078373
H	 2.7694273017	-0.7584894438	-1.4148761636	 0.094084
H	 3.0828360278	 0.1463406223	 1.1369054503	 0.082877
H	 0.5244311568	-0.0817679384	 2.2029086217	 0.071002
H	 1.017182891	-2.5250252354	 2.1433255216	 0.095474
H	 0.0230531949	-2.5850286589	 0.6608109442	 0.093749
H	 2.9016520537	-3.878462039	-0.245588219	 0.122921
H	 4.1440753716	-2.6214320975	-0.1856345892	 0.116454
H	 3.5433851042	-3.341212903	 1.314446448	 0.115589
127.3142	195.9559	215.4437	232.6778	276.4151	287.396	373.5205	431.8671	508.9724	598.5158	709.8479	726.6044	771.0885	803.4411	837.6522	866.7426	884.9477	910.1511	946.8602	976.3019	983.7948	1017.9766	1030.0209	1054.8789	1067.8842	1100.8179	1124.4706	1130.535	1168.1895	1202.516	1210.8985	1236.563	1274.4283	1286.2166	1301.9932	1343.3017	1376.173	1402.1926	1413.837	1432.8291	1484.509	1486.0647	1492.3405	1495.5723	1500.2771	3017.5069	3028.28	3032.7993	3033.5317	3076.5794	3088.164	3090.1218	3103.6772	3116.1959	3123.1189	3179.1932	3193.2046
CC1OC2C3C1CC23C	C[C@H]1O[C@H]2[C@H]3[C@@H]1C[C@@]23C	
InChI=1S/C8H12O/c1-4-5-3-8(2)6(5)7(8)9-4/h4-7H,3H2,1-2H3	InChI=1S/C8H12O/c1-4-5-3-8(2)6(5)7(8)9-4/h4-7H,3H2,1-2H3/t4-,5-,6-,7+,8-/m1/s1
