18
gdb 127037	3.24155	1.08685	0.82651	1.1311	75.29	-0.2222	0.0095	0.2317	1390.6321	0.147697	-435.278245	-435.268857	-435.267913	-435.313423	32.7	
C	 0.022183855	 1.4853889565	 0.0080073145	-0.392937
C	 0.0138669531	-0.0308572867	-0.016635618	-0.042174
O	 0.7023506864	-0.488764305	 1.1552234417	-0.273366
C	 0.7948883195	-1.816821403	 1.3048483466	 0.341177
N	 0.3022200743	-2.7134166246	 0.4571420291	-0.308304
N	 0.6458841467	-3.8690976437	 1.0364382594	-0.102115
N	 1.3134365455	-3.7823057593	 2.1778840182	-0.25612
C	 1.4307982105	-2.4709806107	 2.3870854895	 0.217908
C	 2.1214680482	-1.8839747502	 3.5709699232	-0.499097
H	 1.0465436063	 1.868347162	 0.0047138403	 0.129711
H	-0.4959096108	 1.8747841437	-0.8732825112	 0.121458
H	-0.4835317028	 1.862139812	 0.9014797652	 0.129708
H	-1.0068956754	-0.4318300668	-0.0142759441	 0.116694
H	 0.5173043767	-0.4256696019	-0.9073724841	 0.116707
H	 0.4077097172	-4.7547792454	 0.6249974301	 0.288043
H	 2.9619398468	-1.2501737892	 3.2681682441	 0.135536
H	 1.4420888065	-1.2566033207	 4.1580338829	 0.13553
H	 2.5011369662	-2.680622607	 4.2137015625	 0.141642
58.7876	74.9498	92.753	132.6515	244.2653	258.3267	268.0852	334.9334	352.1873	393.2734	515.7512	657.0481	700.2402	750.7762	803.3258	815.0353	924.4362	970.5563	1017.1686	1068.3299	1069.2261	1130.9781	1183.953	1188.8116	1209.2968	1274.642	1293.0891	1381.5558	1395.8932	1414.008	1420.8891	1465.8699	1479.0864	1484.1978	1490.021	1498.2705	1520.0757	1573.9404	1589.8279	3027.2886	3037.6861	3046.6869	3063.7896	3088.0712	3121.77	3124.6139	3135.3254	3689.761
CCOC1=NNN=C1C	CCOc1n[nH]nc1C	
InChI=1S/C5H9N3O/c1-3-9-5-4(2)6-8-7-5/h3H2,1-2H3,(H,6,7,8)	InChI=1S/C5H9N3O/c1-3-9-5-4(2)6-8-7-5/h3H2,1-2H3,(H,6,7,8)
