21
gdb 94575	3.12284	1.13565	0.90798	2.3258	79.09	-0.2415	0.0586	0.3001	1329.8412	0.182489	-424.188456	-424.179355	-424.17841	-424.223319	33.45	
O	 0.1087783739	 1.2843415664	-0.3932659401	-0.422413
C	 0.088172002	-0.0560685744	 0.0389504068	 0.045886
C	-0.0222191673	-0.3159425436	 1.5583998945	-0.098595
O	-1.2975602486	-0.9656416344	 1.3976924149	-0.294962
C	-1.3200129858	-0.6977425699	-0.0304616981	 0.086549
C	-2.4726774151	 0.1852210304	-0.444856774	 0.071436
C	-2.6995760336	 0.437273206	-1.9623230621	-0.232257
C	-4.2268345109	 0.2986102106	-1.7177880985	-0.211431
C	-3.908781853	-0.4086409631	-0.3717103189	-0.237038
H	 1.0110857024	 1.6119815157	-0.3313889392	 0.288926
H	 0.8670878876	-0.6468274281	-0.4582959246	 0.075765
H	 0.7285862677	-0.9832569512	 1.9999290691	 0.095387
H	-0.0922412611	 0.6033154031	 2.154694198	 0.09972
H	-1.3508202531	-1.641965225	-0.5931812147	 0.065941
H	-2.4175056412	 1.1338488695	 0.0948955238	 0.078926
H	-2.3205536812	 1.3739631018	-2.3747883108	 0.103756
H	-2.3126687751	-0.3900612702	-2.5677616743	 0.092279
H	-4.7013034249	 1.271859789	-1.5620390171	 0.101294
H	-4.8116369788	-0.2550512412	-2.4563089429	 0.092979
H	-3.8953742636	-1.4984024374	-0.479840058	 0.097516
H	-4.51578886	-0.156258184	 0.5000451164	 0.100336
53.7256	65.5047	117.1266	143.2183	217.2831	243.6046	341.5676	389.0435	420.5688	531.0235	653.2375	760.6422	780.8526	787.1176	888.1719	892.0662	919.9118	933.1018	958.5316	971.8581	1006.8845	1026.9129	1041.8466	1070.8187	1095.1385	1149.0684	1159.3965	1183.12	1201.677	1214.8005	1244.1674	1254.0214	1258.0044	1272.5437	1281.4058	1286.8224	1310.5296	1325.8068	1343.7772	1414.7147	1437.6356	1477.4791	1486.59	1509.5008	1513.9463	2993.0139	3006.1833	3025.1262	3043.6798	3049.7817	3056.5242	3057.0581	3079.4671	3100.4134	3110.9096	3121.2344	3825.2891
OC1COC1C1CCC1	O[C@H]1CO[C@H]1C1CCC1	
InChI=1S/C7H12O2/c8-6-4-9-7(6)5-2-1-3-5/h5-8H,1-4H2	InChI=1S/C7H12O2/c8-6-4-9-7(6)5-2-1-3-5/h5-8H,1-4H2/t6-,7-/m0/s1
