23
gdb 109734	2.46612	1.06584	0.96889	2.4353	87.89	-0.2366	-0.0092	0.2274	1417.6257	0.203449	-388.312986	-388.302253	-388.301309	-388.349007	38.953	
C	-0.0770102463	 1.5599283224	-0.2129462897	-0.378406
C	-0.0159562312	 0.1029270248	 0.263426475	-0.204311
C	-1.3482540986	-0.6007847746	 0.095072657	-0.013754
C	-1.7906893847	-1.2712575652	-1.1670193022	-0.019286
C	-0.9517542476	-1.347441191	-2.424230251	-0.41972
C	-1.4940082144	-2.1302870983	 0.0753731399	-0.174143
C	-0.3204589759	-3.0445475003	 0.1441027922	 0.398751
C	-0.5605470538	-4.3470006498	 0.8923875232	-0.480032
O	 0.7641580946	-2.8025262967	-0.3516473656	-0.333829
H	 0.8801368984	 2.0652607851	-0.0511071564	 0.112446
H	-0.3107010682	 1.6186291823	-1.2809542155	 0.119054
H	-0.8468751725	 2.1251201657	 0.324841579	 0.108851
H	 0.770516162	-0.4394239152	-0.2633148303	 0.136579
H	 0.260515638	 0.0794439166	 1.3255204032	 0.093431
H	-2.1495231203	-0.1217844427	 0.6556529905	 0.08559
H	-2.8572690871	-1.2002339171	-1.368251488	 0.08883
H	 0.1016268988	-1.5194228912	-2.2053091127	 0.159147
H	-1.2957110987	-2.1679194839	-3.0633347631	 0.11357
H	-1.0475530072	-0.4199661748	-2.999622666	 0.114229
H	-2.3704736458	-2.5150097243	 0.5874228358	 0.080555
H	-1.3799908843	-4.9075705346	 0.4278365911	 0.137403
H	 0.3482261927	-4.9496098078	 0.8867903454	 0.137595
H	-0.8628222081	-4.1422905992	 1.9259607484	 0.137451
57.5242	75.6163	130.4012	142.515	165.9907	208.5765	216.7946	258.8694	273.3542	321.2006	383.052	442.196	520.9911	626.9359	640.1655	740.8312	760.1176	789.2633	821.1993	913.2457	960.1919	963.7912	999.7397	1009.7506	1044.0619	1054.1268	1093.8399	1109.3011	1133.4667	1157.1877	1182.9256	1198.4368	1271.6594	1285.3136	1340.2721	1375.2122	1393.7796	1407.0542	1413.3668	1420.3465	1445.9319	1464.4723	1476.0553	1490.1705	1497.2247	1500.2216	1505.9428	1516.1114	1775.5046	3026.4994	3029.9818	3032.8025	3036.3613	3088.2512	3090.1154	3092.8383	3106.0676	3107.9155	3124.9239	3130.1361	3150.655	3153.896	3158.9106
CCC1C(C)C1C(C)=O	CC[C@H]1[C@@H](C)[C@H]1C(=O)C	
InChI=1S/C8H14O/c1-4-7-5(2)8(7)6(3)9/h5,7-8H,4H2,1-3H3	InChI=1S/C8H14O/c1-4-7-5(2)8(7)6(3)9/h5,7-8H,4H2,1-3H3/t5-,7+,8+/m1/s1
