19
gdb 39555	3.80216	1.63005	1.47127	0.3684	84.33	-0.2195	0.0019	0.2214	946.9153	0.162955	-348.735808	-348.729523	-348.728579	-348.765916	27.655	
C	-0.0309410617	 1.4882802743	-0.0255164865	-0.299965
C	 1.3542323037	 2.0717810785	 0.0278262855	-0.05672
C	 2.3900669414	 1.2375974822	 0.1073380018	-0.091081
C	 2.132452562	-0.2425475529	 0.140181076	-0.018824
C	 1.0649408908	-0.7254021327	-0.9235424903	-0.0758
C	 0.9004805413	-2.1904937701	-0.5329325958	-0.104459
C	 0.8319095883	-2.1488771647	 0.802731134	-0.10446
C	 0.9596558891	-0.661788172	 1.1163598563	-0.075797
C	 0.0045111516	-0.0404062106	 0.024000818	 0.015551
H	-0.6400813031	 1.8717235295	 0.8064828112	 0.108283
H	-0.5499992958	 1.8173271844	-0.9379916175	 0.108285
H	 1.4751777191	 3.1506595518	 0.0004176236	 0.086788
H	 3.4144925616	 1.595770239	 0.1490620216	 0.084473
H	 3.0423152603	-0.8424391923	 0.2058665819	 0.058695
H	 1.1577196677	-0.4548560728	-1.97597604	 0.055479
H	 0.8614783366	-3.0340582979	-1.2075132463	 0.096612
H	 0.7213450289	-2.9490428954	 1.5208479626	 0.096612
H	 0.9445377165	-0.3260594655	 2.1538941733	 0.055479
H	-1.001170378	-0.4684650428	-0.0145737893	 0.060848
239.3226	272.5941	339.6144	450.8304	496.0866	537.471	548.6837	675.6651	693.25	735.6962	754.9573	832.2963	871.4754	903.3728	906.1053	924.303	933.4773	938.0565	961.4905	982.8399	998.7321	1004.3518	1020.2273	1084.4094	1085.4753	1139.4624	1166.1205	1166.1271	1199.9631	1221.41	1227.6791	1234.7442	1255.16	1302.1506	1321.1221	1344.977	1371.4692	1407.9875	1463.4908	1619.5124	1705.9118	2996.2394	3017.2329	3067.7604	3088.3966	3107.458	3110.7995	3158.926	3182.9145	3217.179	3244.1577
C1C=CC2C3C=CC2C13	C1C=C[C@@H]2[C@H]3C=C[C@@H]2[C@@H]13	
InChI=1S/C9H10/c1-2-6-8-4-5-9(6)7(8)3-1/h1-2,4-9H,3H2	InChI=1S/C9H10/c1-2-6-8-4-5-9(6)7(8)3-1/h1-2,4-9H,3H2/t6-,7+,8-,9+
