18
gdb 96540	2.2884	1.61115	1.23857	2.0478	68.59	-0.2394	0.0133	0.2526	1060.0825	0.149248	-476.242985	-476.234561	-476.233617	-476.276147	31.753	
O	 0.0854243622	 1.3550121714	 0.2536973161	-0.419408
C	-0.0038638541	-0.0439699801	 0.0129969784	-0.004061
C	-1.489597149	-0.4246368113	-0.0075419158	-0.098099
O	-2.3140293913	 0.3836014738	-0.8162382682	-0.228705
C	-2.1097971747	 0.2758309342	-2.2082114494	-0.065271
C	-0.7932265152	 0.895623843	-2.6843293615	-0.17045
N	 0.3742408109	 0.0595518175	-2.4363992818	-0.298948
C	 0.794389462	-0.4456761269	-1.2431323885	 0.341187
O	 1.7777449404	-1.1615131097	-1.1531354416	-0.372421
H	 1.0133016685	 1.5662209466	 0.4021387224	 0.295963
H	 0.463567314	-0.6219269973	 0.8215385575	 0.09771
H	-1.5724895651	-1.4884987701	-0.2864345572	 0.099102
H	-1.8807659719	-0.3040205223	 1.0067193771	 0.121309
H	-2.1601030379	-0.77629757	-2.5349523171	 0.091669
H	-2.9429650118	 0.8190499563	-2.6660648921	 0.11227
H	-0.8509080293	 1.0476281803	-3.7658520479	 0.110546
H	-0.67963487	 1.8752123376	-2.2069313429	 0.139838
H	 0.9594357425	-0.1989970029	-3.2165365575	 0.247769
62.225	134.8139	205.3985	228.4885	314.1995	356.596	371.8793	385.2856	403.0416	487.4828	534.7747	593.9876	699.5849	766.2394	777.9248	860.8856	898.5357	964.6593	1000.038	1050.3185	1088.9656	1117.2531	1131.9286	1161.2527	1232.8236	1271.2832	1310.2004	1321.0462	1351.3089	1370.0955	1400.8693	1410.0588	1415.9623	1423.9617	1460.1128	1474.2261	1485.125	1493.4977	1778.9496	2971.0405	2975.5072	3022.9654	3045.8524	3078.1419	3089.6206	3100.719	3618.7165	3814.5149
OC1COCCNC1=O	O[C@H]1COCCNC1=O	
InChI=1S/C5H9NO3/c7-4-3-9-2-1-6-5(4)8/h4,7H,1-3H2,(H,6,8)	InChI=1S/C5H9NO3/c7-4-3-9-2-1-6-5(4)8/h4,7H,1-3H2,(H,6,8)/t4-/m0/s1
