16
gdb 79685	2.71605	1.5697	1.22765	3.7131	70.82	-0.2359	-0.0371	0.1988	1020.7727	0.122838	-437.792778	-437.78484	-437.783896	-437.825091	30.112	
O	-0.2616194303	 1.5299906395	-0.3471923302	-0.414305
C	-0.3063221878	 0.1423344538	-0.1927173992	 0.041277
C	-0.400248908	-0.6283818583	 1.0781879759	-0.17593
C	-1.4436226728	-0.1362787068	 2.0868927759	-0.048004
C	-2.2003411471	 1.0832509684	 1.7138175742	-0.258823
N	-2.568403133	-0.2125986098	 1.0984389779	-0.185018
C	-1.5791748984	-0.6237251961	 0.0359462957	 0.192584
C	-1.9921202654	-1.7048728889	-0.8776063592	 0.089365
O	-1.2548976888	-2.248245291	-1.6687295182	-0.277149
H	 0.6194345762	 1.8238392559	-0.0889014192	 0.294549
H	 0.2787188779	-0.4056464395	-0.9343721924	 0.134782
H	 0.2498125594	-1.4703262798	 1.2827756863	 0.118122
H	-1.5435995523	-0.6112143698	 3.0570654218	 0.109789
H	-2.9561525278	 1.399082884	 2.4281904349	 0.125305
H	-1.7581741254	 1.8626228859	 1.1126116772	 0.162751
H	-3.0577264263	-1.9956829874	-0.7633527213	 0.090705
117.9691	174.9151	203.8566	217.5907	253.9299	283.3532	421.1496	436.865	549.0148	610.4841	681.4869	713.1701	770.466	779.1829	859.0639	914.4024	937.5879	981.3739	1002.0546	1043.5251	1066.855	1071.4786	1116.6416	1128.6206	1165.1246	1188.7361	1239.6699	1268.5639	1289.8986	1343.3506	1356.7202	1407.739	1464.8008	1495.864	1792.8332	2915.6414	3097.366	3132.257	3166.0083	3194.2824	3267.3577	3798.2255
OC1C2C3CN3C12C=O	O[C@H]1[C@H]2[C@H]3CN3[C@@]12C=O	
InChI=1S/C6H7NO2/c8-2-6-4(5(6)9)3-1-7(3)6/h2-5,9H,1H2	InChI=1S/C6H7NO2/c8-2-6-4(5(6)9)3-1-7(3)6/h2-5,9H,1H2/t3-,4-,5+,6-,7?/m1/s1
