23
gdb 63700	2.41712	1.54253	1.18445	1.2304	85.43	-0.2464	0.0745	0.3209	1170.0703	0.204143	-388.275965	-388.266478	-388.265533	-388.309627	37.602	
C	 0.0828292451	 1.5958324264	-0.071941045	-0.458259
C	 0.0441346714	 0.0773128185	-0.0029450663	 0.416574
O	-1.3021632057	-0.3918588499	-0.096696851	-0.482501
C	 0.9780595121	-0.744045341	-0.948885561	-0.344801
C	 1.3318525238	-1.7045935062	 0.2327855563	 0.396289
C	 0.8900008516	-3.1432228677	 0.0886324404	-0.497274
C	 2.7067240894	-1.3915382928	 0.8757264239	-0.281587
C	 2.0555171011	-0.2375208889	 1.6954056455	-0.25042
C	 0.6436835943	-0.6731210411	 1.2081358819	-0.076461
H	 1.0986663027	 1.9872736645	 0.0332057027	 0.115066
H	-0.3007970708	 1.9436278387	-1.0398181045	 0.102852
H	-0.5427421101	 2.0291724949	 0.7148257175	 0.122987
H	-1.6405132863	-0.1341441146	-0.9618172459	 0.27069
H	 0.453193529	-1.207798139	-1.7891281339	 0.089142
H	 1.835885858	-0.1858138857	-1.3365416195	 0.0885
H	 1.4724115745	-3.661548393	-0.6840454168	 0.108499
H	 1.0179132095	-3.6953662274	 1.026756002	 0.107914
H	-0.1667953099	-3.1961905834	-0.193053045	 0.124566
H	 3.0547414683	-2.2066231716	 1.5177414075	 0.094896
H	 3.5197376779	-1.1254716399	 0.1926060413	 0.088542
H	 2.1957731629	-0.3143620159	 2.7755883912	 0.102292
H	 2.3568556187	 0.7693249201	 1.3948663676	 0.096546
H	-0.0778613874	-0.9588857348	 1.9749644309	 0.065947
54.3522	200.335	206.9169	230.6655	238.2513	294.1657	301.5425	341.8326	365.9486	378.4891	418.7795	474.0934	583.3038	630.9186	735.596	746.4057	834.6452	842.4398	886.1193	900.5335	933.4498	946.207	954.542	978.4278	1004.0144	1030.8942	1079.0048	1110.2062	1129.5913	1157.7193	1188.6873	1206.5529	1232.589	1243.0735	1248.5772	1265.991	1276.066	1298.3371	1335.3899	1372.878	1403.4553	1405.4528	1461.0212	1474.99	1487.2886	1490.1382	1490.5408	1496.3343	1500.5457	3014.5218	3021.6112	3039.3237	3042.4766	3063.5105	3076.1982	3084.4834	3087.1595	3095.2245	3097.6721	3099.0264	3112.3347	3117.7839	3789.9356
CC1(O)CC2(C)CCC12	C[C@@]1(O)C[C@@]2(C)CC[C@@H]12	
InChI=1S/C8H14O/c1-7-4-3-6(7)8(2,9)5-7/h6,9H,3-5H2,1-2H3	InChI=1S/C8H14O/c1-7-4-3-6(7)8(2,9)5-7/h6,9H,3-5H2,1-2H3/t6-,7-,8-/m1/s1
