14
gdb 129245	3.07505	1.28777	1.04228	1.4996	69.65	-0.2201	-0.0018	0.2183	1121.794	0.100533	-432.829293	-432.82121	-432.820266	-432.863203	29.12	
N	 0.0126653591	 1.3147203423	 0.2754017132	-0.606491
C	 0.027161729	 0.0622526161	 0.1125026559	 0.475866
O	 1.129168349	-0.7850310634	 0.0090154261	-0.204254
C	 0.6157423938	-2.0330506894	-0.1784894524	 0.085027
N	-0.6613131777	-2.0921278995	-0.1959096681	-0.211473
N	-1.0528093645	-0.7852880769	 0.0125534627	-0.056586
C	-2.4395793379	-0.3773315279	-0.0797008186	-0.304476
C	-2.9629562211	-0.3730362918	-1.445307247	 0.320532
C	-3.4027322463	-0.3739011445	-2.5623822394	-0.448935
H	 0.9499037964	 1.6999462726	 0.3345186156	 0.235121
H	 1.303649027	-2.8544974878	-0.2898927589	 0.170213
H	-3.0378560541	-1.0417560918	 0.5527076195	 0.155536
H	-2.4813440106	 0.6290150134	 0.3486243296	 0.183625
H	-3.788266852	-0.3714107214	-3.5519943481	 0.206295
35.8268	62.2217	206.0618	236.1437	267.4393	319.4801	435.9591	524.6178	621.881	627.2483	672.2353	694.31	716.7859	729.2835	797.6856	820.9528	933.5442	940.6434	957.7612	985.452	1088.0098	1139.2868	1225.1361	1296.1183	1339.1778	1388.7941	1410.0605	1455.0487	1649.1316	1795.5433	2245.7436	3050.551	3100.4437	3294.7721	3504.9815	3560.6072
N=C1OC=NN1CC#C	[NH][C@H]1OC=NN1CC#C	
InChI=1S/C5H5N3O/c1-2-3-8-5(6)9-4-7-8/h1,4,6H,3H2	InChI=1S/C5H6N3O/c1-2-3-8-5(6)9-4-7-8/h1,4-6H,3H2/t5-/m1/s1
