18
gdb 14739	5.28861	0.7096	0.64831	2.3019	74.52	-0.2498	0.0336	0.2834	1730.8165	0.151007	-384.897967	-384.887908	-384.886964	-384.9353	33.302	
C	-0.0809584264	 1.430809275	-0.0165607861	-0.49878
C	-0.0720926239	-0.0235994712	-0.0624782171	 0.136829
C	-0.0712780282	-1.2262258568	-0.0984085161	-0.001206
C	-0.0443850215	-2.6806754382	-0.1487852712	-0.202856
O	-1.3462457031	-3.2015588469	 0.0642970754	-0.258095
C	-1.3989757651	-4.6160071399	-0.0035624244	-0.059852
C	-2.8698915891	-4.9947471816	 0.0712808386	-0.059546
O	-3.6028985423	-4.4162996826	-0.9890052856	-0.421395
H	 0.6058050145	 1.8102338215	 0.7478753539	 0.15018
H	 0.2163114358	 1.863308019	-0.9780814151	 0.150106
H	-1.0817450485	 1.8075364722	 0.2212213017	 0.15447
H	 0.3424784778	-3.0188193555	-1.1253367691	 0.117339
H	 0.6476566431	-3.0727333995	 0.615887845	 0.116082
H	-0.967881093	-4.9689006151	-0.9544820767	 0.095468
H	-0.830703772	-5.073254506	 0.8234219364	 0.087943
H	-2.9766751849	-6.0813619988	-0.0118064538	 0.107414
H	-3.2678519228	-4.689363244	 1.0522199407	 0.094795
H	-3.3578648003	-3.4830972117	-0.9943971867	 0.291105
20.4855	47.2109	74.5746	93.7259	165.8128	209.4577	233.6187	334.334	339.4005	376.5427	441.1648	480.2016	562.9609	786.2697	876.1776	912.5711	1024.4197	1043.6954	1052.3089	1058.1027	1083.9859	1134.2335	1139.4677	1179.7232	1238.787	1250.6857	1266.3184	1375.8044	1387.0624	1414.0196	1434.144	1445.4542	1475.981	1478.7389	1495.1939	1499.9279	1516.8183	2380.58	2951.9363	2965.4978	2971.5508	2978.2713	3006.1656	3029.1925	3078.6212	3090.66	3092.07	3790.5704
CC#CCOCCO	CC#CCOCCO	
InChI=1S/C6H10O2/c1-2-3-5-8-6-4-7/h7H,4-6H2,1H3	InChI=1S/C6H10O2/c1-2-3-5-8-6-4-7/h7H,4-6H2,1H3
