18
gdb 57220	2.7262	1.293	1.09356	1.9914	67.94	-0.2442	0.0139	0.258	1158.0945	0.146485	-476.238763	-476.229448	-476.228504	-476.273015	35.331	
N	 0.4698881213	 0.7545467055	-0.886991328	-0.519255
C	-0.3519246475	 0.7212369637	 0.1902496079	 0.374562
O	-0.2109928389	 1.4238742856	 1.1790680061	-0.381517
C	-1.5142787832	-0.2905361478	 0.0486990069	-0.046492
O	-1.0785843273	-1.4541718472	-0.6507679801	-0.444771
C	-2.074885294	-0.6252295483	 1.4116917712	 0.432741
O	-1.0835318246	-1.1040601557	 2.2843019947	-0.492008
C	-3.2316770033	 0.1470023348	 1.9789499326	-0.314547
C	-3.4128072715	-1.2878092938	 1.522992095	-0.325753
H	 1.3066463687	 1.3127288712	-0.8372473215	 0.262648
H	 0.4060828209	 0.0091572432	-1.5614340682	 0.272423
H	-2.2877341282	 0.1686033341	-0.578211958	 0.111333
H	-0.6227101741	-1.9971642044	 0.0062500846	 0.292793
H	-0.5447389845	-0.3284441605	 2.5005686065	 0.296602
H	-3.2063698621	 0.3319023589	 3.0465586497	 0.121596
H	-3.6692536449	 0.9450681215	 1.3892379012	 0.115015
H	-3.968063518	-1.4845504055	 0.6126508801	 0.119157
H	-3.5080129889	-2.0463062054	 2.2909366392	 0.125474
55.093	76.5178	165.7743	213.0424	277.3237	314.9207	334.17	385.5997	426.2658	456.3755	485.2881	526.7324	581.5808	614.3309	627.5721	705.4797	765.191	842.59	880.8194	912.349	947.655	973.6634	992.1312	1051.49	1071.5545	1075.9512	1101.8565	1185.2522	1225.2008	1268.4514	1302.8382	1317.5805	1379.5113	1389.9681	1434.6174	1455.1561	1503.4197	1600.8577	1780.0721	3050.166	3137.7426	3141.7447	3222.379	3236.1136	3588.7157	3724.5154	3727.1684	3766.8672
NC(=O)C(O)C1(O)CC1	NC(=O)[C@@H](O)C1(O)CC1	
InChI=1S/C5H9NO3/c6-4(8)3(7)5(9)1-2-5/h3,7,9H,1-2H2,(H2,6,8)	InChI=1S/C5H9NO3/c6-4(8)3(7)5(9)1-2-5/h3,7,9H,1-2H2,(H2,6,8)/t3-/m1/s1
