18
gdb 47450	3.08235	1.38222	1.01814	4.6197	72.18	-0.2461	0.051	0.2972	1163.2778	0.149356	-439.118302	-439.110229	-439.109284	-439.151634	29.71	
O	-0.1674604088	 0.1522963065	 1.1267704765	-0.396423
C	-0.0890100592	 1.2305501586	 0.6077960726	 0.486363
O	-1.1317806598	 2.1166280646	 0.5576688226	-0.244311
C	-0.7555850568	 3.2607976592	-0.2173425231	-0.091595
C	 0.7786594504	 3.2097543858	-0.2679274093	-0.186735
N	 1.0006383893	 1.793898757	-0.0345288135	-0.146019
C	 2.3165529255	 1.257310605	 0.1065004884	 0.043342
C	 2.5858702322	-0.1278844365	-0.4033810818	-0.25353
C	 3.1465001731	 1.0600916259	-1.1406876356	-0.282919
H	-1.1954167654	 3.1718046146	-1.2172314015	 0.12116
H	-1.1475150567	 4.1565766466	 0.2675394819	 0.127976
H	 1.1793899881	 3.5318458016	-1.2332005833	 0.121156
H	 1.2398812048	 3.827193476	 0.5179074528	 0.109925
H	 2.8453240961	 1.5677812143	 1.0076742437	 0.0953
H	 3.2574882104	-0.7488058235	 0.1772212255	 0.123195
H	 1.7524016291	-0.6572722815	-0.846005712	 0.138574
H	 2.6877353002	 1.3235605435	-2.0870967413	 0.117284
H	 4.2091837274	 1.2646165921	-1.0783640127	 0.117256
67.4422	104.8791	170.7856	186.0697	195.0035	347.4659	407.1076	532.1993	624.8214	697.6262	757.121	771.4055	790.0093	835.8884	893.1463	901.6776	950.9763	984.6622	1045.141	1063.8625	1075.2065	1080.8581	1126.2789	1130.3198	1148.4183	1192.8406	1216.7932	1221.2194	1235.3535	1267.1736	1309.9958	1394.8595	1407.2937	1435.2015	1463.772	1501.933	1520.8251	1533.2748	1877.845	2987.2578	3041.0955	3079.485	3097.4059	3116.4006	3139.6808	3157.7583	3224.9809	3248.9365
O=C1OCCN1C1CC1	O=C1OCCN1C1CC1	
InChI=1S/C6H9NO2/c8-6-7(3-4-9-6)5-1-2-5/h5H,1-4H2	InChI=1S/C6H9NO2/c8-6-7(3-4-9-6)5-1-2-5/h5H,1-4H2
