16
gdb 13654	5.41077	0.87817	0.80507	4.6247	80.24	-0.2582	-0.0545	0.2037	1393.094	0.128625	-346.576163	-346.567482	-346.566538	-346.610358	29.973	
C	-0.0564636255	 1.5267113465	-0.1401263105	-0.40905
C	 0.0242335976	 0.0239618023	-0.0174066157	 0.016329
C	 1.3185348291	-0.7012085542	-0.1870959353	-0.282875
C	 0.6777070475	-0.6412005111	 1.201930089	-0.198381
C	 1.2799964796	 0.1434998116	 2.2262556165	 0.141777
C	 1.7804184538	 0.7956304854	 3.1159573225	-0.003345
C	 2.3897859056	 1.5958722965	 4.138773228	 0.015932
O	 2.4301629134	 1.3063110959	 5.3146217141	-0.238043
H	 0.8430409565	 2.0060211894	 0.2553729179	 0.129259
H	-0.1633584924	 1.8197507245	-1.1898203739	 0.124134
H	-0.9154063616	 1.9234652142	 0.4105648784	 0.128807
H	-0.8594498953	-0.5071807385	-0.360526785	 0.101746
H	 1.330433553	-1.6690801334	-0.6750990263	 0.127299
H	 2.2156772897	-0.1091394494	-0.3288313387	 0.131949
H	 0.2082212853	-1.5575859673	 1.5462827644	 0.123409
H	 2.8412546937	 2.5379061676	 3.7631354048	 0.091054
53.1625	83.935	114.5059	177.4123	193.788	250.8169	331.9854	382.0534	485.4357	569.4099	618.6873	752.7108	771.6592	855.1794	877.7988	931.9885	975.3818	1019.4219	1063.5619	1070.7765	1098.5501	1141.1054	1187.0851	1199.3952	1246.218	1380.3568	1402.8486	1423.3248	1424.8061	1482.1416	1493.1152	1500.476	1758.8888	2308.583	2904.8165	3037.9862	3100.9862	3115.5897	3140.3973	3146.2315	3156.1034	3231.1998
CC1CC1C#CC=O	C[C@H]1C[C@H]1C#CC=O	
InChI=1S/C7H8O/c1-6-5-7(6)3-2-4-8/h4,6-7H,5H2,1H3	InChI=1S/C7H8O/c1-6-5-7(6)3-2-4-8/h4,6-7H,5H2,1H3/t6-,7+/m0/s1
