18
gdb 78438	3.08221	1.4682	1.25544	3.6947	75.16	-0.2407	-0.0089	0.2318	1054.5712	0.148886	-401.906873	-401.899492	-401.898548	-401.938442	29.608	
C	-0.0658604512	 1.4754317433	-0.0047651053	-0.43688
C	-0.0123434776	-0.037231352	 0.0047906886	-0.024857
C	 1.3122371661	-0.7207964089	-0.2628793335	-0.067312
C	 0.7105370492	-0.7332315621	 1.1390090354	-0.067314
C	 0.5222005177	-2.2574954227	 1.3282796278	-0.147076
N	 1.7720450935	-2.8774676984	 0.7454684908	-0.319666
C	 1.3294805336	-2.2408115794	-0.5525882348	-0.147076
C	-0.064084715	-2.6755715058	-0.0408188955	 0.468508
O	-1.0472084446	-3.190947866	-0.4673532809	-0.324741
H	 0.8574031439	 1.9077024324	 0.3953814794	 0.115935
H	-0.199749106	 1.8571190104	-1.0223103603	 0.125922
H	-0.8981428806	 1.8426885094	 0.6046917217	 0.125922
H	-0.9093412873	-0.5123285206	-0.3844204512	 0.112945
H	 2.1776825998	-0.1233115353	-0.5293693031	 0.093407
H	 1.1097385117	-0.1453817935	 1.95880876	 0.093407
H	 0.163176526	-2.6349029605	 2.2837822992	 0.090434
H	 2.6148407349	-2.4308418024	 1.111163179	 0.218007
H	 1.7771516059	-2.6015471981	-1.4765906274	 0.090434
143.9102	194.3964	231.6035	249.9055	310.9013	425.3443	463.3214	499.4302	620.8202	685.0715	785.9843	812.3663	815.0434	831.9513	854.4208	870.3062	952.0142	952.9719	998.288	1000.1354	1036.1779	1062.3644	1070.7395	1082.5345	1118.6829	1130.0509	1140.4761	1200.6715	1211.2	1245.41	1257.4359	1262.154	1318.4383	1322.396	1415.4288	1429.1598	1492.5397	1500.1394	1932.0135	3030.8809	3097.2474	3099.4672	3139.344	3143.6329	3145.9159	3160.8112	3169.9111	3439.8392
CC1C2C1C1NC2C1=O	C[C@H]1[C@H]2[C@@H]1[C@@H]1N[C@H]2C1=O	
InChI=1S/C7H9NO/c1-2-3-4(2)6-7(9)5(3)8-6/h2-6,8H,1H3	InChI=1S/C7H9NO/c1-2-3-4(2)6-7(9)5(3)8-6/h2-6,8H,1H3/t2-,3-,4+,5+,6-
