14
gdb 15297	6.22178	0.98951	0.90555	2.0877	65.53	-0.2662	-0.0484	0.2178	1206.8357	0.1038	-382.485499	-382.477325	-382.476381	-382.518908	28.611	
O	-0.3333617091	 0.3052968616	 0.6980815187	-0.241488
C	 0.4034453487	 0.7659781391	-0.135578503	 0.139578
C	 1.1156957691	 2.0684099824	 0.0370814722	-0.058379
O	 2.2810277696	 2.2630371458	-0.7760993971	-0.230878
C	 1.1631681954	 3.0878571783	-1.0411079725	 0.078116
C	 0.4633908773	 2.9397998574	-2.384771593	-0.388455
C	 1.0754956411	 3.7795058757	-3.4083346069	 0.289523
C	 1.590137552	 4.4876823123	-4.2306705125	-0.42239
H	 0.6191216902	 0.2440577015	-1.092767821	 0.094419
H	 1.1896060075	 2.4084194365	 1.0691278234	 0.122527
H	 1.2819310607	 4.1216113818	-0.7138630202	 0.120246
H	 0.4831100316	 1.891455905	-2.6990879186	 0.144205
H	-0.5922211062	 3.215988911	-2.2620876373	 0.148506
H	 2.0439114222	 5.1043610617	-4.9666230823	 0.20447
53.3516	80.9286	132.3363	232.1482	281.1636	333.2937	382.9394	450.9895	477.237	547.929	628.748	657.1803	815.708	861.8356	925.8087	956.8765	994.4373	1045.4081	1075.7379	1125.8603	1168.7255	1241.3125	1266.0925	1321.4217	1344.6564	1408.2063	1454.5916	1466.6215	1824.6679	2244.5762	2903.3418	3028.5108	3080.2736	3109.2834	3135.1052	3505.733
O=CC1OC1CC#C	O=C[C@H]1O[C@H]1CC#C	
InChI=1S/C6H6O2/c1-2-3-5-6(4-7)8-5/h1,4-6H,3H2	InChI=1S/C6H6O2/c1-2-3-5-6(4-7)8-5/h1,4-6H,3H2/t5-,6+/m0/s1
