23
gdb 87389	2.05762	1.46432	1.0516	1.4835	85.85	-0.2415	0.0692	0.3107	1270.3416	0.204172	-388.269541	-388.259639	-388.258695	-388.304027	37.96	
C	-0.6125870173	 1.0030391991	-1.4211155335	-0.41238
C	 0.238181292	-0.1751489797	-0.9730095072	-0.022954
C	 1.7571601738	-0.1746827047	-1.3215898875	-0.250492
C	 2.0892974744	-0.6585003923	 0.1223252832	-0.043793
C	 3.2409798322	 0.0131044238	 0.8557352485	-0.407732
C	 0.6389649182	-0.3076730343	 0.5074083593	 0.316858
C	 0.1866503706	 0.5966886065	 1.6295082785	-0.36586
C	-0.212474634	-0.8488336837	 1.6158948769	 0.026742
O	-1.5666205498	-1.1093400903	 1.3623700983	-0.422877
H	-0.1657000372	 1.9534052566	-1.1094643286	 0.11186
H	-0.7119996665	 1.0210672982	-2.512245857	 0.109068
H	-1.6182357963	 0.9456883492	-0.9917033769	 0.125119
H	-0.228790461	-1.1086633339	-1.3153200294	 0.053963
H	 2.0828242929	-0.8078301686	-2.1507995013	 0.09151
H	 2.1251579549	 0.8422948012	-1.4952609051	 0.095689
H	 2.230712422	-1.7468304433	 0.1382836786	 0.064268
H	 3.1249352278	 1.10233764	 0.8582905054	 0.114903
H	 3.3063083794	-0.3191225465	 1.8983239664	 0.111282
H	 4.1979080356	-0.2210057458	 0.3761443561	 0.113211
H	 0.9145162324	 0.9215071078	 2.3660778116	 0.109149
H	-0.5963987265	 1.3164008706	 1.4148276484	 0.121213
H	 0.2531373963	-1.5115401722	 2.3478792773	 0.076253
H	-1.6172996239	-1.9012269476	 0.816019298	 0.285002
56.7887	122.926	168.2647	212.4032	221.9706	247.262	266.6052	311.9177	348.8531	388.8897	441.0741	480.9418	497.9363	592.7577	665.1017	814.5499	830.2759	876.085	882.0254	894.1184	921.9169	964.7164	991.753	1022.7237	1044.9886	1072.605	1092.7119	1128.0112	1141.9187	1168.5679	1176.3608	1187.4021	1196.2753	1260.9247	1266.6119	1287.9738	1301.9482	1332.7354	1355.0202	1383.2857	1403.9568	1408.2863	1420.6805	1479.2863	1488.4678	1493.4521	1497.3642	1497.9171	1503.1441	3001.9242	3015.6244	3023.3621	3026.2856	3044.8868	3078.4783	3087.4072	3093.0114	3095.5153	3099.9171	3103.6673	3127.3568	3215.3383	3796.7578
CC1CC(C)C11CC1O	C[C@H]1C[C@@H](C)[C@]21C[C@H]2O	
InChI=1S/C8H14O/c1-5-3-6(2)8(5)4-7(8)9/h5-7,9H,3-4H2,1-2H3	InChI=1S/C8H14O/c1-5-3-6(2)8(5)4-7(8)9/h5-7,9H,3-4H2,1-2H3/t5-,6+,7-,8+/m1/s1
