21
gdb 98685	3.31386	0.90883	0.8592	3.4343	80.79	-0.2456	-0.0247	0.2209	1495.1288	0.178373	-424.241117	-424.230546	-424.229602	-424.277041	37.924	
C	 0.0402009389	 1.6824401728	 0.3595550867	-0.37973
C	-0.1106951019	 0.1778359863	 0.5632694346	-0.288742
C	-1.2496896025	-0.4319987265	-0.2419837057	 0.36969
O	-2.0176369232	 0.2375446066	-0.8949459329	-0.310637
C	-1.3386547895	-1.9349658948	-0.1700723372	-0.102716
O	-2.5694880027	-2.553500566	-0.5326422826	-0.269847
C	-1.4503154528	-2.8017360549	-1.3816340274	 0.393389
C	-1.542155126	-2.210434453	-2.7699942916	-0.467847
C	-0.8913512183	-4.2074353277	-1.3011512574	-0.447326
H	 0.850832475	 2.0776299894	 0.9777428237	 0.110943
H	 0.2573393248	 1.9157286574	-0.6862104458	 0.129786
H	-0.8842860933	 2.2023537299	 0.6215870487	 0.137376
H	 0.8137744361	-0.3596471092	 0.3074176107	 0.121494
H	-0.2912499887	-0.0625340777	 1.6211312125	 0.128414
H	-0.8483788152	-2.3740708591	 0.7010209828	 0.0872
H	-1.9779014187	-1.2123130784	-2.7401574879	 0.166681
H	-0.5518271516	-2.1624652001	-3.2355607061	 0.115392
H	-2.1724016193	-2.8506162341	-3.3969384926	 0.124979
H	-1.5009236809	-4.8876905084	-1.9059072621	 0.131026
H	 0.1320641555	-4.2428463924	-1.6889192114	 0.123061
H	-0.8911989658	-4.5723975501	-0.2713700691	 0.127412
51.8227	75.4623	130.2918	163.009	180.3701	194.2975	228.7899	260.592	325.2812	348.3309	381.0761	423.5486	450.1194	573.0671	671.3841	708.4653	794.309	832.699	886.6193	930.3336	950.6079	992.3906	1015.9384	1027.2911	1049.0749	1095.2004	1114.7401	1134.5989	1164.7404	1263.9785	1277.4968	1337.5956	1367.8137	1407.9936	1414.0261	1416.7075	1436.2935	1451.4982	1476.0224	1484.7101	1492.0363	1497.8899	1502.4902	1509.8808	1804.6508	3010.6059	3034.9751	3036.3073	3040.5487	3052.3877	3088.5534	3095.146	3101.9614	3122.3034	3126.1236	3130.2814	3161.9046
CCC(=O)C1OC1(C)C	CCC(=O)[C@H]1OC1(C)C	
InChI=1S/C7H12O2/c1-4-5(8)6-7(2,3)9-6/h6H,4H2,1-3H3	InChI=1S/C7H12O2/c1-4-5(8)6-7(2,3)9-6/h6H,4H2,1-3H3/t6-/m1/s1
