15
gdb 31330	2.73036	1.33812	0.90319	6.0456	74.68	-0.2283	-0.0472	0.1811	1220.6453	0.112141	-457.788892	-457.780728	-457.779783	-457.822195	29.033	
C	-0.0346627233	 1.4109669133	-0.0204829813	-0.255173
O	 0.0090069762	-0.0094701321	 0.0076885833	-0.252692
C	 0.6338781335	-0.5748413124	 1.0520455925	 0.276595
C	 0.7577847988	-1.9438327116	 1.2169237378	 0.147363
O	 1.4464337118	-2.1827126345	 2.3811530859	-0.154422
C	 1.7420496167	-0.995178001	 2.9240082283	 0.024028
C	 1.2770096998	 0.0419554822	 2.1672299364	-0.328771
C	 0.3017887464	-3.0451628357	 0.4036003226	 0.06638
O	 0.4684240623	-4.2229872321	 0.6475394773	-0.300817
H	 0.9747700701	 1.8379042187	-0.0555028015	 0.13295
H	-0.5736579585	 1.6805817263	-0.9291123178	 0.148253
H	-0.5683423239	 1.8084495012	 0.8510995839	 0.132945
H	 2.28869557	-1.0231947933	 3.8534999281	 0.15254
H	 1.3829414927	 1.0919393959	 2.3826516337	 0.128382
H	-0.2384416627	-2.7027079747	-0.5044619691	 0.082437
75.7047	149.4125	150.5771	196.0421	254.6074	254.683	359.0724	390.3357	576.9171	625.3737	665.178	703.3737	773.48	798.8219	838.5942	904.1784	1022.2701	1029.5301	1095.8547	1143.4589	1178.2253	1207.6841	1224.1538	1284.6846	1329.1895	1405.1705	1460.9587	1491.9982	1498.0459	1502.9977	1531.8274	1632.3483	1772.2787	2905.1782	3016.306	3081.3762	3148.3327	3262.737	3283.3234
COC1=C(OC=C1)C=O	COc1c(occ1)C=O	
InChI=1S/C6H6O3/c1-8-5-2-3-9-6(5)4-7/h2-4H,1H3	InChI=1S/C6H6O3/c1-8-5-2-3-9-6(5)4-7/h2-4H,1H3
