19
gdb 39142	3.42853	1.33809	1.20998	2.1103	73.69	-0.2476	0.0723	0.32	1078.3361	0.160712	-422.996171	-422.988619	-422.987674	-423.028738	29.194	
C	 0.0284753957	 1.511419397	-0.0728671467	-0.128633
O	 1.4377071646	 1.5625558493	 0.2321730601	-0.272903
C	 1.4910014932	 0.1393011308	 0.4366412077	-0.121453
C	 0.0161694246	-0.0326417017	-0.0138005105	 0.28383
C	-0.9834428765	-0.7367650913	 0.9272107159	-0.309539
C	-1.105869341	-2.1914362716	 0.4106928477	-0.248781
C	-0.8022144712	-2.0682255101	-1.0699157507	 0.046234
O	-1.5029843899	-0.9896744183	-1.707472901	-0.268891
C	-0.1367182283	-0.7836151216	-1.3194843365	-0.017444
H	-0.5768059486	 2.0020763283	 0.701343349	 0.097312
H	-0.2029851734	 1.9624403899	-1.0451620891	 0.10854
H	 2.2536312268	-0.3396269424	-0.1917281817	 0.098512
H	 1.6821910891	-0.1223187435	 1.4864739926	 0.095273
H	-0.6738397644	-0.6831071863	 1.9741293244	 0.102432
H	-1.9528989895	-0.2380149149	 0.846076707	 0.122188
H	-0.357603908	-2.8478459191	 0.8717721407	 0.105875
H	-2.0901367542	-2.6263770068	 0.6082701992	 0.11299
H	-0.639689427	-2.9469807491	-1.688784728	 0.095603
H	 0.5629194379	-0.6170243885	-2.13582371	 0.098855
59.1493	111.8007	208.283	305.312	345.9336	368.8818	440.6576	513.8429	675.235	741.0957	827.7353	839.9432	853.1602	873.1758	909.5349	936.1356	964.0144	982.847	991.6306	1002.2603	1036.8395	1042.5745	1098.1313	1132.4705	1153.5959	1159.232	1163.3419	1211.2285	1223.7513	1263.1066	1277.0607	1307.5162	1318.1952	1325.5368	1367.1822	1381.926	1434.6578	1478.8608	1490.506	1511.7119	1536.2215	2993.6351	3007.7465	3036.7201	3038.7966	3054.84	3063.9045	3086.6477	3109.2101	3136.2669	3152.4733
C1OCC11CCC2OC12	C1OCC21CC[C@H]1O[C@@H]21	
InChI=1S/C7H10O2/c1-2-7(3-8-4-7)6-5(1)9-6/h5-6H,1-4H2	InChI=1S/C7H10O2/c1-2-7(3-8-4-7)6-5(1)9-6/h5-6H,1-4H2/t5-,6-/m1/s1
