17
gdb 35319	3.74022	1.16942	1.04119	1.4994	81.96	-0.2215	0.0065	0.2281	1183.1948	0.13434	-384.636668	-384.628523	-384.627578	-384.669716	31.581	
C	 0.0095328212	-1.1145279804	 0.4694794499	-0.471751
C	 0.0105322138	 0.0541112306	 0.1898606469	 0.341375
C	 0.0245982241	 1.4746336601	-0.1777207631	-0.118905
O	-0.7429441782	 2.2645748082	 0.7421522426	-0.302953
C	 0.1025579989	 3.2070977879	 1.3772140024	 0.435128
C	-0.5134657342	 4.516377205	 1.7910170344	-0.329953
C	-0.1268309525	 3.4916399475	 2.8396915446	-0.32231
C	 1.4359266757	 3.0625783886	 0.7596935308	-0.158096
C	 1.4133378219	 2.082943726	-0.1365604232	-0.111729
H	 0.0039335464	-2.1456288176	 0.7239137897	 0.199781
H	-0.4310706304	 1.5768272745	-1.1751666489	 0.114298
H	 0.0765815786	 5.4219956329	 1.697422397	 0.114836
H	-1.5695373173	 4.6346584556	 1.5758582415	 0.12919
H	-0.9286106509	 2.9344083174	 3.3106637483	 0.130884
H	 0.7315967686	 3.6858048415	 3.4740242863	 0.114719
H	 2.2814737284	 3.6811084931	 1.030969783	 0.115821
H	 2.2266745362	 1.716730939	-0.7470517723	 0.119662
45.5416	131.2319	195.2067	259.8826	293.8413	356.9587	468.4777	483.7594	571.6004	580.5276	617.0182	668.3118	738.2322	760.8873	799.9096	847.7476	878.4631	890.5802	924.4019	929.9217	944.8373	972.4482	1029.5357	1037.5517	1064.4436	1066.5893	1118.5708	1191.0878	1236.9618	1293.6867	1313.157	1350.9585	1400.2647	1449.6695	1489.7004	1681.2376	2234.2787	2974.6919	3130.8864	3133.5643	3215.9237	3217.1465	3232.0126	3244.2389	3502.539
C#CC1OC2(CC2)C=C1	C#C[C@H]1OC2(CC2)C=C1	
InChI=1S/C8H8O/c1-2-7-3-4-8(9-7)5-6-8/h1,3-4,7H,5-6H2	InChI=1S/C8H8O/c1-2-7-3-4-8(9-7)5-6-8/h1,3-4,7H,5-6H2/t7-/m1/s1
