16
gdb 23568	3.11588	1.51262	1.34275	2.5002	71.35	-0.2427	0.0178	0.2605	980.0196	0.124918	-437.781455	-437.774503	-437.773559	-437.812734	28.018	
O	-0.1154252462	 1.3519953875	-0.051979348	-0.399091
N	 0.0408772377	-0.0512509003	-0.0075578426	-0.311154
C	-1.0717349228	-0.6295737109	 0.1155576283	 0.531994
C	-2.5552143649	-0.2971770618	 0.0630741562	-0.189706
C	-2.6067783476	-1.5383040456	-0.9174272461	-0.238506
C	-1.4691901699	-2.0880795858	 0.0355615095	-0.178208
C	-2.2903722787	-2.2389203049	 1.3402336322	 0.045008
O	-2.0289071833	-1.2402993289	 2.3363318075	-0.244492
C	-3.0485394971	-0.9838441505	 1.3594302441	 0.047062
H	 0.7973827995	 1.6499186682	-0.1257176776	 0.306167
H	-2.9308370931	 0.6874946247	-0.1983924591	 0.096658
H	-3.542592674	-2.1040908397	-0.9383557947	 0.104022
H	-2.2591234385	-1.3128564699	-1.9271532823	 0.121963
H	-0.7767335232	-2.8741953723	-0.2542688969	 0.08807
H	-2.6454171733	-3.2006436605	 1.6930725514	 0.110222
H	-4.0591639346	-0.8586096393	 1.731410038	 0.109991
112.9655	199.0995	301.6931	347.7691	378.3598	428.1572	517.8768	551.1005	678.7023	709.6694	780.8248	808.5831	827.1182	836.8505	859.7957	897.8957	927.0488	952.4326	987.5342	1021.1904	1057.2954	1064.9793	1070.8258	1106.7068	1142.8579	1199.5878	1209.844	1227.7318	1242.8745	1261.9846	1301.8403	1394.3457	1412.9553	1490.7032	1818.4433	3058.4465	3133.7487	3157.2715	3169.2862	3176.963	3188.1904	3820.9278
ON=C1C2CC1C1OC21	ON=C1[C@H]2C[C@@H]1[C@H]1O[C@@H]21	
InChI=1S/C6H7NO2/c8-7-4-2-1-3(4)6-5(2)9-6/h2-3,5-6,8H,1H2	InChI=1S/C6H7NO2/c8-7-4-2-1-3(4)6-5(2)9-6/h2-3,5-6,8H,1H2/t2-,3+,5+,6-
