21
gdb 120393	2.73474	0.90566	0.82232	2.2453	79.27	-0.2492	-0.0263	0.2229	1518.2977	0.180355	-424.236681	-424.226581	-424.225637	-424.272307	36.456	
C	-0.2035554844	 1.55202916	-0.3398021209	-0.380315
C	-0.0131692777	 0.0483581994	-0.1234228421	-0.172879
C	 0.7229959099	-0.6323778955	-1.2827574093	-0.165607
C	 0.9249061367	-2.1321271222	-1.0811585438	-0.079396
C	-0.3449736452	-3.0032154918	-1.3749429865	-0.345582
C	 0.2486104854	-3.2108980257	-2.7732850521	 0.340671
O	-0.2085966335	-3.2796489516	-3.8808698711	-0.309617
C	 1.6508353653	-2.8400229242	-2.2946171659	 0.050881
O	 2.4806969135	-2.131853112	-3.1636507709	-0.428139
H	 0.760323275	 2.0599924539	-0.4545896732	 0.116901
H	-0.7904475076	 1.7508855604	-1.2433999033	 0.116001
H	-0.7253387853	 2.0136664551	 0.5041267556	 0.112981
H	 0.5466396184	-0.121628637	 0.8058543743	 0.096893
H	-0.9917791039	-0.4270989301	 0.0230904661	 0.096726
H	 0.1717169637	-0.4559616863	-2.2179064634	 0.093863
H	 1.7047188817	-0.1647853499	-1.4246902744	 0.112642
H	 1.3986916322	-2.3308331181	-0.1169489497	 0.079167
H	-0.3781629107	-3.9276807009	-0.7916806954	 0.129328
H	-1.3236271618	-2.5202935307	-1.3400955878	 0.130842
H	 2.1804851851	-3.7271280547	-1.9210021943	 0.106839
H	 1.9695074132	-1.9527733183	-3.9627637118	 0.297799
64.3015	90.686	108.9134	133.5043	160.7768	236.8046	246.5752	267.2544	318.8196	410.2788	432.4994	539.5343	602.5045	725.9231	747.0638	758.5493	833.4829	854.8078	882.3328	915.7389	955.2405	1020.7647	1051.0854	1064.1078	1079.6977	1117.0544	1140.9789	1170.1662	1190.0794	1221.8541	1254.3196	1271.4664	1305.4855	1324.4754	1335.8964	1370.7655	1403.3463	1407.7991	1414.6724	1448.6498	1483.6684	1493.652	1500.1407	1510.6702	1870.4564	3004.9447	3016.9523	3017.1221	3030.7735	3040.462	3061.9496	3068.1278	3082.9155	3097.6754	3103.6089	3128.3005	3777.0462
CCCC1CC(=O)C1O	CCC[C@H]1CC(=O)[C@H]1O	
InChI=1S/C7H12O2/c1-2-3-5-4-6(8)7(5)9/h5,7,9H,2-4H2,1H3	InChI=1S/C7H12O2/c1-2-3-5-4-6(8)7(5)9/h5,7,9H,2-4H2,1H3/t5-,7-/m0/s1
