19
gdb 8067	3.55573	1.58617	1.34942	1.5352	72.09	-0.2402	0.0702	0.3104	996.2395	0.16561	-364.987751	-364.979786	-364.978842	-365.020064	30.548	
C	 0.0201928614	 1.519718696	-0.0046930689	-0.374215
C	-0.2312882213	 0.0089957428	-0.0918414	-0.242542
C	 0.5402758807	-0.6268120832	-1.2345594315	 0.068144
N	 2.0933971378	-0.6656287132	-1.1662489544	-0.152153
C	 1.9296244425	-1.8811037536	-0.2411296579	-0.246965
C	 0.8652128821	-2.1290585611	-1.3406655362	 0.325952
O	-0.0893993082	-3.1249962135	-1.4617746803	-0.466961
C	 1.985329252	-1.6784610504	-2.3147334353	-0.231455
H	 1.0793229863	 1.7267853401	 0.1731902314	 0.136241
H	-0.2628273857	 2.021856783	-0.9363711662	 0.114143
H	-0.5599876283	 1.9693724146	 0.806545175	 0.109995
H	-0.0012549063	-0.459599672	 0.8694399363	 0.10047
H	-1.2966037923	-0.1827375188	-0.272806364	 0.10959
H	 0.2220579782	-0.169011638	-2.179181804	 0.070024
H	 2.8118307098	-2.527465796	-0.2290771305	 0.094789
H	 1.6105154257	-1.6408546456	 0.772383596	 0.106406
H	 0.3551429552	-3.9790129913	-1.5013078846	 0.2817
H	 1.6935448268	-1.2321457225	-3.2687779318	 0.1028
H	 2.8723357537	-2.3099959771	-2.4140837729	 0.094036
70.9636	145.0801	208.5811	244.3521	273.5781	336.9342	396.379	477.329	569.0381	610.2321	635.5917	731.768	787.7528	818.3869	874.9974	896.2792	958.8537	979.3221	984.3404	1038.5544	1059.2937	1094.1826	1109.7832	1123.9253	1169.1902	1177.7315	1187.5049	1191.7948	1247.7386	1288.0024	1295.2789	1347.8304	1359.0533	1410.7981	1450.2403	1483.1016	1497.0755	1506.4164	1515.1833	1554.3706	3028.5319	3034.6652	3036.9193	3051.5536	3064.7314	3078.0048	3104.4845	3117.8361	3122.8117	3143.4786	3804.7489
CCC1N2CC1(O)C2	CC[C@H]1N2C[C@]1(O)C2	
InChI=1S/C6H11NO/c1-2-5-6(8)3-7(5)4-6/h5,8H,2-4H2,1H3	InChI=1S/C6H11NO/c1-2-5-6(8)3-7(5)4-6/h5,8H,2-4H2,1H3/t5-/m1/s1
