21
gdb 55681	2.81235	1.1783	1.00391	3.3136	78.87	-0.2369	-0.0104	0.2264	1276.9627	0.179836	-424.238501	-424.228522	-424.227578	-424.274211	36.164	
C	-0.7333168859	 1.1714081727	-0.2875756609	-0.481729
C	-0.5643368542	 0.1131927578	 0.7812534944	 0.389106
O	 0.3134215575	 0.1598182364	 1.6139434941	-0.308418
C	-1.5466726007	-1.0578209607	 0.7355765082	-0.332495
C	-1.0422030552	-2.2111287461	-0.1565763571	 0.425312
C	 0.2535058832	-2.827797468	 0.3479237819	-0.431722
C	-2.1492606838	-3.2190118115	-0.5695254174	-0.336408
C	-1.9680899731	-2.639020466	-1.9838216875	-0.067366
O	-0.9087146325	-1.7655420723	-1.5427641933	-0.31891
H	 0.0634360422	 1.912654235	-0.2158863628	 0.133916
H	-0.7295271758	 0.6851786119	-1.2688710775	 0.165213
H	-1.7068064089	 1.664249218	-0.1776537379	 0.131375
H	-1.6765242881	-1.4334482913	 1.7552496974	 0.120431
H	-2.5171048552	-0.7231183538	 0.3541651489	 0.097699
H	 0.1018997887	-3.2760001969	 1.3356279432	 0.120342
H	 0.5892276055	-3.6072984446	-0.3414219905	 0.114648
H	 1.0413981957	-2.076671914	 0.4403466088	 0.146185
H	-1.8655349491	-4.2669772571	-0.4586867231	 0.112621
H	-3.1255524907	-3.0602991105	-0.1084426631	 0.109812
H	-1.6229966082	-3.3405197281	-2.7518905616	 0.107631
H	-2.8237952614	-2.0780067309	-2.3791443942	 0.102756
37.1131	69.9696	108.982	162.8167	186.5037	213.154	286.7924	304.4626	375.5029	408.9483	436.5097	520.8174	574.1295	701.1815	779.498	801.9842	856.8974	882.0222	901.5314	921.1888	967.3562	993.1505	1008.0791	1031.0715	1041.113	1115.1927	1163.0199	1177.1027	1206.4146	1225.5328	1231.8336	1265.6156	1282.2937	1331.9944	1356.8933	1379.1034	1413.3246	1461.4208	1472.794	1475.399	1482.8443	1486.7455	1495.0044	1532.6061	1805.965	3019.1896	3033.228	3040.4475	3044.5876	3059.7278	3077.6049	3099.4256	3101.667	3112.968	3130.7663	3133.7247	3153.8437
CC(=O)CC1(C)CCO1	CC(=O)C[C@@]1(C)CCO1	
InChI=1S/C7H12O2/c1-6(8)5-7(2)3-4-9-7/h3-5H2,1-2H3	InChI=1S/C7H12O2/c1-6(8)5-7(2)3-4-9-7/h3-5H2,1-2H3/t7-/m1/s1
