16
gdb 62748	2.53741	1.54836	1.28433	2.4115	65.67	-0.2356	-0.0036	0.232	1017.5372	0.122266	-475.003604	-474.99498	-474.994036	-475.036242	32.989	
C	 0.0867223899	 1.56094293	-0.0678155925	-0.452148
C	 0.1228197168	 0.0554511561	 0.0121665947	 0.392319
O	-1.0480234015	-0.5205323316	-0.4813564554	-0.474601
C	 1.359905881	-0.7904232472	-0.2024860344	-0.173046
N	 2.5537571545	-0.2048115998	 0.4073703247	-0.338778
C	 1.9761870515	-0.1223111427	 1.6948798669	 0.337116
O	 2.3897237856	 0.3109350091	 2.7316266184	-0.339991
C	 0.6941164935	-0.7651707652	 1.1858674306	 0.135474
O	-0.1727328044	-1.6277294103	 1.813682583	-0.455026
H	 1.028511055	 2.0142745397	 0.2480241869	 0.122701
H	-0.1180227968	 1.8635407499	-1.0995316185	 0.134237
H	-0.7145206651	 1.9515834565	 0.565653338	 0.137703
H	-1.3340221059	-1.1907432669	 0.1550900431	 0.299084
H	 1.4209484323	-1.6040568843	-0.9136563235	 0.120282
H	 3.0616530161	 0.5740473363	 0.0027347442	 0.247208
H	 0.2929990874	-2.4376203595	 2.0515957539	 0.307467
127.5884	177.1661	197.2965	260.3585	275.86	296.2402	307.1143	395.8803	403.2982	420.9412	521.8005	600.0533	642.1763	650.0121	707.8191	762.5377	779.1352	902.6921	932.7746	967.9406	1021.2548	1037.9451	1095.0449	1126.5269	1212.912	1251.0975	1271.4227	1301.9646	1321.5871	1383.2454	1413.9599	1446.2088	1478.3044	1496.7297	1894.3327	3047.4986	3114.9121	3133.4912	3204.5694	3547.8326	3742.2736	3796.6794
CC1(O)C2NC(=O)C12O	C[C@@]1(O)[C@H]2NC(=O)[C@@]12O	
InChI=1S/C5H7NO3/c1-4(8)2-5(4,9)3(7)6-2/h2,8-9H,1H3,(H,6,7)	InChI=1S/C5H7NO3/c1-4(8)2-5(4,9)3(7)6-2/h2,8-9H,1H3,(H,6,7)/t2-,4-,5-/m1/s1
