14
gdb 129213	3.18356	1.25616	0.97098	3.2605	68.61	-0.2144	0.001	0.2154	1144.9839	0.102528	-429.060366	-429.052176	-429.051232	-429.094567	28.708	
N	-0.0303121822	 1.3363512958	-0.2428232332	-0.618017
C	 0.0435133937	 0.0729973652	-0.0693401239	 0.466393
N	 1.0658263944	-0.8508840391	-0.014468069	-0.322089
N	 0.6401659314	-2.1471694104	 0.2068475745	-0.206344
C	-0.6455219354	-2.0445517241	 0.2740663689	 0.050084
N	-1.0796356973	-0.7472158207	 0.1165989844	-0.09218
C	-2.4236233427	-0.2171933382	 0.1156887585	-0.291586
C	-3.1728696147	-0.5703263808	 1.3265856139	 0.265183
N	-3.7729672568	-0.8716024105	 2.2660366149	-0.295463
H	 0.8808407445	 1.7684754567	-0.3570584969	 0.218164
H	 2.0494563704	-0.659238598	-0.0670722473	 0.278045
H	-1.3149315991	-2.8721058039	 0.4474590624	 0.168569
H	-2.3131862581	 0.870925246	 0.0423544309	 0.210817
H	-2.987425618	-0.5574145479	-0.761243088	 0.168425
28.1087	88.5038	136.5946	222.141	273.0257	333.0427	371.1687	441.0256	553.2996	637.7852	670.6226	716.2503	729.1568	807.1084	842.1224	926.3422	937.1936	985.7159	1065.7191	1072.5289	1189.8928	1257.241	1278.559	1340.4048	1381.6924	1394.485	1440.2091	1476.7953	1635.7342	1749.513	2368.9767	3035.5881	3082.7911	3275.764	3551.1174	3708.396
N=C1NN=CN1CC#N	[NH][C@@H]1NN=CN1CC#N	
InChI=1S/C4H5N5/c5-1-2-9-3-7-8-4(9)6/h3H,2H2,(H2,6,8)	InChI=1S/C4H6N5/c5-1-2-9-3-7-8-4(9)6/h3-4,6,8H,2H2/t4-/m1/s1
