20
gdb 8011	3.11383	1.77804	1.3551	1.0565	71.29	-0.2486	0.0883	0.3368	1002.3124	0.175998	-386.162313	-386.153602	-386.152657	-386.195467	32.39	
C	 0.0500721526	 1.501841841	-0.3689800949	-0.404828
C	 0.1291202025	 0.0470689137	 0.0374717823	 0.231374
O	 0.343130142	-0.7841842375	-1.0970337539	-0.290376
C	 1.2932443948	-1.7981038438	-0.7478116952	 0.120715
C	 2.5280585749	-1.6516687026	-1.6300249	-0.397362
C	 1.5070312426	-1.5604745138	 0.7700419063	 0.10515
C	 2.8739991725	-1.8616548252	 1.3538502263	-0.419071
O	 1.218461502	-0.1717267637	 0.8999303927	-0.263645
H	 0.986208771	 1.8033922962	-0.8450668201	 0.126913
H	-0.7721788365	 1.6445857004	-1.0745504634	 0.127748
H	-0.1268562734	 2.1284158077	 0.509331273	 0.124271
H	-0.8054585032	-0.2733354339	 0.5372459424	 0.056951
H	 0.834219387	-2.7813434437	-0.9152383014	 0.074751
H	 3.0336432053	-0.7009309788	-1.4380523572	 0.12494
H	 3.2365642281	-2.4695465787	-1.4632558751	 0.109965
H	 2.2267719297	-1.66955849	-2.6809436297	 0.124982
H	 0.7417832144	-2.1370780241	 1.3172909712	 0.068488
H	 3.6538125291	-1.2789864339	 0.8582817468	 0.130195
H	 2.8870393618	-1.6156678202	 2.4189977579	 0.129221
H	 3.1093097728	-2.9251777891	 1.2474617719	 0.119617
57.1697	130.1688	209.3521	216.8388	257.1282	265.2241	292.5253	386.7607	397.0114	493.2383	507.9629	690.427	710.004	768.5877	854.6172	873.7478	937.006	942.3945	1012.9689	1044.8052	1094.5049	1117.0208	1125.088	1141.3655	1163.5823	1168.7534	1202.9032	1319.1196	1338.8709	1368.2497	1383.2486	1392.0631	1400.2246	1409.5269	1420.44	1444.0626	1477.7635	1484.317	1484.9068	1491.4304	1496.5071	1506.7344	2912.3087	2951.5318	3016.7447	3038.9611	3049.6528	3052.3176	3111.856	3118.2703	3120.8078	3131.4027	3134.15	3137.5496
CC1OC(C)C(C)O1	C[C@H]1O[C@@H](C)[C@@H](C)O1	
InChI=1S/C6H12O2/c1-4-5(2)8-6(3)7-4/h4-6H,1-3H3	InChI=1S/C6H12O2/c1-4-5(2)8-6(3)7-4/h4-6H,1-3H3/t4-,5+,6-
