18
gdb 112786	2.43947	1.21759	0.92468	2.8675	72.03	-0.2773	0.0208	0.2981	1266.5749	0.146986	-439.07988	-439.070555	-439.06961	-439.114347	33.828	
O	-0.1794938708	 1.4741860118	-0.1571441453	-0.422046
C	 0.0243130539	 0.0792021571	 0.0045457742	-0.109431
C	-1.3476152369	-0.5639793996	 0.0269774941	 0.035379
C	-2.1964041396	-0.5671060322	-1.2708313255	-0.273374
C	-2.700620223	-1.9820740105	-0.8945564241	 0.161738
O	-2.9338093119	-2.948730869	-1.865835066	-0.419961
C	-1.4605088698	-2.1272207451	 0.0818476683	-0.259065
C	-0.3698258771	-2.8284700296	-0.5734699611	 0.278539
N	 0.4611093854	-3.3874229155	-1.1541215728	-0.341208
H	 0.6796331755	 1.896381125	-0.2489915874	 0.292316
H	 0.6197846124	-0.3403196511	-0.820103037	 0.106641
H	 0.5575809003	-0.1457534449	 0.942826186	 0.094245
H	-1.9212617557	-0.1471800245	 0.8596041456	 0.09982
H	-2.937532936	 0.2207314977	-1.407676991	 0.118712
H	-1.552471988	-0.6079561381	-2.156446626	 0.111356
H	-3.6098448467	-1.9300513829	-0.2900932524	 0.108504
H	-2.1279544666	-3.0721109535	-2.3826064135	 0.295322
H	-1.6524442854	-2.5795923152	 1.0571570138	 0.122512
82.3626	101.017	117.1831	136.6062	229.5583	260.9512	336.941	381.6166	386.0222	433.4813	442.424	500.9579	666.0079	697.1445	770.8234	814.4959	892.1759	940.5828	958.8857	1052.4575	1058.6178	1083.9237	1087.7465	1128.0486	1165.2644	1180.055	1230.458	1245.7273	1252.1326	1265.4876	1284.8946	1331.8321	1346.0635	1370.7323	1442.4681	1466.7515	1485.4248	1522.818	2339.9932	2967.8851	3008.3223	3053.0565	3075.0946	3082.3798	3094.8842	3132.9913	3782.3883	3832.1512
OCC1CC(O)C1C#N	OC[C@H]1C[C@@H](O)[C@H]1C#N	
InChI=1S/C6H9NO2/c7-2-5-4(3-8)1-6(5)9/h4-6,8-9H,1,3H2	InChI=1S/C6H9NO2/c7-2-5-4(3-8)1-6(5)9/h4-6,8-9H,1,3H2/t4-,5+,6-/m1/s1
