22
gdb 13392	5.52849	0.97673	0.8798	0.1431	84.42	-0.2336	0.0293	0.2628	1391.9968	0.201133	-313.092717	-313.083972	-313.083027	-313.126532	32.49	
C	 0.0481894519	 1.6352285735	-0.0414024427	-0.379014
C	 0.0088099899	 0.1044201385	-0.0237395315	-0.171222
C	 0.6784180083	-0.4965060837	 1.2174853378	-0.171982
C	 0.6890637922	-2.0332113807	 1.2566066292	-0.009925
C	 1.507984541	-2.6129970022	 2.4436035691	-0.228259
C	 0.75797534	-3.8888281052	 2.9012771216	-0.25454
C	-0.628585121	-3.6799059012	 2.339179621	-0.07014
C	-0.664439965	-2.687777265	 1.4517401079	-0.05914
H	 1.0797414451	 2.0046287462	-0.0223056509	 0.112592
H	-0.4331927781	 2.0384454762	-0.9379596129	 0.109622
H	-0.4669098487	 2.0543846537	 0.830159069	 0.113586
H	-1.0342002359	-0.2313690484	-0.0820576132	 0.096957
H	 0.5026657875	-0.2852312363	-0.924031463	 0.093273
H	 1.7161137788	-0.1379970282	 1.2685921258	 0.088784
H	 0.1813167621	-0.1206935969	 2.1227011969	 0.090353
H	 1.1170395393	-2.3835096791	 0.3028651103	 0.070457
H	 2.5523252876	-2.8016658858	 2.1807417903	 0.092716
H	 1.5081022339	-1.8813701039	 3.2598569217	 0.099069
H	 1.2092446351	-4.8008336883	 2.4844793841	 0.102861
H	 0.7664804711	-4.0158284661	 3.9899249137	 0.099586
H	-1.4713497412	-4.3063322396	 2.6119460422	 0.086964
H	-1.5438579539	-2.3884375373	 0.8917347336	 0.087403
70.1266	79.3551	112.0876	171.5441	244.3851	277.7228	344.8264	364.4206	509.0032	624.7312	733.5244	752.4516	765.9575	841.3804	846.8224	896.7662	900.8147	928.7144	971.9987	979.9943	998.9842	1041.8845	1060.1168	1083.5978	1117.4472	1131.6953	1148.4529	1185.5101	1228.2418	1252.4958	1277.902	1307.4513	1316.2048	1321.7751	1343.8397	1351.7843	1390.5606	1393.7878	1411.648	1481.0827	1483.6267	1493.3313	1499.0058	1499.8158	1510.4315	1685.2982	2961.9789	3000.8477	3003.486	3016.2496	3028.2999	3031.2904	3037.2175	3054.4255	3054.8551	3093.8572	3094.8624	3100.1671	3175.5676	3201.502
CCCC1CCC=C1	CCC[C@H]1CCC=C1	
InChI=1S/C8H14/c1-2-5-8-6-3-4-7-8/h3,6,8H,2,4-5,7H2,1H3	InChI=1S/C8H14/c1-2-5-8-6-3-4-7-8/h3,6,8H,2,4-5,7H2,1H3/t8-/m1/s1
