20
gdb 73855	2.66338	1.3501	0.93006	3.5278	84.48	-0.2051	0.0054	0.2105	1275.9027	0.171213	-403.218389	-403.209112	-403.208168	-403.25231	34.662	
C	 0.3649251776	 1.5726808887	 0.1051642108	-0.491236
C	 0.1547361083	 0.0896969094	-0.0086134303	 0.193011
C	-0.0598474333	-0.5810791933	-1.1513413834	 0.286132
C	-0.1339244112	-0.0204318091	-2.5431555951	-0.497995
N	-0.2291739856	-1.9850571928	-1.1256090262	-0.375767
C	-0.4891203479	-2.7559088844	-0.0160636771	 0.393825
O	-0.6142888563	-3.9621372019	-0.0866336498	-0.368866
C	-0.6515868111	-1.9458999051	 1.2588690924	-0.322539
C	 0.2414463406	-0.699767031	 1.2823922306	-0.306993
H	 1.3231785793	 1.7896540342	 0.5966454377	 0.125033
H	 0.3656942949	 2.0897145806	-0.8557205182	 0.119982
H	-0.4112260058	 2.0354404775	 0.7294226624	 0.12324
H	 0.6182826378	-0.4913894992	-3.1894746117	 0.130685
H	-1.1143691317	-0.2204864659	-2.9926957316	 0.135063
H	 0.0367226376	 1.0545723095	-2.5670903158	 0.13763
H	-0.2007939717	-2.4940587634	-1.9970420045	 0.245439
H	-1.707079862	-1.6441578578	 1.3050981471	 0.126382
H	-0.467744199	-2.6095490422	 2.1057673595	 0.127314
H	 1.2872519293	-0.9947803401	 1.4613580556	 0.114165
H	-0.0375770298	-0.0654252438	 2.1309522377	 0.105496
90.6802	132.41	144.5424	151.8333	190.2763	313.8004	328.5933	342.7654	429.6846	460.039	508.3198	545.2223	583.4784	613.2044	682.2009	741.9603	793.715	904.8656	940.8792	1004.3471	1019.6034	1038.3724	1063.504	1072.1098	1152.6353	1175.992	1193.815	1245.8487	1261.2415	1325.3851	1340.9081	1384.4796	1407.0987	1426.6806	1460.7248	1466.069	1476.2184	1481.2553	1486.1101	1489.4983	1500.8036	1751.3164	1801.8651	2986.9962	3009.2528	3020.8833	3024.9996	3046.5283	3058.5591	3065.6938	3117.3016	3125.639	3160.0431	3613.5604
CC1=C(C)NC(=O)CC1	CC1=C(C)NC(=O)CC1	
InChI=1S/C7H11NO/c1-5-3-4-7(9)8-6(5)2/h3-4H2,1-2H3,(H,8,9)	InChI=1S/C7H11NO/c1-5-3-4-7(9)8-6(5)2/h3-4H2,1-2H3,(H,8,9)
