19
gdb 88521	2.26314	1.47039	1.21173	2.1209	76.66	-0.2274	-0.0325	0.1949	1123.2741	0.158239	-419.147267	-419.138249	-419.137304	-419.181135	33.401	
C	-0.0977998362	 1.9252991939	-0.1312828447	-0.333775
N	-0.1169545666	 0.4712029017	-0.0061037984	-0.092148
C	 1.0996353346	-0.2621212185	-0.3423149913	-0.269696
C	 0.629551853	-0.1752280269	 1.0720593058	-0.09354
C	 1.3641225617	 0.5439975462	 2.1799324312	 0.204109
C	 0.5323924893	 1.0027577071	 3.3537159734	-0.259383
N	 1.4275981655	-0.1291032304	 3.505944735	-0.351641
C	 2.61441342	 1.3406879895	 1.9654349314	 0.136762
O	 3.0313456398	 1.76264787	 0.9154410506	-0.267429
H	 0.8850924082	 2.3802696902	 0.0436543978	 0.135377
H	-0.4206178647	 2.184183451	-1.1444823875	 0.125246
H	-0.8218132919	 2.3558025302	 0.5685276508	 0.114379
H	 0.9583173221	-1.1846964148	-0.9003885359	 0.110481
H	 1.9835874016	 0.3112572855	-0.6010700477	 0.146516
H	 0.0924681739	-1.037837685	 1.4718621036	 0.081075
H	 0.8115787247	 1.8950843695	 3.9080443988	 0.131582
H	-0.537842533	 0.8358798792	 3.2625222138	 0.136211
H	 0.9154336527	-1.0066786604	 3.4621241016	 0.244916
H	 3.1493467954	 1.527169522	 2.9216030519	 0.100957
60.2306	118.078	165.57	203.8394	230.0005	279.1589	328.0873	357.3481	364.2548	431.4263	531.677	558.4555	723.647	773.9152	818.8188	888.1439	900.857	954.5023	980.9202	999.9908	1048.1365	1054.4915	1093.3028	1106.8818	1129.2325	1139.8393	1143.5765	1175.1611	1215.2721	1242.6531	1295.3006	1332.2013	1384.713	1392.262	1440.004	1451.2179	1490.7355	1506.1403	1510.2967	1513.9302	1818.0284	2907.6385	3018.2742	3070.8133	3087.5317	3099.029	3105.3875	3109.0128	3193.3339	3209.6233	3505.7894
CN1CC1C1(CN1)C=O	CN1C[C@H]1[C@]1(CN1)C=O	
InChI=1S/C6H10N2O/c1-8-2-5(8)6(4-9)3-7-6/h4-5,7H,2-3H2,1H3	InChI=1S/C6H10N2O/c1-8-2-5(8)6(4-9)3-7-6/h4-5,7H,2-3H2,1H3/t5-,6-,8?/m0/s1
