16
gdb 55886	3.49508	0.88582	0.76541	1.9988	70.26	-0.2581	0.0123	0.2704	1431.4979	0.124079	-434.086201	-434.07693	-434.075986	-434.121838	32.501	
N	-0.0541954968	 1.2456919827	 0.3829790714	-0.524986
C	 0.0962876792	-0.0470847651	-0.0154516704	 0.427875
O	 1.1843726252	-0.5721709573	-0.1567269474	-0.36305
C	-1.2103968851	-0.7825628464	-0.3256092449	-0.341985
C	-1.0469088018	-2.264473457	-0.0967788522	 0.019722
N	-1.4394653832	-2.7730051331	 1.2166051215	-0.313819
C	-2.2167042198	-3.1891169301	 0.029128456	-0.213907
C	-3.5747052838	-2.7057384092	-0.053880965	 0.329781
N	-4.6587518841	-2.3159614951	-0.1529554355	-0.337324
H	 0.7726151304	 1.7718135051	 0.6151247181	 0.264519
H	-0.9534572933	 1.640967117	 0.5940511177	 0.264983
H	-2.0433186094	-0.3989691928	 0.2699759504	 0.130966
H	-1.4507908171	-0.5948937057	-1.380069517	 0.144875
H	-0.1579577092	-2.6852694099	-0.5578191163	 0.127089
H	-0.8364729042	-3.5364583436	 1.5115259579	 0.250739
H	-2.0907355369	-4.2004350995	-0.3478737445	 0.134523
37.232	53.3597	89.9587	174.0635	213.7788	231.4344	341.3091	371.8743	446.3689	511.3458	565.6565	588.4348	630.6527	670.0237	802.0571	847.5556	864.6998	895.6283	937.8702	997.1043	1026.9914	1082.7496	1119.0839	1173.9159	1210.892	1245.1	1267.0107	1286.6173	1380.6982	1404.1752	1447.8339	1468.1678	1620.4601	1796.2149	2358.8988	3038.461	3099.2466	3148.4012	3164.7568	3514.0322	3602.0902	3738.3781
NC(=O)CC1NC1C#N	NC(=O)C[C@H]1N[C@H]1C#N	
InChI=1S/C5H7N3O/c6-2-4-3(8-4)1-5(7)9/h3-4,8H,1H2,(H2,7,9)	InChI=1S/C5H7N3O/c6-2-4-3(8-4)1-5(7)9/h3-4,8H,1H2,(H2,7,9)/t3-,4+/m1/s1
