15
gdb 24021	4.18297	1.21902	1.03018	3.9142	77.64	-0.2203	0.014	0.2342	1117.989	0.115138	-379.681461	-379.674231	-379.673286	-379.713911	26.884	
N	-0.2958747666	-1.1776432716	-0.2964949423	-0.321151
C	-0.1580910068	-0.036777019	-0.174088831	 0.29275
C	 0.0072409463	 1.4036168338	-0.0175693597	-0.342298
C	-0.2823817492	 1.9761099327	 1.4382408765	-0.181008
N	 1.1188619017	 2.4099207763	 1.4475524757	 0.02407
C	 2.1720477607	 3.0947017708	 1.9811007715	-0.155046
C	 3.1756892287	 3.0193760768	 1.024625506	-0.122398
C	 2.7070439136	 2.2925376787	-0.1163693643	-0.333335
C	 1.4188313065	 1.9396326074	 0.2076137449	 0.361576
H	-0.5650936385	 1.9166465748	-0.7965527364	 0.143532
H	-1.0097603004	 2.7916550635	 1.4622564536	 0.140266
H	-0.5289008393	 1.2236491161	 2.1906049923	 0.150474
H	 2.1511799581	 3.550472777	 2.956928781	 0.128273
H	 4.1644647255	 3.4391072145	 1.1360426647	 0.103253
H	 3.2594859697	 2.073953948	-1.0155592226	 0.111045
58.4632	108.7487	166.1647	288.7529	421.8075	497.1203	564.6895	604.1012	654.755	703.9421	752.9476	766.4577	778.053	837.9009	851.2624	919.904	996.8939	1028.2844	1049.9326	1070.8322	1119.4655	1145.913	1174.4939	1235.165	1270.3841	1303.7287	1331.5457	1404.0344	1458.5247	1472.3966	1519.5599	1581.4108	2360.5261	3062.0776	3066.2713	3123.3122	3242.8264	3268.5708	3278.4176
N#CC1CN2C=CC=C12	N#C[C@H]1Cn2cccc12	
InChI=1S/C7H6N2/c8-4-6-5-9-3-1-2-7(6)9/h1-3,6H,5H2	InChI=1S/C7H6N2/c8-4-6-5-9-3-1-2-7(6)9/h1-3,6H,5H2/t6-/m0/s1
