15
gdb 13467	3.2459	1.83132	1.31684	1.9765	62.9	-0.258	-0.0273	0.2307	919.6265	0.117767	-399.817439	-399.809606	-399.808662	-399.850237	27.737	
C	-0.4240114847	 1.4153259563	-0.0690414259	-0.487914
C	 0.0449711459	-0.0093720496	 0.1091002275	 0.372593
O	 0.3300332061	-0.4940007104	 1.1780346918	-0.288599
C	 0.1127883247	-0.8342017367	-1.1770624173	-0.24322
C	 0.3743265785	-2.3404570111	-1.0371682439	-0.103782
O	-0.9673192637	-2.6251996588	-1.5659905082	-0.247739
C	-1.243732095	-1.2889884961	-1.7044560287	 0.440722
N	-2.2670456631	-0.6844945128	-2.1016054874	-0.541842
H	 0.3099239302	 1.9767317502	-0.6594913758	 0.140322
H	-1.3622449213	 1.4234285611	-0.6348634749	 0.18002
H	-0.5519032464	 1.8925151586	 0.9029706036	 0.143366
H	 0.7051835623	-0.3112990806	-1.9323426558	 0.125782
H	 1.1428941859	-2.7665451497	-1.6840362574	 0.124248
H	 0.4752405393	-2.6883122928	-0.0087864578	 0.150369
H	-3.0123021388	-1.3301239376	-2.3664805697	 0.235674
62.003	124.771	150.3085	155.5789	269.8018	369.9611	436.4751	520.1859	574.8258	637.8835	726.8539	783.8104	856.3098	930.5276	939.5109	958.8251	1005.2142	1022.6668	1058.4953	1101.6682	1161.0352	1179.6169	1185.9773	1230.9208	1323.4374	1357.1396	1387.5757	1465.2673	1473.8546	1512.4383	1806.4953	1825.5701	3034.2429	3082.1954	3088.7872	3098.3833	3154.442	3156.1852	3484.317
CC(=O)C1COC1=N	CC(=O)[C@H]1CO[C]1[NH]	
InChI=1S/C5H7NO2/c1-3(7)4-2-8-5(4)6/h4,6H,2H2,1H3	InChI=1S/C5H7NO2/c1-3(7)4-2-8-5(4)6/h4,6H,2H2,1H3/t4-/m1/s1
