20
gdb 92050	2.83187	1.47486	1.06295	3.597	79.12	-0.2347	0.0343	0.269	1159.5863	0.173137	-403.189473	-403.181224	-403.18028	-403.222231	32.351	
C	-0.06631804	 1.560577051	 0.0070101997	-0.391119
C	 0.0324097238	 0.0357954382	-0.0048274414	-0.101766
C	 0.7536003191	-0.518081923	-1.2522464259	-0.236951
C	 0.7665998362	-2.0405957124	-1.2301533624	-0.030823
C	 2.0289692386	-2.8187781063	-0.9443523194	-0.306281
C	 0.9605091179	-2.6798926901	 0.1188975455	 0.013277
N	 1.1594472678	-1.7760895729	 1.2074184597	-0.312044
C	 0.7287277851	-0.4745627657	 1.2630568557	 0.406013
O	 0.9188133517	 0.2149659605	 2.2478945656	-0.379226
H	 0.9275916952	 2.0167250404	-0.0398979391	 0.120895
H	-0.6465528681	 1.9131767861	-0.8514923391	 0.101622
H	-0.5414021449	 1.9102040879	 0.9250043667	 0.136703
H	-0.9828544626	-0.387534282	 0.0051204109	 0.096891
H	 0.258775516	-0.1554912471	-2.1590194959	 0.104673
H	 1.7746721802	-0.1197116716	-1.2780750378	 0.10785
H	 0.0386795697	-2.5227476176	-1.8742918984	 0.094912
H	 2.159091843	-3.7877268096	-1.4138160756	 0.114967
H	 2.9431050306	-2.2527819806	-0.798912343	 0.119358
H	 0.3710418335	-3.5619040352	 0.3577101035	 0.097969
H	 1.6639261872	-2.0870732302	 2.0258217807	 0.24308
85.7417	120.2626	192.2016	281.2049	298.6119	343.6269	405.8756	449.271	476.2048	541.8978	576.6585	687.5403	716.3509	750.0881	823.3409	838.4572	882.6935	904.9581	931.0708	1006.9081	1015.2298	1057.0378	1070.3922	1107.259	1123.0704	1134.8692	1153.2392	1165.3322	1233.225	1238.3149	1287.5712	1307.0156	1343.8732	1382.4224	1392.6091	1412.0634	1417.6091	1457.1876	1483.1747	1487.9348	1495.2622	1500.7147	1785.5558	3001.1475	3034.5379	3043.6526	3075.4722	3107.4348	3123.8835	3131.5664	3138.5606	3160.3149	3222.5337	3595.421
CC1CC2CC2NC1=O	C[C@H]1C[C@H]2C[C@H]2NC1=O	
InChI=1S/C7H11NO/c1-4-2-5-3-6(5)8-7(4)9/h4-6H,2-3H2,1H3,(H,8,9)	InChI=1S/C7H11NO/c1-4-2-5-3-6(5)8-7(4)9/h4-6H,2-3H2,1H3,(H,8,9)/t4-,5-,6+/m0/s1
