13
gdb 9983	2.70522	1.50781	1.007	1.8805	59.82	-0.278	-0.0703	0.2077	1064.8736	0.092358	-398.625526	-398.617102	-398.616158	-398.659803	27.642	
O	-0.4560267986	 0.7513046863	-0.5475350132	-0.227053
C	 0.3378548709	 1.0083488214	 0.3165144393	 0.141407
C	 1.506635717	 1.9775417854	 0.1211595095	-0.181515
C	 1.4360050955	 2.6721805801	-1.2472432199	-0.366833
C	 2.6302532757	 3.4639444892	-1.5288376347	 0.25401
N	 3.5826329742	 4.0868743033	-1.7288696538	-0.293307
C	 1.5541540983	 2.9386381887	 1.3121466085	 0.146303
O	 1.6058774078	 2.5545690974	 2.4494471595	-0.235023
H	 0.2870268286	 0.5672129404	 1.3307734727	 0.132668
H	 2.4172386741	 1.3666405252	 0.2002570514	 0.162338
H	 1.2980896222	 1.9211778678	-2.0298461011	 0.181572
H	 0.5549379459	 3.3219236547	-1.2944356383	 0.169207
H	 1.5146194783	 4.0189008001	 1.0555116402	 0.116227
49.4968	79.7826	114.2338	140.7346	210.331	264.7387	362.5278	384.1281	464.9173	609.7604	652.1156	811.3598	865.3188	886.4929	965.2375	1058.2797	1075.6104	1121.257	1201.2649	1221.9505	1293.9402	1351.7869	1397.9293	1419.8893	1457.5691	1811.5239	1842.7744	2364.5801	2908.1491	2957.3931	3027.4213	3061.1773	3106.6434
O=CC(CC#N)C=O	O=CC(CC#N)C=O	
InChI=1S/C5H5NO2/c6-2-1-5(3-7)4-8/h3-5H,1H2	InChI=1S/C5H5NO2/c6-2-1-5(3-7)4-8/h3-5H,1H2
