18
gdb 18100	4.27359	1.99309	1.45569	0.1725	78.68	-0.2241	0.0242	0.2483	876.9953	0.156876	-310.689767	-310.683392	-310.682448	-310.720001	26.066	
C	-0.0736140631	 1.4959216135	 0.0008562868	-0.242063
C	 1.4114924731	 1.9620390635	 0.0105147885	-0.232412
C	 2.1516212114	 0.8015047946	-0.6930228857	-0.077502
C	 3.5044172103	 0.2904763799	-0.2485593365	-0.095351
C	 3.4826730841	-1.0314063669	-0.0508856928	-0.064111
C	 2.1062275528	-1.6408560015	-0.2931053495	-0.380031
C	 1.2673419092	-0.393381028	-0.3705480095	 0.351251
C	 0.0528918064	-0.0189287108	 0.0197909129	-0.223615
H	-0.6391696243	 1.881605631	 0.8562771721	 0.098837
H	-0.5971608055	 1.8493735229	-0.8999178504	 0.101269
H	 1.5605503403	 2.9339245787	-0.4685800672	 0.088617
H	 1.7558738837	 2.0403060427	 1.0477695323	 0.101634
H	 2.1774884134	 1.0004265179	-1.7788877401	 0.078982
H	 4.3858756538	 0.9171246963	-0.1658840023	 0.090719
H	 4.3398181918	-1.6373694853	 0.2225502563	 0.091246
H	 2.1009117293	-2.2241117997	-1.227172496	 0.113571
H	 1.7861291774	-2.3256032185	 0.5006040057	 0.113697
H	-0.7443916542	-0.6742923604	 0.3528965854	 0.085262
145.9287	228.2813	292.9435	382.1747	443.143	575.5181	612.2029	673.227	724.2762	789.6497	820.9498	838.3849	878.9635	915.4664	931.5707	953.8619	967.8706	975.8782	994.627	1057.1349	1076.7231	1126.7493	1140.3887	1166.2066	1168.0126	1216.4624	1250.7211	1268.7947	1289.5335	1314.8539	1317.591	1347.8097	1371.5886	1473.5865	1484.7769	1498.2466	1659.191	1740.2183	2941.0654	2986.6226	2997.4731	3040.9227	3054.0596	3060.1353	3094.7393	3178.7519	3189.7997	3203.733
C1CC2C=CCC2=C1	C1C[C@H]2C=CCC2=C1	
InChI=1S/C8H10/c1-3-7-5-2-6-8(7)4-1/h1,3,6-7H,2,4-5H2	InChI=1S/C8H10/c1-3-7-5-2-6-8(7)4-1/h1,3,6-7H,2,4-5H2/t7-/m1/s1
