19
gdb 122925	4.7421	0.60043	0.57896	6.6626	74.3	-0.2558	0.0235	0.2793	1887.7764	0.158597	-456.331611	-456.321409	-456.320464	-456.367964	35.7	
O	-0.0450678153	 1.3334981553	-0.1014647881	-0.422025
C	 0.0061971828	-0.0880933578	-0.138730327	-0.088067
C	-1.4264809086	-0.585691354	-0.0441221249	-0.123185
N	-2.1933652888	-0.100737229	-1.1897783288	-0.316823
C	-3.6167917735	-0.40658374	-1.1467503441	-0.16741
C	-4.18043996	-0.2042352657	-2.5722939631	-0.01371
O	-3.3854392303	-0.885542232	-3.5123627437	-0.421711
C	-5.5662199149	-0.690908654	-2.6505732884	 0.28376
N	-6.6635216341	-1.0501794417	-2.6760950281	-0.31829
H	 0.8283900537	 1.6789735573	-0.3054537014	 0.295763
H	 0.4550127067	-0.4446827855	-1.0772477963	 0.10058
H	 0.5914591751	-0.4917773505	 0.7005541276	 0.097826
H	-1.4322803467	-1.681780912	-0.0452869388	 0.113576
H	-1.8521293498	-0.2534113434	 0.9179096573	 0.101484
H	-2.0448575603	 0.9028178464	-1.2542151785	 0.238051
H	-3.734630979	-1.4614256775	-0.8773562837	 0.130855
H	-4.1912900736	 0.1910066821	-0.4222882442	 0.112235
H	-4.2068967805	 0.8785269466	-2.7890906235	 0.109487
H	-2.4935836529	-0.8341906046	-3.1257789724	 0.287604
46.2223	68.3917	92.1486	133.0253	170.2734	232.4147	262.534	276.2884	338.6198	341.1934	458.7229	519.1015	552.2045	592.9859	603.4312	835.791	871.5019	896.7726	920.8817	967.3616	1035.6133	1067.5165	1102.1534	1130.517	1134.2827	1158.8324	1193.1237	1261.8339	1282.3692	1303.9787	1319.3713	1343.7836	1360.5278	1407.1792	1454.7767	1458.5827	1488.0767	1498.0559	1508.784	1512.9166	2366.3178	2946.5479	2963.9171	2988.2297	2989.7466	3028.3821	3062.8911	3079.474	3509.6275	3638.1734	3840.7633
OCCNCC(O)C#N	OCCNC[C@@H](O)C#N	
InChI=1S/C5H10N2O2/c6-3-5(9)4-7-1-2-8/h5,7-9H,1-2,4H2	InChI=1S/C5H10N2O2/c6-3-5(9)4-7-1-2-8/h5,7-9H,1-2,4H2/t5-/m0/s1
