15
gdb 125651	3.51024	1.62892	1.12036	3.0551	73.42	-0.2165	0.003	0.2195	1021.4618	0.11654	-413.024792	-413.01759	-413.016646	-413.056306	27.466	
C	-0.0174764883	 1.5204200627	-0.0911097302	-0.508493
C	-0.0066114253	 0.0323320694	 0.0422657889	 0.225042
N	-0.0338492598	-0.7508217811	-1.0410804868	-0.282503
N	-0.0155519301	-2.0433066143	-0.6121479893	-0.344169
C	 0.0236065201	-2.1013153872	 0.7426044735	 0.405701
C	 0.0302138668	-0.7904039223	 1.1917597595	 0.211501
N	 0.0700411836	-0.9149585291	 2.5708536457	-0.422686
C	 0.0838714453	-2.2661054118	 2.8296991942	 0.001376
N	 0.0566724392	-3.0247292278	 1.7490472511	-0.35747
H	 0.8768135293	 1.9730415798	 0.3530123398	 0.123964
H	-0.0498818866	 1.7917025399	-1.1481704649	 0.147406
H	-0.8882331384	 1.9647993707	 0.4050392401	 0.12393
H	-0.030974134	-2.7854913859	-1.2883937065	 0.273753
H	 0.0865443628	-0.185090585	 3.2612591111	 0.268604
H	 0.1145409154	-2.6410288181	 3.8426140338	 0.134045
124.2435	181.9275	254.3796	269.3624	347.017	402.2116	453.3007	530.0226	616.4023	646.6574	664.7562	704.3713	771.9997	821.648	837.9539	961.6638	995.3168	1064.9921	1088.4233	1117.8131	1158.5114	1214.5901	1300.7532	1354.5089	1391.7443	1414.2791	1428.2608	1479.4514	1483.7295	1495.2476	1531.4886	1566.3125	1619.0341	3027.6229	3075.3797	3133.7131	3247.4351	3684.2067	3694.4726
CC1=NNC2=C1NC=N2	Cc1n[nH]c2c1[nH]cn2	
InChI=1S/C5H6N4/c1-3-4-5(9-8-3)7-2-6-4/h2H,1H3,(H2,6,7,8,9)	InChI=1S/C5H6N4/c1-3-4-5(9-8-3)7-2-6-4/h2H,1H3,(H2,6,7,8,9)
