20
gdb 9900	4.50744	0.89116	0.84539	0.0593	86.03	-0.225	0.0588	0.2838	1481.0851	0.175397	-311.842519	-311.832968	-311.832024	-311.877936	34.357	
C	 0.2546795664	 1.4390297371	 0.2751043336	-0.361394
C	-0.2673643763	 0.0827712802	-0.2340151437	-0.316103
C	 0.4942741447	-0.4417630694	-1.3633546044	 0.084681
C	 1.1418770582	-0.8584908727	-2.2916251963	-0.007854
C	 1.891641254	-1.3387916926	-3.4247775649	 0.191604
C	 1.534149795	-0.6938023691	-4.7560744826	-0.455299
C	 3.3412069358	-1.7420872809	-3.1931121102	-0.287189
C	 2.3043495835	-2.8040166178	-3.4283489774	-0.286986
H	 1.2940007096	 1.3559482499	 0.6045878155	 0.125592
H	 0.2125514473	 2.1924007074	-0.516259657	 0.125989
H	-0.3480798439	 1.7900418708	 1.118406125	 0.110938
H	-0.2498509403	-0.6461545692	 0.5868249363	 0.125357
H	-1.3226267857	 0.1826956318	-0.5203085548	 0.125575
H	 1.7033357602	 0.3871870404	-4.7241134844	 0.123877
H	 2.1440980128	-1.1106536204	-5.5638068033	 0.109662
H	 0.4810055098	-0.862995842	-5.001846164	 0.124237
H	 4.0457480193	-1.523879803	-3.9887711617	 0.112641
H	 3.7393485123	-1.6281810437	-2.1920162346	 0.12071
H	 1.9960312971	-3.4137778615	-2.5876393044	 0.121159
H	 2.2971562803	-3.3151118753	-4.3853491166	 0.112804
21.2268	90.6485	99.6052	197.6532	216.0638	234.6763	308.1891	325.1603	337.8302	463.3613	525.9029	548.3357	597.5221	784.1771	784.3073	820.2055	838.5661	938.6998	946.9951	952.9003	1043.3409	1066.3516	1075.2244	1075.8127	1102.2484	1103.553	1115.9555	1193.2134	1286.7421	1293.0133	1336.859	1362.8338	1407.2647	1411.6338	1464.0083	1474.7694	1486.6255	1494.0322	1495.3878	1502.735	1505.9222	2358.1393	3015.7083	3032.419	3041.8137	3042.2886	3103.1053	3105.2825	3114.8873	3122.31	3133.4254	3138.3644	3219.2057	3233.8892
CCC#CC1(C)CC1	CCC#CC1(C)CC1	
InChI=1S/C8H12/c1-3-4-5-8(2)6-7-8/h3,6-7H2,1-2H3	InChI=1S/C8H12/c1-3-4-5-8(2)6-7-8/h3,6-7H2,1-2H3
