19
gdb 53687	1.87355	1.20934	0.88142	2.0883	79.15	-0.2319	-0.0091	0.2228	1403.6164	0.154644	-423.007657	-422.996541	-422.995597	-423.046514	36.953	
C	-1.4210454742	 0.2575724644	 0.4250370347	-0.500486
C	-0.6847015992	-0.988224348	 0.2706872684	 0.054091
C	-0.0782280377	-2.0206382706	 0.1362154464	 0.06766
C	 0.6370487849	-3.2825075024	-0.0577929347	-0.224334
O	-0.1676531414	-4.4487324589	 0.0627354794	-0.227416
C	-1.2175039408	-4.5361421126	-0.8811335312	-0.174752
C	-2.5720895843	-3.9997159281	-0.3962994017	 0.370431
C	-2.8264030854	-4.0325118707	 1.0953503739	-0.473139
O	-3.3979945772	-3.6405343277	-1.202536976	-0.300593
H	-1.0085179131	 1.0415031085	-0.2191356371	 0.154086
H	-2.4727640895	 0.1227213334	 0.1504524632	 0.163377
H	-1.3870099522	 0.6197763083	 1.458060473	 0.150829
H	 1.1313736665	-3.2714443403	-1.0427205928	 0.123143
H	 1.4214441762	-3.3970086609	 0.6976401292	 0.139107
H	-0.970578713	-4.0484134048	-1.8322166556	 0.122416
H	-1.3629529735	-5.6061714928	-1.0852991454	 0.130812
H	-3.8665147209	-3.7709044387	 1.2938092449	 0.132435
H	-2.5991823254	-5.024561416	 1.5004812026	 0.137212
H	-2.1579074699	-3.329097022	 1.5993976387	 0.15512
28.8129	33.6609	53.7376	84.2869	117.8368	138.619	204.1039	249.3558	316.2095	380.1668	387.6836	429.0471	493.1514	531.5788	558.5042	763.0034	771.5002	859.501	948.9015	1003.4004	1020.6428	1050.9322	1056.1195	1101.3344	1119.2235	1160.5023	1237.1954	1265.177	1312.2573	1360.6289	1378.7402	1394.4925	1413.7215	1456.3212	1458.7465	1471.254	1475.744	1477.2819	1479.0279	1816.4376	2364.2829	2975.4589	3011.5034	3031.053	3046.1304	3064.7849	3070.0947	3093.7486	3095.7676	3114.0068	3155.0342
CC#CCOCC(C)=O	CC#CCOCC(=O)C	
InChI=1S/C7H10O2/c1-3-4-5-9-6-7(2)8/h5-6H2,1-2H3	InChI=1S/C7H10O2/c1-3-4-5-9-6-7(2)8/h5-6H2,1-2H3
