17
gdb 128500	2.86681	1.23496	0.88895	4.1542	72.38	-0.2136	0.0058	0.2193	1287.6974	0.137758	-451.307457	-451.298595	-451.29765	-451.341726	31.366	
C	 0.8585869561	 1.4905464756	 0.1308422773	-0.240569
O	 0.3352187492	 0.1650072985	 0.1962169727	-0.275929
C	 0.2836111138	-0.4946724483	-0.9744334648	 0.311589
C	-0.1533854129	-1.7938012982	-1.1506022666	 0.237414
C	-0.688122609	-2.8491947862	-0.2410536821	-0.283112
N	-0.343574866	-4.1783412463	-0.7692777086	-0.523199
H	 0.646058344	-4.358575514	-0.6251605354	 0.237273
H	-0.8456272745	-4.8941171223	-0.253858205	 0.237597
H	-0.1921082983	-2.8141300912	-3.0015601552	 0.284582
N	-0.0107736586	-1.9641851454	-2.4896433559	-0.202898
N	 0.4799103896	-0.8815353031	-3.098377978	-0.139655
N	 0.65595968	 0.0287401256	-2.1666015683	-0.290111
H	 1.8851803034	 1.4908854996	-0.2495094361	 0.135835
H	 0.2471765141	 2.1234235229	-0.5200890284	 0.13798
H	 0.8358741261	 1.8692716491	 1.1536569505	 0.125852
H	-0.3274821582	-2.6451833785	 0.7784444612	 0.118457
H	-1.7841422489	-2.7915965079	-0.1969223972	 0.128893
62.6912	92.7523	150.4159	172.0332	204.4662	267.7929	306.838	344.9356	384.4844	592.7831	618.1334	642.5618	719.0697	751.3679	761.5346	872.4275	994.7129	1012.1102	1047.0282	1068.1378	1111.6135	1174.2554	1181.1091	1205.7705	1213.9227	1238.7562	1315.7194	1351.3408	1363.6033	1429.2389	1465.5421	1480.0467	1502.7758	1505.8397	1542.121	1647.7371	1659.8867	2989.4818	3025.4591	3034.5687	3102.1644	3143.9107	3493.2494	3575.3992	3648.9991
COC1=C(C[NH3+])N=N[N-]1	COc1c(CN)[nH]nn1	
InChI=1S/C4H7N4O/c1-9-4-3(2-5)6-8-7-4/h2,5H2,1H3/q-1/p+1	InChI=1S/C4H8N4O/c1-9-4-3(2-5)6-8-7-4/h2,5H2,1H3,(H,6,7,8)
