15
gdb 7576	3.09047	2.13862	1.55921	4.2409	57.07	-0.2723	0.0067	0.279	818.7869	0.119991	-436.949636	-436.942675	-436.941731	-436.980637	26.817	
O	 0.2045157438	 1.5476087731	-0.2201250404	-0.474391
C	-0.0343353994	 0.221386844	 0.0688653896	 0.271087
C	 0.0832455695	-0.2572469493	 1.5507927316	-0.227289
N	-1.0535597169	-1.1745586374	 1.2642278036	-0.350236
H	 0.0082614694	-2.1372682835	 0.0402091103	 0.318697
H	-1.7056003213	-1.3413662845	 2.0226289857	 0.238411
C	-1.5131593691	-0.2692685742	 0.1756564317	-0.227267
C	 0.7820305007	-0.6781640773	-0.8707764164	 0.402783
O	 1.5011709123	-0.191942978	-1.7099450862	-0.363923
O	 0.646259126	-1.9922117102	-0.7017433069	-0.374516
H	 0.8396680733	 1.537570899	-0.9574331246	 0.297608
H	 1.0033902847	-0.7460595193	 1.882573924	 0.123106
H	-0.1681659858	 0.5721012103	 2.2231359176	 0.121415
H	-2.1479921108	 0.5571855322	 0.5177488836	 0.121413
H	-1.9733002864	-0.768476895	-0.6815150933	 0.123101
121.7013	236.0856	238.5696	313.2555	382.1348	389.0347	478.0073	536.0395	564.3041	683.3811	752.9079	754.3136	859.0149	902.8456	947.7018	977.9767	980.4796	1023.9555	1037.4449	1104.0567	1143.3736	1207.2645	1233.2748	1237.6078	1285.938	1348.3311	1371.6972	1436.7045	1477.8082	1499.4024	1529.6841	1843.5856	3026.7252	3032.0532	3098.032	3098.1321	3332.7918	3534.8884	3649.3642
OC1(C[NH2+]C1)C([O-])=O	OC1(CNC1)C(=O)O	
InChI=1S/C4H7NO3/c6-3(7)4(8)1-5-2-4/h5,8H,1-2H2,(H,6,7)	InChI=1S/C4H7NO3/c6-3(7)4(8)1-5-2-4/h5,8H,1-2H2,(H,6,7)
