25
gdb 84124	2.28394	1.31858	1.0507	0.2568	94.89	-0.2234	0.0329	0.2564	1333.005	0.227702	-352.389949	-352.379752	-352.378808	-352.424029	40.023	
C	-0.1987469039	 1.5790511912	-0.0122987316	-0.411701
C	 0.0298884012	 0.0628843877	-0.0136154154	-0.028008
C	 0.8588305104	-0.4474109054	-1.1705231617	-0.173465
C	 1.6521889813	-1.4640091786	-0.8287790933	 0.319127
C	 2.5653717784	-2.2505507557	-1.7146610783	-0.493506
C	 1.4803643168	-1.7948465292	 0.6387378731	-0.333003
C	 0.7633063141	-0.5472990101	 1.2368373517	 0.299936
C	 1.8316068572	 0.4134100287	 1.7890463319	-0.420669
C	-0.2194248775	-0.9157450573	 2.3544108845	-0.442503
H	 0.7423429466	 2.1360208312	-0.0389159554	 0.117296
H	-0.7804962179	 1.8737879175	-0.8923395812	 0.10898
H	-0.7595286845	 1.9014306634	 0.8717868875	 0.11088
H	-0.966527219	-0.4059495078	-0.0706890948	 0.069707
H	 0.7685940142	-0.0409315769	-2.1738592816	 0.077054
H	 2.5482750214	-1.881831402	-2.744170445	 0.120239
H	 3.6015103636	-2.2101794462	-1.3542248084	 0.121882
H	 2.286215232	-3.3123739028	-1.7300684123	 0.122354
H	 0.8666436911	-2.7014354222	 0.7524694358	 0.093483
H	 2.4319482143	-2.0070371243	 1.1434452409	 0.089248
H	 2.5530020217	 0.6939343544	 1.0149057744	 0.114247
H	 1.38942578	 1.3310733747	 2.1886269755	 0.109386
H	 2.3842790301	-0.0668034123	 2.603932356	 0.105076
H	 0.2992760661	-1.3761766304	 3.2030387298	 0.107423
H	-0.7424719189	-0.0297170205	 2.7327210953	 0.109132
H	-0.9760279286	-1.6246762371	 2.0009728727	 0.107405
89.0779	148.5157	193.5351	228.836	239.267	257.9344	285.0191	300.7859	315.1836	342.5561	383.2804	430.2191	452.2366	511.8108	547.211	638.5527	716.34	841.2018	855.9739	890.1599	924.5132	935.3337	950.5417	967.7877	1015.1627	1019.8922	1041.2519	1056.3242	1085.5182	1123.2549	1146.4738	1180.6002	1220.7018	1225.8036	1266.9914	1288.7972	1326.2254	1345.1488	1362.9179	1397.5651	1405.7522	1414.1158	1420.6764	1479.0423	1481.9065	1486.2907	1489.554	1491.0076	1497.3208	1501.6634	1509.5788	1515.3364	1724.7443	2954.6153	2989.5286	3013.1146	3020.5748	3029.0947	3031.121	3034.4612	3057.036	3084.9496	3090.358	3092.0787	3095.5744	3106.1983	3106.4485	3108.7531	3170.2596
CC1C=C(C)CC1(C)C	C[C@H]1C=C(C)CC1(C)C	
InChI=1S/C9H16/c1-7-5-8(2)9(3,4)6-7/h5,8H,6H2,1-4H3	InChI=1S/C9H16/c1-7-5-8(2)9(3,4)6-7/h5,8H,6H2,1-4H3/t8-/m0/s1
