19
gdb 90687	3.84591	1.10201	1.01147	3.2884	77.45	-0.2304	-0.0117	0.2187	1260.2168	0.156999	-423.006385	-422.997338	-422.996393	-423.040574	33.348	
C	 0.1386524153	 1.5800229185	-0.1934203217	-0.402841
C	 0.0545368354	 0.0714829947	-0.1042578443	 0.139843
O	 1.1040555192	-0.5581576345	-0.9192951373	-0.288698
C	 1.7313351678	-1.0430447251	 0.246665722	 0.088678
C	 0.6677427028	-0.530890437	 1.1693821613	-0.178564
C	 0.8673441429	-2.0327567073	 1.0307453169	-0.164787
C	-0.0727148246	-2.999779004	 0.3842692854	 0.387057
C	 0.2391284131	-4.4663905304	 0.6364195145	-0.482121
O	-1.0070294069	-2.6602910601	-0.3095075085	-0.311767
H	 1.1264295047	 1.9391088969	 0.1118586544	 0.118935
H	-0.0473506996	 1.9058825433	-1.22090564	 0.131398
H	-0.6167349758	 2.0391368625	 0.4540903677	 0.117356
H	-0.9259044844	-0.3093536037	-0.3891206754	 0.12278
H	 2.8151165541	-1.0633776964	 0.2814295501	 0.109439
H	 0.7378000958	-0.0341487323	 2.1286016277	 0.101715
H	 1.4324627786	-2.4492371587	 1.8621197398	 0.094642
H	 0.1492777343	-4.6942858472	 1.7051865399	 0.136488
H	-0.4523461469	-5.0921323507	 0.0713432093	 0.141358
H	 1.270854774	-4.6954119385	 0.3469888582	 0.139089
47.6358	129.9112	141.1635	156.1288	235.6344	251.9202	289.4741	346.77	457.087	478.4571	629.1541	650.5537	749.2115	779.259	802.0077	858.0412	879.9098	902.9555	954.4078	984.7664	1012.1327	1035.6088	1045.0475	1067.6052	1094.6535	1102.0165	1139.6412	1150.9859	1191.5152	1248.4939	1297.126	1343.6101	1375.7158	1376.1351	1404.1863	1428.5285	1464.9374	1475.8474	1484.1857	1491.0176	1794.5808	3032.9217	3033.8753	3093.4156	3101.972	3113.7154	3133.958	3135.793	3152.9461	3171.8633	3195.993
CC1OC2C1C2C(C)=O	C[C@H]1O[C@H]2[C@@H]1[C@H]2C(=O)C	
InChI=1S/C7H10O2/c1-3(8)5-6-4(2)9-7(5)6/h4-7H,1-2H3	InChI=1S/C7H10O2/c1-3(8)5-6-4(2)9-7(5)6/h4-7H,1-2H3/t4-,5-,6+,7-/m1/s1
