17
gdb 73202	2.35913	1.51043	1.37548	2.1048	68.05	-0.2486	-0.0338	0.2148	1022.6284	0.134048	-458.927407	-458.919009	-458.918064	-458.960822	30.934	
O	 0.3791697401	 1.2908258617	 0.0557126172	-0.477175
C	 0.0694494985	-0.0660134003	 0.0707464287	 0.338031
C	 0.2605698639	-0.8728916952	-1.2365207106	-0.142012
O	-1.1269466161	-1.2982022531	-1.2254032189	-0.287087
C	-1.3919510712	-0.5805760627	-0.0109659431	 0.078477
C	-1.177980816	-1.4557013071	 1.2553762882	-0.278008
C	 0.263925655	-0.8507551348	 1.3968772048	-0.163168
C	 1.4443395231	-1.7649584501	 1.5529904808	 0.13632
O	 2.4408711465	-1.7027347401	 0.8738836212	-0.253185
H	 1.3393160204	 1.3779199969	 0.0236727126	 0.290208
H	 0.4713184859	-0.2227538828	-2.0937102098	 0.107957
H	 0.9617712032	-1.7113062353	-1.2215841678	 0.120487
H	-2.2774057336	 0.0558995565	-0.0641754433	 0.091103
H	-1.8401549345	-1.2388615616	 2.0952600403	 0.114924
H	-1.2171418095	-2.5227628003	 1.0267631921	 0.121956
H	 0.286176535	-0.1409057313	 2.2334471732	 0.116533
H	 1.3493857593	-2.5271980503	 2.3602182746	 0.084639
68.8795	94.9415	160.0132	222.8773	247.7192	312.3315	380.7697	414.922	429.9058	597.581	620.1163	709.0981	758.7995	841.9933	887.0603	928.398	933.7015	995.3936	1004.8585	1014.4386	1050.6884	1094.73	1140.2782	1144.1096	1167.8461	1181.4864	1204.3315	1250.6087	1269.6022	1298.6403	1322.483	1334.1076	1399.4046	1417.5142	1475.4879	1517.6368	1810.176	2869.7112	3032.6669	3038.0127	3073.755	3096.0451	3101.9769	3135.1926	3789.8991
OC12COC1CC2C=O	O[C@]12CO[C@H]1C[C@H]2C=O	
InChI=1S/C6H8O3/c7-2-4-1-5-6(4,8)3-9-5/h2,4-5,8H,1,3H2	InChI=1S/C6H8O3/c7-2-4-1-5-6(4,8)3-9-5/h2,4-5,8H,1,3H2/t4-,5-,6-/m0/s1
