19
gdb 39101	3.42077	1.65898	1.42938	2.3032	73.69	-0.2342	0.0802	0.3145	954.0746	0.162418	-422.992465	-422.985693	-422.984749	-423.023696	27.81	
C	-0.075336989	 1.5571502594	 0.0606371073	-0.281351
C	 1.4407066407	 1.3453260314	-0.049031306	 0.055492
O	 1.7639018655	 0.6485415993	 1.1787834964	-0.289497
C	 0.685781734	-0.3288397537	 1.2969023632	-0.162721
C	-0.0471645565	-0.0194988412	 0.0035812418	 0.288937
C	-1.0843191378	-0.7877335587	-0.7774227861	-0.382737
C	-0.7472518665	-0.340786654	-2.2353935448	-0.069483
O	 0.544934068	 0.3035095709	-2.2303603995	-0.288803
C	 1.1524298214	 0.1328438792	-0.9736726027	 0.120973
H	-0.445884153	 2.0251160864	 0.9750635079	 0.097757
H	-0.5209906698	 2.0054150778	-0.825260186	 0.117767
H	 2.1808669422	 2.1235031263	-0.2249926097	 0.080868
H	 1.1044105026	-1.3410976262	 1.3345276845	 0.103115
H	 0.1138669259	-0.1413233949	 2.2128947205	 0.10169
H	-0.9426219494	-1.8674811161	-0.6576856323	 0.11019
H	-2.1181178596	-0.5521083615	-0.5114260738	 0.111888
H	-0.7254461708	-1.192478763	-2.9257800888	 0.106325
H	-1.4772101741	 0.3820525488	-2.6158246727	 0.110171
H	 1.9321133662	-0.6394330501	-0.9895748893	 0.06942
75.7675	252.8038	310.0827	355.2505	407.2411	458.9453	535.1648	657.6143	693.9326	731.2246	824.0812	856.726	874.9856	883.8964	921.4523	930.261	957.3921	972.3215	987.5292	1009.6415	1033.0692	1077.3024	1103.6453	1132.9389	1159.9971	1183.684	1190.147	1222.8083	1233.7123	1242.5587	1253.2898	1272.5615	1279.7371	1317.2631	1351.4513	1374.6504	1397.0687	1480.7795	1492.1925	1526.3703	1530.9211	3022.1348	3024.7341	3028.4493	3045.9701	3063.685	3065.6111	3082.6606	3100.5821	3143.051	3164.1348
C1C2OCC11CCOC21	C1[C@H]2OC[C@]31CCO[C@@H]23	
InChI=1S/C7H10O2/c1-2-8-6-5-3-7(1,6)4-9-5/h5-6H,1-4H2	InChI=1S/C7H10O2/c1-2-8-6-5-3-7(1,6)4-9-5/h5-6H,1-4H2/t5-,6+,7-/m1/s1
