18
gdb 9274	6.70684	0.77626	0.72647	1.5895	70.39	-0.2576	0.0515	0.3091	1507.7698	0.151327	-384.901545	-384.892097	-384.891152	-384.936052	34.053	
O	 0.0996929892	 1.4236798576	-0.127758009	-0.42309
C	 0.1032453922	 0.0224951244	 0.0293345028	-0.066841
C	-1.3241921928	-0.5277492911	 0.0769449699	 0.096651
O	-2.0438633157	-0.0483232279	-1.068140991	-0.43894
C	-1.3785367571	-2.0494240082	 0.1947340009	-0.207743
C	-2.821319376	-2.5830932277	 0.3035468659	-0.354977
C	-2.8852259785	-4.0381015465	 0.3427100025	 0.290225
C	-2.9082606937	-5.2396031029	 0.370913443	-0.434705
H	-0.6054136739	 1.6076400284	-0.7623237897	 0.284949
H	 0.6518557685	-0.4764504364	-0.7919599222	 0.072189
H	 0.6333366522	-0.2060531733	 0.9604834495	 0.109244
H	-1.840973427	-0.0664410071	 0.9275367691	 0.099444
H	-1.6875333703	-0.4977429311	-1.8447546408	 0.283403
H	-0.8887278596	-2.5029995787	-0.6775021835	 0.103829
H	-0.8022598494	-2.3674815937	 1.0709224113	 0.118087
H	-3.2932134574	-2.1694376029	 1.2043642484	 0.132575
H	-3.404911645	-2.203368316	-0.5427865118	 0.141003
H	-2.9445087156	-6.3003157467	 0.3979966747	 0.194696
58.489	92.1126	111.5338	151.6741	211.9685	288.0491	343.1389	353.5195	374.5132	446.9178	493.9143	519.2632	601.6316	618.434	639.3107	768.6851	859.745	944.3031	950.908	1019.479	1062.8868	1089.1463	1097.7976	1115.1227	1167.1859	1211.3854	1255.9868	1289.3146	1324.0222	1339.5045	1380.3266	1390.6043	1422.1633	1444.5977	1473.895	1488.9658	1507.689	2239.6838	2926.8515	3018.3068	3028.1133	3045.8073	3058.9275	3068.0073	3082.8147	3507.3291	3763.8287	3777.1912
OCC(O)CCC#C	OC[C@@H](O)CCC#C	
InChI=1S/C6H10O2/c1-2-3-4-6(8)5-7/h1,6-8H,3-5H2	InChI=1S/C6H10O2/c1-2-3-4-6(8)5-7/h1,6-8H,3-5H2/t6-/m0/s1
