17
gdb 47849	2.38472	1.70444	1.2555	2.3056	69.83	-0.2404	-0.0188	0.2216	1021.8184	0.137812	-455.161169	-455.153335	-455.152391	-455.19373	29.683	
O	 0.0212704104	 0.6472150467	 1.2072157098	-0.288484
C	-0.0724522743	 1.2507074346	 0.1808381082	 0.371299
C	-1.4363124492	 1.6306273582	-0.4323974221	-0.277528
N	-1.5703016169	 2.7435231978	-1.3373414372	-0.26573
C	-1.2438857653	 4.0540712621	-0.8043210669	-0.165614
C	 0.1888385174	 4.183925068	-0.2255781634	-0.194426
N	 1.1514900606	 3.7537424407	-1.2139108723	-0.217182
C	 1.4219316152	 2.5325406639	-1.3495560374	 0.112407
O	 1.0696428612	 1.4434213799	-0.5800102523	-0.216839
H	-1.7704570151	 0.7187284417	-0.9437052755	 0.148235
H	-2.1024527037	 1.7625210326	 0.4262251728	 0.147903
H	-1.0966040119	 2.5766150015	-2.2157882698	 0.23466
H	-1.3712527466	 4.7813386021	-1.6111219634	 0.121976
H	-1.9619173999	 4.3085049468	-0.0153787602	 0.115592
H	 0.3779997806	 5.2333125618	 0.0195809291	 0.114351
H	 0.2639718521	 3.615830171	 0.7141120102	 0.123314
H	 2.1217739554	 2.1974633305	-2.1119588597	 0.136066
89.6045	102.1054	242.7614	266.2204	297.6373	336.505	437.343	507.3839	524.8066	590.8907	645.4302	672.3686	750.845	798.5063	858.9554	864.2376	953.2425	956.7351	1010.5308	1066.3182	1095.7377	1102.5865	1146.3137	1206.2413	1239.8341	1261.2869	1332.71	1351.0926	1362.7593	1388.0114	1424.6059	1446.2676	1480.3257	1508.2051	1522.2784	1729.5923	1853.6986	2993.3208	3035.4023	3039.2128	3076.8102	3090.5943	3098.6566	3167.8993	3566.4399
O=C1CNCCN=CO1	O=C1CNCCN=CO1	
InChI=1S/C5H8N2O2/c8-5-3-6-1-2-7-4-9-5/h4,6H,1-3H2/b7-4-	InChI=1S/C5H8N2O2/c8-5-3-6-1-2-7-4-9-5/h4,6H,1-3H2/b7-4-
