16
gdb 27673	2.82156	1.28263	0.88806	5.859	83.56	-0.1986	-0.0064	0.1922	1252.0272	0.125559	-396.992129	-396.983201	-396.982256	-397.025735	32.556	
C	 0.0224607867	 1.5338584399	 0.0353322593	-0.517054
C	 0.0010321678	 0.037985836	 0.0283850616	 0.221791
C	-0.0241957975	-0.7716581182	-1.097289019	 0.121684
N	-0.0121564529	-2.0988321605	-0.6665621827	-0.368668
C	 0.0137440659	-2.1294779046	 0.6939712131	 0.339866
N	-0.0539507447	-3.3430116404	 1.3762692527	-0.607175
C	 0.0296487177	-0.8236708224	 1.1551785319	-0.298022
C	-0.0397464297	-0.4343581	-2.4613976701	 0.188845
N	-0.0564392821	-0.1608711206	-3.590423784	-0.370745
H	 0.925903953	 1.9180374446	 0.5222215032	 0.132614
H	-0.0070265915	 1.9331174892	-0.9814955902	 0.145294
H	-0.8354878361	 1.9399342284	 0.5827494681	 0.133608
H	-0.1444400817	-2.8962359979	-1.2650126366	 0.271908
H	 0.6191387486	-4.0300961489	 1.0568665494	 0.253086
H	 0.0406634888	-3.2191092043	 2.3750798207	 0.258468
H	 0.0751985276	-0.5240935902	 2.1913276726	 0.094499
96.8899	135.0979	136.4811	190.463	211.3072	266.2194	316.8382	398.5562	442.7544	515.6143	546.6501	576.0432	627.4096	661.208	675.7932	736.1634	777.805	804.1585	1003.0961	1038.1206	1060.8815	1111.6141	1154.3983	1206.0526	1249.561	1344.4344	1416.1551	1451.2741	1483.1539	1486.6068	1508.6119	1562.7895	1628.0878	1660.6272	2316.062	3031.5238	3082.2612	3120.9356	3244.3428	3530.0567	3631.9049	3675.8747
CC1=C(NC(N)=C1)C#N	Cc1c([nH]c(N)c1)C#N	
InChI=1S/C6H7N3/c1-4-2-6(8)9-5(4)3-7/h2,9H,8H2,1H3	InChI=1S/C6H7N3/c1-4-2-6(8)9-5(4)3-7/h2,9H,8H2,1H3
