20
gdb 39349	2.68924	1.82275	1.33158	2.4884	77.94	-0.2354	0.0755	0.3109	1010.7336	0.17447	-403.14093	-403.133683	-403.132739	-403.172608	29.364	
C	 0.036389821	 1.5647366988	-0.1741843799	-0.209665
C	 1.2955249615	 2.0067726326	 0.6085280292	-0.233268
C	 2.3167317747	 0.8711055928	 0.4136738435	 0.1035
O	 3.2640381866	 1.1716739997	-0.61694052	-0.282777
C	 3.461492051	 0.0160380908	-1.4364455695	-0.078244
C	 2.2054253653	-0.8251224805	-1.2902442331	-0.123776
N	 2.1445323535	-1.6141892347	-0.0306331048	-0.409552
C	 1.4861833436	-0.3056485328	-0.1076016847	 0.346315
C	 0.0150301352	 0.0292332188	-0.0110883026	-0.329089
H	-0.8777117581	 2.047051327	 0.1813168899	 0.096706
H	 0.1509481357	 1.8140555782	-1.234846286	 0.108412
H	 1.7006503067	 2.9647686294	 0.275533542	 0.112892
H	 1.0575840233	 2.0972782277	 1.6743819933	 0.098143
H	 2.8531141136	 0.6214337871	 1.3384693929	 0.072863
H	 3.6143683015	 0.3551037335	-2.4665183766	 0.102516
H	 4.3498708942	-0.5443556775	-1.1118568373	 0.102084
H	 1.6824809057	-1.1924369792	-2.1671681718	 0.093901
H	 1.4502668618	-2.3531993407	-0.1380281187	 0.226785
H	-0.3763840738	-0.2443172401	 0.9780544322	 0.104734
H	-0.5954071931	-0.4833372209	-0.7608802481	 0.097519
94.1874	163.534	221.2988	352.1176	364.7178	438.072	517.4896	575.704	612.2849	693.81	794.8632	809.0222	849.029	864.7212	904.3206	915.7737	934.7939	951.1738	973.8658	1003.1993	1032.2985	1037.9494	1063.0723	1074.6519	1117.2519	1156.3293	1184.3285	1189.8416	1237.0117	1240.599	1280.6451	1303.9847	1311.1511	1330.7005	1336.7663	1356.7986	1362.2088	1388.7212	1449.8719	1474.914	1487.9974	1501.3627	1506.6064	3001.7936	3013.1629	3019.2413	3045.7573	3048.9774	3069.1635	3079.6265	3099.525	3113.4572	3166.3954	3467.1976
C1CC2OCC3NC23C1	C1C[C@@H]2OC[C@H]3N[C@@]23C1	
InChI=1S/C7H11NO/c1-2-6-7(3-1)5(8-7)4-9-6/h5-6,8H,1-4H2	InChI=1S/C7H11NO/c1-2-6-7(3-1)5(8-7)4-9-6/h5-6,8H,1-4H2/t5-,6+,7-/m1/s1
