18
gdb 8836	3.75276	1.30911	0.98841	0.8512	72.1	-0.2589	-0.0192	0.2398	1174.5614	0.153464	-381.156664	-381.147697	-381.146752	-381.190461	31.943	
C	-0.2371314631	 1.6515660918	 0.0357475594	-0.375525
C	-0.1627058624	 0.1247129743	 0.064637716	-0.273799
C	-1.5256428097	-0.545328501	 0.0206095038	 0.408903
N	-2.5670141901	 0.1846209799	-0.0337081649	-0.508312
N	-1.55913583	-1.9600208099	 0.0428762627	-0.129536
C	-2.8533536111	-2.6358620753	 0.0017213761	-0.374409
C	-0.4291972424	-2.7589524042	 0.1025097724	 0.161509
O	-0.4475349236	-3.9687275724	 0.1223350135	-0.3234
H	 0.7732019359	 2.069799197	 0.0700664177	 0.106049
H	-0.7327473467	 2.004061811	-0.8708110287	 0.135956
H	-0.8048737012	 2.0337499164	 0.8862148058	 0.136003
H	 0.4390589569	-0.2317856986	-0.7808707981	 0.126463
H	 0.3678860286	-0.2022111311	 0.9677963644	 0.126469
H	-3.4295576907	-0.3551285691	-0.0598220247	 0.218959
H	-3.3927416714	-2.3853383823	-0.9171365448	 0.141421
H	-2.6597617964	-3.7064965404	 0.0277548435	 0.176796
H	-3.4651209616	-2.355109013	 0.864797545	 0.141423
H	 0.506445879	-2.1864214229	 0.1308196808	 0.10503
57.6875	106.5952	170.6546	212.6984	221.7486	236.3366	321.1712	334.5576	390.4235	422.2036	510.3962	551.5072	692.0625	825.589	830.4765	893.2469	925.8132	1021.3072	1026.2356	1080.6829	1101.6047	1114.6069	1154.9644	1214.7904	1301.9762	1304.4751	1352.1644	1403.5126	1415.2495	1442.2429	1450.6915	1479.3063	1488.5897	1498.7269	1505.3526	1512.6222	1705.9188	1795.6879	3022.6698	3039.2829	3054.5574	3055.866	3061.3018	3099.307	3126.9554	3142.3936	3173.9143	3512.8536
CCC(=N)N(C)C=O	CCC(=N)N(C)C=O	
InChI=1S/C5H10N2O/c1-3-5(6)7(2)4-8/h4,6H,3H2,1-2H3	InChI=1S/C5H10N2O/c1-3-5(6)7(2)4-8/h4,6H,3H2,1-2H3
