16
gdb 57137	4.32337	0.69739	0.64505	3.4592	84.36	-0.2557	-0.0489	0.2068	1671.0228	0.12535	-396.875656	-396.866623	-396.865679	-396.910333	32.174	
N	-0.5526298993	 1.0845543021	 0.1398194975	-0.505441
C	-0.3007772774	-0.346663403	-0.0751792342	-0.227519
C	 0.580891782	-0.6187503606	-1.2149423486	 0.151308
C	 1.3260094893	-0.806803326	-2.1488553154	-0.000932
C	 2.1629531265	-1.0158508488	-3.2067864794	 0.209285
N	 2.8745010677	-1.191446529	-4.10830829	-0.333767
C	 0.2429272804	-1.0170360589	 1.1933119242	 0.039412
C	 1.0974712694	-0.2788673708	 2.1509515996	-0.235083
N	-0.2976226224	-0.6208432213	 2.4913681661	-0.322517
H	 0.3060006091	 1.6139755882	 0.0241831154	 0.248222
H	-1.2025500584	 1.4315865017	-0.5572646306	 0.251771
H	-1.2741855969	-0.8101564123	-0.2868263806	 0.136089
H	 0.3951266726	-2.0866678951	 1.0712311396	 0.109005
H	 1.8573093718	-0.8114677408	 2.7146561574	 0.126484
H	 1.3311140074	 0.7621647814	 1.9472794904	 0.110268
H	-0.8654284021	 0.2144625931	 2.3473917987	 0.243415
54.1787	77.7543	125.4991	201.9776	250.8053	273.7417	287.5185	346.9656	404.432	514.4565	568.9095	588.3786	615.6345	750.1568	786.5546	875.5156	893.3056	917.7245	976.2008	996.0144	1091.6717	1125.9196	1152.2396	1160.187	1181.249	1222.8283	1284.6042	1306.4478	1313.3881	1395.5783	1410.7276	1507.9223	1662.0324	2257.9465	2394.7996	3018.8643	3117.5693	3139.8549	3201.8364	3470.1933	3510.7707	3589.9553
NC(C#CC#N)C1CN1	N[C@@H](C#CC#N)[C@H]1CN1	
InChI=1S/C6H7N3/c7-3-1-2-5(8)6-4-9-6/h5-6,9H,4,8H2	InChI=1S/C6H7N3/c7-3-1-2-5(8)6-4-9-6/h5-6,9H,4,8H2/t5-,6+/m0/s1
