18
gdb 52337	10.60657	0.4818	0.47729	2.5882	81.55	-0.2405	-0.0401	0.2004	2237.3936	0.144121	-439.064851	-439.055043	-439.054099	-439.102074	33.293	
O	-0.154984757	 0.230453634	 0.6032799242	-0.229889
C	 0.0618842577	 1.275584005	 0.0530616565	 0.141423
C	 1.4403601368	 1.6797660734	-0.4478645372	-0.163726
O	 1.2986799925	 2.8314561077	-1.2571986035	-0.209851
C	 2.3713238557	 3.655331436	-1.3465386808	 0.115426
N	 2.3687914137	 4.6105999152	-2.1623966345	-0.20981
C	 3.4972615603	 5.4731957325	-2.1967074356	 0.073099
C	 3.8799740694	 6.0561096052	-3.5378483979	-0.271729
C	 3.2425336273	 6.9332501466	-2.4950013189	-0.271935
H	-0.7229627429	 2.0414948239	-0.1271272563	 0.108151
H	 2.0800944226	 1.8742930988	 0.4262316396	 0.137764
H	 1.88212099	 0.8450063566	-1.0074640615	 0.145453
H	 3.1881069478	 3.4125539562	-0.6503425405	 0.081567
H	 4.3144998984	 5.2487002171	-1.5074108061	 0.074158
H	 4.9354797834	 6.1809261631	-3.7519199565	 0.113181
H	 3.2721020544	 5.7559824809	-4.3828111781	 0.126752
H	 2.2082538312	 7.2197473997	-2.6423429982	 0.126734
H	 3.8548150988	 7.6677050984	-1.9839309148	 0.113232
21.8748	49.5671	65.6158	112.1561	133.8679	238.4426	244.9012	296.2706	440.4937	454.5802	500.3971	621.1535	736.9735	776.4544	822.0551	875.5843	921.0183	981.7165	989.4962	1034.5046	1057.5997	1071.9435	1089.5592	1112.1545	1119.5707	1198.2349	1203.9118	1213.2743	1234.414	1267.2908	1342.8488	1375.2571	1404.0598	1432.8249	1456.8599	1472.1079	1497.2804	1771.7834	1846.5139	2912.2532	2994.501	3005.2378	3050.108	3066.0285	3139.5779	3143.6169	3226.0048	3239.8267
O=CCOC=NC1CC1	O=CCOC=NC1CC1	
InChI=1S/C6H9NO2/c8-3-4-9-5-7-6-1-2-6/h3,5-6H,1-2,4H2	InChI=1S/C6H9NO2/c8-3-4-9-5-7-6-1-2-6/h3,5-6H,1-2,4H2
