18
gdb 22431	4.53073	1.13407	1.08035	0.8268	82.24	-0.2447	0.0034	0.248	1153.258	0.147779	-401.785405	-401.778021	-401.777077	-401.817114	29.989	
O	-0.1354129049	 1.4253965781	 0.180822359	-0.38983
N	 0.081972904	 0.0349059395	 0.1544905049	-0.249943
C	-1.0009005062	-0.5943716638	-0.0197956209	 0.368172
C	-2.490563173	-0.2085012069	-0.2532494231	-0.414436
C	-2.592627728	-1.6476412063	-0.8238891642	 0.280349
C	-3.0518014048	-3.1413569572	-0.8367488428	-0.30958
C	-1.5058654008	-3.1263597153	-1.2314149652	-0.074096
C	-1.8337683349	-1.9424586722	-2.159202498	-0.240746
C	-1.3249184818	-2.0929713526	-0.0641989459	-0.090122
H	 0.7560982179	 1.7665674411	 0.310801484	 0.307275
H	-3.0106204323	-0.0584260697	 0.6988774017	 0.127354
H	-2.699978952	 0.6328033618	-0.9175892576	 0.127381
H	-3.3037585713	-3.5799444379	 0.1320432624	 0.10066
H	-3.7427853675	-3.466915258	-1.6201305994	 0.097634
H	-0.9003165116	-4.0068427656	-1.4615964579	 0.075844
H	-2.4593119133	-2.1517771522	-3.0305908277	 0.089264
H	-1.0055556373	-1.276083618	-2.4104526965	 0.109085
H	-1.4821624721	-2.4916414849	 0.9435190774	 0.085733
89.9572	186.7708	273.0284	338.561	389.1196	399.7693	465.2491	493.9618	559.5092	653.2711	694.1764	752.4681	801.0577	840.5839	860.8756	885.0442	924.8142	972.6991	981.2494	994.8693	1012.8269	1022.3594	1076.1109	1090.3305	1116.8163	1129.9346	1139.9177	1183.0726	1194.7404	1198.8236	1214.7969	1230.7963	1254.7528	1330.9612	1397.1679	1461.5242	1495.1773	1532.5024	1770.4345	3046.3635	3048.3072	3053.6456	3057.2422	3077.6081	3115.7095	3119.1769	3123.9656	3815.3406
ON=C1CC23CC(C2)C13	ON=C1C[C@@]23C[C@@H](C2)[C@@H]13	
InChI=1S/C7H9NO/c9-8-5-3-7-1-4(2-7)6(5)7/h4,6,9H,1-3H2	InChI=1S/C7H9NO/c9-8-5-3-7-1-4(2-7)6(5)7/h4,6,9H,1-3H2/t4-,6-,7+/m0/s1
