23
gdb 58761	2.96551	1.28404	1.23254	0.2209	89.48	-0.2209	0.0176	0.2385	1184.4375	0.206204	-351.131343	-351.122637	-351.121693	-351.164262	35.197	
C	 0.0548710428	 1.5054383334	-0.1260486985	-0.394052
C	 0.0199371398	-0.0192592957	 0.0596736237	-0.089512
C	 0.7671376795	-0.4427534101	 1.3335507419	-0.394051
C	-1.4039809481	-0.5556263607	 0.03863213	 0.346394
C	-2.3274306315	-0.4592912885	-1.2346390898	-0.259914
C	-3.1272312327	-1.5593163925	-0.4599912868	-0.08018
C	-1.7286771883	-2.0969599391	-0.0074496978	-0.259911
C	-3.5346163228	-0.7700291584	 0.7920754554	-0.095394
C	-2.4175976031	-0.1164124742	 1.1193062301	-0.118645
H	 1.0866560362	 1.8698332013	-0.1655238733	 0.108464
H	-0.4440281402	 1.8077562074	-1.0521169511	 0.11588
H	-0.4452975285	 2.0180613522	 0.7033869327	 0.11334
H	 0.543023941	-0.4692903526	-0.7962683564	 0.065649
H	 0.7767402257	-1.5310595709	 1.4492905567	 0.115881
H	 1.8061192221	-0.0980310329	 1.3089307401	 0.108463
H	 0.2988503344	-0.017609697	 2.2284664239	 0.113341
H	-2.83411698	 0.4902933114	-1.4229161793	 0.090263
H	-1.8418120796	-0.8311387897	-2.1439456852	 0.086639
H	-3.8683834274	-2.1938221858	-0.9451176316	 0.057708
H	-1.1861280086	-2.6245336877	-0.8000662349	 0.086638
H	-1.6849869795	-2.6527089381	 0.9322968437	 0.090263
H	-4.506290417	-0.7704380219	 1.2656277692	 0.096156
H	-2.2273743242	 0.5652982901	 1.9362278872	 0.096581
75.0147	169.1492	194.8983	220.027	250.2145	305.9882	381.251	449.7929	479.4686	528.1323	545.3203	606.4467	697.6604	731.1387	838.6917	839.9706	872.0355	902.2214	904.5334	914.4068	927.9542	945.252	966.5746	967.3661	1018.2974	1054.0939	1071.0266	1083.0963	1098.3208	1131.0351	1161.6663	1174.1953	1197.0187	1223.9344	1228.8129	1258.1227	1283.7354	1349.7855	1349.8236	1364.7771	1398.2888	1419.392	1477.305	1487.1177	1491.4048	1502.3482	1510.1946	1512.862	1627.6589	2997.1709	3027.6437	3031.1737	3032.0737	3043.1341	3092.5891	3098.6214	3101.0787	3103.4061	3108.1879	3112.9546	3118.9553	3215.4257	3242.9193
CC(C)C12CC(C1)C=C2	CC(C)[C@@]12C[C@@H](C1)C=C2	
InChI=1S/C9H14/c1-7(2)9-4-3-8(5-9)6-9/h3-4,7-8H,5-6H2,1-2H3	InChI=1S/C9H14/c1-7(2)9-4-3-8(5-9)6-9/h3-4,7-8H,5-6H2,1-2H3/t8-,9-
