18
gdb 104381	2.58973	1.51097	1.20563	3.5745	67.4	-0.2439	-0.0021	0.2418	1069.4027	0.149192	-476.259372	-476.250893	-476.249949	-476.292254	32.227	
N	-0.0973075328	 1.4300825214	-0.0260837196	-0.539735
C	-0.0350371583	-0.033338593	 0.0804327587	 0.099591
C	 0.7053463165	-0.3778465398	 1.3812827613	-0.090832
O	 1.9955307688	 0.1944616776	 1.4054962111	-0.42877
C	-1.4209164317	-0.6709726953	-0.0615501407	-0.271486
C	-1.5265121757	-0.9267820477	-1.5728873354	-0.100026
O	-0.1699546533	-1.101922975	-2.0379241134	-0.218225
C	 0.7116663511	-0.6463885571	-1.1206177648	 0.427411
O	 1.9040874674	-0.7103760199	-1.2876154092	-0.372628
H	 0.8290494674	 1.7933888893	 0.1863829418	 0.24898
H	-0.3307695998	 1.7304407388	-0.9682228625	 0.231462
H	 0.1517683871	 0.0439548074	 2.2264126922	 0.119026
H	 0.7380772224	-1.4720441324	 1.5011040602	 0.091249
H	 2.4509513543	-0.1355709769	 0.6152494549	 0.300683
H	-1.4574340877	-1.6214104371	 0.4809148054	 0.117443
H	-2.2096188999	-0.018791629	 0.3153651404	 0.129293
H	-2.0800433522	-1.8309682241	-1.8322872833	 0.132925
H	-1.9675888635	-0.0814502671	-2.1124795472	 0.12364
94.7638	177.6495	190.3111	206.6144	273.5637	292.328	326.5067	386.0692	410.816	538.8755	604.1057	669.5055	682.5145	731.8103	763.5963	841.5153	894.3462	937.7492	962.2082	1023.4593	1031.9096	1050.9603	1086.4601	1092.7986	1180.0773	1214.7182	1227.6158	1235.8343	1282.6159	1299.2666	1367.8658	1390.8875	1407.2395	1462.5933	1481.0691	1497.164	1527.487	1645.4336	1833.1224	2983.752	3047.9059	3056.6324	3079.6978	3115.0804	3133.156	3481.129	3564.3206	3702.453
NC1(CO)CCOC1=O	N[C@@]1(CO)CCOC1=O	
InChI=1S/C5H9NO3/c6-5(3-7)1-2-9-4(5)8/h7H,1-3,6H2	InChI=1S/C5H9NO3/c6-5(3-7)1-2-9-4(5)8/h7H,1-3,6H2/t5-/m1/s1
