15
gdb 49261	2.84993	1.35672	0.92578	5.0411	72.09	-0.2321	-0.0703	0.1618	1175.6041	0.114072	-454.015278	-454.007246	-454.006302	-454.048782	29.016	
O	 0.0052862044	-0.0182486531	 0.0118175898	-0.281359
C	 0.0175344803	 1.1914633534	-0.0121157767	 0.100142
C	 1.261471878	 1.9809925249	 0.0194310189	 0.302215
C	 1.2485209345	 3.3221061012	-0.0142132195	-0.168203
C	 2.5271662202	 4.0997094766	 0.0361300038	-0.199541
N	 3.669949388	 3.2109727823	-0.138265748	-0.364107
C	 3.6918306936	 1.8403804659	-0.0274320656	 0.457077
O	 4.7150146031	 1.1875692735	-0.0509943263	-0.398148
N	 2.4377867267	 1.2581413384	 0.0901985616	-0.442694
H	-0.9121013915	 1.7935045383	-0.058602132	 0.09269
H	 0.3083316954	 3.8574178679	-0.0580006506	 0.11518
H	 2.5346516995	 4.8650722519	-0.7536246509	 0.128826
H	 2.590769402	 4.65122219	 0.9910079871	 0.125716
H	 4.5918009729	 3.6156962936	-0.1679201938	 0.257984
H	 2.3842297628	 0.2507818649	 0.0758888522	 0.274223
50.949	117.8821	132.2098	186.2558	313.184	413.8353	484.0836	493.9039	537.0578	547.8458	610.6131	640.528	752.4749	762.5771	780.6621	923.0232	985.0559	1014.521	1022.7748	1052.1561	1141.2363	1193.0557	1237.6595	1307.43	1324.8229	1402.8163	1429.1882	1485.8237	1497.0616	1526.8447	1727.729	1787.9525	1821.9077	2933.2145	2937.9033	2996.7281	3213.1621	3636.2932	3649.5333
O=CC1=CCNC(=O)N1	O=CC1=CCNC(=O)N1	
InChI=1S/C5H6N2O2/c8-3-4-1-2-6-5(9)7-4/h1,3H,2H2,(H2,6,7,9)	InChI=1S/C5H6N2O2/c8-3-4-1-2-6-5(9)7-4/h1,3H,2H2,(H2,6,7,9)
