23
gdb 84924	2.16406	1.5487	1.07946	0.1138	93.38	-0.2262	0.0217	0.2479	1245.1445	0.206787	-351.171249	-351.161942	-351.160998	-351.204893	36.167	
C	-0.5263147297	 1.3777758898	 0.1058755771	-0.385759
C	 0.0229545233	-0.0684162945	-0.0255167442	-0.107993
C	 0.6384493167	-0.2630204387	-1.3958961746	-0.064577
C	 1.8621224637	 0.0879522892	-1.7839884419	-0.057327
C	 2.9086355349	 0.697556988	-0.8868465872	-0.265174
C	 3.2848826767	-0.1997261777	 0.3001721169	-0.239655
C	 2.1933713775	-0.5119064891	 1.2898115479	-0.129637
C	 0.860450565	-0.462383115	 1.1868058873	 0.291313
C	 0.0182549317	-0.8566808768	 2.3815351813	-0.466241
H	 0.2858911953	 2.1077900368	 0.0540014785	 0.124962
H	-1.2285304032	 1.5945575895	-0.7051454872	 0.113281
H	-1.0522661138	 1.5214234696	 1.0547095164	 0.11307
H	-0.858259737	-0.7236140513	 0.0108514181	 0.074477
H	-0.0333893433	-0.6872521098	-2.1397884492	 0.081882
H	 2.1431783715	-0.0847483145	-2.8204954712	 0.082236
H	 3.8127982646	 0.9105689491	-1.4665164205	 0.09432
H	 2.5608997402	 1.6645392262	-0.4998399979	 0.110819
H	 3.699815079	-1.1447337522	-0.0824032082	 0.1086
H	 4.1100448826	 0.2737298092	 0.8495452676	 0.096454
H	 2.5817758714	-0.8505994835	 2.2506177196	 0.069479
H	 0.6356106362	-1.0778982176	 3.2556806242	 0.116363
H	-0.6878308815	-0.0655264414	 2.6624287081	 0.119734
H	-0.5869342618	-1.7456797553	 2.1591088988	 0.119374
71.4489	153.9913	181.4706	221.252	239.2156	262.102	298.1323	337.0993	362.6701	402.7888	527.3071	580.9854	620.8412	674.2163	740.5383	775.5252	828.7252	856.7269	888.5611	941.0708	981.0233	990.7848	1003.8526	1035.7005	1049.3144	1063.2307	1085.6141	1107.1952	1129.7272	1171.0445	1196.0158	1256.8576	1286.0655	1319.3751	1344.9478	1381.6024	1382.9349	1397.8585	1406.0652	1415.9427	1430.4995	1474.1136	1478.3797	1487.1273	1494.59	1497.4739	1499.7085	1733.8507	1741.7126	2991.6256	2999.2948	3014.2478	3014.8976	3029.6097	3039.1914	3061.035	3068.0615	3106.1159	3110.0862	3118.262	3120.8807	3130.8519	3157.5138
CC1C=CCCC=C1C	C[C@H]1C=CCCC=C1C	
InChI=1S/C9H14/c1-8-6-4-3-5-7-9(8)2/h4,6-8H,3,5H2,1-2H3	InChI=1S/C9H14/c1-8-6-4-3-5-7-9(8)2/h4,6-8H,3,5H2,1-2H3/t8-/m0/s1
