21
gdb 95081	2.30861	1.87401	1.28376	1.3519	77.26	-0.2384	0.0707	0.3091	1049.9682	0.18353	-424.217582	-424.209392	-424.208448	-424.249561	33.535	
C	 0.0492405276	 1.5607567302	-0.0185693875	-0.412646
C	 0.0141619994	 0.0321709595	 0.0692364678	-0.022163
C	 0.6248570375	-0.5898286568	-1.2114767132	-0.080569
O	 1.154559069	-1.8993147706	-1.0321842127	-0.275868
C	 1.7023608387	-2.1065329134	 0.2606144699	 0.12626
C	 2.2608923563	-0.800729681	 0.8939487358	-0.323025
C	 0.7738457542	-0.5261692445	 1.2906636563	 0.401831
O	 0.4567823375	 0.2476908551	 2.4160813446	-0.491199
C	 0.5736478504	-2.0672596038	 1.3228297464	-0.292921
H	 1.0796343658	 1.9323017072	-0.0518739119	 0.113879
H	-0.4590005525	 1.9055045361	-0.9257883639	 0.108565
H	-0.442121185	 2.0114552891	 0.8450807315	 0.136219
H	-1.0312179862	-0.2866609936	 0.1692939359	 0.080041
H	-0.1241124709	-0.6633898634	-2.0054465921	 0.108168
H	 1.419634841	 0.0773153941	-1.5786264556	 0.091383
H	 2.3447340344	-2.9852142744	 0.1973899004	 0.079239
H	 2.8680143253	-1.032014148	 1.7743231018	 0.090422
H	 2.796760512	-0.0883551155	 0.2634893176	 0.104152
H	 0.8845377938	-0.1492888939	 3.1817140685	 0.275288
H	-0.3983989322	-2.4756428142	 1.0363735708	 0.099764
H	 0.8990948339	-2.4952533481	 2.2773591495	 0.083181
138.9944	225.608	242.211	275.4358	292.4754	359.6881	381.449	416.9895	438.3728	481.7649	518.2449	570.6172	674.8176	781.1286	834.5723	851.3822	916.8595	925.9687	935.6123	960.9012	972.706	998.2475	1040.9052	1056.5715	1085.6718	1111.7729	1151.9573	1163.6599	1182.2257	1196.262	1223.7586	1248.8311	1263.922	1285.03	1333.0143	1356.0485	1366.8882	1386.0644	1406.5827	1426.8145	1464.0475	1492.7381	1494.6193	1503.1667	1523.7284	2983.8906	3020.7441	3034.0345	3041.1154	3059.9267	3078.5286	3093.7613	3108.984	3112.0115	3119.1806	3136.9351	3813.1121
CC1COC2CC1(O)C2	C[C@H]1CO[C@H]2C[C@]1(O)C2	
InChI=1S/C7H12O2/c1-5-4-9-6-2-7(5,8)3-6/h5-6,8H,2-4H2,1H3	InChI=1S/C7H12O2/c1-5-4-9-6-2-7(5,8)3-6/h5-6,8H,2-4H2,1H3/t5-,6-,7-/m0/s1
