21
gdb 109261	2.87925	1.30403	1.03645	1.6228	84.23	-0.2345	0.0188	0.2533	1243.2597	0.183867	-387.091477	-387.082986	-387.082042	-387.125039	32.19	
C	 0.0473191373	 1.3761858204	-0.2289902798	-0.375581
C	 0.0550383408	-0.1311155081	 0.0820041379	-0.297262
C	 0.7371822509	-0.4729439514	 1.3739228655	 0.336383
C	 0.1816072544	-0.9640367043	 2.4864030454	-0.177667
C	 1.1647403912	-1.2206695882	 3.6060680265	-0.279942
C	 2.5248784108	-0.9427258982	 2.9410870526	-0.072169
C	 3.1733306641	-2.0852527326	 2.1260612145	-0.079676
O	 2.9818741651	-1.387402037	 0.8752999617	-0.295999
C	 2.2326422874	-0.3360165182	 1.5472929424	 0.0251
H	 1.0631189038	 1.778081359	-0.2979068035	 0.121368
H	-0.4508920305	 1.5715237852	-1.1834675905	 0.114539
H	-0.480555865	 1.9339970842	 0.5509527622	 0.117469
H	-0.9747921456	-0.5048463449	 0.1029260059	 0.099179
H	 0.5661174538	-0.6617180293	-0.7321802487	 0.119721
H	-0.8789287167	-1.1726094452	 2.5959114938	 0.087459
H	 0.983590685	-0.5590241876	 4.4636608908	 0.105617
H	 1.0939987089	-2.2457876568	 3.9940570452	 0.104394
H	 3.224419171	-0.3981264062	 3.5752418713	 0.077102
H	 4.2350573364	-2.2775700656	 2.3192557936	 0.100673
H	 2.6260601724	-3.0372072219	 2.1570225584	 0.096679
H	 2.6344253647	 0.6487140967	 1.2819170049	 0.072612
66.1688	97.1525	165.6942	190.8783	256.6379	270.8637	367.5448	402.913	559.4335	625.693	705.7886	772.0536	797.3548	835.3783	858.5762	885.8837	918.0767	944.1949	958.8448	984.0189	993.9835	1009.4023	1064.9654	1078.2924	1082.8371	1095.8842	1159.9516	1178.4778	1195.3015	1238.855	1256.444	1274.4088	1299.8801	1314.8871	1333.1814	1355.0474	1360.7009	1374.6349	1408.9889	1482.7731	1487.5774	1498.5903	1506.723	1519.3984	1709.7266	3005.1025	3011.2985	3021.7625	3034.5793	3034.9947	3039.4821	3054.9946	3062.932	3107.8275	3109.3878	3110.1206	3171.5841
CCC1=CCC2COC12	CCC1=CC[C@H]2CO[C@@H]12	
InChI=1S/C8H12O/c1-2-6-3-4-7-5-9-8(6)7/h3,7-8H,2,4-5H2,1H3	InChI=1S/C8H12O/c1-2-6-3-4-7-5-9-8(6)7/h3,7-8H,2,4-5H2,1H3/t7-,8-/m0/s1
