17
gdb 37249	3.65674	1.55718	1.41406	2.6207	71.23	-0.229	0.0539	0.2829	953.6566	0.13545	-421.728284	-421.721405	-421.72046	-421.75939	28.078	
C	-0.0691578499	 1.4934486281	 0.0250673076	-0.317878
C	 1.2559232717	 0.7402321498	 0.0436264055	-0.361652
C	-0.044109426	 0.0111748427	-0.0640819657	 0.499308
O	-0.512193481	-0.8294294498	 1.0085766889	-0.316317
C	-0.9846858982	-1.8061656098	 0.0676886409	 0.089365
C	-2.4629903488	-1.6461474353	-0.4049076339	-0.010485
O	-2.7431404301	-0.2505211839	-0.4879744448	-0.218813
C	-2.0206109204	-0.841612609	-1.5647082347	 0.023013
C	-0.529405214	-0.955633893	-1.1412996719	-0.259211
H	-0.4160204126	 1.9172593731	 0.960867669	 0.129519
H	-0.3388760766	 2.062759197	-0.8582492814	 0.115241
H	 1.8998968319	 0.7890208919	-0.8289859093	 0.111227
H	 1.7776970645	 0.6717948197	 0.9921644721	 0.125403
H	-0.6430899163	-2.8233652423	 0.2699043197	 0.086227
H	-3.3056639046	-2.314667322	-0.2674628818	 0.106195
H	-2.4357296798	-0.7402574752	-2.5608625483	 0.109098
H	 0.1731448904	-1.3212927019	-1.887922192	 0.089758
120.659	200.612	259.6002	318.4876	381.3952	523.1758	538.3156	660.5863	746.6537	766.1171	780.5116	820.2786	858.452	869.5381	878.9756	889.0159	932.8586	942.8768	978.3306	990.2026	1016.5498	1034.5398	1048.3686	1051.5744	1065.6824	1157.6441	1178.4068	1183.8154	1212.1444	1220.1539	1259.2859	1264.8053	1311.5294	1359.4753	1399.9378	1448.4036	1500.1102	3091.7786	3125.683	3133.0515	3134.0702	3173.9059	3189.8388	3211.4618	3226.8391
C1CC11OC2C3OC3C12	C1CC21O[C@H]1[C@H]3O[C@H]3[C@@H]21	
InChI=1S/C7H8O2/c1-2-7(1)3-4-6(8-4)5(3)9-7/h3-6H,1-2H2	InChI=1S/C7H8O2/c1-2-7(1)3-4-6(8-4)5(3)9-7/h3-6H,1-2H2/t3-,4+,5-,6+/m1/s1
