20
gdb 65206	3.04549	1.41535	1.24537	1.6127	77.51	-0.2309	0.0853	0.3162	1090.8057	0.170749	-403.081496	-403.073168	-403.072224	-403.114274	32.403	
C	 0.0509327729	 1.5718386613	-0.5386433073	-0.457966
C	 0.020424822	 0.1264978152	-0.0937696125	 0.392876
C	 1.1679384257	-0.7537568872	-0.3592540515	-0.230126
O	 0.9580387212	-0.212418407	 0.9472548989	-0.268057
C	-1.3592134	-0.4810288562	 0.0290008114	-0.015818
C	-1.5788385487	-1.8021434327	 0.8153442122	-0.288974
C	-2.551214579	-1.0045069178	 1.6827414993	-0.018114
C	-1.8821016338	 0.1582304627	 2.2909713403	-0.247251
N	-2.3527391242	 0.2757108873	 0.8894579163	-0.157131
H	 1.0772535179	 1.9460259911	-0.5512864988	 0.123616
H	-0.3746227381	 1.6748074845	-1.5425844319	 0.12279
H	-0.5430839617	 2.1919209844	 0.1384869575	 0.146761
H	 1.0228630804	-1.8299137384	-0.4473514352	 0.112597
H	 2.0318538205	-0.3596166488	-0.8928661924	 0.113821
H	-1.7932395699	-0.535621532	-0.9748520264	 0.088056
H	-2.0509166268	-2.5804756021	 0.2138389951	 0.106941
H	-0.7142709759	-2.2193332697	 1.3374798699	 0.118166
H	-3.5419776666	-1.3335275835	 1.9784889169	 0.093513
H	-2.4667717096	 0.7773957417	 2.9643388583	 0.117266
H	-0.8180770463	 0.1238228674	 2.5010629701	 0.147034
80.508	159.387	184.1352	191.5048	305.8835	331.7427	354.0055	415.933	469.3725	538.8147	703.9036	744.8983	768.4377	782.5502	824.8012	873.4426	921.8642	940.4225	955.749	996.1525	1023.0141	1031.0068	1059.1513	1088.0926	1106.3945	1119.2341	1133.1094	1143.857	1163.8758	1179.3862	1229.2623	1252.2247	1270.6458	1284.9848	1364.465	1382.5772	1393.1453	1414.1839	1480.4456	1481.1543	1496.4372	1501.3008	1529.8778	3041.884	3049.7529	3067.8946	3080.8294	3110.4639	3124.4001	3125.6864	3130.581	3164.9507	3165.6173	3216.8387
CC1(CO1)C1CC2CN12	C[C@]1(CO1)[C@H]1C[C@H]2CN12	
InChI=1S/C7H11NO/c1-7(4-9-7)6-2-5-3-8(5)6/h5-6H,2-4H2,1H3	InChI=1S/C7H11NO/c1-7(4-9-7)6-2-5-3-8(5)6/h5-6H,2-4H2,1H3/t5-,6+,7-,8?/m0/s1
