23
gdb 75468	2.63331	1.27542	0.90836	0.2023	92.3	-0.2243	0.0348	0.259	1352.4379	0.206676	-351.16528	-351.156171	-351.155227	-351.199222	35.12	
C	-0.130583522	 1.4549215755	 0.1819130037	-0.49076
C	 0.0059168669	-0.0289550946	 0.0373240061	 0.336782
C	-0.0160389895	-0.7260803078	-1.1004456814	-0.177149
C	 0.0727493964	-2.2156967124	-0.8807382331	-0.25608
C	 0.4988523736	-2.3157697045	 0.6037087144	-0.221214
C	 0.1239014919	-0.9520940338	 1.2460070231	-0.078815
C	 1.108481238	-0.4981711815	 2.3063735206	 0.03197
C	 0.6845362875	 0.4060852228	 3.4374499872	-0.275253
C	 1.0182936933	-1.0392177356	 3.7119738787	-0.275907
H	 0.7270578043	 1.8889217964	 0.7087854084	 0.12748
H	-0.2191446659	 1.9449238649	-0.7917731174	 0.116892
H	-1.0178283315	 1.7155600402	 0.7740947147	 0.119811
H	-0.1351675741	-0.2861581052	-2.0859624803	 0.079127
H	-0.9014870611	-2.6941278518	-1.0591333398	 0.100042
H	 0.7809543516	-2.7108263693	-1.5554442619	 0.097418
H	 0.0496273301	-3.1644593061	 1.1259098476	 0.092741
H	 1.585672383	-2.4424063883	 0.662515573	 0.098633
H	-0.8656327298	-1.0213390114	 1.7285293325	 0.062791
H	 2.1163044575	-0.3400811822	 1.9274167743	 0.077861
H	 1.3758845427	 1.1690261598	 3.7782859792	 0.108476
H	-0.3585976065	 0.7014999117	 3.4876885288	 0.108631
H	 0.1978478718	-1.7116671523	 3.9419936625	 0.108567
H	 1.9372217617	-1.2654807648	 4.2412128994	 0.107957
79.2342	94.9331	152.8159	187.7183	244.3653	266.7282	282.3795	351.6521	438.7084	526.2056	580.6951	661.2297	767.9429	805.4287	829.8121	840.1173	867.3286	896.1216	915.3739	932.8539	974.0739	995.4023	999.6729	1037.5669	1059.9465	1063.3122	1078.3909	1082.1778	1143.2954	1145.3452	1180.901	1199.3429	1210.1537	1225.7257	1242.8667	1273.3985	1290.8028	1320.0347	1326.644	1356.0251	1413.7195	1416.5988	1469.216	1478.2409	1484.6049	1489.0255	1501.3249	1505.4583	1720.9448	2955.9688	2998.4677	3017.9529	3037.7075	3052.2307	3066.7142	3095.5405	3107.9147	3123.2823	3126.9345	3132.4283	3175.8049	3204.2205	3219.4479
CC1=CCCC1C1CC1	CC1=CCC[C@H]1C1CC1	
InChI=1S/C9H14/c1-7-3-2-4-9(7)8-5-6-8/h3,8-9H,2,4-6H2,1H3	InChI=1S/C9H14/c1-7-3-2-4-9(7)8-5-6-8/h3,8-9H,2,4-6H2,1H3/t9-/m1/s1
