15
gdb 82629	2.45332	2.13349	1.58524	1.2034	57.75	-0.2333	0.0595	0.2927	853.0828	0.113474	-494.864266	-494.857522	-494.856577	-494.895078	27.489	
O	 0.0800034046	 1.384909136	-0.1112211244	-0.454814
C	 0.0405931895	-0.0218632334	-0.0541151466	 0.068588
C	 0.4229990837	-0.6267138569	 1.3174663356	 0.094347
O	-0.5866139254	-0.080477435	 2.1743877229	-0.266542
C	-1.7252078942	-0.56694461	 1.4669114508	-0.067142
C	-1.2636763412	-1.8470299566	 0.7945599519	-0.005811
O	 0.0986953414	-1.9983344363	 1.1780647039	-0.240968
C	-1.3801832064	-0.5879920802	-0.0254861766	 0.279262
O	-2.2745700402	-0.4387238027	-1.062573268	-0.46718
H	-0.2536190963	 1.6957400673	 0.7413739974	 0.291856
H	 0.646082793	-0.416698936	-0.8718329516	 0.109725
H	 1.4167910691	-0.4790760283	 1.7310155286	 0.109046
H	-2.6859837486	-0.384570273	 1.9242615521	 0.124647
H	-1.8276598805	-2.7605865368	 0.6783747954	 0.13034
H	-2.3322540485	 0.506492672	-1.2520774415	 0.294645
185.6557	211.2635	303.1726	357.2177	392.6729	471.1039	527.94	567.3933	604.2157	652.2438	712.97	788.6861	818.3174	874.9928	894.2178	932.757	949.3254	986.89	1008.7321	1023.8869	1059.2786	1063.5256	1111.7681	1159.9417	1207.1618	1224.2193	1260.6173	1283.1082	1293.3712	1330.8142	1344.274	1430.9896	1473.5067	3111.9829	3178.3837	3235.2091	3243.4013	3762.9443	3771.2086
OC1C2OC3C(O2)C13O	O[C@H]1[C@H]2O[C@@H]3[C@H](O2)[C@]13O	
InChI=1S/C5H6O4/c6-1-4-8-2-3(9-4)5(1,2)7/h1-4,6-7H	InChI=1S/C5H6O4/c6-1-4-8-2-3(9-4)5(1,2)7/h1-4,6-7H/t1-,2-,3+,4+,5+/m0/s1
