18
gdb 84314	3.21464	1.42807	1.09512	3.9611	79.14	-0.2342	-0.0478	0.1864	1111.6872	0.149279	-401.960531	-401.952732	-401.951787	-401.99279	30.389	
C	 0.3607167838	 1.601551944	 0.00396074	-0.396098
C	-0.0341192466	 0.1124444113	 0.0131798568	-0.055037
C	 0.3545436728	-0.5648992298	-1.2751478029	-0.024339
C	 0.9019366467	-1.7813257632	-1.3803940181	-0.18457
C	 1.1868537736	-2.6325127505	-0.2090891453	 0.434446
O	 1.4240881327	-3.8216235541	-0.3036347387	-0.347596
C	 1.1317308498	-1.9520307811	 1.1265731755	-0.175947
N	 1.9878596412	-0.7440030981	 1.2576881299	-0.328861
C	 0.5338550504	-0.5885440503	 1.2359281857	-0.044239
H	 1.4488419761	 1.7008284006	-0.0316950141	 0.143412
H	-0.0657377666	 2.1168603953	-0.8621400712	 0.116476
H	-0.0015069646	 2.1038509631	 0.9064832289	 0.11497
H	-1.1321484403	 0.0594156732	 0.0811631915	 0.097773
H	 0.1360722567	-0.0016865687	-2.1810983225	 0.105059
H	 1.1136154491	-2.2270033507	-2.3471258592	 0.109371
H	 1.0718129232	-2.6339120816	 1.9694371266	 0.101831
H	 2.3367590423	-0.6909573924	 2.2110249209	 0.241273
H	 0.0388835595	-0.3461848569	 2.1743650464	 0.092074
78.735	191.2307	226.7897	255.5381	294.4378	370.422	423.1881	444.8658	520.1886	595.8792	703.1161	729.2574	752.8448	841.3524	855.2069	881.9683	907.5219	930.9422	965.0358	1014.0015	1034.9928	1077.5847	1094.376	1116.3934	1159.2407	1176.3742	1200.9721	1252.0241	1276.5525	1303.6804	1366.0502	1391.9716	1400.0654	1410.9699	1444.9869	1494.2873	1505.0021	1685.6971	1774.2592	2983.644	3038.599	3106.53	3123.005	3125.3769	3140.7209	3163.241	3188.7915	3508.2134
CC1C=CC(=O)C2NC12	C[C@H]1C=CC(=O)[C@H]2N[C@@H]12	
InChI=1S/C7H9NO/c1-4-2-3-5(9)7-6(4)8-7/h2-4,6-8H,1H3	InChI=1S/C7H9NO/c1-4-2-3-5(9)7-6(4)8-7/h2-4,6-8H,1H3/t4-,6-,7+/m0/s1
