17
gdb 20837	5.73611	1.29272	1.14041	2.7245	71.11	-0.2484	0.0152	0.2636	1088.2595	0.143659	-360.082329	-360.074203	-360.073259	-360.115739	28.35	
C	 0.1026425954	 1.4623209459	-0.0627547899	-0.373257
C	-0.0778457406	-0.0551692746	 0.0982145086	-0.278795
C	-1.5140231302	-0.4705210083	 0.0652287857	 0.351986
N	-2.1182601969	-1.0475546203	 1.0967492872	-0.311826
N	-3.381336976	-1.2378444038	 0.6389730018	 0.060719
C	-4.386745273	-1.8581090768	 1.4721062419	-0.319822
C	-3.4750416315	-0.7736951537	-0.6223732381	 0.000432
N	-2.3197898879	-0.2808514399	-1.0232960639	-0.315185
H	 1.1642737719	 1.7267088157	-0.0762299549	 0.109857
H	-0.3508193182	 1.8051281603	-0.9965691757	 0.137375
H	-0.3722739523	 2.0027906002	 0.7620754293	 0.118459
H	 0.4547134521	-0.5691777705	-0.7108941374	 0.11609
H	 0.3557019403	-0.3976505029	 1.041986625	 0.116553
H	-5.3222010862	-1.9130851375	 0.9122022295	 0.142087
H	-4.0743963561	-2.8667669426	 1.7545382766	 0.154306
H	-4.5423473304	-1.2689077264	 2.379500456	 0.1541
H	-4.3898168003	-0.8189891548	-1.1953466916	 0.136922
42.0652	92.335	140.586	204.1428	222.4045	292.6071	380.8212	442.6999	628.6581	649.6934	737.2232	763.1207	803.7067	853.9842	972.8597	1022.6075	1043.6185	1068.6395	1084.8921	1103.4633	1153.6696	1228.8746	1275.1481	1317.7685	1347.4883	1361.7429	1404.8257	1450.5099	1454.4993	1472.7654	1475.3064	1491.6681	1496.7629	1512.674	1527.3687	1564.4788	3037.9607	3041.0201	3051.8043	3092.407	3110.3293	3120.9773	3125.4563	3144.5246	3248.797
CCC1=NN(C)C=N1	CCc1nn(C)cn1	
InChI=1S/C5H9N3/c1-3-5-6-4-8(2)7-5/h4H,3H2,1-2H3	InChI=1S/C5H9N3/c1-3-5-6-4-8(2)7-5/h4H,3H2,1-2H3
