17
gdb 65549	2.98526	1.54587	1.3285	2.4247	71.87	-0.2427	0.0104	0.2531	988.185	0.137738	-417.976438	-417.968954	-417.96801	-418.008137	29.611	
O	-0.0771184469	 1.3889140447	-0.0190093238	-0.472211
C	-0.02373682	-0.0264075425	 0.0040296378	 0.256801
C	 0.4260957222	-0.6381464321	 1.400742675	-0.232022
N	-0.8059094987	-1.3140539017	 1.8719069829	-0.116818
C	-1.2174640067	-2.0108630735	 0.5853115904	-0.197489
C	-1.4591211881	-0.589164183	 0.0230952436	-0.058378
C	-1.8466677464	-0.277550757	 1.4908661526	-0.191988
C	 0.7790928572	-0.5209333361	-1.1246148213	 0.229821
N	 1.4415113238	-0.8960913349	-1.9951758902	-0.340615
H	 0.822681972	 1.7331842046	-0.0411764416	 0.294147
H	 1.2457470059	-1.35385567	 1.3127105991	 0.129074
H	 0.7128871957	 0.169133342	 2.0790285306	 0.118849
H	-0.4520970588	-2.646063283	 0.131352071	 0.124351
H	-2.1376563122	-2.5770028343	 0.7393011274	 0.121711
H	-2.0782008807	-0.3631924467	-0.844843134	 0.0923
H	-2.8432476405	-0.6337219613	 1.7575277703	 0.11695
H	-1.674563748	 0.7272566146	 1.8787628902	 0.125517
130.3737	156.0083	239.258	274.7134	337.9937	451.9349	472.3229	491.5425	532.0315	577.8536	640.1221	749.346	821.567	847.3357	855.8853	876.7233	929.752	975.6169	1004.6392	1024.375	1030.1183	1064.4852	1081.1611	1134.951	1170.3451	1208.5283	1219.023	1239.0156	1261.6531	1269.6598	1290.5628	1306.7791	1369.48	1487.152	1500.3034	1534.0949	2344.7356	3064.8864	3070.0314	3080.8803	3124.3561	3129.3108	3133.0595	3146.8548	3809.1359
OC1(CN2CC1C2)C#N	O[C@]1(CN2C[C@H]1C2)C#N	
InChI=1S/C6H8N2O/c7-3-6(9)4-8-1-5(6)2-8/h5,9H,1-2,4H2	InChI=1S/C6H8N2O/c7-3-6(9)4-8-1-5(6)2-8/h5,9H,1-2,4H2/t6-/m0/s1
