18
gdb 83528	2.8944	1.76309	1.60552	2.6804	69.07	-0.2421	0.0706	0.3127	905.054	0.151389	-439.050466	-439.04389	-439.042945	-439.080965	28.031	
O	 0.0571504201	 1.4055126256	 0.0615222267	-0.469163
C	 0.0196087384	-0.0002993711	 0.0376992822	 0.160899
C	-1.363351185	-0.6242748279	-0.3139786988	-0.10555
C	-1.5085501926	-0.0896447627	-1.7565336448	-0.094854
O	-0.146222677	-0.0537551818	-2.2611033496	-0.304499
C	 0.6831909147	-0.610260413	-1.2103892584	 0.047508
C	 0.34056559	-2.092227158	-1.1186806963	-0.051608
N	 0.1526179365	-2.5886535728	 0.2657766772	-0.350317
C	-1.0141414042	-2.1014434092	-0.5016464727	-0.032755
H	 0.0506609738	 1.7022931834	-0.8570074056	 0.290288
H	 0.4181654885	-0.3657304443	 0.9799121939	 0.116375
H	-2.188115866	-0.3796521692	 0.3549474292	 0.077434
H	-2.1186309407	-0.7395452801	-2.3936301723	 0.102537
H	-1.9260913516	 0.9226760295	-1.7872334353	 0.104429
H	 1.7167877134	-0.3319940275	-1.4150825211	 0.081355
H	 0.633964592	-2.7723550764	-1.9099263625	 0.098305
H	 0.1488985843	-3.6054109398	 0.2428911761	 0.235267
H	-1.7812330345	-2.8053587246	-0.807811438	 0.094347
234.7192	272.8606	328.2338	336.1258	385.913	477.1278	514.7065	594.1895	628.6858	773.9494	802.872	834.9365	861.0985	882.9387	891.4756	903.9256	924.9936	953.6321	974.3746	1013.6646	1019.4314	1057.3524	1084.0526	1108.3808	1111.3864	1155.6882	1184.9077	1206.4123	1223.4038	1260.3369	1277.5687	1292.9793	1306.1533	1330.4068	1356.8475	1372.641	1412.6672	1438.7413	1522.785	3030.9958	3070.9073	3121.198	3125.258	3161.1997	3164.3881	3182.1981	3506.1306	3777.2044
OC1C2COC1C1NC21	O[C@H]1[C@H]2CO[C@@H]1[C@H]1N[C@@H]21	
InChI=1S/C6H9NO2/c8-5-2-1-9-6(5)4-3(2)7-4/h2-8H,1H2	InChI=1S/C6H9NO2/c8-5-2-1-9-6(5)4-3(2)7-4/h2-8H,1H2/t2-,3-,4-,5-,6+/m0/s1
