17
gdb 52888	2.03593	1.21247	0.85907	1.5934	85.79	-0.2318	0.0264	0.2581	1387.5655	0.131609	-384.612318	-384.602049	-384.601104	-384.648225	36.524	
C	-0.1488118129	 1.41704738	 0.0617439072	-0.504239
C	-0.0746468111	-0.0371544508	 0.0420990256	 0.111157
C	 0.0348684389	-1.2386375051	 0.0320467997	-0.046163
C	 0.0743151192	-2.677432094	 0.0021319346	-0.061086
C	-0.4548048988	-3.4234701556	 1.2514748943	-0.339368
C	-1.3138009888	-3.3646133049	 0.0342554907	 0.116262
O	-2.4607423884	-2.5927081832	-0.0098117877	-0.421986
C	 1.1239155345	-3.2948173774	-0.7624217859	 0.246964
C	 1.9907073462	-3.8366537133	-1.3956749818	-0.435144
H	 0.8531527211	 1.8560260184	 0.1186928273	 0.158078
H	-0.6330618264	 1.8077265942	-0.83972572	 0.153354
H	-0.7160733292	 1.774195893	 0.9280830829	 0.152484
H	 0.0443570067	-4.3531396955	 1.4986406969	 0.133667
H	-0.730408873	-2.7956992911	 2.0907819964	 0.131697
H	-1.3986064083	-4.2606124508	-0.5721225969	 0.123693
H	-2.193273618	-1.6620395286	-0.0115723437	 0.287246
H	 2.759499728	-4.3037192355	-1.9594855294	 0.193384
42.0781	78.6511	108.3958	145.9357	168.2326	220.5068	267.9229	301.0299	382.9238	406.7936	453.016	494.7925	529.2148	571.1048	583.6261	623.6052	656.948	785.0805	856.7387	886.0887	982.7746	1046.4597	1049.5821	1055.7972	1068.0977	1094.2195	1149.8729	1242.4369	1320.2419	1359.8705	1413.6213	1422.3721	1465.2349	1475.4621	1478.918	2237.7876	2356.5424	3029.7937	3091.5637	3093.5583	3142.3927	3169.3985	3242.3654	3503.9441	3714.7804
CC#CC1(CC1O)C#C	CC#C[C@]1(C[C@H]1O)C#C	
InChI=1S/C8H8O/c1-3-5-8(4-2)6-7(8)9/h2,7,9H,6H2,1H3	InChI=1S/C8H8O/c1-3-5-8(4-2)6-7(8)9/h2,7,9H,6H2,1H3/t7-,8+/m1/s1
