16
gdb 127135	4.0151	1.16323	0.91639	4.0244	70.34	-0.2239	0.0276	0.2515	1237.4618	0.123626	-471.188004	-471.179237	-471.178293	-471.221844	30.948	
C	-0.0250019255	 1.3895729834	 0.0592375556	-0.339198
N	-0.1760234881	-0.0563795464	-0.0223043603	-0.180956
C	 0.0927921376	-0.8280072201	 1.1841839977	-0.353233
C	-0.0192343211	-0.620682176	-1.2396198839	 0.564085
N	 0.1656355309	-0.0027713375	-2.3625440726	-0.265626
O	 0.1512008041	-1.0735297156	-3.3278694744	-0.247822
C	 0.0094182781	-2.2520604799	-2.6786176706	 0.50539
N	-0.0262198636	-3.4253867802	-3.11938339	-0.582642
O	-0.1055839338	-1.9711215394	-1.3336610732	-0.221516
H	 1.0293419106	 1.6923481864	 0.1194030125	 0.133411
H	-0.4667822383	 1.8489537409	-0.8260229387	 0.171145
H	-0.546829436	 1.7460925488	 0.950891569	 0.133322
H	-0.5354717851	-0.4459287246	 1.9935630337	 0.138157
H	-0.1502216547	-1.8762722084	 1.0170407466	 0.17134
H	 1.1446793671	-0.7520006058	 1.4946764531	 0.131206
H	 0.0779213476	-3.4317780457	-4.1309094044	 0.242936
80.6016	110.6983	157.1522	163.2041	208.8608	217.9605	324.1304	352.7692	419.3305	566.4592	607.1798	691.5375	739.9179	753.541	780.622	907.0854	931.5719	967.8053	1017.1798	1065.666	1090.6495	1130.7267	1177.669	1242.298	1260.3177	1299.0145	1450.7415	1457.0739	1481.4301	1488.5852	1497.1313	1502.8675	1538.9245	1701.6595	1815.7916	3005.0459	3015.1869	3090.5799	3095.9765	3149.1079	3166.0665	3545.4278
CN(C)C1=NOC(=N)O1	CN(C)C1=NO[C@H]([NH])O1	
InChI=1S/C4H7N3O2/c1-7(2)4-6-9-3(5)8-4/h5H,1-2H3	InChI=1S/C4H8N3O2/c1-7(2)4-6-9-3(5)8-4/h3,5H,1-2H3/t3-/m1/s1
