17
gdb 71440	4.07624	1.38985	1.25467	4.6013	71.44	-0.2595	0.0104	0.27	1021.6815	0.137223	-421.841111	-421.834002	-421.833058	-421.872416	28.325	
C	-0.0206338519	 1.5053327188	-0.0255205545	-0.505157
C	-0.0291277725	 0.004642738	-0.0082202358	 0.293683
C	-1.2718847374	-0.879528131	-0.1147860241	-0.28604
C	-0.4709312457	-2.0400457234	 0.5851351728	-0.204152
C	 0.6002029907	-0.9949665893	 0.9833351018	-0.159845
C	 1.1896236651	-0.8245804202	-0.3737732882	 0.052186
O	 1.0595277753	-1.9972661378	-1.1637948495	-0.228047
C	 0.1677554297	-2.8385562099	-0.540640889	 0.444535
O	-0.058194644	-3.9447589648	-0.9305215369	-0.341436
H	 0.9730226671	 1.9023787876	 0.2069072396	 0.123627
H	-0.3076938528	 1.8864045471	-1.0124811454	 0.13196
H	-0.7232641094	 1.9147660203	 0.7086800607	 0.1245
H	-2.0622074547	-0.5202792658	 0.5482845874	 0.116585
H	-1.6917057669	-1.076185732	-1.1071370938	 0.116604
H	-0.9850547688	-2.6448751352	 1.3253513966	 0.103142
H	 1.1030944883	-0.8694262109	 1.9332995615	 0.101757
H	 2.1353427178	-0.3246292915	-0.5351343732	 0.116098
137.2817	203.9452	228.9671	292.7413	332.9001	458.0959	473.6904	565.0443	671.7369	726.3083	749.5811	796.395	803.5767	851.4133	891.1633	914.1341	931.1931	947.7038	1004.426	1022.9461	1042.4582	1072.372	1102.1138	1132.4124	1167.0208	1202.1761	1213.6229	1237.4569	1260.598	1299.6243	1326.363	1415.9948	1434.3762	1485.586	1495.5671	1501.9804	1891.8435	3025.2825	3045.8523	3087.9005	3097.7243	3109.2569	3171.8156	3197.8446	3213.5393
CC12CC3C1C2OC3=O	C[C@]12C[C@@H]3[C@H]1[C@H]2OC3=O	
InChI=1S/C7H8O2/c1-7-2-3-4(7)5(7)9-6(3)8/h3-5H,2H2,1H3	InChI=1S/C7H8O2/c1-7-2-3-4(7)5(7)9-6(3)8/h3-5H,2H2,1H3/t3-,4+,5-,7+/m1/s1
