13
gdb 21436	4.16439	2.22959	1.48992	4.3296	61.63	-0.2257	-0.0017	0.224	785.9744	0.097226	-394.733078	-394.726842	-394.725898	-394.763659	23.26	
N	 0.0906047579	 1.3833003732	 0.1381977943	-0.592226
C	 0.0614240283	 0.1233120632	 0.0795949568	 0.46851
O	 1.1080054134	-0.7498314503	-0.1937337175	-0.262903
N	 0.7103132385	-2.1390020087	 0.0145433511	-0.241366
C	-0.5432120786	-2.0025796797	 0.2535013882	 0.405355
C	-1.8191637579	-2.5811980642	 0.8395706932	-0.35634
C	-2.2538775241	-1.0686027394	 0.9833890653	-0.167802
N	-1.0204268531	-0.7298130498	 0.2322340187	-0.099667
H	 1.0341742837	 1.73119839	-0.0166974591	 0.236162
H	-2.4246925801	-3.1633080584	 0.1441973689	 0.155152
H	-1.6912672363	-3.1294829265	 1.7726254229	 0.157567
H	-3.1710053224	-0.7697490547	 0.4748216713	 0.146367
H	-2.2467573391	-0.6955973046	 2.0098415861	 0.15119
103.7506	172.4354	299.5356	315.2199	550.8047	617.2895	689.2537	695.0675	716.1433	770.2321	796.1792	805.4098	844.4872	908.2729	983.5958	1060.446	1102.9826	1140.2901	1179.1225	1186.3257	1230.5851	1264.3178	1336.8272	1428.4492	1469.2298	1513.904	1694.8393	1786.4518	3079.9314	3101.4677	3140.5311	3162.646	3531.4613
N=C1ON=C2CCN12	[NH][C@@H]1ON=C2CCN12	
InChI=1S/C4H5N3O/c5-4-7-2-1-3(7)6-8-4/h5H,1-2H2	InChI=1S/C4H6N3O/c5-4-7-2-1-3(7)6-8-4/h4-5H,1-2H2/t4-/m0/s1
