16
gdb 41053	3.3474	2.16326	1.91147	0.7297	70.08	-0.2179	0.0491	0.267	778.97	0.126113	-400.593707	-400.587891	-400.586946	-400.623403	25.371	
C	 0.0418386464	 1.4682849795	-0.2697346594	-0.254329
N	 1.4438756519	 1.57238079	 0.2657775381	-0.400879
C	 1.450792763	 0.1748818022	 0.6722257994	 0.225887
C	 1.0255225746	-0.4734020509	 2.029473978	-0.161897
C	 0.9302209975	-1.763243989	 1.2566001644	-0.076069
C	-0.2943990108	-0.8423920673	 1.3546361872	-0.165471
C	 0.0421331225	-0.0252180942	 0.0963050749	 0.326349
O	 0.5130049387	-0.9001036461	-0.9713034248	-0.327384
C	 1.5871580436	-1.2014713406	-0.0574972348	 0.000989
H	-0.6573428924	 2.1036411186	 0.2831395846	 0.116281
H	-0.0773760296	 1.6425558795	-1.3432033639	 0.121909
H	 2.1678779336	 1.8813387134	-0.3707012086	 0.231403
H	 1.2772467516	-0.2975848116	 3.0650862352	 0.096402
H	 0.9402886052	-2.7739780162	 1.6363056634	 0.09953
H	-1.2403360857	-1.1640878717	 1.7723040373	 0.090729
H	 2.4489604299	-1.6967031459	-0.5096879311	 0.076548
223.3427	321.0162	428.7272	528.5429	547.755	575.1066	622.9629	739.9223	777.8609	795.1482	810.9123	823.8027	829.5619	879.8419	888.3438	927.3043	934.2586	966.4244	1001.1367	1010.4018	1026.0794	1052.5412	1086.0209	1108.698	1128.1896	1153.7174	1177.0482	1223.6607	1260.0901	1268.1151	1309.3257	1311.3926	1327.9408	1367.7623	1489.9815	3039.8409	3093.5105	3097.6648	3186.57	3221.5639	3236.5225	3558.5423
C1NC23C4C5C4C12OC35	C1N[C@@]23[C@@H]4[C@H]5[C@@H]4[C@@]12O[C@@H]35	
InChI=1S/C7H7NO/c1-6-3-2-4(3)7(6,8-1)5(2)9-6/h2-5,8H,1H2	InChI=1S/C7H7NO/c1-6-3-2-4(3)7(6,8-1)5(2)9-6/h2-5,8H,1H2/t2-,3+,4-,5-,6+,7-/m1/s1
