17
gdb 27290	3.09743	1.60744	1.08449	3.5201	75.71	-0.1722	0.0511	0.2233	1072.2975	0.139396	-418.025144	-418.017639	-418.016695	-418.056997	29.307	
O	 0.0328823841	 1.3823974355	 0.0973732011	-0.456414
C	 0.0444164605	 0.0158840635	 0.0185287155	 0.188717
C	 0.0460884748	-0.7827423464	-1.0999800719	 0.20421
N	 0.055899944	-0.6654838356	-2.5140989472	-0.421851
C	 0.4442995687	-2.0265012013	-2.9638370021	-0.173383
C	 0.0403972413	-3.0049018477	-1.8200290341	-0.192546
N	 0.0729205958	-2.0972694293	-0.6903148377	 0.006782
C	 0.0582662822	-2.1592937394	 0.6762435436	-0.143272
C	 0.0388276961	-0.8588403281	 1.1453192393	-0.22526
H	 0.2930581342	 1.7306816164	-0.7618535976	 0.294849
H	-0.8740142132	-0.4438883356	-2.8643347525	 0.232074
H	-0.0225500472	-2.2700036413	-3.9199285468	 0.112306
H	 1.5312004369	-2.0532322099	-3.0929015665	 0.127167
H	-0.9628610615	-3.4292342309	-1.9648788953	 0.111964
H	 0.7517808903	-3.8281024783	-1.7111903861	 0.122951
H	 0.0999201148	-3.0972337182	 1.2050793162	 0.113491
H	 0.0495908982	-0.5507769835	 2.179162682	 0.098215
109.7194	184.4578	245.8215	263.776	292.8421	340.9782	523.1379	599.2946	605.1355	625.2417	640.0323	678.7863	750.1173	779.7129	798.8669	841.1654	923.5419	936.0575	1000.1656	1050.6527	1084.7684	1119.1148	1132.9124	1197.392	1236.2023	1266.133	1282.7663	1306.6582	1359.636	1396.7741	1418.7654	1436.7495	1490.3176	1498.3327	1512.8788	1532.6846	1668.6616	3004.8334	3051.7927	3086.9592	3121.2814	3251.399	3272.5548	3451.2601	3817.6112
OC1=C2NCCN2C=C1	Oc1c2NCCn2cc1	
InChI=1S/C6H8N2O/c9-5-1-3-8-4-2-7-6(5)8/h1,3,7,9H,2,4H2	InChI=1S/C6H8N2O/c9-5-1-3-8-4-2-7-6(5)8/h1,3,7,9H,2,4H2
