14
gdb 5432	3.49111	1.92407	1.25011	6.2934	71.16	-0.2251	-0.002	0.2231	911.5292	0.109129	-341.652648	-341.645372	-341.644428	-341.684327	26.517	
C	-0.0031703364	 1.5060368948	 0.0623001517	-0.517776
C	 0.0139416201	 0.0175113204	-0.023022929	 0.225037
C	-0.0032069471	-0.8232204341	-1.1295087317	 0.114313
C	 0.0266643374	-2.1760643303	-0.6582704218	-0.25432
C	 0.060935895	-2.1203602222	 0.7075100567	-0.072006
N	 0.0528284683	-0.7918274067	 1.0754682621	-0.288095
C	-0.0434815925	-0.3896986589	-2.4761668562	 0.192016
N	-0.0765939105	-0.0259818812	-3.5765380331	-0.364013
H	 0.891789226	 1.8959421375	 0.5614646215	 0.138119
H	-0.0384914308	 1.9305015426	-0.9429300255	 0.167552
H	-0.87697058	 1.8725473097	 0.6138816442	 0.137941
H	 0.0225888741	-3.0628446485	-1.2706319166	 0.119805
H	 0.0901402314	-2.9017176515	 1.4489064523	 0.133104
H	 0.072739095	-0.4577713716	 2.0240650254	 0.268321
98.3085	142.7613	168.4025	243.904	332.8229	519.1197	532.132	536.2481	594.81	633.2064	690.5048	700.3379	730.5017	841.7188	917.2478	988.7282	1061.3802	1082.9456	1110.3627	1168.8774	1268.9475	1319.2658	1406.4975	1428.0992	1468.167	1482.6437	1497.0905	1529.581	1611.3162	2337.7251	3026.6935	3075.9967	3135.1326	3264.4162	3283.4628	3672.6274
CC1=C(C=CN1)C#N	Cc1c(cc[nH]1)C#N	
InChI=1S/C6H6N2/c1-5-6(4-7)2-3-8-5/h2-3,8H,1H3	InChI=1S/C6H6N2/c1-5-6(4-7)2-3-8-5/h2-3,8H,1H3
