15
gdb 45673	3.23247	1.69736	1.12841	2.9351	74.1	-0.2197	-0.0268	0.1929	1007.141	0.115128	-416.862952	-416.856146	-416.855202	-416.894308	26.162	
O	 0.0136785214	-0.0279673524	 0.0027843489	-0.353613
C	-0.0336708329	 1.1761412212	 0.0096710481	 0.401725
C	-1.2601667055	 2.1127396811	 0.0326940912	-0.391771
C	-0.6749034927	 3.5106686466	 0.0309235969	-0.304237
C	 0.6551517783	 3.4034838781	 0.0104354473	 0.379286
C	 1.953693068	 4.1769589901	-0.005246287	-0.291586
N	 3.0185692189	 3.1416906654	-0.0265063625	-0.25872
C	 2.4436489238	 2.0016478202	-0.0235820441	 0.069496
N	 1.0546863312	 2.0489548437	-0.0023234108	-0.124983
H	-1.893339643	 1.897654924	-0.8363937828	 0.151869
H	-1.8670516073	 1.8888831321	 0.9181681073	 0.151859
H	-1.2553659526	 4.4203111187	 0.0441588954	 0.115277
H	 2.0541199126	 4.8251022007	-0.8831500242	 0.145185
H	 2.0806381861	 4.816253959	 0.8757056629	 0.145183
H	 2.9525472037	 1.0456882715	-0.0360432767	 0.165031
130.6135	145.9799	236.1709	297.3686	468.7944	529.5695	539.5909	616.9965	635.535	654.3662	737.1014	757.9673	902.8881	928.3203	935.525	946.7405	974.4977	1007.8613	1036.0709	1089.9172	1149.5237	1191.5844	1225.3511	1256.7728	1276.8231	1301.9033	1347.9408	1380.4535	1438.8734	1468.1239	1662.0731	1722.3511	1838.5492	3041.4667	3042.3238	3068.1143	3073.1632	3227.7531	3250.278
O=C1CC=C2CN=CN12	O=C1CC=C2CN=CN12	
InChI=1S/C6H6N2O/c9-6-2-1-5-3-7-4-8(5)6/h1,4H,2-3H2	InChI=1S/C6H6N2O/c9-6-2-1-5-3-7-4-8(5)6/h1,4H,2-3H2
