15
gdb 130208	3.16995	1.27845	0.91471	2.1855	70.76	-0.2079	0.0092	0.2171	1187.6126	0.115271	-450.167352	-450.159163	-450.158219	-450.200439	29.977	
N	 0.0796668809	 1.3823785634	 0.0758555351	-0.60966
C	 0.0338498074	-0.0238617346	 0.0105815882	 0.252733
N	-1.0972875118	-0.7200379964	 0.0089571847	-0.286022
N	-0.6939259038	-2.0086248387	 0.0059157717	-0.195549
C	 0.654732731	-2.1582490708	-0.0079523871	-0.097565
C	 1.1655605279	-0.8755196561	 0.0083785134	 0.255569
N	 2.4898461941	-0.4299708326	 0.0547344698	-0.418268
C	 3.5894822513	-1.2309746974	-0.0055341745	 0.136638
O	 3.5651736134	-2.434773205	-0.1591290605	-0.319795
H	 0.3778312795	 1.7903889831	-0.8056181124	 0.246422
H	-0.8436929246	 1.7460882871	 0.2864888466	 0.253029
H	-1.3881352251	-2.7346316316	 0.0024139615	 0.276844
H	 1.149006565	-3.1127436896	-0.0186852417	 0.167246
H	 2.6158454016	 0.5503437366	 0.2612178256	 0.258073
H	 4.5246361432	-0.6484840273	 0.0974729595	 0.080307
68.7803	152.8414	194.0354	213.8862	244.427	297.405	401.0818	450.692	471.7881	592.7719	609.5253	653.9854	715.7244	732.5001	805.1551	855.7148	898.9503	953.3802	1010.853	1066.6338	1114.5735	1168.21	1203.388	1239.5686	1326.9084	1424.7083	1443.1412	1476.6688	1505.0637	1583.8463	1627.088	1659.4083	1792.2309	2953.8708	3309.5122	3493.7101	3583.5793	3610.8099	3691.6614
NC1=NNC=C1NC=O	Nc1n[nH]cc1NC=O	
InChI=1S/C4H6N4O/c5-4-3(6-2-9)1-7-8-4/h1-2H,(H,6,9)(H3,5,7,8)	InChI=1S/C4H6N4O/c5-4-3(6-2-9)1-7-8-4/h1-2H,(H,6,9)(H3,5,7,8)
