15
gdb 43842	3.07807	1.59469	1.21792	4.334	65.92	-0.2636	-0.0147	0.2489	997.6332	0.112521	-457.760538	-457.753533	-457.752589	-457.79205	27.265	
O	-0.0055679775	 0.0299127673	 0.297328165	-0.335196
C	 0.0170572564	 1.1919454547	 0.0206490938	 0.446176
O	-1.1088275288	 1.9088778477	-0.2759120639	-0.263782
C	-0.7858294178	 3.2030088569	-0.7810736454	 0.44455
C	-1.5190799445	 3.6636477024	-2.0048555446	-0.331053
C	-1.828361092	 4.2636989003	-0.6456454643	-0.321824
C	 0.6810017794	 3.3993053161	-0.5730642152	-0.072342
O	 1.0588792972	 3.249741611	 0.7959397842	-0.238574
C	 1.2041621261	 2.1198247048	-0.0823573557	-0.127629
H	-0.9798638465	 4.261740051	-2.7321116906	 0.125166
H	-2.2418297514	 2.9731093562	-2.4232459822	 0.141762
H	-2.7558721216	 3.9671261108	-0.1702640255	 0.144555
H	-1.5050247552	 5.2756594294	-0.4291624762	 0.131807
H	 1.251388758	 4.1054686579	-1.1677886849	 0.123533
H	 2.2028721283	 1.7260369335	-0.2287443646	 0.132848
112.7607	175.2252	257.2831	275.675	384.8929	456.7473	511.7051	559.1402	647.6293	755.417	761.9643	840.4309	861.4716	877.9015	888.2894	917.742	955.674	989.304	992.5616	1017.2613	1063.1491	1079.0342	1084.973	1178.4295	1187.9859	1235.3759	1273.7405	1296.827	1363.2197	1425.9745	1452.7979	1500.8285	1890.3621	3136.8223	3144.1112	3173.3741	3199.6251	3225.8199	3239.6207
O=C1OC2(CC2)C2OC12	O=C1OC2(CC2)[C@H]2O[C@@H]12	
InChI=1S/C6H6O3/c7-5-3-4(8-3)6(9-5)1-2-6/h3-4H,1-2H2	InChI=1S/C6H6O3/c7-5-3-4(8-3)6(9-5)1-2-6/h3-4H,1-2H2/t3-,4+/m1/s1
