21
gdb 113393	2.73979	1.04108	0.87109	2.6217	76.35	-0.2382	0.07	0.3082	1419.7891	0.179086	-461.312747	-461.302085	-461.301141	-461.348438	38.069	
C	 3.0615463225	-1.2834941474	 0.6854384082	-0.232681
O	 1.7417951127	-1.1196982919	 0.2030799764	-0.244507
C	 1.620194148	-1.4095714471	-1.1508271781	 0.073131
C	 1.4660719371	-2.8485466706	-1.6047350018	-0.398361
C	 0.2944174735	-1.8682154575	-1.6641302843	 0.351422
C	-0.8589753987	-2.0524382253	-0.7006916076	-0.131019
O	-1.7074154802	-3.1488786401	-1.0302301989	-0.419952
O	-0.016483926	-1.3295669657	-2.9155122647	-0.292973
C	-0.6867879481	-2.2096718226	-3.8072908914	-0.252279
H	 3.4149596759	-2.3164657855	 0.5568562661	 0.109998
H	 3.7642140506	-0.6103356408	 0.1723667626	 0.110834
H	 3.0468400327	-1.0372091625	 1.7493918651	 0.130057
H	 2.1709225014	-0.7443656576	-1.816647117	 0.10187
H	 1.9330489857	-3.1442660117	-2.5370872339	 0.121233
H	 1.4487333872	-3.6099492116	-0.8306249793	 0.112144
H	-0.4646046335	-2.1392283162	 0.3191784706	 0.10675
H	-1.4955496768	-1.1635370731	-0.7426711744	 0.120663
H	-1.1621158418	-3.9428230412	-1.0317919307	 0.279638
H	-0.0976166124	-3.1207699263	-3.9886831638	 0.096795
H	-1.6709880615	-2.5027469786	-3.4298884296	 0.13631
H	-0.7966756382	-1.6678603867	-4.7497857536	 0.120927
82.8152	100.5377	127.7621	142.8743	161.3585	205.4487	226.2758	235.6799	302.6481	345.2194	359.1711	385.634	436.5005	481.9118	657.6789	718.5526	841.8757	910.0254	919.6747	980.6106	1006.5027	1018.737	1032.1308	1056.5959	1089.5864	1119.4246	1167.0258	1183.556	1188.5091	1200.6757	1221.846	1243.711	1284.1132	1308.5594	1372.1773	1402.7961	1424.0175	1462.1576	1478.1291	1485.3759	1485.8379	1490.4734	1497.5421	1509.2205	1518.721	2987.2502	2997.2921	3032.5232	3038.8372	3081.3812	3093.9412	3102.6828	3122.4178	3124.6893	3128.0288	3223.2333	3807.62
COC1CC1(CO)OC	CO[C@H]1C[C@]1(CO)OC	
InChI=1S/C6H12O3/c1-8-5-3-6(5,4-7)9-2/h5,7H,3-4H2,1-2H3	InChI=1S/C6H12O3/c1-8-5-3-6(5,4-7)9-2/h5,7H,3-4H2,1-2H3/t5-,6+/m0/s1
