18
gdb 97910	4.12211	0.58362	0.56937	4.0317	79.73	-0.2472	0.0187	0.2659	1953.6778	0.14511	-439.064073	-439.053376	-439.052432	-439.102158	35.608	
C	-0.2669406234	 1.3431548664	 0.3541334625	-0.346574
N	 0.0275415555	-0.0244148167	-0.0373382665	-0.018636
C	-0.0137305284	-1.0597547868	 0.9834159854	-0.347604
C	-1.3458196343	-1.2817532375	 1.5491105706	 0.103617
C	-2.4412497609	-1.4435775594	 2.0202748014	 0.082185
C	-3.7725555371	-1.661545928	 2.571401807	-0.214242
O	-3.940514972	-0.871103105	 3.7408662532	-0.408393
C	 0.2776730179	-0.3330765806	-1.3428259918	 0.158767
O	 0.3108310582	 0.457295162	-2.2609885343	-0.338475
H	 0.4718473884	 1.7060163946	 1.0790441078	 0.124184
H	-0.2287076373	 1.9591355468	-0.5439793865	 0.16841
H	-1.2613836584	 1.4083271945	 0.8079473832	 0.141438
H	 0.3600908507	-1.98854461	 0.5366176	 0.145709
H	 0.6828152851	-0.8025921622	 1.7942634329	 0.142153
H	-4.5212706211	-1.4070444335	 1.8036833399	 0.122752
H	-3.8954520882	-2.7346987759	 2.7910491988	 0.121069
H	-4.8281984889	-1.0368177334	 4.0746511764	 0.292287
H	 0.4609662242	-1.4180227754	-1.47663107	 0.071349
23.6511	38.9778	75.9758	130.8901	144.5343	192.3355	230.2334	285.688	319.7458	336.2939	343.5403	377.3329	462.8785	560.8113	711.8722	776.0487	873.9031	973.2818	1025.2556	1026.0101	1049.1702	1086.3842	1142.6837	1159.8524	1235.4934	1250.2792	1257.2506	1268.576	1376.9282	1429.4203	1437.5852	1443.0096	1459.8164	1468.2988	1495.4304	1501.4004	1520.5836	1800.0668	2371.0776	2930.2029	2965.9618	2984.9744	3004.321	3025.8258	3057.6674	3083.9625	3161.5855	3818.8388
CN(CC#CCO)C=O	CN(CC#CCO)C=O	
InChI=1S/C6H9NO2/c1-7(6-9)4-2-3-5-8/h6,8H,4-5H2,1H3	InChI=1S/C6H9NO2/c1-7(6-9)4-2-3-5-8/h6,8H,4-5H2,1H3
