14
gdb 5397	5.54144	1.65373	1.28384	2.8746	66.54	-0.2421	-0.033	0.2091	903.5976	0.110397	-374.965826	-374.958664	-374.95772	-374.998449	24.745	
C	-0.0004168097	 1.454904686	 0.0081526366	-0.313539
N	-0.0689392453	 0.0068264113	 0.0033536759	-0.344755
C	-1.2191911228	-0.6919578627	 0.0098933602	 0.478401
N	-2.3797230739	-0.0078375656	 0.0206442171	-0.316499
C	-3.4602430978	-0.7790344834	 0.026231576	 0.081621
N	-3.4945940853	-2.1127651384	 0.0223571021	-0.269127
C	-2.2768030746	-2.6711810558	 0.0116730836	 0.08227
N	-1.1146858232	-2.0407478042	 0.0050003613	-0.32258
H	 1.0501586956	 1.7500021115	-0.0012825432	 0.127981
H	-0.4973695018	 1.8792722041	-0.8697491156	 0.145407
H	-0.4796940031	 1.872976442	 0.8988754605	 0.145177
H	 0.7740828838	-0.5422108628	-0.0037905865	 0.261176
H	-4.419866857	-0.2644530749	 0.0348690755	 0.122206
H	-2.2391749849	-3.7593408971	 0.0080580565	 0.122262
28.3125	110.478	196.8321	219.3126	372.097	471.7578	485.2063	567.9563	625.4524	710.4998	848.8085	868.073	995.794	997.1413	1050.2727	1099.8219	1161.0884	1161.1913	1178.694	1229.2206	1318.3318	1386.7315	1424.4874	1437.5464	1460.3009	1477.2154	1515.5722	1576.912	1604.4293	1636.6543	3040.6452	3096.4145	3138.9951	3148.895	3153.1878	3664.4542
CNC1=NC=NC=N1	CNc1ncncn1	
InChI=1S/C4H6N4/c1-5-4-7-2-6-3-8-4/h2-3H,1H3,(H,5,6,7,8)	InChI=1S/C4H6N4/c1-5-4-7-2-6-3-8-4/h2-3H,1H3,(H,5,6,7,8)
