18
gdb 33995	3.40435	1.32968	1.11296	2.1058	83.51	-0.2378	0.0135	0.2513	1120.3622	0.1487	-364.769509	-364.761602	-364.760658	-364.80167	31.361	
C	 0.0071737242	-1.2050018493	 0.4807816346	-0.402728
C	 0.0269640899	-0.0316401929	 0.2191494138	 0.288914
C	 0.0370895423	 1.3632610766	-0.1476696589	 0.073331
C	-0.9807020694	 1.7402053311	-1.2223000166	-0.335359
C	-0.7484694351	 3.0915055183	-1.839963758	-0.05688
C	 0.3985647056	 3.7640237224	-1.7598512239	-0.076823
C	 1.6125785134	 3.2583925851	-1.0296000509	-0.283933
C	 1.3112882176	 2.1451511607	-0.045304342	-0.043722
N	 0.2703579268	 2.3107475435	 0.9750965905	-0.358812
H	-0.0042480746	-2.2372204231	 0.7292258392	 0.190067
H	-0.9593826491	 0.9684154199	-2.0039182485	 0.130592
H	-1.9901657328	 1.6863988054	-0.7926389171	 0.121009
H	-1.5821579927	 3.5138578622	-2.3949698814	 0.091711
H	 0.4904932937	 4.7302797417	-2.2486872432	 0.093
H	 2.3574337841	 2.8974203349	-1.7539279103	 0.123309
H	 2.1042548815	 4.0858869549	-0.4986370184	 0.115882
H	 2.185756403	 1.6152584529	 0.3245232462	 0.099843
H	-0.2533387884	 3.1636651457	 0.7789312949	 0.230598
110.8921	143.1471	169.3579	305.501	360.31	398.6888	422.0953	517.4763	560.6138	571.7911	609.8633	650.1276	655.8977	687.1522	785.0565	859.8813	871.135	931.8235	939.0298	971.1101	991.0728	1014.0262	1045.5377	1076.6208	1136.5699	1181.9383	1201.5294	1214.1585	1247.4211	1298.6764	1329.9809	1355.4484	1375.2648	1413.069	1442.8946	1475.4325	1478.363	1728.1602	2238.7253	3001.6155	3012.9086	3023.4702	3035.685	3137.6193	3150.4633	3173.0696	3467.9693	3503.2078
C#CC12CC=CCC1N2	C#C[C@]12CC=CC[C@H]1N2	
InChI=1S/C8H9N/c1-2-8-6-4-3-5-7(8)9-8/h1,3-4,7,9H,5-6H2	InChI=1S/C8H9N/c1-2-8-6-4-3-5-7(8)9-8/h1,3-4,7,9H,5-6H2/t7-,8+/m1/s1
