18
gdb 69098	2.55403	1.59105	1.17944	1.2918	78.55	-0.2472	0.0335	0.2806	1081.2267	0.147146	-401.899705	-401.891236	-401.890292	-401.932374	32.648	
C	-0.0396395565	 1.5204805161	-0.0441226796	-0.470856
C	-0.0357225428	 0.0197071403	 0.0455631834	 0.240336
C	-1.2947585286	-0.7691927809	-0.2897902348	-0.146347
O	-1.0555870958	-2.0926078441	 0.1782674136	-0.258908
C	-0.2617055212	-1.9950920003	 1.3543719217	-0.168863
C	 0.6370151093	-0.7799017931	 1.1267869607	 0.084427
N	 1.222385759	-0.6796246271	-0.2298760069	-0.399067
C	 1.361413232	-0.2304937113	 2.2327060079	 0.242315
C	 1.938673771	 0.2148596934	 3.1890110915	-0.389084
H	 0.8950933412	 1.924651049	 0.3493692399	 0.14562
H	-0.1404091122	 1.8457258562	-1.0854278544	 0.124807
H	-0.8720097949	 1.9451625631	 0.5269267592	 0.120597
H	-2.165517265	-0.313798676	 0.2091817749	 0.099989
H	-1.5036725892	-0.8324584245	-1.3633290347	 0.115295
H	-0.8759895207	-1.835542917	 2.2537140757	 0.10819
H	 0.2873900932	-2.9352042937	 1.4650342207	 0.121288
H	 1.0389828457	-1.5503990009	-0.7289412193	 0.238626
H	 2.4618286156	 0.610357421	 4.0242438005	 0.191637
123.4242	143.398	170.3026	226.1205	265.8142	308.3681	376.4437	427.7944	503.8412	536.8739	562.4792	611.6507	630.9209	662.3928	715.505	752.4378	865.8566	947.2618	960.9995	995.4933	1042.7029	1066.6284	1091.2953	1109.5109	1121.1129	1150.4633	1212.3365	1244.0286	1273.4581	1302.5981	1352.8687	1376.822	1417.4414	1448.3027	1485.8155	1492.6666	1504.1709	1517.9928	2240.4553	2977.2198	2993.2582	3036.6077	3067.8272	3082.2397	3097.641	3134.0874	3460.8133	3501.7735
CC12COCC1(N2)C#C	C[C@]12COC[C@]1(N2)C#C	
InChI=1S/C7H9NO/c1-3-7-5-9-4-6(7,2)8-7/h1,8H,4-5H2,2H3	InChI=1S/C7H9NO/c1-3-7-5-9-4-6(7,2)8-7/h1,8H,4-5H2,2H3/t6-,7+/m0/s1
