18
gdb 75237	3.05924	1.47542	1.08875	4.1879	81.45	-0.2074	-0.0251	0.1823	1128.6224	0.147915	-401.980037	-401.971568	-401.970624	-402.013112	32.006	
C	-0.0140127739	 1.5168175288	 0.0249339381	-0.495183
C	-0.006306567	 0.0242689172	-0.0341798626	 0.137508
C	-0.0549599298	-0.7893090431	-1.1204685554	-0.111357
N	 0.0855469298	-2.1350943114	-0.8320316308	-0.375793
C	 0.0727418013	-2.2549792403	 0.6060578953	 0.252331
C	-0.6634104973	-3.3487614399	 1.3424631739	-0.30592
C	 0.8366460971	-3.3248000768	 1.3495252932	-0.28904
C	 0.0676908875	-0.8415007099	 1.1426468232	 0.287084
O	 0.1311502679	-0.5418970326	 2.3228154164	-0.380493
H	 0.9222092995	 1.9033984933	 0.4443044335	 0.135865
H	-0.1503515598	 1.9598667976	-0.9658734518	 0.113436
H	-0.8172998673	 1.8767481609	 0.6768851981	 0.137709
H	-0.1541879801	-0.4912928408	-2.1580229229	 0.125198
H	-0.4538989236	-2.7933563253	-1.3763078287	 0.245972
H	-1.1854726505	-3.0386767252	 2.2415739139	 0.144588
H	-1.163969524	-4.1074888184	 0.7492828602	 0.11345
H	 1.3661522375	-4.0586673414	 0.7528436308	 0.12025
H	 1.3349553427	-2.9937998228	 2.2544724656	 0.144394
89.9219	94.9121	214.2596	221.7668	254.5695	279.7299	332.3386	468.1675	493.2441	531.7511	563.5096	701.196	724.3605	767.2545	781.1651	899.0963	905.4496	923.1653	949.2904	960.6782	1000.1927	1046.345	1065.621	1067.6911	1084.779	1155.2565	1201.6872	1219.4235	1302.3107	1340.178	1373.7874	1418.3023	1433.0423	1447.8168	1474.5646	1482.3633	1495.5612	1663.3321	1773.6869	3029.0186	3080.5799	3108.7132	3126.475	3135.6334	3202.8497	3216.6605	3235.959	3589.6933
CC1=CNC2(CC2)C1=O	CC1=CNC2(CC2)C1=O	
InChI=1S/C7H9NO/c1-5-4-8-7(2-3-7)6(5)9/h4,8H,2-3H2,1H3	InChI=1S/C7H9NO/c1-5-4-8-7(2-3-7)6(5)9/h4,8H,2-3H2,1H3
