19
gdb 81192	3.00361	1.5506	1.41952	1.3071	80.6	-0.2243	0.0118	0.2361	1000.1875	0.161305	-385.815292	-385.808212	-385.807267	-385.846272	29.87	
O	 0.0864224221	 1.450072141	-0.1761107848	-0.453535
C	 0.0325242489	 0.0618377634	-0.012587798	 0.175019
C	 0.0329669018	-0.6002472073	 1.3849578377	-0.151759
C	-1.4794082197	-0.148773738	 1.5230562532	-0.348076
C	-1.341649735	-0.7230630005	 0.0776646912	 0.276775
C	-2.0285302896	-1.3092144491	-1.1125417155	-0.240871
C	-1.3488632423	-2.4126023986	-1.4659001474	-0.047918
C	-0.1777697959	-2.7493616043	-0.5244743717	-0.351963
C	-0.5504268976	-1.886604809	 0.6989412142	 0.037787
H	-0.4881040759	 1.8717271259	 0.4702668963	 0.281298
H	 0.7461871589	-0.3375254986	-0.7337148669	 0.081006
H	 0.7993126626	-0.5300721784	 2.1593411121	 0.072039
H	-2.0933760377	-0.7279880411	 2.2174526978	 0.102794
H	-1.6802544969	 0.9191248872	 1.6540845739	 0.077756
H	-2.8498949294	-0.8739566883	-1.6686913961	 0.099409
H	-1.5499721754	-3.0000450297	-2.3561318683	 0.094798
H	-0.1287386136	-3.8163631351	-0.2848453102	 0.103223
H	 0.7770158364	-2.496945434	-1.001033547	 0.119653
H	-1.1542927918	-2.4804689854	 1.3918782597	 0.072564
189.6976	225.8523	246.5847	341.4365	380.8555	434.3273	517.0147	545.2622	609.1236	641.9069	739.7549	759.6671	798.842	838.7424	868.876	881.8213	896.9258	939.776	952.0955	978.5204	1009.8764	1039.7993	1074.5284	1087.1134	1109.1473	1117.9219	1147.1769	1167.9209	1173.86	1191.8095	1217.3456	1228.6539	1260.1062	1284.3007	1290.3232	1361.3967	1409.8635	1462.8916	1494.2979	1533.9639	1619.1868	3036.7646	3044.923	3048.9409	3074.7806	3094.209	3105.4537	3116.3724	3180.0555	3210.914	3823.7579
OC1C2CC11C=CCC21	O[C@H]1[C@H]2C[C@]31C=CC[C@@H]23	
InChI=1S/C8H10O/c9-7-5-4-8(7)3-1-2-6(5)8/h1,3,5-7,9H,2,4H2	InChI=1S/C8H10O/c9-7-5-4-8(7)3-1-2-6(5)8/h1,3,5-7,9H,2,4H2/t5-,6-,7-,8+/m0/s1
