23
gdb 40509	2.94002	1.32171	1.13645	0.1451	88.89	-0.2442	0.0858	0.33	1205.1003	0.207145	-351.11761	-351.109153	-351.108209	-351.151197	33.606	
C	-0.1226915008	 1.2939030736	-0.4106187211	-0.281446
C	 1.2559294611	 1.038795256	 0.1442962371	-0.271166
C	 0.2465263132	-0.0850740764	 0.0796311463	-0.099607
C	-0.3338267299	-0.6975703405	 1.3202387424	 0.414493
C	 0.2921953616	-2.0380944479	 1.8005330651	-0.285434
C	-1.1290041701	-2.6539935055	 1.9661312613	-0.221539
C	-1.7704464617	-1.3636879665	 1.3852936508	-0.066758
C	-2.2051270551	-0.3266013466	 2.4443351506	-0.21597
C	-0.7519736684	 0.2301436835	 2.5058107269	-0.301214
H	-0.806512091	 1.892077666	 0.1821201321	 0.110693
H	-0.2280878681	 1.4394658136	-1.4801505935	 0.108134
H	 2.0972197398	 1.0204698731	-0.5396809283	 0.108922
H	 1.4875252108	 1.4512384593	 1.1209012769	 0.111954
H	 0.4217562679	-0.813938431	-0.709501572	 0.075093
H	 0.8736198543	-2.5291745209	 1.0142657078	 0.094257
H	 0.916765399	-1.9826171147	 2.6975337004	 0.090479
H	-1.2969554375	-3.5512569928	 1.3657485988	 0.097683
H	-1.4248746606	-2.8792181239	 2.9953101417	 0.09335
H	-2.4070444865	-1.4865015463	 0.507081465	 0.05676
H	-2.9125132547	 0.4075428598	 2.0489623542	 0.09718
H	-2.6179933526	-0.7297678907	 3.3742530216	 0.091243
H	-0.2135471547	 0.0246797503	 3.435488756	 0.093119
H	-0.6753927362	 1.3022874985	 2.3102108798	 0.099773
48.6167	79.7699	162.1574	234.4128	303.0501	349.6228	395.3788	441.6517	587.092	629.3747	742.1027	745.9452	782.5608	820.0656	829.1628	861.2739	892.978	899.611	907.2939	938.5722	958.6228	965.5606	1021.1494	1035.7564	1056.4489	1060.1637	1076.6039	1078.4587	1129.6573	1140.853	1173.3458	1186.1652	1198.8436	1219.8585	1227.7938	1233.7125	1249.4548	1261.9073	1270.1945	1283.4753	1313.2312	1333.9308	1411.4494	1464.5792	1472.378	1480.974	1486.7113	1498.8617	1510.4123	3039.5831	3044.0739	3051.4964	3056.0796	3080.2785	3084.8488	3091.9614	3105.7887	3111.9476	3117.589	3130.2541	3134.1183	3206.3264	3220.674
C1CC1C12CCC1CC2	C1CC1[C@]12CC[C@H]1CC2	
InChI=1S/C9H14/c1-2-7(1)9-5-3-8(9)4-6-9/h7-8H,1-6H2	InChI=1S/C9H14/c1-2-7(1)9-5-3-8(9)4-6-9/h7-8H,1-6H2/t8-,9+
