23
gdb 90764	3.10269	1.32445	1.14749	1.4654	84.44	-0.244	0.0757	0.3197	1197.4656	0.207259	-388.297243	-388.288555	-388.287611	-388.33056	34.282	
C	 0.3951677285	 1.6098849742	-0.1099387262	-0.415425
C	 0.0618074077	 0.1279855234	-0.0033586944	 0.046626
C	 0.8039753738	-0.8371222503	-0.9730323841	-0.261204
C	 1.2530931613	-1.7191049205	 0.2243737467	-0.01539
C	 0.6083825622	-0.6885543364	 1.2157525329	-0.05475
C	 1.8136616405	-0.1233023786	 1.9718770112	-0.103325
O	 2.9567711739	-0.3995715699	 1.1653386931	-0.266416
C	 2.752569949	-1.6783137557	 0.5485110095	 0.120393
C	 3.2168743295	-2.8224609811	 1.4521125113	-0.409497
H	 1.4768492102	 1.7754550923	-0.074674361	 0.131786
H	 0.0285331649	 2.0179480072	-1.0585293917	 0.110919
H	-0.0647299691	 2.1892375834	 0.6989360346	 0.109367
H	-1.0224364861	-0.0038421971	-0.0774344241	 0.067065
H	 0.1749737664	-1.3354736311	-1.7146919494	 0.093064
H	 1.6436247665	-0.3666478719	-1.4946219629	 0.099313
H	 0.8476101312	-2.7322459561	 0.2335665834	 0.065043
H	-0.1607148426	-1.057270123	 1.897353376	 0.063699
H	 1.779259567	 0.9582581396	 2.1300357756	 0.106243
H	 1.9035564146	-0.6037447824	 2.9585549442	 0.085835
H	 3.3603809887	-1.668809352	-0.363720969	 0.077322
H	 2.5992036896	-2.9026916852	 2.352707105	 0.115234
H	 3.1573549238	-3.7780178617	 0.9204580961	 0.111897
H	 4.2534721185	-2.6626306272	 1.7617179233	 0.1222
50.2584	149.7622	212.7666	242.5597	262.1944	301.7859	333.5765	359.0999	464.1671	481.2238	612.1035	708.3968	745.0495	759.5507	815.8817	855.2442	886.7926	896.7587	929.9767	975.4329	987.9958	1014.5957	1019.5402	1042.3457	1058.797	1113.6377	1124.0411	1140.1917	1156.7839	1172.1143	1210.4839	1235.1193	1253.2947	1266.0914	1286.9409	1303.6986	1329.9458	1335.6878	1364.7945	1374.1079	1397.023	1403.9392	1409.1337	1480.9045	1489.896	1495.0563	1495.2636	1504.1203	1522.0467	2979.003	3024.7748	3035.4139	3039.0292	3042.7539	3048.4752	3081.7773	3085.1377	3088.6056	3091.3808	3101.1482	3103.85	3108.2931	3116.277
CC1CC2C1COC2C	C[C@H]1C[C@@H]2[C@H]1CO[C@H]2C	
InChI=1S/C8H14O/c1-5-3-7-6(2)9-4-8(5)7/h5-8H,3-4H2,1-2H3	InChI=1S/C8H14O/c1-5-3-7-6(2)9-4-8(5)7/h5-8H,3-4H2,1-2H3/t5-,6-,7-,8-/m0/s1
