14
gdb 21719	3.75713	1.9373	1.31652	4.3705	59.62	-0.2172	0.0183	0.2355	871.7362	0.110231	-412.033866	-412.026991	-412.026047	-412.06496	25.766	
N	-0.3025905738	 0.8595622141	 0.0806080278	-0.530298
H	-0.3162537409	-0.8422111648	 1.0405047615	 0.306725
H	 0.6620600091	 0.9245446652	-0.2328612799	 0.248872
H	-0.884908176	 1.1101984711	-0.7115330575	 0.245827
C	-0.5260360218	 1.801256238	 1.2062038664	-0.282858
C	 0.0228658234	 1.1815492147	 2.4508446463	 0.19222
C	 0.1646125125	-0.172855013	 2.6800029675	 0.358838
O	-0.0899963805	-1.2381014726	 1.9152957243	-0.423507
N	 0.6711562233	-0.2518580276	 3.9269458526	-0.24702
N	 0.8420205917	 0.9929612499	 4.4622962118	-0.140688
N	 0.4517787712	 1.84385885	 3.560645887	-0.260432
H	-0.0811920223	 2.7925235083	 1.0469539501	 0.124457
H	-1.610268033	 1.9512111457	 1.2876553087	 0.127149
H	 0.924466927	-1.0721181189	 4.4530836634	 0.280716
104.5335	220.6778	245.0758	321.5826	339.6602	422.4071	465.7152	538.5825	692.8436	704.6348	735.2776	753.7766	803.9127	914.7565	1003.1741	1010.3498	1017.3831	1030.1365	1169.5454	1217.1868	1253.4223	1273.7152	1342.3564	1368.146	1403.9443	1439.6419	1504.3784	1588.0863	1646.0799	1659.6585	3011.1738	3042.6638	3400.6138	3496.1824	3578.1903	3666.1365
[NH3+]CC1=C([O-])NN=N1	NCc1c(O)[nH]nn1	
InChI=1S/C3H6N4O/c4-1-2-3(8)6-7-5-2/h1,4H2,(H2,5,6,7,8)	InChI=1S/C3H6N4O/c4-1-2-3(8)6-7-5-2/h1,4H2,(H2,5,6,7,8)
