19
gdb 80362	2.24452	1.80158	1.23628	3.7782	79.51	-0.2477	0.016	0.2638	1069.7648	0.158757	-382.043207	-382.034458	-382.033514	-382.076037	33.538	
C	-0.3455454862	 1.4821137075	-0.0485835749	-0.428701
C	 0.0102889165	 0.0135735993	-0.070586853	 0.024725
C	 0.6423247624	-0.725903694	-1.1790559925	-0.042583
C	 1.7095238916	 0.0901950835	-1.9026895657	-0.31377
C	 2.4336909603	 0.2010732462	-0.5259409048	 0.172346
C	 3.727828327	-0.6127470408	-0.4518744823	-0.421839
C	 2.6831901202	 1.5446991325	 0.0018741169	 0.275673
N	 2.9159533338	 2.5999449601	 0.4135451716	-0.353212
N	 1.3447096717	-0.5920955031	 0.1783484802	-0.181211
H	 0.2583071462	 2.0959792864	-0.7176289907	 0.138624
H	-1.3928276918	 1.5921228512	-0.349557361	 0.122383
H	-0.2406785709	 1.892125987	 0.9601182561	 0.145503
H	-0.7132751395	-0.5911682259	 0.4744716395	 0.106722
H	 0.275214209	-1.6873619296	-1.5232675406	 0.101928
H	 2.2986651701	-0.4824885626	-2.6200102523	 0.12278
H	 1.378773141	 1.0172624832	-2.3757841919	 0.124478
H	 4.5122490915	-0.1481061293	-1.0561325535	 0.131545
H	 4.0704482045	-0.6826189636	 0.5833128573	 0.145446
H	 3.5387508627	-1.6236267379	-0.8216519782	 0.129162
132.1043	138.4925	197.6336	221.4085	245.5677	260.0415	302.27	357.2624	446.6972	502.2648	545.993	591.9306	645.2722	709.3801	777.8443	817.882	888.361	919.6088	925.8475	959.9631	990.9212	1007.0133	1076.5844	1102.9598	1124.7018	1132.8572	1162.758	1189.9918	1251.9909	1266.6011	1277.4369	1357.2116	1407.2824	1419.6661	1441.4792	1479.1294	1484.4338	1489.1314	1496.3719	1504.1142	2346.1179	3045.9825	3047.0067	3074.3109	3107.2344	3117.4922	3127.4464	3129.3902	3134.5928	3143.7578	3164.6878
CC1C2CC(C)(C#N)N12	C[C@H]1[C@H]2C[C@@](C)(C#N)N12	
InChI=1S/C7H10N2/c1-5-6-3-7(2,4-8)9(5)6/h5-6H,3H2,1-2H3	InChI=1S/C7H10N2/c1-5-6-3-7(2,4-8)9(5)6/h5-6H,3H2,1-2H3/t5-,6+,7-,9?/m0/s1
