21
gdb 106580	2.69195	1.42302	1.25253	1.6785	82.17	-0.2309	0.0015	0.2324	1142.4138	0.181755	-387.054272	-387.045575	-387.04463	-387.087297	34.216	
C	-0.2065660669	 1.5455232671	-0.0918093461	-0.380241
C	 0.0904926691	 0.0451677802	 0.0237444636	-0.313268
C	 0.8199453964	-0.4983524017	-1.1779373481	 0.377186
O	 0.1215675984	-0.3331650101	-2.4662692786	-0.322646
C	 1.0975736336	-1.319067767	-2.9284114542	-0.00733
C	 2.4186487756	-0.5483068615	-2.7497841496	-0.086595
C	 2.2314966735	 0.0134926043	-1.5551056965	-0.122605
C	 0.9300512169	-2.0282048627	-1.5431001818	-0.008429
C	 1.9637571089	-2.9643711278	-0.9453699522	-0.432432
H	 0.715991166	 2.130829788	-0.1627468787	 0.115899
H	-0.7980338648	 1.7490610285	-0.9882735114	 0.14175
H	-0.7646031044	 1.9015285063	 0.7790595918	 0.11022
H	 0.6957499564	-0.156742341	 0.9169336449	 0.100042
H	-0.8464960803	-0.509974422	 0.145856864	 0.105156
H	 0.8569183941	-1.7844257252	-3.883833411	 0.074229
H	 3.2581740274	-0.5123284795	-3.4284378019	 0.108171
H	 2.8730165291	 0.6496970826	-0.9625559657	 0.106702
H	-0.0718866746	-2.4672067348	-1.490907041	 0.081812
H	 2.9710717445	-2.5430632519	-0.9888927944	 0.118776
H	 1.7277180361	-3.1795294899	 0.102759423	 0.11697
H	 1.970006965	-3.9214287519	-1.4787874461	 0.116634
81.588	146.2716	200.6893	221.7911	238.9527	271.417	331.4707	396.0235	548.3335	572.5432	596.9809	622.3101	713.185	751.4177	775.2397	779.2122	828.6726	882.2737	900.1415	908.1615	917.2206	971.0377	980.9853	1045.7112	1059.0533	1071.8601	1106.4082	1144.1027	1158.5638	1199.7266	1236.488	1257.0871	1272.7632	1297.9458	1334.4206	1371.8624	1394.934	1408.2746	1413.0712	1476.5905	1495.707	1496.9126	1501.3315	1507.7866	1618.7505	3026.9327	3032.6025	3041.3586	3059.2847	3065.9109	3090.44	3107.7275	3121.4309	3124.2673	3127.6274	3225.189	3253.2863
CCC12OC(C=C1)C2C	CC[C@@]12O[C@@H](C=C1)[C@H]2C	
InChI=1S/C8H12O/c1-3-8-5-4-7(9-8)6(8)2/h4-7H,3H2,1-2H3	InChI=1S/C8H12O/c1-3-8-5-4-7(9-8)6(8)2/h4-7H,3H2,1-2H3/t6-,7+,8-/m1/s1
