19
gdb 116573	3.46126	1.00825	0.89344	1.122	80.19	-0.2391	0.0223	0.2614	1384.3887	0.158801	-419.169962	-419.160817	-419.159873	-419.204553	33.885	
C	-0.4803728211	 0.0575144347	 0.8582750624	-0.359148
C	 0.3915884451	 0.577102085	-0.2866770137	-0.151972
N	 0.7720545961	-0.5198009269	-1.1741418816	-0.354201
C	 1.9786508063	-0.8084440313	-1.3179318972	 0.420296
O	 3.1343061768	-0.204029807	-0.7907859183	-0.291576
C	 3.9630442901	-1.0261141534	-1.6513517987	 0.064963
C	 3.7973510361	-2.4535538084	-1.2722443489	-0.321144
C	 2.7478441871	-1.7823654637	-2.165271078	 0.146348
N	 2.4370387276	-2.3018495775	-3.4441543615	-0.593543
H	-1.3524095713	-0.4741337103	 0.4668031282	 0.123933
H	 0.0821197192	-0.6354405827	 1.49170324	 0.117705
H	-0.8280959842	 0.8864670566	 1.4828534334	 0.109751
H	-0.1881437355	 1.2933182775	-0.8821590929	 0.104458
H	 1.2628856886	 1.1114743987	 0.1128077514	 0.112473
H	 4.7939382715	-0.5507163514	-2.1527783178	 0.125987
H	 4.414969656	-3.1579111487	-1.8210912083	 0.132443
H	 3.572767531	-2.7170981744	-0.243438079	 0.126862
H	 1.8428218657	-3.1214638501	-3.3657343087	 0.24341
H	 1.9304431151	-1.6161652569	-3.9956038507	 0.242956
36.3132	102.2415	146.2827	185.8221	252.236	274.0494	293.3	353.0034	445.0566	463.6443	525.3837	654.238	714.9072	752.4732	797.4879	819.6918	862.3885	892.5279	898.1807	934.2129	944.8691	1019.2348	1044.3565	1058.722	1083.5114	1089.4668	1119.515	1175.5025	1235.298	1258.8045	1295.0247	1307.6366	1377.5152	1405.0196	1416.783	1487.9033	1489.364	1495.4106	1513.2727	1666.4275	1843.8228	3014.9248	3038.3363	3051.9387	3110.0207	3117.9819	3124.6266	3219.5054	3227.6943	3497.9664	3571.4899
CCN=C1OC2CC12N	CCN=C1O[C@H]2C[C@@]12N	
InChI=1S/C6H10N2O/c1-2-8-5-6(7)3-4(6)9-5/h4H,2-3,7H2,1H3	InChI=1S/C6H10N2O/c1-2-8-5-6(7)3-4(6)9-5/h4H,2-3,7H2,1H3/t4-,6-/m0/s1
