17
gdb 29274	5.68265	0.93218	0.84968	2.2031	78.04	-0.2168	0.0057	0.2225	1365.5006	0.135805	-421.835479	-421.827255	-421.826311	-421.868887	30.1	
C	 0.3530752998	 1.4906583898	-0.147230127	-0.499993
C	 0.0618331726	 0.0289354485	-0.0075288114	 0.264807
C	-0.4166976939	-0.8140500312	-0.9617576359	-0.110115
O	-0.5593339184	-2.0778979792	-0.4770832259	-0.183829
C	-0.155844469	-2.0504875494	 0.8231159001	 0.408747
C	 0.2321014426	-0.7900636873	 1.1615859606	-0.398299
C	-0.2139433505	-3.300263149	 1.5889615464	-0.046119
C	-1.0305760443	-4.4533910725	 1.1779744837	-0.178254
O	 0.3838636697	-4.4737447443	 1.0071018081	-0.231974
H	 1.4077921141	 1.7104394174	 0.0529194141	 0.132622
H	 0.1253564061	 1.8436685414	-1.1567719769	 0.126056
H	-0.2388812165	 2.0871175475	 0.5561394401	 0.130927
H	-0.6912666986	-0.6753640108	-1.9949799063	 0.132759
H	 0.6012975279	-0.4758762109	 2.1263769728	 0.109885
H	 0.0026819396	-3.1693210578	 2.6481687461	 0.100993
H	-1.4261195847	-5.126023308	 1.9385915018	 0.114415
H	-1.6099066867	-4.3863189942	 0.2594322094	 0.127372
59.9275	127.2603	140.9194	162.4451	272.2656	293.3565	424.2678	442.8967	620.4178	623.6451	694.9995	720.6977	751.8638	812.7223	830.7033	896.9634	965.4321	986.6938	997.3447	1018.9278	1065.4877	1094.4295	1148.9847	1163.5027	1164.6932	1177.8595	1248.1025	1278.5309	1322.0599	1392.2026	1409.6069	1421.6626	1483.092	1498.5435	1516.5059	1590.0944	1662.3421	3030.2574	3081.4344	3084.1936	3111.5538	3126.3873	3178.2021	3246.4009	3271.6594
CC1=COC(=C1)C1CO1	Cc1coc(c1)[C@H]1CO1	
InChI=1S/C7H8O2/c1-5-2-6(8-3-5)7-4-9-7/h2-3,7H,4H2,1H3	InChI=1S/C7H8O2/c1-5-2-6(8-3-5)7-4-9-7/h2-3,7H,4H2,1H3/t7-/m1/s1
