22
gdb 91822	3.295	1.2263	1.0345	1.6159	88.2	-0.231	0.0183	0.2493	1263.0563	0.195276	-367.210687	-367.201917	-367.200972	-367.243664	34.826	
C	 0.1726592485	 1.6196552685	-0.0303313139	-0.398501
C	-0.0250408359	 0.0983180842	-0.0158760768	-0.032816
C	 0.5791901704	-0.5523336065	-1.2796448529	-0.205498
C	 0.6634822994	-2.0712895164	-1.1874663563	-0.106912
N	 1.9903515903	-2.6326366821	-0.8336110915	-0.371342
C	 0.8670785097	-2.7093398166	 0.1379790084	 0.31165
C	 0.2641859202	-4.0665611937	 0.4340256167	-0.474677
C	 0.9747822058	-1.7854480741	 1.3032627365	-0.124214
C	 0.5506223464	-0.5244330979	 1.2391201449	-0.040639
H	 1.2382895098	 1.8741555073	-0.0095582542	 0.120371
H	-0.2606034829	 2.06397744	-0.9325328104	 0.110233
H	-0.3017060786	 2.0907177775	 0.8371284336	 0.110153
H	-1.1099961002	-0.0929944632	-0.0171477822	 0.081524
H	-0.0060903978	-0.2579224251	-2.1581769561	 0.089458
H	 1.5930893414	-0.16311298	-1.4230297859	 0.113069
H	 0.0745071434	-2.6306564475	-1.9113312218	 0.076303
H	 2.1031369682	-3.5418432066	-1.2801803185	 0.218745
H	 0.1637506464	-4.6611048706	-0.4804427417	 0.11013
H	 0.8913004994	-4.628413668	 1.1367259195	 0.121434
H	-0.7293951499	-3.9686126248	 0.8846795652	 0.126247
H	 1.3911886608	-2.1877349776	 2.2243419267	 0.082084
H	 0.6141924451	 0.1125903933	 2.1191868309	 0.083198
76.7047	179.1791	213.1982	245.5141	254.4648	287.3824	356.3958	396.3395	405.6715	477.7234	531.283	583.0257	652.6826	732.59	759.0091	813.6264	867.9402	883.6541	914.2532	964.5126	979.3211	984.1781	998.0874	1046.9169	1064.9888	1087.4016	1110.1743	1134.8208	1155.3122	1174.1432	1214.0359	1256.315	1296.9639	1309.3057	1326.661	1352.7381	1369.4184	1407.8955	1412.6414	1429.471	1446.1222	1477.071	1484.2362	1498.1674	1500.4357	1503.1624	1713.4955	2971.3859	3020.5103	3026.8678	3033.1062	3076.7442	3084.801	3095.6074	3097.1957	3098.7946	3123.5049	3134.1716	3157.7805	3467.0937
CC1CC2NC2(C)C=C1	C[C@H]1C[C@H]2N[C@@]2(C)C=C1	
InChI=1S/C8H13N/c1-6-3-4-8(2)7(5-6)9-8/h3-4,6-7,9H,5H2,1-2H3	InChI=1S/C8H13N/c1-6-3-4-8(2)7(5-6)9-8/h3-4,6-7,9H,5H2,1-2H3/t6-,7-,8+/m1/s1
