18
gdb 71972	2.8017	1.66248	1.2047	1.415	83.71	-0.2223	0.0335	0.2558	1051.2221	0.146987	-364.708241	-364.700219	-364.699275	-364.740334	31.827	
C	 0.0176835345	 1.4856455997	 0.0421840756	-0.512287
C	 0.0610897288	-0.0088903664	-0.0433691757	 0.267569
C	 0.0188160296	-0.9115815992	-1.2667162097	-0.2256
N	-0.3124414607	-2.0858308409	-0.3668297821	-0.17607
C	 0.9840374924	-2.2473723345	 0.3919448795	-0.240971
C	 0.7394544909	-0.8954767194	 1.0578825044	 0.181947
C	 1.3262095229	-0.3460749162	 2.2271878576	 0.103729
C	 1.8431423033	 0.1024698516	 3.2184400981	-0.382527
C	-0.7282296645	-1.0459653406	 0.6927618305	-0.123705
H	 0.9313996072	 1.9286293978	-0.3694626421	 0.12807
H	-0.8337556169	 1.8842589131	-0.5201413339	 0.122496
H	-0.0714357479	 1.8196542006	 1.0797706394	 0.136542
H	-0.8407489786	-0.6920137635	-1.9071597896	 0.110787
H	 0.9148761936	-1.0444968693	-1.8838539518	 0.099528
H	 0.8965159053	-3.073469617	 1.1015875089	 0.118441
H	 1.8707275622	-2.3868573714	-0.236254422	 0.102746
H	 2.2950041201	 0.4956911815	 4.094910392	 0.181657
H	-1.6332810823	-1.0555330759	 1.2840704411	 0.107648
131.8323	142.3026	192.2446	251.0222	296.9324	400.4786	476.9996	501.6369	506.5228	562.3943	574.0678	636.5671	659.1962	699.9055	792.6843	853.4501	854.7436	915.0998	930.876	954.1019	984.0402	1032.5571	1071.7928	1101.0694	1123.8208	1137.67	1161.5844	1184.7709	1224.285	1243.0705	1288.3149	1352.8595	1399.2934	1425.4057	1486.5606	1495.8223	1500.8689	1521.4852	2227.2163	3029.4737	3031.8391	3042.2149	3090.4144	3091.8882	3107.5973	3112.0952	3215.9323	3502.9091
CC12CN3CC1(C#C)C23	C[C@@]12CN3C[C@]1(C#C)[C@@H]23	
InChI=1S/C8H9N/c1-3-8-5-9-4-7(8,2)6(8)9/h1,6H,4-5H2,2H3	InChI=1S/C8H9N/c1-3-8-5-9-4-7(8,2)6(8)9/h1,6H,4-5H2,2H3/t6-,7+,8-/m1/s1
