16
gdb 30677	4.11481	1.01973	0.88303	3.0124	66.78	-0.2496	-0.0096	0.24	1275.1303	0.124896	-475.043943	-475.035654	-475.03471	-475.077654	30.141	
O	 0.089625607	 1.4059169964	 0.0608632142	-0.419433
C	 0.0587634968	 0.0096215283	 0.2283857398	-0.061001
C	-1.3684106167	-0.5191414503	-0.0211568545	-0.007042
O	-1.8097736923	-0.0651997913	-1.2891025084	-0.441888
C	-1.4278653888	-2.0115796865	 0.0310077301	 0.388767
N	-1.5564682242	-2.7995344508	-0.9890422026	-0.3308
C	-1.5086648565	-4.0804098589	-0.4481631582	-0.108127
C	-1.347355589	-3.9834650924	 0.8901460651	-0.044806
O	-1.2922316206	-2.6515168192	 1.2127199826	-0.177852
H	-0.3495566885	 1.5739556345	-0.7831701716	 0.29225
H	 0.7468418888	-0.5055568463	-0.4625058143	 0.088933
H	 0.3731323758	-0.21117312	 1.2535446509	 0.11627
H	-2.0309210979	-0.0894143638	 0.7411587839	 0.113174
H	-1.7460934469	-0.8178087517	-1.8946377808	 0.302782
H	-1.5963757893	-4.9628333594	-1.0609616097	 0.134468
H	-1.2630039277	-4.6799905186	 1.7057729335	 0.154305
52.123	112.0263	117.6237	233.7863	284.0777	349.773	362.7679	429.4385	507.4894	532.8687	627.79	723.3934	763.5541	816.9207	865.5675	887.8327	933.0027	985.0585	1070.0166	1084.3134	1096.4828	1114.0821	1144.4382	1169.5623	1217.7354	1222.7122	1298.3968	1325.3533	1373.7267	1387.3941	1432.3675	1457.6398	1501.7012	1557.5224	1614.581	2968.3338	3034.8618	3082.9382	3270.2435	3305.6738	3735.8215	3772.0544
OCC(O)C1=NC=CO1	OC[C@@H](O)c1ncco1	
InChI=1S/C5H7NO3/c7-3-4(8)5-6-1-2-9-5/h1-2,4,7-8H,3H2	InChI=1S/C5H7NO3/c7-3-4(8)5-6-1-2-9-5/h1-2,4,7-8H,3H2/t4-/m1/s1
