19
gdb 11416	5.6177	1.17207	1.01529	3.3556	72.97	-0.2536	0.0333	0.2868	1174.5899	0.166772	-365.095012	-365.086947	-365.086002	-365.127691	29.961	
C	-0.0677154756	 1.5878618049	 0.0640661272	-0.388893
C	-0.0076969355	 0.0566945525	 0.0893599727	-0.19826
C	-1.3744293264	-0.6162180551	-0.0484898347	 0.015621
C	-2.0812863603	-0.368699346	-1.3929002065	-0.090285
O	-2.9782478672	-1.4752217828	-1.5732799904	-0.237993
C	-2.5866895221	-2.537813445	-0.8031910295	 0.408024
N	-3.1757418503	-3.6535032868	-0.7702118602	-0.541937
C	-1.3564768896	-2.1526601709	-0.0125918805	-0.32152
H	 0.9278789187	 2.0222805047	 0.1937471735	 0.119667
H	-0.4681433144	 1.9620932434	-0.8842563123	 0.120548
H	-0.7055892023	 1.9720902229	 0.867657501	 0.119458
H	 0.6482627705	-0.3021694472	-0.7154693392	 0.098791
H	 0.4540508244	-0.2735921571	 1.0277416837	 0.105182
H	-2.0336439083	-0.2558426714	 0.7522075111	 0.086065
H	-2.6733982835	 0.5484363423	-1.4260990016	 0.11967
H	-1.361126374	-0.3508303274	-2.223387871	 0.105258
H	-3.9719549011	-3.6544078852	-1.4106616557	 0.219548
H	-0.4671221726	-2.5413137693	-0.5257966737	 0.125636
H	-1.3764581806	-2.5874812064	 0.9870182462	 0.135419
79.818	117.2023	170.6402	193.2854	246.7901	348.7513	411.1933	475.5926	512.7307	602.7459	680.9053	782.1669	846.0319	877.1186	895.0957	912.9648	955.1376	991.2176	1010.6032	1040.9315	1079.456	1112.2645	1139.8499	1153.4919	1199.0622	1246.8433	1268.6832	1284.5141	1308.0137	1333.9872	1368.932	1384.6387	1412.8581	1415.5613	1472.2614	1487.8975	1501.6425	1506.8417	1523.3197	1780.3227	3004.7613	3014.1947	3022.045	3033.0709	3036.3105	3055.2523	3099.2223	3103.0226	3107.7018	3130.2172	3467.4785
CCC1COC(=N)C1	CC[C@H]1CO[C]([NH])C1	
InChI=1S/C6H11NO/c1-2-5-3-6(7)8-4-5/h5,7H,2-4H2,1H3	InChI=1S/C6H11NO/c1-2-5-3-6(7)8-4-5/h5,7H,2-4H2,1H3/t5-/m1/s1
