20
gdb 19745	4.39764	1.94412	1.94411	0.	77.48	-0.2725	0.094	0.3664	814.0599	0.182372	-311.878205	-311.87232	-311.871376	-311.907747	25.473	
C	-0.0210345384	 1.500057799	-0.0152146285	-0.230087
C	 1.5106027071	 1.7992022424	-0.0301733429	-0.230087
C	 2.0425108444	 0.362796216	 0.0172304229	-0.004641
C	 1.1432962602	-0.438682598	-0.9797765178	-0.004641
C	 1.4342930023	-1.913885636	-0.6839200474	-0.230088
C	 1.4391698134	-1.860612957	 0.875811675	-0.230087
C	 1.1496678957	-0.368606824	 1.0721384273	-0.004641
C	 0.0275556329	-0.0307451668	 0.0369147121	-0.004641
H	-0.526891019	 1.930208052	 0.8548525761	 0.092573
H	-0.532365442	 1.8699815878	-0.9094415605	 0.092573
H	 1.8282646788	 2.331009552	-0.9325084766	 0.092573
H	 1.833727839	 2.3912874218	 0.8317836746	 0.092573
H	 3.1266137936	 0.2221258171	 0.0186960363	 0.049582
H	 1.0737038238	-0.1346301207	-2.0275258048	 0.049582
H	 0.6608239789	-2.5784814067	-1.0814023753	 0.092575
H	 2.3933374195	-2.2401040037	-1.0983627465	 0.092572
H	 0.6683252607	-2.4963765792	 1.3225224194	 0.092572
H	 2.4008394888	-2.1580011866	 1.3055622547	 0.092575
H	 1.0864461871	 0.0062142145	 2.0971173652	 0.049582
H	-0.9237342069	-0.568948634	 0.0582215763	 0.049582
263.417	298.7852	328.2937	328.2939	580.5697	687.9338	687.9447	772.1265	829.2567	829.2581	913.0877	913.092	913.1098	916.8684	943.1179	958.8606	958.8623	993.9067	1004.2434	1035.4562	1042.3831	1048.0021	1115.9084	1115.909	1124.6905	1191.0936	1200.0223	1255.976	1260.1901	1260.5012	1262.7978	1262.7999	1268.8916	1268.893	1317.5104	1322.4536	1322.4567	1382.0673	1498.5183	1498.5187	1517.3516	1518.559	3041.2696	3041.2702	3050.1213	3050.5908	3074.3005	3074.7233	3074.726	3076.9314	3076.9322	3090.3205	3094.3879	3094.3886
C1CC2C3CCC2C13	C1C[C@@H]2[C@H]3CC[C@@H]2[C@@H]13	
InChI=1S/C8H12/c1-2-6-7-3-4-8(6)5(1)7/h5-8H,1-4H2	InChI=1S/C8H12/c1-2-6-7-3-4-8(6)5(1)7/h5-8H,1-4H2/t5-,6+,7-,8+
