16
gdb 67005	2.67796	2.01751	1.41242	3.5808	68.07	-0.2456	0.016	0.2616	909.4313	0.126068	-437.889161	-437.88224	-437.881295	-437.920093	28.302	
O	-0.0161542302	 1.3411928406	-0.0179694358	-0.48479
C	-0.0494998658	-0.0361123405	 0.0152506853	 0.344363
C	-0.5001376101	-0.784050301	-1.2602804909	-0.121961
C	-0.2335769969	-2.2812701366	-1.1896115743	-0.245263
C	-0.7007717819	-2.2263010906	 0.3086966251	-0.046246
N	 0.4254305124	-1.9464333925	 1.2000541915	-0.314842
C	 0.9386101789	-0.7017043758	 0.9267792651	 0.346838
O	 1.9538440612	-0.1849353283	 1.3496960313	-0.403549
C	-1.3223894339	-0.8233085814	 0.0210949413	-0.145653
H	 0.8388277997	 1.5752224573	 0.3748588801	 0.299183
H	-0.6702514891	-0.1788773499	-2.1419100055	 0.106603
H	-0.9511639121	-2.8326860083	-1.8040080566	 0.111925
H	 0.7778343979	-2.6598724823	-1.3743008245	 0.097907
H	-1.3305088202	-3.0297424007	 0.6847495422	 0.094836
H	 1.0457424666	-2.679429317	 1.5126462612	 0.252119
H	-2.3054565364	-0.4471181132	 0.2689090247	 0.108532
147.6204	258.2547	290.6589	360.9907	375.6763	442.8779	485.4966	528.8253	602.5611	666.2093	700.4318	728.2014	818.9423	852.652	855.1707	883.4783	922.4947	956.7299	982.6405	995.7215	1046.6569	1078.5272	1117.8448	1141.2094	1164.484	1209.2479	1231.4605	1267.6167	1287.0479	1338.3826	1383.9538	1420.1095	1465.971	1491.5738	1820.827	3037.1273	3096.7743	3137.4769	3198.3949	3214.3136	3614.0323	3718.6794
OC12C3CC(NC1=O)C23	O[C@@]12[C@H]3C[C@@H](NC1=O)[C@@H]23	
InChI=1S/C6H7NO2/c8-5-6(9)2-1-3(7-5)4(2)6/h2-4,9H,1H2,(H,7,8)	InChI=1S/C6H7NO2/c8-5-6(9)2-1-3(7-5)4(2)6/h2-4,9H,1H2,(H,7,8)/t2-,3+,4-,6+/m0/s1
