22
gdb 101592	2.43463	1.02358	0.76002	4.0837	80.67	-0.2331	0.0424	0.2754	1555.7377	0.191973	-441.516846	-441.505588	-441.504643	-441.554361	38.929	
C	 0.7245769485	 1.4191475396	 0.5140725547	-0.331928
N	 0.8915820608	 0.000434933	 0.7483076185	-0.294414
C	-0.1466459416	-0.8144344716	 1.0820176983	 0.366822
O	-1.299436559	-0.4308947907	 1.1956305183	-0.379738
C	 0.2301178515	-2.2861209978	 1.2798558567	-0.305699
C	 1.4014916397	-2.5666174276	 2.2294339631	 0.118987
C	 1.4732014537	-4.0500672105	 2.5986165615	-0.399479
O	 2.5962623565	-2.1340190227	 1.5670027569	-0.249656
C	 3.7187771035	-1.9739540071	 2.4099079415	-0.245499
H	 1.2830982516	 2.0179387432	 1.2436320301	 0.117793
H	 1.0595797129	 1.6994653361	-0.4912122513	 0.12042
H	-0.3382579259	 1.6440909191	 0.6111441054	 0.166435
H	 1.809580465	-0.4191043941	 0.7235189689	 0.254804
H	-0.6698759219	-2.7769980259	 1.6542093566	 0.126378
H	 0.4709029211	-2.7301246622	 0.3056856187	 0.124306
H	 1.2760092535	-1.9699735893	 3.147952149	 0.079033
H	 2.3105430338	-4.2614053989	 3.2693044995	 0.117462
H	 0.5558424837	-4.3569974243	 3.1095587889	 0.126159
H	 1.590341386	-4.6608741428	 1.6979243187	 0.126517
H	 4.0694069006	-2.9282601581	 2.8244598166	 0.118376
H	 4.5194788662	-1.5485560266	 1.7999303711	 0.130332
H	 3.5035538698	-1.2897111505	 3.2444418285	 0.112588
43.8251	77.6774	80.7985	93.6612	130.6216	185.9695	210.1785	241.757	272.6742	301.4702	334.3621	388.1795	459.5992	501.686	603.587	666.4718	740.1552	808.1368	873.5761	902.1125	950.5853	1028.664	1106.8943	1109.8093	1114.5267	1152.1082	1159.582	1181.0924	1181.7265	1197.9172	1252.5714	1301.6403	1307.3254	1381.4085	1384.458	1407.4936	1437.367	1457.2583	1477.3227	1483.6245	1492.8929	1498.2033	1501.9124	1506.9269	1512.7936	1580.9675	1777.8189	2970.8701	2989.5458	3020.782	3039.5944	3043.1274	3049.0454	3068.978	3114.2252	3115.5345	3118.0836	3125.9491	3150.3744	3599.045
CNC(=O)CC(C)OC	CNC(=O)C[C@@H](C)OC	
InChI=1S/C6H13NO2/c1-5(9-3)4-6(8)7-2/h5H,4H2,1-3H3,(H,7,8)	InChI=1S/C6H13NO2/c1-5(9-3)4-6(8)7-2/h5H,4H2,1-3H3,(H,7,8)/t5-/m1/s1
