21
gdb 26090	3.06533	1.24568	1.1008	3.1996	84.51	-0.2131	0.0396	0.2527	1215.189	0.18308	-383.32536	-383.316116	-383.315172	-383.359476	35.578	
C	-0.2406556307	 1.5495564292	-0.0942564683	-0.395843
C	 0.0224274643	 0.0307574197	-0.0016186683	 0.145482
C	 0.8839864031	-0.2709901063	 1.2369074376	-0.434941
C	-1.3251723106	-0.715160757	 0.1083896361	-0.395844
C	 0.7157689053	-0.4148397871	-1.2710778532	 0.368574
N	 0.219945478	-0.2859709934	-2.4852538663	-0.311223
C	 1.1598291845	-0.8124428757	-3.3388526693	-0.089794
C	 2.2429782219	-1.2685347173	-2.6387620772	-0.124016
N	 1.9469185334	-1.0085553929	-1.317232108	-0.299542
H	 0.698710939	 2.1102245292	-0.1413660066	 0.108905
H	-0.8154502027	 1.7791784181	-0.9941234835	 0.141514
H	-0.8013536284	 1.8955132449	 0.780996808	 0.103426
H	 0.3659497787	 0.0581283125	 2.1425937595	 0.121824
H	 1.0776331183	-1.3444052754	 1.3454772954	 0.110188
H	 1.8442333587	 0.2564875568	 1.2022401024	 0.11019
H	-1.926982547	-0.5419559887	-0.7864254843	 0.141513
H	-1.1712452114	-1.7946751601	 0.2080741064	 0.108904
H	-1.8852044484	-0.3678020373	 0.9835158326	 0.103427
H	 1.0024051926	-0.8325735696	-4.4066766228	 0.103447
H	 3.1663021027	-1.7371990796	-2.9354415646	 0.122974
H	 2.5344581486	-1.21942784	-0.5292769259	 0.260835
29.8535	150.6349	210.5047	231.9271	280.3209	298.7461	328.0827	331.4457	335.9293	427.7863	475.1816	557.2177	591.3303	646.7022	715.8652	767.7038	830.5184	856.3028	928.7389	931.5275	940.5364	962.451	979.3639	1039.815	1050.8	1106.7815	1132.8459	1182.392	1205.9773	1228.4152	1251.341	1299.3633	1388.2696	1392.9454	1393.2641	1426.2646	1453.6067	1475.7361	1488.9832	1490.9092	1495.2928	1503.7075	1506.7169	1527.0966	1580.8109	3021.7885	3029.1899	3034.8034	3086.4859	3095.7971	3097.6102	3104.7839	3127.3934	3131.5523	3246.2387	3280.1308	3677.2103
CC(C)(C)C1=NC=CN1	CC(C)(C)c1ncc[nH]1	
InChI=1S/C7H12N2/c1-7(2,3)6-8-4-5-9-6/h4-5H,1-3H3,(H,8,9)	InChI=1S/C7H12N2/c1-7(2,3)6-8-4-5-9-6/h4-5H,1-3H3,(H,8,9)
