18
gdb 66607	4.24313	1.61811	1.49503	1.6043	78.99	-0.2261	0.0046	0.2307	930.964	0.14977	-364.756533	-364.749929	-364.748985	-364.78704	27.756	
C	-0.1144859977	 1.505507795	-0.0331627648	-0.529403
C	 0.0875647585	 0.0307382698	 0.0208546427	 0.35636
C	 0.662140928	-0.9766256685	-0.8938905845	-0.10958
C	 1.3385353531	-1.7939674037	 0.2571786261	-0.081784
C	 0.8599948813	-3.2177019319	 0.3077911579	-0.085875
C	-0.4525098236	-3.2072194274	 0.5822431799	-0.082645
C	-0.8787645498	-1.7790382357	 0.7318754799	-0.012689
C	 0.3665197999	-0.986545472	 1.1809331709	-0.142754
N	-0.8076938163	-0.9845348955	-0.607002081	-0.198268
H	 0.7980882071	 2.0415936863	 0.2511462845	 0.121297
H	-0.3901708761	 1.8120008835	-1.0468183816	 0.134439
H	-0.9150767755	 1.8232135384	 0.644861773	 0.123927
H	 0.9611306462	-0.9120243315	-1.9324124306	 0.093812
H	 2.4042784596	-1.5973325652	 0.3682514344	 0.070844
H	 1.4626983899	-4.0816826522	 0.0543274402	 0.100279
H	-1.1226753298	-4.057759552	 0.5921505608	 0.099767
H	-1.8348223936	-1.5707376583	 1.2095766021	 0.07265
H	 0.6106544489	-0.7929227091	 2.2252455	 0.069624
196.6409	207.4491	238.9187	399.3839	427.7823	565.0761	575.0552	703.4178	719.3523	735.127	768.874	819.872	845.5032	854.7485	871.1593	901.4606	926.7782	950.2821	951.7004	997.757	1002.6121	1027.0501	1044.7229	1095.6168	1124.8488	1135.1584	1145.192	1190.6831	1220.0079	1228.6445	1250.6437	1282.6762	1310.0599	1362.9701	1403.5236	1460.9396	1481.9956	1491.5582	1631.3713	3025.515	3084.9564	3106.9455	3114.477	3123.1131	3129.9002	3194.2103	3195.3287	3220.2149
CC12C3C4C=CC(C14)N23	C[C@@]12[C@H]3[C@@H]4C=C[C@@H]([C@H]14)N23	
InChI=1S/C8H9N/c1-8-6-4-2-3-5(6)9(8)7(4)8/h2-7H,1H3	InChI=1S/C8H9N/c1-8-6-4-2-3-5(6)9(8)7(4)8/h2-7H,1H3/t4-,5+,6-,7-,8+,9?/m1/s1
