19
gdb 22158	3.05487	0.79218	0.63645	2.4667	79.48	-0.2362	0.012	0.2481	1737.2004	0.155255	-456.290387	-456.279333	-456.278389	-456.328242	37.133	
C	-0.5297215547	 0.9472629986	-0.0251636435	-0.248323
O	 0.6461846772	 0.1717818355	 0.1620862859	-0.197168
C	 0.5212583586	-0.8599788197	 1.0282231499	 0.125514
N	 1.5250942645	-1.589161398	 1.2412250363	-0.251274
C	 1.5336813793	-2.7160471059	 2.1342236612	-0.218265
C	 0.3521019687	-3.205522956	 2.9546958548	 0.362972
C	 0.6186575233	-4.4135144283	 3.8177930023	-0.471258
N	-0.7827330735	-2.6221366356	 2.9051689402	-0.177003
O	-1.7212365878	-3.2504819909	 3.7473531951	-0.407435
H	-0.8582499861	 1.4165330496	 0.910613314	 0.123957
H	-0.2735880467	 1.7278322689	-0.7429401115	 0.14139
H	-1.3516282071	 0.3444912294	-0.4312835563	 0.123964
H	-0.4659126286	-0.9731703381	 1.4789602045	 0.109879
H	 1.8778566645	-3.5882887153	 1.5547842919	 0.128897
H	 2.352232211	-2.5546418878	 2.8546005669	 0.128903
H	 0.424298872	-4.1802352691	 4.8691338777	 0.150132
H	-0.0580682422	-5.2302396312	 3.5485168692	 0.150137
H	 1.6502862619	-4.7559615817	 3.7132618734	 0.121895
H	-2.5087343342	-2.7144311143	 3.6086143681	 0.303088
40.2327	46.9404	85.2147	116.7128	132.0243	145.1725	217.2531	271.1547	287.3862	314.8337	351.9628	384.3928	440.7487	523.1724	592.1634	697.7702	827.3581	908.8554	969.6411	1017.99	1022.7536	1055.9677	1063.7237	1075.5459	1176.5755	1177.8611	1211.1033	1269.8453	1300.3351	1382.6111	1393.7286	1400.575	1412.816	1454.6327	1474.1814	1484.9119	1487.3215	1494.2141	1502.1489	1735.7613	1778.5745	2980.7422	2988.4406	3009.9989	3046.6155	3071.2812	3107.9099	3119.5153	3133.3538	3139.8091	3825.2999
COC=NCC(C)=NO	COC=NCC(=NO)C	
InChI=1S/C5H10N2O2/c1-5(7-8)3-6-4-9-2/h4,8H,3H2,1-2H3	InChI=1S/C5H10N2O2/c1-5(7-8)3-6-4-9-2/h4,8H,3H2,1-2H3
