16
gdb 19958	3.97527	1.50644	1.1605	3.0755	65.96	-0.241	0.0282	0.2692	1002.0357	0.131805	-379.909102	-379.901545	-379.900601	-379.941748	27.218	
O	-0.2573312339	 0.0018293719	 0.1225599233	-0.355902
C	-0.1378424362	 1.1948848823	 0.0660689678	 0.415529
N	-1.0385565532	 2.227486993	-0.0168703533	-0.319894
C	-0.0502340782	 3.30853316	-0.0126988423	-0.182971
C	 1.0535093713	 2.2045405048	 0.0657847427	-0.174138
C	 1.9387557225	 2.1841656353	 1.279308783	 0.034265
C	 3.2110556913	 1.4236962887	 1.2638636466	-0.239498
N	 3.229299701	 2.8976836938	 1.2876999642	-0.329406
H	-2.0468033621	 2.2320552928	-0.057828449	 0.253435
H	-0.0431759434	 3.9162863801	-0.9229283359	 0.114133
H	-0.1018457134	 3.9608228526	 0.8649331233	 0.120884
H	 1.6479246652	 2.1255070752	-0.8502086784	 0.094795
H	 1.4050901213	 2.2617988364	 2.2252774892	 0.097823
H	 3.5681448401	 0.9453403398	 2.1707427725	 0.125869
H	 3.4820935188	 0.9097243255	 0.3453254097	 0.117971
H	 3.4328858991	 3.2522667078	 0.3555210468	 0.227105
64.5254	95.3482	146.7245	224.1026	318.8575	384.5006	458.8642	540.9861	671.8239	749.5761	807.7373	858.4467	896.3833	906.7825	962.3761	967.5385	991.3696	1059.8274	1082.331	1131.1264	1157.775	1158.2932	1165.5106	1179.7727	1239.5233	1249.2886	1280.2695	1294.6423	1315.2725	1394.5226	1436.7282	1513.42	1527.5668	1897.1246	3040.2	3063.3188	3088.8761	3113.3452	3121.1661	3199.3389	3486.8204	3613.8551
O=C1NCC1C1CN1	O=C1NC[C@H]1[C@H]1CN1	
InChI=1S/C5H8N2O/c8-5-3(1-7-5)4-2-6-4/h3-4,6H,1-2H2,(H,7,8)	InChI=1S/C5H8N2O/c8-5-3(1-7-5)4-2-6-4/h3-4,6H,1-2H2,(H,7,8)/t3-,4+/m0/s1
