18
gdb 97045	4.17074	1.05796	0.90045	2.1962	77.56	-0.2306	0.0171	0.2477	1297.661	0.148595	-435.279638	-435.270774	-435.269829	-435.313557	32.245	
C	-0.2343537534	 1.3830096457	-0.0688346453	-0.340265
N	 0.0366904847	-0.043931923	-0.087078487	-0.303308
C	 0.5163418748	-0.5625824033	 0.9751809235	 0.388717
C	 0.8729542959	-2.0318064612	 0.9824886945	-0.178683
O	 0.5361189361	-2.6800235349	 2.2198276335	-0.23856
C	 0.9163784829	-2.0702751658	 3.3729944519	 0.420083
N	 0.8055325367	-2.6114580874	 4.5099332672	-0.518404
C	 1.4818085324	-0.6733531938	 3.2236964371	-0.266059
N	 0.7747122329	 0.0458396912	 2.1772018565	-0.346551
H	 0.6600269117	 1.9854804315	 0.1647896659	 0.100925
H	-0.5912174402	 1.6983000823	-1.0521954471	 0.127369
H	-1.0107982869	 1.6501387344	 0.6659159975	 0.11266
H	 0.3137297409	-2.5392266881	 0.1991642591	 0.155326
H	 1.9471652569	-2.1616374721	 0.7880215512	 0.125352
H	 0.4371026076	-3.5603017803	 4.4152273878	 0.224629
H	 1.3629438545	-0.1622950722	 4.1784759826	 0.153522
H	 2.5630234016	-0.7447286524	 3.0198544491	 0.12902
H	 0.6993460709	 1.0463264395	 2.247381912	 0.254225
55.7222	134.0701	148.3945	179.0634	214.4129	266.7597	342.1236	395.2958	423.5413	476.5205	562.5223	582.6503	645.3635	776.5749	803.035	876.2138	918.9893	992.5027	1005.0569	1022.6754	1069.5765	1102.9339	1107.2327	1152.0691	1176.5055	1249.601	1256.9259	1298.0495	1339.5805	1383.4873	1404.4453	1436.2456	1460.7991	1488.9653	1497.3511	1505.1905	1506.024	1750.323	1763.9428	2953.3225	2967.2518	3001.1467	3008.8814	3101.7942	3137.7487	3161.3614	3465.4593	3658.1357
CN=C1COC(=N)CN1	CN=C1CO[C]([NH])CN1	
InChI=1S/C5H9N3O/c1-7-5-3-9-4(6)2-8-5/h6H,2-3H2,1H3,(H,7,8)	InChI=1S/C5H9N3O/c1-7-5-3-9-4(6)2-8-5/h6H,2-3H2,1H3,(H,7,8)
