21
gdb 63963	3.48542	1.18259	1.12316	1.4019	85.75	-0.2284	0.0121	0.2405	1205.2468	0.182283	-387.078213	-387.069542	-387.068598	-387.111025	34.493	
C	-0.1519612485	 1.5811632164	 0.0294645685	-0.431726
C	 0.0172378058	 0.0605200038	 0.0227947418	 0.375634
O	-1.2815080715	-0.5627708349	 0.0149227684	-0.475702
C	 0.7588822943	-0.4780386434	-1.2430965392	-0.269849
C	 1.4745253668	-1.74069303	-0.7336544606	-0.036459
C	 3.0271452703	-1.988487387	-0.7039559285	-0.242469
C	 2.9254966852	-2.2132328199	 0.8531499331	-0.321459
C	 1.6026051197	-1.4925586075	 0.7443611645	 0.315798
C	 0.8968696967	-0.4514050657	 1.1719468684	-0.317664
H	 0.8166756946	 2.0912790814	 0.0192702016	 0.111125
H	-0.7274271889	 1.9011211589	-0.8445308438	 0.121056
H	-0.6939934191	 1.9050133601	 0.9257240088	 0.101358
H	-1.6439190335	-0.4879431358	 0.9037467552	 0.269351
H	 0.0510925166	-0.6478830083	-2.0583569371	 0.105322
H	 1.4916977738	 0.2660861459	-1.5733325597	 0.093543
H	 0.9443118649	-2.6645971345	-0.9876980722	 0.084698
H	 3.4147836186	-2.8197026797	-1.2974702623	 0.100438
H	 3.5880451691	-1.0799048776	-0.9377793191	 0.107154
H	 2.8213041518	-3.2769402142	 1.0920002723	 0.114229
H	 3.694687986	-1.7802576741	 1.496902483	 0.110058
H	 0.9517055874	 0.0446889562	 2.1352540569	 0.085564
89.2034	166.2697	206.7648	242.0112	286.3158	301.9134	327.8903	357.2355	441.529	508.6139	577.4561	616.7077	688.4594	781.1542	792.6365	810.978	851.5343	880.0077	910.0402	920.1653	935.2863	941.1306	1005.1457	1046.3634	1072.9565	1075.9652	1133.7201	1142.7112	1167.8907	1188.1046	1218.3256	1240.0824	1244.9812	1255.6689	1260.1369	1329.8732	1333.7395	1356.463	1401.3821	1470.6303	1474.9102	1485.5226	1489.5855	1489.8734	1729.5407	3026.1015	3046.4758	3048.7206	3050.3654	3060.4363	3092.8377	3103.5449	3106.3354	3111.6636	3123.7918	3183.7847	3811.9692
CC1(O)CC2CCC2=C1	C[C@@]1(O)C[C@H]2CC[C]2[CH]1	
InChI=1S/C8H12O/c1-8(9)4-6-2-3-7(6)5-8/h4,7,9H,2-3,5H2,1H3	InChI=1S/C8H12O/c1-8(9)4-6-2-3-7(6)5-8/h4,7,9H,2-3,5H2,1H3/t7-,8+/m1/s1
