21
gdb 89098	5.19222	0.56227	0.53597	1.8167	85.72	-0.2542	0.0603	0.3145	2043.1348	0.180142	-387.039775	-387.029483	-387.028539	-387.075988	37.612	
O	-0.1044018361	 1.4777518189	 0.377986368	-0.417425
C	-0.0176260307	 0.0961510041	 0.1721215959	 0.088205
C	-0.6837265672	-0.8452238266	 1.1452620422	-0.325273
C	-1.2780861396	-0.6115718869	-0.2331497811	-0.020503
C	-2.5825782807	 0.142168868	-0.386382867	-0.203238
C	-3.8106312056	-0.740368577	-0.1362413667	-0.168128
C	-5.1329879239	 0.0323594782	-0.3177565478	-0.355199
C	-6.3137050953	-0.7883976834	-0.0781311565	 0.292552
C	-7.2699240482	-1.4881737458	 0.1251302788	-0.438656
H	 0.4492116473	 1.6993207094	 1.1336499861	 0.288029
H	 0.9120295616	-0.232768914	-0.2926869054	 0.084525
H	-0.2117553653	-1.7954131187	 1.3707223384	 0.109629
H	-1.2008514915	-0.3843841362	 1.9814819281	 0.11169
H	-1.1424697066	-1.4217851943	-0.9458261615	 0.08533
H	-2.5862868248	 0.9966864729	 0.2984502833	 0.108905
H	-2.6378022204	 0.56612113	-1.3985137325	 0.096998
H	-3.8044684808	-1.5983571564	-0.8189916782	 0.105192
H	-3.7724473966	-1.1536915023	 0.8778522218	 0.110071
H	-5.1450832034	 0.8965548179	 0.359735565	 0.128246
H	-5.1764695487	 0.4467121402	-1.3337805763	 0.128238
H	-8.1218032334	-2.0962839581	 0.3021364754	 0.190814
42.6803	81.9218	91.5432	119.749	160.738	255.8468	293.7359	307.4884	349.6989	367.206	466.0276	502.236	595.0206	613.2947	631.2408	740.7821	768.43	824.3353	847.034	880.3259	957.5305	968.6448	994.544	1028.4622	1045.19	1063.9029	1087.2335	1131.4943	1140.2929	1178.2342	1215.7131	1239.3485	1258.8057	1292.2843	1305.8243	1321.1598	1342.9259	1382.4605	1407.4844	1427.0643	1473.422	1484.8362	1491.958	1507.4107	2237.9021	3013.5093	3016.6952	3036.5538	3041.7666	3067.5785	3087.8395	3093.9645	3125.7451	3134.8502	3214.4261	3507.9241	3809.0611
OC1CC1CCCC#C	O[C@H]1C[C@H]1CCCC#C	
InChI=1S/C8H12O/c1-2-3-4-5-7-6-8(7)9/h1,7-9H,3-6H2	InChI=1S/C8H12O/c1-2-3-4-5-7-6-8(7)9/h1,7-9H,3-6H2/t7-,8+/m1/s1
