17
gdb 34628	2.40536	1.67776	1.07614	1.9742	83.97	-0.2318	-0.0244	0.2073	1113.7115	0.135048	-384.655366	-384.647137	-384.646192	-384.688516	31.308	
C	 0.0943275169	-1.1799414395	-0.0522212138	-0.431728
C	 0.0142424805	 0.0215318237	-0.0117719135	 0.234066
C	-0.0337237963	 1.434565243	 0.0502049029	 0.146795
C	-1.1278363046	 2.2127133674	 0.0565519165	-0.190451
C	-0.8044114395	 3.6823589918	 0.1008273703	-0.265258
C	 0.7336474301	 3.7231104762	 0.2898883772	-0.309644
C	 1.206743491	 2.2823572215	 0.079791807	 0.34049
C	 2.5354591758	 1.7817523781	 0.4452713772	-0.263561
O	 2.1986107384	 2.022024187	-0.9242959981	-0.272144
H	 0.1524531802	-2.2390842699	-0.0998227616	 0.193711
H	-2.1432416183	 1.836507727	 0.0149603581	 0.10712
H	-1.1269877529	 4.1768672002	-0.8249793514	 0.122535
H	-1.3347498186	 4.1911327734	 0.9140732575	 0.115508
H	 1.2360299998	 4.3876452839	-0.4162649346	 0.125025
H	 0.9865154712	 4.0596543899	 1.2995328166	 0.115442
H	 3.2621961985	 2.4701155965	 0.8771856549	 0.110081
H	 2.6619613079	 0.7347359397	 0.7165686049	 0.122011
51.3583	132.9476	152.2383	256.1376	315.3435	342.8127	413.7313	468.0001	556.8158	587.8038	620.3919	642.54	665.2852	730.195	776.1865	834.2191	882.1004	902.3332	928.2174	974.7981	1025.92	1048.2236	1089.4987	1127.102	1164.0411	1176.3215	1224.8871	1248.2359	1291.851	1324.1327	1328.0358	1412.2136	1472.444	1491.9945	1521.9103	1669.8559	2225.1214	3021.9898	3050.8807	3065.3774	3075.6593	3115.2405	3165.7284	3206.5483	3502.5285
C#CC1=CCCC11CO1	C#CC1=CCC[C@]21CO2	
InChI=1S/C8H8O/c1-2-7-4-3-5-8(7)6-9-8/h1,4H,3,5-6H2	InChI=1S/C8H8O/c1-2-7-4-3-5-8(7)6-9-8/h1,4H,3,5-6H2/t8-/m1/s1
