16
gdb 68811	2.90388	1.29161	1.0871	3.2266	69.76	-0.2457	0.0277	0.2734	1113.0849	0.122642	-437.859011	-437.850192	-437.849248	-437.892677	32.432	
O	-0.0044061445	 1.4384354403	-0.1290746072	-0.456011
C	-0.0434469934	 0.0634161721	-0.0841693534	 0.376287
C	-0.2694330272	-0.7761296471	 1.1448021556	-0.432956
C	-1.1796714959	-0.9664452865	-0.0571251087	 0.318652
O	-2.5417846483	-0.7936826301	-0.0046889026	-0.455292
C	-0.4642723503	-1.7978909037	-1.1424271972	-0.214615
C	 0.7013303484	-0.7359885203	-1.1450560397	-0.290674
C	-0.1244175884	-3.1753338996	-0.8113093082	 0.26192
N	 0.1410600393	-4.2600125622	-0.5095553973	-0.332102
H	-0.2933632505	 1.7941271705	 0.7166699294	 0.294166
H	 0.4341982659	-1.5377718026	 1.4775266271	 0.129815
H	-0.7751456195	-0.2468800431	 1.949628362	 0.115163
H	-2.9216834152	-1.4686733522	 0.5705544097	 0.296032
H	-1.0232430361	-1.7712629817	-2.080596723	 0.134935
H	 0.7548574376	-0.2107970767	-2.099788031	 0.132006
H	 1.6918261982	-1.1074693972	-0.8709870157	 0.122673
78.4217	103.7891	132.9902	188.9328	261.7381	322.094	362.2626	385.6037	426.9321	492.4759	510.906	609.8865	638.3569	698.5215	778.3371	810.6587	857.0163	946.077	982.7908	996.1574	1059.0029	1064.3574	1115.2058	1126.6536	1165.7156	1185.3975	1238.6085	1271.7353	1327.4426	1337.0243	1404.6158	1422.5021	1477.4845	1526.4874	2347.8898	3071.1081	3089.5789	3090.6652	3135.9854	3180.882	3776.1388	3835.3505
OC12CC1(O)C(C2)C#N	O[C@@]12C[C@]1(O)[C@@H](C2)C#N	
InChI=1S/C6H7NO2/c7-2-4-1-5(8)3-6(4,5)9/h4,8-9H,1,3H2	InChI=1S/C6H7NO2/c7-2-4-1-5(8)3-6(4,5)9/h4,8-9H,1,3H2/t4-,5-,6-/m0/s1
