17
gdb 110778	2.85781	1.33653	1.1778	4.8429	67.52	-0.282	0.0375	0.3196	1111.0678	0.136208	-458.994959	-458.98703	-458.986086	-459.028336	29.334	
C	 0.045766067	 1.3827942122	-0.3152683885	-0.376337
C	-0.0120822351	-0.026734133	 0.2853300672	-0.221821
C	-1.3855878218	-0.652151027	 0.1547950921	-0.086371
C	-1.8989832835	-1.3025661417	-1.1122323218	 0.040528
O	-0.9309735611	-1.718769901	-2.0538177106	-0.240888
C	-0.1594280893	-2.7091429727	-1.5173220514	 0.496943
O	 0.7433951795	-3.2439507737	-2.07237883	-0.368469
O	-0.5590404131	-2.9742949077	-0.2392548286	-0.24026
C	-1.646767733	-2.1413209704	 0.1043456967	 0.021661
H	 1.0392365527	 1.821094162	-0.1837687598	 0.121923
H	-0.1737618215	 1.3598132289	-1.3870775621	 0.13189
H	-0.6800085874	 2.0496604664	 0.1626516524	 0.114722
H	 0.7439957529	-0.6577060922	-0.1904920181	 0.134511
H	 0.251856973	 0.0060961195	 1.3490186781	 0.111918
H	-2.1765485188	-0.1209654492	 0.6819412224	 0.106097
H	-2.8591824014	-1.0849487262	-1.5608581604	 0.126426
H	-2.3895721391	-2.6447542543	 0.7089253023	 0.127527
45.3458	114.9879	151.316	223.4793	280.0223	304.648	503.695	560.5476	597.6621	717.634	754.3924	767.9236	772.2489	805.8251	815.3327	896.3266	912.1213	987.6357	1049.7449	1054.5282	1068.2277	1074.8191	1122.2323	1129.4685	1136.9818	1165.6787	1217.5788	1291.3168	1331.519	1356.5332	1381.0069	1412.2348	1437.3503	1487.2302	1499.8478	1507.3114	1931.9661	3036.5113	3041.9823	3084.2424	3108.4862	3115.2259	3130.2145	3198.2307	3206.8942
CCC1C2OC(=O)OC12	CC[C@H]1[C@H]2OC(=O)O[C@@H]12	
InChI=1S/C6H8O3/c1-2-3-4-5(3)9-6(7)8-4/h3-5H,2H2,1H3	InChI=1S/C6H8O3/c1-2-3-4-5(3)9-6(7)8-4/h3-5H,2H2,1H3/t3-,4+,5-
