18
gdb 18588	4.09447	1.79126	1.43257	1.439	74.06	-0.235	0.0088	0.2438	918.2544	0.154715	-347.779824	-347.772653	-347.771709	-347.811028	27.867	
C	 0.1038796349	 1.508054689	 0.126115543	-0.399064
C	-0.0124272208	 0.0003869073	 0.0477005907	 0.079921
O	 0.9633834134	-0.6149545941	-0.8654341739	-0.331115
C	 1.2429300137	-1.6814820491	 0.1069185813	 0.118371
C	 2.6479124999	-1.9225303648	 0.6809321805	-0.250009
C	 2.4007696979	-1.8059849254	 2.2251349597	-0.243051
C	 1.2252620345	-0.8289684423	 2.3079411064	-0.207876
C	 0.575245366	-0.8503995145	 1.1503856082	 0.17707
H	 1.1106331721	 1.7983636422	 0.4363902988	 0.124247
H	-0.1061874779	 1.9549000965	-0.8505572445	 0.128924
H	-0.6189910512	 1.9065008978	 0.8460097969	 0.119572
H	-1.027060596	-0.296357652	-0.25526735	 0.080128
H	 0.740934709	-2.604492601	-0.2138085411	 0.074901
H	 3.1006965482	-2.8727512047	 0.3845378241	 0.094778
H	 3.3036983732	-1.1088889287	 0.3553185245	 0.117622
H	 2.1703024136	-2.7843324804	 2.6684332958	 0.109907
H	 3.2791925765	-1.4260544455	 2.7570398996	 0.107548
H	 1.0630101629	-0.1657297303	 3.14934601	 0.098127
131.648	151.3314	211.9343	270.6476	351.6975	411.1622	490.0723	595.243	634.6977	739.1576	817.2156	837.872	852.8313	872.495	899.8425	906.7472	953.6582	1003.678	1046.7971	1055.3641	1086.2315	1092.4847	1143.4348	1163.1605	1208.0927	1233.6728	1272.1334	1275.5228	1310.466	1335.0764	1349.1953	1389.3697	1403.8241	1478.5951	1482.0781	1492.0653	1495.0843	1738.8428	2993.8344	3007.1532	3015.6573	3039.1833	3054.4257	3071.3599	3108.7743	3109.3038	3127.9495	3201.1869
CC1OC2CCC=C12	C[C@H]1O[C@H]2CC[CH][C]12	
InChI=1S/C7H10O/c1-5-6-3-2-4-7(6)8-5/h3,5,7H,2,4H2,1H3	InChI=1S/C7H10O/c1-5-6-3-2-4-7(6)8-5/h3,5,7H,2,4H2,1H3/t5-,7+/m1/s1
