15
gdb 23192	2.61148	1.3867	0.99438	1.0181	78.16	-0.2343	-0.0042	0.23	1157.9655	0.110658	-416.67625	-416.667996	-416.667052	-416.709033	31.308	
O	-0.1625398527	 1.3388266817	-0.0339301331	-0.388242
N	 0.0310957908	-0.0525834273	-0.0498371058	-0.251305
C	-1.0787176337	-0.6565190342	-0.1030574715	 0.373559
C	-2.5434006434	-0.30817769	 0.0486974034	-0.258861
N	-2.8842487629	-1.7701333345	 0.2308543872	-0.156197
C	-2.480272455	-2.4131481814	-1.013401787	-0.259625
C	-1.3833581935	-2.1140547782	-0.037221682	 0.075528
C	-0.6375582216	-3.1160965538	 0.6426279876	 0.214737
C	 0.0128913476	-3.957838606	 1.2028183296	-0.402652
H	 0.7395504154	 1.6688724862	 0.0389477965	 0.311949
H	-2.7450827011	 0.2566746185	 0.9618040364	 0.147189
H	-3.0541969906	 0.1645018566	-0.7956075201	 0.12925
H	-2.7791698615	-3.4547061424	-1.0781603696	 0.143703
H	-2.5279563282	-1.8577350579	-1.9485837135	 0.12337
H	 0.5855524004	-4.6967779173	 1.7067731219	 0.197597
100.5442	140.4321	161.876	219.5442	315.0327	393.7412	410.7435	459.4393	483.6096	516.5863	572.6273	605.8242	652.9077	672.0142	733.848	757.5429	866.5354	884.0407	982.0645	994.3259	1035.2469	1100.1297	1103.9698	1136.5827	1188.0664	1245.1374	1273.1004	1339.3569	1419.538	1475.4589	1501.0823	1794.4453	2240.8177	3058.2573	3099.6221	3117.5818	3203.4407	3501.1357	3816.9755
ON=C1CN2CC12C#C	ON=C1CN2C[C@@]12C#C	
InChI=1S/C6H6N2O/c1-2-6-4-8(6)3-5(6)7-9/h1,9H,3-4H2	InChI=1S/C6H6N2O/c1-2-6-4-8(6)3-5(6)7-9/h1,9H,3-4H2/t6-,8?/m0/s1
