19
gdb 60191	2.94753	0.92272	0.84571	5.1974	77.25	-0.2578	0.0043	0.2621	1435.7733	0.158857	-419.194994	-419.185594	-419.18465	-419.22974	34.594	
C	 0.1114912909	 1.5539640467	 0.1120316084	-0.385016
C	-0.0917394366	 0.0515490195	 0.2706778751	 0.161817
O	-0.1033539135	-0.2298539141	 1.6601945527	-0.446124
C	-1.3924938265	-0.4284196508	-0.4009110669	-0.246089
C	-1.4736214258	-1.9381228824	-0.4615968908	-0.01593
N	-1.5202524638	-2.6507238919	 0.8257312611	-0.3215
C	-2.6934574074	-2.7170554342	-0.0698815524	-0.203574
C	-3.8996760824	-2.067491809	 0.3835045586	 0.334821
N	-4.8790182311	-1.5505009156	 0.714658674	-0.327727
H	 1.0025299911	 1.866127329	 0.6630930774	 0.126766
H	 0.2387354138	 1.826032143	-0.9404485417	 0.10572
H	-0.7466435788	 2.0996559799	 0.5170358508	 0.124389
H	 0.7568586365	-0.4680594806	-0.2132014241	 0.052313
H	-0.5565781983	-1.0744885535	 1.7885774248	 0.295022
H	-2.2396839455	-0.0236322819	 0.1631802117	 0.134767
H	-1.4576334315	-0.0348602728	-1.4216236558	 0.108168
H	-0.8817007367	-2.4032530024	-1.2482047676	 0.109241
H	-1.0116162113	-3.5295910839	 0.788556417	 0.253863
H	-2.874899493	-3.6503443851	-0.5954837825	 0.139071
53.5225	81.5353	148.594	188.7923	234.0373	242.4907	309.3336	354.7419	407.7632	472.4513	487.7117	519.832	583.2691	620.615	803.4537	824.8797	845.4469	908.148	927.0241	951.4757	964.9521	1011.327	1058.2598	1089.4528	1133.258	1162.8271	1187.104	1220.8447	1249.2201	1279.534	1306.4644	1334.8662	1381.0078	1402.6804	1404.4875	1447.5068	1460.6938	1471.105	1486.7361	1501.1204	2362.8789	2916.1543	3038.1434	3043.6251	3089.3849	3113.0144	3121.936	3126.2722	3154.236	3517.6787	3728.3674
CC(O)CC1NC1C#N	C[C@@H](O)C[C@H]1N[C@H]1C#N	
InChI=1S/C6H10N2O/c1-4(9)2-5-6(3-7)8-5/h4-6,8-9H,2H2,1H3	InChI=1S/C6H10N2O/c1-4(9)2-5-6(3-7)8-5/h4-6,8-9H,2H2,1H3/t4-,5-,6+/m1/s1
