25
gdb 76734	1.92153	1.70467	1.11014	0.305	93.07	-0.2335	0.0778	0.3114	1262.5594	0.227084	-352.349867	-352.339384	-352.33844	-352.384188	40.324	
C	-0.7000495492	 1.4910304496	-0.5192269482	-0.410159
C	-0.2637471217	 0.0431366731	-0.3163008719	-0.046072
C	 1.0427514862	-0.5061883123	-1.0137987088	-0.046072
C	 1.8880700834	 0.402843103	-1.9009482439	-0.410163
C	 1.5847882778	-0.9114316624	 0.3689197411	 0.31289
C	 2.3768811225	-2.1620812464	 0.6302206633	-0.500742
C	 1.6444545177	 0.2966817594	 1.2696015799	-0.392507
C	 0.3135455298	-0.3769136064	 1.0476038067	 0.312897
C	-0.506675025	-0.9496143633	 2.1696837306	-0.500742
H	 0.0887971269	 2.203483785	-0.2600863809	 0.112646
H	-0.9855807688	 1.6774452909	-1.5604700444	 0.110644
H	-1.5696815295	 1.7231366477	 0.1059397349	 0.111598
H	-1.1039163535	-0.6119029305	-0.5738161967	 0.063339
H	 0.7871681251	-1.4070205304	-1.5834066728	 0.063338
H	 2.1970623202	 1.3170089968	-1.3853436602	 0.112647
H	 2.7982311416	-0.1135631909	-2.2263651852	 0.111597
H	 1.339735406	 0.699990012	-2.8017806873	 0.110647
H	 3.394601353	-2.0827641412	 0.2277267578	 0.117659
H	 2.4679392896	-2.3620892735	 1.7033031131	 0.113721
H	 1.9079374455	-3.0380158559	 0.1659400682	 0.111091
H	 2.0874069145	 0.1122018421	 2.2445689691	 0.101121
H	 1.8561078652	 1.2906748127	 0.8832101849	 0.098151
H	-1.1296063747	-0.1803649147	 2.6432436296	 0.117658
H	-1.1771599668	-1.7407531309	 1.8129280638	 0.11109
H	 0.1285466843	-1.3785550135	 2.9521830372	 0.113721
117.7946	173.0527	179.5314	187.8909	206.9998	217.8722	229.6559	232.188	255.0861	320.5667	364.7217	462.947	485.1676	551.3086	608.7359	683.1492	689.6513	754.7866	809.1038	865.3928	949.5445	958.6773	977.2983	1012.3087	1016.0055	1049.384	1053.2695	1059.2675	1090.2002	1108.7077	1151.7725	1155.4337	1218.1597	1219.0225	1246.9947	1263.8272	1336.4961	1362.9419	1370.3492	1405.2464	1405.5284	1411.8719	1412.5953	1434.7498	1483.111	1488.0518	1489.9986	1491.7761	1495.7266	1497.5935	1502.9292	1506.0741	1514.0897	3013.4837	3015.6971	3021.5804	3028.4726	3030.4641	3041.9168	3069.1574	3070.2573	3087.2801	3088.0946	3090.3497	3090.6754	3100.9715	3102.4138	3109.7311	3183.3015
CC1C(C)C2(C)CC12C	C[C@H]1[C@@H](C)[C@@]2(C)C[C@@]12C	
InChI=1S/C9H16/c1-6-7(2)9(4)5-8(6,9)3/h6-7H,5H2,1-4H3	InChI=1S/C9H16/c1-6-7(2)9(4)5-8(6,9)3/h6-7H,5H2,1-4H3/t6-,7+,8-,9+
