18
gdb 73955	2.64843	1.3845	0.94458	3.4656	81.42	-0.2575	-0.0374	0.2201	1216.708	0.148358	-401.982831	-401.974232	-401.973288	-402.016119	31.711	
C	 0.1115868779	 1.531737255	 0.0011004812	-0.50432
C	-0.0130866633	 0.0380731764	 0.033507658	 0.199195
C	-1.1790836743	-0.6325723889	-0.0068912716	 0.079135
C	-1.2316063289	-2.1490008676	-0.0161536659	-0.300995
C	 0.1389598724	-2.7105728366	-0.3883689526	-0.096521
O	 1.1557916448	-2.0986956415	 0.3868249207	-0.24118
C	 1.2873604828	-0.7252820051	 0.1059120447	-0.14393
C	-2.4301429618	 0.055358387	-0.0489625025	 0.212036
N	-3.4647727771	 0.5768030176	-0.0849245813	-0.350562
H	 0.7730977382	 1.8463037623	-0.8157311228	 0.137205
H	-0.8551067359	 2.0206678887	-0.1297121548	 0.160528
H	 0.5635788971	 1.9009562539	 0.9300445763	 0.140732
H	-1.5389693746	-2.5184598216	 0.9698057165	 0.133149
H	-1.9867897631	-2.4928821545	-0.731596809	 0.125664
H	 0.1966534886	-3.7823652633	-0.1831840868	 0.117876
H	 0.330867734	-2.5564959397	-1.4628320509	 0.096559
H	 1.8381387906	-0.566960037	-0.8412191352	 0.107157
H	 1.9129916827	-0.3061705051	 0.9034177359	 0.128272
108.4188	136.1968	150.6093	155.8399	264.0633	316.7018	325.2204	417.0617	434.4484	479.1695	572.2968	618.3894	658.1755	683.195	858.8711	920.9192	951.7604	959.4909	1014.8575	1077.9637	1082.9772	1132.9537	1142.7894	1156.9593	1230.4619	1247.3944	1277.951	1316.9488	1366.4832	1386.776	1413.9872	1421.937	1473.0293	1476.0246	1480.8585	1483.641	1500.2209	1702.6333	2328.2485	2925.9465	2975.9889	3024.4709	3034.001	3050.4688	3072.5619	3075.1325	3099.185	3137.8756
CC1=C(CCOC1)C#N	CC1=C(CCOC1)C#N	
InChI=1S/C7H9NO/c1-6-5-9-3-2-7(6)4-8/h2-3,5H2,1H3	InChI=1S/C7H9NO/c1-6-5-9-3-2-7(6)4-8/h2-3,5H2,1H3
