18
gdb 7342	4.33009	0.99786	0.85055	2.2393	64.84	-0.2632	-0.0269	0.2363	1329.5921	0.150718	-422.0914	-422.081713	-422.080769	-422.126692	33.707	
C	 0.0333526468	 1.500596204	-0.2250609407	-0.404075
C	-0.0163298053	 0.0091006171	 0.133916344	 0.066956
O	 0.6043341277	-0.2143541385	 1.370660948	-0.438768
C	-1.4474237467	-0.5386141108	 0.1680126824	 0.350616
O	-1.8432585204	-1.079222506	 1.1822369617	-0.332457
C	-2.3099098085	-0.4031548249	-1.0654018224	-0.289591
C	-3.5932671192	-1.2203612246	-0.9981489494	-0.074612
O	-4.2986987682	-0.9778824421	-2.2052847334	-0.42333
H	 1.0697663735	 1.8417642581	-0.1685917662	 0.138461
H	-0.3366846065	 1.687006542	-1.2373044933	 0.118361
H	-0.5567699276	 2.0867049426	 0.4860546257	 0.127406
H	 0.5075260665	-0.5546594345	-0.6598905802	 0.089195
H	-0.0516321776	-0.6961061843	 1.9007507245	 0.2918
H	-2.561479374	 0.6570296291	-1.2011376194	 0.146419
H	-1.7287632981	-0.6802564326	-1.9535338001	 0.133895
H	-3.3481916455	-2.2857392023	-0.8761701527	 0.101045
H	-4.1740095556	-0.9200153911	-0.1155970467	 0.10882
H	-5.1221457713	-1.4734143312	-2.1752949618	 0.289858
53.2461	61.7812	99.8059	137.8288	223.2461	262.959	268.8001	333.345	342.6635	408.3683	442.2259	471.4995	577.403	693.6124	794.1334	826.4946	933.1105	991.9046	1005.6373	1057.9669	1072.6517	1107.7288	1123.	1190.4447	1212.9348	1254.4866	1278.022	1304.3671	1352.6872	1361.8723	1401.3499	1434.3381	1449.2889	1467.97	1490.1528	1500.0494	1524.0362	1781.683	2937.2212	2994.0541	3028.834	3034.2341	3043.9649	3071.2175	3119.9302	3128.6573	3673.0898	3833.3256
CC(O)C(=O)CCO	C[C@@H](O)C(=O)CCO	
InChI=1S/C5H10O3/c1-4(7)5(8)2-3-6/h4,6-7H,2-3H2,1H3	InChI=1S/C5H10O3/c1-4(7)5(8)2-3-6/h4,6-7H,2-3H2,1H3/t4-/m1/s1
