22
gdb 36899	4.7361	0.8545	0.82124	1.0626	86.77	-0.2289	0.0895	0.3184	1492.674	0.195299	-367.145655	-367.137212	-367.136268	-367.179359	32.787	
C	-0.2031469273	 1.725914838	 0.087523553	-0.163023
C	-0.1933419702	 0.2077193871	-0.0276160436	 0.026113
C	 0.1976525353	-0.6560714256	 1.2204987509	-0.239894
C	-1.129824745	-1.4148567494	 1.0885902065	-0.03663
C	-2.2808619844	-0.4600843778	 1.213103069	-0.275176
C	-1.5382757108	-0.5331166445	-0.0953833304	-0.071773
N	 1.14922711	 2.2378835651	 0.2912636263	-0.057367
C	 1.9138463327	 2.5430134826	-0.9133905949	-0.218802
C	 1.3740723431	 3.6348919695	-0.0561847935	-0.220235
H	-0.6780412927	 2.1598616635	-0.8137054591	 0.073174
H	-0.807522277	 2.0395019605	 0.9467098369	 0.098379
H	 0.4355540085	-0.0761399358	-0.877856375	 0.071639
H	 1.0805747889	-1.2721254161	 1.0403687397	 0.100527
H	 0.3427674021	-0.1093667011	 2.1577983228	 0.099213
H	-1.2583367321	-2.4833819067	 1.2111313351	 0.081741
H	-3.2674962146	-0.9126406191	 1.1993419997	 0.107612
H	-2.2065689294	 0.410966932	 1.8600216376	 0.10424
H	-2.0450949786	-0.8152551878	-1.0110815582	 0.078112
H	 2.9694091017	 2.2877113229	-0.8866100634	 0.114719
H	 1.4315918903	 2.3877162006	-1.8780050577	 0.106312
H	 0.5335613534	 4.204440055	-0.4508475975	 0.106575
H	 2.0279909864	 4.191392907	 0.6094967657	 0.114544
62.702	86.635	130.4775	186.7687	315.4742	327.5639	416.4481	448.8084	496.2628	677.6243	769.3625	780.0104	801.0304	833.3167	849.0774	878.7252	909.7838	943.7794	961.9358	988.204	1015.1473	1026.4966	1032.7898	1041.5752	1064.6436	1085.6898	1099.3829	1114.3312	1116.7474	1130.2812	1150.9742	1174.2032	1191.6914	1213.9406	1239.6717	1262.5197	1283.021	1302.1166	1320.9119	1344.9102	1372.3547	1408.436	1484.0896	1485.935	1493.9162	1502.9524	1521.7805	2916.7268	3042.1184	3051.9034	3058.7934	3088.7986	3093.4565	3108.6999	3112.0559	3169.7033	3172.2887	3182.1357	3186.6122	3198.3808
C(C1CC2CC12)N1CC1	C([C@H]1C[C@H]2C[C@@H]12)N1CC1	
InChI=1S/C8H13N/c1-2-9(1)5-7-3-6-4-8(6)7/h6-8H,1-5H2	InChI=1S/C8H13N/c1-2-9(1)5-7-3-6-4-8(6)7/h6-8H,1-5H2/t6-,7+,8+/m0/s1
