19
gdb 59619	2.95832	1.14514	1.01019	3.4392	71.62	-0.2683	0.0104	0.2787	1248.9237	0.159183	-460.219976	-460.211101	-460.210156	-460.253855	33.11	
C	-0.1371607857	 1.5529441183	 0.0449105576	-0.412214
C	 0.0250796592	 0.0341144682	-0.0300632064	 0.118521
O	 0.6560500606	-0.3710756048	-1.2349711814	-0.434224
C	 0.7784879369	-0.5345335241	 1.1790773959	 0.120986
C	 0.9008232917	-2.0676445258	 1.2018861131	-0.255813
C	 2.2841208804	-2.2884896776	 1.8179013408	-0.362202
C	 3.0401500284	-1.012504577	 1.4698310134	 0.423782
O	 4.2169885168	-0.805483472	 1.4869438633	-0.329118
O	 2.1399057368	-0.0476606805	 1.1136701183	-0.249242
H	 0.8403017937	 2.0410919394	 0.1116834803	 0.134777
H	-0.6496864357	 1.9159816672	-0.8491639797	 0.127917
H	-0.7213926786	 1.8445700624	 0.9240798219	 0.114934
H	-0.9649751847	-0.4387098825	-0.0480456419	 0.093136
H	 1.5487625034	-0.0044600238	-1.2154264181	 0.2902
H	 0.3337604726	-0.1532837311	 2.1075019979	 0.086229
H	 0.087822529	-2.5330836565	 1.7621644909	 0.112298
H	 0.8731813172	-2.4354782809	 0.1727646265	 0.136587
H	 2.246314584	-2.3659652013	 2.9109458411	 0.140108
H	 2.8251592739	-3.1597197575	 1.4467696964	 0.143339
76.8945	94.3079	143.6334	199.1871	238.185	281.404	344.515	399.9182	473.0875	508.2967	536.0476	607.0511	636.5598	707.7089	810.8088	835.4086	892.3075	920.8094	987.5574	992.6904	1015.879	1060.7997	1073.8022	1103.5645	1135.456	1163.7313	1200.3187	1235.0827	1293.1035	1304.5534	1310.5542	1343.291	1374.6463	1394.8486	1404.9516	1424.8624	1466.3291	1491.6778	1498.3392	1500.3172	1887.5884	3022.765	3038.7751	3040.0008	3052.199	3072.5478	3109.2529	3122.5357	3127.4762	3132.4612	3785.2981
CC(O)C1CCC(=O)O1	C[C@@H](O)[C@H]1CCC(=O)O1	
InChI=1S/C6H10O3/c1-4(7)5-2-3-6(8)9-5/h4-5,7H,2-3H2,1H3	InChI=1S/C6H10O3/c1-4(7)5-2-3-6(8)9-5/h4-5,7H,2-3H2,1H3/t4-,5-/m1/s1
