16
gdb 12870	2.73084	2.35513	1.81428	0.9019	64.75	-0.2241	0.0074	0.2315	792.6527	0.130359	-383.723363	-383.716171	-383.715227	-383.754167	28.529	
O	 0.0369669485	 1.3741549257	-0.0996338517	-0.425582
C	-0.072741814	-0.0121515854	-0.035931651	 0.050538
C	-0.4520661979	-0.770697399	 1.2375723663	-0.184236
C	-1.134632987	 0.0367385653	 2.2846873326	-0.084138
C	-2.295917661	 0.5419978662	 1.8489096523	-0.100301
C	-2.6096871376	 0.0998695644	 0.4362820185	-0.334259
C	-1.3887931116	-0.733387998	 0.0278508077	 0.328213
O	-1.591497286	-1.8926002722	-0.7219754596	-0.464851
H	-0.386453343	 1.734780286	 0.6909882826	 0.285196
H	 0.6918876091	-0.4918135101	-0.6403941843	 0.107301
H	 0.1209701452	-1.6543935236	 1.494209778	 0.098092
H	-0.7101842943	 0.2015681036	 3.2686065833	 0.10202
H	-2.955670061	 1.1840381104	 2.4215029179	 0.101046
H	-3.5168025579	-0.5157399115	 0.3914665145	 0.120548
H	-2.7626572537	 0.9530846733	-0.2376579273	 0.116085
H	-1.6096574377	-1.6464133252	-1.6534792495	 0.284327
192.7614	211.3861	237.6137	313.0356	344.6088	358.7303	411.0287	532.8989	582.551	597.4741	732.783	751.5472	770.4412	853.9661	905.8486	938.294	959.0006	971.506	987.3385	1038.775	1062.7612	1119.989	1139.7327	1153.4662	1211.6988	1244.77	1290.7527	1303.8153	1324.9183	1374.1642	1380.3915	1447.2356	1472.7368	1654.0032	3020.9851	3055.8121	3156.3332	3178.2233	3187.5918	3210.6078	3746.1102	3793.3007
OC1C2C=CCC12O	O[C@H]1[C@H]2C=CC[C@@]12O	
InChI=1S/C6H8O2/c7-5-4-2-1-3-6(4,5)8/h1-2,4-5,7-8H,3H2	InChI=1S/C6H8O2/c7-5-4-2-1-3-6(4,5)8/h1-2,4-5,7-8H,3H2/t4-,5+,6+/m1/s1
