18
gdb 67577	2.94654	1.99339	1.49881	2.8354	74.36	-0.2284	0.0743	0.3027	903.718	0.149892	-401.8651	-401.858473	-401.857529	-401.895566	28.393	
O	-0.059801694	 1.3787124936	 0.0983013364	-0.492412
C	 0.0083003241	-0.0118415443	 0.0468324617	 0.468245
C	 0.9295975524	-0.7547359309	 1.0147778008	-0.158847
N	 0.1879201008	-1.5971225273	 1.9890698918	-0.334003
C	 0.625903167	-2.1567918823	 0.6808052933	-0.066492
C	-0.4150154132	-1.9858495594	-0.4193498174	-0.018251
C	-1.3390756883	-0.7809439981	-0.0383174874	-0.077997
C	-1.4479243251	-0.411576664	-1.540007686	-0.264738
C	 0.0337684723	-0.7956364447	-1.3380781257	-0.135356
H	 0.8215942625	 1.735340066	-0.0529361538	 0.280354
H	 1.9209156481	-0.3835674476	 1.2539543018	 0.080082
H	 0.8423792275	-1.9089672595	 2.706047685	 0.225057
H	 1.3717715655	-2.9428445157	 0.6509951606	 0.087801
H	-0.8692431168	-2.8631870003	-0.8788089941	 0.0698
H	-2.1190124063	-0.7824802757	 0.7201790961	 0.085816
H	-2.0460167676	-1.0818530928	-2.1633176046	 0.085109
H	-1.6553269674	 0.6357290578	-1.7642154243	 0.105637
H	 0.8377064384	-0.8065619648	-2.0784410742	 0.060196
222.0227	274.9075	293.4335	338.5408	403.6656	461.794	551.9953	637.4446	693.3346	709.3976	780.0895	835.6734	852.2244	854.6184	894.6609	909.6631	918.0939	930.8128	971.1334	1008.3593	1032.6695	1059.7448	1063.588	1087.4018	1114.1783	1124.6935	1135.4091	1151.5786	1185.9505	1208.5035	1228.0945	1236.4042	1242.5139	1272.487	1322.2847	1348.1054	1360.0891	1416.1765	1511.962	3059.7787	3079.7492	3120.6468	3130.2906	3140.787	3160.3976	3178.621	3470.3267	3810.6742
OC12C3NC3C3C1CC23	O[C@@]12[C@H]3N[C@H]3[C@H]3[C@@H]1C[C@@H]23	
InChI=1S/C7H9NO/c9-7-2-1-3(7)4(2)5-6(7)8-5/h2-6,8-9H,1H2	InChI=1S/C7H9NO/c9-7-2-1-3(7)4(2)5-6(7)8-5/h2-6,8-9H,1H2/t2-,3+,4-,5-,6-,7-/m0/s1
