21
gdb 104544	2.69238	0.90741	0.78663	0.8618	87.58	-0.2364	0.0578	0.2941	1580.974	0.179279	-387.042565	-387.03178	-387.030836	-387.080261	37.805	
C	-1.5644369236	-0.6269612949	-0.5309143646	-0.250265
O	-0.2378253248	-0.3553782319	-0.1235625993	-0.274512
C	 0.7465213577	-0.7504167413	-1.0338109206	 0.462285
C	 0.780705074	 0.0227271824	-2.3513779267	-0.445506
C	 0.9418366715	 1.4632332404	-2.1771069331	 0.088228
C	 1.0700585708	 2.6501883959	-2.0237140351	 0.063781
C	 1.226389051	 4.085344494	-1.8351772279	-0.496476
C	 2.0302775116	-1.1654869824	-0.391394715	-0.30624
C	 1.135743798	-2.21012888	-1.0354942988	-0.334616
H	-1.8753178317	-0.0018287372	-1.3793697981	 0.113912
H	-1.6977264908	-1.683529832	-0.804806628	 0.104163
H	-2.2086617551	-0.396583198	 0.320947732	 0.126175
H	 1.6015145346	-0.3769137742	-2.9595315982	 0.1244
H	-0.1350450741	-0.1818681313	-2.9223005518	 0.123067
H	 0.4039707229	 4.6417948552	-2.298644076	 0.144171
H	 1.2421841839	 4.3455963765	-0.7709313376	 0.148598
H	 2.1609259052	 4.4480284365	-2.2777893129	 0.144086
H	 2.9612817533	-0.9012752636	-0.880651189	 0.11447
H	 2.0575252124	-1.1361961943	 0.6913804408	 0.123568
H	 0.5853519652	-2.8652619565	-0.3697891373	 0.117469
H	 1.4556354681	-2.6704669634	-1.9644616328	 0.109242
24.3597	38.6065	82.3174	108.1479	192.9539	210.5397	242.2124	277.7556	320.8769	340.2929	384.4376	395.8508	471.9356	555.8009	731.4218	765.7702	782.1766	885.5915	905.3533	924.7808	973.8256	1012.9121	1047.4927	1053.143	1055.072	1078.6415	1108.073	1166.7575	1180.8337	1186.4413	1193.3004	1224.3175	1292.7486	1331.9498	1365.9622	1415.381	1452.9894	1464.6607	1476.4296	1479.3849	1479.4665	1496.4883	1500.2873	1508.8099	2375.9167	2990.2462	3015.7838	3024.978	3043.6291	3049.1908	3083.951	3085.6799	3115.7025	3131.4709	3140.4088	3217.1942	3233.62
COC1(CC#CC)CC1	COC1(CC#CC)CC1	
InChI=1S/C8H12O/c1-3-4-5-8(9-2)6-7-8/h5-7H2,1-2H3	InChI=1S/C8H12O/c1-3-4-5-8(9-2)6-7-8/h5-7H2,1-2H3
