17
gdb 36067	4.26809	1.19736	1.11731	0.5751	80.18	-0.225	0.0541	0.2791	1116.6405	0.134497	-347.404279	-347.396717	-347.395773	-347.436608	29.981	
C	-0.107672529	-1.1893165016	 0.2511923579	-0.451992
C	-0.0543347736	-0.0021023236	 0.0726665253	 0.308118
C	 0.0372167933	 1.4395627202	-0.1549908824	-0.50603
C	 1.4450026074	 1.9606277818	-0.0997797333	 0.389719
C	 2.7126771688	 1.6401197767	-0.9544057107	-0.154428
C	 3.5970628324	 1.9624767531	 0.2402187382	-0.081654
C	 3.2135337287	 3.0614694124	-0.7401411457	-0.087115
C	 1.9492736939	 3.3822997519	 0.1116894508	-0.16988
C	 2.3334406182	 2.2790948845	 1.0939657093	-0.141056
H	-0.1620463869	-2.2370833933	 0.4133028519	 0.194455
H	-0.4128799728	 1.6813797165	-1.1282063037	 0.13389
H	-0.5655912037	 1.9695407877	 0.5951916468	 0.132447
H	 2.8829625522	 0.959253386	-1.777402725	 0.089744
H	 4.5734309549	 1.5748853753	 0.4971949632	 0.087298
H	 3.8415661947	 3.6739271685	-1.3729163303	 0.08634
H	 1.3881399536	 4.2921642374	 0.2814749052	 0.083398
H	 2.1184648879	 2.1904972666	 2.1507261425	 0.086745
66.2746	97.1139	251.817	275.1564	343.6436	430.3933	616.4132	621.4357	640.7538	677.0401	748.3021	758.6705	778.5804	800.8642	840.8106	848.3127	858.3259	919.7906	933.5281	949.7278	959.2171	976.1357	982.8928	1007.2352	1019.683	1068.6857	1107.4857	1172.7117	1193.3942	1216.756	1256.113	1294.5896	1320.0029	1333.4289	1424.3986	1457.2329	2238.7651	3003.5659	3035.3684	3187.2406	3196.6585	3201.1587	3205.0252	3215.4274	3507.1225
C#CCC12C3C4C3C1C24	C#CC[C@@]12[C@@H]3[C@H]4[C@@H]3[C@@H]1[C@@H]24	
InChI=1S/C9H8/c1-2-3-9-6-4-5(6)8(9)7(4)9/h1,4-8H,3H2	InChI=1S/C9H8/c1-2-3-9-6-4-5(6)8(9)7(4)9/h1,4-8H,3H2/t4-,5+,6-,7+,8-,9+
