15
gdb 21166	3.19242	1.9166	1.27818	1.8799	63.97	-0.195	0.0315	0.2265	930.0763	0.120145	-395.978317	-395.970135	-395.969191	-396.011973	28.621	
C	-0.5038927121	 1.1651795576	 0.0872119714	-0.328275
N	 0.6078491544	 0.2286084578	-0.1318795867	-0.396709
C	 0.9047735932	-0.6355415758	 0.9271142075	 0.310842
C	 0.6703705394	-1.9873344603	 1.1130054653	 0.161949
O	-0.0130452812	-2.7653994795	 0.2173725206	-0.460105
C	 1.2473172274	-2.3006612922	 2.3605572298	-0.113296
N	 1.7988839198	-1.2262192669	 2.925869309	-0.229234
N	 1.5830288352	-0.2362717414	 2.0404327672	-0.232417
H	-0.2639558804	 1.8303021729	 0.9214352624	 0.126535
H	-0.6257734841	 1.7828838735	-0.806563524	 0.124881
H	-1.4597439725	 0.6692751619	 0.3112931311	 0.119479
H	 0.4427404661	-0.3223307325	-0.9661102464	 0.24406
H	 0.1795283176	-3.6892471859	 0.4007552818	 0.299795
H	 1.2761902257	-3.2543065224	 2.8689243139	 0.101378
H	 1.9512111215	 0.6818222733	 2.2214487171	 0.271118
25.6346	132.3974	160.1885	166.2921	255.3814	299.8134	402.8268	473.6443	474.9589	643.1866	690.3081	704.5544	720.0583	799.3203	840.2439	946.2565	1039.7643	1115.938	1142.5648	1152.8798	1160.5354	1253.7868	1292.0468	1316.6487	1405.8593	1439.2114	1457.8429	1484.9726	1494.0115	1517.9509	1558.7585	1672.3165	2995.3734	3083.2789	3119.2654	3229.4416	3551.8413	3675.6752	3842.6522
CNC1=C(O)C=NN1	CNc1c(O)cn[nH]1	
InChI=1S/C4H7N3O/c1-5-4-3(8)2-6-7-4/h2,8H,1H3,(H2,5,6,7)	InChI=1S/C4H7N3O/c1-5-4-3(8)2-6-7-4/h2,8H,1H3,(H2,5,6,7)
