19
gdb 36412	4.43476	1.0383	0.98923	4.5644	79.59	-0.2285	0.0278	0.2563	1234.1828	0.161617	-382.050922	-382.043291	-382.042347	-382.083531	29.771	
N	 0.010608209	-1.1683666047	-0.3331950254	-0.307052
C	 0.001359619	-0.0252393651	-0.1683597047	 0.281515
C	-0.0224633645	 1.4243571555	 0.0657761686	-0.299191
N	 1.322402449	 1.9649744413	 0.1556907745	-0.070056
C	 2.0922687285	 1.5551667291	 1.3739230052	-0.174479
C	 2.5167781708	 2.943320331	 1.884302557	-0.033962
C	 1.1680702204	 3.7222584477	 1.8007286906	-0.238956
C	 1.3769217306	 3.4408327597	 0.2809657818	 0.01434
C	 2.8875165852	 3.6504764485	 0.5443257725	-0.223907
H	-0.5357528657	 1.8953136842	-0.7811025617	 0.151257
H	-0.6509820372	 1.6038481261	 0.9588212995	 0.125891
H	 1.4637744367	 1.0212788547	 2.0976605259	 0.104289
H	 2.9342632828	 0.9095290976	 1.1073210786	 0.117395
H	 3.1596333085	 2.9744733766	 2.7631852095	 0.072786
H	 0.2910932274	 3.3001013246	 2.2999963029	 0.092969
H	 1.2726232609	 4.7783503404	 2.0556712541	 0.105661
H	 0.83205289	 3.9561251221	-0.5106433715	 0.071681
H	 3.1532490745	 4.6998099765	 0.6808594993	 0.103406
H	 3.582582794	 3.1509614441	-0.1339549767	 0.106414
60.0182	113.6527	195.9093	312.7442	386.7254	406.812	447.5015	505.1318	536.022	647.0254	813.8105	825.0618	844.3828	855.9554	872.4314	934.3762	944.5463	947.2866	984.4527	1025.0112	1036.5147	1041.2476	1072.8313	1093.5492	1114.0825	1138.6263	1171.2615	1209.7796	1221.5326	1247.4965	1258.4843	1274.0469	1295.3725	1306.7279	1355.8723	1389.6709	1472.5851	1479.8186	1504.747	1522.8454	2366.6903	2919.6102	3022.7429	3054.9809	3057.3045	3072.0796	3078.3295	3114.6782	3122.5224	3126.7594	3140.0671
N#CCN1CC2CC1C2	N#CCN1C[C@@H]2C[C@H]1C2	
InChI=1S/C7H10N2/c8-1-2-9-5-6-3-7(9)4-6/h6-7H,2-5H2	InChI=1S/C7H10N2/c8-1-2-9-5-6-3-7(9)4-6/h6-7H,2-5H2/t6-,7+
