21
gdb 105071	2.78269	1.1276	1.0059	4.0091	78.41	-0.2406	0.0614	0.302	1288.4763	0.182902	-420.347865	-420.338504	-420.33756	-420.382583	35.444	
C	-1.3761428157	-1.2341384557	 2.3597103104	-0.398508
C	-0.6325213118	-0.9640295152	 1.0747229454	 0.012313
N	-0.7232680948	 0.3996276292	 0.5408855492	-0.328578
C	 0.5930064811	-0.1134444016	 0.9617845891	-0.160997
C	 1.2824597884	 0.6071257514	 2.0927222388	 0.308264
C	 1.1358239887	 2.1276053808	 2.0765805697	-0.102564
O	 1.9828711066	 2.7452035524	 3.0182897897	-0.42627
C	 1.5614795864	-0.0760748248	 3.3828328807	-0.265658
N	 2.6597341041	 0.190605739	 2.4317478959	-0.381569
H	-1.2778641338	-0.3977429421	 3.0547335515	 0.137726
H	-2.441945685	-1.3761829863	 2.1516194456	 0.121941
H	-1.0070481551	-2.142024077	 2.8488653149	 0.113715
H	-0.6880481734	-1.7754980426	 0.3486872832	 0.083146
H	-0.8018432064	 0.3999261894	-0.4715766407	 0.234074
H	 1.275746643	-0.3874666791	 0.1555476612	 0.086759
H	 1.3380262059	 2.4851959315	 1.0521663443	 0.078172
H	 0.1054570844	 2.4038828594	 2.3161339388	 0.122436
H	 2.8302640667	 2.2825902043	 2.9379839033	 0.290944
H	 1.607787591	 0.5116198277	 4.2942421036	 0.131831
H	 1.2316193136	-1.1025888799	 3.5042395864	 0.11357
H	 2.9101223762	-0.6599537909	 1.9333760391	 0.229252
28.6593	127.2663	165.8687	193.3623	221.1341	281.2007	308.9926	369.038	384.2621	417.7877	504.3304	554.6456	619.6532	706.0727	784.9192	821.9206	846.3096	907.5126	943.8457	962.7159	970.3546	1008.2654	1018.9769	1048.2186	1073.7684	1080.3967	1100.5442	1144.3005	1151.2483	1185.9418	1230.1855	1246.1312	1258.739	1267.814	1311.4201	1346.1474	1388.7051	1407.5563	1429.3155	1443.9447	1462.6528	1487.5306	1497.4203	1501.6617	1507.7456	2955.0409	3036.5982	3080.396	3092.1169	3096.2573	3100.562	3124.8166	3134.4029	3215.8533	3496.7617	3514.1353	3719.1016
CC1NC1C1(CO)CN1	C[C@H]1N[C@H]1[C@@]1(CO)CN1	
InChI=1S/C6H12N2O/c1-4-5(8-4)6(3-9)2-7-6/h4-5,7-9H,2-3H2,1H3	InChI=1S/C6H12N2O/c1-4-5(8-4)6(3-9)2-7-6/h4-5,7-9H,2-3H2,1H3/t4-,5-,6+/m1/s1
