19
gdb 89515	2.44952	1.74913	1.33013	2.5402	70.35	-0.2479	0.0608	0.3087	1022.0579	0.158976	-460.14987	-460.14155	-460.140606	-460.182545	32.174	
C	 0.0791943924	 1.5892926808	-0.2390590842	-0.46644
C	 0.0141064515	 0.1076355345	 0.0576076308	 0.395247
C	-1.3461228574	-0.4800249967	 0.5546275919	-0.327386
C	-0.6481258937	-1.0292712267	 1.836066977	 0.07663
O	-0.6264056768	-2.4260431359	 2.0113695801	-0.418479
C	 0.7253057084	-0.4837702682	 1.3211756125	 0.040947
O	 1.63608174	-1.4336286861	 0.8252634249	-0.242249
C	 1.1853471762	-1.7726058601	-0.4711564536	 0.006128
O	 0.601484913	-0.6114442127	-1.021270448	-0.291976
H	 1.114744511	 1.8994114995	-0.4058976242	 0.128918
H	-0.4987775856	 1.8242920013	-1.1386545991	 0.129213
H	-0.3333090595	 2.1707030109	 0.5912658914	 0.113404
H	-2.1300534161	 0.2612163964	 0.7297740924	 0.099671
H	-1.7327728455	-1.264487505	-0.1006626914	 0.105626
H	-0.9733692206	-0.5152704649	 2.7516958701	 0.066781
H	-1.5227757888	-2.7130577815	 2.2138373745	 0.286371
H	 1.2567078073	 0.1880035772	 1.997894502	 0.08328
H	 2.0438007552	-2.0636614968	-1.0827231889	 0.116733
H	 0.4536956289	-2.5931491359	-0.4121632782	 0.097584
76.4834	205.9263	219.7457	245.7898	271.5227	276.7671	308.6542	423.4781	427.7141	544.4059	618.1341	671.2871	741.5884	798.7074	825.0989	885.2607	915.7643	923.6985	956.0703	975.1981	1057.1502	1061.2854	1123.1468	1149.8208	1171.0939	1174.4989	1183.7415	1207.2687	1223.6045	1227.2754	1245.0132	1316.9257	1325.4711	1348.5842	1410.117	1416.5104	1426.3496	1463.1219	1481.9558	1494.2982	1539.5517	2985.874	2993.4962	3037.4944	3059.619	3091.319	3096.1326	3108.2618	3116.592	3120.782	3814.6171
CC12CC(O)C1OCO2	C[C@]12C[C@@H](O)[C@H]1OCO2	
InChI=1S/C6H10O3/c1-6-2-4(7)5(6)8-3-9-6/h4-5,7H,2-3H2,1H3	InChI=1S/C6H10O3/c1-6-2-4(7)5(6)8-3-9-6/h4-5,7H,2-3H2,1H3/t4-,5-,6+/m1/s1
