19
gdb 12550	3.36432	1.81214	1.25783	2.1432	73.32	-0.2383	0.0201	0.2584	991.6754	0.166971	-365.076047	-365.068245	-365.067301	-365.108414	29.484	
C	 0.2498730933	 1.6051856224	 0.0461012489	-0.38444
C	-0.0265942258	 0.0989385375	-0.0316902973	 0.065317
C	 0.564606449	-0.5006861877	-1.3169686727	-0.192074
C	 0.1735168225	-1.9576974446	-1.5567607464	-0.220918
C	 0.8378989437	-2.9225548804	-0.5865799422	-0.058505
O	 0.3851387788	-2.8594334961	 0.7691380787	-0.228875
C	 0.5056635352	-1.7195859987	 1.5059892694	 0.115321
N	 0.3927559135	-0.4963221768	 1.2320715622	-0.255462
H	 1.328050219	 1.7949852151	 0.0806094838	 0.115298
H	-0.1649473343	 2.1289169705	-0.821105497	 0.102137
H	-0.1911904192	 2.0226209732	 0.9542138764	 0.121556
H	-1.1190534175	-0.0400417101	-0.0856199652	 0.087543
H	 0.2252859232	 0.1113120721	-2.1609060264	 0.09701
H	 1.659408815	-0.4105382724	-1.2865396633	 0.095997
H	-0.9162337835	-2.0774049768	-1.5033197687	 0.106012
H	 0.4755855824	-2.2611450951	-2.5670616266	 0.100868
H	 0.6464707353	-3.9577633796	-0.8811683668	 0.115023
H	 1.9258597867	-2.763569831	-0.5963981331	 0.104655
H	 0.6929098327	-2.0050326815	 2.5431606362	 0.113536
52.4953	151.5029	229.093	278.7675	310.5135	366.6834	374.4008	410.1594	519.1075	558.4994	744.0149	779.501	837.2603	879.5431	898.0047	944.4047	979.6803	980.8554	1008.936	1081.5258	1104.9007	1138.9297	1159.3779	1160.2156	1226.1693	1266.339	1314.0964	1328.0635	1359.7866	1380.1706	1389.2804	1409.5506	1421.0331	1438.1069	1474.2691	1479.9156	1488.5442	1498.1392	1500.5426	1756.909	2967.0796	3005.7773	3014.0189	3022.7615	3036.6066	3060.3272	3066.7643	3094.127	3104.7486	3115.1243	3125.0216
CC1CCCOC=N1	C[C@H]1CCCOC=N1	
InChI=1S/C6H11NO/c1-6-3-2-4-8-5-7-6/h5-6H,2-4H2,1H3	InChI=1S/C6H11NO/c1-6-3-2-4-8-5-7-6/h5-6H,2-4H2,1H3/t6-/m0/s1
