19
gdb 74777	2.80967	1.67444	1.45899	1.7163	80.18	-0.2261	0.0064	0.2324	997.4373	0.16111	-385.90162	-385.894223	-385.893278	-385.933071	30.033	
C	-0.0068578465	 1.4908299637	 0.0528740021	-0.502469
C	-0.0638578776	 0.0029212884	-0.0239150899	 0.344799
C	-0.0868332217	-0.8079824966	-1.080830427	-0.20361
C	-0.0294247314	-2.242737074	-0.5793831809	 0.025765
C	 1.4320227642	-2.7429349403	-0.4471915249	-0.258967
C	 2.1373223129	-2.0435086845	 0.6958160183	-0.053624
C	 1.498667607	-1.1830830197	 1.4899427797	-0.056894
C	 0.0269543856	-0.9152456108	 1.2076147666	-0.072373
O	-0.5664484126	-2.1284486675	 0.7433378103	-0.252511
H	 0.9139247824	 1.824791656	 0.5481417851	 0.13148
H	-0.0392282929	 1.9461786391	-0.9404592064	 0.127878
H	-0.8418149878	 1.8921384229	 0.6410893492	 0.128944
H	-0.0609628194	-0.5240619256	-2.1255586318	 0.093832
H	-0.6452975151	-2.9487120169	-1.1433512981	 0.077971
H	 1.4368296484	-3.8273093387	-0.2737121079	 0.113483
H	 1.97890728	-2.5812699694	-1.3866978875	 0.103401
H	 3.1898442673	-2.2703722689	 0.8460697948	 0.088954
H	 1.9976267432	-0.6598953865	 2.2996582644	 0.087442
H	-0.522810576	-0.5692367705	 2.0872202139	 0.076499
142.4283	178.8881	212.8771	304.7476	364.3449	416.889	483.9146	518.7238	567.8852	647.4474	698.4309	738.8499	805.394	846.6644	867.5234	900.062	916.6855	937.0074	972.632	981.7252	994.749	1027.6125	1038.4525	1064.4451	1069.8324	1174.8886	1181.9473	1203.6558	1256.0742	1289.1892	1294.1986	1321.6633	1352.1489	1365.8528	1397.6142	1412.9084	1459.7416	1479.4623	1487.192	1698.1267	1714.444	3010.2975	3017.665	3039.7665	3063.8533	3071.2234	3075.7092	3111.6472	3150.8001	3180.7136	3210.2407
CC1=CC2CC=CC1O2	CC1=C[C@H]2CC=C[C@@H]1O2	
InChI=1S/C8H10O/c1-6-5-7-3-2-4-8(6)9-7/h2,4-5,7-8H,3H2,1H3	InChI=1S/C8H10O/c1-6-5-7-3-2-4-8(6)9-7/h2,4-5,7-8H,3H2,1H3/t7-,8+/m1/s1
