16
gdb 47351	2.52706	1.44669	1.14177	4.2944	71.12	-0.2565	-0.0016	0.2549	1087.8324	0.126672	-434.077002	-434.069121	-434.068177	-434.109851	29.366	
N	-0.1613342527	 1.2873089879	-0.368431239	-0.51079
C	-0.028533315	 0.0653161031	-0.0394321682	 0.355694
C	-1.2789927674	-0.7889292816	 0.0806736118	-0.128878
O	-1.1558562095	-1.854046743	 1.0098247403	-0.234569
C	-0.0378126524	-2.6531424684	 0.72637912	-0.084306
C	 1.2547165783	-1.8423192226	 0.9183127949	-0.150086
N	 1.1709023893	-0.6247836289	 0.1167167618	-0.328091
C	 1.4946423548	-1.5502879175	 2.347954247	 0.279616
N	 1.7207341701	-1.3057733205	 3.4543826742	-0.310288
H	 0.7402825109	 1.757947595	-0.4757793708	 0.205822
H	-2.1009436427	-0.155993286	 0.4120762673	 0.153907
H	-1.5234475044	-1.1858398922	-0.9185976609	 0.118857
H	-0.0555208166	-3.5032262284	 1.4112557684	 0.13942
H	-0.0595853255	-3.0230339514	-0.3111077498	 0.109852
H	 2.0996539487	-2.4426380234	 0.5600863219	 0.13761
H	 1.9895311841	-0.032123932	 0.1616924412	 0.246231
74.6689	102.7299	182.4241	258.4589	350.9077	409.9703	418.0217	463.4487	488.3639	592.9404	615.4924	625.1725	777.9696	804.7106	868.2996	902.9033	946.0354	975.8658	1024.7037	1076.1621	1114.9043	1151.1737	1181.0303	1243.4743	1274.6608	1317.3606	1348.8961	1367.9439	1408.4972	1419.9222	1468.5594	1476.432	1491.6184	1737.7547	2354.3084	2976.0191	2986.5035	3042.4037	3117.0643	3150.2945	3439.6677	3574.6728
N=C1COCC(N1)C#N	[NH][C]1COC[C@@H](N1)C#N	
InChI=1S/C5H7N3O/c6-1-4-2-9-3-5(7)8-4/h4H,2-3H2,(H2,7,8)	InChI=1S/C5H7N3O/c6-1-4-2-9-3-5(7)8-4/h4H,2-3H2,(H2,7,8)/t4-/m0/s1
