21
gdb 87990	2.59464	1.27805	1.22481	2.3859	79.17	-0.2237	0.0663	0.29	1184.9501	0.179584	-424.196686	-424.18686	-424.185916	-424.231004	36.991	
C	-0.1211936656	 1.4103364527	-0.1783253848	-0.405182
C	 0.1591523843	-0.0741972172	-0.0884139278	-0.094554
C	 1.5895890976	-0.578176786	 0.0805535657	-0.357715
C	 0.6117585626	-0.6682977577	 1.2049677273	 0.443214
O	 0.7488092171	 0.1057987319	 2.3991149046	-0.31574
C	 0.5578184489	-1.0724015682	 3.2154283574	-0.117792
C	 0.1674594402	-1.9163979252	 1.9692482514	 0.244428
C	-1.3125489486	-2.2574492885	 1.8627339953	-0.458264
O	 0.9857607766	-3.0308614255	 1.6856492803	-0.469352
H	 0.5096385596	 1.9672014616	 0.5196942967	 0.133189
H	 0.0686091213	 1.7877431247	-1.1888323633	 0.114189
H	-1.1639650939	 1.6320409234	 0.0735876487	 0.114976
H	-0.4900396478	-0.7029200903	-0.6948790125	 0.082028
H	 1.8863977784	-1.4994303128	-0.4086680746	 0.123094
H	 2.3709701568	 0.1695219571	 0.1761126051	 0.116034
H	 1.4934347087	-1.4094278745	 3.6768290479	 0.103052
H	-0.2100977514	-0.9173452211	 3.9815831695	 0.095674
H	-1.9312255909	-1.3735237098	 2.0400491189	 0.134428
H	-1.5455235756	-2.6504485242	 0.86815035	 0.126835
H	-1.5902803331	-3.0155464597	 2.6064246108	 0.108432
H	 0.5777886849	-3.8128408808	 2.0718273232	 0.279028
67.292	126.8019	161.1069	183.4337	234.9571	246.8435	266.7533	282.1496	343.2864	392.4539	434.4123	476.5861	573.4907	590.0531	675.3602	798.3444	872.8431	887.724	893.1342	918.0887	969.693	980.4751	990.5157	1015.5332	1036.606	1095.1073	1113.499	1134.4132	1155.1185	1175.0886	1193.3219	1210.7793	1242.5928	1292.0776	1331.1077	1380.9099	1403.0888	1413.8563	1436.7021	1480.5097	1488.9197	1492.5514	1496.0014	1505.1349	1521.1691	3019.1786	3022.8632	3032.5581	3076.4274	3090.7766	3091.3053	3110.2373	3119.2295	3126.7253	3128.1332	3219.9647	3811.0889
CC1CC11OCC1(C)O	C[C@H]1C[C@]21OC[C@]2(C)O	
InChI=1S/C7H12O2/c1-5-3-7(5)6(2,8)4-9-7/h5,8H,3-4H2,1-2H3	InChI=1S/C7H12O2/c1-5-3-7(5)6(2,8)4-9-7/h5,8H,3-4H2,1-2H3/t5-,6-,7+/m0/s1
