18
gdb 9374	3.56101	1.04691	0.84872	4.3779	69.59	-0.2557	0.0203	0.276	1328.1281	0.153346	-381.118927	-381.1097	-381.108755	-381.153522	32.569	
C	 0.0355988119	 1.428462376	-0.2759588812	-0.396176
C	 0.0469451392	-0.0818817456	 0.040982667	-0.098885
N	 0.7677337573	-0.4761908555	 1.251340024	-0.300907
C	 2.2188620407	-0.2736873798	 1.2251628421	-0.161986
C	 2.842491941	-1.1102279077	 2.3435050544	-0.053966
O	 2.5100910707	-2.4723389925	 2.209190273	-0.416149
C	-1.3353289641	-0.5843437124	 0.1348037488	 0.274602
N	-2.4284355395	-0.94939346	 0.2133295959	-0.313408
H	 1.058638434	 1.7910617907	-0.4025863917	 0.132594
H	-0.5181850957	 1.628078524	-1.1973917494	 0.143186
H	-0.438099385	 1.9879795894	 0.5362614638	 0.133677
H	 0.5213580875	-0.6103891568	-0.795953835	 0.13866
H	 0.3589325342	-0.0145986242	 2.0590192657	 0.2306
H	 2.5882130405	-0.6437487581	 0.2613850982	 0.117559
H	 2.5282265155	 0.7795863126	 1.3206902402	 0.093063
H	 3.9338089445	-1.0279192001	 2.3047562793	 0.11038
H	 2.5199518092	-0.707212623	 3.3207119052	 0.08104
H	 1.5685919182	-2.4818215869	 1.9875553696	 0.286116
55.9845	73.6699	138.7235	176.2482	209.8157	237.635	286.4679	333.1922	415.0342	489.1884	512.2858	567.0087	586.1969	749.411	836.228	886.7004	904.3619	946.6352	1037.5965	1071.3541	1089.6247	1104.9102	1143.7088	1186.9085	1230.3979	1268.0459	1328.7308	1336.5804	1381.065	1391.5248	1405.2223	1443.1522	1482.2191	1489.942	1498.0717	1499.8651	1516.454	2363.2224	2941.8924	2974.1415	3034.4961	3046.4173	3060.7803	3074.4527	3123.1174	3130.2782	3508.1486	3743.8305
CC(NCCO)C#N	C[C@@H](NCCO)C#N	
InChI=1S/C5H10N2O/c1-5(4-6)7-2-3-8/h5,7-8H,2-3H2,1H3	InChI=1S/C5H10N2O/c1-5(4-6)7-2-3-8/h5,7-8H,2-3H2,1H3/t5-/m1/s1
