17
gdb 66917	2.72811	1.7572	1.28791	3.256	72.42	-0.2224	0.0023	0.2248	1012.3824	0.133548	-421.788583	-421.780204	-421.77926	-421.821231	31.533	
C	-0.0409189948	 1.5136741984	 0.0416327659	-0.511528
C	-0.0238361011	 0.0207876122	-0.0510221088	 0.135583
C	-0.8699806555	-0.9433015362	 0.7817164042	 0.054908
O	-1.0332251326	-2.1690917235	 0.0665095255	-0.322661
C	 0.3984529894	-2.0956535969	-0.2312493435	 0.271042
C	 1.0783685711	-3.3958000067	-0.4972560018	-0.518042
C	 0.5955386191	-1.0489899743	 0.9359235897	-0.23749
C	 0.4892471039	-0.850893282	-1.1545277807	 0.390889
O	 1.0276563341	-0.6353955926	-2.2051869043	-0.342959
H	 0.9067217223	 1.9368809136	-0.3059274212	 0.141824
H	-0.840906869	 1.9302669622	-0.5791325167	 0.14202
H	-0.208615397	 1.849447815	 1.0699866059	 0.125043
H	-1.653069344	-0.6105114356	 1.4516074575	 0.121935
H	 0.6000548993	-3.8887697854	-1.3492514324	 0.149662
H	 2.1290775479	-3.2263196589	-0.7493862194	 0.140034
H	 1.0176782716	-4.0606933739	 0.3682069087	 0.13392
H	 1.3241056555	-0.9060629553	 1.7204792114	 0.125819
130.4911	152.2767	175.1129	205.7765	216.6826	240.1442	329.9314	462.2617	515.8255	569.026	656.4128	687.9655	759.7001	780.4011	817.985	826.9405	853.7019	902.2214	944.3212	944.9148	1009.2151	1055.662	1092.0401	1112.137	1123.471	1136.9068	1242.6001	1300.3039	1353.9229	1403.2384	1416.921	1433.0951	1474.3424	1483.4021	1485.8031	1495.5565	1870.9535	3034.9313	3046.3253	3101.144	3105.6307	3119.5891	3126.3816	3196.8263	3228.1735
CC12C3OC(C)(C13)C2=O	C[C@]12[C@H]3O[C@](C)([C@@H]13)C2=O	
InChI=1S/C7H8O2/c1-6-3-4(6)9-7(3,2)5(6)8/h3-4H,1-2H3	InChI=1S/C7H8O2/c1-6-3-4(6)9-7(3,2)5(6)8/h3-4H,1-2H3/t3-,4+,6-,7-/m1/s1
