20
gdb 36904	4.12616	0.99911	0.89905	1.9541	78.6	-0.2326	0.0753	0.3079	1337.127	0.171021	-403.06305	-403.054855	-403.053911	-403.096625	31.381	
C	 0.4901025133	 1.497798298	 0.9458978086	-0.17598
C	 0.2325520464	 0.0212837255	 0.692477069	 0.138649
O	-0.4753646321	-0.6265966154	 1.7903728928	-0.307985
C	-1.4099199167	-1.1923061109	 0.866479485	 0.109551
C	-2.2161386099	-0.125081749	 0.2021460314	-0.300637
C	-0.8238719873	-0.4502233799	-0.310440153	-0.139507
N	 1.3424773154	 2.0385692253	-0.1056731964	-0.069946
C	 0.6614814639	 2.6343815292	-1.2538790509	-0.217264
C	 1.351972676	 3.4892902454	-0.2501558828	-0.219338
H	-0.4647770978	 2.0427757937	 1.0444464694	 0.082344
H	 1.0175318986	 1.5925311904	 1.9030053245	 0.114913
H	 1.1900039049	-0.4856645016	 0.5228344338	 0.093029
H	-1.7101522809	-2.2229392884	 1.0138034705	 0.103797
H	-3.0162584624	-0.4756461642	-0.4426969869	 0.114449
H	-2.426105875	 0.7980422123	 0.7344866788	 0.115161
H	-0.6296198036	-0.7766842784	-1.3224040109	 0.100204
H	 1.1139076918	 2.4447310184	-2.2229679985	 0.116135
H	-0.427046852	 2.645476299	-1.2518480328	 0.114915
H	 0.7236910948	 4.0736925142	 0.4203950061	 0.110149
H	 2.3172106228	 3.9351255563	-0.472840808	 0.117362
60.9401	73.4963	147.4871	219.2757	310.418	352.6504	416.3134	460.8892	550.5226	730.8031	762.6371	772.2773	798.6781	839.2392	891.2301	910.8182	952.1156	963.8223	999.2796	1014.4939	1029.0733	1042.6417	1049.6002	1050.9382	1082.0732	1097.4864	1112.5903	1119.2544	1136.0156	1171.4643	1186.4956	1204.2863	1252.2098	1258.2954	1296.106	1322.9743	1345.7005	1367.9484	1410.0977	1473.1657	1486.991	1495.3492	1522.9035	2952.0372	3036.3195	3055.0017	3095.135	3100.8706	3118.1633	3177.7012	3182.2562	3192.4063	3204.6961	3214.1133
C(C1OC2CC12)N1CC1	C([C@H]1O[C@H]2C[C@@H]12)N1CC1	
InChI=1S/C7H11NO/c1-2-8(1)4-7-5-3-6(5)9-7/h5-7H,1-4H2	InChI=1S/C7H11NO/c1-2-8(1)4-7-5-3-6(5)9-7/h5-7H,1-4H2/t5-,6+,7-/m1/s1
