18
gdb 73888	2.2124	1.66814	1.03075	3.7157	81.55	-0.2294	-0.0589	0.1705	1158.0619	0.147462	-401.94843	-401.940158	-401.939214	-401.98133	30.984	
C	 0.0405907266	 1.5002957144	 0.0954311545	-0.500159
C	 0.0100428914	 0.0114254768	-0.0127592915	 0.19324
C	 0.0175271646	-0.7764142779	-1.1091369349	 0.156859
C	-0.0084962623	-0.3555743415	-2.5080732197	 0.056898
O	-0.0148543837	-1.128682687	-3.4432863588	-0.272254
C	 0.0457431309	-2.2154088388	-0.7105442021	-0.123039
C	 1.2384662389	-2.6366704077	 0.0745387229	-0.236332
N	 0.0020572683	-2.2642637386	 0.7716369562	-0.10846
C	-0.0341355712	-0.8617625668	 1.2271034619	-0.243537
H	 0.9481129111	 1.8290340383	 0.6173135336	 0.142477
H	 0.0086466199	 2.0006037614	-0.8738102361	 0.140795
H	-0.80646256	 1.8572572028	 0.6946629415	 0.141583
H	-0.0337618183	 0.7415387566	-2.6812709246	 0.065887
H	-0.540718465	-2.9365207077	-1.2696597571	 0.113407
H	 1.496489527	-3.6887713632	 0.1549946288	 0.122136
H	 2.0834652236	-1.9508987408	 0.1036885197	 0.107416
H	 0.7942290318	-0.6508012457	 1.9168488403	 0.120663
H	-0.9612439436	-0.6821384046	 1.7908114456	 0.122418
110.1503	145.6007	170.3075	186.3269	234.4027	298.5015	377.5952	425.6912	512.832	568.149	610.6368	702.6476	729.2637	817.9673	851.6473	917.8565	940.9296	995.3606	1019.0954	1037.7588	1062.7187	1087.9245	1109.6111	1121.7318	1158.4548	1205.6963	1214.5658	1256.4188	1271.1231	1348.7037	1393.188	1410.7168	1430.8066	1475.8025	1477.4634	1480.2739	1499.4179	1685.148	1772.0835	2896.1269	2999.4307	3024.4814	3035.8057	3069.2725	3096.1233	3132.2968	3170.8737	3189.275
CC1=C(C=O)C2CN2C1	CC1=C(C=O)[C@H]2CN2C1	
InChI=1S/C7H9NO/c1-5-2-8-3-7(8)6(5)4-9/h4,7H,2-3H2,1H3	InChI=1S/C7H9NO/c1-5-2-8-3-7(8)6(5)4-9/h4,7H,2-3H2,1H3/t7-,8?/m1/s1
