17
gdb 121609	3.30097	0.86576	0.71019	1.7439	67.83	-0.2366	-0.0257	0.2109	1538.1765	0.135581	-492.347	-492.337086	-492.336142	-492.383117	34.631	
N	 0.0283353991	 1.1620533206	-0.3717151867	-0.516817
C	 0.0349321964	-0.1050818746	 0.0832996674	 0.331522
O	 1.0012383903	-0.7235090523	 0.4943862527	-0.376687
C	-1.3786790739	-0.7274626642	 0.0265370646	 0.333304
O	-2.3402190896	-0.1015426135	-0.3992769704	-0.404848
N	-1.3846303185	-1.9881637062	 0.488025255	-0.306548
C	-2.5614737344	-2.8298864547	 0.5235587438	-0.14668
C	-2.2747109337	-4.1884210789	-0.0993285392	-0.078351
O	-1.2275679241	-4.7768515176	 0.6600117251	-0.419414
H	 0.876912065	 1.7004252077	-0.3953979514	 0.267854
H	-0.8515277532	 1.5448169929	-0.6816210349	 0.281908
H	-0.4945910363	-2.3625939438	 0.7901446317	 0.276301
H	-2.8909002536	-2.9773218847	 1.5602518079	 0.123309
H	-3.3561309498	-2.3112561779	-0.0177209565	 0.14242
H	-3.188903885	-4.8009552666	-0.0714505622	 0.095973
H	-1.9816768159	-4.0567529943	-1.1511382038	 0.101784
H	-0.9075224126	-5.5546857021	 0.194838617	 0.29497
36.4327	78.5992	93.1212	117.0729	196.0898	259.2414	289.6575	329.0712	342.4076	391.2838	484.8137	516.5682	550.2549	634.6986	680.6745	700.2411	822.8701	836.337	910.3992	951.2479	1078.7504	1097.0739	1107.4455	1123.5197	1213.592	1237.0278	1263.8355	1311.1645	1368.6908	1394.1474	1454.2624	1487.4764	1515.3398	1557.822	1583.9303	1775.0368	1807.6062	2982.926	3014.9907	3035.2937	3118.7014	3589.1473	3595.9024	3737.4618	3840.82
NC(=O)C(=O)NCCO	NC(=O)C(=O)NCCO	
InChI=1S/C4H8N2O3/c5-3(8)4(9)6-1-2-7/h7H,1-2H2,(H2,5,8)(H,6,9)	InChI=1S/C4H8N2O3/c5-3(8)4(9)6-1-2-7/h7H,1-2H2,(H2,5,8)(H,6,9)
