17
gdb 121509	5.34176	0.56409	0.53747	3.6734	74.92	-0.2594	-0.0124	0.247	1982.9228	0.134079	-455.134186	-455.124307	-455.123362	-455.171324	33.421	
O	 0.3965035639	 0.9305687892	-0.0303321624	-0.419309
C	-0.4599946356	-0.1099954399	 0.3829148872	-0.038076
C	-1.8320233309	-0.0043248773	-0.2909704897	-0.161893
N	-1.6389266889	-0.0148258537	-1.7320612754	-0.222746
C	-2.3206285759	-0.8023006649	-2.4279443635	 0.134345
O	-2.1305211579	-0.8518223291	-3.7744485173	-0.193102
C	-2.9591711406	-1.752906695	-4.4869974043	-0.211827
C	-4.344142516	-1.2724169656	-4.6176812123	 0.26113
N	-5.433889002	-0.9015494488	-4.7102074661	-0.283329
H	 0.3123619599	 0.9730456658	-0.9916204512	 0.293541
H	-0.0294405838	-1.1023164028	 0.1661611608	 0.082023
H	-0.5739342115	-0.0274631106	 1.4691123845	 0.106917
H	-2.4990336976	-0.8073114503	 0.0631094742	 0.086474
H	-2.2778676121	 0.95920661	-0.0161098987	 0.125621
H	-3.089834416	-1.4900167794	-2.0482944712	 0.099109
H	-2.5166784824	-1.8504180533	-5.4810616388	 0.180293
H	-2.9700074127	-2.7474026544	-4.0222224957	 0.160829
21.9887	46.2984	90.6119	111.6114	203.1779	209.7835	255.5507	354.6182	369.1208	413.5784	456.5405	488.0238	553.448	647.6999	886.4345	893.0628	913.6015	971.6681	1008.9851	1044.3679	1090.9666	1099.621	1125.6076	1190.88	1225.2027	1263.2288	1305.9022	1366.6916	1383.4766	1389.5121	1417.9999	1439.7021	1475.5039	1479.5433	1509.5256	1785.3803	2365.1749	2960.4883	2973.2985	3016.2566	3033.9385	3056.0863	3073.4653	3114.6054	3771.7084
OCCN=COCC#N	OCCN=COCC#N	
InChI=1S/C5H8N2O2/c6-1-4-9-5-7-2-3-8/h5,8H,2-4H2	InChI=1S/C5H8N2O2/c6-1-4-9-5-7-2-3-8/h5,8H,2-4H2
