19
gdb 50157	4.95191	0.89038	0.87553	3.0759	76.43	-0.2448	-0.0327	0.2121	1372.1154	0.157964	-423.008957	-423.000378	-422.999434	-423.043319	31.633	
O	-0.8060040741	 0.600790376	-0.1305047833	-0.240265
C	 0.3151589871	 0.6992796158	 0.2945227428	 0.138137
C	 1.3098975284	 1.7436525525	-0.1667567225	 0.040302
C	 1.4761175462	 2.9475023283	 0.797763921	-0.374657
C	 2.9380027009	 2.4625165523	 0.9184269834	 0.467823
C	 4.1064674251	 3.4108674807	 0.5735953188	-0.287092
C	 4.4117551245	 3.5085672604	 2.0945989294	-0.215157
C	 3.5768873617	 2.2133465516	 2.3001150952	-0.287026
O	 2.6711975256	 1.3373597212	 0.055899071	-0.324925
H	 0.7126130472	 0.0347270488	 1.096282523	 0.084972
H	 1.108329176	 2.0057246949	-1.2111518005	 0.1033
H	 1.3275270326	 3.9266427142	 0.3411726615	 0.125007
H	 0.8918225262	 2.8847252848	 1.7189227612	 0.120245
H	 4.8851374822	 2.8595879354	 0.0386219873	 0.118561
H	 3.8754547035	 4.3263592891	 0.0226136598	 0.09866
H	 5.459780628	 3.479636731	 2.3962424961	 0.10748
H	 3.9406591785	 4.3805178291	 2.5553500094	 0.1078
H	 2.9112761136	 2.1462889209	 3.1647493729	 0.098287
H	 4.2037695268	 1.317687483	 2.2623593535	 0.118548
41.8862	63.2621	120.0934	216.6668	297.0296	313.8249	384.0496	396.5716	421.4204	586.069	694.008	781.9347	821.8426	856.2516	877.9859	915.2108	917.0699	923.0795	947.4786	969.6242	1026.1014	1044.133	1063.3557	1146.2688	1154.5195	1174.1818	1188.9701	1213.1188	1239.8057	1244.9819	1257.7105	1274.542	1285.1772	1308.0962	1327.5621	1401.8749	1466.42	1481.6281	1490.8385	1505.0792	1833.9002	2873.5795	3053.3285	3054.2195	3058.9199	3070.5564	3072.5231	3107.005	3111.2441	3129.8937	3133.388
O=CC1CC2(CCC2)O1	O=C[C@H]1CC2(CCC2)O1	
InChI=1S/C7H10O2/c8-5-6-4-7(9-6)2-1-3-7/h5-6H,1-4H2	InChI=1S/C7H10O2/c8-5-6-4-7(9-6)2-1-3-7/h5-6H,1-4H2/t6-/m1/s1
