21
gdb 74043	2.68277	1.53131	1.03988	1.6127	85.84	-0.2258	0.0237	0.2495	1194.6873	0.184242	-387.114798	-387.106407	-387.105462	-387.147935	32.074	
C	-0.0212865056	 1.4868647701	-0.0575467691	-0.494986
C	-0.0170642769	-0.0076082078	-0.004397816	 0.144157
C	-1.0562588675	-0.8356392691	 0.0999856913	 0.272886
C	-2.549800029	-0.7775222711	-0.0237410492	-0.381907
C	-2.8675081006	-2.2415366209	-0.4827153138	-0.067231
O	-1.6284801226	-2.8780070143	-0.7980612158	-0.271424
C	-0.6487688658	-2.2826188676	 0.0510531048	 0.07801
C	 0.7806898944	-2.2377863558	-0.5002769144	-0.251104
C	 1.272648495	-0.8153573129	-0.1046199872	-0.297655
H	 0.5056866767	 1.918048534	 0.803848244	 0.127317
H	 0.4988993433	 1.8518340934	-0.9524716673	 0.124009
H	-1.0376070843	 1.8906875618	-0.0614862811	 0.121104
H	-3.05873193	-0.5470395727	 0.9189809549	 0.111592
H	-2.874785147	-0.0343876458	-0.7582334951	 0.116785
H	-3.3799569232	-2.7859286159	 0.3251922215	 0.090461
H	-3.4987387262	-2.285047643	-1.3741793079	 0.10843
H	-0.6877315077	-2.764468132	 1.0459321368	 0.058521
H	 1.4254401476	-3.0386157509	-0.1299211256	 0.09398
H	 0.7217769737	-2.3216832256	-1.5898726767	 0.114868
H	 1.9659653463	-0.3902260925	-0.8405750956	 0.099289
H	 1.8162431395	-0.8297603915	 0.8511563314	 0.102898
79.1032	152.8895	164.8503	174.8613	218.6186	281.3642	414.9653	463.3805	558.3929	591.1749	607.8103	707.1471	753.4406	822.4902	867.6151	916.8299	929.1916	942.5451	958.1169	999.6048	1015.7616	1046.9151	1086.7814	1094.2526	1105.928	1166.1264	1188.5615	1203.591	1221.4333	1249.3205	1256.7543	1274.0756	1287.7604	1322.1051	1344.9649	1368.9499	1394.8049	1413.0398	1478.6711	1480.2468	1483.7565	1488.3652	1498.9487	1517.8479	1773.0037	2919.3731	2983.4157	3002.5712	3014.2414	3038.3378	3043.9448	3058.7164	3061.6159	3074.2013	3093.015	3106.6884	3110.1996
CC1=C2CCOC2CC1	CC1=C2CCO[C@H]2CC1	
InChI=1S/C8H12O/c1-6-2-3-8-7(6)4-5-9-8/h8H,2-5H2,1H3	InChI=1S/C8H12O/c1-6-2-3-8-7(6)4-5-9-8/h8H,2-5H2,1H3/t8-/m0/s1
