16
gdb 9222	7.94676	0.74124	0.69932	1.6663	63.58	-0.2608	-0.0389	0.2218	1516.5673	0.126886	-420.899898	-420.890748	-420.889803	-420.935393	30.61	
O	 0.2034676017	 1.3705114498	-0.0945088507	-0.416517
C	 0.072532045	 0.0030310263	 0.1428597033	-0.127212
C	-1.3581205285	-0.4700321288	-0.0656794679	 0.360036
O	-2.2229102448	 0.3426878393	-0.3132500531	-0.316027
C	-1.631662246	-1.9607965565	 0.0304889922	-0.323852
C	-3.1018711534	-2.2832219553	 0.3269006525	-0.269243
C	-3.4345127958	-3.7251873526	 0.0222996941	 0.158616
O	-3.9516434506	-4.4935461455	 0.789427618	-0.232714
H	-0.6986683488	 1.6889630888	-0.2565936976	 0.296505
H	 0.7369372147	-0.5810570165	-0.5146407755	 0.118734
H	 0.3581776386	-0.2618606538	 1.1766990692	 0.119158
H	-1.3359201108	-2.3903979716	-0.9392701993	 0.142935
H	-0.9605806571	-2.4126077271	 0.7697967509	 0.13517
H	-3.3616788547	-2.0678907488	 1.3662049654	 0.132539
H	-3.7232078233	-1.6448121039	-0.3151021082	 0.150259
H	-3.1589218062	-4.0450317339	-1.0118199533	 0.071611
43.7035	57.0087	70.8053	128.4599	162.1595	289.6496	303.5542	385.4122	405.2976	477.7254	527.9258	689.2435	745.5753	820.0219	867.1528	950.6164	1016.0834	1047.133	1101.8977	1112.0784	1151.3573	1190.2536	1246.8523	1263.2608	1307.6775	1319.0857	1378.124	1429.4482	1450.0028	1452.3717	1469.037	1489.6677	1798.2113	1840.9253	2841.6466	2956.4804	2989.6341	3006.4987	3037.9078	3069.0142	3114.7072	3692.9818
OCC(=O)CCC=O	OCC(=O)CCC=O	
InChI=1S/C5H8O3/c6-3-1-2-5(8)4-7/h3,7H,1-2,4H2	InChI=1S/C5H8O3/c6-3-1-2-5(8)4-7/h3,7H,1-2,4H2
