16
gdb 5542	3.13857	2.00244	1.27787	1.0211	68.14	-0.197	0.0319	0.2289	950.4123	0.129798	-383.762448	-383.754316	-383.753372	-383.795651	28.684	
C	 0.1222828761	 1.3246677251	 0.0425124441	-0.252728
O	-0.4146328071	 0.0761908103	-0.4033002106	-0.267751
C	 0.3504473286	-0.6178181143	-1.2568418425	 0.352051
C	 0.6686321145	-1.9407326235	-1.2818870393	 0.124539
C	 0.2920088924	-2.9728778188	-0.2665846385	-0.507582
C	 1.433151988	-2.1082556614	-2.4929198283	-0.26191
C	 1.5205760353	-0.8913238258	-3.0810743552	-0.018412
O	 0.8519179888	 0.0431636481	-2.3364380211	-0.188643
H	 1.0895556578	 1.1772714404	 0.5376494685	 0.123676
H	 0.2441507337	 2.0218082654	-0.7916785195	 0.139703
H	-0.5987119369	 1.7273887912	 0.7552567866	 0.135868
H	-0.3639196944	-3.7419560153	-0.6913258613	 0.127101
H	 1.1735565236	-3.4869225462	 0.1334650736	 0.123772
H	-0.2375888566	-2.5091161775	 0.5694897005	 0.132011
H	 1.8644650508	-3.0274320273	-2.8598224257	 0.106703
H	 1.9982657554	-0.5204271904	-3.9718899714	 0.131603
43.2067	128.3956	152.0479	186.2469	246.3476	262.6328	371.2837	506.3059	615.0367	617.8841	673.8247	712.8941	744.8782	821.7804	903.4686	980.4073	1035.3854	1063.0054	1067.5358	1133.5401	1172.3093	1186.5511	1206.7577	1278.4501	1288.4628	1410.3283	1430.3045	1483.3362	1486.8948	1488.9149	1498.3581	1505.1382	1561.3124	1696.8506	3023.6052	3025.4876	3072.2306	3099.3112	3117.0785	3143.569	3245.6971	3287.8569
COC1=C(C)C=CO1	COc1c(C)cco1	
InChI=1S/C6H8O2/c1-5-3-4-8-6(5)7-2/h3-4H,1-2H3	InChI=1S/C6H8O2/c1-5-3-4-8-6(5)7-2/h3-4H,1-2H3
