19
gdb 58504	1.9647	1.35511	1.13315	4.5637	73.48	-0.2362	-0.0128	0.2234	1196.714	0.155438	-460.153705	-460.143597	-460.142653	-460.188597	37.022	
C	 0.7638885236	 0.8661422016	-0.6748659562	-0.420763
C	-0.2419053564	 0.3048685225	 0.3284193199	 0.07216
O	-1.1546831367	-0.6073066237	-0.2701780231	-0.435402
C	 0.4481851895	-0.3919194776	 1.495750592	 0.385767
O	 1.1894626184	 0.5119904863	 2.2737659068	-0.463811
C	-0.1486734443	-1.5721275599	 2.1812353013	-0.373986
C	 1.1444422969	-1.7420874231	 1.3750724021	-0.129318
C	 1.1473549781	-2.5680751469	 0.1415980224	 0.141406
O	 2.1274020475	-3.151316773	-0.260757501	-0.279562
H	 1.3168344189	 0.0573251348	-1.162040904	 0.139349
H	 0.2552687799	 1.4559435581	-1.4461602083	 0.106426
H	 1.477680678	 1.5165112144	-0.1637122383	 0.142827
H	-0.8048383327	 1.1470858869	 0.7699930045	 0.06257
H	-1.4114858307	-0.2536318642	-1.1270950379	 0.290436
H	 0.5706858492	 1.0023148922	 2.8273517553	 0.287389
H	-0.0582410736	-1.6330551939	 3.2598133231	 0.121947
H	-1.0477660936	-2.0000051635	 1.7531739056	 0.144191
H	 2.0674542711	-1.7999125534	 1.9413375309	 0.117461
H	 0.177027327	-2.6308972476	-0.3881437353	 0.09091
69.3609	82.6623	157.1962	218.3603	238.0384	249.6149	257.7995	275.5189	315.5231	352.9075	404.493	435.0908	469.627	532.4823	587.0653	679.4525	848.7304	869.2431	906.0265	933.5813	980.9757	1042.851	1048.2385	1066.5239	1077.7293	1111.496	1137.1931	1173.4781	1220.1849	1248.0008	1286.9765	1324.6071	1362.9399	1379.9111	1404.9495	1429.2578	1446.8132	1471.0561	1492.7205	1504.336	1802.4836	2932.9208	2949.639	3034.4926	3104.9555	3132.8187	3140.4161	3183.0023	3237.29	3788.3237	3830.2269
CC(O)C1(O)CC1C=O	C[C@@H](O)[C@@]1(O)C[C@H]1C=O	
InChI=1S/C6H10O3/c1-4(8)6(9)2-5(6)3-7/h3-5,8-9H,2H2,1H3	InChI=1S/C6H10O3/c1-4(8)6(9)2-5(6)3-7/h3-5,8-9H,2H2,1H3/t4-,5+,6+/m1/s1
