21
gdb 104311	2.87827	1.27658	1.20313	1.7705	77.08	-0.2568	0.0619	0.3187	1165.4258	0.182038	-424.226239	-424.217261	-424.216317	-424.259571	34.815	
C	-0.0485014377	 1.5352573095	 0.1181530215	-0.408618
C	 0.0245698643	 0.0093660921	-0.0090327242	-0.219232
C	 0.7600659303	-0.4926914009	-1.2589592232	 0.367058
O	 0.0593367667	-0.144247758	-2.4577298455	-0.490747
C	 2.2531640705	-0.0634961095	-1.33719885	-0.265453
C	 2.9734222279	-1.178013843	-2.1322210039	-0.247451
C	 2.1515112918	-2.4142056041	-1.8325571268	 0.048415
O	 1.8256715931	-2.5618294919	-0.4377529406	-0.27387
C	 0.841100705	-2.0129450025	-1.3186917438	 0.038175
H	 0.9472307914	 1.9872636526	 0.1704797283	 0.122415
H	-0.5812213136	 1.9890017228	-0.7261836682	 0.10574
H	-0.5901320146	 1.8230452487	 1.0238139726	 0.121595
H	 0.5253773845	-0.4134849117	 0.869206008	 0.114411
H	-0.9913026649	-0.4033518185	-0.027536118	 0.099272
H	-0.0010544479	 0.8154700618	-2.4960208999	 0.279454
H	 2.3578883678	 0.9176762232	-1.8080603794	 0.090242
H	 2.6698967413	 0.0054051394	-0.3295187176	 0.113699
H	 2.9355956499	-0.985110216	-3.210131387	 0.112121
H	 4.0247617437	-1.2845668883	-1.8483267977	 0.105551
H	 2.3107289722	-3.344773153	-2.370768116	 0.09293
H	-0.0693538716	-2.5911631528	-1.4539035487	 0.094293
94.4242	118.889	174.9404	232.6474	253.1499	279.3093	337.3051	378.0031	384.5675	430.3886	509.2391	620.0694	685.5221	761.4672	788.9997	830.4548	844.5462	876.8289	934.3796	961.0172	970.3538	1004.1801	1019.2254	1028.0879	1045.3266	1101.1527	1104.183	1150.7866	1191.4136	1205.8643	1220.8937	1255.4426	1296.281	1309.1822	1329.0498	1333.9197	1361.763	1400.8133	1418.1447	1440.4101	1472.6819	1479.4125	1485.1429	1501.7822	1509.7256	3029.4384	3032.6009	3046.3911	3064.3655	3070.5344	3088.1507	3096.1849	3109.6921	3113.1155	3145.4954	3158.3251	3819.9621
CCC1(O)CCC2OC12	CC[C@@]1(O)CC[C@H]2O[C@@H]12	
InChI=1S/C7H12O2/c1-2-7(8)4-3-5-6(7)9-5/h5-6,8H,2-4H2,1H3	InChI=1S/C7H12O2/c1-2-7(8)4-3-5-6(7)9-5/h5-6,8H,2-4H2,1H3/t5-,6-,7-/m1/s1
