16
gdb 82684	2.7971	1.62739	1.24505	4.2165	73.94	-0.2549	0.0097	0.2647	1004.0352	0.126196	-396.86554	-396.858106	-396.857162	-396.897326	28.906	
N	 0.1479535555	 1.492925152	 0.1085362434	-0.529967
C	 0.0070403697	 0.062501597	 0.0795341724	-0.018765
C	 0.185861072	-0.7372021768	 1.4004115199	-0.102646
C	-0.9684375953	-0.2272829525	 2.2769362557	-0.161299
N	-1.9542978642	-0.8756647012	 1.3416041962	-0.174277
C	-0.8741440245	-1.7660719839	 0.857229265	-0.101015
C	-1.3531329471	-0.6738613207	-0.0376094909	 0.215751
C	-2.2285696612	-0.7121731289	-1.1614544558	 0.177894
N	-2.8905953955	-0.7074467504	-2.1104957284	-0.347715
H	 0.1771945999	 1.8773594688	-0.8290735483	 0.244808
H	-0.6201479862	 1.9433277039	 0.5925611178	 0.240255
H	 0.677693965	-0.3452604065	-0.6814025608	 0.105831
H	 1.1817643307	-0.9373478837	 1.7872216357	 0.09231
H	-1.0420803519	-0.7465318077	 3.2348398657	 0.127379
H	-1.0870154304	 0.8499605125	 2.4341368914	 0.107522
H	-0.9447903866	-2.8411315517	 0.767433101	 0.123934
129.3109	158.2785	196.7932	254.3614	316.9701	450.1178	509.2814	540.5833	572.5106	629.0717	681.1253	772.0748	793.5083	830.2201	856.8278	892.5996	936.3159	962.1702	998.3042	1007.2591	1036.1499	1100.1484	1144.9216	1151.4942	1156.21	1198.8687	1219.905	1234.4828	1278.9167	1301.614	1360.5398	1437.3338	1517.2131	1666.3885	2351.2304	3050.0965	3085.1123	3116.2148	3154.3729	3221.4538	3522.9021	3600.5499
NC1C2CN3C2C13C#N	N[C@H]1[C@H]2CN3[C@H]2[C@]13C#N	
InChI=1S/C6H7N3/c7-2-6-4(8)3-1-9(6)5(3)6/h3-5H,1,8H2	InChI=1S/C6H7N3/c7-2-6-4(8)3-1-9(6)5(3)6/h3-5H,1,8H2/t3-,4+,5-,6+,9?/m1/s1
