20
gdb 63045	2.65494	1.96959	1.55007	1.4878	77.48	-0.2212	0.0687	0.2899	940.2571	0.172591	-403.089996	-403.082615	-403.08167	-403.121087	31.164	
C	-0.0596345665	 1.5182550385	 0.0472859905	-0.471078
C	 0.0508660251	-0.0051297685	 0.0175359381	 0.447732
O	-1.2461590153	-0.5491437835	-0.219635609	-0.487196
C	 1.0179124569	-0.6363951074	-1.009428338	-0.100539
C	 2.3638243088	-0.038081009	-0.57788721	-0.181935
N	 2.236209116	-0.8525891072	 0.6820666189	-0.153971
C	 1.4800950426	-1.891878634	-0.1536524611	 0.00457
C	 0.5527527	-2.1419155943	 1.0342055744	-0.234614
C	 0.8020106144	-0.6349598928	 1.2370499373	-0.078323
H	 0.8730518519	 2.0135722314	 0.3240803729	 0.126139
H	-0.388322565	 1.9017622929	-0.9235204429	 0.1253
H	-0.8071487319	 1.8137785846	 0.7943944637	 0.104632
H	-1.8436226848	-0.1989444471	 0.4499238861	 0.273163
H	 0.6693721467	-0.6898414326	-2.0415453148	 0.067914
H	 3.2156628403	-0.433972945	-1.1391944609	 0.106504
H	 2.4807437013	 1.042447034	-0.471372868	 0.096464
H	 2.0632406167	-2.6649560328	-0.656353424	 0.075378
H	-0.4676194769	-2.4800573754	 0.870001455	 0.110572
H	 1.0668190565	-2.7417132431	 1.7880726464	 0.106186
H	 0.7269195832	-0.1403967288	 2.2065364555	 0.063103
184.3911	232.5193	256.8532	289.2438	388.8804	404.4563	458.8788	475.5454	533.5142	592.1493	736.6354	744.543	753.8085	810.6401	853.3463	887.6475	930.5159	945.6582	959.7837	960.7291	1000.3554	1011.3735	1036.7026	1047.3977	1086.8848	1117.1629	1142.9666	1166.728	1178.1038	1192.4409	1208.7596	1213.0013	1244.777	1257.8073	1282.2969	1295.0212	1310.647	1384.2048	1414.0839	1472.553	1487.2083	1494.909	1526.6415	3027.3403	3056.0898	3084.8627	3090.5959	3101.1337	3104.6877	3107.3765	3113.0488	3130.8915	3167.4754	3803.3987
CC1(O)C2CN3C2CC13	C[C@@]1(O)[C@H]2CN3[C@H]2C[C@H]13	
InChI=1S/C7H11NO/c1-7(9)4-3-8-5(4)2-6(7)8/h4-6,9H,2-3H2,1H3	InChI=1S/C7H11NO/c1-7(9)4-3-8-5(4)2-6(7)8/h4-6,9H,2-3H2,1H3/t4-,5-,6+,7+/m0/s1
