18
gdb 18385	2.80679	2.47035	1.57226	1.6449	72.52	-0.2386	0.0281	0.2667	855.7426	0.15604	-347.79597	-347.789027	-347.788083	-347.827135	27.126	
C	-0.0268430546	 1.3452169887	 0.4032181706	-0.243548
C	 1.1632480761	 2.2545624442	 0.072601844	-0.245564
C	 2.515941012	 1.693979109	 0.4588323666	 0.051985
O	 2.5492980564	 0.6426350807	 1.4359009283	-0.254842
C	 3.0095343145	 0.3568464503	 0.1095842313	 0.075124
C	 2.3099470958	-0.6933239944	-0.721611494	-0.295549
C	 0.8102947182	-0.7417808073	-0.8406693424	-0.039207
C	-0.1440309819	 0.0721191313	-0.3916366399	-0.053087
H	 0.0116117006	 1.0996301333	 1.472495607	 0.131057
H	-0.9444958464	 1.9263366107	 0.2586437922	 0.094477
H	 1.1701517797	 2.4984739686	-0.997526849	 0.107338
H	 1.026975832	 3.2047944579	 0.6036995682	 0.102432
H	 3.2810734573	 2.4566954897	 0.6212551149	 0.083982
H	 4.0965706053	 0.2510642462	 0.0546274465	 0.084164
H	 2.7411321641	-0.6327213112	-1.7337496527	 0.114766
H	 2.643009549	-1.6740622979	-0.3485259423	 0.121032
H	 0.4773295324	-1.6211824249	-1.3910105598	 0.083875
H	-1.1682311204	-0.2287860849	-0.6055277395	 0.081565
76.8693	199.9629	277.4947	307.6567	381.4006	413.3314	513.5651	618.6779	688.3081	726.6908	766.1152	830.0553	847.0471	894.775	902.1747	952.6179	999.1062	1014.2423	1031.1725	1073.5818	1088.9275	1131.0037	1152.4356	1220.214	1259.3052	1266.257	1292.7241	1313.6936	1375.1283	1383.1617	1402.9768	1416.5049	1440.8344	1459.6919	1467.7582	1482.2448	1511.1509	1747.9287	2986.5407	3004.7041	3020.4251	3025.6574	3055.5864	3062.3523	3064.5167	3082.6985	3118.9549	3145.5436
C1CC2OC2CC=C1	C1C[C@H]2O[C@H]2CC=C1	
InChI=1S/C7H10O/c1-2-4-6-7(8-6)5-3-1/h1-2,6-7H,3-5H2	InChI=1S/C7H10O/c1-2-4-6-7(8-6)5-3-1/h1-2,6-7H,3-5H2/t6-,7+/m0/s1
