21
gdb 103089	2.20919	1.22801	1.00634	2.1122	86.25	-0.2349	0.0522	0.2871	1305.2891	0.179001	-387.0466	-387.035854	-387.03491	-387.081892	39.447	
C	-0.1287150963	 1.5146301885	-0.1063173003	-0.420971
C	 0.0261210024	 0.0205064551	 0.0658006186	-0.069184
C	 1.3822846487	-0.6723015272	-0.0897831555	-0.263403
C	 2.5699917031	 0.0834048515	-0.3508815611	 0.335878
C	 3.568287962	 0.7140319296	-0.5857982924	-0.455579
C	 0.6783051695	-0.6098496927	 1.2706187094	 0.311705
C	 1.2591089666	 0.238528858	 2.3842965722	-0.467259
C	 0.0804806246	-1.9167868553	 1.7448817163	-0.134269
O	 1.1072907869	-2.7009370179	 2.3364388211	-0.419616
H	 0.7693568426	 2.0574186931	 0.1943804003	 0.133835
H	-0.3207127863	 1.7586061757	-1.156378782	 0.121725
H	-0.9711152568	 1.8913545971	 0.4840361563	 0.115296
H	-0.7981333332	-0.5513327835	-0.355718111	 0.082334
H	 1.3635131395	-1.6451156619	-0.5735405628	 0.109931
H	 4.4554360778	 1.2610465497	-0.787147424	 0.190708
H	 1.8377801563	 1.0805620142	 2.0024469315	 0.129177
H	 0.4622448761	 0.6305894487	 3.0274962826	 0.10692
H	 1.921796606	-0.3733051058	 3.0018134555	 0.139706
H	-0.7220314207	-1.7045257529	 2.4707359459	 0.084927
H	-0.3785875878	-2.4458233709	 0.8943403185	 0.080442
H	 0.6985334791	-3.4574852033	 2.7665829507	 0.287699
85.6118	122.8585	140.8877	150.2617	167.8364	183.2602	238.6461	253.2072	307.0416	350.2459	358.8661	402.5967	535.1654	540.0654	574.2064	601.703	647.398	707.1143	793.1016	837.4008	948.5753	967.0477	976.0554	1026.8498	1040.7762	1066.5392	1103.1563	1133.6024	1141.2084	1158.3825	1230.174	1248.0573	1269.1667	1352.1395	1360.5845	1407.698	1419.8879	1440.7716	1459.9362	1482.8579	1493.4046	1497.7285	1515.1533	1515.9418	2229.8752	2956.8749	2987.6976	3034.4167	3038.2696	3094.2588	3106.4709	3118.0534	3133.2855	3139.5286	3142.7729	3505.2221	3832.6325
CC1C(C#C)C1(C)CO	C[C@H]1[C@@H](C#C)[C@]1(C)CO	
InChI=1S/C8H12O/c1-4-7-6(2)8(7,3)5-9/h1,6-7,9H,5H2,2-3H3	InChI=1S/C8H12O/c1-4-7-6(2)8(7,3)5-9/h1,6-7,9H,5H2,2-3H3/t6-,7+,8+/m0/s1
