17
gdb 21095	3.36809	2.01212	1.29012	4.6508	71.49	-0.2329	0.0096	0.2424	952.6668	0.141777	-360.062636	-360.053924	-360.05298	-360.096522	29.823	
C	 0.0128300401	 1.4423350547	-0.0122176236	-0.333404
N	 0.0040316937	-0.0014513363	 0.0738308377	 0.014659
N	-0.0537949985	-0.7425512052	-1.05284693	-0.163511
N	-0.0515158083	-1.9937965707	-0.6937685379	-0.254057
C	 0.0077313365	-2.0772340975	 0.6660243761	 0.230117
C	 0.0290289782	-3.393803015	 1.3736586193	-0.499506
C	 0.0436782698	-0.794274566	 1.1779521982	 0.236165
C	 0.1098948746	-0.2699331069	 2.571940918	-0.506111
H	 0.9269905308	 1.8548958643	 0.4256131277	 0.14233
H	-0.0313027223	 1.7012505236	-1.0699350477	 0.170388
H	-0.8523336832	 1.8704334131	 0.5034066839	 0.1424
H	 0.9907405496	-3.583297965	 1.864218043	 0.127467
H	-0.749430157	-3.4605216598	 2.1414336575	 0.124099
H	-0.1398783818	-4.1917914605	 0.6475350696	 0.14843
H	 1.0227244825	 0.3109601863	 2.7505522936	 0.138465
H	-0.7414351692	 0.3793699575	 2.8083339174	 0.137529
H	 0.1018864345	-1.0990648665	 3.2827018571	 0.144542
47.1504	105.3945	111.4088	152.9136	239.1342	263.1519	271.744	317.7067	480.8167	592.0903	669.7023	705.9266	721.9185	786.1618	969.3961	1007.3607	1038.0999	1055.1779	1073.8165	1148.4098	1150.7248	1229.368	1276.6154	1314.1567	1375.5042	1419.9621	1421.2223	1444.4919	1476.6159	1478.5609	1485.883	1487.7998	1492.7172	1501.6269	1525.8374	1617.751	3025.2406	3031.6307	3041.8584	3073.0343	3081.674	3102.4683	3126.7207	3131.2629	3162.5881
CN1N=NC(C)=C1C	Cn1nnc(C)c1C	
InChI=1S/C5H9N3/c1-4-5(2)8(3)7-6-4/h1-3H3	InChI=1S/C5H9N3/c1-4-5(2)8(3)7-6-4/h1-3H3
