21
gdb 77913	2.12524	1.40268	1.38097	3.1955	83.5	-0.2287	0.0173	0.246	1145.7115	0.180563	-387.06054	-387.050663	-387.049719	-387.095318	36.125	
C	 0.3965384469	 1.4174534007	-1.2144491256	-0.449632
C	 0.3626275772	-0.076014487	-0.8908227155	 0.007564
C	 1.6031556725	-1.0481126565	-0.9855701403	-0.219885
C	 2.1136964989	-0.5272197263	 0.4067868973	 0.008999
C	 2.9323976009	 0.7599644178	 0.5392583068	-0.450813
C	 0.5362176121	-0.6073495124	 0.590170983	 0.152792
C	-0.276343677	-0.2687899604	 1.8059908867	-0.522346
C	 0.7202053233	-1.9585590745	-0.119601971	 0.42171
O	 0.3642492981	-3.0945285767	-0.034260586	-0.335196
H	 0.7701667985	 1.5894351012	-2.2298013917	 0.123136
H	-0.6253347862	 1.8095960671	-1.1773637861	 0.121553
H	 0.9917037023	 2.0153679744	-0.5270277931	 0.126984
H	-0.5165170465	-0.5002439489	-1.3902047155	 0.086101
H	 2.19474972	-1.2946418403	-1.8652744163	 0.084705
H	 2.6168481958	-1.3050939886	 0.9923622429	 0.086439
H	 2.6391561432	 1.3299869256	 1.4281019001	 0.121796
H	 3.9884734122	 0.4988255863	 0.6597990853	 0.121522
H	 2.8665367563	 1.4183243431	-0.3255163237	 0.130288
H	-0.1981242214	 0.7944350735	 2.0593461941	 0.121846
H	-1.33467434	-0.4986431206	 1.6439636275	 0.131316
H	 0.0604943429	-0.8466287275	 2.673112651	 0.13112
63.9132	112.2996	141.6791	149.5445	178.4002	180.033	256.4896	325.8887	342.8735	368.0033	550.3001	556.7271	614.3678	725.5867	740.5366	750.7034	760.1428	782.59	844.0451	990.5468	1019.5499	1030.022	1047.4411	1071.5865	1085.2587	1105.5727	1121.1426	1133.3816	1183.0914	1193.8283	1230.6132	1244.1557	1345.2843	1401.2786	1411.699	1417.077	1422.0843	1459.8397	1485.4356	1487.7842	1494.3958	1495.9576	1500.183	1526.7711	1907.9451	3025.6917	3028.1092	3029.9636	3041.3978	3043.2072	3092.3352	3093.0618	3094.576	3101.2719	3138.5394	3145.1492	3168.79
CC1C2C(C)C1(C)C2=O	C[C@H]1[C@H]2[C@@H](C)[C@]1(C)C2=O	
InChI=1S/C8H12O/c1-4-6-5(2)8(4,3)7(6)9/h4-6H,1-3H3	InChI=1S/C8H12O/c1-4-6-5(2)8(4,3)7(6)9/h4-6H,1-3H3/t4-,5+,6-,8+
