18
gdb 67127	2.47175	1.8635	1.65224	3.785	75.54	-0.2269	-0.0255	0.2014	933.5712	0.148256	-401.87059	-401.863212	-401.862267	-401.901974	29.584	
C	 0.0811505044	 1.558896174	-0.0289039028	-0.509232
C	 0.0415287825	 0.0603945637	-0.0113366013	 0.158416
C	 0.8361241623	-0.9523661559	-0.8039920383	-0.102168
C	 1.8833140742	-1.7506182439	 0.0072282839	-0.232712
C	 1.8744350428	-1.2471051729	 1.4944889213	-0.173988
N	 0.4905003936	-1.50967106	 1.9287701313	-0.219511
C	-0.2818097004	-0.9093041318	 1.1378958839	 0.263039
O	-1.3224847241	-1.5547200881	 0.4569437286	-0.268386
C	-0.7375380326	-0.9610273789	-0.7445001597	 0.031367
H	 0.9103058658	 1.9459946888	 0.572384113	 0.132565
H	 0.2161274667	 1.9221149805	-1.0529223057	 0.126387
H	-0.8470688918	 1.987740177	 0.3624967422	 0.135255
H	 1.1744336992	-0.6074651622	-1.7810838127	 0.093806
H	 1.6756618917	-2.8246459555	 0.0072969995	 0.129079
H	 2.8714569046	-1.6074892427	-0.4460163963	 0.100035
H	 2.5638778768	-1.8169844404	 2.1204588181	 0.111939
H	 2.1749332412	-0.1907753849	 1.5277909935	 0.105293
H	-1.3750075666	-0.9182857165	-1.6187957684	 0.118816
171.4184	186.7045	201.7083	256.8535	332.2914	426.5395	511.3126	520.6509	558.6106	649.1663	683.1287	741.5455	813.6822	834.2609	875.4344	897.2048	920.8722	935.6218	978.7726	1012.4611	1038.9478	1049.1387	1058.7216	1109.6109	1143.0465	1183.373	1207.6478	1234.179	1241.0073	1300.7152	1318.7803	1334.4668	1413.2719	1456.8927	1481.1046	1485.4713	1495.7633	1501.0731	1720.7284	3008.622	3031.9087	3038.7821	3090.7887	3097.9768	3102.5525	3108.0246	3114.8349	3201.0671
CC12C3CCN=C1OC23	C[C@@]12[C@H]3CC[N][C]1O[C@@H]23	
InChI=1S/C7H9NO/c1-7-4-2-3-8-6(7)9-5(4)7/h4-5H,2-3H2,1H3	InChI=1S/C7H9NO/c1-7-4-2-3-8-6(7)9-5(4)7/h4-5H,2-3H2,1H3/t4-,5+,7-/m0/s1
