18
gdb 64534	4.08248	1.23557	1.09631	3.3812	76.41	-0.2311	-0.0284	0.2028	1119.8604	0.146623	-401.858147	-401.850219	-401.849275	-401.890394	31.143	
C	-0.0760184202	 1.6635319316	-0.0225516684	-0.52591
C	 0.032063502	 0.1502288234	-0.0640155211	 0.205722
C	-1.0869126321	-0.5464064707	 0.6879769971	 0.163931
O	-2.0606592063	 0.0022100907	 1.1328997048	-0.271669
C	 0.5281161498	-0.7560389713	-1.1451867986	-0.076349
C	 1.7973095035	-0.3633151632	-1.9219724077	-0.086439
C	 2.4374433299	 0.9209345413	-1.468808944	-0.305147
C	 2.4813272852	-0.2839649848	-0.5747803164	-0.000856
N	 1.2365341847	-0.7236249697	 0.1733274257	-0.19269
H	-0.1160705994	 2.1102311192	-1.017469605	 0.135646
H	-1.0083766761	 1.907013612	 0.4934636835	 0.153088
H	 0.7476881885	 2.113316649	 0.5365767931	 0.139452
H	-0.9240348512	-1.6385519494	 0.8002752875	 0.097051
H	-0.0346319624	-1.6399618003	-1.4388653452	 0.099596
H	 2.0998032317	-0.8913975529	-2.8157799982	 0.105152
H	 3.3967048217	 1.0912698586	-1.951361134	 0.121816
H	 1.8977344967	 1.8291725494	-1.25833065	 0.124469
H	 3.405819094	-0.7243532229	-0.2252679531	 0.113136
96.7644	137.7213	230.205	287.2297	326.408	340.3948	370.4933	475.5008	480.6389	629.1481	690.1711	709.1658	741.9764	772.3361	852.4602	871.1543	893.0798	957.6221	997.4434	1001.3595	1023.9421	1033.5846	1057.8375	1076.1421	1079.1916	1089.9547	1103.7411	1174.6267	1208.4814	1269.1956	1306.7918	1332.8965	1387.3059	1406.5797	1427.5756	1484.913	1507.5264	1519.74	1831.7902	2921.641	3053.2955	3122.4374	3124.5091	3132.12	3142.4734	3196.6381	3210.0472	3273.7168
CC1(C=O)C2C3CC3N12	C[C@@]1(C=O)[C@H]2[C@H]3C[C@H]3N12	
InChI=1S/C7H9NO/c1-7(3-9)6-4-2-5(4)8(6)7/h3-6H,2H2,1H3	InChI=1S/C7H9NO/c1-7(3-9)6-4-2-5(4)8(6)7/h3-6H,2H2,1H3/t4-,5+,6+,7+,8?/m0/s1
