21
gdb 96436	2.58477	1.23181	0.98671	3.7617	78.47	-0.2367	-0.0176	0.2191	1261.8983	0.183298	-424.25523	-424.246202	-424.245258	-424.289383	34.145	
O	 0.1474305753	 1.3991947943	-0.1874760613	-0.44014
C	 0.0829687805	-0.0151780376	-0.0094398061	 0.1123
C	 0.7946838474	-0.4662090089	 1.2742552215	-0.222116
C	 0.0351992261	-0.0323246116	 2.5383589804	-0.206742
C	-1.4219366571	-0.5147623874	 2.5114750912	-0.195902
C	-2.1432381283	-0.0690455887	 1.2302911597	-0.222672
C	-1.3783284282	-0.532049366	-0.0311732456	-0.070894
C	-2.1110560899	-0.0806077854	-1.2785066757	 0.137272
O	-2.762253683	-0.8106090261	-1.9837146255	-0.258468
H	-0.109975453	 1.8231174865	 0.6370787345	 0.283422
H	 0.6133886743	-0.4214731476	-0.877528278	 0.092212
H	 0.8809881261	-1.5601160924	 1.2604021189	 0.102321
H	 1.8124444963	-0.0621203571	 1.27304592	 0.105926
H	 0.5479863499	-0.4110618745	 3.4284839991	 0.103686
H	 0.0557403495	 1.0638051681	 2.6333630088	 0.088149
H	-1.4396737099	-1.6113261954	 2.5673538788	 0.103242
H	-1.9619457653	-0.1480881085	 3.3912692992	 0.099037
H	-3.1627025444	-0.4672193362	 1.205738077	 0.115067
H	-2.2409634338	 1.0258333305	 1.2198290194	 0.094291
H	-1.363190167	-1.6282124694	-0.050809352	 0.089847
H	-2.0201353453	 1.0045597533	-1.4980025743	 0.090161
42.5837	114.5709	176.3925	232.9284	258.5218	286.7905	314.7132	357.2904	389.9658	448.744	508.2383	567.7467	672.722	790.4021	822.7321	853.2775	864.3057	906.6039	955.8331	989.9027	1001.4168	1037.4634	1075.9847	1081.7326	1090.3981	1140.6248	1155.8751	1208.3405	1233.1762	1252.6131	1290.9238	1313.8203	1336.3392	1339.9642	1367.6285	1376.2379	1380.4309	1391.7027	1422.3892	1429.8171	1475.5521	1489.5307	1494.7183	1506.4763	1824.3125	2910.2857	2996.0612	3010.7316	3022.4282	3027.9855	3044.7466	3055.1795	3068.8548	3070.1449	3075.6866	3079.4367	3825.153
OC1CCCCC1C=O	O[C@H]1CCCC[C@H]1C=O	
InChI=1S/C7H12O2/c8-5-6-3-1-2-4-7(6)9/h5-7,9H,1-4H2	InChI=1S/C7H12O2/c8-5-6-3-1-2-4-7(6)9/h5-7,9H,1-4H2/t6-,7-/m0/s1
