21
gdb 103439	2.14986	1.51721	1.44836	2.0598	78.05	-0.2446	0.0824	0.327	1100.8812	0.179528	-424.18081	-424.171095	-424.170151	-424.215123	36.105	
C	 0.2287874771	-1.294563087	 1.1570940731	-0.252081
O	-0.0800921533	-0.4686267119	 0.0551557907	-0.27451
C	 0.6284655589	-0.7432490174	-1.1314158702	 0.388849
C	 2.0181948204	-0.1116936316	-1.1207778632	-0.4557
C	 0.6412977667	-2.2124736118	-1.6186945732	-0.057664
O	-0.7141705973	-2.635495834	-1.7843003024	-0.245055
C	-0.1186590173	-1.854328883	-2.8264031719	 0.030856
C	-0.2224293466	-0.3767901419	-2.4184440467	-0.085747
C	-1.6166134657	 0.1976380954	-2.2221109778	-0.398583
H	 0.0182865673	-2.3513585208	 0.9429126354	 0.123262
H	 1.2776115802	-1.2016292869	 1.475787619	 0.100918
H	-0.4105652513	-0.970670149	 1.9817863781	 0.127826
H	 2.6292819225	-0.5075767546	-0.3026751357	 0.117346
H	 2.5487014594	-0.3109486099	-2.0572705408	 0.117615
H	 1.9347049568	 0.9714424967	-0.9919690058	 0.128289
H	 1.3915798699	-2.9799471296	-1.4598599356	 0.098644
H	-0.0918742747	-2.2936322317	-3.8172495685	 0.101121
H	 0.3755471889	 0.2544242648	-3.0841755284	 0.071656
H	-2.2177177992	-0.4698147787	-1.6025631022	 0.139214
H	-1.57213439	 1.1713013815	-1.7257330416	 0.119424
H	-2.1177068626	 0.3298550813	-3.1873853123	 0.104322
62.0383	123.7068	175.7559	192.4146	207.2237	230.4463	258.3578	286.3998	317.6391	354.3762	490.0009	550.3428	581.9045	673.8831	757.0576	839.3105	861.9001	873.5602	881.1476	921.3968	988.8534	1013.8492	1046.4476	1063.395	1104.738	1125.5756	1158.8393	1167.053	1178.7924	1198.6168	1232.9691	1242.7719	1261.9075	1293.8614	1363.885	1380.6437	1399.9865	1408.6857	1477.0636	1483.4943	1486.7518	1493.3598	1498.3421	1499.0645	1506.1529	2987.5235	3034.2501	3039.3341	3042.8473	3055.7905	3101.5867	3104.1859	3114.2342	3115.2586	3141.7811	3167.0826	3185.9498
COC1(C)C2OC2C1C	CO[C@@]1(C)[C@H]2O[C@H]2[C@H]1C	
InChI=1S/C7H12O2/c1-4-5-6(9-5)7(4,2)8-3/h4-6H,1-3H3	InChI=1S/C7H12O2/c1-4-5-6(9-5)7(4,2)8-3/h4-6H,1-3H3/t4-,5+,6+,7-/m1/s1
