18
gdb 60803	2.89018	1.10368	0.84025	1.5773	69.8	-0.2467	-0.0519	0.1947	1323.052	0.145658	-476.267235	-476.257487	-476.256543	-476.302555	35.374	
C	-0.0226386336	 1.6920173298	 0.6816968128	-0.409081
C	-0.0836103787	 0.2649477632	 0.124627451	-0.12028
C	 0.6989979814	-0.7613286454	 0.9994045244	 0.024444
O	 0.747645842	-2.040746473	 0.4097418222	-0.434474
C	 2.1243779435	-0.2989304953	 1.253801912	 0.141009
O	 3.0660167309	-0.9455203215	 0.8585394436	-0.264658
C	-1.5621519876	-0.1622781422	-0.0509217967	 0.383202
N	-1.7447450683	-1.3908288736	-0.6065018045	-0.51764
O	-2.480969058	 0.578569529	 0.2446346496	-0.358743
H	 0.971159408	 2.1313845534	 0.5612110267	 0.108827
H	-0.7478189633	 2.3172671469	 0.1605963684	 0.1519
H	-0.2895283974	 1.7179517638	 1.7431483242	 0.126763
H	 0.3813608152	 0.2332868986	-0.8693359683	 0.108745
H	 0.1989584201	-0.8238734107	 1.9807176181	 0.11222
H	 1.6888053248	-2.2050125064	 0.2273627626	 0.299107
H	 2.2618985442	 0.6408881362	 1.8165935996	 0.119618
H	-0.9754918165	-2.0449879407	-0.6133610696	 0.273965
H	-2.6900116068	-1.7392390322	-0.6332274862	 0.255075
45.5257	67.4088	109.6497	184.5804	229.9382	286.3154	329.	357.2499	370.7475	379.9427	476.4957	513.0799	514.0871	600.4796	622.6216	713.0594	776.9974	808.6225	840.3829	930.2211	982.4856	1066.7582	1088.13	1120.1875	1148.4437	1164.3739	1248.0993	1276.2641	1300.8712	1345.2993	1371.4404	1396.2801	1416.7633	1441.5435	1492.9908	1497.4166	1621.0124	1794.0047	1803.7977	2969.8727	2988.7082	3031.4366	3049.2012	3112.9832	3149.7996	3555.3774	3649.0043	3697.3833
CC(C(O)C=O)C(N)=O	C[C@@H]([C@@H](O)C=O)C(=O)N	
InChI=1S/C5H9NO3/c1-3(5(6)9)4(8)2-7/h2-4,8H,1H3,(H2,6,9)	InChI=1S/C5H9NO3/c1-3(5(6)9)4(8)2-7/h2-4,8H,1H3,(H2,6,9)/t3-,4-/m0/s1
