17
gdb 97368	2.50007	1.50022	1.09223	1.7409	64.93	-0.2525	0.0061	0.2586	1106.5378	0.137492	-492.305997	-492.297435	-492.296491	-492.339773	32.029	
N	 0.0860874957	 0.356192263	-0.9257394366	-0.495063
C	-0.2143136751	-0.8540562209	-0.2553930188	 0.153341
N	-1.148259386	-0.6781772021	 0.7915844056	-0.266423
H	-1.9445435063	-0.1227235146	 0.4921906537	 0.235472
C	-1.5927698978	-1.9535886334	 1.3416290976	-0.194995
C	-2.3292006394	-2.7860033016	 0.300205941	 0.00709
O	-3.6521601435	-2.271768066	 0.1924323438	-0.442732
C	-1.6923636766	-2.7043148811	-1.0974905353	 0.37686
O	-0.6693401032	-1.8715257507	-1.3021220789	-0.269544
O	-2.1601579832	-3.3525112445	-2.0035736452	-0.354073
H	 0.7793265809	 0.1920548393	-1.6471002294	 0.252594
H	-0.7410611624	 0.7294691469	-1.3831087266	 0.238752
H	 0.7037606678	-1.3049365176	 0.1324226592	 0.118458
H	-0.7120151129	-2.4978957802	 1.701636992	 0.117173
H	-2.2491353662	-1.7762967812	 2.1971003413	 0.129818
H	-2.3441933192	-3.8482020602	 0.5857902091	 0.095156
H	-4.0331401628	-2.6715510454	-0.5999824625	 0.298117
45.9584	82.3221	224.7143	252.0775	272.5602	341.8114	366.4665	421.6789	469.9707	486.1692	530.6362	603.1994	656.652	691.2623	768.2414	842.268	867.5982	895.3856	911.1745	985.0069	1031.0836	1105.8936	1125.0823	1193.579	1223.8607	1244.4884	1270.5299	1336.8263	1354.3955	1377.1372	1391.6931	1424.7436	1447.3143	1479.8145	1515.4393	1672.9675	1806.2903	2996.2124	3048.6302	3078.7071	3108.469	3508.8416	3521.5678	3595.3211	3778.0151
NC=[NH+]CC(O)C([O-])=O	N[C@H]1NC[C@@H](O)C(=O)O1	
InChI=1S/C4H8N2O3/c5-2-6-1-3(7)4(8)9/h2-3,7H,1H2,(H2,5,6)(H,8,9)	InChI=1S/C4H8N2O3/c5-4-6-1-2(7)3(8)9-4/h2,4,6-7H,1,5H2/t2-,4+/m1/s1
