19
gdb 78525	2.32629	1.57028	1.24649	1.8366	75.95	-0.2018	0.0738	0.2756	1090.5335	0.157035	-422.942059	-422.933248	-422.932303	-422.974693	34.862	
C	-0.0156754523	 1.497811616	 0.0345568951	-0.488349
C	-0.0095749905	-0.0021384953	-0.0589629313	 0.306769
C	-0.8592853627	-0.8798599817	 0.795352062	 0.032364
O	-1.8062244511	-1.7952667888	 0.3110987389	-0.41901
C	 0.6356779623	-1.0519529079	 0.891510439	-0.261782
C	 1.3546582761	-1.6765718077	-0.3391163245	 0.394089
O	 2.7044019064	-1.9758640097	-0.2712898954	-0.456303
C	 0.4511328186	-2.1824821672	-1.428023509	-0.372961
C	 0.7008645844	-0.6897540231	-1.2632144193	-0.168664
H	 0.9836905106	 1.9096193654	-0.1473903546	 0.122939
H	-0.6935775348	 1.934600661	-0.7097571151	 0.123492
H	-0.3425929589	 1.8340047248	 1.0235122238	 0.11563
H	-1.2284435636	-0.3242045293	 1.6632548235	 0.086748
H	-1.8791326601	-2.5058251261	 0.9582854053	 0.283181
H	 1.1763340865	-0.8710788724	 1.8142051491	 0.085923
H	 2.793492097	-2.8912417976	 0.0184724034	 0.282746
H	 1.0134515239	-2.592865749	-2.2632578141	 0.106507
H	-0.5163463413	-2.6266791914	-1.2455596954	 0.132749
H	 1.1536545594	-0.1019756998	-2.0510820513	 0.093932
134.1532	196.2043	213.7242	258.9708	273.1381	285.908	304.3364	351.3004	380.6943	431.5994	508.7735	587.0817	596.0624	642.0376	749.224	803.9722	856.7016	877.0185	913.9947	938.1984	958.8633	989.8579	1013.1411	1025.2145	1085.7657	1086.0181	1099.4854	1157.6877	1173.1589	1201.6861	1255.4808	1277.2543	1289.6087	1325.1905	1352.4046	1405.8934	1414.2228	1480.5377	1486.1474	1488.3442	1502.4912	3017.4881	3047.105	3075.6789	3099.576	3129.024	3171.8591	3198.0424	3248.999	3777.1861	3794.0897
CC12C(O)C1C1(O)CC21	C[C@]12[C@@H](O)[C@H]1[C@@]1(O)C[C@@H]21	
InChI=1S/C7H10O2/c1-6-3-2-7(3,9)4(6)5(6)8/h3-5,8-9H,2H2,1H3	InChI=1S/C7H10O2/c1-6-3-2-7(3,9)4(6)5(6)8/h3-5,8-9H,2H2,1H3/t3-,4+,5-,6+,7+/m0/s1
