18
gdb 31818	4.6624	1.00057	0.87755	1.6137	84.99	-0.2162	-0.0339	0.1823	1348.8716	0.149586	-398.195159	-398.186701	-398.185757	-398.22865	31.913	
C	 0.0410795727	 1.5299878989	-0.2013157188	-0.368044
C	-0.0131195436	 0.018369697	 0.0709231021	-0.270918
C	-1.4174923064	-0.5283798007	 0.0320957835	 0.299751
N	-2.2702914098	-0.1309477963	 0.9941073525	-0.281901
C	-3.5074458337	-0.5931792288	 0.9538934135	-0.073299
C	-3.9425476516	-1.480473835	-0.0524109628	 0.360452
N	-5.2495337005	-1.9179510184	-0.1213354352	-0.568193
N	-3.1027063116	-1.8902772713	-1.0043402105	-0.311155
C	-1.8588203944	-1.4076829807	-0.9532521758	-0.072391
H	 1.0650740215	 1.9066212769	-0.1168554535	 0.109668
H	-0.3251519408	 1.762603571	-1.2066604785	 0.114333
H	-0.5846250815	 2.0656869145	 0.517800769	 0.135556
H	 0.6042421893	-0.5170104315	-0.6590341086	 0.098544
H	 0.4152112404	-0.1829839584	 1.0599701612	 0.113701
H	-4.1909578554	-0.2649886622	 1.7354151549	 0.098463
H	-5.7684884122	-1.9448823768	 0.7421769753	 0.254062
H	-5.381539212	-2.7257676713	-0.7118296377	 0.257001
H	-1.1801652004	-1.746034017	-1.7334567607	 0.104369
47.5188	97.9953	206.7626	225.5592	318.651	371.717	404.8795	418.1059	435.2433	509.8822	529.2253	610.1626	659.8736	750.7655	786.9004	817.0139	886.5181	914.6011	961.6907	980.3226	1040.0335	1055.8503	1084.5685	1099.244	1248.7291	1257.1764	1290.2165	1332.1565	1354.515	1363.1535	1402.9459	1421.8064	1479.7572	1495.7354	1507.9119	1524.4778	1582.0877	1622.7259	1644.4835	3032.2749	3037.2914	3071.0195	3106.3226	3121.4443	3133.9153	3149.2348	3577.1356	3691.1676
CCC1=NC=C(N)N=C1	CCc1ncc(N)nc1	
InChI=1S/C6H9N3/c1-2-5-3-9-6(7)4-8-5/h3-4H,2H2,1H3,(H2,7,9)	InChI=1S/C6H9N3/c1-2-5-3-9-6(7)4-8-5/h3-4H,2H2,1H3,(H2,7,9)
