18
gdb 102038	2.54749	1.08728	0.86833	3.2057	71.32	-0.2409	-0.0314	0.2095	1379.9139	0.144446	-476.248011	-476.237494	-476.23655	-476.284623	35.285	
C	-0.7573390851	 1.4582831584	 0.6402847332	-0.336156
N	-1.03654199	 0.0407984453	 0.531635534	-0.299036
C	-0.4641180764	-0.7463817977	-0.4030443067	 0.3617
O	 0.3339993854	-0.3863634606	-1.2521079533	-0.390154
C	-0.9127271083	-2.2206658062	-0.3560027232	-0.065321
O	-1.8259749079	-2.4418705725	 0.6821242222	-0.252017
C	-1.9726609183	-3.7986800529	 1.0760737578	-0.248437
C	-1.4546272875	-2.5991137678	-1.7396143672	 0.145313
O	-2.4876834747	-3.1908189865	-1.9076670397	-0.243902
H	-0.0465651504	 1.7161322078	-0.1458435379	 0.170486
H	-1.6686235495	 2.0514674291	 0.5081892934	 0.131977
H	-0.3186968449	 1.7026056928	 1.6138731141	 0.129929
H	-1.6760286683	-0.4108022239	 1.1672305625	 0.267538
H	 0.0163872028	-2.8022892542	-0.215549271	 0.118092
H	-2.6462808163	-3.8040909626	 1.9354838047	 0.132749
H	-2.4041725748	-4.4018054439	 0.2725060204	 0.14712
H	-1.0051383917	-4.2253813096	 1.3796296746	 0.109909
H	-0.800457684	-2.274332405	-2.5730671279	 0.120212
47.4669	86.4385	98.3199	122.906	151.4934	165.9738	186.1451	240.4613	304.2868	315.5736	375.9631	458.1006	566.0268	619.5075	727.5899	763.7573	811.6982	910.2561	1026.0404	1052.6111	1104.4168	1152.3229	1159.8522	1177.7391	1182.3909	1226.9988	1251.936	1261.9747	1341.088	1390.5138	1441.3053	1479.659	1483.1824	1496.1186	1498.8134	1514.3913	1573.9318	1779.4087	1834.0366	2942.8647	2957.8622	2997.286	3031.5466	3085.1338	3091.8571	3134.0517	3152.2403	3630.84
CNC(=O)C(OC)C=O	CNC(=O)[C@@H](OC)C=O	
InChI=1S/C5H9NO3/c1-6-5(8)4(3-7)9-2/h3-4H,1-2H3,(H,6,8)	InChI=1S/C5H9NO3/c1-6-5(8)4(3-7)9-2/h3-4H,1-2H3,(H,6,8)/t4-/m0/s1
