16
gdb 20042	5.47585	1.53571	1.28737	1.5647	67.16	-0.2281	0.0415	0.2696	949.3762	0.13249	-379.908376	-379.9012	-379.900256	-379.940649	25.546	
C	-0.1657835501	 1.2341961507	-0.1892817174	-0.22794
C	 1.139673545	 0.5105210556	-0.1311057072	-0.211524
N	 0.0123723562	 0.0607297441	 0.665978524	-0.133914
C	-0.607972916	-1.1290865384	 0.3381092653	 0.461172
N	-0.0476490118	-2.1908625179	-0.0869349592	-0.336095
C	-1.1045153245	-3.2058637929	-0.1556784862	-0.178865
C	-2.4081335393	-2.4446382046	 0.2117497115	-0.106144
O	-1.948260766	-1.1261780138	 0.5759959754	-0.256272
H	-0.3016594428	 2.1732057953	 0.3377620493	 0.129138
H	-0.7671315894	 1.1149000703	-1.0862993709	 0.131323
H	 1.4174222131	-0.1080152155	-0.9789729107	 0.144483
H	 1.9659616093	 0.9275036012	 0.4359615799	 0.12661
H	-1.1497581035	-3.6457118487	-1.1576306691	 0.111099
H	-0.8914053088	-4.0220129465	 0.5449219565	 0.113041
H	-3.103747518	-2.3464108334	-0.627791273	 0.113941
H	-2.9431165935	-2.8691613857	 1.065116222	 0.119948
67.9513	85.4257	153.7771	212.0692	319.5153	503.3312	577.5997	741.3066	751.3309	815.157	838.104	885.9936	932.7096	935.9749	974.793	1030.4047	1038.089	1064.235	1122.2179	1125.66	1136.249	1171.6927	1182.1114	1219.8452	1224.5962	1243.6764	1320.107	1367.8735	1430.4695	1494.7604	1508.0049	1521.023	1529.6456	1724.2589	3029.2886	3047.4837	3061.2588	3100.6887	3117.9602	3125.4179	3204.6787	3219.7508
C1CN1C1=NCCO1	C1CN1C1=NCCO1	
InChI=1S/C5H8N2O/c1-4-8-5(6-1)7-2-3-7/h1-4H2	InChI=1S/C5H8N2O/c1-4-8-5(6-1)7-2-3-7/h1-4H2
