19
gdb 65928	2.80085	1.36004	1.14675	2.0536	70.42	-0.25	0.062	0.312	1127.6613	0.158355	-460.11104	-460.102249	-460.101305	-460.145268	32.039	
O	-0.1073505735	 1.4616279535	 0.1341935132	-0.4829
C	-0.0014086024	 0.0623472389	 0.0021386685	 0.310366
C	 0.9663561495	-0.4674614668	-1.0869323373	-0.129651
O	 1.8052393982	-1.0955562879	-0.1002903903	-0.268834
C	 0.9531250098	-0.6705417903	 0.9808363127	-0.131711
C	-1.4308995186	-0.4476534849	-0.0232709909	 0.123066
C	-2.2680030907	-0.2191161666	-1.2999135271	-0.291778
C	-2.3932424679	-1.7552873963	-1.3143908454	-0.064356
O	-1.500364627	-1.8801019278	-0.1822121639	-0.292553
H	 0.7794054196	 1.8359690568	 0.1627616397	 0.287271
H	 0.547828691	-1.195163286	-1.7915325921	 0.108014
H	 1.4897319686	 0.3214870728	-1.6447354236	 0.089535
H	 1.4679350731	-0.0063329721	 1.6885675932	 0.091175
H	 0.5187316503	-1.519151942	 1.5209278389	 0.120661
H	-1.9283262225	-0.1212137302	 0.9005348427	 0.08457
H	-3.1930633538	 0.3424819814	-1.170699982	 0.116754
H	-1.7053290642	 0.2050600321	-2.1334620564	 0.116453
H	-3.3923527162	-2.1442286023	-1.0828772085	 0.10555
H	-2.0053532032	-2.2750517023	-2.1976716915	 0.108368
68.1312	78.5193	96.6087	186.3061	241.4712	284.6265	324.4918	388.4189	464.399	501.2133	634.8502	774.8047	824.7745	855.5239	893.2828	923.2593	952.4091	973.3733	1000.4109	1012.4569	1038.982	1043.4452	1063.8747	1129.9131	1152.1939	1157.8214	1162.6472	1173.0124	1211.9658	1219.5371	1254.8932	1282.173	1303.2781	1344.6592	1358.2743	1392.0284	1428.8183	1492.2706	1493.0645	1520.7116	1532.1612	2998.5955	3007.4233	3011.1734	3022.0938	3061.8593	3063.6384	3069.5974	3086.1697	3142.4556	3811.8695
OC1(COC1)C1CCO1	OC1(COC1)[C@H]1CCO1	
InChI=1S/C6H10O3/c7-6(3-8-4-6)5-1-2-9-5/h5,7H,1-4H2	InChI=1S/C6H10O3/c7-6(3-8-4-6)5-1-2-9-5/h5,7H,1-4H2/t5-/m1/s1
