17
gdb 75659	2.75371	1.28829	1.10887	2.6324	81.42	-0.2428	-0.0225	0.2202	1149.8767	0.133836	-384.653171	-384.644512	-384.643568	-384.68633	32.836	
C	-0.0819906134	 1.6186438924	 0.0385224117	-0.423536
C	 0.0703051408	 0.1041240765	 0.0306574315	-0.17001
C	 1.1228797824	-0.5927044788	-0.8749514898	 0.421665
O	 1.2604163418	-0.6420183851	-2.0640548806	-0.319445
C	 1.7698636359	-1.3067733829	 0.2754973301	-0.234411
C	 2.1752436058	-0.2826625686	 1.3188926588	-0.324767
C	 0.7218114668	-0.635465297	 1.2305267207	 0.181888
C	-0.003599796	-1.2485858678	 2.2889384003	 0.160583
C	-0.6418290213	-1.7502652264	 3.1774487668	-0.383886
H	 0.8481236583	 2.1248896174	 0.3125793024	 0.120483
H	-0.3699244496	 1.9677835976	-0.957787014	 0.139556
H	-0.8574243837	 1.9306283215	 0.7449380509	 0.130107
H	-0.8912853311	-0.3692760808	-0.2027029577	 0.115121
H	 2.1634375963	-2.3152810873	 0.2874138137	 0.124653
H	 2.7066211833	-0.7013649796	 2.1664230576	 0.141634
H	 2.5214812863	 0.7010072536	 1.0174042946	 0.128947
H	-1.2002800124	-2.1973066147	 3.9621142229	 0.191417
86.6576	132.392	189.5407	193.7085	226.7365	272.6607	407.1094	469.2268	489.7198	528.8376	582.1206	597.0022	646.0396	651.8009	702.6665	757.862	794.4795	895.0534	919.2968	977.4484	1001.4298	1059.9828	1087.6274	1099.5772	1107.077	1128.8426	1191.2713	1219.8662	1240.4081	1332.431	1381.7079	1408.7129	1487.3393	1495.9076	1501.8329	1884.5564	2235.1708	3040.5237	3044.4442	3110.3251	3113.4561	3129.3247	3203.0213	3219.4274	3502.4028
CC1C(=O)C2CC12C#C	C[C@H]1C(=O)[C@H]2C[C@@]12C#C	
InChI=1S/C8H8O/c1-3-8-4-6(8)7(9)5(8)2/h1,5-6H,4H2,2H3	InChI=1S/C8H8O/c1-3-8-4-6(8)7(9)5(8)2/h1,5-6H,4H2,2H3/t5-,6+,8-/m0/s1
