17
gdb 71920	2.51926	2.0428	1.42718	3.2396	71.98	-0.2284	-0.0267	0.2017	939.1137	0.135629	-421.797363	-421.789929	-421.788985	-421.82908	28.989	
C	-0.1306365945	 1.5251108734	-0.0103812243	-0.496725
C	 0.052415774	 0.0391664644	 0.0612832991	 0.313561
O	-1.1902947948	-0.6972947189	 0.2558249866	-0.333109
C	-0.5557236727	-1.6514026221	 1.1381822973	 0.104769
C	 0.1433516568	-2.776255393	 0.3454650503	-0.243176
C	 1.3167598714	-1.796674036	 0.0281087295	-0.192303
C	 0.7615474917	-0.8310011058	 1.156321743	-0.153887
C	 0.9038593542	-0.7229192435	-0.9912914614	 0.406291
O	 1.2498107425	-0.4683718928	-2.1085546014	-0.313267
H	 0.8356758578	 2.0277958475	-0.1141041982	 0.130039
H	-0.7396705941	 1.7800424149	-0.8835422155	 0.14684
H	-0.6341017978	 1.8978988722	 0.8859789481	 0.127994
H	-1.193286098	-1.9026331987	 1.9875675836	 0.085638
H	 0.4891118656	-3.5694893335	 1.0162615344	 0.11285
H	-0.4072974979	-3.216683125	-0.4893086494	 0.120003
H	 2.3293515641	-2.1923083032	-0.0405037254	 0.094515
H	 1.3186519317	-0.4580782398	 2.0101035138	 0.089967
118.0096	175.7739	207.424	253.7775	284.8657	410.3305	457.3113	553.5495	617.3985	718.2999	794.7443	799.2222	815.2749	834.0114	858.2526	903.4969	933.2191	954.7874	992.4872	1003.9096	1024.1019	1100.8326	1115.6456	1129.661	1136.1495	1173.1957	1184.9275	1231.6078	1258.231	1293.2284	1318.4553	1333.2328	1408.9806	1471.7095	1474.8434	1482.91	1880.6476	3041.0264	3050.145	3096.1523	3113.1069	3114.6358	3120.4486	3125.6401	3168.5778
CC12OC3CC(C13)C2=O	C[C@]12O[C@H]3C[C@H]([C@@H]13)C2=O	
InChI=1S/C7H8O2/c1-7-5-3(6(7)8)2-4(5)9-7/h3-5H,2H2,1H3	InChI=1S/C7H8O2/c1-7-5-3(6(7)8)2-4(5)9-7/h3-5H,2H2,1H3/t3-,4+,5-,7+/m1/s1
