19
gdb 6490	3.75495	1.29288	1.25622	3.6816	71.42	-0.2367	0.0334	0.2701	1065.7865	0.164397	-365.092459	-365.083388	-365.082443	-365.126344	33.543	
C	 0.0264271764	 1.6087929326	 0.203986822	-0.458354
C	-0.0780197224	 0.1304625764	-0.1271490006	 0.354349
C	-1.3660532983	-0.2820277008	-0.8251503472	-0.361021
C	-2.6732920452	-0.0369374019	-0.0620678954	 0.376005
N	-2.6246427091	-0.2869651107	 1.2801303596	-0.509071
O	-3.6942703652	 0.3072627234	-0.6240186438	-0.360376
C	 1.1861364345	-0.5805719242	-0.5403860336	-0.315622
C	 0.5821996755	-0.8614423323	 0.8151679034	-0.309131
H	 0.9803476948	 1.8386897066	 0.6883550082	 0.112531
H	-0.0426403838	 2.2168163499	-0.7051705927	 0.124622
H	-0.7773882901	 1.9267012883	 0.8767610115	 0.122275
H	-1.4756468133	 0.2469027324	-1.7765750881	 0.127347
H	-1.3309025156	-1.3527834585	-1.0634949567	 0.118071
H	-1.7558975267	-0.4699120172	 1.7508091055	 0.264254
H	-3.4520120413	-0.1057094242	 1.8241701388	 0.257452
H	 1.1184519976	-1.3557037479	-1.2962263794	 0.114982
H	 2.1044569091	-0.0042891628	-0.577637856	 0.114089
H	 1.0953624319	-0.4758810004	 1.6903678981	 0.113282
H	 0.1143077812	-1.8297095088	 0.9656274164	 0.114316
41.0032	100.386	165.5438	221.4389	229.1641	308.1492	314.7633	345.8058	387.7722	457.5078	529.0106	568.1022	671.3782	746.5721	795.154	849.0802	868.2477	913.2541	951.4961	955.8898	974.5179	1042.9168	1069.2435	1083.5238	1090.0801	1126.782	1192.0029	1195.642	1297.5564	1325.8711	1353.548	1367.7675	1422.9181	1459.8771	1470.4049	1492.8928	1501.9341	1510.4419	1605.7629	1800.447	3027.9985	3032.2065	3090.608	3092.5409	3104.149	3120.9119	3131.7127	3200.9563	3218.0527	3600.3969	3738.4569
CC1(CC(N)=O)CC1	CC1(CC(=O)N)CC1	
InChI=1S/C6H11NO/c1-6(2-3-6)4-5(7)8/h2-4H2,1H3,(H2,7,8)	InChI=1S/C6H11NO/c1-6(2-3-6)4-5(7)8/h2-4H2,1H3,(H2,7,8)
