21
gdb 110586	3.09639	1.34	1.09991	1.0893	83.4	-0.2113	0.0756	0.287	1193.1402	0.182013	-383.158353	-383.149763	-383.148819	-383.191358	33.494	
C	 0.0000913575	 1.6199145274	-0.1159603084	-0.38011
C	 0.0488326605	 0.0932798627	-0.1011270609	-0.124187
N	-1.297378314	-0.471322037	 0.0115764595	-0.15592
C	-1.8625321755	-0.5473805395	 1.3928506201	-0.038267
C	-2.7264731147	-1.789234926	 1.023496423	-0.084402
N	-2.2760598788	-2.6495059455	 2.1638184949	-0.354074
C	-1.0648137029	-1.8335881085	 1.8276988036	-0.094914
C	-1.3652274833	-1.9454602657	 0.2803395307	 0.391925
C	-0.9438230654	-3.010393679	-0.6840147454	-0.535578
H	 1.0004493645	 2.0401918421	-0.2582881089	 0.110461
H	-0.6467192286	 1.9726581166	-0.9242082726	 0.125856
H	-0.3949980256	 2.0135442968	 0.8267512618	 0.113124
H	 0.4780886395	-0.267273168	-1.0440567982	 0.099155
H	 0.723559905	-0.2491025001	 0.7048648124	 0.076319
H	-2.1404922643	 0.3267882378	 1.9853915619	 0.077817
H	-3.7280175683	-1.8139840816	 0.5937245576	 0.085583
H	-2.6909568667	-2.3187552832	 3.0390646322	 0.207559
H	-0.1243815322	-1.9367533121	 2.3705251424	 0.082664
H	-1.1715923584	-3.9939967455	-0.2625598391	 0.144402
H	-1.475819341	-2.9033265983	-1.6347137611	 0.129787
H	 0.1313344129	-2.9648486834	-0.8867951756	 0.122803
84.3744	162.9938	184.3115	218.9015	236.9706	259.2465	324.6589	373.8066	534.3307	562.0957	648.2155	736.0273	759.8614	792.9873	817.781	827.4262	841.0426	896.6336	909.9041	953.7238	968.5091	1001.7631	1059.8752	1087.5084	1101.3769	1108.3146	1135.0668	1150.7704	1158.7499	1170.7594	1190.9996	1217.3339	1267.9416	1285.9308	1291.167	1310.19	1377.1211	1387.6663	1408.4918	1413.666	1483.2475	1489.7152	1490.5102	1493.3009	1511.2255	2934.5086	3034.7536	3036.7106	3042.1159	3090.7791	3101.7139	3103.3813	3107.2582	3116.8811	3118.2011	3121.4821	3400.1247
CCN1C2C3NC2C13C	CCN1[C@H]2[C@@H]3N[C@H]2[C@]13C	
InChI=1S/C7H12N2/c1-3-9-4-5-7(9,2)6(4)8-5/h4-6,8H,3H2,1-2H3	InChI=1S/C7H12N2/c1-3-9-4-5-7(9,2)6(4)8-5/h4-6,8H,3H2,1-2H3/t4-,5-,6+,7+
