15
gdb 78121	2.25834	1.63606	1.32856	3.8623	69.73	-0.2712	-0.037	0.2342	1004.4567	0.112095	-416.797805	-416.789762	-416.788818	-416.830572	29.409	
C	-0.0447328752	 1.5126515561	 0.158038121	-0.42997
C	 0.0162051338	 0.0273598453	-0.1054817184	 0.00913
C	 0.6635051974	-0.6594908035	-1.2343966076	-0.060262
C	 1.9458259399	 0.0111916275	-1.7377923925	-0.297078
C	 1.8939080733	 1.2605764318	-2.4719198639	 0.299407
N	 1.8446794942	 2.2665911136	-3.039484933	-0.327317
C	 2.3755894019	-0.026890778	-0.2307094506	 0.393169
O	 3.3295791327	 0.3326155981	 0.3736182351	-0.271407
N	 1.2382293235	-0.8073967167	 0.1874951878	-0.191878
H	 0.8073544153	 2.065272667	-0.2411624576	 0.157967
H	-0.9516043264	 1.9241944987	-0.295525014	 0.143502
H	-0.0926365572	 1.6929129269	 1.2361318668	 0.14696
H	-0.8524489057	-0.5092825407	 0.2696975601	 0.127991
H	 0.2245375607	-1.5196854947	-1.7248642812	 0.130344
H	 2.5726111919	-0.7077739815	-2.2756164817	 0.169441
101.2087	131.3568	151.35	186.6373	261.0317	354.8368	406.0988	455.1752	548.4807	589.6668	637.4543	683.5718	737.4769	812.4573	877.9448	904.016	953.9381	993.2001	1047.3224	1064.9861	1081.4771	1102.4439	1162.5923	1174.552	1265.6546	1318.9079	1351.1841	1422.5728	1437.2144	1483.3527	1500.4959	1930.967	2355.9834	3050.566	3073.8158	3115.2571	3132.3775	3149.8411	3196.5524
CC1C2C(C#N)C(=O)N12	C[C@H]1[C@H]2[C@@H](C#N)C(=O)N12	
InChI=1S/C6H6N2O/c1-3-5-4(2-7)6(9)8(3)5/h3-5H,1H3	InChI=1S/C6H6N2O/c1-3-5-4(2-7)6(9)8(3)5/h3-5H,1H3/t3-,4+,5-,8?/m0/s1
