13
gdb 66717	2.90044	1.73317	1.31613	4.3525	67.3	-0.2452	-0.0136	0.2316	924.059	0.088739	-415.484632	-415.47778	-415.476835	-415.5159	26.561	
O	-0.1080794544	 1.3686300594	 0.0546948971	-0.42968
C	 0.016312444	 0.0213814762	 0.039631055	 0.326572
C	 0.9280826326	-1.0126447953	 0.7826466055	-0.147493
C	-0.1856147345	-1.9963123156	 0.760029001	-0.036013
C	-1.106490981	-0.9905959261	 0.0287164144	-0.21174
C	-0.07298881	-0.9944596115	-1.1055833019	 0.226401
C	-0.20294785	-0.8406362309	-2.5037112893	 0.140395
N	-0.3070593883	-0.6800091921	-3.6466040724	-0.35108
N	 0.8196890214	-1.9873244361	-0.3615407333	-0.194435
H	 0.6377652813	 1.7664887688	-0.4120046241	 0.309302
H	 1.8206954338	-0.9348907045	 1.3908759022	 0.118685
H	-0.384914746	-2.8786056441	 1.3551504983	 0.117567
H	-2.1737948189	-0.8351627181	-0.0260020327	 0.131519
113.7452	163.4894	298.5094	336.5844	388.555	491.0442	516.4049	555.6521	641.4251	732.7206	761.6533	774.6275	805.3615	847.4495	871.7889	919.9785	950.4648	961.0216	1002.4881	1017.6111	1091.9281	1134.4074	1190.1596	1226.6088	1296.3778	1306.7566	1335.784	1486.3895	2332.7853	3188.1128	3201.1738	3237.7299	3773.0858
OC12C3C4C1C2(C#N)N34	O[C@@]12[C@H]3[C@H]4[C@@H]1[C@]2(C#N)N34	
InChI=1S/C6H4N2O/c7-1-5-3-2-4(8(2)5)6(3,5)9/h2-4,9H	InChI=1S/C6H4N2O/c7-1-5-3-2-4(8(2)5)6(3,5)9/h2-4,9H/t2-,3-,4-,5+,6-,8?/m1/s1
