20
gdb 35548	2.40572	1.57247	1.42027	3.9982	80.78	-0.2929	0.0306	0.3235	1040.9193	0.174045	-366.037249	-366.029474	-366.028529	-366.069621	30.545	
N	-0.0346740357	-1.120457897	 0.597575098	-0.343053
C	-0.0232474663	 0.0081536598	 0.3443410725	 0.282677
C	-0.0163230511	 1.4339126056	 0.0091067735	-0.151807
C	-0.7449475684	 2.3024741132	 1.0766486843	-0.240659
C	 0.3254110841	 2.6770262976	 2.1120281379	 0.003592
C	 0.7256275091	 1.5832590764	 3.1470157709	-0.231367
C	 2.102483193	 1.4111505365	 2.4440911465	-0.231376
C	 1.7156683292	 2.5032885656	 1.4023032208	 0.003593
C	 1.4210054877	 2.0318885751	-0.0291010851	-0.240652
H	-0.503270217	 1.5250435841	-0.9670293772	 0.122883
H	-1.1121991402	 3.2043915997	 0.5750854826	 0.1063
H	-1.6088363252	 1.7916900652	 1.5102921212	 0.120155
H	 0.1255167547	 3.6555595228	 2.5530457599	 0.068201
H	 0.7853392661	 1.9487546266	 4.1746899374	 0.099033
H	 0.092570208	 0.6927470483	 3.1395785006	 0.119387
H	 2.9623903048	 1.6766053909	 3.0632518387	 0.099031
H	 2.2810877579	 0.4191936517	 2.0222506878	 0.119403
H	 2.3734962437	 3.3746295453	 1.405496854	 0.068201
H	 2.1578469826	 1.321138585	-0.4126997772	 0.12016
H	 1.4045856528	 2.8900069375	-0.7097350971	 0.1063
98.6198	108.2293	182.7614	250.2143	337.0123	361.1579	462.2035	537.2502	616.6357	731.111	732.4923	741.1463	781.6049	834.0741	834.1364	896.6069	909.9203	940.8669	962.5944	963.1584	1010.595	1071.8053	1079.8061	1080.5963	1152.4629	1159.6036	1176.5455	1203.5891	1237.1343	1245.3402	1265.9065	1268.2484	1282.4726	1318.9011	1331.0855	1341.9624	1351.4165	1364.7281	1475.7082	1481.6976	1489.6186	1498.3554	2347.5553	3043.7357	3043.7483	3061.9555	3064.8011	3067.0534	3076.0193	3089.7025	3099.5969	3101.634	3107.2052	3124.7582
N#CC1CC2CCC2C1	N#C[C@H]1C[C@H]2CC[C@H]2C1	
InChI=1S/C8H11N/c9-5-6-3-7-1-2-8(7)4-6/h6-8H,1-4H2	InChI=1S/C8H11N/c9-5-6-3-7-1-2-8(7)4-6/h6-8H,1-4H2/t6-,7+,8-
