21
gdb 64289	2.58083	1.66282	1.35521	2.0257	77.27	-0.245	0.0786	0.3235	1054.0932	0.182789	-424.223776	-424.215297	-424.214353	-424.256374	33.203	
C	 0.1121539036	 1.5481777308	 0.0846088247	-0.42695
C	 0.0760236062	 0.0256801312	 0.0475815413	 0.341273
C	-1.3512398982	-0.5057406881	-0.1540843147	-0.428849
O	 0.9206079964	-0.3924588561	-1.0452436417	-0.289104
C	 1.3586925399	-1.7200061937	-0.7938767921	-0.10704
C	 1.5660134669	-1.8091139604	 0.7185649471	-0.0993
C	 2.7594897163	-1.0125424134	 1.2833188746	-0.078743
O	 1.897099938	 0.0391171735	 1.7649185267	-0.290047
C	 0.719359203	-0.6381569513	 1.2824229776	 0.098631
H	 1.1294614603	 1.8928137952	 0.2736941193	 0.137855
H	-0.2324145806	 1.9529516381	-0.8711938691	 0.118493
H	-0.5392226036	 1.9307154799	 0.8764607701	 0.110844
H	-1.7327063874	-0.1790708785	-1.12535979	 0.126184
H	-1.3877066417	-1.5997399547	-0.1256790469	 0.111974
H	-2.0207727895	-0.1306542445	 0.6261796433	 0.11649
H	 0.6151084634	-2.4602589537	-1.1278101987	 0.090937
H	 2.2757650374	-1.8814989562	-1.3695643013	 0.108129
H	 1.4172043651	-2.8071136613	 1.1299636852	 0.08103
H	 3.3022668865	-1.4962461597	 2.1043418141	 0.100342
H	 3.4781822223	-0.6475809004	 0.5391735275	 0.106374
H	 0.0037793457	-0.8266180567	 2.0894187429	 0.071476
112.6293	180.4225	185.8387	216.964	254.0988	324.2418	350.0467	374.0035	386.4596	524.0337	581.1301	678.5359	794.4102	815.7589	845.8337	888.9794	901.9244	929.481	949.6905	962.1907	997.9383	1021.585	1033.9147	1051.9057	1095.0264	1129.5495	1167.7669	1172.5577	1205.9433	1216.1939	1238.1815	1254.9499	1291.9517	1328.7289	1331.7267	1362.438	1390.8587	1396.7927	1414.2815	1477.2722	1482.7594	1497.1546	1504.4049	1517.4392	1523.0538	2980.1749	3014.8702	3037.6838	3047.9063	3055.6268	3059.3987	3073.4569	3104.1173	3114.0142	3117.0924	3121.0091	3148.5386
CC1(C)OCC2COC12	CC1(C)OC[C@H]2CO[C@@H]12	
InChI=1S/C7H12O2/c1-7(2)6-5(3-8-6)4-9-7/h5-6H,3-4H2,1-2H3	InChI=1S/C7H12O2/c1-7(2)6-5(3-8-6)4-9-7/h5-6H,3-4H2,1-2H3/t5-,6-/m1/s1
