21
gdb 114242	3.18302	1.00137	0.88383	1.7619	79.99	-0.2507	0.0704	0.3212	1410.9679	0.17992	-424.191023	-424.18141	-424.180466	-424.225988	35.455	
C	 0.4044264298	 0.7294690805	 0.5512763867	-0.237435
O	 0.0259061021	-0.4373719386	-0.1422238583	-0.243681
C	 0.4933660755	-0.4733871564	-1.4703209003	 0.133129
C	 1.9922563634	-0.9037737733	-1.6146006276	-0.349375
C	 1.4911647527	-2.305785837	-1.9795621637	 0.451643
C	 0.0545836296	-1.8000065855	-2.1404145074	-0.341265
O	 2.133843433	-3.177020275	-2.8929168645	-0.297327
C	 1.9683968169	-3.6163608585	-1.5306761609	-0.019635
C	 3.2235059131	-3.8056902493	-0.7208880049	-0.415905
H	 1.4971252457	 0.8274780396	 0.6379861388	 0.105806
H	 0.0179561951	 1.6359078161	 0.0590151009	 0.105243
H	-0.0216494897	 0.6632069402	 1.5552599634	 0.127729
H	 0.2179350922	 0.4508417133	-1.9965446179	 0.064996
H	 2.5000721454	-0.4175415336	-2.4525074876	 0.111872
H	 2.607063481	-0.8067158807	-0.716189339	 0.108495
H	-0.7362424202	-2.3386186773	-1.614052141	 0.116814
H	-0.2204958939	-1.6753091828	-3.1911581784	 0.113573
H	 1.2189808985	-4.402932674	-1.4182515174	 0.088025
H	 3.9155855277	-2.972778699	-0.8693774742	 0.125946
H	 2.9836301818	-3.8772723239	 0.3457273703	 0.122493
H	 3.7344025304	-4.7292057451	-1.012927867	 0.128857
36.8062	119.8188	162.3263	179.6359	202.2271	203.4915	286.0694	337.1436	368.7818	439.9108	462.6706	480.406	582.9864	772.5007	804.9988	815.4348	830.5703	928.0123	951.8218	966.7699	983.9748	1043.5501	1071.8544	1101.6713	1126.5942	1142.2898	1150.622	1181.599	1184.3742	1202.1945	1209.6746	1249.7438	1266.6601	1285.9683	1353.1689	1383.6901	1406.2492	1447.5344	1462.006	1477.7783	1481.7546	1485.6366	1490.2163	1509.6004	1523.9897	2974.1836	3003.8624	3021.1316	3035.3766	3057.7424	3067.2004	3083.6331	3099.1943	3113.6962	3114.8748	3123.6268	3126.4005
COC1CC2(C1)OC2C	CO[C@H]1C[C@@]2(C1)O[C@H]2C	
InChI=1S/C7H12O2/c1-5-7(9-5)3-6(4-7)8-2/h5-6H,3-4H2,1-2H3	InChI=1S/C7H12O2/c1-5-7(9-5)3-6(4-7)8-2/h5-6H,3-4H2,1-2H3/t5-,6-,7-/m0/s1
