16
gdb 22519	2.62544	1.19054	1.03366	2.4546	70.67	-0.2542	-0.0452	0.209	1191.2186	0.121479	-474.972038	-474.96313	-474.962186	-475.006008	32.587	
O	-0.0830760287	 1.3069528123	 0.107427309	-0.384273
N	 0.0032794371	-0.0898586907	 0.1648026881	-0.222501
C	-1.1329739685	-0.6258939931	 0.0157307886	 0.350066
C	-2.5495063745	-0.1737953837	-0.2610537919	-0.325642
C	-2.898988597	-1.6580070382	-0.5833577715	-0.288669
C	-1.4873483765	-2.1203716559	-0.054351435	 0.261375
O	-0.7431446729	-2.9443623435	-0.8820296682	-0.470597
C	-1.5657586164	-2.7118141679	 1.3416845546	 0.122973
O	-0.9962140063	-3.736854439	 1.6246372233	-0.273943
H	 0.8396856972	 1.5728973356	 0.1904051741	 0.312259
H	-3.0571070544	 0.2310035306	 0.6204208798	 0.129285
H	-2.658383684	 0.547122803	-1.0747505639	 0.140125
H	-3.7723221651	-2.0833884842	-0.0843718121	 0.111742
H	-2.9560312373	-1.8631805948	-1.6529042084	 0.139171
H	-0.4050162834	-3.6568573441	-0.3144459685	 0.295549
H	-2.1711195091	-2.1526874963	 2.0823437121	 0.10308
63.9777	103.7005	141.8565	197.3441	286.4002	317.326	328.5418	365.5056	431.4926	470.0975	512.034	513.9525	614.2796	739.4638	768.3889	837.496	888.2646	900.9155	945.2527	988.954	1058.7031	1068.3383	1102.413	1138.3331	1206.8192	1225.9907	1249.3166	1296.9767	1386.4304	1402.6368	1437.8807	1461.842	1480.6449	1770.2646	1810.6801	2941.4115	3057.6204	3078.3621	3106.4443	3144.9509	3671.9506	3809.6752
ON=C1CCC1(O)C=O	ON=C1CC[C@]1(O)C=O	
InChI=1S/C5H7NO3/c7-3-5(8)2-1-4(5)6-9/h3,8-9H,1-2H2	InChI=1S/C5H7NO3/c7-3-5(8)2-1-4(5)6-9/h3,8-9H,1-2H2/t5-/m0/s1
