21
gdb 83590	2.51502	1.63318	1.52472	1.438	76.03	-0.2462	0.0746	0.3208	1008.1644	0.186201	-424.248134	-424.240547	-424.239603	-424.279654	31.257	
O	 0.0251385834	 1.4049356208	 0.0373812147	-0.467723
C	 0.0063651139	-0.0114557605	 0.0168280682	 0.167397
C	-1.4020775405	-0.6024876177	-0.199326313	-0.051516
C	-1.5893457692	-0.298945205	-1.6968374234	-0.105407
O	-0.2656963483	-0.3028519063	-2.2700414457	-0.29654
C	 0.6865889269	-0.5887215996	-1.2267444674	 0.067049
C	 0.9256159928	-2.0977225685	-1.0766489174	-0.217267
C	-0.4068012159	-2.8468516503	-0.886878974	-0.195635
C	-1.3590341231	-2.1183736323	 0.0829308847	-0.222041
H	-0.0730572718	 1.7062063637	-0.8730386433	 0.289594
H	 0.4614908589	-0.341935533	 0.9540919273	 0.080181
H	-2.1482902888	-0.1002353958	 0.4204976157	 0.074941
H	-2.2125173341	-1.041402901	-2.2086002263	 0.102201
H	-2.0415375241	 0.6878780851	-1.8577507001	 0.096678
H	 1.6106712394	-0.0593285457	-1.4781164255	 0.076558
H	 1.4495293135	-2.4798538726	-1.9587809057	 0.103361
H	 1.5902058452	-2.2570899544	-0.2175025188	 0.096223
H	-0.8921822258	-2.9372802935	-1.8645841972	 0.113096
H	-0.2237424862	-3.8694359814	-0.5418117516	 0.094263
H	-1.0352283763	-2.2738017465	 1.120097061	 0.097571
H	-2.3648523399	-2.5467376955	 0.0053480377	 0.097014
176.7541	182.1181	266.724	305.6567	330.1159	356.3434	381.7021	437.467	512.6607	625.4785	743.2705	768.0904	814.9732	848.2388	855.1323	874.3197	897.8188	957.0026	959.2349	992.9882	1010.5885	1032.4594	1073.5553	1089.3881	1101.6433	1116.1488	1141.8738	1190.1255	1219.8717	1239.4388	1266.9097	1273.0225	1299.7232	1332.4336	1337.1259	1338.3802	1359.6641	1378.3346	1384.3194	1397.779	1433.9018	1480.5999	1489.692	1501.5794	1533.1399	3016.2813	3022.0857	3025.4815	3043.1078	3052.9169	3062.6501	3066.3118	3075.4232	3081.3977	3088.0971	3091.4582	3799.9577
OC1C2COC1CCC2	O[C@H]1[C@H]2CO[C@@H]1CCC2	
InChI=1S/C7H12O2/c8-7-5-2-1-3-6(7)9-4-5/h5-8H,1-4H2	InChI=1S/C7H12O2/c8-7-5-2-1-3-6(7)9-4-5/h5-8H,1-4H2/t5-,6-,7+/m1/s1
