20
gdb 100345	2.4694	1.1082	0.94846	2.2625	73.82	-0.253	0.024	0.277	1320.8808	0.168033	-477.406306	-477.395585	-477.394641	-477.442103	38.37	
C	 0.2000076794	 1.4655603196	 0.1915904098	-0.455359
C	-0.0776255879	-0.0371011972	 0.1197022866	 0.339436
C	 0.483221114	-0.7728763036	 1.3539910072	-0.08295
O	 1.8942425652	-0.6726227218	 1.4365520956	-0.427698
C	-1.5804123674	-0.3089277238	-0.0243585643	-0.119617
O	-2.2233782469	 0.1517978803	 1.1529666351	-0.420521
O	 0.4701942774	-0.6797614108	-1.0557808594	-0.246016
C	 1.7055990524	-0.3695178239	-1.4918486683	 0.08914
N	 2.3264843784	-1.1933285749	-2.226003961	-0.444746
H	 1.2183674638	 1.6752081657	 0.524532236	 0.139783
H	 0.0272147601	 1.9419638894	-0.7783093183	 0.120277
H	-0.4921966111	 1.9020168492	 0.915343666	 0.14586
H	 0.0717530986	-0.3186765849	 2.2585486137	 0.130434
H	 0.1572248239	-1.8210165797	 1.3211845285	 0.099601
H	 2.2732262405	-1.3141327532	 0.8266733779	 0.300479
H	-1.9475310695	 0.208919457	-0.9227329112	 0.099264
H	-1.7266624266	-1.3879442591	-0.1751624609	 0.10594
H	-3.1653526648	-0.0198040552	 1.0710580399	 0.297035
H	 2.0642901836	 0.6162663666	-1.1865723099	 0.103837
H	 3.213439637	-0.7862700497	-2.517993233	 0.225822
62.5544	107.5481	115.8768	140.505	174.1973	214.3232	243.2779	291.5735	304.0887	335.9016	368.0763	399.5697	404.8613	454.9135	567.0028	641.7007	792.3261	838.118	901.7413	919.8093	970.9767	985.7318	1044.875	1070.2551	1081.0454	1113.1317	1143.0457	1188.5565	1213.0063	1225.6148	1278.2212	1298.3199	1319.8084	1385.1956	1402.657	1413.2321	1425.878	1454.903	1488.3601	1496.1262	1510.4192	1523.0959	1722.2899	2988.7936	3017.7841	3029.1827	3049.1875	3099.0824	3110.2499	3125.744	3138.2603	3505.7271	3817.4406	3843.9747
CC(CO)(CO)OC=N	CC(CO)(CO)O[CH][NH]	
InChI=1S/C5H11NO3/c1-5(2-7,3-8)9-4-6/h4,6-8H,2-3H2,1H3	InChI=1S/C5H11NO3/c1-5(2-7,3-8)9-4-6/h4,6-8H,2-3H2,1H3
