17
gdb 39326	2.91196	1.85187	1.37424	3.1207	67.11	-0.2505	0.0592	0.3097	938.4305	0.137556	-458.915617	-458.908667	-458.907723	-458.947487	26.853	
C	 0.1631958227	 1.5309163193	 0.2118746216	-0.08642
O	 1.4741413144	 1.4855800078	-0.3987013253	-0.29111
C	 1.3857554551	 0.0604255634	-0.597237491	 0.101516
C	 2.4513360535	-0.7521672527	 0.0912420737	 0.011307
O	 2.6056624355	-0.5706658662	 1.5010249458	-0.23426
C	 2.0030070306	-1.7764762378	 1.0486211821	 0.03607
C	 0.5185330269	-1.9030758153	 1.3435464582	-0.123996
O	-0.1351380608	-0.6535882586	 1.2849486443	-0.251768
C	-0.0211528484	 0.0137799699	 0.0493269363	 0.043045
H	 0.2036103649	 1.8497556957	 1.2581710614	 0.123872
H	-0.5293273026	 2.1656431018	-0.3523920971	 0.101777
H	 1.3922043813	-0.1909698501	-1.6675304472	 0.074107
H	 3.3892549077	-0.8863504518	-0.4465093037	 0.100543
H	 2.5931684799	-2.6836190026	 1.182482387	 0.096758
H	 0.0722818345	-2.6385566873	 0.6515222607	 0.094365
H	 0.3664569391	-2.2699929892	 2.3633958607	 0.125738
H	-0.8215680043	-0.3026938061	-0.6324679173	 0.078456
55.9823	172.7608	251.185	341.9001	387.9025	450.439	469.441	644.5863	732.5093	775.5121	789.6929	843.3205	890.4002	907.4147	941.911	993.4636	997.5483	1030.9578	1045.7029	1081.6925	1099.0843	1104.9518	1150.1175	1160.535	1201.166	1261.5756	1271.6992	1281.2327	1299.7681	1344.9798	1358.5689	1372.3539	1383.3467	1412.3651	1470.228	1491.7712	1507.6263	2959.7927	2996.9647	3014.1698	3034.2139	3079.5926	3091.073	3107.2808	3121.2115
C1OC2C3OC3COC12	C1O[C@H]2[C@H]3O[C@H]3CO[C@@H]12	
InChI=1S/C6H8O3/c1-3-5(8-1)6-4(9-6)2-7-3/h3-6H,1-2H2	InChI=1S/C6H8O3/c1-3-5(8-1)6-4(9-6)2-7-3/h3-6H,1-2H2/t3-,4-,5+,6-/m0/s1
