15
gdb 48134	3.08438	1.33577	0.94299	1.2978	71.24	-0.2532	-0.0923	0.1609	1165.0954	0.113169	-453.987085	-453.978959	-453.978015	-454.020758	28.212	
O	-0.865083437	 1.2182852342	 0.1727271552	-0.239866
C	 0.2744388236	 0.9310294349	-0.0810475728	 0.103112
C	 1.4635927982	 1.8892302242	-0.2046968231	 0.310573
O	 2.5504582102	 1.4048292605	-0.4713374511	-0.348253
N	 1.2784774949	 3.2276977869	-0.0172336906	-0.139933
C	 2.4052653379	 4.1713793301	-0.1303047845	-0.189183
C	 1.7045126276	 5.5247788107	 0.1592672677	-0.179096
N	 0.282711433	 5.2262072088	 0.4025191959	-0.24067
C	 0.1241963905	 3.971506819	 0.2917077224	 0.069343
H	 0.6133657912	-0.1076732807	-0.2661228631	 0.129029
H	 3.1815135506	 3.9096922308	 0.5933064187	 0.140957
H	 2.8457745916	 4.1042524149	-1.1283580225	 0.140957
H	 2.1207344107	 6.0288055628	 1.0370140353	 0.129994
H	 1.7863235775	 6.2229432538	-0.6795357198	 0.129993
H	-0.8127826907	 3.447425259	 0.4151215024	 0.183042
75.4589	85.1031	139.0203	175.7853	201.0949	271.6754	450.891	505.917	565.4576	592.7234	684.506	780.7457	821.5466	900.9518	955.7599	974.358	976.2591	1030.1665	1067.1797	1111.223	1216.0071	1223.17	1245.9735	1309.6507	1328.3961	1363.0175	1376.7286	1436.3777	1494.3608	1518.8687	1694.123	1747.1033	1827.367	2954.7333	3052.9443	3067.6927	3081.6574	3110.2787	3261.0139
O=CC(=O)N1CCN=C1	O=CC(=O)N1CCN=C1	
InChI=1S/C5H6N2O2/c8-3-5(9)7-2-1-6-4-7/h3-4H,1-2H2	InChI=1S/C5H6N2O2/c8-3-5(9)7-2-1-6-4-7/h3-4H,1-2H2
