22
gdb 113700	2.8986	0.99921	0.93365	3.1236	78.43	-0.2476	0.0635	0.3112	1386.8535	0.191978	-441.451714	-441.441163	-441.440219	-441.487313	39.533	
C	 0.14034312	-1.7767935871	 1.1375147011	-0.422979
C	-0.6388742347	-1.5448786398	-0.1670629146	 0.347008
C	-1.4950888226	-2.766666714	-0.4976042078	-0.382338
O	-1.5696002107	-0.469657011	 0.0327949584	-0.44957
C	 0.366081067	-1.2038395161	-1.2883843802	-0.086065
N	 0.2749373019	-1.872496887	-2.598637541	-0.343695
C	 0.0619301729	-0.4174443257	-2.5203805796	-0.039045
C	-1.3076690909	 0.0552303075	-2.9526563498	-0.072598
O	-1.4245706955	-0.0078601634	-4.3673097764	-0.424126
H	 0.8340060739	-2.6188078102	 1.0421668064	 0.117033
H	 0.7284065441	-0.8894284332	 1.4028543459	 0.102051
H	-0.5522568769	-1.9841671399	 1.9571460911	 0.123489
H	-2.208216185	-2.9388601702	 0.3133617287	 0.114591
H	-2.0457675025	-2.6239433268	-1.4279372706	 0.129763
H	-0.8674859172	-3.653238899	-0.6166857408	 0.114254
H	-1.0631186158	 0.3275672199	 0.2223264907	 0.274424
H	 1.377964871	-1.0525634089	-0.9123691854	 0.077239
H	 1.2024364614	-2.090479585	-2.9513064143	 0.23299
H	 0.8693098756	 0.2138858247	-2.8914745398	 0.086458
H	-2.0921189209	-0.5194510344	-2.4504509365	 0.113726
H	-1.4475977142	 1.106685232	-2.6808859306	 0.100992
H	-1.2901776509	-0.9325537525	-4.6045046949	 0.286397
36.845	96.1235	138.6315	205.0192	218.5623	266.5334	273.2306	288.8549	315.0152	361.2265	380.0436	422.3949	429.2605	483.1109	522.371	628.0303	726.8649	825.1589	859.0647	913.9971	932.4099	950.9687	962.468	991.9134	1006.0545	1021.1878	1064.3029	1106.9231	1141.2126	1180.8341	1189.4848	1210.0805	1240.1556	1271.5642	1281.1103	1359.0509	1371.1867	1396.6851	1401.3692	1416.7379	1439.8684	1468.8074	1476.0396	1480.6824	1494.4174	1499.6822	1502.5554	3022.8775	3050.6901	3055.5231	3087.78	3089.2676	3094.9562	3112.6995	3120.3931	3129.3613	3147.3943	3506.2074	3798.8452	3804.5639
CC(C)(O)C1NC1CO	CC(C)(O)[C@H]1N[C@H]1CO	
InChI=1S/C6H13NO2/c1-6(2,9)5-4(3-8)7-5/h4-5,7-9H,3H2,1-2H3	InChI=1S/C6H13NO2/c1-6(2,9)5-4(3-8)7-5/h4-5,7-9H,3H2,1-2H3/t4-,5-/m0/s1
