22
gdb 95200	2.14111	1.84304	1.31858	2.3512	81.25	-0.2127	0.0605	0.2732	1080.2666	0.195895	-404.332286	-404.323677	-404.322733	-404.364805	34.471	
C	 0.0613579679	 1.5754096212	 0.0033463182	-0.392162
C	 0.0801629891	 0.0481244163	-0.0335924821	 0.051438
C	 0.610359621	-0.5086001362	-1.3705569245	 0.103141
O	 1.8471006428	 0.1352469878	-1.6847378127	-0.42885
C	 0.768902334	-2.0287737176	-1.2758895277	-0.239845
C	 1.7930763479	-2.4097544589	-0.1958734684	-0.219746
C	 1.5407886677	-1.6833932101	 1.1259086963	-0.009777
C	 2.1610137781	-0.3472167324	 1.3718713736	-0.249766
N	 0.7173942145	-0.4688502988	 1.1838703789	-0.095823
H	 1.0707476001	 1.9800892433	-0.0978077824	 0.132704
H	-0.5450502494	 1.9730659004	-0.8167781534	 0.105291
H	-0.3628930991	 1.9193786	 0.950242344	 0.118532
H	-0.9594784293	-0.307025568	 0.0190352972	 0.077428
H	-0.1384814344	-0.2648382469	-2.1417240463	 0.062276
H	 2.1797776134	-0.2421711071	-2.5052182803	 0.282689
H	-0.212071246	-2.4624195451	-1.0433250414	 0.102561
H	 1.070087175	-2.4418237299	-2.2470952922	 0.082215
H	 1.761962695	-3.4901635049	-0.0265753157	 0.097811
H	 2.7986641057	-2.1799254248	-0.561099569	 0.105301
H	 1.3850309826	-2.3358444532	 1.9832568062	 0.082929
H	 2.4734478622	-0.0585343516	 2.3732073463	 0.101283
H	 2.7566676111	 0.0646035363	 0.5623748953	 0.130369
119.7281	191.2612	224.0819	238.2805	257.911	299.5403	355.8913	370.7283	416.6154	435.7673	547.3579	629.8771	685.6451	729.4367	778.8093	821.5722	888.9196	905.6265	934.3278	956.7415	993.1866	1002.1071	1058.2573	1066.3027	1105.3363	1119.1602	1130.7287	1136.3563	1164.8524	1174.2659	1215.164	1232.1162	1250.6157	1331.721	1334.9442	1351.665	1365.6094	1378.9857	1395.8321	1402.8484	1405.0406	1429.0948	1483.2834	1489.1008	1492.9961	1499.5058	1507.7704	2961.4999	2994.9483	3020.0935	3045.6426	3046.4764	3058.0015	3085.5729	3098.2961	3113.5019	3114.3074	3134.2953	3194.3476	3816.2287
CC1C(O)CCC2CN12	C[C@H]1[C@@H](O)CC[C@H]2CN12	
InChI=1S/C7H13NO/c1-5-7(9)3-2-6-4-8(5)6/h5-7,9H,2-4H2,1H3	InChI=1S/C7H13NO/c1-5-7(9)3-2-6-4-8(5)6/h5-7,9H,2-4H2,1H3/t5-,6-,7-,8?/m0/s1
