16
gdb 45156	3.06076	1.53389	1.1996	5.2225	68.77	-0.2542	0.0072	0.2614	1022.2791	0.125245	-437.861384	-437.854239	-437.853295	-437.893266	27.654	
O	-0.3573383429	 0.1818719648	 0.3405791035	-0.316621
C	-0.1002037275	 1.2954575387	 0.0248672855	 0.468004
O	-0.9434879548	 2.2129762863	-0.5786920454	-0.260896
C	 0.1182062444	 3.2111616465	-0.6740259907	 0.114391
C	 0.0981568649	 4.1806741182	 0.527312093	-0.339282
C	 1.0448223815	 3.2117290994	 1.2658614682	 0.349779
C	 2.1533261244	 3.578732892	 2.1742588141	-0.309859
N	 1.0109967399	 2.7757318051	 2.6499531936	-0.341684
C	 1.0918951697	 2.2502214891	 0.0586107724	-0.310366
H	 0.2344554939	 3.5784588041	-1.6911057218	 0.105142
H	 0.5440131839	 5.1566004251	 0.3178084895	 0.119183
H	-0.896311713	 4.3196865222	 0.9588031391	 0.127144
H	 3.098065109	 3.0431702281	 2.1308753454	 0.12778
H	 2.2326708855	 4.6199149493	 2.4786600749	 0.117844
H	 0.3645647099	 3.3463456664	 3.1892954753	 0.238503
H	 2.0529130714	 1.8910954646	-0.3030569266	 0.110937
86.9498	132.4154	252.3766	333.7405	369.8549	405.9063	486.7397	550.2485	669.0873	767.6815	828.1947	833.7668	862.3103	869.2001	907.5272	936.1709	966.0582	977.068	988.5961	1011.0182	1057.8163	1097.7917	1120.6349	1152.7264	1171.9568	1200.3528	1222.8366	1254.1807	1265.5228	1289.1824	1320.613	1405.5852	1461.8031	1512.7781	1944.4874	3061.0304	3101.321	3117.4921	3141.9773	3150.8869	3187.8461	3502.3465
O=C1OC2CC3(CN3)C12	O=C1O[C@H]2C[C@]3(CN3)[C@@H]12	
InChI=1S/C6H7NO2/c8-5-4-3(9-5)1-6(4)2-7-6/h3-4,7H,1-2H2	InChI=1S/C6H7NO2/c8-5-4-3(9-5)1-6(4)2-7-6/h3-4,7H,1-2H2/t3-,4+,6-/m0/s1
