17
gdb 47144	3.37582	1.35196	1.0433	4.6342	77.5	-0.2286	-0.0292	0.1994	1133.2897	0.138523	-418.032006	-418.024194	-418.02325	-418.064607	29.461	
O	 0.022486176	-0.0070899647	 0.3556890347	-0.406598
C	 0.0270657973	 1.205535749	 0.2218290018	 0.3626
N	-1.0738057445	 2.0179614081	 0.153961004	-0.326725
C	-0.7414061974	 3.4044186172	-0.0828159591	-0.206342
C	 0.7627037476	 3.3651490303	-0.1040096957	-0.226411
C	 1.2135886659	 2.1178597098	 0.0855200817	 0.264464
C	 2.6044896947	 1.6403953952	 0.1391792295	-0.118594
C	 3.017450502	 0.5868236065	 1.1169860118	-0.241656
N	 2.9574972289	 0.2750669722	-0.3104344092	-0.324844
H	-2.0070302837	 1.6428968009	 0.1468422207	 0.25788
H	-1.1540602037	 3.7709202204	-1.0341679856	 0.129861
H	-1.1232180961	 4.0630310366	 0.7106959084	 0.129433
H	 1.360252845	 4.2559713196	-0.2488390084	 0.115224
H	 3.3441043245	 2.3904239368	-0.1320718079	 0.088459
H	 4.0152357943	 0.6391731607	 1.5443948701	 0.116171
H	 2.250502287	 0.1693041117	 1.7613638142	 0.13262
H	 2.0915067322	-0.2377608402	-0.4737518912	 0.254458
83.6341	132.3832	184.2805	198.8118	332.9806	377.6808	435.6317	483.7481	510.5127	657.2904	732.6677	794.4301	803.1585	822.9577	842.2309	887.0712	960.2822	977.7709	999.3845	1010.7432	1074.6978	1101.2822	1132.6349	1166.5334	1185.0111	1220.7308	1230.4618	1291.2882	1322.1947	1326.0661	1366.646	1411.2161	1428.0602	1497.4808	1500.2145	1690.7902	1789.2601	2998.6951	3020.1144	3113.7687	3128.5772	3209.6244	3218.3813	3482.5065	3670.6385
O=C1NCC=C1C1CN1	O=C1NCC=C1[C@H]1CN1	
InChI=1S/C6H8N2O/c9-6-4(1-2-7-6)5-3-8-5/h1,5,8H,2-3H2,(H,7,9)	InChI=1S/C6H8N2O/c9-6-4(1-2-7-6)5-3-8-5/h1,5,8H,2-3H2,(H,7,9)/t5-/m1/s1
