16
gdb 51930	4.12656	0.60612	0.55704	2.6695	77.52	-0.2512	-0.0044	0.2469	1912.2334	0.123036	-437.838862	-437.82953	-437.828586	-437.875656	31.348	
O	 0.8082346848	 0.2192913805	-0.614433951	-0.26666
C	 0.8560397917	 1.2508211341	-0.0174123972	 0.182672
O	 0.5160543289	 2.4297830081	-0.579309666	-0.166909
C	 0.6731041919	 3.6030981253	 0.2436516597	-0.252314
C	 2.033561149	 4.1176589296	 0.2386707688	 0.095581
C	 3.1683381203	 4.525490434	 0.2298496283	 0.076416
C	 4.508720585	 5.0347661162	 0.2296598754	-0.16143
C	 5.3539569453	 4.8845403316	-0.9957171047	-0.22399
N	 4.8597333301	 6.2068008826	-0.6111217993	-0.302397
H	 1.1656519094	 1.3495933815	 1.0412200723	 0.083042
H	-0.0262273882	 4.3330495046	-0.1725754027	 0.159378
H	 0.3487604014	 3.3844705078	 1.2696256648	 0.144732
H	 5.0067380698	 5.0378783069	 1.1955654999	 0.123201
H	 6.423593432	 4.739705496	-0.8759816134	 0.132353
H	 4.9104084628	 4.379817457	-1.8485560021	 0.132898
H	 4.0557086558	 6.4530939242	-1.1839047929	 0.243427
26.6742	40.904	90.6602	126.4231	149.533	240.6893	299.759	344.8395	424.8968	529.7082	552.9426	675.7757	731.1354	815.8872	876.8352	961.2644	981.6295	995.8753	1023.7253	1044.5574	1092.0458	1118.7356	1145.8859	1157.3915	1221.2637	1258.6504	1296.1566	1301.0194	1388.0252	1396.5972	1432.7584	1481.9681	1505.5509	1872.3697	2355.659	2951.6985	3025.8279	3094.5658	3118.3805	3143.3182	3210.1461	3505.0145
O=COCC#CC1CN1	O=COCC#C[C@H]1CN1	
InChI=1S/C6H7NO2/c8-5-9-3-1-2-6-4-7-6/h5-7H,3-4H2	InChI=1S/C6H7NO2/c8-5-9-3-1-2-6-4-7-6/h5-7H,3-4H2/t6-/m0/s1
