22
gdb 105746	2.30409	1.33551	1.14533	3.8762	84.97	-0.3053	0.0395	0.3448	1231.5897	0.195412	-367.256216	-367.246674	-367.24573	-367.290997	35.363	
C	 0.03451627	 1.6166284424	 0.0898538776	-0.401234
C	 0.0022848751	 0.0865597392	 0.0484584615	-0.227278
C	-1.4098265052	-0.5332905445	-0.0497617965	 0.116807
C	-2.1764148436	-0.1782975612	-1.353443904	-0.225954
C	-3.2747634742	-1.2551732127	-1.4837765019	-0.215008
C	-2.7553968659	-2.4945363162	-0.6960233211	-0.215969
C	-1.3818817389	-2.084839424	-0.1233551886	-0.23355
C	-2.2100858423	-0.1223042493	 1.1151891607	 0.28321
N	-2.8371751562	 0.199226173	 2.0324050789	-0.361548
H	 1.0644123784	 1.9743248036	 0.1786494127	 0.118696
H	-0.391101931	 2.0535080137	-0.8189035949	 0.120685
H	-0.5293132851	 2.0016738501	 0.9449516489	 0.143601
H	 0.5715579667	-0.2761231927	-0.8159906966	 0.100922
H	 0.4975685581	-0.3155690777	 0.9398484802	 0.112108
H	-2.573484481	 0.838756264	-1.3516147105	 0.116393
H	-1.4605730422	-0.2524857065	-2.1805122865	 0.10224
H	-4.2097580117	-0.8944540476	-1.0469384183	 0.121254
H	-3.483125176	-1.4838754345	-2.5318984835	 0.103318
H	-3.4456068197	-2.7453515799	 0.1136356945	 0.120814
H	-2.6716574189	-3.3830843375	-1.3267319399	 0.103569
H	-0.5767283717	-2.361942234	-0.8133232241	 0.102203
H	-1.1593920246	-2.5453782879	 0.8421031214	 0.114723
48.7266	101.6361	122.3816	167.5543	191.7897	217.1455	270.158	370.8851	385.5109	474.9807	560.7874	624.3035	658.2496	681.2607	781.9583	807.6001	818.8217	888.6033	908.8034	950.3535	967.0737	986.1247	1033.8725	1056.9601	1073.7776	1098.7216	1117.8049	1163.2235	1221.3243	1229.2181	1260.1908	1262.0573	1308.5583	1310.655	1340.3749	1351.3893	1354.8759	1370.6275	1417.5591	1480.555	1483.2488	1492.9358	1495.5404	1501.959	1507.3571	1516.958	2344.0902	3028.0059	3037.7226	3041.8239	3043.9956	3059.2779	3066.685	3069.7065	3089.9637	3103.6745	3108.5197	3112.6132	3116.1562	3119.2718
CCC1(CCCC1)C#N	CCC1(CCCC1)C#N	
InChI=1S/C8H13N/c1-2-8(7-9)5-3-4-6-8/h2-6H2,1H3	InChI=1S/C8H13N/c1-2-8(7-9)5-3-4-6-8/h2-6H2,1H3
