21
gdb 72603	2.06317	1.86487	1.60514	1.7685	81.18	-0.2484	0.0905	0.3389	1015.1554	0.181497	-387.053007	-387.044434	-387.04349	-387.085467	33.989	
C	-0.1356355675	 1.5665174756	-0.0898764789	-0.497466
C	-0.0064004356	 0.0626732727	-0.0042666706	 0.28319
C	 0.9171669022	-0.6780751648	-1.0120587487	-0.28016
C	 1.6125377126	-1.4468868418	 0.1451499776	-0.28016
C	 0.715182385	-0.73511491	 1.1965611883	 0.283181
C	 1.3609512578	-0.0881431562	 2.4007145797	-0.497464
C	-0.6004729473	-1.4879610203	 1.3927676197	-0.027462
O	-1.6240799466	-0.5216053847	 1.6618435023	-0.258406
C	-1.2592380025	-0.759627386	 0.2964707607	-0.027471
H	 0.8449680888	 2.054269019	-0.0551467021	 0.111691
H	-0.6173215625	 1.8648201861	-1.0295279794	 0.114041
H	-0.7386016196	 1.9508060295	 0.7380613201	 0.132218
H	 0.4006895926	-1.2901922642	-1.7575446426	 0.095539
H	 1.5894006519	 0.0003906602	-1.5435595587	 0.102111
H	 1.5289010894	-2.537554708	 0.1199733765	 0.095539
H	 2.6703587195	-1.1947297722	 0.2553274519	 0.102111
H	 2.1417703705	 0.6205037457	 2.1026697255	 0.111688
H	 0.617799159	 0.4513987327	 2.9951441989	 0.132219
H	 1.8306565256	-0.8420273084	 3.0449100503	 0.114042
H	-0.7613671945	-2.4961911849	 1.7619400491	 0.095509
H	-2.0484266387	-1.0732116801	-0.3799533393	 0.095509
127.1129	183.4362	219.702	224.3751	246.1068	255.9228	326.6744	361.6271	445.6905	562.4123	594.823	669.9349	672.2561	747.89	849.9691	855.5387	857.4039	874.0422	921.478	949.6507	967.9552	967.9676	984.9937	1046.4459	1057.4697	1128.8417	1137.2907	1178.5911	1201.1687	1215.9751	1221.9387	1238.4401	1249.3231	1287.358	1327.3609	1329.7211	1372.2101	1402.66	1412.4909	1477.469	1484.3538	1492.0481	1494.7114	1495.393	1501.6464	3020.1991	3021.9212	3047.0123	3054.2486	3079.2144	3081.4782	3089.3815	3107.24	3108.065	3110.8282	3156.5267	3172.0125
CC12CCC1(C)C1OC21	C[C@@]12CC[C@]1(C)[C@H]1O[C@@H]21	
InChI=1S/C8H12O/c1-7-3-4-8(7,2)6-5(7)9-6/h5-6H,3-4H2,1-2H3	InChI=1S/C8H12O/c1-7-3-4-8(7,2)6-5(7)9-6/h5-6H,3-4H2,1-2H3/t5-,6+,7+,8-
