19
gdb 121081	5.50334	0.70778	0.64829	4.6757	71.82	-0.2634	0.0149	0.2783	1661.9687	0.159504	-460.20544	-460.196369	-460.195424	-460.240099	32.623	
O	 0.0256622078	 1.4241230285	-0.1427306663	-0.416876
C	 0.0700327967	 0.0141624446	-0.006872099	-0.0794
C	-1.3673395429	-0.4950946908	-0.0404491107	-0.197322
C	-1.4802820814	-2.0166520112	 0.0489206896	-0.013146
C	-0.992249787	-2.6217053375	 1.3807514836	-0.086835
O	-1.7076920445	-3.8550678274	 1.5448728904	-0.218336
C	-2.8376015187	-3.8679575131	 0.7808942109	 0.427995
O	-3.60508323	-4.7844253029	 0.7917616405	-0.33306
C	-2.9092435516	-2.5696124974	-0.0152790847	-0.384178
H	 0.925980503	 1.7608559673	-0.1156394461	 0.2891
H	 0.6458461923	-0.4507922518	-0.8244552586	 0.089256
H	 0.5558732269	-0.278186618	 0.938679398	 0.089728
H	-1.9252644642	-0.0305621325	 0.7824917532	 0.109609
H	-1.8304694064	-0.1435021796	-0.969375658	 0.11646
H	-0.8974996613	-2.4705092956	-0.7631353607	 0.090657
H	 0.0747738616	-2.8530363067	 1.4000354434	 0.124411
H	-1.2236972556	-1.9623658121	 2.2281312948	 0.113763
H	-3.6205088815	-1.9024475572	 0.4884779375	 0.137385
H	-3.2889486232	-2.7575188667	-1.020218438	 0.140789
64.7608	97.3108	101.7565	171.4693	189.8178	270.3695	313.9996	333.2437	443.9915	515.3378	555.4361	649.2759	694.2213	795.5374	841.3915	880.9175	920.5326	979.7922	1010.3399	1061.8289	1069.6564	1084.6019	1108.7344	1139.6837	1172.4125	1190.7843	1224.2568	1243.1383	1268.9859	1276.6546	1315.7119	1325.855	1357.4765	1375.7523	1409.5362	1465.5829	1466.5267	1493.0157	1521.3855	1527.7222	1887.8159	2956.5992	2981.3618	3015.4669	3023.3786	3032.931	3043.5148	3078.0322	3105.9823	3129.323	3831.1523
OCCC1COC(=O)C1	OCC[C@H]1COC(=O)C1	
InChI=1S/C6H10O3/c7-2-1-5-3-6(8)9-4-5/h5,7H,1-4H2	InChI=1S/C6H10O3/c7-2-1-5-3-6(8)9-4-5/h5,7H,1-4H2/t5-/m1/s1
