18
gdb 99156	4.12714	0.82229	0.72434	2.7628	70.96	-0.2315	0.0611	0.2925	1559.7812	0.145952	-476.237262	-476.227342	-476.226398	-476.273491	34.601	
C	 0.0703652288	 1.2591309567	-0.0297821465	-0.231096
O	-0.0872561614	-0.1326313227	 0.247094051	-0.270039
C	-1.3370720322	-0.6143618921	 0.0126142962	 0.531282
O	-2.2629276212	 0.0491692506	-0.400151716	-0.422876
N	-1.3853263326	-1.9367972412	 0.3178391387	-0.380676
C	-2.5871779306	-2.6924176399	 0.2070239022	 0.055804
C	-2.7236989965	-3.7455077917	-0.8804830265	-0.334749
C	-2.4923565138	-4.1468400228	 0.557837386	 0.057082
O	-1.2211928979	-4.5784823133	 0.9573173016	-0.425113
H	 1.1098725242	 1.491407919	 0.2049909141	 0.126327
H	-0.138327963	 1.475524265	-1.080988133	 0.136074
H	-0.6012078092	 1.8601145315	 0.5892658296	 0.136199
H	-0.570323121	-2.3959119982	 0.6923084197	 0.263795
H	-3.4751343685	-2.1412087507	 0.4937901149	 0.124277
H	-3.6991286513	-3.9196024087	-1.3211153418	 0.120689
H	-1.8807536803	-3.846242929	-1.5556903846	 0.119111
H	-3.3171448704	-4.5937727903	 1.1106506814	 0.098162
H	-1.0334085132	-5.415986272	 0.5219186831	 0.295749
30.8955	82.3722	102.1494	115.7181	156.1109	226.0024	286.7282	303.16	336.6397	428.612	502.4136	516.6329	577.1122	727.1897	762.1668	781.4265	831.8544	916.5453	967.6529	1004.572	1015.1405	1056.5062	1109.1916	1128.6296	1169.5911	1183.7209	1205.8039	1214.5121	1247.9224	1257.8057	1305.4996	1375.4117	1415.7519	1464.2568	1481.4998	1483.283	1502.2067	1546.8506	1815.1709	3047.0603	3111.9846	3118.9491	3134.1977	3149.6394	3181.6794	3229.142	3641.4541	3816.6003
COC(=O)NC1CC1O	COC(=O)N[C@H]1C[C@H]1O	
InChI=1S/C5H9NO3/c1-9-5(8)6-3-2-4(3)7/h3-4,7H,2H2,1H3,(H,6,8)	InChI=1S/C5H9NO3/c1-9-5(8)6-3-2-4(3)7/h3-4,7H,2H2,1H3,(H,6,8)/t3-,4+/m0/s1
