16
gdb 79616	2.40967	1.87754	1.48815	2.5745	68.23	-0.2326	-0.0511	0.1815	931.9225	0.124051	-437.834024	-437.826535	-437.82559	-437.866068	28.504	
C	-0.3171311549	 1.4735129969	 0.3129324519	-0.310438
N	 0.0217925039	 0.1023600132	-0.0619780055	-0.082798
C	 0.5036558259	-0.3926988687	-1.3238995273	-0.064821
C	 1.2267101046	 0.514120372	-2.3229678986	 0.029203
O	 1.3725762619	 1.8690975295	-1.9020766198	-0.23606
C	 2.4930567553	 0.9843955535	-1.7357432631	-0.101622
C	 2.6064371416	 0.3508170445	-0.3516815001	 0.403344
O	 3.6025162651	 0.3548317719	 0.3252428159	-0.304289
C	 1.3532705886	-0.4733648911	-0.0738285297	-0.172702
H	-1.1473438039	 1.8094970297	-0.3141893711	 0.129798
H	-0.6636355193	 1.4509971927	 1.3511254518	 0.123664
H	 0.4947823775	 2.1966002566	 0.2185605126	 0.135105
H	-0.0169832161	-1.2556409047	-1.7323895884	 0.102302
H	 1.093402181	 0.358910967	-3.3896382962	 0.113662
H	 3.396146871	 1.2456343912	-2.2794871504	 0.121768
H	 1.5099901777	-1.3645197643	 0.5297739281	 0.113885
107.383	122.6837	181.7505	297.3595	335.1825	390.7041	441.7596	551.4225	575.1973	680.3638	718.5424	758.9612	811.7344	860.7368	873.7459	894.0211	947.1692	996.8806	1030.7968	1063.3063	1076.4843	1112.4801	1150.6852	1174.4569	1188.2374	1241.1456	1278.133	1310.31	1324.4054	1388.4684	1405.9664	1461.7092	1488.1317	1500.858	1835.196	3040.2757	3107.9274	3127.9389	3131.5316	3138.8422	3158.8816	3170.475
CN1C2C3OC3C(=O)C12	CN1[C@H]2[C@H]3O[C@H]3C(=O)[C@@H]12	
InChI=1S/C6H7NO2/c1-7-2-3(7)5-6(9-5)4(2)8/h2-3,5-6H,1H3	InChI=1S/C6H7NO2/c1-7-2-3(7)5-6(9-5)4(2)8/h2-3,5-6H,1H3/t2-,3+,5+,6-,7?/m0/s1
