18
gdb 65699	4.20755	0.89939	0.83228	2.8096	80.59	-0.2453	-0.0389	0.2064	1387.8875	0.144135	-401.897246	-401.887424	-401.88648	-401.932704	35.22	
C	-0.0900361805	 1.7288357817	 0.1687717003	-0.45081
C	-0.0934845932	 0.2182612961	 0.0707956322	 0.316734
C	-1.3683319916	-0.4082516776	-0.5070200203	-0.354545
C	-1.3767936927	-0.2687134699	-2.0185163579	 0.160225
O	-0.8696680605	-1.082314049	-2.7496824079	-0.238819
N	 1.183660106	-0.3896540086	-0.3087449038	-0.342748
C	 0.6718074006	-0.6122229481	 1.0663869371	-0.314115
C	 1.4108945917	-0.0413908502	 2.1579095941	 0.367553
C	 2.0020206093	 0.426384656	 3.0947686685	-0.420667
H	 0.8549224988	 2.0792408434	 0.5860318377	 0.148919
H	-0.2139993524	 2.1829761521	-0.8203608789	 0.121341
H	-0.9060564808	 2.078813882	 0.8100191019	 0.119965
H	-1.3955552563	-1.4779655904	-0.2789362715	 0.12524
H	-2.2519865498	 0.0724953029	-0.0733638671	 0.115813
H	-1.848953809	 0.6509668348	-2.4285658775	 0.089893
H	 1.0290894783	-1.2192036748	-0.879464726	 0.246813
H	 0.2438272416	-1.589276304	 1.2823016546	 0.110445
H	 2.5362381606	 0.8385018937	 3.9147826044	 0.198762
42.18	68.3146	122.4413	138.6505	188.7071	229.1735	311.058	343.9027	383.9324	397.071	524.51	554.7178	583.343	614.0863	658.6626	700.9477	818.0282	873.0948	896.846	955.4566	979.9417	998.2797	1016.4688	1080.9993	1101.4022	1126.6949	1202.0082	1203.8952	1262.2348	1311.4383	1364.7265	1422.1444	1422.2309	1432.726	1468.6027	1488.9494	1492.3572	1820.4065	2238.7903	2890.0996	3036.4206	3043.7135	3097.8163	3103.2967	3121.0005	3143.8666	3488.8604	3503.4414
CC1(CC=O)NC1C#C	C[C@@]1(CC=O)N[C@H]1C#C	
InChI=1S/C7H9NO/c1-3-6-7(2,8-6)4-5-9/h1,5-6,8H,4H2,2H3	InChI=1S/C7H9NO/c1-3-6-7(2,8-6)4-5-9/h1,5-6,8H,4H2,2H3/t6-,7-/m0/s1
