19
gdb 40663	3.7848	1.18823	1.0028	1.6303	80.34	-0.2329	0.0133	0.2462	1202.1761	0.160569	-385.858702	-385.851128	-385.850183	-385.891112	29.841	
C	 0.2954603955	 1.5647925867	 0.0491800737	-0.185665
O	 1.2373575305	 0.5102221945	-0.1558351446	-0.240696
C	-0.1453372338	 0.166411757	-0.0306794544	 0.09622
C	-0.5347919151	-0.6254637562	 1.1999818921	-0.06663
C	-2.0182555437	-0.5611278562	 1.5296568538	-0.105948
C	-2.5463859524	-1.7720869501	 1.7216576984	-0.078699
C	-1.5507698101	-2.8570007812	 1.4836289479	-0.08185
C	-1.0349432098	-2.9336789656	 0.0591040076	-0.279561
C	-0.2742113103	-2.133382289	 1.0870774569	-0.05252
H	 0.349717322	 2.0557521466	 1.0206274167	 0.11028
H	 0.1460042868	 2.2325150456	-0.7982652571	 0.112856
H	-0.6020244696	-0.1677344085	-0.9633224688	 0.090667
H	 0.054318431	-0.2132144886	 2.0321297526	 0.084993
H	-2.5575411278	 0.3781308484	 1.5808440866	 0.09392
H	-3.579201122	-1.9697630808	 1.9861950766	 0.097816
H	-1.5518537215	-3.7513607704	 2.0964332224	 0.087131
H	-0.5776337171	-3.863760153	-0.262068027	 0.11169
H	-1.6071854324	-2.4231330614	-0.7083278956	 0.111647
H	 0.6956914097	-2.5066432278	 1.3910237223	 0.094348
74.9219	134.9536	162.9305	319.2767	334.2502	392.8507	496.523	523.5781	689.3416	749.1222	773.9902	793.9925	826.4989	857.5736	864.3432	910.3555	942.3431	953.877	976.4476	990.5334	1020.73	1054.0817	1071.6711	1086.5491	1098.2316	1105.2379	1132.029	1149.013	1162.7296	1177.8939	1198.4155	1262.107	1291.8475	1298.2049	1305.6873	1368.5854	1384.8972	1441.0931	1478.2982	1528.1027	1665.9819	2997.8285	3078.2355	3101.4819	3126.334	3163.9549	3169.8061	3184.2321	3187.0407	3208.6494	3214.9451
C1OC1C1C=CC2CC12	C1O[C@H]1[C@H]1C=C[C@H]2C[C@@H]12	
InChI=1S/C8H10O/c1-2-6(8-4-9-8)7-3-5(1)7/h1-2,5-8H,3-4H2	InChI=1S/C8H10O/c1-2-6(8-4-9-8)7-3-5(1)7/h1-2,5-8H,3-4H2/t5-,6-,7+,8+/m0/s1
