15
gdb 6353	4.33422	1.31157	1.05823	3.5536	61.01	-0.2482	0.0186	0.2668	1088.1621	0.118785	-433.159592	-433.150847	-433.149903	-433.19364	30.542	
C	-0.0044739065	 1.4322728242	-0.1506734691	-0.221088
O	-0.0393872095	 0.0110852288	-0.2909782799	-0.201349
C	-1.2100138887	-0.5713525892	-0.031727239	 0.503155
N	-2.2705732636	 0.0906007212	 0.2033198817	-0.580071
N	-1.114394697	-1.9668554159	-0.130212221	-0.43072
C	-0.0053548741	-2.7637036078	 0.2008908673	 0.449619
N	-0.2491501099	-4.1013711686	-0.0847382455	-0.565771
O	 1.0077954553	-2.3657242015	 0.7200986581	-0.347259
H	 1.0311934135	 1.7152520905	-0.3403712474	 0.132606
H	-0.6742916765	 1.9089047007	-0.8711544968	 0.13773
H	-0.3071259228	 1.7281790349	 0.8569077074	 0.141098
H	-3.0573472718	-0.5158248471	 0.4195047165	 0.211369
H	-2.0030590891	-2.4402148025	-0.1676077905	 0.251131
H	-0.7945564375	-4.3138110406	-0.906892567	 0.253301
H	 0.5758434782	-4.6727034472	 0.0210910452	 0.26625
48.3496	80.8269	131.1464	169.8702	204.8498	317.9741	384.937	420.1165	433.4961	490.9296	567.3244	617.9363	707.3857	755.58	776.9517	790.192	884.088	1008.5463	1094.1921	1122.1095	1127.3264	1182.319	1222.2163	1295.0295	1390.61	1477.9135	1482.4861	1493.4689	1500.9232	1624.9438	1738.1696	1845.2141	3050.3577	3124.721	3156.6274	3523.9153	3572.3275	3638.5163	3686.9196
COC(=N)NC(N)=O	COC(=N)NC(=O)N	
InChI=1S/C3H7N3O2/c1-8-3(5)6-2(4)7/h1H3,(H4,4,5,6,7)	InChI=1S/C3H7N3O2/c1-8-3(5)6-2(4)7/h1H3,(H4,4,5,6,7)
