17
gdb 12140	4.98235	1.54095	1.41538	2.2841	68.84	-0.2512	0.0826	0.3338	925.1973	0.141924	-363.801673	-363.794407	-363.793463	-363.832899	28.183	
C	 0.0551453058	 1.5237760503	-0.0294294711	-0.483261
C	-0.0486803639	 0.0334112392	 0.0812715145	 0.346005
C	-1.3571310544	-0.7890525221	 0.0457839081	-0.39677
C	-0.7051425394	-1.7376797743	 1.0734569526	 0.458913
C	-1.3286437249	-2.4805010776	 2.1655086841	-0.269504
O	-0.7601419251	-3.1566358709	 1.0330180243	-0.27482
C	 0.573831606	-0.9339065794	 1.0643858663	-0.18175
N	 1.080514536	-0.8016742152	-0.3049279107	-0.358336
H	 1.0749520067	 1.8507397209	 0.1882995167	 0.135406
H	-0.1955743024	 1.8574960969	-1.0432383567	 0.124222
H	-0.6309795872	 2.0197260631	 0.6651926165	 0.117665
H	-2.2269004901	-0.2637339999	 0.4504855485	 0.112365
H	-1.6186262828	-1.2220720491	-0.925282167	 0.108604
H	-0.7938949023	-2.6185393923	 3.1048788886	 0.11727
H	-2.4148156593	-2.5231530558	 2.2402214685	 0.115744
H	 1.2604542968	-0.7739649397	 1.8882491275	 0.093224
H	 0.8200097507	-1.5932512543	-0.8911140909	 0.235022
102.727	205.5538	242.5328	288.2696	331.2598	396.3272	422.1418	495.581	572.6141	669.4108	789.5698	814.4765	841.6692	894.6544	933.5103	949.7638	978.2466	991.2149	1045.8972	1098.8238	1116.8994	1126.4913	1143.5048	1156.9915	1170.6772	1193.1642	1230.3284	1244.0433	1296.1641	1399.8136	1437.0673	1447.6204	1482.4288	1485.2324	1495.4533	1538.5029	3030.7059	3046.3621	3077.1034	3090.1082	3100.9689	3122.8896	3162.4322	3176.8325	3461.5402
CC12CC3(CO3)C1N2	C[C@]12C[C@]3(CO3)[C@H]1N2	
InChI=1S/C6H9NO/c1-5-2-6(3-8-6)4(5)7-5/h4,7H,2-3H2,1H3	InChI=1S/C6H9NO/c1-5-2-6(3-8-6)4(5)7-5/h4,7H,2-3H2,1H3/t4-,5-,6-/m0/s1
