22
gdb 105457	2.56862	0.89066	0.74563	4.2925	86.82	-0.2813	0.0382	0.3194	1588.4326	0.193492	-367.22681	-367.216727	-367.215783	-367.262568	36.992	
C	 0.6049924108	-0.1559864903	 1.3811046576	-0.383537
C	 0.0351610621	-0.1986687354	-0.0422606223	-0.261134
C	-1.3896508882	-0.7334367172	-0.1328291388	 0.398937
C	-2.4704679749	 0.0577758876	 0.5888592057	-0.27648
C	-2.6752069072	 1.4703623758	-0.0045916329	-0.342947
C	-3.7647303847	 2.1949440821	 0.6442644569	 0.258187
N	-4.6306852737	 2.7513707907	 1.1698952361	-0.307263
C	-1.7939497482	-1.4194515914	-1.4190592016	-0.316542
C	-1.5565265463	-2.2347127006	-0.1702370529	-0.318896
H	 1.6494482737	 0.1698724486	 1.3715275166	 0.116725
H	 0.0535633633	 0.5381182945	 2.0234319966	 0.119028
H	 0.5649204611	-1.1444092657	 1.8505199165	 0.121986
H	 0.0898199276	 0.8031620649	-0.4892233944	 0.09595
H	 0.677421962	-0.8319104133	-0.6657898517	 0.098369
H	-3.4196446335	-0.4842959576	 0.5274496967	 0.116968
H	-2.2375451316	 0.1495474755	 1.6552362433	 0.121897
H	-1.7620942731	 2.0677683688	 0.0905666182	 0.153201
H	-2.8916467786	 1.3962779132	-1.0764180311	 0.153446
H	-2.8173695767	-1.3070470361	-1.7631555129	 0.111308
H	-1.0635511244	-1.4820888613	-2.2188211696	 0.113027
H	-0.6610812633	-2.8457397697	-0.1235114424	 0.1136
H	-2.416597826	-2.6733312831	 0.3246373163	 0.11417
52.1519	67.847	123.9868	128.7124	206.1899	221.0256	271.5753	342.9777	346.6262	398.5151	410.0214	515.0334	527.7036	715.1391	761.5166	785.8788	797.9576	895.2251	908.3384	926.8639	952.6508	969.1455	1016.3225	1027.5743	1045.9846	1052.3831	1083.2803	1095.057	1119.0263	1188.0069	1192.8746	1269.6054	1283.787	1300.4082	1338.1031	1348.5402	1377.9131	1403.6055	1410.8343	1467.5422	1470.1592	1486.3877	1490.8869	1502.6501	1505.7106	1513.3315	2361.0854	3015.975	3036.6136	3042.0653	3049.8641	3053.0751	3075.1035	3095.4525	3105.4631	3107.2611	3125.161	3130.6389	3203.1113	3217.4452
CCC1(CCC#N)CC1	CCC1(CCC#N)CC1	
InChI=1S/C8H13N/c1-2-8(5-6-8)4-3-7-9/h2-6H2,1H3	InChI=1S/C8H13N/c1-2-8(5-6-8)4-3-7-9/h2-6H2,1H3
