17
gdb 128799	6.67813	0.8106	0.73018	2.7143	71.91	-0.2069	0.027	0.2339	1523.0863	0.13743	-451.343569	-451.334555	-451.33361	-451.378344	31.84	
C	 0.0384596569	 1.3087211956	-0.0261311143	-0.227633
O	-0.0102112211	-0.1002854748	-0.0543685447	-0.248498
C	-1.3229710652	-0.6078706009	 0.0308803793	-0.173963
C	-1.2416508996	-2.0997337859	 0.0304127076	 0.354969
N	-2.2574815985	-2.9466380094	 0.0199297018	-0.379428
C	-1.6295378659	-4.1605988183	 0.0366692417	 0.382908
N	-2.341098436	-5.3435510156	 0.0949464056	-0.58518
N	-0.3030492984	-4.1164130392	 0.0484175969	-0.299731
N	-0.0811114164	-2.7675347102	 0.0520451693	-0.223291
H	 1.0888410629	 1.5988134882	-0.097291077	 0.134192
H	-0.5126584994	 1.7493660182	-0.8706483113	 0.11404
H	-0.3815216698	 1.7097723741	 0.9087721964	 0.11415
H	-1.8236780647	-0.261506844	 0.9501956213	 0.122216
H	-1.9412759029	-0.2692681084	-0.8161276187	 0.122493
H	-3.2566150799	-5.2709162654	-0.3239344973	 0.255772
H	-1.8207838683	-6.1423689051	-0.2375739595	 0.25511
H	 0.8496732563	-2.3872777189	 0.0510246129	 0.281874
38.263	67.8919	130.4355	202.8822	223.3103	294.1847	340.9299	350.725	360.2834	493.3947	537.6001	629.8391	687.2134	720.2848	779.7157	806.8777	993.5742	1022.6103	1043.6352	1076.6693	1092.4489	1162.581	1179.524	1184.8664	1228.327	1234.6111	1289.8478	1373.304	1436.3131	1477.8397	1485.3497	1496.3769	1504.3989	1521.1423	1577.7858	1599.172	1648.4235	2966.6477	2982.2326	2992.5843	3029.384	3124.0728	3571.6967	3677.2308	3688.4939
COCC1=NC(N)=NN1	COCc1nc(N)n[nH]1	
InChI=1S/C4H8N4O/c1-9-2-3-6-4(5)8-7-3/h2H2,1H3,(H3,5,6,7,8)	InChI=1S/C4H8N4O/c1-9-2-3-6-4(5)8-7-3/h2H2,1H3,(H3,5,6,7,8)
