18
gdb 78835	2.94684	1.49446	1.28132	3.5883	75.2	-0.2461	-0.0279	0.2182	1044.1981	0.147101	-401.88392	-401.876101	-401.875157	-401.916394	29.831	
C	-0.2468459141	 1.3556676382	 0.0262056078	-0.416656
C	 0.0517977589	-0.1387841117	-0.0146906103	 0.001391
C	 0.985419177	-0.5379244125	-1.1603713567	-0.023593
C	 2.1909634183	-0.3903113648	-0.3142247147	-0.052359
C	 1.2236850156	-0.5703559135	 0.9180772943	-0.119368
C	 1.3719122784	-2.0858506575	 0.611282374	-0.043499
C	 0.1903573667	-2.9962649392	 0.812104265	 0.150794
O	-0.5278151756	-3.4039496567	-0.0643759463	-0.244031
N	 1.7943695257	-1.7514787727	-0.7824342742	-0.151745
H	 0.6721228022	 1.9474274184	-0.0475217644	 0.119501
H	-0.9001114469	 1.6477072326	-0.8027066902	 0.122412
H	-0.7526860357	 1.6273616625	 0.9585872805	 0.117891
H	-0.8744665365	-0.7149159578	 0.0834308125	 0.088037
H	 0.8650160805	-0.3694947016	-2.2225096756	 0.101966
H	 3.1736993867	 0.0374954287	-0.4575663378	 0.103134
H	 1.3256623604	-0.1625266718	 1.9222148191	 0.077752
H	 2.2353482356	-2.5093913128	 1.1398878307	 0.099014
H	 0.0106048028	-3.2651456477	 1.8814433663	 0.06936
80.1313	156.2881	181.4005	241.7518	272.9147	284.7897	421.4489	513.1411	670.9371	742.6635	756.8779	791.3706	830.6708	838.7081	864.1194	904.6307	938.8529	968.8525	1000.7424	1010.0185	1027.2531	1058.8681	1087.7338	1115.836	1123.9154	1142.289	1171.6386	1195.4055	1206.4131	1247.5778	1285.0461	1326.5902	1365.9532	1382.0497	1413.3083	1419.2023	1494.6818	1500.9125	1828.7548	2838.6976	3029.964	3036.1526	3052.2502	3098.4351	3101.2848	3132.2808	3201.3906	3215.5795
CC1C2C3C1C(C=O)N23	C[C@H]1[C@H]2[C@H]3[C@@H]1[C@@H](C=O)N23	
InChI=1S/C7H9NO/c1-3-5-4(2-9)8-6(3)7(5)8/h2-7H,1H3	InChI=1S/C7H9NO/c1-3-5-4(2-9)8-6(3)7(5)8/h2-7H,1H3/t3-,4-,5+,6+,7-,8?/m1/s1
