15
gdb 19507	3.66206	1.96214	1.80053	3.6278	66.19	-0.248	-0.0086	0.2394	785.9064	0.119995	-362.662046	-362.655487	-362.654543	-362.69287	24.811	
O	 0.3098973055	 0.1815379098	 0.5817715164	-0.297218
C	 0.2718887463	 1.3425414742	 0.2575085345	 0.155181
N	 1.2602050894	 2.0085044487	-0.4374251808	-0.068215
C	 1.9201778105	 3.2551946076	-0.1227786393	-0.059256
C	 1.9903147669	 3.6940990135	 1.3420089206	-0.279839
C	 2.765825696	 2.579638178	 2.0133005876	-0.075369
C	 3.1640318904	 1.6428056267	 1.150441076	-0.058348
C	 2.6964983179	 1.9538341387	-0.2358478361	-0.073529
H	-0.6140581794	 1.9902252448	 0.4175458456	 0.077344
H	 1.9220149811	 4.0043656201	-0.9085134399	 0.105294
H	 2.5025959002	 4.6602453816	 1.4306143696	 0.121878
H	 0.9952029293	 3.8332267278	 1.7843753456	 0.123732
H	 2.9252037565	 2.5530083942	 3.0851030417	 0.107358
H	 3.7264489501	 0.7504201409	 1.3921365541	 0.113592
H	 3.2884620791	 1.6851057834	-1.1052007955	 0.107394
105.3673	155.5826	247.2741	323.3945	428.3277	512.8597	611.6756	710.2307	735.8131	799.1035	840.8219	877.4375	922.1858	951.0591	958.2076	987.9691	1019.7396	1034.4084	1046.8742	1105.3089	1121.7344	1141.5897	1185.3487	1297.4419	1301.8255	1336.3104	1374.568	1415.6111	1429.7753	1470.6344	1667.1164	1803.0028	2926.2138	3026.8393	3054.7195	3155.5931	3164.5859	3197.1234	3228.1709
O=CN1C2CC=CC12	O=CN1[C@H]2CC=C[C@@H]12	
InChI=1S/C6H7NO/c8-4-7-5-2-1-3-6(5)7/h1-2,4-6H,3H2	InChI=1S/C6H7NO/c8-4-7-5-2-1-3-6(5)7/h1-2,4-6H,3H2/t5-,6+,7?/m1/s1
