19
gdb 98303	2.95504	0.97396	0.87088	2.2487	72.48	-0.2647	0.0086	0.2733	1408.2417	0.15685	-460.173766	-460.163685	-460.16274	-460.210769	34.579	
C	-0.2637388392	 1.4526348895	 0.1876134077	-0.241652
O	-0.2860010987	 0.0438420771	 0.4590806869	-0.232231
C	 0.8863407191	-0.481637817	 0.8640043	 0.443577
O	 1.8954901738	 0.1643620094	 1.0076558027	-0.372291
C	 0.7810469237	-1.9780790862	 1.1044194214	-0.139071
C	 1.5953311645	-2.736982703	 0.0398109772	-0.404173
C	 1.3039009891	-2.2915040184	 2.4955631432	 0.103015
C	 0.4099065029	-2.4755691195	 3.6441432428	-0.185035
O	 1.0090040241	-3.5970818815	 2.9869065628	-0.241123
H	 0.4547197017	 1.6806634945	-0.603592598	 0.142614
H	-1.2749460323	 1.7096280732	-0.1273835741	 0.134807
H	 0.0134055622	 2.0124922519	 1.0841969673	 0.142308
H	-0.2690670593	-2.2749195648	 1.0445633044	 0.099689
H	 2.6370809621	-2.4041070934	 0.0484600007	 0.13823
H	 1.5649284197	-3.8084124865	 0.2526416625	 0.139646
H	 1.1885184324	-2.5691112033	-0.9615309632	 0.122685
H	 2.3233320765	-1.9533411672	 2.6808461189	 0.113116
H	 0.7719707514	-2.27603008	 4.6513531627	 0.11981
H	-0.6665261537	-2.3773927248	 3.508877514	 0.116079
14.9396	71.1681	111.35	132.8583	183.9879	210.4426	237.1142	257.9421	314.9073	362.3841	410.8654	493.4085	713.5353	759.628	827.5529	862.0784	884.8191	942.415	974.3648	1015.0653	1057.1356	1099.0889	1111.809	1154.6051	1176.494	1178.5024	1187.1715	1190.1112	1216.7923	1287.0807	1314.3286	1358.1322	1402.3129	1441.8668	1472.8422	1481.5681	1496.2277	1498.6347	1501.3968	1531.3405	1811.4349	3045.4571	3053.6405	3081.4704	3084.9853	3118.556	3121.762	3128.9552	3130.9778	3161.1897	3172.4858
COC(=O)C(C)C1CO1	COC(=O)[C@@H](C)[C@H]1CO1	
InChI=1S/C6H10O3/c1-4(5-3-9-5)6(7)8-2/h4-5H,3H2,1-2H3	InChI=1S/C6H10O3/c1-4(5-3-9-5)6(7)8-2/h4-5H,3H2,1-2H3/t4-,5+/m0/s1
