16
gdb 62821	2.38189	1.54429	1.36551	4.3816	70.43	-0.2769	-0.0143	0.2626	1015.7957	0.122922	-437.82839	-437.820338	-437.819394	-437.860774	31.075	
C	-0.1441597678	 1.6667866555	-0.0607233083	-0.470952
C	-0.0151826876	 0.1601582342	-0.0254841387	 0.43666
O	-1.2706799167	-0.3806512141	-0.2398942415	-0.46995
C	 1.1768770351	-0.6118675189	-0.6962521222	-0.041588
C	 2.1568770119	-0.1268891238	 0.3895515306	-0.272364
C	 0.8559571396	-0.5846490684	 1.084030167	 0.245958
O	 0.8429715012	-1.7727013055	 0.1886078425	-0.354753
C	 0.5787498083	-0.7692349794	 2.4842026643	 0.175985
N	 0.3365158298	-0.8651476434	 3.61058225	-0.338325
H	 0.7991624436	 2.1866911498	 0.1044076581	 0.126072
H	-0.5440557183	 1.9678582601	-1.0331157957	 0.143186
H	-0.8581670839	 1.9836997277	 0.704267604	 0.151508
H	-1.151817733	-1.3420339707	-0.2075685823	 0.294904
H	 1.3576090695	-0.8354700012	-1.7464219653	 0.115203
H	 2.9955876344	-0.8000174386	 0.5602443975	 0.136517
H	 2.437458024	 0.9240866769	 0.4351917301	 0.121939
120.327	135.4611	167.7076	261.9208	330.1171	363.5139	407.8254	504.9191	521.5549	547.1971	595.855	622.9023	637.1981	731.0505	741.2895	788.1703	903.2973	940.3477	979.9937	993.0985	1024.2846	1086.7545	1108.1881	1118.5153	1192.1594	1211.1182	1216.9307	1272.2155	1286.1348	1394.3892	1438.3923	1479.3431	1489.4268	1504.2174	2353.0972	3058.5972	3103.2019	3123.4934	3142.8317	3153.3343	3181.6844	3724.4706
CC1(O)C2CC1(O2)C#N	C[C@@]1(O)[C@H]2C[C@@]1(O2)C#N	
InChI=1S/C6H7NO2/c1-5(8)4-2-6(5,3-7)9-4/h4,8H,2H2,1H3	InChI=1S/C6H7NO2/c1-5(8)4-2-6(5,3-7)9-4/h4,8H,2H2,1H3/t4-,5-,6-/m1/s1
