18
gdb 19310	4.6304	1.28055	1.08327	1.3784	68.4	-0.2382	0.0882	0.3264	1107.8647	0.152444	-384.883332	-384.875161	-384.874217	-384.917038	29.512	
C	-0.4294593994	 1.7657486214	-0.6053526725	-0.100818
O	-0.9273423388	 0.4976658664	-0.9882129103	-0.250608
C	-1.1539312143	-0.3803048291	 0.0774904232	 0.156809
C	-1.3396840722	-1.8175913385	-0.2841889585	-0.297514
C	-0.1006042838	-1.3786624787	 0.4732349614	-0.269706
C	 1.0165701803	 1.75596479	-0.169877501	 0.080473
C	 1.551188828	 2.8073465026	 0.7046190869	-0.178643
O	 1.2850227225	 1.5003212748	 1.2111942763	-0.226107
H	-0.5324710057	 2.3997626729	-1.4936717624	 0.110251
H	-1.0388555544	 2.2013199957	 0.2021991291	 0.09517
H	-1.7764165344	 0.0413009331	 0.8671227296	 0.083962
H	-2.1026375445	-2.3887859399	 0.2325329771	 0.112811
H	-1.2146368298	-2.0690198189	-1.331402286	 0.122704
H	 0.8313146881	-1.3563745656	-0.0792320897	 0.116241
H	-0.0003461703	-1.6365915152	 1.5214655181	 0.116016
H	 1.700695554	 1.2581493305	-0.8584881101	 0.098087
H	 2.6022708117	 3.0833172207	 0.6359852267	 0.117172
H	 0.889660023	 3.5931901477	 1.0685719321	 0.113702
45.22	81.1778	91.4587	233.6548	257.8482	370.9152	404.8829	414.3681	554.8168	739.9741	789.643	814.7849	817.2483	863.1021	936.0355	964.21	965.4129	1012.6475	1051.3493	1069.8262	1093.5061	1102.1362	1125.8699	1139.864	1158.4763	1169.5159	1190.2079	1198.7898	1241.3818	1286.9728	1309.1104	1372.8153	1401.2531	1448.8317	1452.3493	1473.2278	1498.7258	1530.3376	2985.6706	3065.2607	3081.7289	3097.9245	3107.999	3138.0233	3142.4311	3167.6699	3220.9657	3235.3551
C(OC1CC1)C1CO1	C(OC1CC1)[C@H]1CO1	
InChI=1S/C6H10O2/c1-2-5(1)7-3-6-4-8-6/h5-6H,1-4H2	InChI=1S/C6H10O2/c1-2-5(1)7-3-6-4-8-6/h5-6H,1-4H2/t6-/m0/s1
