19
gdb 84994	2.38699	1.5475	1.25117	3.1112	71.16	-0.258	0.0063	0.2643	1095.3078	0.158257	-460.221432	-460.212377	-460.211433	-460.254806	34.366	
C	 0.7190035048	 1.4600548447	-0.0786648372	-0.399149
C	-0.0638273989	 0.1598714551	 0.0434659871	 0.11137
C	 0.126732417	-0.8206385365	-1.1333606711	-0.268545
C	 1.2401406568	-1.7522990803	-0.6589995118	 0.24444
C	 1.1518368672	-3.1971159249	-1.1299475729	-0.446295
O	 2.4900663159	-1.1611305305	-1.0375490849	-0.465839
C	 1.1474864188	-1.6328259953	 0.8761384078	 0.410717
O	 1.70028772	-2.3335398751	 1.6785516368	-0.363803
O	 0.393804704	-0.5671949112	 1.2154879883	-0.2293
H	 1.7704126453	 1.2507820719	-0.2908048275	 0.145653
H	 0.3116188373	 2.0639777546	-0.8958951105	 0.119112
H	 0.6472486413	 2.0375333002	 0.84675338	 0.130598
H	-1.1213347011	 0.3709513538	 0.2231983025	 0.095742
H	-0.7890776479	-1.3922136016	-1.3044786752	 0.112527
H	 0.3989794143	-0.3134469054	-2.0606329132	 0.126962
H	 1.3078851971	-3.2472059981	-2.2109884281	 0.12613
H	 1.9181224756	-3.7966249415	-0.6291578661	 0.134582
H	 0.1782969781	-3.6357448941	-0.8907449729	 0.123155
H	 3.1850869544	-1.6349021656	-0.5637450412	 0.291941
91.1026	117.7648	210.0563	228.0901	257.5054	292.0101	305.4312	368.6466	392.3251	411.8417	429.9122	550.5195	608.7507	701.1179	732.6629	771.1979	843.6587	878.9875	932.2271	959.403	972.9568	1038.1069	1063.2875	1115.3996	1133.969	1147.1917	1187.5765	1218.5823	1271.7968	1322.4519	1363.1676	1389.5251	1395.3637	1406.6628	1411.1369	1476.9692	1484.5824	1490.5109	1494.587	1501.9022	1862.9521	3040.5967	3044.6841	3065.5115	3077.6171	3113.6945	3117.5582	3124.0384	3128.6181	3137.6492	3784.8066
CC1CC(C)(O)C(=O)O1	C[C@H]1C[C@@](C)(O)C(=O)O1	
InChI=1S/C6H10O3/c1-4-3-6(2,8)5(7)9-4/h4,8H,3H2,1-2H3	InChI=1S/C6H10O3/c1-4-3-6(2,8)5(7)9-4/h4,8H,3H2,1-2H3/t4-,6+/m0/s1
