19
gdb 86956	4.50032	0.80227	0.73394	4.4225	80.22	-0.2597	-0.0006	0.259	1555.1599	0.158677	-423.065642	-423.056726	-423.055782	-423.100434	32.385	
C	 0.1564901992	 1.580114472	-0.1183233758	-0.398301
C	 0.1083600472	 0.0537557043	 0.0149615652	-0.017465
C	 0.8805452025	-0.7059754651	-1.0976395113	-0.256177
C	 1.5620363515	-1.9033131607	-0.4020268662	 0.085245
O	 2.9158512589	-2.0725536974	-0.8748608874	-0.189611
C	 3.2412713002	-3.2162467464	-1.5001684742	 0.166756
O	 4.3336375789	-3.432325221	-1.9330546081	-0.279075
C	 1.5401406455	-1.527328181	 1.0555060801	-0.098908
C	 0.7500470722	-0.4800316926	 1.2771444117	-0.063129
H	 1.1902710721	 1.9409468456	-0.0953817097	 0.124074
H	-0.2946513676	 1.90587217	-1.0612183161	 0.118835
H	-0.3892648385	 2.0658526187	 0.6974000568	 0.116042
H	-0.9483301151	-0.2520664223	 0.0014234599	 0.086363
H	 0.2453287588	-1.0067368414	-1.9343356776	 0.10365
H	 1.6751649798	-0.0674843239	-1.496244947	 0.128279
H	 1.0270239099	-2.8477652772	-0.5793729964	 0.089649
H	 2.3930573627	-3.9270811524	-1.5662778176	 0.073626
H	 2.0878698003	-2.0934147395	 1.7996185007	 0.107834
H	 0.5463868914	-0.0479470797	 2.251647493	 0.10231
43.9269	55.8506	153.8567	195.7608	241.9294	286.0577	321.258	364.9337	415.0351	495.5314	595.5107	691.7983	773.4419	783.6451	845.267	893.7864	930.3819	965.65	982.8113	1025.4971	1039.2994	1045.9869	1073.3236	1119.0089	1136.2435	1155.468	1196.8282	1215.8602	1286.5801	1299.8515	1319.588	1342.6479	1364.9298	1389.3948	1412.2199	1438.4016	1486.8227	1498.3106	1499.618	1687.6739	1863.4794	2933.5675	2990.3431	2991.4333	3030.6264	3060.5576	3101.1406	3103.5422	3110.7312	3182.4384	3213.4929
CC1CC(OC=O)C=C1	C[C@H]1C[C@@H](OC=O)C=C1	
InChI=1S/C7H10O2/c1-6-2-3-7(4-6)9-5-8/h2-3,5-7H,4H2,1H3	InChI=1S/C7H10O2/c1-6-2-3-7(4-6)9-5-8/h2-3,5-7H,4H2,1H3/t6-,7+/m1/s1
