21
gdb 117381	5.16079	0.63154	0.608	3.3492	80.79	-0.2414	-0.0085	0.2329	1912.1822	0.179538	-424.212885	-424.202515	-424.20157	-424.250188	36.069	
C	-0.3096620285	 1.3180023909	-0.3411741517	-0.225481
O	-0.2917105379	-0.0750009976	-0.1339487258	-0.2096
C	 0.4249441554	-0.7597244686	-1.1131945531	-0.152589
C	 0.385535694	-2.2641608802	-0.8597324799	 0.361322
O	-0.3112546784	-2.7597071897	-0.011066458	-0.281688
C	 1.313862171	-3.0852446811	-1.7532749683	-0.339819
C	 0.9068853021	-4.5363032791	-1.861123321	 0.049402
C	 0.0298056004	-4.9977463551	-2.9964857096	-0.25273
C	 1.4820562762	-5.4085171412	-2.945744413	-0.284506
H	 0.7046290431	 1.7480028244	-0.3275740905	 0.104162
H	-0.7813109177	 1.5829406679	-1.3009199366	 0.104897
H	-0.8910754034	 1.7578933384	 0.4720837228	 0.134694
H	 0.0123311053	-0.5823881066	-2.1255251117	 0.105887
H	 1.4816920157	-0.43466209	-1.1582039684	 0.101473
H	 1.3858304215	-2.6187875371	-2.7445605696	 0.105325
H	 2.3205394758	-2.9973558959	-1.3150882388	 0.129837
H	 0.7240931388	-5.0043558156	-0.9001849392	 0.106138
H	-0.727941193	-5.7450548999	-2.7904099659	 0.117467
H	-0.2622209683	-4.2674162682	-3.7446871628	 0.105405
H	 2.1614586012	-4.9536149564	-3.6597737276	 0.106418
H	 1.7198295468	-6.4390077192	-2.7060195111	 0.113986
27.5707	58.1033	85.9491	94.3659	127.8199	211.3567	239.5716	297.8857	354.8199	364.9006	404.4239	475.8622	693.7846	771.34	781.6	835.5743	849.5366	894.6775	917.2714	971.8901	995.3686	1044.4078	1059.4818	1078.2272	1080.1407	1137.2054	1160.6997	1175.5778	1184.5899	1196.2354	1229.6683	1241.4498	1241.7761	1273.9783	1326.4652	1403.6799	1422.4457	1452.0385	1467.5547	1471.807	1487.1653	1491.2787	1508.5184	1516.1158	1832.5076	2922.2103	2942.8828	2969.3604	2996.3754	3013.0239	3044.2862	3120.4913	3127.4642	3132.8936	3174.3186	3205.9973	3221.9829
COCC(=O)CC1CC1	COCC(=O)CC1CC1	
InChI=1S/C7H12O2/c1-9-5-7(8)4-6-2-3-6/h6H,2-5H2,1H3	InChI=1S/C7H12O2/c1-9-5-7(8)4-6-2-3-6/h6H,2-5H2,1H3
