15
gdb 47347	2.63379	1.46699	1.2793	2.1572	66.42	-0.2849	-0.0033	0.2816	1019.4658	0.113749	-453.956383	-453.948535	-453.94759	-453.989405	28.467	
N	-0.0646738848	 1.2525400577	 0.1739284176	-0.500593
C	 0.16409719	 0.0536988912	-0.1386835643	 0.417689
C	-0.6661822939	-1.1045463858	 0.3439497131	-0.343694
C	-0.9878788086	-2.0899468262	-0.7946159279	-0.080729
O	 0.0281513616	-2.0910652849	-1.8153353616	-0.232446
C	 1.2653837928	-1.6394833536	-1.4016905984	 0.047166
O	 1.2319613446	-0.2941898503	-0.9437675485	-0.239669
C	 1.887030606	-2.5245433835	-0.3730639371	 0.279238
N	 2.3702373656	-3.2304427123	 0.4029579039	-0.321126
H	 0.6318765377	 1.8742920505	-0.2418304686	 0.23035
H	-0.1029261211	-1.6187940299	 1.1304449291	 0.162474
H	-1.5783870796	-0.7145718072	 0.7951647744	 0.152135
H	-1.1090725671	-3.106512738	-0.4050151226	 0.131204
H	-1.9053146349	-1.8029327809	-1.3131076479	 0.140563
H	 1.9141284117	-1.6349499869	-2.2809280913	 0.157439
63.9568	115.9082	147.8661	198.9313	317.7839	429.9944	448.0204	479.1361	495.7429	620.6822	640.5953	788.231	804.6395	835.5447	908.9397	915.0481	968.1845	1007.3525	1032.4139	1071.1126	1092.2766	1169.5533	1242.6617	1259.0527	1299.6124	1347.8197	1367.8714	1390.2341	1418.6714	1476.9245	1516.8767	1778.5063	2356.766	3046.4611	3058.648	3097.134	3108.6971	3141.7143	3470.5368
N=C1CCOC(O1)C#N	[NH][C]1CCO[C@@H](O1)C#N	
InChI=1S/C5H6N2O2/c6-3-5-8-2-1-4(7)9-5/h5,7H,1-2H2	InChI=1S/C5H6N2O2/c6-3-5-8-2-1-4(7)9-5/h5,7H,1-2H2/t5-/m0/s1
