21
gdb 120677	2.29321	0.78206	0.61904	1.2977	89.35	-0.2258	0.0566	0.2824	1843.8291	0.180294	-387.051548	-387.040668	-387.039724	-387.089492	37.712	
C	 0.1059678119	 1.5240380427	 0.1121537073	-0.498104
C	 0.0597629002	 0.0688738802	 0.0958751986	 0.053141
C	 0.0226541841	-1.1360412647	 0.0846557273	 0.09367
C	-0.0047906725	-2.5704574751	 0.0565696604	-0.207225
C	-0.6258643	-3.3578802109	 1.2021952575	-0.289435
C	-1.30878786	-3.337998421	-0.1375916141	-0.003171
C	-2.6224670484	-2.6162042627	-0.3313466605	-0.200282
C	-3.8181261667	-3.4628431334	 0.0916932077	-0.065888
O	-4.994268266	-2.7055398394	-0.1516680032	-0.42143
H	 1.0707033808	 1.892851638	-0.2541763149	 0.146223
H	-0.6748015417	 1.9578117919	-0.5228422993	 0.14683
H	-0.0337969974	 1.9190209117	 1.1248603677	 0.144765
H	 0.8680027022	-3.027893669	-0.4015974486	 0.105281
H	-0.118880933	-4.2597183493	 1.527071802	 0.112549
H	-1.0718553487	-2.7760448945	 2.0015728363	 0.122235
H	-1.2000063069	-4.2429496213	-0.7311853368	 0.0858
H	-2.6270933686	-1.6831797568	 0.2411720284	 0.116277
H	-2.7491582045	-2.3355080804	-1.383927874	 0.107889
H	-3.8275563356	-4.4070394154	-0.4782545904	 0.079886
H	-3.7248957704	-3.7287131036	 1.1568941143	 0.086594
H	-5.7519298888	-3.2316826271	 0.1193942744	 0.284397
30.7657	56.7567	72.6754	95.8263	135.5768	165.0645	251.1266	262.0297	295.9543	341.6126	391.3809	445.3858	509.4382	582.2855	703.4195	788.7292	818.1398	854.4089	912.1486	959.4926	1000.459	1028.094	1051.9348	1054.1711	1067.5309	1077.0887	1099.6484	1131.5382	1179.069	1184.1099	1235.7798	1239.4389	1252.0261	1306.5854	1327.6868	1389.7958	1414.6291	1421.9331	1460.0955	1477.7212	1480.251	1483.0242	1493.857	1527.3632	2366.2136	2957.9648	2986.5087	3023.4578	3039.6249	3082.0028	3084.0758	3087.9186	3128.6651	3133.2468	3140.5531	3222.7547	3830.9588
CC#CC1CC1CCO	CC#C[C@H]1C[C@H]1CCO	
InChI=1S/C8H12O/c1-2-3-7-6-8(7)4-5-9/h7-9H,4-6H2,1H3	InChI=1S/C8H12O/c1-2-3-7-6-8(7)4-5-9/h7-9H,4-6H2,1H3/t7-,8+/m0/s1
