21
gdb 103774	3.23637	1.09186	0.95143	2.1331	78.8	-0.2505	0.066	0.3165	1327.5252	0.17995	-424.194752	-424.18501	-424.184065	-424.229515	35.681	
C	 0.3346260153	 1.3509550465	 0.3602164158	-0.381963
C	-0.3096652298	 0.0923302344	-0.2352819394	-0.246741
C	 0.4451575961	-0.4600920554	-1.4319018173	 0.297828
C	 0.454763806	 0.3828160475	-2.6887415754	-0.465707
O	 1.7271302707	-1.0585146577	-1.0981809544	-0.316688
C	 0.6848682523	-1.903431992	-1.5328331571	 0.306253
C	 0.1369599423	-3.0945086255	-0.7505349812	-0.157874
O	 0.1424153097	-3.8951914613	-1.9537221113	-0.27706
C	 0.7648332619	-2.8472087181	-2.7302329032	-0.157792
H	 1.3749993616	 1.1525076438	 0.6340477174	 0.135947
H	 0.3230503989	 2.1889460356	-0.343484948	 0.118233
H	-0.1998569838	 1.6693830503	 1.2598220801	 0.115819
H	-0.3604459011	-0.6835340996	 0.5358787585	 0.105101
H	-1.3433377391	 0.3038929471	-0.5378187861	 0.100641
H	 0.9024968456	 1.3631148504	-2.4997351233	 0.132776
H	 1.0322054029	-0.1023204306	-3.4790333813	 0.128714
H	-0.5661849983	 0.543717769	-3.0518151031	 0.123116
H	 0.8224044978	-3.4823582126	 0.0139222222	 0.113206
H	-0.8687930228	-2.9946901523	-0.324189132	 0.106988
H	 0.1749181065	-2.5817357648	-3.6161530546	 0.106324
H	 1.7884719373	-3.1018216649	-3.0336172863	 0.112877
64.2412	105.4361	138.9306	169.246	178.4703	223.4201	257.8502	302.6166	358.5284	446.107	458.5287	485.1517	618.1113	685.7778	783.9668	833.3843	895.504	901.4863	937.2605	981.3303	1003.1313	1021.9512	1023.2319	1047.5103	1113.0169	1133.9579	1141.7154	1145.8564	1161.6564	1181.5364	1241.33	1297.8274	1310.2305	1348.9452	1370.3781	1409.2653	1413.3635	1471.4907	1478.7594	1489.6713	1498.2845	1504.8028	1508.2999	1524.067	1536.2357	3006.8555	3018.2758	3027.92	3040.1855	3043.3787	3058.5525	3059.023	3071.3351	3104.9507	3111.7875	3118.6101	3126.2041
CCC1(C)OC11COC1	CC[C@@]1(C)OC21COC2	
InChI=1S/C7H12O2/c1-3-6(2)7(9-6)4-8-5-7/h3-5H2,1-2H3	InChI=1S/C7H12O2/c1-3-6(2)7(9-6)4-8-5-7/h3-5H2,1-2H3/t6-/m1/s1
