20
gdb 36741	3.31223	1.01503	0.84314	3.2813	79.03	-0.2755	0.0137	0.2892	1386.2768	0.171806	-403.166303	-403.157275	-403.156331	-403.202421	32.594	
N	 0.0910185496	 0.0563814126	 1.5756980696	-0.309212
C	 0.2237267761	 0.5895564076	 0.5591922859	 0.255332
C	 0.3812746684	 1.2599934562	-0.7515285473	-0.199299
O	 1.4042292231	 2.2108710426	-0.8064897956	-0.242238
C	 1.1337331208	 3.4589374732	-0.1433981433	 0.127152
C	 1.5587322745	 3.4356290995	 1.3549198355	-0.217105
C	 2.6795189071	 4.4913889005	 1.4989170887	-0.206931
C	 3.2684060383	 4.6099269014	 0.0841306352	-0.198765
C	 2.0190643353	 4.530953909	-0.8053234667	-0.217721
H	 0.6203596067	 0.4905715184	-1.4931500605	 0.158073
H	-0.5949154987	 1.6927066939	-1.0231416358	 0.137082
H	 0.0661330223	 3.6836842612	-0.2687443591	 0.067847
H	 0.7181118497	 3.619099185	 2.028589807	 0.104698
H	 1.9420306872	 2.4388686437	 1.5851584847	 0.129725
H	 2.2559307358	 5.4563137862	 1.8027867874	 0.098102
H	 3.4191078297	 4.2133576658	 2.2543757409	 0.101203
H	 3.8480753082	 5.5242626438	-0.0684656084	 0.095062
H	 3.9280367945	 3.7594141715	-0.1242833861	 0.109731
H	 2.2183299253	 4.2818446136	-1.849914497	 0.1073
H	 1.489726086	 5.4909285742	-0.783762925	 0.099963
20.0213	35.7179	84.0536	201.5232	233.3427	311.3496	369.1698	387.2151	419.1449	553.5388	605.3491	677.7893	794.6414	819.8401	864.7289	892.8176	906.3777	913.449	944.3147	967.9092	1018.4071	1033.57	1045.3774	1099.87	1135.359	1183.3613	1192.666	1226.9354	1254.0759	1295.3916	1309.8499	1318.5016	1340.2231	1347.1687	1356.7532	1389.3515	1412.4385	1465.04	1474.4723	1476.065	1493.2418	1509.7719	2354.3161	2984.802	3006.9344	3033.8811	3039.9014	3045.2814	3070.8613	3078.3929	3091.5773	3097.7487	3111.0487	3119.3561
N#CCOC1CCCC1	N#CCOC1CCCC1	
InChI=1S/C7H11NO/c8-5-6-9-7-3-1-2-4-7/h7H,1-4,6H2	InChI=1S/C7H11NO/c8-5-6-9-7-3-1-2-4-7/h7H,1-4,6H2
