20
gdb 54912	3.31373	1.08141	0.98988	3.0892	75.18	-0.2327	0.0313	0.264	1282.7781	0.169335	-440.320757	-440.311056	-440.310112	-440.355569	36.289	
C	-0.3354385334	 1.5553349779	 0.05575056	-0.427822
C	 0.2363776382	 0.1460122484	 0.0817272201	 0.433246
C	-0.3889295007	-0.7163602544	 1.1685735493	-0.433171
C	 0.3969184531	-0.535151404	-1.3036886517	-0.339235
C	 1.912437616	-0.4365715645	-1.0365498666	 0.044581
O	 1.6974943374	 0.1987264804	 0.242144594	-0.347119
C	 2.6607174678	-1.7650696392	-0.9635950918	 0.355412
N	 3.0268942587	-2.1201525318	 0.2942206031	-0.516444
O	 2.8729552931	-2.4203204497	-1.9659941986	-0.372679
H	 0.1533406674	 2.1591071502	-0.714005582	 0.121063
H	-1.4103590984	 1.5317292824	-0.1537325869	 0.118366
H	-0.1853216945	 2.0467432421	 1.0224100563	 0.124053
H	-1.4651936911	-0.8282402068	 0.9986765315	 0.120526
H	 0.0636107696	-1.7117079721	 1.1818985112	 0.121949
H	-0.2452163813	-0.2567907667	 2.1521433685	 0.121646
H	 0.0085374478	-1.5517883528	-1.3774216522	 0.123456
H	 0.0389886025	 0.050465968	-2.1510839048	 0.113481
H	 2.4611534177	 0.2131499269	-1.727647007	 0.10718
H	 2.8629382835	-1.4743923197	 1.0492233167	 0.270808
H	 3.5840128666	-2.9467383546	 0.4304884108	 0.260702
45.3547	69.5286	168.653	216.83	258.2366	258.4417	323.0225	335.7421	351.59	393.6395	449.9446	474.0052	530.8393	641.754	675.1985	730.2069	789.9165	865.8803	880.2873	915.6809	958.809	981.1923	1011.0769	1024.6346	1046.9594	1092.5351	1106.7063	1172.8301	1237.0144	1264.7489	1283.7667	1293.0079	1332.0796	1374.1207	1403.0224	1415.7171	1475.4718	1482.8045	1493.0109	1496.1975	1508.4623	1587.5604	1803.6453	3031.6001	3036.8153	3045.5302	3085.8857	3101.8354	3108.802	3114.0259	3116.6446	3141.7484	3591.8574	3734.7272
CC1(C)CC(O1)C(N)=O	CC1(C)C[C@@H](O1)C(=O)N	
InChI=1S/C6H11NO2/c1-6(2)3-4(9-6)5(7)8/h4H,3H2,1-2H3,(H2,7,8)	InChI=1S/C6H11NO2/c1-6(2)3-4(9-6)5(7)8/h4H,3H2,1-2H3,(H2,7,8)/t4-/m1/s1
