16
gdb 16469	3.26516	2.75814	1.82232	1.6132	63.09	-0.2385	0.0689	0.3073	738.5203	0.131978	-383.683936	-383.677921	-383.676977	-383.713653	25.118	
O	 0.1362983573	 1.3637682932	 0.1079472059	-0.492095
C	 0.0844604701	-0.0120072066	 0.0876513393	 0.463896
C	 0.9603090435	-0.7530419355	 1.0802240368	-0.287612
C	 0.5912974602	-2.2228542483	 0.7103024538	-0.25108
C	-0.4176513861	-1.9887688538	-0.4163309346	-0.036833
C	-1.2892998526	-0.7544579881	-0.0753906777	-0.020888
O	-1.3460136707	-0.3413008996	-1.4917659831	-0.343704
C	 0.0451517431	-0.7870093488	-1.277214715	-0.020887
H	-0.4776660354	 1.6565723805	-0.5817065037	 0.287116
H	 2.019568929	-0.525453406	 0.9311051383	 0.111675
H	 0.7080903152	-0.4934604884	 2.1122450819	 0.111675
H	 1.4572194262	-2.7980287518	 0.3700454932	 0.10807
H	 0.1475145547	-2.7660781067	 1.5495795475	 0.10807
H	-0.8920686232	-2.8286172927	-0.9203553485	 0.083495
H	-2.2052687533	-0.6802227793	 0.5125056438	 0.089552
H	 0.7268531419	-0.7517465582	-2.1281976581	 0.089551
216.6829	295.3494	335.1886	407.7662	489.7321	544.2374	679.1663	699.8928	702.8868	725.8053	812.3837	821.4776	896.7818	897.1881	905.6927	937.6753	1000.9176	1019.8338	1051.7319	1079.1583	1120.6195	1141.3099	1164.4966	1183.6828	1224.0462	1228.583	1247.1844	1271.3696	1292.6622	1326.5613	1375.3189	1425.4285	1489.6782	1511.9534	3053.0569	3063.111	3088.3398	3106.8795	3108.1167	3112.1893	3145.9644	3731.5618
OC12CCC3C1OC23	O[C@@]12CC[C@H]3[C@@H]1O[C@@H]23	
InChI=1S/C6H8O2/c7-6-2-1-3-4(6)8-5(3)6/h3-5,7H,1-2H2	InChI=1S/C6H8O2/c7-6-2-1-3-4(6)8-5(3)6/h3-5,7H,1-2H2/t3-,4-,5+,6-
