24
gdb 102053	2.09147	1.28641	1.01826	3.9974	86.52	-0.2351	0.0344	0.2695	1341.402	0.215158	-405.58266	-405.571708	-405.570764	-405.618106	41.119	
C	-0.3447853697	 1.6722827011	 0.3238575412	-0.379928
C	 0.0118744146	 0.2017575361	 0.0877011351	-0.151935
N	 0.7584089983	-0.4069140961	 1.1997330013	-0.059679
C	 0.0037408008	-0.7874232753	 2.2697725051	 0.14067
O	-1.1991195432	-0.6105434678	 2.3566867695	-0.363099
C	 2.2063477496	-0.7028701943	 1.0419310956	 0.236315
C	 2.9470929695	 0.5769003348	 0.6027863209	-0.391675
C	 2.837977715	-1.1779486851	 2.3627047495	-0.423317
C	 2.3965968813	-1.8125828195	-0.0144564693	-0.389007
H	 0.5484748401	 2.2902609814	 0.4518970727	 0.111514
H	-0.9083871985	 2.0608740051	-0.5307955868	 0.111891
H	-0.9677177201	 1.7642148153	 1.2155862261	 0.151409
H	-0.9103204634	-0.3719333176	-0.038533885	 0.130986
H	 0.5987217509	 0.0913819977	-0.8259460255	 0.099984
H	 0.5760551441	-1.2752850048	 3.0714021647	 0.081687
H	 2.8432337053	 1.3626085542	 1.3567508147	 0.123699
H	 4.0125177766	 0.3621581564	 0.4756319662	 0.115894
H	 2.5747737092	 0.9645162813	-0.3484820708	 0.121217
H	 2.4533101556	-2.1477594656	 2.6886405377	 0.127813
H	 3.9143687985	-1.2915563181	 2.2060721914	 0.118818
H	 2.6922634023	-0.4533750642	 3.1689195443	 0.127887
H	 2.0081372785	-1.5174750694	-0.992828503	 0.120145
H	 3.4596099133	-2.042493127	-0.1377586081	 0.116359
H	 1.8805769714	-2.7266048087	 0.2940087323	 0.122353
54.9788	106.9114	143.6003	211.1837	214.8971	248.6148	260.4251	285.6756	318.5238	329.6898	354.1597	370.0917	399.0366	417.9096	467.7008	523.6471	589.7468	748.3291	813.256	826.8484	913.5535	931.6453	960.4691	983.1013	1023.2348	1045.1951	1046.8477	1071.2935	1108.7978	1185.082	1225.1461	1238.7684	1256.5456	1328.2063	1383.6621	1391.2051	1400.0065	1403.1323	1412.6893	1432.4364	1458.5071	1473.1671	1479.1109	1484.9637	1489.4919	1491.7662	1503.406	1508.7196	1509.7427	1521.8225	1762.2811	3029.7693	3038.3918	3041.1851	3044.7749	3048.3718	3066.3552	3106.4949	3109.0806	3109.6304	3114.0491	3117.0486	3119.0483	3120.9833	3124.7863	3144.1067
CCN(C=O)C(C)(C)C	CCN(C=O)C(C)(C)C	
InChI=1S/C7H15NO/c1-5-8(6-9)7(2,3)4/h6H,5H2,1-4H3	InChI=1S/C7H15NO/c1-5-8(6-9)7(2,3)4/h6H,5H2,1-4H3
