12
gdb 11696	5.97368	1.39637	1.29397	2.1449	57.3	-0.2646	-0.0699	0.1946	890.5882	0.081327	-418.448668	-418.441776	-418.440832	-418.480202	24.524	
O	 0.0549411258	 0.0803088512	-0.5931714103	-0.240758
C	 0.1377873589	 1.0269326241	 0.1441785738	 0.056521
C	 1.2920972758	 1.9617436237	 0.1815267753	 0.315659
C	 1.6795994956	 3.0017270289	 1.2473227648	-0.427788
C	 2.0912935773	 3.9270809094	 0.0610931731	 0.428486
O	 2.3766232232	 5.0803955959	-0.0276407737	-0.27739
C	 1.7546956447	 2.8363830323	-0.9586665929	-0.145552
O	 2.4722454132	 1.6738310529	-0.5472537545	-0.240111
H	-0.666165228	 1.2906711612	 0.8657251837	 0.089571
H	 0.8430924098	 3.4413402951	 1.7986630395	 0.146434
H	 2.4623688113	 2.6840597894	 1.9376719853	 0.150321
H	 1.4195488025	 2.8878654459	-1.988513504	 0.144607
82.3936	119.4093	214.6529	302.9909	386.6815	453.2376	484.6682	579.1881	675.9662	760.0456	787.4458	836.9519	947.4022	964.4655	1027.4368	1028.2256	1046.953	1098.357	1178.0186	1211.2556	1220.6376	1383.0618	1428.9127	1444.9677	1822.3264	1908.7269	2895.234	3072.9337	3139.2915	3196.5323
O=CC12CC(=O)C1O2	O=C[C@]12CC(=O)[C@H]1O2	
InChI=1S/C5H4O3/c6-2-5-1-3(7)4(5)8-5/h2,4H,1H2	InChI=1S/C5H4O3/c6-2-5-1-3(7)4(5)8-5/h2,4H,1H2/t4-,5-/m1/s1
