15
gdb 74347	3.23306	1.20807	0.97356	4.2934	74.52	-0.2716	-0.0428	0.2288	1197.128	0.110996	-420.642788	-420.634352	-420.633408	-420.676168	30.69	
C	 0.0006365474	 1.5385660169	-0.0688846329	-0.48836
C	-0.0274282359	 0.0494545383	-0.0065321639	 0.170018
C	-1.03761724	-0.8161230599	-0.0647576104	-0.206629
C	-0.5055637007	-2.2276517392	 0.0505177381	-0.103128
O	 0.9159569385	-2.0669222758	 0.1819047256	-0.222641
C	 1.2335072608	-0.7314958102	 0.1473592712	 0.389934
O	 2.3601592432	-0.3328058327	 0.2252950189	-0.338559
C	-1.0594047217	-2.9663127599	 1.1814020701	 0.334892
C	-1.5451393742	-3.5692121826	 2.0989530925	-0.456093
H	 0.6351843534	 1.8740756842	-0.8958123131	 0.152117
H	-0.9999395316	 1.9567773386	-0.1971053807	 0.128611
H	 0.4415321618	 1.9496351406	 0.8454751066	 0.153445
H	-2.0947364635	-0.6098573389	-0.1659616645	 0.135964
H	-0.686375452	-2.7925063902	-0.8750340773	 0.138722
H	-1.9640552156	-4.1066858693	 2.9140560099	 0.211706
87.4998	110.3812	121.5238	215.9866	255.7396	284.8414	380.3357	456.7591	494.7271	585.1234	610.1039	634.8238	684.3202	752.5931	784.4938	801.883	866.4501	931.5684	1002.5489	1035.921	1061.9243	1067.5465	1098.8228	1213.1214	1290.1806	1323.365	1345.7307	1416.1625	1473.0434	1482.4351	1723.3998	1870.5015	2244.9262	3009.8785	3042.4593	3098.0889	3132.1055	3229.1319	3501.1576
CC1=CC(OC1=O)C#C	CC1=C[C@@H](OC1=O)C#C	
InChI=1S/C7H6O2/c1-3-6-4-5(2)7(8)9-6/h1,4,6H,2H3	InChI=1S/C7H6O2/c1-3-6-4-5(2)7(8)9-6/h1,4,6H,2H3/t6-/m0/s1
