21
gdb 104318	2.80449	1.34734	1.26566	1.156	77.38	-0.23	0.0849	0.3149	1129.7908	0.181761	-424.200476	-424.191561	-424.190617	-424.233721	34.43	
C	-0.0001959575	 1.5188113276	 0.249946323	-0.250152
O	 0.0466255704	 0.1081906442	 0.2562247845	-0.281549
C	-1.1810328424	-0.5724511121	 0.0126720604	 0.37629
C	-2.2561226581	-0.2347394285	 1.0532023835	-0.451701
C	-1.6920518204	-0.3402827399	-1.446951364	-0.146154
O	-2.2303944631	-1.5728220659	-1.9094135639	-0.258069
C	-1.5929321978	-2.6090762536	-1.2037546989	 0.116698
C	-0.0906766588	-2.6261686002	-1.1274281875	-0.343464
C	-0.9149567599	-2.0703619943	 0.0202479914	-0.106041
H	 1.0332487275	 1.8644514157	 0.3349722849	 0.128423
H	-0.4229108066	 1.9236660168	-0.6815503388	 0.10611
H	-0.5709460924	 1.928720096	 1.0947074568	 0.109243
H	-2.5472317313	 0.8189542949	 1.0164242324	 0.114637
H	-3.1527258687	-0.8313259783	 0.860381721	 0.131987
H	-1.8984240912	-0.45955312	 2.0626088457	 0.121549
H	-2.4805281127	 0.4132325873	-1.5242432984	 0.10641
H	-0.8438158542	-0.0219544195	-2.0691116628	 0.101623
H	-2.1651404534	-3.5285541252	-1.2314886307	 0.099792
H	 0.3827440895	-3.5886119612	-0.9664121763	 0.112924
H	 0.4889795248	-1.9388012895	-1.7323945561	 0.125301
H	-0.9311782737	-2.5847288742	 0.9737116839	 0.086141
103.4715	116.4919	181.8951	194.5752	259.139	307.2824	332.0485	360.3313	421.6378	443.0162	495.9202	606.1174	689.972	740.3925	802.2253	835.9345	905.9587	929.0086	936.8085	970.4292	1001.3902	1013.9004	1043.5199	1064.1963	1095.0234	1109.626	1150.3696	1174.9035	1179.7963	1194.3451	1201.1525	1220.0649	1251.8607	1256.9822	1323.0413	1379.1017	1390.038	1404.8755	1476.1462	1477.2393	1487.1482	1490.7484	1505.5012	1512.3881	1523.2369	2986.4455	3004.5499	3036.3191	3042.9221	3085.6443	3108.844	3114.1234	3116.2882	3139.2444	3176.1434	3187.8898	3226.0862
COC1(C)COC2CC12	CO[C@@]1(C)CO[C@H]2C[C@@H]12	
InChI=1S/C7H12O2/c1-7(8-2)4-9-6-3-5(6)7/h5-6H,3-4H2,1-2H3	InChI=1S/C7H12O2/c1-7(8-2)4-9-6-3-5(6)7/h5-6H,3-4H2,1-2H3/t5-,6+,7+/m1/s1
