15
gdb 16514	3.88025	2.4812	1.80848	3.4679	66.35	-0.2235	-0.0491	0.1744	729.1758	0.119446	-358.690752	-358.684396	-358.683452	-358.720637	25.991	
N	 0.0172269888	 1.3818599955	 0.1192190375	-0.590717
C	-0.0320010527	-0.031939962	-0.0817863148	 0.289583
C	 0.8360970185	-0.7795902417	-1.1318092598	-0.233594
N	 0.4862726613	-2.1906263322	-0.8538857283	-0.155218
C	-0.6158540697	-2.1221537186	-0.2192373538	 0.128256
N	-0.5543114932	-2.3858303569	 1.2314663761	-0.350264
C	-0.6448041493	-0.8281328835	 1.1866924117	-0.035479
C	-1.3434615139	-0.739886714	-0.1101416374	-0.19312
H	 0.9546517714	 1.6793182977	 0.3724244128	 0.238034
H	-0.2405951149	 1.8786502083	-0.728810212	 0.235062
H	 0.6128668404	-0.4074886515	-2.1448009093	 0.100716
H	 1.9173174317	-0.6886975256	-0.9744584008	 0.119379
H	-1.4855239059	-2.6353189957	 1.5846303845	 0.223381
H	-0.8108896151	-0.2908839686	 2.1140393863	 0.119161
H	-2.3320026375	-0.4203512713	-0.4142868226	 0.10482
211.1687	278.7184	330.1365	338.9922	420.9336	485.3767	566.7177	615.5945	645.2679	736.4147	775.6682	809.5693	832.2807	865.1642	879.6454	962.1428	986.7337	1001.1053	1019.9923	1095.2324	1103.5329	1137.247	1155.4081	1188.0991	1206.5718	1250.0175	1288.4402	1302.729	1377.297	1479.5157	1614.7153	1653.4631	2975.4995	3056.2394	3177.1452	3192.5911	3362.2989	3488.1852	3564.9182
NC12CN=C3NC1C23	N[C@@]12C[N][C]3N[C@@H]1[C@@H]23	
InChI=1S/C5H7N3/c6-5-1-7-4-2(5)3(5)8-4/h2-3H,1,6H2,(H,7,8)	InChI=1S/C5H7N3/c6-5-1-7-4-2(5)3(5)8-4/h2-3H,1,6H2,(H,7,8)/t2-,3-,5-/m1/s1
