17
gdb 55976	3.48449	0.98229	0.81939	1.9734	70.86	-0.2526	0.0182	0.2708	1379.2467	0.135208	-455.198516	-455.189001	-455.188056	-455.234887	32.652	
C	-0.0467515481	 1.5056412609	 0.063023877	-0.487856
C	-0.148113905	 0.0159023414	 0.3414480001	 0.40878
O	 0.44366469	-0.5337567071	 1.2525769522	-0.370291
N	-0.9531005033	-0.6894266874	-0.5119855285	-0.333128
C	-0.9995133546	-2.1246566451	-0.4577285429	-0.08454
C	-1.8633430854	-2.8080820727	 0.6472610146	-0.161729
N	-2.6465988256	-3.4052278414	-0.4453400129	-0.327346
C	-2.0121382289	-2.7417924416	-1.4596472822	 0.395717
O	-2.2047156137	-2.6397062718	-2.6425017126	-0.363831
H	 0.0073048757	 2.0384854059	 1.0136131452	 0.154365
H	 0.8808923902	 1.7043634094	-0.4837098806	 0.15425
H	-0.8837807233	 1.8902132632	-0.525581552	 0.121549
H	-1.3484962168	-0.2456178782	-1.32631497	 0.26039
H	 0.0023100259	-2.5600249082	-0.5183798893	 0.125818
H	-1.3377868417	-3.5296274098	 1.2766663251	 0.126238
H	-2.4234599974	-2.1010954586	 1.2644312043	 0.12453
H	-3.4810133179	-3.9729124788	-0.4491142777	 0.257084
32.6154	44.4994	88.4424	117.0461	149.422	222.1659	338.4267	372.9805	436.8343	506.8778	514.6335	632.4959	635.7611	699.2125	756.7679	879.6502	901.9992	978.2496	992.1772	1013.0256	1052.9151	1066.6314	1150.9846	1170.6532	1185.4468	1212.8138	1269.7336	1298.6632	1361.7219	1394.7032	1400.8046	1467.9583	1485.1376	1515.5166	1520.0265	1779.3583	1893.5003	3048.8354	3063.3767	3070.3251	3117.0591	3120.5462	3148.1749	3613.6589	3627.4163
CC(=O)NC1CNC1=O	CC(=O)N[C@H]1CNC1=O	
InChI=1S/C5H8N2O2/c1-3(8)7-4-2-6-5(4)9/h4H,2H2,1H3,(H,6,9)(H,7,8)	InChI=1S/C5H8N2O2/c1-3(8)7-4-2-6-5(4)9/h4H,2H2,1H3,(H,6,9)(H,7,8)/t4-/m0/s1
