17
gdb 81172	2.60872	1.5748	1.34501	1.2019	68.14	-0.2555	-0.0371	0.2183	1001.1492	0.135349	-458.947175	-458.939109	-458.938165	-458.980124	30.292	
O	-0.0581403633	 1.5221604246	 0.0326414095	-0.42426
C	-0.0940852213	 0.1301222885	-0.0106728538	 0.088644
C	 0.1001915012	-0.6270212524	 1.318479623	 0.04106
C	-0.9063351983	 0.0398734511	 2.2740747328	-0.219454
C	-2.1362929601	 0.0440182571	 1.3129140894	-0.256187
C	-1.4430678669	-0.6452619803	 0.1093666629	 0.287859
O	-0.6876074983	-1.7195655159	 0.739553177	-0.333185
C	-2.2567694641	-1.0376014762	-1.0777389617	 0.035918
O	-2.5888759751	-0.2471914401	-1.9282031119	-0.264506
H	-0.3141501852	 1.8579224219	-0.8332225464	 0.301371
H	 0.5217505997	-0.3009753492	-0.8070345149	 0.092839
H	 1.0759548084	-0.9357761635	 1.6905335781	 0.087818
H	-1.0668942456	-0.5692334351	 3.165110902	 0.110101
H	-0.5966919437	 1.0440482872	 2.5689929174	 0.122488
H	-2.9740500734	-0.550523378	 1.6817480489	 0.110717
H	-2.4829766102	 1.0463376179	 1.0577378339	 0.122562
H	-2.5332767038	-2.1136446574	-1.1286021162	 0.096215
59.3547	119.9345	227.5191	253.9016	259.5503	292.0339	379.5244	465.7832	522.509	592.4868	692.3757	782.7183	811.5285	836.643	849.9292	880.0421	921.1074	960.5903	966.6228	994.1258	1045.6949	1122.2191	1131.5278	1161.4427	1183.7521	1208.2886	1235.6047	1270.684	1278.7154	1294.864	1316.8918	1332.0097	1410.2223	1427.7018	1467.7597	1490.377	1813.0613	2896.5546	3060.1941	3079.1712	3086.4913	3130.2011	3138.4349	3145.8863	3815.3048
OC1C2CCC1(O2)C=O	O[C@H]1[C@H]2CC[C@@]1(O2)C=O	
InChI=1S/C6H8O3/c7-3-6-2-1-4(9-6)5(6)8/h3-5,8H,1-2H2	InChI=1S/C6H8O3/c7-3-6-2-1-4(9-6)5(6)8/h3-5,8H,1-2H2/t4-,5+,6-/m1/s1
