18
gdb 91874	2.6592	1.63876	1.11233	5.2015	72.55	-0.2593	0.0295	0.2888	1096.0272	0.148838	-439.110446	-439.10263	-439.101686	-439.142722	30.167	
C	-0.1662816328	 1.4957533445	 0.0701586007	-0.400035
C	-0.0481050882	-0.0094547166	-0.1003557227	 0.156696
C	 0.9749294345	-0.4470055587	-1.1563991625	-0.262072
C	 0.9649238262	-1.9588260265	-1.1697357812	-0.024045
C	 2.0960664604	-2.7878600541	-0.6535050617	-0.250685
N	 0.906937025	-2.5588520269	 0.1626344743	-0.134921
C	 0.9949011084	-1.7242075154	 1.287842387	 0.423682
O	 1.5449820942	-2.0340209758	 2.3078393291	-0.355609
O	 0.3407212037	-0.5368945822	 1.1890462177	-0.252365
H	 0.8061876228	 1.9326946088	 0.315715484	 0.130954
H	-0.5346323363	 1.9532132087	-0.8530992737	 0.119012
H	-0.8625506616	 1.7330932938	 0.8781892608	 0.138618
H	-1.0292589685	-0.4328331719	-0.3562384006	 0.096299
H	 0.7096087276	-0.038903662	-2.1353273819	 0.116899
H	 1.9589357288	-0.0493741537	-0.8823468449	 0.119253
H	 0.2820420383	-2.4209773795	-1.8800956023	 0.107052
H	 2.2269211937	-3.8050283296	-1.0100923794	 0.132984
H	 3.0102319738	-2.2836777128	-0.3514228927	 0.138285
118.1527	131.3664	228.1525	243.615	284.4521	397.7272	437.931	451.5713	489.5569	538.9231	674.1658	710.5231	784.8992	857.672	888.0955	918.4697	927.7192	961.0303	1009.2722	1044.0936	1076.1244	1124.5531	1135.9605	1149.5551	1165.2135	1176.8437	1188.742	1245.7624	1301.5738	1338.9351	1380.6271	1392.202	1413.0829	1421.0122	1477.6943	1485.2625	1498.4747	1513.2194	1848.6746	3011.7097	3043.6506	3047.4042	3100.2972	3115.7625	3119.8068	3127.3001	3129.0319	3206.3861
CC1CC2CN2C(=O)O1	C[C@H]1C[C@H]2CN2C(=O)O1	
InChI=1S/C6H9NO2/c1-4-2-5-3-7(5)6(8)9-4/h4-5H,2-3H2,1H3	InChI=1S/C6H9NO2/c1-4-2-5-3-7(5)6(8)9-4/h4-5H,2-3H2,1H3/t4-,5-,7?/m0/s1
