15
gdb 71277	2.67586	2.09575	1.48984	3.2548	63.41	-0.2668	-0.0007	0.2661	869.7849	0.113711	-457.76702	-457.760404	-457.75946	-457.797729	26.907	
O	 0.0273062647	 1.4078434741	-0.0239845197	-0.487731
C	-0.0404651084	 0.03158591	-0.0205028945	 0.276086
C	 0.2886613723	-0.7591330351	-1.3420534801	-0.292356
C	-0.8541951945	-1.7139292561	-1.0046111398	-0.100404
C	-0.8341008539	-2.0469394165	 0.4706596472	 0.086464
O	 0.3763177303	-1.8974116867	 1.2211245086	-0.218158
C	 0.792306865	-0.6160991431	 1.0747485498	 0.395904
O	 1.6957806546	-0.110284868	 1.680104556	-0.366643
C	-1.3973618012	-0.7365694366	 0.0462308173	-0.179726
H	 0.741857189	 1.6464636174	 0.5862798064	 0.298209
H	 0.0267656868	-0.1186614897	-2.1865459207	 0.130965
H	 1.2981674422	-1.1618899429	-1.4753550043	 0.114683
H	-1.397246456	-2.3344413271	-1.7069762181	 0.102398
H	-1.4418563287	-2.8548259548	 0.8527400016	 0.126857
H	-2.3831476721	-0.340862205	 0.2486116703	 0.113452
156.0744	261.9218	319.0389	348.2151	411.7626	448.3017	527.2688	589.4083	676.1287	720.5887	746.509	760.7633	803.3382	844.854	919.8743	947.1243	974.4162	988.1572	1011.8043	1035.6441	1066.6029	1081.2954	1125.9321	1145.1777	1172.0269	1203.1244	1251.1983	1312.0865	1368.1293	1395.3487	1416.5269	1492.3956	1874.6786	3048.7881	3123.9795	3188.8643	3212.6643	3227.7122	3715.6533
OC12CC3C(OC1=O)C23	O[C@@]12C[C@H]3[C@@H](OC1=O)[C@@H]23	
InChI=1S/C6H6O3/c7-5-6(8)1-2-3(6)4(2)9-5/h2-4,8H,1H2	InChI=1S/C6H6O3/c7-5-6(8)1-2-3(6)4(2)9-5/h2-4,8H,1H2/t2-,3+,4-,6-/m1/s1
