14
gdb 18315	3.85079	2.14675	1.48132	2.1929	63.35	-0.2381	-0.0319	0.2061	803.7322	0.109076	-378.708312	-378.702032	-378.701088	-378.738816	23.983	
O	-0.2205074727	-0.0355801329	 0.1691997018	-0.28037
C	-0.0737771886	 1.1476201834	 0.073655753	 0.351805
C	-1.1931149629	 2.2455208116	 0.0678324369	-0.267837
N	-0.5629154542	 3.4632758856	 0.6190013913	-0.303155
C	 0.6842853218	 3.2775469104	 0.4482006492	 0.364128
N	 1.8822686626	 3.6963907107	 1.0241456135	-0.35463
C	 2.3748886581	 2.2707695208	 0.9578418416	-0.202943
C	 1.2207421465	 1.9800346914	-0.061414695	-0.216933
H	-1.5701500938	 2.3795347257	-0.9560779742	 0.130971
H	-2.0389409219	 1.9329949506	 0.6873505872	 0.137766
H	 1.8561428216	 4.1956663555	 1.9072968956	 0.245375
H	 3.3920833421	 2.1754496146	 0.575283564	 0.130318
H	 2.2687994375	 1.7355710623	 1.9060450794	 0.133517
H	 1.5658668237	 1.9474813804	-1.0979321643	 0.13199
107.1932	222.3838	282.9337	367.0919	462.4688	546.2791	609.0693	655.5319	726.3995	747.8057	827.0733	887.3372	912.5729	952.4384	972.6128	1034.4141	1049.9345	1088.3227	1137.9951	1155.7571	1180.0249	1215.2186	1267.0242	1269.2387	1323.5234	1368.1851	1466.7721	1504.983	1750.7726	1872.7001	3012.5377	3059.3457	3086.3694	3090.6239	3129.387	3536.3094
O=C1CN=C2NCC12	O=C1C[N][C]2NC[C@@H]12	
InChI=1S/C5H6N2O/c8-4-2-7-5-3(4)1-6-5/h3H,1-2H2,(H,6,7)	InChI=1S/C5H6N2O/c8-4-2-7-5-3(4)1-6-5/h3H,1-2H2,(H,6,7)/t3-/m0/s1
