15
gdb 33709	4.09735	1.53484	1.30091	2.097	75.48	-0.231	-0.0152	0.2158	951.721	0.113285	-379.57655	-379.569826	-379.568881	-379.607391	27.334	
C	 0.053522791	-1.111976298	 0.0270541187	-0.346677
C	-0.0116782753	 0.0882686486	 0.0117183011	 0.171778
C	-0.067420766	 1.5164164264	-0.0259868168	 0.193884
N	-1.1796645995	 2.2012845168	 0.6240755206	-0.240409
C	-1.1847033567	 3.363904368	 0.1075226012	-0.007963
N	-0.1439399296	 3.6668478299	-0.8523822347	-0.187932
C	 1.1034144313	 3.7575465395	 0.0581330598	-0.188745
C	 1.310869988	 2.2696513694	-0.1090866321	-0.123432
C	 0.3360256083	 2.290642769	-1.2491015569	-0.072416
H	 0.0982979081	-2.1727140805	 0.0456707482	 0.189242
H	-1.858706662	 4.1567612499	 0.4156988587	 0.129386
H	 1.8670156711	 4.3447785941	-0.4551195067	 0.13116
H	 0.9147768269	 4.172686443	 1.0536323547	 0.122669
H	 2.2216792857	 1.7000699067	 0.0179489658	 0.114567
H	 0.3622698585	 1.9524132071	-2.2772161414	 0.114887
149.3156	154.7828	359.3388	392.5833	477.9477	493.7396	547.3311	571.9458	584.9636	679.5775	730.8242	775.3304	817.8072	848.0944	868.1085	886.4926	906.6278	961.5449	969.2257	983.5472	1027.7111	1040.6265	1088.8536	1147.3203	1172.6673	1219.3654	1232.9188	1296.1009	1311.8557	1355.5589	1502.1895	1653.5998	2244.7955	3049.336	3117.7293	3193.4394	3197.5743	3212.5808	3503.102
C#CC12N=CN3CC1C23	C#C[C@@]12[N][CH]N3C[C@@H]1[C@@H]23	
InChI=1S/C7H6N2/c1-2-7-5-3-9(4-8-7)6(5)7/h1,4-6H,3H2	InChI=1S/C7H6N2/c1-2-7-5-3-9(4-8-7)6(5)7/h1,4-6H,3H2/t5-,6+,7-/m1/s1
