19
gdb 58004	3.90292	0.82281	0.73764	3.7291	73.28	-0.2588	-0.0285	0.2303	1565.3269	0.15536	-460.21072	-460.200252	-460.199307	-460.247943	35.809	
C	-0.254109414	 1.1504647496	-0.4344023625	-0.393559
C	 0.0397545947	-0.2218852916	 0.2068414313	-0.089491
C	 0.8423596338	-0.0920975777	 1.5032745428	-0.384715
C	-1.2711122395	-0.9446986087	 0.4554402024	 0.450874
O	-1.8292661339	-1.0682181503	 1.517015241	-0.355847
O	-1.7849352358	-1.4380961944	-0.701046223	-0.247635
C	-3.0664044903	-2.0564380398	-0.5718000373	-0.160003
C	-3.0082959485	-3.3576139275	 0.2185068518	 0.156926
O	-3.9914940973	-3.9467561741	 0.5741926619	-0.232586
H	 0.6840831961	 1.6678010766	-0.6541892599	 0.124262
H	-0.8137129582	 1.0412985248	-1.3666794785	 0.131022
H	-0.8354046818	 1.7799995913	 0.2472937931	 0.131226
H	 0.597165359	-0.8204057129	-0.5229140664	 0.10343
H	 1.0746712924	-1.0718536397	 1.9294182373	 0.124092
H	 1.7834956378	 0.431876011	 1.3128611897	 0.113344
H	 0.2768810356	 0.4681160363	 2.2524212064	 0.137245
H	-3.7887540495	-1.3851594436	-0.1000028366	 0.155142
H	-3.3893759295	-2.2754351068	-1.5937935814	 0.145525
H	-1.9797047311	-3.7389514425	 0.4034426679	 0.090748
28.2528	47.8582	70.3571	151.8693	198.9278	204.2485	215.5058	256.5937	317.0632	343.5499	376.3147	430.5502	569.9804	645.1203	718.8696	763.9245	850.3126	908.5947	935.3072	972.7343	1037.347	1045.2745	1107.7151	1121.5784	1131.7972	1177.5653	1208.5371	1277.3394	1325.7056	1347.6698	1377.6148	1400.5103	1410.6871	1422.1339	1450.8918	1486.3292	1488.4013	1500.1749	1513.2443	1813.7158	1847.2691	2893.3274	3040.2894	3045.9758	3047.695	3065.4056	3111.9951	3118.0795	3122.4444	3125.381	3127.3246
CC(C)C(=O)OCC=O	CC(C)C(=O)OCC=O	
InChI=1S/C6H10O3/c1-5(2)6(8)9-4-3-7/h3,5H,4H2,1-2H3	InChI=1S/C6H10O3/c1-5(2)6(8)9-4-3-7/h3,5H,4H2,1-2H3
