17
gdb 67814	3.05803	1.89153	1.61832	1.6026	71.13	-0.2304	0.0055	0.2358	887.2692	0.137435	-421.818525	-421.811837	-421.810893	-421.849133	27.862	
C	-0.0044949956	 1.4906556003	 0.0191672204	-0.49486
C	-0.0477375196	-0.0197875831	-0.0035711313	 0.201154
C	-1.2463116069	-0.7141666814	-0.4991697221	-0.120174
C	-1.2123526434	-2.0528121825	-0.4896133963	-0.079262
C	 0.0742392528	-2.6115504492	 0.0380785494	 0.102072
O	 0.2964936928	-2.0869417428	 1.358490823	-0.258952
C	 0.718762769	-0.7775350915	 1.1146362143	 0.004971
C	 1.2855688039	-0.7729829659	-0.2624903474	 0.004982
O	 1.1603487348	-2.0800140421	-0.740328037	-0.258953
H	 0.9496102356	 1.8557124197	 0.4136248592	 0.117784
H	-0.1241640516	 1.9051174428	-0.9879239621	 0.126874
H	-0.7999972997	 1.8997638438	 0.6517295517	 0.126873
H	-2.098015069	-0.1375985563	-0.8477905998	 0.097698
H	-2.0158625989	-2.6968431757	-0.8224236958	 0.100454
H	 0.1539328671	-3.6970387456	 0.0672982473	 0.096893
H	 1.099806316	-0.2684872898	 1.9891480509	 0.116224
H	 2.1706259927	-0.2598959806	-0.6125071445	 0.116222
180.972	235.83	289.9198	380.6488	405.4619	482.348	521.321	647.0943	662.8314	687.1922	742.9393	748.0795	839.3422	851.6545	865.6706	885.9024	918.2302	936.5691	982.3715	1009.4668	1028.9937	1065.7065	1090.6417	1104.3807	1131.0024	1162.3051	1221.2709	1244.255	1281.5287	1332.4081	1340.5805	1386.7619	1417.8732	1420.534	1490.8379	1500.7036	1667.0909	3026.1327	3090.963	3095.5592	3139.0689	3167.4298	3210.9263	3216.1334	3219.9989
CC12C=CC3OC1C2O3	C[C@]12C=C[C@@H]3O[C@H]1[C@H]2O3	
InChI=1S/C7H8O2/c1-7-3-2-4-8-5(7)6(7)9-4/h2-6H,1H3	InChI=1S/C7H8O2/c1-7-3-2-4-8-5(7)6(7)9-4/h2-6H,1H3/t4-,5+,6-,7+
