19
gdb 115983	1.89521	1.56535	0.89331	5.2064	84.73	-0.2286	-0.0387	0.1899	1303.0879	0.160554	-382.092276	-382.083295	-382.08235	-382.126477	32.808	
C	 0.5836716187	 1.0880495173	 0.6912200747	-0.317824
N	-0.2542636553	 0.4720737508	-0.3293604084	-0.27605
C	 0.4718262715	-0.2439512429	-1.3618654329	-0.059096
C	 1.1926229275	-1.5686241341	-0.9534765303	-0.23265
C	 1.0078566472	-2.5423931314	-2.1420024691	-0.261919
C	-0.1541490393	-1.9560150671	-2.8964332345	-0.158482
C	-0.4456700646	-0.7151035237	-2.4863708628	 0.176499
C	-1.4551303068	 0.1197711466	-3.0400258007	 0.227233
N	-2.2742413555	 0.8032731102	-3.4911112901	-0.342704
H	 1.2273374801	 0.386466762	 1.2491623473	 0.097635
H	 1.23465024	 1.8338820765	 0.2212255719	 0.126772
H	-0.0514600205	 1.6104845401	 1.4119789513	 0.125969
H	-0.9388572342	-0.142498635	 0.1000473191	 0.216207
H	 1.1988545325	 0.4695335786	-1.7769688518	 0.099478
H	 2.24182095	-1.4159895394	-0.6919885014	 0.108604
H	 0.6891944324	-1.9697008716	-0.0663101458	 0.105185
H	 1.8961072671	-2.5688473491	-2.7886737634	 0.125285
H	 0.8292924033	-3.5775779743	-1.8311107689	 0.11813
H	-0.6596297643	-2.4697767133	-3.7057382742	 0.121729
76.5188	92.8146	129.6418	174.1616	208.6541	240.724	344.0503	391.1259	452.3421	504.6659	573.4	625.305	667.3824	738.6371	820.687	855.956	903.8624	934.3305	946.3669	1010.9115	1024.3317	1048.4497	1135.0911	1143.2956	1168.1621	1181.7424	1222.3368	1234.7106	1271.9485	1304.3084	1322.2451	1336.5996	1365.7525	1458.3316	1477.2367	1489.0779	1494.9376	1496.8146	1520.4354	1679.7279	2340.3681	2955.5618	2998.2769	3014.3967	3041.5613	3058.3066	3062.4715	3107.0419	3108.3236	3208.1947	3513.6094
CNC1CCC=C1C#N	CN[C@H]1CCC=C1C#N	
InChI=1S/C7H10N2/c1-9-7-4-2-3-6(7)5-8/h3,7,9H,2,4H2,1H3	InChI=1S/C7H10N2/c1-9-7-4-2-3-6(7)5-8/h3,7,9H,2,4H2,1H3/t7-/m0/s1
