27
gdb 60056	2.89083	0.92296	0.88105	0.0927	95.79	-0.2742	0.0741	0.3484	1555.3665	0.250907	-353.561177	-353.550394	-353.54945	-353.596683	41.432	
C	-1.6251607774	 0.3561302213	-0.4696948036	-0.384762
C	-0.146834996	 0.2839489043	-0.0593101628	 0.03039
C	-0.0122006023	-0.318780203	 1.3464980799	-0.378515
C	 0.6579009488	-0.4841145125	-1.1269282496	-0.246243
C	 2.1854300884	-0.552463587	-0.9840306444	 0.35442
C	 2.8184934048	 0.8342129814	-0.8307213647	-0.444557
C	 2.7850601528	-1.5800867851	 0.0374375495	-0.240361
C	 3.7684628188	-2.073737124	-1.0549429153	-0.225067
C	 2.8886262589	-1.3690136732	-2.1197767706	-0.250281
H	-1.7464703299	 0.8282095076	-1.4504150789	 0.107442
H	-2.0654477455	-0.6467974085	-0.5277065555	 0.109611
H	-2.2099828568	 0.9321551585	 0.2553577718	 0.106097
H	 0.2322850524	 1.3139520909	-0.0211187377	 0.073133
H	-0.3563849904	-1.3600984523	 1.3608006161	 0.108121
H	 1.0207204987	-0.3062176897	 1.7042341205	 0.117451
H	-0.6198791379	 0.2385165635	 2.0676520984	 0.104994
H	 0.2692675285	-1.5115117364	-1.1837793584	 0.080716
H	 0.4406141507	-0.0296721955	-2.1049644367	 0.086007
H	 2.5241583234	 1.3146926589	 0.1081903114	 0.114609
H	 3.9118742998	 0.7713886369	-0.8354175012	 0.108623
H	 2.5213549047	 1.4946363693	-1.6541137407	 0.10852
H	 3.2195467781	-1.1726710311	 0.9551440852	 0.089905
H	 2.0598071209	-2.3505699392	 0.3140155202	 0.094698
H	 4.759030824	-1.6207078013	-0.9627940168	 0.100635
H	 3.8988226263	-3.1537572069	-1.1547336299	 0.094038
H	 2.1955205341	-2.0639546243	-2.6043119921	 0.091571
H	 3.3971268321	-0.7920786624	-2.8981865143	 0.088806
55.3932	97.4535	132.9752	175.7567	220.5043	242.048	264.3549	272.7886	305.228	353.9053	359.1542	401.3719	428.2698	452.468	658.8972	720.8392	786.3672	822.1102	864.9811	870.4809	917.3376	922.6792	926.5479	942.3656	948.3136	966.7456	992.1588	999.7781	1041.1104	1084.3655	1121.8422	1173.1574	1192.8329	1203.6763	1212.4025	1222.1114	1257.8446	1263.7742	1277.4032	1308.6763	1321.9838	1325.3562	1370.8042	1384.2166	1398.3733	1409.8276	1419.9674	1472.0505	1475.5227	1483.443	1487.0654	1490.9959	1496.3712	1502.1179	1504.0294	1506.5919	1512.7163	2988.5228	3008.6762	3020.6645	3022.7357	3026.1011	3029.9732	3041.5707	3048.2104	3062.5403	3083.6784	3087.0149	3088.0008	3090.6974	3094.1567	3095.9672	3096.8003	3111.9876	3116.0876
CC(C)CC1(C)CCC1	CC(C)CC1(C)CCC1	
InChI=1S/C9H18/c1-8(2)7-9(3)5-4-6-9/h8H,4-7H2,1-3H3	InChI=1S/C9H18/c1-8(2)7-9(3)5-4-6-9/h8H,4-7H2,1-3H3
