21
gdb 38713	2.55955	1.98542	1.56537	1.1791	81.16	-0.2359	0.0799	0.3159	950.8204	0.186565	-387.072717	-387.065868	-387.064924	-387.103353	29.726	
C	-0.0284265542	 1.5020078604	 0.078695105	-0.40388
C	 1.3421239826	 0.8517568629	-0.0137041298	-0.038729
C	 2.2273257361	 0.2424087605	 1.0796634787	-0.26218
C	 1.5572919887	-1.1465919854	 1.2922135061	 0.141295
C	 0.0803479938	-0.756112667	 1.2777702283	-0.268639
C	 0.0694415347	 0.0110306516	-0.0512100865	 0.338361
C	-0.0021099967	-0.9694549182	-1.1985454832	-0.327413
C	 1.3303457352	-1.7709454821	-1.0914549489	-0.039334
O	 1.7706968784	-2.0885878601	 0.2336641455	-0.28921
H	-0.4007248313	 1.8876693633	 1.0240807328	 0.109271
H	-0.3081908416	 2.1073506622	-0.7795014438	 0.110027
H	 1.8328101778	 1.0321764294	-0.9651291721	 0.085546
H	 3.2632970834	 0.1522029656	 0.7421959603	 0.104173
H	 2.2367579538	 0.7962641766	 2.0264262988	 0.097734
H	 1.9061664662	-1.665579926	 2.1904313953	 0.066851
H	-0.583483296	-1.623790524	 1.2748440573	 0.097774
H	-0.1751734812	-0.1221766218	 2.1325001003	 0.090861
H	-0.8753704658	-1.6274022498	-1.1211517565	 0.098905
H	-0.037624629	-0.4850068364	-2.1807960564	 0.096371
H	 1.2577928527	-2.7359316422	-1.6036301473	 0.100617
H	 2.1107429524	-1.1868205693	-1.6000739939	 0.091598
203.1029	261.4596	337.3602	352.0125	404.7518	425.5808	465.0669	571.0714	623.2523	746.2205	758.3505	781.6918	825.7674	844.0038	858.0091	893.422	913.5573	930.8487	958.8123	980.0993	1012.391	1023.6888	1046.7141	1071.98	1091.8715	1099.3456	1125.3387	1172.3837	1189.4424	1218.7039	1248.3737	1267.724	1270.9846	1305.7261	1313.1892	1331.5121	1343.788	1371.7883	1399.5293	1424.7512	1474.9844	1481.1079	1485.6372	1502.7266	1510.2665	2994.4969	3029.2483	3032.0859	3050.1257	3066.7336	3069.9476	3078.9999	3095.6684	3107.4467	3109.6054	3148.5133	3191.2493
C1C2CC3CC12CCO3	C1[C@H]2C[C@H]3C[C@@]12CCO3	
InChI=1S/C8H12O/c1-2-9-7-3-6-4-8(1,6)5-7/h6-7H,1-5H2	InChI=1S/C8H12O/c1-2-9-7-3-6-4-8(1,6)5-7/h6-7H,1-5H2/t6-,7+,8-/m1/s1
