17
gdb 113368	2.68292	1.0124	0.85029	2.5796	66.4	-0.2625	-0.0433	0.2192	1359.7149	0.132727	-496.068243	-496.058489	-496.057545	-496.103734	34.131	
O	-0.098556308	 1.2041419171	-0.798426336	-0.409368
C	-0.1257727528	 0.1130153594	 0.1038536981	-0.096376
C	-1.4028117269	-0.6789243624	-0.0565778506	-0.010909
O	-1.4469833917	-1.6405072882	-1.1119103942	-0.296517
C	-1.5543003728	-2.1244387824	 0.2443673737	 0.229292
C	-0.4412701682	-3.0436705812	 0.7047248121	-0.149919
O	-0.3678321551	-4.1780954956	-0.1375351177	-0.413983
C	-2.9573135936	-2.5536351754	 0.5872663607	 0.130373
O	-3.2341257162	-3.2793542801	 1.5046104676	-0.245607
H	-0.0872484359	 0.8429231381	-1.6916982541	 0.295198
H	 0.7478037496	-0.538670339	-0.0217872602	 0.103565
H	-0.0879440143	 0.5458889308	 1.1090707449	 0.128665
H	-2.3008454186	-0.0593051927	 0.0025129847	 0.108849
H	 0.5180409633	-2.5137131287	 0.7561068341	 0.095021
H	-0.6894415978	-3.4097480457	 1.7043156795	 0.142868
H	-0.2448857116	-3.8504007355	-1.0360560946	 0.293323
H	-3.7260454394	-2.1151284285	-0.0873512279	 0.095525
57.7958	73.5726	106.7437	151.2602	191.4032	242.7128	269.386	321.6814	376.1089	396.2647	428.5464	499.0294	568.7038	614.0486	767.6295	829.3995	887.3303	931.5928	1001.4824	1039.9854	1071.931	1072.9586	1086.9425	1126.3336	1197.7837	1229.0993	1288.6979	1322.0392	1363.3493	1374.3171	1402.0983	1415.8364	1432.1192	1472.7784	1487.4784	1493.8099	1833.7869	2893.1191	3017.35	3033.7114	3081.043	3095.0062	3108.5997	3797.902	3807.4356
OCC1OC1(CO)C=O	OC[C@H]1O[C@]1(CO)C=O	
InChI=1S/C5H8O4/c6-1-4-5(2-7,3-8)9-4/h2,4,6,8H,1,3H2	InChI=1S/C5H8O4/c6-1-4-5(2-7,3-8)9-4/h2,4,6,8H,1,3H2/t4-,5+/m1/s1
