18
gdb 78833	3.38348	1.26539	1.08982	2.2937	76.55	-0.2503	-0.0238	0.2265	1137.1944	0.147445	-401.888701	-401.880918	-401.879974	-401.921151	29.86	
C	 0.048034509	 1.5958222261	-0.0819902703	-0.422207
C	 0.1006946124	 0.0805860557	-0.11286392	 0.081576
C	 0.7723351376	-0.7210516945	-1.2524387675	-0.118067
C	 1.2133148734	-1.7058688882	-0.1048594611	-0.055023
C	 2.3252989331	-0.7559083232	 0.1517279382	-0.054155
C	 2.2389066877	-0.1730287136	-1.2670979985	-0.114239
C	 3.0912811758	-0.9599214993	-2.223935463	 0.159491
O	 3.871146582	-0.4757366116	-3.0044947768	-0.262296
N	 1.0111659731	-0.6046852852	 0.8694920683	-0.157859
H	 1.0339641245	 2.0519175109	-0.1976593534	 0.129499
H	-0.6002387648	 1.9721472599	-0.8807092986	 0.122491
H	-0.3641123418	 1.9312289462	 0.874770891	 0.132849
H	-0.8981034046	-0.3311034677	 0.0699601892	 0.089267
H	 0.2643544952	-0.9563999698	-2.1863067344	 0.086176
H	 1.0577873325	-2.7538535733	 0.1105128505	 0.107864
H	 3.2027395858	-0.8673106271	 0.7740192648	 0.112534
H	 2.4030742485	 0.8940154229	-1.4295441342	 0.087865
H	 2.9470820005	-2.063896578	-2.1624501843	 0.074232
90.6195	147.8934	184.8572	231.6767	282.9333	327.8812	441.0944	526.8412	569.9325	699.8168	750.5593	796.7884	824.4305	846.0637	882.544	911.7118	924.4684	980.2196	997.0582	1035.3916	1041.8735	1066.9029	1103.2402	1124.6249	1133.2062	1157.7561	1169.2532	1204.2663	1226.9778	1246.7846	1271.3336	1301.5992	1329.165	1394.0197	1413.0941	1430.4215	1487.012	1499.3024	1825.7211	2860.857	3040.8344	3047.9265	3097.4486	3107.5063	3127.7111	3131.2552	3207.4199	3220.7593
CC1C2C3C(C2C=O)N13	C[C@H]1[C@@H]2[C@H]3[C@@H]([C@H]2C=O)N13	
InChI=1S/C7H9NO/c1-3-5-4(2-9)6-7(5)8(3)6/h2-7H,1H3	InChI=1S/C7H9NO/c1-3-5-4(2-9)6-7(5)8(3)6/h2-7H,1H3/t3-,4-,5-,6+,7-,8?/m0/s1
