19
gdb 114021	4.34716	0.63614	0.63197	2.7264	73.62	-0.2749	0.0062	0.2811	1772.3877	0.157685	-460.158958	-460.149178	-460.148234	-460.195141	34.198	
O	-0.0994421349	 1.2895003828	-0.7880675235	-0.414362
C	 0.0059051925	 0.1491591039	 0.0482876884	-0.077879
C	-1.3011092078	-0.6084405511	 0.1317767837	-0.039245
C	-1.6466693155	-1.6587576785	-0.9015531576	-0.306223
C	-1.4069481527	-2.0627463593	 0.5332499532	-0.01621
C	-0.2101848823	-2.8946011799	 0.9188569828	-0.119224
O	-0.5287164873	-4.2939425828	 0.8289061752	-0.174267
C	-0.1153549476	-4.9645500667	-0.2614256576	 0.177853
O	-0.3879601416	-6.1094337538	-0.4611354801	-0.273322
H	-0.4221668745	 0.9890222215	-1.644506961	 0.283405
H	 0.8189361341	-0.5138301561	-0.287783773	 0.081158
H	 0.2906390676	 0.5352733123	 1.0331359885	 0.117258
H	-2.1237137161	 0.0193314044	 0.4636110849	 0.103261
H	-2.6556712893	-1.7061237351	-1.2945225522	 0.12679
H	-0.8763858537	-1.9159053821	-1.6245726725	 0.11107
H	-2.2912160708	-2.3201400087	 1.1092381106	 0.108567
H	 0.6601247155	-2.6730879158	 0.2902401869	 0.109857
H	 0.0743429053	-2.7272664251	 1.9614697039	 0.130702
H	 0.5107864691	-4.3450316098	-0.9347121506	 0.070811
44.8818	55.6913	104.2682	124.8962	168.8058	223.0746	292.2726	348.9833	363.2083	372.2754	442.9839	541.3594	684.3452	798.9103	836.2961	882.8644	907.0531	925.7029	1024.0118	1027.6034	1046.303	1053.3047	1063.6159	1073.6512	1137.2025	1143.5759	1164.2333	1214.2395	1239.6889	1246.0639	1311.9163	1353.4929	1375.3495	1400.2887	1422.0382	1433.3065	1449.6908	1489.1923	1500.0289	1512.4904	1868.352	2935.4145	2975.7285	3037.9376	3066.522	3093.9233	3119.7313	3145.0423	3155.6401	3212.1522	3806.1067
OCC1CC1COC=O	OC[C@H]1C[C@H]1COC=O	
InChI=1S/C6H10O3/c7-2-5-1-6(5)3-9-4-8/h4-7H,1-3H2	InChI=1S/C6H10O3/c7-2-5-1-6(5)3-9-4-8/h4-7H,1-3H2/t5-,6+/m1/s1
