15
gdb 50297	3.21929	1.60605	1.53874	2.2856	64.41	-0.2512	-0.0307	0.2205	894.8378	0.112806	-457.747433	-457.740609	-457.739664	-457.778981	26.295	
O	-0.2292107093	 0.0142185608	-0.1686109225	-0.234201
C	-0.0472379523	 1.1770974527	 0.0700036427	 0.13896
C	 1.2724606223	 1.9071446158	-0.0519750723	 0.025216
O	 2.3824655513	 1.0512762207	-0.2423917963	-0.27048
C	 3.0208249931	 1.5613104699	-1.4480980391	 0.129547
O	 2.8087432033	 2.9522629611	-1.355393686	-0.220044
C	 1.3789266181	 2.8586308357	-1.3250112909	-0.04847
C	 1.0817120032	 1.9790952655	-2.5291251179	-0.098389
C	 2.1273721668	 1.1548771541	-2.6123551558	-0.058368
H	-0.8755566924	 1.8410007715	 0.4168015233	 0.070039
H	 1.4150431079	 2.5240070726	 0.8471307996	 0.109123
H	 4.0747438925	 1.2964460321	-1.4364647709	 0.105694
H	 0.9093068055	 3.8351592394	-1.2382807267	 0.102432
H	 0.1519087298	 1.9607023739	-3.0792518727	 0.123817
H	 2.2753240601	 0.2946848843	-3.2485140747	 0.125125
87.3722	138.2983	228.1987	347.2219	426.5408	491.5123	627.174	706.0091	719.3371	735.438	783.0121	837.3459	852.2919	857.2974	886.4637	928.5617	939.7092	946.7136	1003.7771	1033.6426	1073.3203	1097.5049	1150.9342	1202.6983	1240.4742	1268.536	1304.8746	1336.1341	1336.9375	1356.2926	1423.857	1634.1977	1843.4462	2842.402	3008.4697	3159.7646	3170.8994	3231.9823	3257.3485
O=CC1OC2OC1C=C2	O=C[C@H]1O[C@@H]2O[C@H]1C=C2	
InChI=1S/C6H6O3/c7-3-5-4-1-2-6(8-4)9-5/h1-6H	InChI=1S/C6H6O3/c7-3-5-4-1-2-6(8-4)9-5/h1-6H/t4-,5+,6-/m0/s1
