20
gdb 22994	2.71364	1.11675	0.83431	1.1045	79.69	-0.2463	-0.0024	0.2439	1399.8575	0.168349	-440.227677	-440.217797	-440.216852	-440.262545	36.06	
C	-0.0921827686	 1.4730110648	-0.1937040461	-0.397483
C	 0.0152715611	-0.0356281325	 0.0596836974	 0.022477
C	 0.8709440982	-0.3587713826	 1.2912197223	-0.402673
C	-1.3798949289	-0.6402980879	 0.2149403411	 0.051708
O	-2.2276833679	-0.4448725803	-0.9562900207	-0.301971
C	-2.4203191975	-1.8656030769	-1.148822711	-0.16309
C	-1.5397412276	-2.1343462181	 0.0434928587	 0.347755
N	-1.0742436169	-3.1245643924	 0.6734699257	-0.227969
O	-1.5033663218	-4.3329545803	 0.0961232613	-0.389044
H	 0.8968417667	 1.906511751	-0.3724943536	 0.111191
H	-0.7221071076	 1.6777603069	-1.0631271996	 0.135518
H	-0.5293522264	 1.984953126	 0.6720393322	 0.111089
H	 0.4734713934	-0.5047282359	-0.8210900229	 0.075143
H	 0.4487601636	 0.1007250092	 2.1929289522	 0.112811
H	 0.9343993976	-1.4373575839	 1.4613624444	 0.139123
H	 1.8860231451	 0.0306657877	 1.1660264348	 0.11371
H	-1.8676815341	-0.2366887204	 1.1152266579	 0.094031
H	-3.4685313599	-2.1712343071	-1.0382785028	 0.127826
H	-2.0428162424	-2.2213482616	-2.1156133274	 0.129431
H	-1.0912091662	-4.9909771057	 0.6664286459	 0.310415
70.9178	102.3341	121.6015	201.3454	226.3631	229.8678	255.1019	303.4611	343.8546	375.2227	404.7143	462.7412	493.0725	613.0126	744.0783	828.9312	890.5814	925.8567	941.8431	971.7941	977.6128	1004.6163	1009.1852	1040.4853	1123.4604	1135.8144	1161.0651	1184.1084	1199.4054	1265.8645	1298.8581	1318.4836	1343.8894	1386.2546	1398.5357	1413.9323	1420.9467	1490.1115	1493.178	1499.0932	1503.3775	1515.6329	1811.7521	2989.9715	3017.443	3020.1122	3028.6563	3033.3828	3057.4987	3093.5295	3098.9253	3116.3404	3121.8622	3816.5885
CC(C)C1OCC1=NO	CC(C)[C@H]1OCC1=NO	
InChI=1S/C6H11NO2/c1-4(2)6-5(7-8)3-9-6/h4,6,8H,3H2,1-2H3	InChI=1S/C6H11NO2/c1-4(2)6-5(7-8)3-9-6/h4,6,8H,3H2,1-2H3/t6-/m1/s1
