20
gdb 69472	4.34564	0.87267	0.82367	4.048	82.25	-0.2436	0.033	0.2766	1453.7384	0.17086	-403.151323	-403.142327	-403.141383	-403.185857	33.658	
C	-0.1224475816	 1.5898759723	 0.1960522025	-0.498354
C	 0.0246189843	 0.1045653071	 0.0327064544	 0.36763
C	-0.8047504708	-0.892549562	 0.7924336252	-0.323467
C	 0.6946728336	-0.94387995	 0.9326092262	-0.123212
C	 1.2857257293	-1.6627259449	-0.2895221294	 0.063579
C	 0.6130401195	-0.5872055122	-1.2101407947	-0.316427
N	 2.730934152	-1.6819512777	-0.3446805314	-0.291053
C	 3.4662133325	-2.8065706572	-0.564053307	 0.152825
O	 3.0192892329	-3.9169571115	-0.7561765955	-0.322156
H	 0.8014533236	 2.1184631538	-0.0668500028	 0.110977
H	-0.9206540765	 1.9822105651	-0.4459409968	 0.123413
H	-0.374715496	 1.8499981243	 1.2293711995	 0.119606
H	-1.3348242619	-0.4959945186	 1.6532015631	 0.111095
H	-1.3331487127	-1.6922927604	 0.2767260593	 0.108016
H	 1.191900726	-0.832818362	 1.8900604564	 0.084715
H	 0.9641474991	-2.6956192952	-0.433594488	 0.119932
H	-0.0990978609	-0.9461248487	-1.9607854745	 0.102068
H	 1.3714630577	 0.0212873996	-1.7117257405	 0.09795
H	 3.2285110938	-0.8182717344	-0.1897786979	 0.242381
H	 4.5531920362	-2.5880595275	-0.5490091782	 0.070482
31.8213	88.2672	187.3811	212.0811	216.5946	299.8385	345.0663	373.8713	431.323	445.0276	547.1698	609.3274	710.6933	785.9555	818.2945	861.002	886.4686	939.7826	956.3179	996.0612	1026.005	1028.5334	1032.5004	1049.4906	1078.754	1096.9921	1137.2484	1161.8453	1226.5514	1235.6582	1250.5508	1268.5881	1294.5	1360.2208	1393.0853	1424.2515	1433.7512	1480.0927	1485.4382	1498.0035	1505.1692	1538.3049	1807.7986	2927.865	3018.6545	3040.9444	3075.7627	3093.1332	3094.9047	3099.4184	3110.3888	3171.0028	3192.8141	3618.312
CC12CC1C(C2)NC=O	C[C@]12C[C@H]1[C@@H](C2)NC=O	
InChI=1S/C7H11NO/c1-7-2-5(7)6(3-7)8-4-9/h4-6H,2-3H2,1H3,(H,8,9)	InChI=1S/C7H11NO/c1-7-2-5(7)6(3-7)8-4-9/h4-6H,2-3H2,1H3,(H,8,9)/t5-,6+,7+/m0/s1
