17
gdb 127546	3.18255	1.41072	0.98507	5.1317	84.78	-0.1898	-0.0214	0.1685	1165.3424	0.138119	-414.193695	-414.185386	-414.184442	-414.226394	31.641	
C	 0.0714582173	 1.4392827234	-0.0526540158	-0.338521
N	 0.0390886558	-0.0118647732	 0.0185960698	-0.052564
N	-0.0411137215	-0.6489697284	-1.1735903851	-0.220395
C	-0.0334046083	-1.940313475	-1.1803566271	-0.054126
C	 0.0481812728	-2.815836961	-0.0048291199	 0.266258
N	 0.0603692033	-4.108077478	-0.0334406105	-0.566969
C	 0.0944995327	-2.0628785983	 1.2239271667	-0.246562
C	 0.0966362066	-0.7016861957	 1.2117347147	 0.430235
N	 0.2286317169	 0.0847450339	 2.3553884716	-0.586759
H	 0.9096010915	 1.8351233021	 0.5275989239	 0.151608
H	 0.1918871421	 1.7016263401	-1.1020825521	 0.16487
H	-0.8606229362	 1.8897465833	 0.3142574264	 0.128341
H	-0.0940614018	-2.3925034489	-2.1682321674	 0.1167
H	 0.007540269	-4.4349460747	-1.0007400975	 0.195377
H	 0.1240984818	-2.5969426392	 2.1661298754	 0.095945
H	 0.1648877463	-0.4632686321	 3.2023012981	 0.261303
H	-0.3909389283	 0.8830914916	 2.4011784185	 0.255258
99.5637	146.1308	189.5822	217.0106	309.3469	345.068	351.2313	451.2305	478.9671	503.6324	585.4183	618.5229	706.5956	727.4924	741.103	788.3884	815.7903	858.2488	931.1192	964.998	1022.4562	1122.7692	1147.1439	1166.8984	1235.8714	1262.2181	1294.3056	1363.4509	1393.6852	1438.5062	1486.236	1493.4225	1515.2706	1607.9187	1626.8991	1665.8578	1696.2609	3011.7831	3091.1191	3153.5205	3172.4792	3201.1133	3435.378	3548.5788	3644.7595
CN1N=CC(=N)C=C1N	CN1N=CC(=C[C@H]1N)[NH]	
InChI=1S/C5H8N4/c1-9-5(7)2-4(6)3-8-9/h2-3,6H,7H2,1H3	InChI=1S/C5H9N4/c1-9-5(7)2-4(6)3-8-9/h2-3,5-6H,7H2,1H3/t5-/m0/s1
