22
gdb 90174	3.41661	1.29496	1.21232	2.0164	85.12	-0.2107	0.075	0.2857	1156.2972	0.196708	-367.179166	-367.171225	-367.17028	-367.211079	32.735	
C	-0.0719139272	 1.5859535957	 0.0085486849	-0.404014
C	 0.0114445167	 0.0592074071	 0.0042562674	 0.021703
C	 0.8088458549	-0.5245267589	-1.2121576125	-0.322168
C	 1.3767241302	-1.8194391422	-0.6860050245	 0.262281
C	 2.7906590997	-2.431679468	-0.6673259006	-0.270987
C	 2.7168501824	-2.4401320526	 0.9062822004	-0.270987
C	 1.3070657554	-1.8274178502	 0.7990971007	 0.262281
C	 0.6917811971	-0.5379354167	 1.2836385757	-0.322168
N	 0.4921357445	-2.776856361	 0.011565982	-0.404777
H	 0.9270803469	 2.0344946506	 0.0578164793	 0.114096
H	-0.5608883771	 1.9600081998	-0.8972016193	 0.11552
H	-0.643709626	 1.950522183	 0.8685113814	 0.11552
H	-1.0160071097	-0.3227594945	-0.0459881461	 0.077062
H	 0.176124472	-0.615415191	-2.1030090954	 0.099375
H	 1.634652905	 0.1489020137	-1.4764234576	 0.09927
H	 2.893535232	-3.4001877772	-1.1622359879	 0.104096
H	 3.5559525958	-1.748979242	-1.0445309977	 0.097757
H	 2.7734390332	-3.4139412097	 1.3982386515	 0.104096
H	 3.4431338133	-1.7618985938	 1.3607587956	 0.097757
H	 1.4888889262	 0.1322059423	 1.6312444535	 0.09927
H	-0.0215006366	-0.6380508957	 2.1103304064	 0.099375
H	-0.4659676992	-2.4381099891	-0.0315543461	 0.22564
119.1458	202.186	239.8237	288.4157	293.9313	332.0027	414.0486	457.3438	509.7756	577.9651	661.6667	714.9845	759.6139	781.0395	821.0751	849.2413	880.8444	927.6912	927.8076	934.3553	966.2118	1017.7518	1050.322	1063.1436	1069.7216	1097.5359	1135.4646	1144.1808	1181.3658	1215.9479	1232.6804	1238.7938	1239.1176	1269.1191	1290.4687	1335.7132	1356.4322	1361.5084	1382.8234	1394.2077	1414.8601	1464.8592	1485.7356	1488.4421	1495.7478	1498.3314	1503.9253	3014.9496	3018.7205	3020.8829	3027.3504	3055.9246	3058.5494	3060.2948	3065.5383	3093.6141	3097.5244	3108.787	3126.1843	3509.1245
CC1CC23CCC2(C1)N3	C[C@H]1C[C@@]23CC[C@]2(C1)N3	
InChI=1S/C8H13N/c1-6-4-7-2-3-8(7,5-6)9-7/h6,9H,2-5H2,1H3	InChI=1S/C8H13N/c1-6-4-7-2-3-8(7,5-6)9-7/h6,9H,2-5H2,1H3/t6-,7-,8+
