17
gdb 56064	4.49971	0.67602	0.63336	3.1656	77.91	-0.245	-0.0262	0.2188	1754.3711	0.133307	-455.190937	-455.181001	-455.180056	-455.22774	33.623	
C	 0.1386553448	 1.5928765641	 0.3307855362	-0.476577
C	 0.0279530636	 0.0836310534	 0.417745295	 0.387706
O	 0.9493865475	-0.6240329278	 0.7397127795	-0.280424
C	-1.3434960139	-0.503095531	 0.0297281685	-0.272652
N	-1.5835837842	-1.7964929764	 0.6169282851	-0.233515
C	-1.0420494701	-2.7935218601	 0.0524318178	 0.139381
N	-1.1643125771	-4.0585331539	 0.6061449211	-0.306143
C	-0.6634909685	-5.205111052	 0.0323539963	 0.161968
O	-0.0840500123	-5.2511341556	-1.0259624202	-0.293953
H	-0.4090859199	 2.0440494588	 1.166845581	 0.149814
H	 1.1848966235	 1.895928083	 0.3827034132	 0.147345
H	-0.3198916704	 1.9688224501	-0.5901817613	 0.13703
H	-2.1328485355	 0.1923928899	 0.334103558	 0.118907
H	-1.3487610077	-0.5146730423	-1.0756857048	 0.123333
H	-0.4659998764	-2.7878874004	-0.8755096595	 0.139685
H	-1.6449350191	-4.1142822047	 1.4933251622	 0.265904
H	-0.8581160143	-6.0925961749	 0.6631957018	 0.092192
26.5351	54.1952	105.0393	133.1949	160.0448	163.2349	284.3337	323.9855	352.0057	396.4122	469.0604	512.3871	640.9338	657.5041	792.1037	794.9644	872.4126	965.0646	1019.6197	1030.9442	1068.6174	1089.1601	1107.5098	1180.5194	1227.9975	1264.7725	1341.2201	1363.981	1381.0999	1439.2338	1462.0834	1471.7484	1476.6533	1503.6979	1746.4304	1820.2457	1828.5618	2948.0364	2961.8368	3035.3313	3066.8897	3096.8336	3115.0978	3153.7163	3609.5978
CC(=O)CN=CNC=O	CC(=O)CN=CNC=O	
InChI=1S/C5H8N2O2/c1-5(9)2-6-3-7-4-8/h3-4H,2H2,1H3,(H,6,7,8)	InChI=1S/C5H8N2O2/c1-5(9)2-6-3-7-4-8/h3-4H,2H2,1H3,(H,6,7,8)
