21
gdb 112573	3.67909	0.94776	0.9123	2.3769	81.54	-0.248	0.0144	0.2623	1402.4656	0.180663	-424.226357	-424.216645	-424.215701	-424.260858	36.471	
C	 0.1376791612	 1.3387384962	 0.1268887339	-0.237164
O	 0.0299547939	-0.0425810956	-0.1210274818	-0.242463
C	-1.2934822552	-0.5475930727	-0.0204147559	 0.10069
C	-1.3499814576	-1.9488891975	-0.6576990448	-0.288132
C	-2.2797477388	-2.8032977876	 0.2352765252	 0.368131
C	-3.6890957827	-2.9718500206	-0.3491289069	-0.440189
O	-1.6668459239	-4.0871543497	 0.393211368	-0.471147
C	-2.2964303334	-2.0104063876	 1.5299646365	-0.118473
C	-1.7673728059	-0.7980704519	 1.3968737623	-0.103946
H	 1.1819083056	 1.6164907025	-0.0372411524	 0.127353
H	-0.4970365173	 1.9257954902	-0.5564765141	 0.10185
H	-0.1344649685	 1.6066659283	 1.1591849397	 0.103441
H	-1.9736187359	 0.1567220749	-0.5317928433	 0.063729
H	-1.6584182507	-1.9326503633	-1.7054138454	 0.095181
H	-0.3461366927	-2.3758150968	-0.6012612947	 0.135399
H	-3.643475304	-3.5550585434	-1.2740718383	 0.124701
H	-4.344999976	-3.4966463256	 0.3567885225	 0.102999
H	-4.1484937027	-2.0024243782	-0.5653431082	 0.120757
H	-2.2911390622	-4.6608399244	 0.8505539891	 0.272279
H	-2.7293237538	-2.4198867547	 2.4381751462	 0.087872
H	-1.6940348295	-0.0501899727	 2.1786809622	 0.097132
57.9707	99.6269	170.7079	211.8658	249.3964	262.4064	264.0517	314.2078	340.3539	389.7785	425.929	483.1772	564.7611	619.5735	702.2624	789.9988	818.4687	874.5237	940.2438	949.1941	961.8109	979.451	1013.5233	1050.5824	1086.5035	1127.2409	1140.9066	1156.9162	1182.9797	1190.5697	1222.4437	1258.6428	1289.043	1316.7317	1354.82	1375.5894	1397.0019	1404.9709	1476.9818	1480.6191	1490.8085	1491.0754	1495.4262	1509.4424	1687.5633	2936.0974	2970.2975	3015.5556	3022.5431	3073.7361	3090.0137	3110.6979	3112.8937	3127.2715	3167.4146	3201.037	3804.2445
COC1CC(C)(O)C=C1	CO[C@H]1C[C@@](C)(O)C=C1	
InChI=1S/C7H12O2/c1-7(8)4-3-6(5-7)9-2/h3-4,6,8H,5H2,1-2H3	InChI=1S/C7H12O2/c1-7(8)4-3-6(5-7)9-2/h3-4,6,8H,5H2,1-2H3/t6-,7+/m1/s1
