19
gdb 72234	2.53454	1.9244	1.34082	1.7756	74.41	-0.2362	0.0696	0.3058	989.3673	0.159554	-422.998438	-422.990578	-422.989634	-423.030151	31.672	
C	-0.0222960936	 1.4337671714	 0.0922201674	-0.489631
C	 0.0072135571	-0.0732076177	 0.0136410943	 0.260446
C	 0.9734005611	-0.7401097853	-0.9671250737	-0.146683
O	 0.3822389786	-1.9954180348	-1.3134731578	-0.263542
C	-0.6350191683	-2.2417221579	-0.3530845041	 0.083236
C	-0.0428356554	-2.3444704399	 1.0934927215	-0.322653
C	-0.3709363869	-0.8621752932	 1.251895468	 0.343072
O	-0.5008844782	-0.193000107	 2.4526048482	-0.459174
C	-1.2727823395	-0.8827737628	 0.0103378656	-0.223135
H	 0.9455216308	 1.8281859565	 0.4216412089	 0.123624
H	-0.2466839237	 1.8702888996	-0.8871818154	 0.11605
H	-0.7724409154	 1.7766268011	 0.807499922	 0.133004
H	 1.0872784191	-0.1424185369	-1.8801239067	 0.100315
H	 1.971880279	-0.8929785562	-0.5335962119	 0.096592
H	-1.2561359585	-3.0630741399	-0.7058404797	 0.084705
H	-0.6812858271	-2.9565667497	 1.7406864218	 0.089742
H	 0.9956947505	-2.6806602363	 1.1820555953	 0.100078
H	-1.1445231712	-0.6650694882	 2.9929116072	 0.285452
H	-2.2619228684	-0.4981639029	-0.1999707709	 0.088501
176.4396	203.7954	208.7714	272.0914	295.829	339.9523	382.2419	446.8185	466.279	599.3195	619.8007	697.4982	729.1819	784.7876	853.3418	884.0194	907.6502	941.6494	958.2981	981.0009	1008.7637	1031.0486	1067.0667	1082.3487	1123.2663	1135.6792	1172.0798	1211.8775	1216.4048	1234.3979	1264.7726	1293.9188	1299.5669	1352.3645	1380.4538	1417.254	1446.195	1489.2673	1493.0634	1505.4255	1525.1037	2999.2461	3030.8007	3033.0237	3042.2656	3083.6255	3088.342	3129.6871	3135.3491	3203.6053	3790.8997
CC12COC3CC1(O)C23	C[C@@]12CO[C@H]3C[C@]1(O)[C@@H]23	
InChI=1S/C7H10O2/c1-6-3-9-4-2-7(6,8)5(4)6/h4-5,8H,2-3H2,1H3	InChI=1S/C7H10O2/c1-6-3-9-4-2-7(6,8)5(4)6/h4-5,8H,2-3H2,1H3/t4-,5+,6-,7-/m0/s1
