17
gdb 41302	4.02635	1.63142	1.55221	0.5779	71.46	-0.2399	0.0565	0.2964	883.5801	0.137783	-421.679938	-421.673984	-421.67304	-421.709889	25.815	
C	 0.0365491396	 1.5392828544	 0.2090580633	-0.201401
O	 1.4762632069	 1.5470523937	-0.1391162447	-0.326087
C	 1.1764160888	 0.3641116967	-0.9720160583	 0.1524
C	 1.4178383655	-1.1543494333	-1.1656785828	-0.172678
C	 1.1183217953	-1.9479527596	 0.1492011947	 0.0593
C	 0.6395111305	-0.806006527	 1.0366251608	-0.224152
C	 0.0110745658	 0.0181918798	-0.1218063425	 0.155549
C	-0.1851904535	-1.2572186381	-1.1380357664	 0.019612
O	-0.1484323118	-2.4582777965	-0.3953447346	-0.278909
H	-0.1268779278	 1.834341288	 1.2487687831	 0.11742
H	-0.526981484	 2.1848982777	-0.4739147516	 0.109738
H	 0.8896713995	 0.7484732497	-1.9621022472	 0.081954
H	 2.0308291061	-1.604428588	-1.9445101471	 0.089742
H	 1.7642732	-2.7333748085	 0.5362617371	 0.087468
H	-0.0979624485	-1.1457825875	 1.7686587351	 0.105592
H	 1.4453742029	-0.2606327154	 1.52976525	 0.123146
H	-0.8640998853	-1.2269815562	-1.987620169	 0.101306
257.8893	296.7214	345.8378	459.9413	482.109	595.0635	662.1886	717.7566	737.1035	778.6393	821.5052	825.6067	852.6015	894.3204	906.8046	941.3353	964.0874	981.2642	1009.2063	1035.7755	1042.0177	1064.4595	1115.1101	1121.1218	1139.5196	1148.7871	1204.1522	1216.685	1229.4384	1246.9889	1281.5285	1288.588	1324.3689	1333.0115	1408.7154	1474.5927	1504.4267	2990.2897	3035.1241	3069.0117	3107.5653	3134.1773	3136.1535	3145.5106	3152.4374
C1OC2C3C4CC12C3O4	C1O[C@H]2[C@H]3[C@H]4C[C@@]12[C@@H]3O4	
InChI=1S/C7H8O2/c1-3-4-5-7(1,2-8-5)6(4)9-3/h3-6H,1-2H2	InChI=1S/C7H8O2/c1-3-4-5-7(1,2-8-5)6(4)9-3/h3-6H,1-2H2/t3-,4-,5+,6-,7-/m1/s1
