15
gdb 21208	6.90119	1.31418	1.11729	2.2354	64.32	-0.1895	0.0454	0.2349	1033.4598	0.121436	-392.187521	-392.179553	-392.178609	-392.219606	28.82	
C	-0.0483350069	 1.3971434809	 0.0978441565	-0.314828
N	-0.0490161932	-0.0324441526	-0.1508281686	-0.371614
C	-1.2290738889	-0.7262802371	-0.0456529296	 0.438053
N	-2.4167605901	-0.1436712363	-0.0544276346	-0.32147
N	-3.2534511178	-1.2476161001	-0.0081090196	-0.262419
C	-2.5218337673	-2.37631398	 0.0591639476	 0.41979
N	-3.0651290047	-3.638820132	 0.2069506791	-0.60073
N	-1.2323625373	-2.0978249712	 0.0235825499	-0.397475
H	 0.9584192317	 1.7861872616	-0.0718018244	 0.115999
H	-0.731989432	 1.8866943965	-0.6004794279	 0.147685
H	-0.3683120586	 1.6629155284	 1.1163654211	 0.11426
H	 0.7358349357	-0.5497650893	 0.2138771375	 0.244268
H	-4.2409802135	-1.1168968937	 0.1218002584	 0.267499
H	-3.9100482574	-3.8016984394	-0.3233044514	 0.253628
H	-2.3741000096	-4.3548542756	 0.0290891258	 0.267353
100.4314	147.5847	196.0954	242.8567	267.2466	303.2654	352.8257	413.0271	495.0312	532.4218	651.2256	714.0081	746.5773	777.8248	793.8514	995.165	1065.8723	1090.0195	1103.5057	1154.3583	1172.755	1189.5508	1308.3569	1371.4733	1452.7772	1477.2361	1482.9544	1515.378	1554.4168	1605.5454	1633.6951	1664.0801	2994.3956	3085.3778	3127.8744	3557.7101	3625.1715	3656.0561	3686.2867
CNC1=NNC(N)=N1	CNc1n[nH]c(N)n1	
InChI=1S/C3H7N5/c1-5-3-6-2(4)7-8-3/h1H3,(H4,4,5,6,7,8)	InChI=1S/C3H7N5/c1-5-3-6-2(4)7-8-3/h1H3,(H4,4,5,6,7,8)
