19
gdb 87529	3.3625	1.34134	1.24481	1.2333	75.23	-0.2316	0.0656	0.2972	1068.6287	0.159665	-422.970931	-422.963023	-422.962079	-423.003327	31.007	
O	 0.1352642598	 1.3574738383	-0.089206004	-0.424254
C	 0.0239414329	-0.0355933906	-0.0075054175	 0.029876
C	-0.4223108999	-0.7459815255	 1.2577508081	-0.432672
C	-1.2879468687	-0.7354728851	 0.0287146558	 0.387085
C	-2.6938318479	-0.1428958116	-0.2272949924	-0.167414
C	-2.5458096714	-0.7371379316	-1.6661530132	-0.232006
C	-1.8332219131	-1.855235108	-0.8637370866	 0.008546
O	-2.8936112853	-2.4231627534	-0.0724649997	-0.278931
C	-3.5507250002	-1.2357160712	 0.4310675626	-0.073157
H	-0.5799231616	 1.7519739861	 0.4200662396	 0.283336
H	 0.8328319303	-0.4857012592	-0.5758504725	 0.109585
H	 0.0758065471	-1.6649261659	 1.5521419977	 0.121
H	-0.7292542501	-0.1219128658	 2.0943383125	 0.107376
H	-2.9551537853	 0.8985858389	-0.0383172421	 0.06629
H	-3.4551946378	-1.0180720158	-2.2030779575	 0.097527
H	-1.8715544322	-0.1513055478	-2.2911072302	 0.115879
H	-1.2293186131	-2.6483263292	-1.3013349271	 0.081515
H	-3.5086992026	-1.2187029356	 1.526243045	 0.100736
H	-4.5985762809	-1.2209918369	 0.1092374015	 0.099683
123.6258	135.5769	136.6956	219.1162	336.4197	369.0856	441.1617	469.6416	592.4959	633.3394	675.4154	816.3071	818.9755	848.8464	885.7907	914.2181	928.1301	954.5927	961.4742	986.3892	1020.1349	1030.5384	1049.656	1072.2932	1085.4495	1103.824	1127.1331	1149.9937	1176.4246	1193.0079	1233.8941	1238.3813	1254.4945	1282.0406	1305.1306	1352.8298	1383.79	1437.6506	1482.7883	1495.7529	1524.3149	3024.0862	3065.5526	3070.6857	3107.2036	3114.0971	3140.7534	3147.5454	3153.5178	3193.6026	3820.9499
OC1CC11C2CC1OC2	O[C@H]1C[C@]21[C@H]1C[C@@H]2OC1	
InChI=1S/C7H10O2/c8-5-2-7(5)4-1-6(7)9-3-4/h4-6,8H,1-3H2	InChI=1S/C7H10O2/c8-5-2-7(5)4-1-6(7)9-3-4/h4-6,8H,1-3H2/t4-,5-,6-,7+/m0/s1
