19
gdb 65071	2.0677	1.67975	1.25503	3.736	75.62	-0.2414	-0.0234	0.218	1090.5553	0.158126	-419.161028	-419.151973	-419.151028	-419.194968	33.872	
C	 0.1629144677	 0.7795983438	 1.2870847576	-0.478171
C	-0.0308077703	-0.0629527407	 0.0372031427	 0.229795
C	 0.701350826	 0.350968327	-1.192163063	-0.302963
N	 1.1015296379	-0.8600458506	-0.4601470496	-0.331527
C	-1.3663841092	-0.7648782114	-0.0417319306	 0.178237
C	-2.5602962839	-0.0057184662	-0.5466018294	-0.26876
N	-2.0164915043	-1.1097351131	-1.3224105121	-0.346125
C	-1.6401689284	-1.8184519858	 0.9905697715	 0.152947
O	-0.9732042473	-2.0258294381	 1.9721485273	-0.266812
H	 1.1399721539	 1.2735796911	 1.2685333574	 0.108581
H	-0.604428349	 1.558088223	 1.3593357562	 0.119288
H	 0.1023303609	 0.1539675565	 2.1797357876	 0.160916
H	 0.3135118041	 0.1742694157	-2.1925808287	 0.11073
H	 1.3149580462	 1.2456817619	-1.1173107591	 0.115207
H	 1.9305192393	-0.685050144	 0.1022983082	 0.234603
H	-3.5449390197	-0.1764100971	-0.1188959179	 0.127666
H	-2.3699023071	 1.0163806194	-0.8654160101	 0.125079
H	-1.4581572624	-0.7742291487	-2.1011681769	 0.242404
H	-2.5487908545	-2.4162552825	 0.7578749888	 0.088903
47.3749	118.2758	184.4536	212.7988	237.2028	270.4238	337.7352	353.9993	384.0891	434.4609	519.7139	559.5795	638.0783	806.6416	840.4174	865.199	897.8558	928.4968	955.7569	966.7865	974.3133	1011.1914	1049.2889	1055.8754	1082.7755	1115.0929	1131.9765	1150.4894	1232.7196	1260.0656	1277.6176	1317.6748	1339.0495	1400.7405	1409.516	1433.3658	1482.2886	1504.2478	1514.3115	1521.4138	1824.7923	2897.5931	3034.1257	3096.1253	3096.7448	3102.541	3137.4673	3173.3456	3189.0046	3501.4772	3532.8328
CC1(CN1)C1(CN1)C=O	C[C@]1(CN1)[C@]1(CN1)C=O	
InChI=1S/C6H10N2O/c1-5(2-7-5)6(4-9)3-8-6/h4,7-8H,2-3H2,1H3	InChI=1S/C6H10N2O/c1-5(2-7-5)6(4-9)3-8-6/h4,7-8H,2-3H2,1H3/t5-,6-/m0/s1
