22
gdb 6174	3.29537	1.28868	1.18618	1.7313	78.69	-0.2536	0.0842	0.3377	1181.4947	0.197018	-350.208721	-350.198686	-350.197742	-350.24313	36.891	
C	 0.3203396007	 0.7126250871	 1.5220348571	-0.386441
C	-0.4700688214	-0.5669989807	 1.8336333196	-0.005794
C	-1.1502714124	-0.4951533868	 3.2083840899	-0.390969
C	-1.5038260822	-0.8081143132	 0.7524129437	 0.029852
O	-1.0371987211	-1.1953529571	-0.5463459634	-0.309121
C	-1.8845463228	-2.1122209338	 0.1734728132	 0.392048
C	-1.2287953449	-3.4106966694	 0.5923853932	-0.45715
C	-3.2704572932	-2.2691822213	-0.4189848993	-0.450862
H	 1.1012515566	 0.8828269364	 2.27018672	 0.108654
H	 0.793585167	 0.6441074154	 0.5385511195	 0.131697
H	-0.3372198926	 1.5901520285	 1.5205948602	 0.110481
H	 0.2345655848	-1.4052762882	 1.8349281514	 0.074999
H	-1.8828381627	 0.3200689279	 3.2424975886	 0.114673
H	-1.6756588896	-1.4256790976	 3.4465587719	 0.113903
H	-0.4153602487	-0.3103949529	 3.9981947979	 0.115017
H	-2.2716192729	-0.0273961128	 0.7179824207	 0.072723
H	-1.191061065	-4.0999658769	-0.2584769844	 0.123535
H	-0.2076285405	-3.2575084386	 0.9432747829	 0.129727
H	-1.8044966892	-3.8975743303	 1.3872715195	 0.118429
H	-3.2383799881	-2.9214067528	-1.2988817041	 0.122371
H	-3.9571406357	-2.7200693988	 0.3059459123	 0.117077
H	-3.674230276	-1.3015725641	-0.7264825205	 0.12515
59.0942	125.9161	154.7923	187.2908	209.589	220.4262	253.5162	284.8303	358.2613	368.7944	389.2595	425.1199	488.611	531.5607	711.8965	801.9153	869.3988	920.3173	928.8218	944.6208	953.8439	971.0936	1005.2403	1070.2353	1105.9796	1149.5659	1158.5585	1178.3093	1203.1277	1263.7285	1318.6955	1340.9837	1363.6484	1395.9958	1407.1427	1416.5484	1418.4003	1466.8889	1473.8657	1486.873	1488.2114	1490.9909	1500.1491	1503.6976	1509.4037	1524.7628	3026.2272	3029.3045	3030.8186	3036.8184	3042.724	3054.6989	3090.635	3091.2294	3096.3719	3098.3934	3103.6679	3115.5149	3122.3431	3142.3719
CC(C)C1OC1(C)C	CC(C)[C@H]1OC1(C)C	
InChI=1S/C7H14O/c1-5(2)6-7(3,4)8-6/h5-6H,1-4H3	InChI=1S/C7H14O/c1-5(2)6-7(3,4)8-6/h5-6H,1-4H3/t6-/m1/s1
