15
gdb 19807	4.00734	2.10653	1.82135	3.151	64.12	-0.2357	-0.039	0.1967	751.9057	0.119404	-362.599404	-362.593213	-362.592269	-362.62962	24.583	
O	 0.010725049	-0.0135717738	-0.0100337044	-0.285881
C	-0.0198685501	 1.1804213251	 0.0226976467	 0.388072
C	-1.1642369341	 2.2251284072	 0.0714535857	-0.374156
C	-0.0832899126	 3.3390095827	 0.1207626404	-0.046244
C	 0.5252221088	 3.7009176888	 1.4865673938	-0.024371
C	 0.6902606647	 2.5525574615	 2.3969654119	-0.252472
N	 1.6891143503	 2.7248261868	 1.3193810158	-0.143572
C	 1.059338994	 2.2950416437	-0.0028078179	-0.088957
H	-1.736359383	 2.2241305831	-0.8625594913	 0.138268
H	-1.8641237582	 2.1378963662	 0.9073969781	 0.131661
H	-0.1782987483	 4.1649768853	-0.5799419998	 0.087993
H	 0.7048095775	 4.7194625951	 1.815892433	 0.102448
H	 1.1182103151	 2.7641581011	 3.3724734937	 0.130132
H	 0.011002387	 1.705428728	 2.3933078902	 0.133152
H	 1.8024509701	 2.2712285894	-0.7998799358	 0.103925
110.8489	233.9737	333.6936	429.213	473.4059	555.9103	621.6426	706.8202	717.1138	757.4723	848.4705	867.9262	878.4749	901.8118	968.5466	1023.6078	1037.5752	1046.8193	1067.6246	1099.6103	1107.1463	1142.0978	1152.3427	1210.1057	1220.5426	1236.0554	1252.3418	1310.6575	1366.4422	1430.8299	1512.9014	1887.3215	3052.3422	3106.8165	3115.4826	3121.4758	3142.8149	3161.5218	3202.6137
O=C1CC2C3CN3C12	O=C1C[C@H]2[C@H]3CN3[C@@H]12	
InChI=1S/C6H7NO/c8-5-1-3-4-2-7(4)6(3)5/h3-4,6H,1-2H2	InChI=1S/C6H7NO/c8-5-1-3-4-2-7(4)6(3)5/h3-4,6H,1-2H2/t3-,4+,6+,7?/m0/s1
