23
gdb 88585	2.5845	1.05432	0.90114	1.4237	86.59	-0.2325	0.0767	0.3092	1425.8607	0.204433	-388.260288	-388.250064	-388.24912	-388.295797	38.275	
C	-0.4454292871	 0.9302563898	-1.5567754345	-0.40209
C	 0.0551082573	-0.2481265967	-0.7478907831	-0.035491
C	 1.5258863021	-0.5905549737	-0.6039393397	-0.037644
C	 2.6289563422	 0.2095322679	-1.2649356611	-0.404148
C	 0.7402282713	-0.0881762689	 0.5966758698	-0.046923
C	 0.9897576027	 1.2476635258	 1.2246397654	-0.042629
C	 0.1197088566	 1.716301957	 2.3799951288	-0.315335
C	 1.5422273731	 1.3245620126	 2.6336172936	 0.096834
O	 1.7304416256	 0.149891452	 3.3715308932	-0.41698
H	 0.2090380974	 1.8022859597	-1.4880423967	 0.112653
H	-0.5317605901	 0.6688082648	-2.6174988491	 0.112963
H	-1.4370329212	 1.2430458113	-1.2114278577	 0.118413
H	-0.6047119973	-1.1103133365	-0.8158570126	 0.077982
H	 1.7407334264	-1.6569261973	-0.5843191969	 0.076941
H	 2.4098116682	 1.2786964463	-1.3134149077	 0.115508
H	 3.5748731669	 0.0958922546	-0.7227616918	 0.110957
H	 2.7965029874	-0.1339217446	-2.2919470313	 0.115697
H	 0.4936139736	-0.845838727	 1.334589193	 0.08719
H	 1.3370043183	 2.0306521644	 0.5587816231	 0.077763
H	-0.1583413827	 2.7622912801	 2.4453611782	 0.108106
H	-0.631881417	 1.021236992	 2.739040791	 0.122177
H	 2.2578696005	 2.1171368198	 2.8534106436	 0.080664
H	 2.5040724658	-0.3005865535	 3.0156103326	 0.287392
36.2618	112.2419	152.2331	168.2064	185.1396	201.8799	252.7566	282.3675	320.7595	416.0653	456.843	488.3322	503.2183	626.0279	749.555	773.1644	785.2114	812.8195	856.723	939.8818	946.7928	959.5398	1015.2267	1021.0533	1047.8987	1052.5141	1071.0416	1106.0915	1127.9838	1138.7993	1161.0273	1176.6199	1189.9353	1203.9097	1235.0685	1273.7557	1302.3299	1309.1032	1377.9171	1417.132	1419.3105	1421.5059	1423.9172	1462.1324	1488.2913	1488.9516	1495.2864	1502.3797	1516.9457	3028.9133	3033.1542	3081.8636	3086.3491	3092.2534	3104.4096	3114.2566	3121.9012	3131.4265	3134.1231	3149.4232	3162.4815	3223.4895	3799.7095
CC1C(C)C1C1CC1O	C[C@H]1[C@@H](C)[C@H]1[C@H]1C[C@H]1O	
InChI=1S/C8H14O/c1-4-5(2)8(4)6-3-7(6)9/h4-9H,3H2,1-2H3	InChI=1S/C8H14O/c1-4-5(2)8(4)6-3-7(6)9/h4-9H,3H2,1-2H3/t4-,5+,6-,7+,8-/m0/s1
