25
gdb 122972	3.83943	0.56664	0.51195	1.4811	88.07	-0.2426	0.0838	0.3265	2264.1302	0.225319	-426.618191	-426.606148	-426.605204	-426.657091	41.433	
C	 0.0287744321	 1.5648920004	 0.0967961014	-0.384133
C	 0.000749346	 0.0467024326	 0.0367912769	-0.025038
O	 0.7016292973	-0.4625891328	 1.1506156019	-0.245333
C	 0.7236798588	-1.8738573803	 1.1970210704	-0.055796
C	 1.4688113621	-2.3006540114	 2.4551477639	-0.206103
C	 1.6070260482	-3.8165529889	 2.5873793307	 0.136402
C	 2.4326138183	-4.2060403854	 3.816965736	-0.402848
O	 0.2854117452	-4.3460658187	 2.6445420972	-0.244056
C	 0.1843733775	-5.7248570498	 2.380769876	-0.233783
H	 1.0594327799	 1.9307036375	 0.077402563	 0.124229
H	-0.507765188	 1.9916523433	-0.7560124201	 0.111729
H	-0.4424497815	 1.9205246766	 1.0175466695	 0.125443
H	-1.0397503652	-0.3214277015	 0.040033345	 0.083138
H	 0.4614816176	-0.3110913216	-0.9006498634	 0.080417
H	-0.2983557148	-2.2804237483	 1.2068162426	 0.101885
H	 1.2260226494	-2.2781154838	 0.2993511857	 0.073742
H	 2.4664565745	-1.8480745903	 2.4481724509	 0.101748
H	 0.9424695965	-1.910210523	 3.3336529957	 0.110945
H	 2.1055221373	-4.2114098293	 1.6836765283	 0.060065
H	 2.540243108	-5.290702667	 3.9055947334	 0.114188
H	 3.4380149809	-3.7782055089	 3.7532855148	 0.116042
H	 1.953838944	-3.8328038413	 4.7278132668	 0.124015
H	 0.6560925198	-6.3441162954	 3.1576797337	 0.10596
H	-0.8807441799	-5.9686620676	 2.3476207477	 0.125852
H	 0.6368389559	-5.988251335	 1.4113147023	 0.101289
37.8777	62.604	66.1292	103.4448	129.7643	136.789	189.2025	209.1539	247.8248	249.7731	286.4961	318.8465	399.9636	445.8371	516.5849	543.6252	783.6236	820.0445	838.5213	894.8518	935.5096	973.1597	1023.8382	1056.8207	1102.7208	1118.244	1144.7802	1155.1622	1165.343	1180.1904	1184.3852	1193.0353	1220.8888	1258.0486	1295.111	1299.3856	1311.8771	1375.0496	1386.0886	1395.1808	1403.6091	1409.1822	1451.0667	1476.9608	1479.211	1483.5676	1484.2693	1493.2829	1499.6194	1504.3541	1512.8681	1518.8516	1540.6152	2934.7294	2941.4869	2950.7696	2970.0589	2974.3027	3010.0837	3022.7771	3038.3072	3043.6267	3044.6588	3088.3997	3107.4275	3111.5643	3114.6817	3117.7873	3119.9205
CCOCCC(C)OC	CCOCC[C@@H](C)OC	
InChI=1S/C7H16O2/c1-4-9-6-5-7(2)8-3/h7H,4-6H2,1-3H3	InChI=1S/C7H16O2/c1-4-9-6-5-7(2)8-3/h7H,4-6H2,1-3H3/t7-/m1/s1
