19
gdb 116911	4.88079	0.5811	0.54871	2.3343	83.97	-0.249	0.025	0.274	2053.502	0.155504	-422.960176	-422.949728	-422.948784	-422.997676	35.836	
C	 0.4108522511	 1.4328059931	 0.0488655139	-0.219241
O	 0.5183115556	 0.0294170928	 0.1130838576	-0.227422
C	 0.1620628753	-0.5853951362	-1.1092320978	-0.208079
C	 0.294029017	-2.0318167682	-1.002703455	 0.046166
C	 0.4012939577	-3.2299737488	-0.9528106194	 0.116215
C	 0.5183955203	-4.664386799	-0.8303636159	 0.213316
C	 0.2561627382	-5.2289320307	 0.5506590443	-0.466211
C	 0.3169592072	-5.5043615932	-2.0298824486	-0.209911
O	 1.6282144612	-5.2608739062	-1.5339062313	-0.257381
H	 1.0762009028	 1.8601712068	-0.7182836035	 0.106366
H	-0.6191336185	 1.7556049279	-0.1726597267	 0.104914
H	 0.7014160286	 1.8233406856	 1.0264300329	 0.132679
H	-0.875638425	-0.3240335338	-1.3831949017	 0.115193
H	 0.8034829589	-0.21669761	-1.9291299554	 0.11944
H	-0.7594597324	-4.9875003497	 0.8779184862	 0.132058
H	 0.3816914096	-6.3143790861	 0.5411903885	 0.127442
H	 0.9564172358	-4.8012499997	 1.2737488726	 0.141322
H	-0.0569932507	-6.5202213766	-1.9026444814	 0.114448
H	 0.0776652272	-5.0316932178	-2.9808068093	 0.118687
18.9364	66.6688	71.6033	130.5395	177.1999	204.6165	230.1161	294.4198	321.2195	362.1238	374.7838	477.2106	540.7718	557.8736	667.5352	795.1692	874.0771	925.7203	976.6093	1024.8846	1028.2073	1069.3028	1098.165	1137.1308	1151.2202	1167.5758	1182.5346	1220.1461	1254.1455	1288.9302	1368.58	1409.4976	1411.2322	1477.3568	1478.0477	1484.4956	1494.0321	1494.5172	1515.7067	1521.7265	2368.2811	2941.916	2959.8188	2968.6905	3011.6741	3045.1067	3078.5204	3117.6829	3121.8238	3129.6787	3170.3615
COCC#CC1(C)CO1	COCC#C[C@@]1(C)CO1	
InChI=1S/C7H10O2/c1-7(6-9-7)4-3-5-8-2/h5-6H2,1-2H3	InChI=1S/C7H10O2/c1-7(6-9-7)4-3-5-8-2/h5-6H2,1-2H3/t7-/m0/s1
