20
gdb 61892	4.71209	0.66125	0.63938	4.3845	77.77	-0.2415	-0.0155	0.226	1765.3594	0.168796	-440.257266	-440.24742	-440.246476	-440.293511	34.886	
O	-0.2157354604	 1.3573573555	 0.1438072387	-0.444007
C	 0.1372418415	-0.0095929719	 0.032247763	 0.123229
C	 0.8860889581	-0.1961648763	-1.2910443521	-0.280737
C	 0.0265132065	 0.1476806618	-2.4900098403	 0.151345
O	-0.1217215926	-0.5725537532	-3.4450464198	-0.245477
C	 0.982537708	-0.4273556967	 1.2401391927	-0.163389
N	 0.2505183707	-0.0752347319	 2.4539803937	-0.086039
C	-0.5293070194	-1.1342636125	 3.0927005931	-0.222741
C	 0.7306251015	-0.6366962334	 3.7102319878	-0.221803
H	-0.4152762899	 1.4926808938	 1.0814709214	 0.289789
H	-0.7712722671	-0.638186353	 0.0192320135	 0.073741
H	 1.747425492	 0.4863747438	-1.2880116353	 0.124778
H	 1.247349415	-1.2223644206	-1.4038674552	 0.113888
H	-0.4725012881	 1.1373068536	-2.4279435612	 0.101302
H	 1.2320434426	-1.5008329082	 1.1876221765	 0.088163
H	 1.9199911873	 0.1417304585	 1.233586828	 0.111309
H	-1.4935769542	-0.8373998448	 3.4936891219	 0.125649
H	-0.5073095173	-2.1232267538	 2.6385786713	 0.118643
H	 1.5977458542	-1.2933106074	 3.6716315441	 0.117474
H	 0.6999560515	 0.0281234269	 4.5684713083	 0.124884
46.4259	58.3874	93.4443	113.3844	130.5533	240.6299	298.0252	353.3385	408.7096	441.3502	501.9808	511.6732	566.579	767.4913	814.1229	846.788	878.4589	908.4316	953.9486	1006.4168	1032.3036	1043.5131	1061.0493	1115.185	1120.52	1126.9275	1143.4326	1174.	1186.2	1223.0015	1276.1208	1289.0116	1313.1648	1324.6198	1362.422	1392.1104	1423.7196	1445.6417	1449.6278	1481.029	1494.5869	1522.693	1828.9359	2921.5101	2939.3919	2961.2078	3021.9773	3057.7112	3100.8912	3103.3974	3105.1164	3184.6929	3198.999	3728.1599
OC(CC=O)CN1CC1	O[C@@H](CC=O)CN1CC1	
InChI=1S/C6H11NO2/c8-4-1-6(9)5-7-2-3-7/h4,6,9H,1-3,5H2	InChI=1S/C6H11NO2/c8-4-1-6(9)5-7-2-3-7/h4,6,9H,1-3,5H2/t6-/m0/s1
