18
gdb 102972	2.10996	1.11682	0.87387	4.6711	71.26	-0.2524	-0.0394	0.213	1380.4884	0.144046	-476.204467	-476.194188	-476.193243	-476.241247	34.454	
C	-0.3321117138	 0.751633845	 0.5367670955	-0.245521
O	 0.1907675529	-0.5201066432	 0.1993364167	-0.247118
C	 0.5636832741	-0.6429319607	-1.1534490534	 0.031498
C	 1.3957387288	-1.920608896	-1.294697058	-0.120832
O	 0.6163032185	-3.0841743245	-1.0571550333	-0.189731
C	 0.5152920072	-3.5126848574	 0.2230976624	 0.13937
N	-0.2773817758	-4.4517251377	 0.5021384771	-0.440326
C	-0.6601150063	-0.7216011761	-2.075189216	 0.142164
O	-0.6190524028	-0.4570771759	-3.2468774727	-0.240212
H	 0.4115727257	 1.5449810384	 0.371221319	 0.117497
H	-1.234237641	 0.9962562144	-0.0419004826	 0.121434
H	-0.5927906095	 0.7198778686	 1.5964239966	 0.140167
H	 1.184625268	 0.2054725876	-1.4842311463	 0.095593
H	 1.7646682553	-1.9972776706	-2.3200746202	 0.143352
H	 2.2490248802	-1.8705967506	-0.6067450996	 0.119614
H	 1.1788285927	-2.9790866288	 0.9138269799	 0.095825
H	-0.2129413904	-4.6758713516	 1.4928676037	 0.229738
H	-1.5868991338	-1.0679910009	-1.5687312288	 0.107488
56.2242	60.5693	72.0807	122.0299	144.5564	178.8843	213.0602	259.5412	305.6168	362.0046	414.7401	535.1793	581.1539	660.2117	819.2563	855.2942	916.7132	957.699	1027.9333	1037.2942	1068.9479	1111.3704	1137.7678	1161.2384	1182.2412	1224.1735	1249.7254	1291.9452	1336.7882	1344.5452	1393.1752	1404.7395	1421.8813	1481.244	1485.531	1489.1677	1506.4283	1747.4279	1837.6263	2906.7925	2982.7071	2989.8765	3031.7733	3041.1993	3053.6671	3117.3695	3129.3402	3520.0467
COC(COC=N)C=O	CO[C@@H](CO[CH][NH])C=O	
InChI=1S/C5H9NO3/c1-8-5(2-7)3-9-4-6/h2,4-6H,3H2,1H3	InChI=1S/C5H9NO3/c1-8-5(2-7)3-9-4-6/h2,4-6H,3H2,1H3/t5-/m1/s1
