13
gdb 7237	4.87722	1.32595	1.04255	4.9215	59.09	-0.2564	-0.0579	0.1985	1037.4872	0.095201	-431.979668	-431.971351	-431.970407	-432.013492	28.256	
N	 0.033409421	 1.3422331979	-0.0160039288	-0.532124
C	 0.0656950613	-0.009072655	-0.0037778182	 0.285513
N	 1.0552461262	-0.8237352217	-0.0067097756	-0.547562
C	-1.3487629688	-0.5974183206	 0.0091266525	 0.441912
O	-2.3267926003	 0.1129263482	 0.0257052171	-0.336109
N	-1.3260403651	-1.9766060449	 0.0014325922	-0.353467
C	-2.4066768497	-2.8504498462	 0.0106493784	 0.164007
O	-3.5673176839	-2.5457164862	 0.0254878063	-0.255027
H	 0.8694637287	 1.8964868287	 0.0222864356	 0.262241
H	-0.8726074121	 1.7832488524	 0.0222593126	 0.282979
H	 1.959959501	-0.3532442065	-0.0150064606	 0.215312
H	-0.3809619022	-2.3521861872	-0.009647007	 0.279635
H	-2.0486998761	-3.899072169	 0.0020576955	 0.092689
41.8787	76.1603	161.7143	164.8743	230.2972	288.1866	373.522	471.2853	532.8141	552.9732	583.8649	714.5179	780.948	826.3661	857.6865	943.2164	1033.2448	1067.9643	1106.8007	1136.4733	1194.8962	1429.2516	1442.4851	1529.7486	1598.0089	1728.7519	1794.3616	1864.3693	2938.598	3479.6041	3510.1237	3593.8711	3739.7285
NC(=N)C(=O)NC=O	NC(=N)C(=O)NC=O	
InChI=1S/C3H5N3O2/c4-2(5)3(8)6-1-7/h1H,(H3,4,5)(H,6,7,8)	InChI=1S/C3H5N3O2/c4-2(5)3(8)6-1-7/h1H,(H3,4,5)(H,6,7,8)
