16
gdb 43800	2.53321	1.64244	1.1697	0.7695	70.95	-0.2469	-0.041	0.2059	1043.443	0.123111	-437.836574	-437.828668	-437.827723	-437.86921	29.678	
O	-0.0291320603	 0.263795541	-0.8159843295	-0.316777
C	-0.0174633244	 1.3015737936	-0.2165236765	 0.343328
C	-1.0803598124	 2.1529112266	 0.522803576	-0.480027
C	-0.0157912895	 3.2662590777	 0.6130202098	 0.383759
C	-0.1421029718	 4.7152070439	 0.4868242894	-0.259983
O	 0.1972888705	 4.0894813313	 1.7394237837	-0.272713
C	 1.0428977634	 2.3461010193	 0.0365887865	 0.164523
C	 2.42593469	 2.0739142837	 0.5254533817	-0.280956
N	 2.2022990015	 2.6953079266	-0.7773938484	-0.365556
H	-1.9834020016	 2.3724048715	-0.0518701485	 0.141775
H	-1.3633724714	 1.7359271351	 1.4942209266	 0.150366
H	 0.6612686378	 5.2790972098	 0.0170663197	 0.134566
H	-1.1301446545	 5.1712004894	 0.4487507768	 0.121403
H	 2.8265340327	 2.7354350483	 1.2877340626	 0.146566
H	 2.7441760925	 1.0359603838	 0.5744390087	 0.137456
H	 2.3001427374	 2.0059823483	-1.5223777485	 0.252269
79.5511	163.4895	180.8479	203.3456	272.286	322.7256	478.2452	517.1551	528.3759	562.301	627.3786	776.8219	811.6219	852.9207	881.1725	910.0953	965.5125	978.0985	988.6653	1020.1558	1066.2292	1112.7727	1120.4767	1129.8809	1153.922	1167.3742	1189.2549	1247.1885	1280.4862	1388.199	1422.9589	1461.4606	1500.8072	1536.9296	1885.4905	3063.4514	3089.8033	3113.2047	3121.0768	3183.1637	3210.7689	3473.7524
O=C1CC2(CO2)C11CN1	O=C1C[C@]2(CO2)[C@]21CN2	
InChI=1S/C6H7NO2/c8-4-1-5(3-9-5)6(4)2-7-6/h7H,1-3H2	InChI=1S/C6H7NO2/c8-4-1-5(3-9-5)6(4)2-7-6/h7H,1-3H2/t5-,6+/m0/s1
