25
gdb 119264	1.76288	1.10034	0.76409	0.9562	90.33	-0.2509	0.0799	0.3308	1647.8138	0.227019	-389.475155	-389.464089	-389.463145	-389.512248	39.941	
C	-2.8336094869	 0.6982345224	-2.303001156	-0.379047
C	-2.4652052756	-0.7078635492	-1.8210552211	-0.166177
C	-1.8824561902	-0.7112479231	-0.4007731606	-0.254189
C	-1.5532043835	-2.092559247	 0.1479228628	 0.363633
C	-0.4434561676	-2.8348985881	-0.5606582219	-0.127659
O	 0.7494897261	-2.079846365	-0.4701254537	-0.23516
C	 1.8266404555	-2.6757301162	-1.1486999296	-0.222018
C	-1.6678385894	-2.313989701	 1.6367016544	-0.308759
C	-2.6783821813	-2.9346829401	 0.7036472337	-0.313968
H	-3.2457223621	 0.6794615631	-3.3168955413	 0.108255
H	-3.5819564415	 1.158349511	-1.6477042791	 0.11115
H	-1.9565787048	 1.355027482	-2.3117251636	 0.114978
H	-3.3527617992	-1.353069279	-1.8509779367	 0.093175
H	-1.7433413217	-1.1489621927	-2.5191724392	 0.09783
H	-0.9721048449	-0.1000995608	-0.3790992342	 0.111469
H	-2.5983499937	-0.2266101159	 0.2759033702	 0.083596
H	-0.3020305345	-3.8290631891	-0.1027128194	 0.076195
H	-0.6985945942	-3.0059867045	-1.6208322573	 0.084757
H	 2.073217432	-3.6677010195	-0.7363382291	 0.100702
H	 1.6185734989	-2.7980400531	-2.2241906167	 0.100793
H	 2.6935344374	-2.0207945901	-1.0301540975	 0.125296
H	-0.9429306161	-2.9653480694	 2.1132367243	 0.11052
H	-1.9843606033	-1.4789365007	 2.2525058661	 0.108945
H	-3.6786586369	-2.514884677	 0.6800438287	 0.109043
H	-2.6482361725	-4.0093364568	 0.5547906168	 0.106639
43.2895	72.249	90.4542	117.7009	167.7609	180.7225	232.1335	248.4279	300.1553	321.962	347.8056	411.6066	424.2923	536.0694	739.6138	771.2213	784.3845	863.0587	886.8235	912.6095	943.6211	958.2967	975.4586	1005.8145	1042.5273	1053.0088	1063.3966	1079.8487	1114.6569	1131.2423	1155.9583	1184.4546	1185.6917	1225.8338	1249.2694	1259.6879	1301.8714	1316.7209	1347.0563	1360.0372	1394.4746	1412.8365	1431.0784	1467.2194	1478.8122	1482.6542	1485.9397	1492.3297	1500.1376	1502.5089	1507.5509	1509.9924	1525.4152	2944.4495	2965.5314	2971.7542	3005.2643	3015.5347	3023.4016	3028.432	3046.644	3068.775	3095.6892	3099.9589	3110.3262	3124.5852	3131.7822	3202.2053	3217.8025
CCCC1(COC)CC1	CCCC1(COC)CC1	
InChI=1S/C8H16O/c1-3-4-8(5-6-8)7-9-2/h3-7H2,1-2H3	InChI=1S/C8H16O/c1-3-4-8(5-6-8)7-9-2/h3-7H2,1-2H3
