21
gdb 104575	2.30334	1.25415	1.00297	3.5041	78.9	-0.247	-0.0212	0.2258	1297.8267	0.180103	-424.234974	-424.224925	-424.223981	-424.270517	36.865	
C	-3.0174934249	 0.0609772561	-2.2314435952	-0.470416
C	-2.2517335134	-1.1516794253	-1.7379280066	 0.402611
O	-2.1375830243	-2.1438502745	-2.426216046	-0.307616
C	-1.6637021125	-1.0390235044	-0.3322777212	-0.396565
C	-1.105828161	-2.3266070352	 0.2498844282	 0.324762
C	 0.3010085318	-2.6931599056	-0.1942825075	-0.106741
O	 0.4925433948	-2.6451681311	-1.5921290771	-0.432807
C	-1.4674104252	-2.6873780463	 1.6734222863	-0.325483
C	-2.0803676673	-3.4487489203	 0.5278595434	-0.284442
H	-3.2833979417	-0.0678374316	-3.2809937903	 0.146478
H	-3.9307324888	 0.1906451167	-1.6388753335	 0.143045
H	-2.4244854762	 0.9728247516	-2.1035692687	 0.141476
H	-0.886084728	-0.2624386813	-0.3709205079	 0.135578
H	-2.4490966683	-0.6257518157	 0.3144945579	 0.11427
H	 1.0192681377	-1.9836213498	 0.2405326247	 0.094135
H	 0.5489245139	-3.6875104787	 0.2151840035	 0.074643
H	-0.3402452583	-2.9080619472	-2.0094640157	 0.295161
H	-0.7138316413	-3.1852303515	 2.2750528133	 0.115431
H	-2.0945393364	-2.0007385045	 2.2325775788	 0.108145
H	-3.128759069	-3.2830118631	 0.3041615458	 0.109985
H	-1.7477787416	-4.4657992983	 0.349572648	 0.118349
41.2918	99.4507	110.3023	124.6859	188.8465	238.4474	295.0259	320.8554	360.4428	404.2817	465.4591	500.5332	541.8684	591.2318	763.5393	779.7342	809.4322	832.9485	904.6869	936.1635	949.1454	978.0674	1003.3883	1022.1252	1056.1307	1075.4623	1086.4578	1099.334	1182.4611	1187.5317	1208.7736	1240.323	1320.0922	1345.8719	1354.4653	1384.6535	1398.1174	1437.1007	1459.2003	1463.6241	1471.2106	1477.6936	1504.0851	1517.3824	1796.2227	2951.8633	3012.5796	3017.0783	3038.0597	3047.2856	3099.0932	3126.7326	3132.7257	3154.963	3204.1698	3219.2245	3724.1198
CC(=O)CC1(CO)CC1	CC(=O)CC1(CO)CC1	
InChI=1S/C7H12O2/c1-6(9)4-7(5-8)2-3-7/h8H,2-5H2,1H3	InChI=1S/C7H12O2/c1-6(9)4-7(5-8)2-3-7/h8H,2-5H2,1H3
