18
gdb 30455	3.32757	1.2828	0.93902	4.165	78.4	-0.1717	0.0511	0.2228	1242.3421	0.146908	-435.277574	-435.267667	-435.266723	-435.313272	34.458	
C	-0.0618058068	 1.3904364692	 0.0356462846	-0.314138
N	-0.0791128844	-0.0619269645	 0.0347146985	-0.401644
C	 0.5216172008	-0.6552554878	 0.978246682	 0.516273
O	 1.1882708469	-0.0831564112	 2.0334424579	-0.2338
C	 1.6831069012	-1.1122290745	 2.8372229018	-0.141663
C	 1.3632635419	-2.2940956161	 2.2869146817	 0.272243
N	 1.7001306489	-3.6083430274	 2.613517183	-0.604403
N	 0.6356279007	-2.0276912941	 1.1268269365	-0.151752
C	 0.1477802794	-2.9759232182	 0.1528356362	-0.345028
H	 0.9576744218	 1.8022930948	 0.0045340711	 0.108502
H	-0.597151567	 1.753140027	-0.8460390085	 0.110441
H	-0.550921736	 1.8159147473	 0.9242198596	 0.108374
H	 2.223782195	-0.8291410928	 3.72116568	 0.132171
H	 2.2904004746	-3.6473182439	 3.4345095987	 0.25572
H	 0.8880085367	-4.199425164	 2.7616215626	 0.253504
H	-0.8802023814	-3.2951527056	 0.3661686024	 0.127127
H	 0.15499181	-2.4892522068	-0.8244449817	 0.167026
H	 0.8021438975	-3.8507440114	 0.1410297038	 0.141047
38.6196	75.6966	110.5459	125.0992	181.7353	239.8114	261.5064	279.1811	335.2715	366.9715	565.1184	573.6662	607.3222	633.4405	725.6145	737.8918	772.1585	800.5701	941.3508	1073.9763	1086.0645	1113.1927	1123.5646	1151.0166	1158.101	1176.8334	1254.8539	1284.8045	1373.9057	1426.4225	1447.0756	1479.1003	1491.1831	1499.6561	1503.5874	1521.8241	1638.3611	1726.4052	1792.3508	2982.537	3020.6877	3024.9793	3092.5946	3097.1633	3144.5792	3308.4929	3505.8359	3614.2895
CN=C1OC=C(N)N1C	CN=c1occ(N)n1C	
InChI=1S/C5H9N3O/c1-7-5-8(2)4(6)3-9-5/h3H,6H2,1-2H3	InChI=1S/C5H9N3O/c1-7-5-8(2)4(6)3-9-5/h3H,6H2,1-2H3
