17
gdb 13391	5.71394	1.06977	0.97422	2.2886	64.58	-0.248	0.024	0.272	1179.2053	0.143008	-401.00741	-400.999362	-400.998418	-401.040793	28.32	
O	-0.1072177546	 1.4182059155	-0.1389489601	-0.420948
C	 0.0173102635	 0.0078461698	-0.040692029	-0.078662
C	-1.3897755055	-0.577089742	-0.0439231728	-0.186893
C	-1.4208499271	-2.0894389234	 0.1132915795	 0.086914
C	-2.8372592364	-2.7240831186	 0.0348354946	-0.201051
N	-2.8022013766	-3.6144991624	-1.1386153595	-0.261312
C	-1.628477151	-3.5206794301	-1.6031644895	 0.121913
O	-0.718581055	-2.7162593215	-1.004506548	-0.23378
H	 0.7751299718	 1.7936085173	-0.2089806272	 0.287362
H	 0.5894861304	-0.4086436974	-0.8817694125	 0.105549
H	 0.5369578384	-0.2838669245	 0.8876380075	 0.083045
H	-1.9606383217	-0.1294504343	 0.7789816451	 0.113852
H	-1.8967902754	-0.2967756321	-0.9746278152	 0.116968
H	-0.8846634671	-2.3911161445	 1.0197818257	 0.091379
H	-3.0898164316	-3.3007275244	 0.9302139193	 0.118093
H	-3.6179936528	-1.9663313844	-0.0972753099	 0.117832
H	-1.2544239793	-4.045229183	-2.4757371679	 0.13974
59.32	100.2543	112.593	172.7941	259.8301	333.1467	376.6933	463.7484	546.8536	734.85	788.765	853.1312	882.7505	944.4995	964.8421	978.6267	996.8284	1053.5231	1072.4359	1090.0635	1127.7241	1144.6285	1209.218	1228.2356	1257.6626	1304.0112	1315.3509	1322.0149	1325.1259	1361.4902	1400.8098	1463.3519	1479.6069	1504.1419	1529.8515	1711.9434	2960.4487	3016.9945	3033.2049	3040.5623	3043.2732	3076.9171	3084.3135	3213.8739	3832.97
OCCC1CN=CO1	OCC[C@H]1CN=CO1	
InChI=1S/C5H9NO2/c7-2-1-5-3-6-4-8-5/h4-5,7H,1-3H2	InChI=1S/C5H9NO2/c7-2-1-5-3-6-4-8-5/h4-5,7H,1-3H2/t5-/m0/s1
