16
gdb 17768	5.72361	1.24388	1.2022	3.1578	69.33	-0.2468	0.0293	0.2761	1013.4221	0.132444	-342.713061	-342.706247	-342.705303	-342.744747	25.675	
N	-0.454389936	-0.6943625615	-0.5829968376	-0.30501
C	-0.2123082384	 0.1248611001	 0.1950908304	 0.260991
C	 0.1163032697	 1.1691899649	 1.1632547413	-0.392558
C	 1.4636415596	 1.8194875115	 0.8350627952	 0.081233
C	 1.650124316	 2.9559382225	-0.2008572161	-0.067603
C	 0.9834450454	 3.8685889799	 0.8495539081	-0.179082
N	 1.9076828938	 2.9974367331	 1.7288054633	-0.162762
C	 2.9364024877	 3.2446458268	 0.6046069224	-0.166651
H	-0.7081292792	 1.8862336976	 1.1903712862	 0.154166
H	 0.1786245974	 0.72085442	 2.161860639	 0.167421
H	 2.2268196261	 1.0352575073	 0.8058266759	 0.09481
H	 1.5068969401	 2.9250887249	-1.2854345646	 0.083076
H	 1.2639340271	 4.924566213	 0.8539100518	 0.110615
H	-0.0811858872	 3.7627415771	 1.0621715678	 0.103495
H	 3.7421231846	 2.5062882561	 0.579756536	 0.109065
H	 3.3258093033	 4.2650810269	 0.5978502108	 0.108795
53.2783	123.0624	297.4779	328.6776	388.1365	467.1837	598.6799	627.189	753.76	773.6896	810.1471	869.0616	903.6087	924.5638	955.9012	981.4222	1028.1542	1048.4514	1083.4731	1114.8561	1142.9443	1156.7788	1176.9305	1196.569	1227.8973	1231.9706	1255.888	1288.9405	1320.62	1439.0216	1464.3459	1519.8798	1557.6032	2363.605	3051.4877	3052.3803	3055.2149	3062.7339	3076.4243	3103.6927	3128.2277	3132.3427
N#CCC1C2CN1C2	N#CC[C@H]1[C@H]2CN1C2	
InChI=1S/C6H8N2/c7-2-1-6-5-3-8(6)4-5/h5-6H,1,3-4H2	InChI=1S/C6H8N2/c7-2-1-6-5-3-8(6)4-5/h5-6H,1,3-4H2/t6-/m0/s1
