19
gdb 128851	3.7248	0.96562	0.85129	2.507	78.51	-0.2335	0.0289	0.2624	1402.7813	0.160479	-419.214999	-419.206141	-419.205197	-419.250424	31.422	
C	 1.1062541383	 0.9127329682	 0.0069255618	-0.229764
O	 0.8199253409	-0.428818027	-0.3157044472	-0.230113
C	-0.1251923034	-0.5601819979	-1.3534229029	-0.057638
C	-0.2575687654	-2.0387158118	-1.6968789458	-0.169589
N	 0.92112695	-2.581123642	-2.3440597279	 0.059143
C	 2.1278123257	-2.8582811903	-1.7890973656	-0.023877
C	 2.9427293236	-3.3048092356	-2.8085431648	-0.234142
C	 2.1258009698	-3.2559234732	-3.9561820899	-0.003922
N	 0.9020435393	-2.8153547511	-3.6748547575	-0.270004
H	 1.521402054	 1.4582083683	-0.8543086966	 0.112221
H	 0.2086655765	 1.4481430722	 0.3539807138	 0.106778
H	 1.8453354108	 0.9044394854	 0.8113054685	 0.130369
H	-1.1083217728	-0.1714902468	-1.0375419146	 0.091139
H	 0.1882639058	 0.0036850434	-2.2463020231	 0.108434
H	-0.4592522215	-2.6018339605	-0.7798640445	 0.127841
H	-1.0862189459	-2.1872783264	-2.390974901	 0.138078
H	 2.3024021727	-2.7001597434	-0.7377979236	 0.13784
H	 3.9699414223	-3.6220048529	-2.7307193863	 0.099853
H	 2.3734441795	-3.5284593686	-4.9718057228	 0.107351
22.4334	69.9522	114.5421	144.2382	233.5939	256.5914	339.2044	366.7182	526.2098	636.2049	671.0253	685.5731	768.3599	833.5493	854.006	887.6731	934.1171	961.1893	1006.6576	1028.428	1071.6644	1094.4443	1112.2795	1164.404	1181.2135	1193.5884	1236.8673	1247.5968	1277.4549	1326.3448	1385.3576	1392.9833	1417.2243	1427.5098	1463.3972	1479.5038	1485.2986	1486.4659	1501.3975	1524.4804	1558.4291	2960.0606	2977.4473	3002.9323	3023.2701	3062.3741	3118.7574	3136.1261	3242.0885	3265.4981	3285.3686
COCCN1C=CC=N1	COCCn1cccn1	
InChI=1S/C6H10N2O/c1-9-6-5-8-4-2-3-7-8/h2-4H,5-6H2,1H3	InChI=1S/C6H10N2O/c1-9-6-5-8-4-2-3-7-8/h2-4H,5-6H2,1H3
