19
gdb 116642	2.9418	0.84378	0.78807	5.8955	81.26	-0.2686	-0.002	0.2666	1555.9465	0.155868	-419.214491	-419.203794	-419.202849	-419.251183	37.12	
C	 0.1372157609	 1.2941588228	 0.30663364	-0.254141
O	-0.3570505263	 0.151532796	-0.3866089854	-0.18771
C	 0.5573390532	-0.559606194	-1.0662722046	 0.133579
N	 0.203055324	-1.5992991004	-1.6829811611	-0.238291
C	 1.174178099	-2.3804167465	-2.4526405477	 0.107884
C	 0.5792694972	-2.5689212371	-3.8660224084	-0.383437
C	 2.6090453508	-1.816664018	-2.5545205374	-0.428132
C	 1.2557092645	-3.7089500133	-1.8000697098	 0.296549
N	 1.3498172528	-4.7476167351	-1.302786058	-0.344851
H	 0.8451881511	 1.0084733754	 1.0933016674	 0.134141
H	 0.6189787315	 2.001660681	-0.3786943207	 0.129429
H	-0.7299584304	 1.7723774997	 0.7624384664	 0.153254
H	 1.5718557633	-0.1450343146	-1.0221697569	 0.084211
H	 0.5270311168	-1.5954486057	-4.3618563418	 0.12198
H	 1.1993069558	-3.2415935997	-4.4641952609	 0.127529
H	-0.4301177003	-2.9766781767	-3.7937263144	 0.14928
H	 3.0818343036	-1.7202595388	-1.5736163029	 0.135532
H	 3.2259099554	-2.4886739207	-3.1555878808	 0.139257
H	 2.5946726271	-0.8375339344	-3.0430532731	 0.123938
34.4627	58.2105	139.8073	147.9658	183.0434	195.4516	227.1578	249.8878	309.3108	346.3712	353.0975	421.3579	470.7697	490.7974	591.8726	621.0686	743.6928	895.1542	931.2889	965.097	1004.2513	1025.9306	1060.1566	1158.7857	1176.0086	1179.4614	1210.4722	1232.8275	1295.5535	1389.7496	1408.8013	1419.9565	1478.3294	1482.9364	1484.8909	1494.9281	1495.4903	1499.4065	1508.618	1764.0163	2356.734	3017.1644	3040.6554	3048.4089	3051.2116	3084.675	3119.455	3124.968	3129.7493	3147.8566	3151.0262
COC=NC(C)(C)C#N	COC=NC(C)(C)C#N	
InChI=1S/C6H10N2O/c1-6(2,4-7)8-5-9-3/h5H,1-3H3	InChI=1S/C6H10N2O/c1-6(2,4-7)8-5-9-3/h5H,1-3H3
