23
gdb 64487	2.54097	1.34647	1.13005	1.3675	81.5	-0.2402	0.0648	0.305	1211.4181	0.20628	-425.436522	-425.427218	-425.426274	-425.469821	36.744	
C	 0.3947092306	 1.6017943642	-0.0134582571	-0.427538
C	-0.059170026	 0.1351719597	 0.0150694572	 0.343577
O	-1.4939902231	 0.0815242367	-0.0305626519	-0.462298
C	 0.4136412637	-0.5773180977	-1.2704609314	-0.187013
C	-0.1802971878	-1.9802721082	-1.4771972851	-0.245281
C	 0.5525558544	-3.1055379446	-0.7286688236	-0.064705
O	 1.0805871728	-2.7484592718	 0.5371077536	-0.246985
C	 0.2071798778	-2.045192646	 1.4040276369	-0.09121
C	 0.4427098109	-0.5371017715	 1.3079207238	-0.202774
H	 1.4845743923	 1.6810772977	-0.0812939248	 0.116925
H	-0.0454752466	 2.1163363587	-0.8724256595	 0.120004
H	 0.0809288054	 2.1265849825	 0.8971197272	 0.099712
H	-1.828549785	 0.5746320641	 0.7259252878	 0.274242
H	 0.1159770138	 0.0563315898	-2.1130495304	 0.095938
H	 1.5087811975	-0.6162450826	-1.2706596103	 0.099101
H	-1.2353016227	-1.9492888307	-1.193969634	 0.127815
H	-0.1592235646	-2.2332557329	-2.5437947069	 0.091691
H	-0.1185801533	-3.975339801	-0.6329784722	 0.084164
H	 1.4263129884	-3.4322884073	-1.3034075093	 0.101871
H	-0.8455193228	-2.2896314247	 1.2070203115	 0.099489
H	 0.4382513915	-2.3826418397	 2.4213395181	 0.097218
H	 1.5195218444	-0.3622198671	 1.418075679	 0.103048
H	-0.0439779815	-0.0421564775	 2.1613873613	 0.07301
108.4379	142.9582	227.1991	241.7828	258.6524	287.2233	299.0874	320.6334	386.5595	416.0388	442.7978	462.364	564.8351	580.1621	699.1732	807.6939	853.0986	869.4384	885.4399	909.0163	965.371	984.6181	999.2396	1038.4227	1058.0283	1094.3009	1115.7159	1144.8642	1169.0943	1180.308	1231.6637	1265.5812	1270.4467	1310.0296	1325.6825	1350.8781	1378.8827	1386.5076	1399.4607	1400.5009	1411.3358	1421.6216	1458.1659	1475.6097	1488.2965	1494.0446	1495.3415	1501.62	1513.3275	2965.1637	2998.7708	3012.9736	3024.7274	3033.8246	3044.4981	3054.1732	3057.7383	3066.4352	3078.8922	3091.4599	3104.0099	3114.7004	3807.3739
CC1(O)CCCOCC1	C[C@@]1(O)CCCOCC1	
InChI=1S/C7H14O2/c1-7(8)3-2-5-9-6-4-7/h8H,2-6H2,1H3	InChI=1S/C7H14O2/c1-7(8)3-2-5-9-6-4-7/h8H,2-6H2,1H3/t7-/m1/s1
