22
gdb 113819	3.7769	0.8739	0.77483	3.1142	84.06	-0.2226	0.0813	0.3039	1547.305	0.192977	-404.298219	-404.288551	-404.287606	-404.333347	36.335	
C	-0.2445635001	-2.6293184462	 0.0556722295	-0.382094
C	-0.6431683885	-1.3549017478	-0.6982483439	-0.195786
C	 0.1040973606	-1.2214472448	-2.0087889616	 0.029135
C	-0.4607402581	-1.7566198502	-3.2824115284	-0.255675
N	-0.3294254994	-0.3159771325	-3.0779992434	-0.115425
C	-1.5237756175	 0.4749586735	-2.9413850751	-0.008855
C	-1.3541790454	 1.8827989482	-2.3998970257	-0.340959
C	-1.5637392946	 1.6599310146	-3.878794805	 0.129352
O	-0.506235754	 1.827865012	-4.7646243757	-0.432793
H	-0.479680158	-3.5242136719	-0.5297554835	 0.120275
H	 0.830267851	-2.6442217081	 0.2664865731	 0.119291
H	-0.7717213285	-2.7024388139	 1.0114388807	 0.116556
H	-1.7230573762	-1.3554223648	-0.8795105222	 0.099304
H	-0.4344568313	-0.476908482	-0.0741750478	 0.109387
H	 1.1884548418	-1.2450756253	-1.8982133469	 0.090335
H	 0.1782531322	-2.1938531613	-4.0448497024	 0.117304
H	-1.4651259347	-2.1763341507	-3.2381794196	 0.111803
H	-2.4541112782	-0.0474660657	-2.7211430055	 0.080549
H	-2.1586703916	 2.2990627856	-1.8029928317	 0.109185
H	-0.3541480445	 2.1710863549	-2.0944036107	 0.118829
H	-2.5154309409	 1.945615796	-4.3165667556	 0.096974
H	 0.1239348258	 1.1256142006	-4.5349069687	 0.283307
48.3033	80.4286	109.1117	193.5318	201.7535	229.591	296.3652	347.2779	417.2811	478.018	491.8057	522.9602	640.7155	739.7052	771.8897	803.2624	805.0669	838.3703	904.5491	946.4784	963.9002	997.82	1015.6594	1048.8972	1057.0488	1077.3096	1097.3104	1113.7674	1120.1174	1136.6294	1155.8379	1191.1419	1200.2638	1223.0527	1289.4779	1319.0829	1346.3878	1354.8974	1380.5962	1409.6047	1429.5731	1436.6494	1481.1398	1483.8672	1498.3112	1506.9703	1510.2709	3030.622	3034.2139	3068.5067	3089.9306	3095.8583	3098.5522	3108.3955	3109.1104	3130.8438	3155.0126	3178.1879	3224.3265	3671.3786
CCC1CN1C1CC1O	CC[C@H]1CN1[C@H]1C[C@H]1O	
InChI=1S/C7H13NO/c1-2-5-4-8(5)6-3-7(6)9/h5-7,9H,2-4H2,1H3	InChI=1S/C7H13NO/c1-2-5-4-8(5)6-3-7(6)9/h5-7,9H,2-4H2,1H3/t5-,6-,7+,8?/m0/s1
