15
gdb 20173	3.65631	2.82483	2.13285	2.1381	63.09	-0.2379	0.0181	0.256	672.1438	0.122493	-362.642142	-362.636735	-362.63579	-362.671322	22.453	
C	 0.004129439	 1.5747130432	 0.0123973764	-0.260154
C	 1.5296289748	 1.5762044549	-0.0749435823	-0.072926
C	 2.1153239395	 0.7222432251	 1.0314763281	 0.017325
N	 1.5177293526	 0.5274527587	 2.3244825999	-0.274187
C	 0.4237755077	-0.1118121506	 2.3659103683	 0.120733
O	-0.3349969198	-0.5437021643	 1.3283647708	-0.232309
C	 0.0465532636	 0.013785109	 0.0625112457	 0.091445
C	 1.557077977	 0.0459123946	-0.186092763	-0.123023
H	-0.4507854342	 2.0688256697	 0.875371013	 0.115256
H	-0.4743285576	 1.9342356174	-0.9016548925	 0.110528
H	 2.1387420688	 2.2962415755	-0.6072097925	 0.091695
H	 3.1980772974	 0.7720224374	 1.0824637447	 0.101807
H	-0.0304532892	-0.3896592535	 3.3146698069	 0.123995
H	-0.5636095067	-0.4974283006	-0.6795091099	 0.097746
H	 2.1179418772	-0.6172394265	-0.8306450037	 0.092069
232.9508	345.497	398.6171	536.6984	579.9306	602.8766	744.9839	765.3465	806.8191	823.2333	891.7683	942.5565	961.3044	965.1237	974.235	995.1079	999.1774	1037.5709	1076.4766	1103.04	1118.0322	1165.2467	1195.7266	1222.8775	1253.2856	1301.173	1329.4269	1359.2447	1407.6984	1411.2954	1483.3211	1706.2696	3059.9996	3112.5968	3134.892	3162.5627	3166.8547	3188.8771	3205.6849
C1C2C3N=COC1C23	C1[C@H]2[C@H]3N=CO[C@@H]1[C@@H]23	
InChI=1S/C6H7NO/c1-3-5-4(1)8-2-7-6(3)5/h2-6H,1H2	InChI=1S/C6H7NO/c1-3-5-4(1)8-2-7-6(3)5/h2-6H,1H2/t3-,4+,5-,6-/m1/s1
