17
gdb 82151	3.18839	1.2075	1.04	4.3047	68.97	-0.2698	0.0068	0.2767	1161.4427	0.135138	-458.948816	-458.940397	-458.939452	-458.982471	30.809	
O	 0.4296726265	 1.3206621036	-0.0201927549	-0.424608
C	 0.1347830387	-0.0466399556	-0.0917839379	 0.109104
C	-1.3050006496	-0.5443504389	 0.0181519923	-0.086688
C	-2.1145301914	-0.1332253452	-1.1799213012	-0.301705
C	-1.1645712864	-1.2849358061	-1.3289012411	-0.065239
C	 0.2503984952	-0.7628966743	-1.4934584026	 0.046837
O	 0.3995884741	 0.1156428537	-2.6121405711	-0.196539
C	 1.6224720392	 0.6557377516	-2.8020611454	 0.175274
O	 1.8377022878	 1.4658176732	-3.6528321832	-0.278247
H	-0.1932751231	 1.7995683124	-0.5780068321	 0.29374
H	 0.7877146131	-0.5335116311	 0.6365238875	 0.101302
H	-1.7751964725	-0.8927797757	 0.9291026814	 0.098311
H	-3.1632931068	-0.4057315158	-1.1333861999	 0.126121
H	-1.9281999821	 0.7946630549	-1.7127323772	 0.124757
H	-1.4928357302	-2.2817127014	-1.5910349947	 0.100388
H	 1.0203215992	-1.5389116152	-1.5211962383	 0.093956
H	 2.3860164883	 0.2588362797	-2.1081464715	 0.083236
63.3445	113.7502	124.3465	204.1596	243.9459	291.8441	346.8947	442.4518	504.6883	596.5613	675.0745	735.5372	782.0374	822.9201	860.8839	924.4292	981.8865	1007.8005	1024.0301	1042.0809	1053.1741	1068.0068	1089.1125	1094.4166	1135.3183	1174.0671	1178.5563	1224.2101	1270.0381	1283.2055	1323.5468	1363.3186	1367.1646	1433.263	1438.5826	1496.4473	1864.3422	2971.2108	3067.5177	3090.0685	3125.8708	3191.8941	3203.6976	3214.8447	3808.2344
OC1C2CC2C1OC=O	O[C@H]1[C@H]2C[C@H]2[C@H]1OC=O	
InChI=1S/C6H8O3/c7-2-9-6-4-1-3(4)5(6)8/h2-6,8H,1H2	InChI=1S/C6H8O3/c7-2-9-6-4-1-3(4)5(6)8/h2-6,8H,1H2/t3-,4+,5-,6+/m0/s1
