17
gdb 89840	3.29986	1.21905	0.97925	2.3041	68.11	-0.2577	-0.0374	0.2203	1178.2268	0.134848	-458.967732	-458.959636	-458.958692	-459.000706	30.898	
O	 0.4619251222	 0.8855426109	 0.7857196594	-0.442767
C	-0.1355186203	-0.1252641062	 0.0293723906	 0.065301
C	-1.5855375219	 0.1345632193	-0.4044836587	-0.334732
C	-1.7640607534	-0.8288846124	-1.5774150783	 0.451459
C	-2.7504431523	-1.9175453734	-1.5741603265	-0.252671
O	-2.9487620941	-0.7328780193	-2.3552022005	-0.279066
C	-0.421809972	-0.9266826832	-2.3052278379	-0.423099
C	 0.5758475534	-0.3520284679	-1.3064782216	 0.365202
O	 1.7191894036	-0.0231064376	-1.5029437185	-0.324793
H	 1.3534247254	 0.9938417394	 0.4209950603	 0.293752
H	-0.1017125047	-1.095016378	 0.5644938646	 0.095643
H	-2.3176203231	-0.0159572999	 0.3905731409	 0.119388
H	-1.6711024792	 1.1687992591	-0.7589614889	 0.128658
H	-2.5568290759	-2.8248211415	-2.1455525326	 0.117141
H	-3.4252929036	-2.0359261361	-0.7273187993	 0.120224
H	-0.1496338078	-1.9416300747	-2.6089782836	 0.142224
H	-0.4185413664	-0.3075201983	-3.2091730294	 0.158137
64.5352	104.0083	255.1815	296.7188	333.276	368.7396	378.1409	402.3212	470.6707	496.5252	592.4476	623.4679	745.8451	771.943	849.0335	913.4301	920.7093	954.8132	965.1957	1034.5534	1103.2032	1129.9107	1148.2857	1157.0082	1172.8077	1180.7597	1241.6216	1247.6059	1266.3365	1284.4489	1375.6724	1412.0514	1425.2667	1440.0505	1493.9849	1531.3206	1841.6744	2912.8638	3047.9549	3056.8825	3078.8249	3100.1861	3119.7574	3167.1567	3714.4335
OC1CC2(CO2)CC1=O	O[C@H]1C[C@]2(CO2)CC1=O	
InChI=1S/C6H8O3/c7-4-1-6(3-9-6)2-5(4)8/h4,7H,1-3H2	InChI=1S/C6H8O3/c7-4-1-6(3-9-6)2-5(4)8/h4,7H,1-3H2/t4-,6+/m0/s1
