15
gdb 33880	3.62274	1.50579	1.32239	0.399	70.96	-0.2446	0.0109	0.2555	961.3754	0.112226	-420.521549	-420.514741	-420.513797	-420.552601	27.669	
C	 0.0015767751	-1.1438972487	-0.0595927325	-0.354334
C	 0.0448891372	 0.0562767979	-0.0078950279	 0.187219
C	 0.0314504595	 1.4786838747	 0.079236478	 0.272846
O	 0.3400232274	 2.2528955695	-1.1052148129	-0.285963
C	 1.1772828705	 2.4022785252	 0.0454274823	-0.04399
C	 0.6831181857	 3.4481785673	 1.0795781067	 0.029483
C	-0.7817032998	 3.7127011781	 0.665203608	-0.231725
C	-0.8452668421	 2.24059757	 1.125339926	-0.024337
O	 0.1706150308	 2.5600632805	 2.1360209135	-0.296288
H	-0.0204264391	-2.2046277093	-0.1099248996	 0.194891
H	 2.2140771752	 2.1027113843	-0.055745334	 0.124372
H	 1.3768385864	 4.2085207453	 1.4340944798	 0.090852
H	-1.2753487494	 4.3619139883	 1.3869094533	 0.117123
H	-1.0170232572	 3.9700809028	-0.3649448913	 0.128435
H	-1.7290995701	 1.7409045939	 1.5163383007	 0.091417
134.1674	149.9408	355.1843	394.664	473.2079	507.8518	558.7179	589.7449	611.3096	616.962	675.5959	713.2978	812.6246	847.4706	864.2539	886.268	896.4855	943.5531	944.7961	1007.0989	1015.2659	1079.486	1099.75	1154.9952	1179.257	1232.5532	1259.0886	1272.1916	1283.6254	1299.1351	1414.7051	1472.3698	2244.1153	3106.7862	3141.0459	3150.7214	3181.2886	3191.1449	3500.6886
C#CC12OC1C1CC2O1	C#C[C@]12O[C@H]1[C@H]1C[C@@H]2O1	
InChI=1S/C7H6O2/c1-2-7-5-3-4(8-5)6(7)9-7/h1,4-6H,3H2	InChI=1S/C7H6O2/c1-2-7-5-3-4(8-5)6(7)9-7/h1,4-6H,3H2/t4-,5+,6+,7-/m1/s1
