20
gdb 101805	4.22303	0.72997	0.64925	6.576	72.37	-0.2387	0.0335	0.2722	1674.2572	0.170842	-477.45472	-477.444814	-477.44387	-477.490233	35.908	
N	 0.0075457452	 0.2760026273	 0.7485059839	-0.507728
H	 1.5877631381	 0.2802965548	 1.4723068423	 0.321035
H	-0.2279089081	 0.2332935005	-0.2396284049	 0.248598
H	-0.3324349609	-0.5983516429	 1.1481345341	 0.244796
C	-0.7179752767	 1.401584043	 1.3642160064	 0.004461
C	-2.2372545345	 1.2668845994	 1.1828568766	-0.079628
O	-2.5893721132	 1.0658853394	-0.1788510784	-0.417239
C	-0.3209081961	 1.5617505973	 2.8372320535	-0.215417
C	 1.1173844074	 2.0680889574	 3.0905999688	-0.327049
C	 2.2552291796	 1.0380902801	 3.1319624675	 0.383112
O	 2.3458044549	 0.1822939133	 2.1104709469	-0.381747
O	 3.0546245416	 1.0254174855	 4.0341987854	-0.331377
H	-0.3974705024	 2.304912222	 0.8240354446	 0.083661
H	-2.5958838803	 0.3804805993	 1.7208672466	 0.113349
H	-2.751752229	 2.1401035073	 1.6096761522	 0.099405
H	-2.5277475487	 1.912828651	-0.6321605478	 0.288942
H	-1.0100581358	 2.28406145	 3.2898708948	 0.11136
H	-0.4900270554	 0.6145919671	 3.3670506074	 0.11205
H	 1.3747186708	 2.817553285	 2.3295780493	 0.118458
H	 1.1611449437	 2.5741801331	 4.0562716408	 0.130957
48.1765	82.7661	118.4101	162.5711	214.6072	233.6774	305.8956	316.8409	361.5437	364.237	445.1342	481.4239	535.8757	591.4789	704.1966	811.3414	855.1475	920.3899	924.6913	947.8519	983.6418	1031.7384	1049.4911	1066.7355	1099.6972	1135.1922	1150.0385	1187.258	1229.1777	1300.9901	1313.3459	1328.4386	1357.9304	1385.2617	1399.9639	1407.3967	1418.6425	1471.3103	1476.2789	1481.9087	1497.3913	1658.5557	1844.7963	2996.6736	2999.8831	3020.5625	3028.29	3058.1969	3067.7272	3118.0305	3169.9133	3464.658	3548.1651	3817.224
[NH3+]C(CO)CCC([O-])=O	N[C@@H](CO)CCC(=O)O	
InChI=1S/C5H11NO3/c6-4(3-7)1-2-5(8)9/h4,7H,1-3,6H2,(H,8,9)	InChI=1S/C5H11NO3/c6-4(3-7)1-2-5(8)9/h4,7H,1-3,6H2,(H,8,9)/t4-/m1/s1
