12
gdb 130006	5.56427	1.34644	1.0848	5.4188	63.92	-0.2192	-0.018	0.2012	997.1646	0.080212	-468.796155	-468.789761	-468.788817	-468.826809	24.712	
N	 0.035028553	 1.3153381331	 0.1583197685	-0.583653
C	-0.0499012717	-0.0341469456	 0.0603575758	 0.455893
N	-1.1458216794	-0.7556141679	 0.0250372608	-0.43097
C	-0.619821474	-2.0202186377	-0.0003605612	 0.413653
C	 0.7372533945	-2.0240678169	 0.0126072901	 0.168912
O	 1.1475702031	-0.7062915828	 0.0531242696	-0.235333
C	 1.1074339048	-3.3736737072	-0.0305373033	-0.118456
N	 0.0195140623	-4.1317353639	-0.0642007638	-0.150128
O	-1.106505263	-3.2534548399	-0.0456312938	-0.2289
H	 0.895732801	 1.7396267331	-0.1488725308	 0.278501
H	-0.8110255445	 1.8140898825	-0.0668615289	 0.285735
H	 2.0715578239	-3.8590245567	-0.038031333	 0.144745
150.4595	294.4575	318.0568	357.7453	367.7414	476.1953	547.6932	594.7841	605.9292	735.3045	769.292	779.1992	824.4907	848.8232	885.1692	940.4226	979.5011	1100.886	1186.2164	1195.5828	1380.8585	1394.2812	1461.0945	1543.6508	1590.1399	1623.6874	1684.6294	3257.9923	3598.772	3716.0009
NC1=NC2=C(O1)C=NO2	Nc1nc2c(o1)cno2	
InChI=1S/C4H3N3O2/c5-4-7-3-2(8-4)1-6-9-3/h1H,(H2,5,7)	InChI=1S/C4H3N3O2/c5-4-7-3-2(8-4)1-6-9-3/h1H,(H2,5,7)
