14
gdb 132273	2.0307	1.72653	0.93857	4.1551	69.42	-0.2384	-0.0534	0.185	1146.4325	0.099612	-481.861099	-481.853427	-481.852482	-481.893484	28.544	
C	 0.0649325232	 1.4842725143	 0.0205823493	-0.467874
C	-0.0688560725	-0.0025735149	 0.0041524255	 0.423095
C	-1.2265060192	-0.6898435108	-0.1467732437	-0.388531
C	-1.1486938698	-2.1099943736	-0.1356093697	 0.373455
F	-2.2863621739	-2.7774922055	-0.2839600423	-0.059061
C	 0.0198141907	-2.7762828536	 0.0177185618	-0.439197
C	 1.2506812531	-2.0447492873	 0.1782307123	 0.4423
O	 2.3605415466	-2.4741789768	 0.3237382914	-0.340853
O	 1.1084420659	-0.6280011318	 0.1586075506	-0.262426
H	 0.735854744	 1.8123026208	-0.7801887707	 0.157948
H	-0.9061297428	 1.9649235659	-0.1070426826	 0.139388
H	 0.5069586981	 1.8135194398	 0.9667173138	 0.157948
H	-2.1744440081	-0.1872648565	-0.2710924026	 0.126083
H	 0.0705861946	-3.8557832101	 0.025127187	 0.137724
133.9536	155.3362	189.7339	216.9679	284.499	360.9894	466.0887	518.1924	561.7086	568.0952	614.137	690.1629	731.8535	806.4735	821.0682	854.807	992.4262	1003.2411	1042.1762	1063.4447	1122.4532	1175.0725	1246.627	1349.8679	1414.7456	1444.6381	1468.2165	1490.6849	1614.7427	1692.5125	1856.5977	3043.8497	3102.1919	3145.2483	3239.4584	3242.514
CC1=CC(F)=CC(=O)O1	Cc1cc(F)cc(=O)o1	
InChI=1S/C6H5FO2/c1-4-2-5(7)3-6(8)9-4/h2-3H,1H3	InChI=1S/C6H5FO2/c1-4-2-5(7)3-6(8)9-4/h2-3H,1H3
