19
gdb 55636	2.76251	1.12421	0.97458	1.4034	78.42	-0.2654	0.0121	0.2774	1300.6889	0.154039	-423.035503	-423.024833	-423.023889	-423.071228	38.388	
C	-0.0362322102	 1.4907842196	-0.2193975907	-0.470895
C	-0.0293968016	 0.0143709616	 0.1066629806	 0.441202
O	-0.0598755364	-0.4451993832	 1.2214476155	-0.359045
O	 0.0158957752	-0.7028561147	-1.0352431709	-0.289751
C	 0.0323124966	-2.1707100126	-1.0046959505	 0.175541
C	 1.2938059942	-2.6813252249	-0.2886698383	-0.421695
C	-1.2602054788	-2.7116037904	-0.3709639578	-0.421694
C	 0.0824306605	-2.5460422238	-2.4220363185	 0.343469
C	 0.1235744243	-2.9008589277	-3.5685178116	-0.46612
H	 0.859823353	 1.7526720966	-0.7888632361	 0.150857
H	-0.8997381777	 1.7321087604	-0.8454326123	 0.150855
H	-0.0727447981	 2.064702746	 0.7057309729	 0.14639
H	 1.2578710442	-2.4235605236	 0.769346765	 0.154111
H	 1.353890494	-3.767324894	-0.3969981773	 0.127803
H	 2.1853146778	-2.2420346559	-0.7428718331	 0.128451
H	-2.1307830032	-2.2932095693	-0.8819478643	 0.128452
H	-1.2874519053	-3.7986397503	-0.4820980257	 0.127801
H	-1.2985640828	-2.4538600284	 0.6869725315	 0.154111
H	 0.1599480245	-3.2056078056	-4.5853598983	 0.200157
58.0955	94.2902	111.201	128.6108	187.6577	234.508	244.0591	257.8012	310.0621	384.0146	392.2332	392.8283	553.0611	559.3438	611.748	620.3588	625.0933	673.7085	746.3811	837.2471	937.3613	949.4068	964.3436	1027.3178	1032.4161	1063.1884	1169.7026	1193.2828	1260.1983	1281.7529	1388.722	1392.5268	1409.1711	1468.6463	1473.9783	1475.1451	1492.7295	1493.3225	1512.0399	1811.5017	2243.0564	3056.0178	3057.6494	3059.5967	3123.4544	3127.4606	3130.5093	3162.7458	3165.5312	3168.3764	3501.9532
CC(=O)OC(C)(C)C#C	CC(=O)OC(C)(C)C#C	
InChI=1S/C7H10O2/c1-5-7(3,4)9-6(2)8/h1H,2-4H3	InChI=1S/C7H10O2/c1-5-7(3,4)9-6(2)8/h1H,2-4H3
