13
gdb 20397	4.96354	2.10726	1.50715	4.5481	59.1	-0.2207	0.0051	0.2258	772.8169	0.098081	-398.580733	-398.574737	-398.573792	-398.611803	21.901	
C	 0.0284880524	 1.372067459	-0.1354871093	-0.088592
C	 1.5038863174	 1.8756084246	 0.097235174	-0.388714
C	 2.1342490076	 0.6143795515	 0.6136344644	 0.07276
C	 1.1809615052	-0.3464605984	 0.6427396219	 0.518117
O	-0.0533209081	-0.049893161	 0.2453385638	-0.271042
O	 1.5976565827	-1.5145324572	 1.0785496569	-0.234718
N	 2.9949903792	-1.3425580171	 1.3848406158	-0.162366
C	 3.262546721	-0.0818670482	 1.0970387771	-0.109761
H	-0.6984848003	 1.9034747733	 0.4813617881	 0.137483
H	-0.2758090199	 1.4337103168	-1.1819044068	 0.137484
H	 1.9431785494	 2.2401232615	-0.8372050844	 0.127716
H	 1.5242915567	 2.7056516788	 0.8111249775	 0.127714
H	 4.2766931265	 0.2580177366	 1.2587662911	 0.133918
36.2356	216.7442	287.4869	446.9459	614.9457	625.6265	720.6836	725.4811	772.642	819.0037	833.514	911.6311	926.6637	958.4678	977.6292	1075.967	1170.0358	1198.0514	1207.7099	1242.6077	1275.274	1363.2422	1411.0583	1424.6142	1499.9501	1518.4221	1561.9164	1674.6477	3039.1519	3068.0289	3079.8731	3133.4019	3234.782
C1CC2=C(O1)ON=C2	C1Cc2c(O1)onc2	
InChI=1S/C5H5NO2/c1-2-7-5-4(1)3-6-8-5/h3H,1-2H2	InChI=1S/C5H5NO2/c1-2-7-5-4(1)3-6-8-5/h3H,1-2H2
