19
gdb 87172	3.49726	1.09255	0.97865	2.6051	70.74	-0.2401	0.0592	0.2993	1239.1469	0.157735	-460.108177	-460.099146	-460.098202	-460.142451	33.722	
O	 0.1288316361	 1.2286359681	 0.0552519415	-0.431141
C	-0.0145230052	-0.1570951265	 0.2286375545	-0.000735
C	-0.8698322833	-0.6820208125	 1.3649678301	-0.396963
C	-1.4008024978	-0.6664372926	-0.0579038506	 0.43154
O	-2.3542295807	 0.3087445043	-0.3682723485	-0.485259
C	-1.6596088728	-1.9334067809	-0.8322036897	-0.095228
C	-0.7897598696	-3.17332209	-0.5293663309	-0.099146
O	-1.8848081155	-3.8459258939	 0.1184162196	-0.275153
C	-2.8109499587	-2.8118463703	-0.2849373609	-0.072373
H	 0.5364865393	 1.5978106449	 0.8452452999	 0.297258
H	 0.8486497434	-0.7416869989	-0.085539736	 0.095817
H	-0.5894124598	-1.6196088151	 1.8332775038	 0.129756
H	-1.3088162071	 0.0536176644	 2.030967756	 0.114972
H	-1.8775678076	 1.1511577417	-0.3898219359	 0.2903
H	-1.7439481471	-1.6785099202	-1.8908285145	 0.08838
H	-0.4484543686	-3.7100045504	-1.4244559345	 0.099314
H	 0.0674765254	-3.0397721862	 0.1419265996	 0.097438
H	-3.3648037665	-2.3996594911	 0.565171765	 0.113412
H	-3.519953914	-3.1715102849	-1.0410782085	 0.097811
58.4528	68.1146	150.2833	219.117	264.4968	288.6823	310.7845	381.0081	428.4458	459.3063	487.7444	626.2059	686.9398	804.2473	833.5163	875.16	885.7195	912.1051	953.881	997.1257	1022.7664	1033.3831	1043.9809	1052.6037	1096.657	1121.1156	1159.8833	1161.7859	1175.2023	1216.9743	1252.5785	1275.5816	1296.0155	1309.6598	1350.9124	1381.7061	1396.4712	1432.3963	1485.4637	1511.1413	1536.4812	3004.5153	3020.2614	3043.5086	3071.6784	3088.5626	3111.2656	3129.0152	3221.738	3728.9699	3813.9239
OC1CC1(O)C1COC1	O[C@H]1C[C@]1(O)C1COC1	
InChI=1S/C6H10O3/c7-5-1-6(5,8)4-2-9-3-4/h4-5,7-8H,1-3H2	InChI=1S/C6H10O3/c7-5-1-6(5,8)4-2-9-3-4/h4-5,7-8H,1-3H2/t5-,6-/m0/s1
