15
gdb 125010	2.40931	1.841	1.05043	4.4706	76.87	-0.2278	-0.065	0.1628	1073.3041	0.11101	-450.105806	-450.096967	-450.096023	-450.139248	32.01	
C	 0.0287814073	 1.5266367922	-0.0637259472	-0.507626
C	-0.0047859958	 0.0270587142	-0.0643687559	 0.241251
C	-1.1483724082	-0.7170308692	 0.0426093381	 0.242152
N	-2.3877942172	-0.2193639788	 0.1613776869	-0.569849
C	-1.0750110157	-2.2005820481	 0.0321197816	 0.399215
N	-2.1724931747	-2.8493897712	 0.1354203983	-0.566943
O	 0.1298428961	-2.7474885088	-0.0844947804	-0.314619
N	 1.41862414	-1.8193823534	-0.2051172709	-0.03695
N	 1.1984901341	-0.6309478966	-0.1809134121	-0.095989
H	 1.0590360962	 1.8724240583	-0.1614540775	 0.154593
H	-0.549804811	 1.9477618312	-0.8960732446	 0.13278
H	-0.3811245785	 1.9433372042	 0.8654033779	 0.132684
H	-2.5717752559	 0.7669818188	 0.1849719949	 0.269504
H	-3.135441282	-0.8955718096	 0.2332291613	 0.290712
H	-2.0052544547	-3.8546779632	 0.1169979296	 0.229086
97.4229	120.9575	142.7793	215.661	220.3846	275.4594	281.7285	385.844	495.5909	505.2423	525.7774	596.2271	613.4969	636.6805	738.7351	792.1481	839.568	851.8438	915.9519	1013.3067	1062.3036	1115.7979	1204.8769	1299.1669	1321.261	1404.4719	1460.9265	1484.6599	1497.9839	1585.9948	1622.6982	1678.5078	1708.4471	3014.2202	3058.8336	3139.1567	3502.6429	3565.9493	3735.1024
CC1=C(N)C(=N)ON=N1	CC1=N[N]OC(=C1N)[NH]	
InChI=1S/C4H6N4O/c1-2-3(5)4(6)9-8-7-2/h6H,5H2,1H3	InChI=1S/C4H6N4O/c1-2-3(5)4(6)9-8-7-2/h6H,5H2,1H3
