19
gdb 89397	2.92106	1.47685	1.13841	4.7289	76.73	-0.2416	0.0351	0.2767	1125.0515	0.159749	-419.234906	-419.226197	-419.225253	-419.268063	32.393	
C	-0.0387738057	 1.3937986641	 0.0112514402	-0.340525
N	-0.0068771217	-0.0485707296	 0.019161533	-0.083236
C	-1.1946605308	-0.8697295404	 0.0869071545	-0.244844
C	-0.6203985442	-2.2864345462	 0.0310632681	 0.32558
C	-1.2884195307	-3.3556468918	 0.8565705958	-0.477742
C	 0.2020986683	-2.6203761563	-1.1560385193	-0.291805
N	 0.8526714816	-2.1758121308	 0.1042437226	-0.190144
C	 1.1662270787	-0.7671097389	 0.0488125997	 0.411326
O	 2.2829208005	-0.3116521968	 0.0349547846	-0.384093
H	 0.9942633073	 1.7443760716	-0.0165285052	 0.16842
H	-0.5741755819	 1.7754491633	-0.8670825476	 0.121816
H	-0.5287748522	 1.788087838	 0.9110246922	 0.122558
H	-1.7409601431	-0.7114470973	 1.0291354416	 0.108032
H	-1.8894143147	-0.6525511064	-0.7362312981	 0.112348
H	-2.3073642237	-3.5415369461	 0.498737469	 0.122805
H	-0.7284628706	-4.2921250721	 0.7999469179	 0.136322
H	-1.3468377855	-3.0565848988	 1.908386464	 0.128475
H	 0.3835118356	-3.660153149	-1.4106619181	 0.126908
H	 0.2180310028	-1.9306862965	-1.9965391248	 0.127799
118.2422	135.9926	163.046	188.6538	201.9288	276.5703	324.5408	380.4117	395.8638	509.7202	579.6838	650.0301	725.0053	773.0766	811.4537	859.9851	926.8278	935.5497	993.6341	1017.7899	1053.4176	1087.2173	1119.0771	1128.9856	1157.0109	1161.3106	1219.2523	1244.9549	1315.9831	1323.1502	1383.5893	1423.8849	1428.592	1446.7974	1486.1091	1492.3242	1493.5109	1507.4615	1517.0494	1541.2968	1840.4919	2985.8144	3010.4082	3017.819	3034.1528	3057.9587	3097.0997	3109.4604	3125.0513	3143.9986	3200.3395
CN1CC2(C)CN2C1=O	CN1C[C@@]2(C)CN2C1=O	
InChI=1S/C6H10N2O/c1-6-3-7(2)5(9)8(6)4-6/h3-4H2,1-2H3	InChI=1S/C6H10N2O/c1-6-3-7(2)5(9)8(6)4-6/h3-4H2,1-2H3/t6-,8?/m0/s1
