15
gdb 127739	2.4203	1.73729	1.01841	2.2328	73.87	-0.2219	-0.0611	0.1608	1096.2676	0.113274	-450.143517	-450.135151	-450.134207	-450.176411	30.227	
C	-0.0180101036	 1.4408683474	-0.021080004	-0.341196
N	-0.0211994702	-0.005667063	 0.0526193183	-0.027868
N	-0.0383886692	-0.7284626637	-1.0587613897	-0.129542
N	-0.040088802	-2.0049754702	-0.7413725799	-0.27249
C	-0.0259043294	-2.1064260748	 0.61303855	 0.3335
N	-0.0663746972	-3.2836078435	 1.2795919774	-0.588048
C	-0.0069662092	-0.8195631634	 1.1638874918	 0.170224
C	 0.0601839322	-0.4479094417	 2.5468239712	 0.064631
O	 0.1013313201	-1.2746843044	 3.4483402071	-0.314046
H	 0.878547259	 1.8492132062	 0.4541689602	 0.151966
H	-0.0256001848	 1.7068417519	-1.0776949046	 0.174782
H	-0.9045416908	 1.8539178615	 0.4685452102	 0.15295
H	 0.1763925194	-4.1168097663	 0.7699711791	 0.267706
H	 0.1363484017	-3.2387361177	 2.2671068479	 0.281014
H	 0.080938864	 0.6387048015	 2.7724864751	 0.076417
120.0146	160.5789	172.6784	178.5419	261.5563	279.9083	356.4432	380.2908	418.233	530.0039	541.7568	629.2039	658.1357	766.731	787.7389	847.6593	1017.2086	1047.206	1089.4502	1125.2875	1151.0103	1245.0509	1313.3038	1342.2255	1406.9729	1433.0584	1455.5953	1481.697	1503.6291	1538.363	1564.0511	1658.5078	1735.6637	2907.455	3047.8837	3112.2605	3167.0148	3576.5375	3712.7385
CN1N=NC(N)=C1C=O	Cn1nnc(N)c1C=O	
InChI=1S/C4H6N4O/c1-8-3(2-9)4(5)6-7-8/h2H,5H2,1H3	InChI=1S/C4H6N4O/c1-8-3(2-9)4(5)6-7-8/h2H,5H2,1H3
