20
gdb 92872	2.18182	1.81295	1.02825	4.0868	82.34	-0.2313	-0.0285	0.2028	1170.6549	0.17206	-403.199718	-403.190949	-403.190005	-403.232984	33.377	
C	 0.0115958353	 1.5824038172	-0.058126472	-0.408805
C	 0.0685021328	 0.0543131264	 0.0218274138	 0.053181
C	 0.6083469919	-0.516423828	-1.2960829347	-0.261988
C	 0.9229916409	-1.9780059225	-1.1919641028	-0.090107
C	 1.222007173	-2.5207656255	-0.0134245802	-0.126487
C	 1.2996108196	-1.7264171629	 1.2373560582	 0.402622
O	 1.7470725127	-2.2227531788	 2.2616916807	-0.396779
N	 0.8776045942	-0.4101083481	 1.1626462167	-0.130861
C	 0.7625406338	 0.3110241871	 2.423567372	-0.351397
H	 1.018276234	 2.0063620173	-0.1357342828	 0.126868
H	-0.5508477138	 1.8747428211	-0.9500091103	 0.120328
H	-0.4860606262	 2.0270290051	 0.805885327	 0.125873
H	-0.9636120135	-0.3170452713	 0.1514678462	 0.080067
H	-0.1291303262	-0.3330933485	-2.0850928677	 0.113534
H	 1.5157906851	 0.0315014316	-1.5937248747	 0.120766
H	 0.937080284	-2.5724088572	-2.1017965302	 0.105423
H	 1.4844600589	-3.5649477465	 0.1086430653	 0.113659
H	 1.2953523936	-0.2647454685	 3.1781405137	 0.168339
H	 1.2014202226	 1.3095498419	 2.3507196469	 0.121856
H	-0.2873491031	 0.4143047801	 2.7329257749	 0.113909
80.1122	132.3382	180.8541	208.971	268.4281	334.9648	346.9492	385.8634	440.6515	446.3622	475.0386	570.2917	663.0202	683.2798	775.1859	840.1797	893.817	921.7524	958.2534	1007.6046	1016.7448	1072.1081	1101.1682	1125.991	1139.0648	1153.0003	1204.2237	1230.8429	1270.9379	1332.7686	1351.8031	1384.6238	1396.0444	1410.8364	1419.0623	1444.5965	1466.4971	1492.8077	1500.931	1510.7022	1517.1878	1702.4528	1752.0832	2938.2646	2995.8826	3003.8848	3041.8547	3065.4589	3086.8606	3110.337	3129.9752	3161.8694	3169.2704	3211.5199
CC1CC=CC(=O)N1C	C[C@H]1CC=CC(=O)N1C	
InChI=1S/C7H11NO/c1-6-4-3-5-7(9)8(6)2/h3,5-6H,4H2,1-2H3	InChI=1S/C7H11NO/c1-6-4-3-5-7(9)8(6)2/h3,5-6H,4H2,1-2H3/t6-/m0/s1
