13
gdb 42970	3.33546	1.40999	1.0694	6.9305	71.47	-0.2625	-0.0935	0.169	1049.8451	0.090589	-415.613718	-415.606651	-415.605707	-415.645464	26.368	
O	-0.0229288751	 0.0012719569	-0.1130016587	-0.294765
C	-0.0313385447	 1.1994271588	-0.0395506499	 0.385989
C	-1.2404790867	 2.1175270979	-0.0113723294	-0.169142
N	-1.2762603298	 2.9386271703	 1.2288621318	-0.317034
C	-0.7230596769	 3.5039142522	-0.0339393489	-0.092599
C	 0.7661417563	 3.4063841349	-0.0531750248	-0.122421
C	 1.1676692267	 2.1214031333	-0.0090164428	 0.054036
C	 2.5029303686	 1.6458838453	 0.0598838067	 0.2341
N	 3.5868121602	 1.2432035711	 0.1121773228	-0.325657
H	-2.1618601772	 1.8029539657	-0.4850984022	 0.1274
H	-2.2317365438	 3.2756714319	 1.3516092115	 0.248628
H	-1.2371433127	 4.3197767006	-0.5266734392	 0.121081
H	 1.4230704551	 4.267160861	-0.0560721267	 0.150384
114.2075	144.6779	194.0063	318.6708	386.9925	416.1745	526.455	557.9875	599.1443	679.8381	745.8758	802.9902	828.0382	864.466	896.0438	925.9095	956.0511	1013.4947	1070.0393	1129.9922	1153.7987	1209.3154	1255.7096	1310.4584	1348.9164	1384.7501	1646.5554	1846.8775	2348.582	3194.7884	3205.1022	3221.2673	3466.606
O=C1C2NC2C=C1C#N	O=C1[C@H]2N[C@H]2C=C1C#N	
InChI=1S/C6H4N2O/c7-2-3-1-4-5(8-4)6(3)9/h1,4-5,8H	InChI=1S/C6H4N2O/c7-2-3-1-4-5(8-4)6(3)9/h1,4-5,8H/t4-,5-/m0/s1
