23
gdb 86192	1.96945	1.62636	1.00287	1.6508	89.87	-0.2194	0.0293	0.2487	1297.7937	0.203452	-388.323844	-388.313405	-388.312461	-388.358851	38.643	
C	 0.1847274664	 1.5405343174	-0.1520607271	-0.392963
C	 0.0219822606	 0.0366744671	 0.0735239286	 0.053712
O	 0.5623469587	-0.6709007001	-1.041465836	-0.289869
C	 1.4502857059	-1.6976444678	-0.6018541595	 0.053714
C	 2.7669571958	-1.5949050869	-1.3730797312	-0.392961
C	 1.558594603	-1.507861948	 0.8952367234	 0.18858
C	 2.4429830895	-2.3858106171	 1.7221015931	-0.502339
C	 0.7455935227	-0.5206666391	 1.2796709824	 0.188595
C	 0.4740871136	 0.0052548578	 2.6531093972	-0.502337
H	 1.2445271344	 1.8115283838	-0.1834833653	 0.114207
H	-0.2732865346	 1.8243204673	-1.1037450063	 0.124554
H	-0.3031200142	 2.1119789456	 0.6444721891	 0.108876
H	-1.0591870568	-0.183991792	 0.1518325078	 0.068728
H	 0.9994043094	-2.6836261029	-0.8216164518	 0.06873
H	 3.2741258762	-0.6528600232	-1.143012602	 0.114206
H	 3.4342596614	-2.4262595643	-1.1229508226	 0.108875
H	 2.5702803202	-1.6283057645	-2.4483540225	 0.124556
H	 3.4983861664	-2.2636573042	 1.4494033648	 0.131019
H	 2.3503079411	-2.1764812187	 2.790481227	 0.124157
H	 2.2009826182	-3.4451746662	 1.5656181251	 0.12639
H	 1.0117334471	-0.553322733	 3.4230276283	 0.124158
H	 0.7631114032	 1.0594847614	 2.7438913396	 0.131032
H	-0.5971184781	-0.0458429625	 2.8880514279	 0.126379
71.4954	112.2929	150.9949	177.937	196.1024	225.3909	243.8139	255.6642	284.3226	351.0565	373.8319	447.0117	477.1871	553.2339	628.1983	651.2782	732.5626	831.2887	865.9174	956.3955	957.1806	1005.59	1038.0368	1052.9463	1074.6274	1103.0462	1106.7477	1112.8369	1125.2024	1161.152	1214.1836	1269.6918	1346.8688	1351.1961	1367.076	1376.8536	1397.2069	1398.3033	1410.8713	1420.9492	1478.0378	1481.2239	1483.976	1487.7061	1490.7012	1494.3617	1495.3387	1499.2736	1754.982	2916.0616	2921.3379	3018.5487	3020.2935	3035.5657	3036.4447	3064.3253	3064.7509	3108.6841	3110.1381	3113.7139	3117.4051	3117.5519	3118.3261
CC1OC(C)C(C)=C1C	C[C@H]1O[C@@H](C)C(=C1C)C	
InChI=1S/C8H14O/c1-5-6(2)8(4)9-7(5)3/h7-8H,1-4H3	InChI=1S/C8H14O/c1-5-6(2)8(4)9-7(5)3/h7-8H,1-4H3/t7-,8+
