18
gdb 30184	4.65727	1.24485	1.00907	3.5053	79.13	-0.2008	0.0312	0.232	1164.1322	0.150908	-398.149166	-398.141576	-398.140632	-398.181131	29.19	
C	-0.0398330196	 1.4278362594	 0.0662672608	-0.312451
N	-0.0813353206	-0.0137929679	 0.1537805076	-0.072752
C	-1.4446262322	-0.5937770531	 0.1412958888	-0.290823
C	-1.2074096057	-1.8487759964	 0.9061926156	 0.300227
C	 0.0020197	-1.8667594001	 1.5228712533	 0.276518
C	 0.7475409942	-0.6027108095	 1.2350561272	-0.28775
N	 0.1832997388	-3.0086526135	 2.2588512694	-0.342925
C	-0.9348947556	-3.6819777153	 2.0777041124	-0.015319
N	-1.8260519154	-3.0191025665	 1.262793426	-0.3803
H	 0.9977984408	 1.7635899522	-0.0311336802	 0.121499
H	-0.5813669634	 1.76472374	-0.8245154661	 0.116099
H	-0.4801370714	 1.9403460786	 0.9444656648	 0.089351
H	-2.1878692593	 0.0597254784	 0.6395210673	 0.090254
H	-1.7881338887	-0.7362698325	-0.8932817445	 0.108667
H	 1.7765018837	-0.7526627036	 0.8842570153	 0.115168
H	 0.7994448277	 0.0516179385	 2.1251437481	 0.092027
H	-1.164743044	-4.6501033812	 2.4971345506	 0.126895
H	-2.7316869893	-3.3535985474	 0.9804895537	 0.265614
96.4549	205.6962	222.3548	264.1568	292.9403	311.0613	464.4169	496.9071	513.8335	656.6066	693.3574	725.617	784.539	787.8832	847.0208	969.0898	1012.2065	1024.599	1059.9645	1083.4818	1128.6071	1137.1904	1185.3684	1188.4905	1195.2122	1224.1013	1260.6446	1322.863	1339.8226	1386.3025	1413.3778	1459.8492	1466.307	1489.3347	1503.1653	1516.4281	1524.1217	1532.8737	1629.5803	2894.8275	2911.2441	2925.5278	2998.4084	3026.7903	3051.579	3095.5375	3252.2242	3668.8635
CN1CC2=C(C1)N=CN2	CN1Cc2c(C1)nc[nH]2	
InChI=1S/C6H9N3/c1-9-2-5-6(3-9)8-4-7-5/h4H,2-3H2,1H3,(H,7,8)	InChI=1S/C6H9N3/c1-9-2-5-6(3-9)8-4-7-5/h4H,2-3H2,1H3,(H,7,8)
