17
gdb 52189	3.7308	0.8148	0.77885	3.4665	77.79	-0.2505	0.0189	0.2693	1487.1778	0.134672	-417.934	-417.924744	-417.9238	-417.969241	32.993	
N	-0.4529984911	 0.9941290601	-0.6602865667	-0.442565
C	-0.4341500654	-0.2532180313	-0.4691011524	 0.126604
O	-0.6895303285	-0.7432613276	 0.7647330167	-0.185726
C	-0.8095909028	-2.1600769502	 0.8750973924	-0.112115
C	-2.206996844	-2.6124289847	 0.5341056291	-0.010192
N	-2.4876545593	-2.7979409297	-0.8918538962	-0.323343
C	-2.482305963	-3.9839292911	-0.0012036508	-0.248269
C	-1.4509070274	-4.9665344551	-0.1991949955	 0.37224
C	-0.6058926862	-5.8101283048	-0.3387856689	-0.438874
H	-0.2107073697	 1.195356511	-1.6283969903	 0.227397
H	-0.2173840267	-1.0304237308	-1.2118270244	 0.105018
H	-0.0854360761	-2.6684239223	 0.2291276889	 0.126002
H	-0.5731512226	-2.3977793357	 1.9157621575	 0.125503
H	-2.9866654718	-2.1753397556	 1.1548605955	 0.108199
H	-3.4461433169	-2.537236676	-1.1084509367	 0.245266
H	-3.4498134328	-4.4022295739	 0.2683008605	 0.120257
H	 0.1427801443	-6.5516638624	-0.4718852585	 0.204598
45.7983	69.8707	110.765	127.6611	206.4176	264.7712	333.9311	349.9152	448.6148	551.5991	573.7289	621.165	665.263	668.2058	806.385	823.5705	843.8131	891.5966	953.1383	977.624	1011.1801	1036.2685	1044.8449	1124.019	1141.4475	1191.8261	1224.9412	1247.8645	1273.6119	1333.6687	1376.9503	1410.1096	1426.2921	1463.6902	1490.659	1742.8601	2241.2018	3046.8302	3054.5241	3105.7937	3126.6099	3137.8721	3501.7737	3510.0416	3515.4634
N=COCC1NC1C#C	[NH][CH]OC[C@H]1N[C@H]1C#C	
InChI=1S/C6H8N2O/c1-2-5-6(8-5)3-9-4-7/h1,4-8H,3H2	InChI=1S/C6H8N2O/c1-2-5-6(8-5)3-9-4-7/h1,4-8H,3H2/t5-,6+/m0/s1
