16
gdb 18217	4.40063	1.62977	1.34911	3.0169	70.27	-0.2408	-0.0246	0.2162	907.7903	0.131258	-346.606277	-346.599434	-346.59849	-346.637773	26.065	
O	 0.148804361	-0.1891996555	 0.0426559798	-0.252299
C	 0.1036392217	 1.0024146249	 0.207238413	 0.157379
C	 1.3043949829	 1.9318626418	 0.1140055304	-0.115854
C	 1.2398865611	 2.8353664391	-1.1101926257	-0.109593
C	 1.3956820427	 4.1235601624	-0.7924177184	-0.07328
C	 1.5132060243	 4.3282404619	 0.6777476639	-0.074681
C	 0.2799840226	 3.9403618989	 1.46844557	-0.281021
C	 1.3881936898	 2.9324402055	 1.2734995911	-0.069769
H	-0.8562209225	 1.515765985	 0.4389965379	 0.075218
H	 2.189203239	 1.2850311683	 0.0747501597	 0.100828
H	 1.0797814847	 2.4401257658	-2.1063836949	 0.109786
H	 1.4142617169	 4.9417779343	-1.5035059156	 0.104782
H	 2.1882718347	 5.0754170022	 1.0791097993	 0.093902
H	 0.1747853693	 4.3464492316	 2.4691140553	 0.116786
H	-0.6514640545	 3.8401268446	 0.922723985	 0.118994
H	 1.9601316363	 2.6477369393	 2.1479357794	 0.098821
57.8662	151.5702	239.9567	367.9759	404.6836	445.7932	537.8971	696.3454	755.7406	776.6841	792.1106	832.7572	899.2932	930.3795	937.8592	977.3635	998.6458	1033.2173	1065.407	1074.5815	1084.2471	1097.7776	1109.1044	1141.3153	1195.7466	1257.1532	1287.9225	1302.4366	1365.605	1379.59	1423.0471	1477.9194	1656.5712	1826.0067	2881.444	3037.151	3130.8109	3173.4864	3186.4778	3190.7135	3215.102	3219.6413
O=CC1C=CC2CC12	O=C[C@H]1C=C[C@H]2C[C@@H]12	
InChI=1S/C7H8O/c8-4-6-2-1-5-3-7(5)6/h1-2,4-7H,3H2	InChI=1S/C7H8O/c8-4-6-2-1-5-3-7(5)6/h1-2,4-7H,3H2/t5-,6+,7+/m0/s1
