17
gdb 64874	3.47292	0.96702	0.8948	3.7859	75.75	-0.2593	0.0079	0.2672	1320.5552	0.135374	-418.031757	-418.02266	-418.021716	-418.066812	31.874	
C	 0.2003247398	 1.4168226075	 0.0595321023	-0.449983
C	-0.133132097	-0.0756568226	-0.0263354339	 0.129707
C	 0.8334909106	-0.9010527797	-0.9548537002	-0.220165
N	 1.368074984	-1.5333929891	 0.2481422884	-0.041738
C	 0.4186567048	-0.9291721605	 1.1748893588	-0.207571
C	 2.2837215053	-2.5059699653	 0.4672874398	 0.136516
O	 2.5186622417	-2.9831675963	 1.5569030549	-0.32117
C	-1.5472962046	-0.2858869119	-0.3108301639	 0.250816
N	-2.6688858459	-0.4467433665	-0.5395051041	-0.332849
H	 1.2660693077	 1.5449545667	 0.2697061468	 0.136622
H	-0.0338563186	 1.9244419258	-0.8802036016	 0.144333
H	-0.3708529291	 1.8954613793	 0.8595678334	 0.147351
H	 0.3247920562	-1.5875357457	-1.6391384185	 0.139877
H	 1.5480578897	-0.288400435	-1.5143714418	 0.129226
H	 0.8759552016	-0.3438964208	 1.9780416423	 0.136351
H	-0.2925066058	-1.6409150859	 1.604078877	 0.145503
H	 2.8023210795	-2.8073235	-0.4656182997	 0.077174
28.6374	83.5692	150.5152	183.8438	201.7935	264.5186	299.624	351.1868	371.0045	465.2187	564.7202	590.6355	650.8309	809.2113	901.1236	901.9365	935.7791	973.3365	978.5854	1034.4562	1135.9607	1151.1506	1154.9557	1180.594	1217.3068	1275.0275	1292.7914	1331.0812	1400.2875	1416.0638	1450.8203	1489.6673	1496.2693	1509.8117	1525.9195	1795.1779	2357.4376	2929.8012	3035.5709	3044.7095	3052.2113	3087.4683	3102.5674	3123.291	3125.804
CC1(CN(C1)C=O)C#N	CC1(CN(C1)C=O)C#N	
InChI=1S/C6H8N2O/c1-6(2-7)3-8(4-6)5-9/h5H,3-4H2,1H3	InChI=1S/C6H8N2O/c1-6(2-7)3-8(4-6)5-9/h5H,3-4H2,1H3
