16
gdb 42699	4.2659	1.66339	1.53574	3.5118	71.54	-0.2415	-0.0217	0.2199	868.5972	0.127166	-400.690598	-400.684818	-400.683874	-400.720598	24.473	
O	-0.0645685401	-0.0259153342	-0.0454666977	-0.320194
C	-0.0215436316	 1.1632520599	 0.0427411401	 0.469411
C	-1.0291901847	 2.3150245782	 0.0670962939	-0.13708
C	-0.802582155	 3.0022519069	 1.4218441098	-0.066804
C	-0.9677614056	 4.5069180548	 1.0924348754	-0.240028
C	 0.2884019838	 4.2876338472	 0.2575540001	 0.015116
C	 0.7810834854	 3.1717207252	 1.2090966565	-0.066227
C	 1.041486627	 2.2526082364	-0.0005001693	-0.147992
N	 0.0050879983	 3.1449041861	-0.7360085154	-0.176835
H	-2.0401409518	 2.2292825104	-0.326247968	 0.097469
H	-1.2349141282	 2.5478326259	 2.3117683507	 0.087595
H	-1.8863339678	 4.8399666789	 0.6001257436	 0.10839
H	-0.7550493116	 5.1359749591	 1.9622948976	 0.111538
H	 0.8936404217	 5.0816603267	-0.1757645281	 0.085183
H	 1.4310735089	 3.2915124127	 2.0739258964	 0.081668
H	 2.0386673113	 2.1332467559	-0.4190466357	 0.098792
149.5232	313.8656	402.5838	530.4486	574.595	661.7322	697.0311	747.1267	790.9075	808.262	832.0555	855.8228	877.2663	898.1309	934.9942	948.0907	966.6099	992.4338	1003.788	1056.5164	1080.5539	1088.8425	1114.3267	1149.0862	1157.0519	1190.7017	1214.1412	1218.1477	1230.6376	1251.8231	1268.3193	1270.583	1300.6096	1482.1618	1912.4222	3049.8632	3108.403	3126.0498	3132.1334	3137.5767	3144.4624	3149.7507
O=C1C2C3CC4C3C1N24	O=C1[C@H]2[C@@H]3C[C@H]4[C@@H]3[C@@H]1N24	
InChI=1S/C7H7NO/c9-7-5-2-1-3-4(2)6(7)8(3)5/h2-6H,1H2	InChI=1S/C7H7NO/c9-7-5-2-1-3-4(2)6(7)8(3)5/h2-6H,1H2/t2-,3+,4-,5-,6+/m1/s1
