22
gdb 31636	3.29019	1.01071	0.82815	2.0179	92.09	-0.1877	0.0521	0.2399	1494.7805	0.193616	-367.263773	-367.25347	-367.252526	-367.299911	36.956	
C	 0.1018224151	 1.5255384859	 0.214255596	-0.359065
C	-0.1269676638	 0.0314004234	-0.0719242177	-0.292859
C	 0.6304816945	-0.4716560127	-1.2673177081	 0.283172
C	 0.098343728	-0.8361686934	-2.4824434186	-0.216098
N	 1.120315619	-1.220190244	-3.3225525435	-0.035171
C	 0.9538365035	-1.6799764828	-4.6832100783	-0.336341
C	 2.32057021	-1.1065092211	-2.6528609124	 0.310617
C	 3.623887836	-1.4555429317	-3.2923705966	-0.501158
C	 2.0419098249	-0.6457733185	-1.3844820234	-0.34747
H	 1.1619546389	 1.733718902	 0.3908792453	 0.115407
H	-0.2162483724	 2.1372337524	-0.6360399079	 0.113279
H	-0.4578470953	 1.8499214342	 1.0981868727	 0.101929
H	 0.1549705847	-0.5467691065	 0.8180282091	 0.097465
H	-1.1985060601	-0.1472109079	-0.2216739813	 0.091402
H	-0.9261821468	-0.8588703134	-2.821726775	 0.105885
H	 1.4886395933	-1.0378368009	-5.39206894	 0.134394
H	 1.317530153	-2.7061797148	-4.8084079389	 0.134185
H	-0.1074092595	-1.6596085297	-4.9368339088	 0.138893
H	 3.8354376844	-0.8439900306	-4.179316208	 0.122802
H	 4.4358075724	-1.2918850377	-2.5801900363	 0.133728
H	 3.6702127652	-2.5056799711	-3.6092923726	 0.122648
H	 2.779007985	-0.457251591	-0.6167406256	 0.082356
39.8382	57.2458	116.5253	151.2432	188.0618	197.4793	238.7573	268.5981	291.1155	388.3285	467.1127	574.9062	626.8087	635.1488	677.1723	711.1455	783.9395	787.3002	795.6499	949.0094	1001.5938	1016.4574	1060.1554	1064.8443	1075.0746	1087.0835	1148.5462	1169.4164	1189.6957	1238.4352	1289.5182	1347.4076	1386.1669	1391.8722	1406.0904	1420.1141	1445.2469	1473.8438	1474.8846	1482.8849	1488.3479	1491.0067	1494.9474	1506.633	1519.0171	1558.846	1621.9705	3009.5416	3014.1535	3025.6607	3030.5327	3050.0001	3051.2376	3076.6413	3099.698	3106.5665	3120.9877	3134.2102	3228.6576	3244.3766
CCC1=CN(C)C(C)=C1	CCc1cn(C)c(C)c1	
InChI=1S/C8H13N/c1-4-8-5-7(2)9(3)6-8/h5-6H,4H2,1-3H3	InChI=1S/C8H13N/c1-4-8-5-7(2)9(3)6-8/h5-6H,4H2,1-3H3
