19
gdb 78482	3.47267	1.32475	1.27915	1.2693	74.3	-0.2539	0.0806	0.3344	1083.088	0.1607	-422.994137	-422.986625	-422.985681	-423.026042	29.483	
C	-0.08985855	 1.4299137022	-0.016603981	-0.427577
C	 0.044770743	-0.0774166806	 0.0280572499	-0.008043
C	 1.4066417041	-0.6594229186	-0.2177176465	-0.085101
C	 0.7779734071	-0.673730883	 1.1945270349	-0.085095
C	 0.7208826765	-2.2063840986	 1.1548833636	 0.060571
O	-0.5545223108	-2.8103486084	 0.9850900663	-0.26279
C	-0.4756461963	-3.5173335095	-0.2384761676	 0.018163
O	 0.3754107806	-2.7892216882	-1.1037852768	-0.262796
C	 1.3505290433	-2.1920551991	-0.2595319239	 0.060584
H	 0.8019427646	 1.9229051279	 0.3853323164	 0.113764
H	-0.2300715512	 1.7807941861	-1.0443468584	 0.122382
H	-0.9498984118	 1.7644225212	 0.5728598819	 0.122382
H	-0.8118462668	-0.6217518045	-0.3587804589	 0.099393
H	 2.230795679	-0.0616570284	-0.5868733194	 0.084545
H	 1.0507590906	-0.0885305675	 2.0639849823	 0.084546
H	 1.2987534226	-2.704379403	 1.9396649444	 0.07914
H	-0.0751786642	-4.5331586227	-0.0704804115	 0.087126
H	-1.4733450865	-3.5745935377	-0.6832155257	 0.119668
H	 2.3241356861	-2.6810059578	-0.36363292	 0.079138
141.6255	148.788	216.5083	232.8882	258.2638	360.8651	466.8165	598.534	654.1514	715.4774	758.5561	772.551	859.3459	883.4995	891.723	962.7256	981.9093	983.3808	1002.2645	1018.7947	1047.1532	1047.5088	1092.8623	1102.0571	1113.678	1145.5341	1172.4787	1206.4009	1227.1993	1234.2856	1250.0063	1291.5643	1304.9824	1334.2538	1355.3646	1417.5466	1425.2727	1430.3187	1494.1872	1503.8968	1540.8753	2941.3643	3029.928	3050.4245	3062.6647	3087.3134	3095.6372	3097.4011	3150.3936	3183.7828	3194.1216
CC1C2C1C1OCOC21	C[C@H]1[C@H]2[C@@H]1[C@H]1OCO[C@@H]21	
InChI=1S/C7H10O2/c1-3-4-5(3)7-6(4)8-2-9-7/h3-7H,2H2,1H3	InChI=1S/C7H10O2/c1-3-4-5(3)7-6(4)8-2-9-7/h3-7H,2H2,1H3/t3-,4-,5+,6-,7+
