15
gdb 97872	7.08494	0.4278	0.40546	4.021	82.12	-0.2605	-0.0631	0.1974	2492.3767	0.108694	-420.55685	-420.546273	-420.545329	-420.597222	33.686	
O	-0.0341642991	 1.5213213142	 0.0125315435	-0.407884
C	 0.0287619958	 0.1012154382	 0.0018011758	-0.212046
C	-1.3239544513	-0.4440024369	 0.0117829213	 0.115249
C	-2.4314117239	-0.9105379848	 0.0198025515	 0.075733
C	-3.7869614341	-1.4620515202	 0.0296933072	-0.503565
C	-3.8296056154	-2.92285098	 0.0224613654	 0.137067
C	-3.8912239196	-4.1279418269	 0.0168786892	 0.008247
C	-3.9174658963	-5.5683037442	 0.0099502017	 0.026124
O	-4.9257503554	-6.2361240018	 0.0165407836	-0.227642
H	 0.8711290663	 1.8487054818	 0.0057823021	 0.292589
H	 0.5572138455	-0.270333773	-0.891152532	 0.120858
H	 0.5753150455	-0.2829030116	 0.8783887479	 0.120864
H	-4.3342559671	-1.0993485529	 0.9113493529	 0.176598
H	-4.3507767319	-1.0902217449	-0.8376342608	 0.176578
H	-2.912593359	-6.0373311871	-0.0023125893	 0.101232
5.0823	23.609	44.8667	127.421	160.975	165.4434	188.6937	230.9907	325.0733	361.4671	393.4269	480.3411	547.2044	614.2543	783.0114	830.8089	920.2208	1021.7337	1028.242	1050.5256	1125.1811	1165.5955	1224.7674	1246.5967	1256.4752	1335.2651	1421.7333	1441.007	1461.168	1504.401	1769.2668	2338.2854	2386.89	2920.0436	2966.2247	2985.3614	3008.0573	3032.7092	3818.7274
OCC#CCC#CC=O	OCC#CCC#CC=O	
InChI=1S/C7H6O2/c8-6-4-2-1-3-5-7-9/h6,9H,1,7H2	InChI=1S/C7H6O2/c8-6-4-2-1-3-5-7-9/h6,9H,1,7H2
