18
gdb 22618	2.54571	1.53825	1.22299	0.9327	80.5	-0.2313	0.0046	0.236	1081.7329	0.146917	-401.871159	-401.862946	-401.862001	-401.903562	32.265	
C	-0.0635459811	 1.5620375412	 0.0008295542	-0.50876
C	-0.037348548	 0.0541775357	-0.0209745982	 0.207953
C	 0.6988386028	-0.79725562	-1.1295558269	-0.251768
C	-0.215105612	-1.9515935306	-0.5788802406	-0.173662
C	 0.2861162444	-2.0197505182	 0.8728123495	-0.089394
C	 0.4035422075	-0.7361641942	 1.2304431058	-0.120189
C	-1.2456415408	-0.8206686961	-0.4083289229	 0.465455
N	-2.4606210817	-0.5614440175	-0.6083076985	-0.319216
O	-3.1690974649	-1.7033466462	-1.0589079168	-0.400093
H	 0.938504243	 1.9671800799	 0.1775951622	 0.118374
H	-0.4317974289	 1.9618540386	-0.948248029	 0.126987
H	-0.7214514142	 1.9303627989	 0.7944585964	 0.130482
H	 0.4454489337	-0.4865063446	-2.1482443937	 0.106338
H	 1.7759115937	-0.9319341118	-0.9990829096	 0.099593
H	-0.4209269392	-2.8653419682	-1.128278285	 0.088797
H	 0.4452153946	-2.9204176549	 1.4480656385	 0.109074
H	 0.6839435443	-0.2987472701	 2.1785823293	 0.105784
H	-4.0600534732	-1.3525290521	-1.1608484644	 0.304244
117.2886	157.681	187.0283	263.8926	268.6986	327.1484	395.5758	431.2436	488.7415	585.5833	620.3345	664.8725	692.6517	759.4416	794.0741	838.2971	878.4455	892.6689	907.993	922.7778	949.4414	1015.2201	1031.8619	1079.0974	1086.1817	1113.7681	1181.0063	1193.7755	1204.4638	1242.3778	1281.3199	1345.6919	1402.8765	1415.279	1481.6315	1489.3016	1492.8948	1617.0768	1801.4742	3035.9917	3044.7666	3101.9135	3111.785	3119.0339	3169.5454	3219.071	3246.7843	3821.1731
CC12CC(C=C1)C2=NO	C[C@@]12C[C@@H](C=C1)C2=NO	
InChI=1S/C7H9NO/c1-7-3-2-5(4-7)6(7)8-9/h2-3,5,9H,4H2,1H3	InChI=1S/C7H9NO/c1-7-3-2-5(4-7)6(7)8-9/h2-3,5,9H,4H2,1H3/t5-,7+/m1/s1
