25
gdb 114826	2.96532	1.20242	1.13704	0.0865	91.04	-0.2801	0.0777	0.3578	1269.3245	0.233052	-352.389154	-352.380791	-352.379846	-352.421923	34.21	
C	-0.0525131529	 1.643979773	 0.3462285385	-0.384694
C	 0.0314682551	 0.1333191593	 0.1001725502	-0.202515
C	-1.3425940245	-0.5253625705	-0.059366013	 0.077948
C	-2.1118951937	-0.1532176357	-1.3748364524	-0.227329
C	-2.5430755159	-1.5264895889	-1.9420671369	 0.00504
C	-1.2921379876	-2.2298420154	-2.5180075197	-0.203441
C	-0.4862610731	-2.6203271551	-1.2364768895	-0.209635
C	-1.3678586536	-2.0770018898	-0.0885277111	-0.024844
C	-2.7829490121	-2.3367472359	-0.648823947	-0.2248
H	 0.9427817058	 2.0851552095	 0.4595142125	 0.108869
H	-0.5499780367	 2.1570350851	-0.4837360227	 0.117506
H	-0.6204777988	 1.8641499028	 1.2572992853	 0.111705
H	 0.6416295953	-0.0507117087	-0.7928688507	 0.094282
H	 0.5635709131	-0.3387129376	 0.9371206545	 0.089015
H	-1.9511010687	-0.2133050664	 0.8000312691	 0.060803
H	-2.9794408221	 0.480035406	-1.165633377	 0.089586
H	-1.4779408521	 0.393749272	-2.0818096813	 0.08836
H	-3.3788388536	-1.4723657881	-2.6429274666	 0.050456
H	-1.5717644752	-3.1174078146	-3.0941419938	 0.090206
H	-0.7279841342	-1.5740589027	-3.1884847476	 0.089318
H	-0.3876560547	-3.7070988287	-1.1517800487	 0.091049
H	 0.5265387204	-2.2108484317	-1.2288097598	 0.094964
H	-1.1447347192	-2.5253447957	 0.8828912909	 0.048006
H	-3.5789643162	-1.9257156286	-0.0195172824	 0.085373
H	-2.9899117948	-3.3960413938	-0.8334344107	 0.084771
103.614	108.5465	191.6564	239.362	304.1077	350.0627	404.9477	462.2163	463.0277	544.7919	740.9375	761.8054	782.2996	810.0995	820.1305	838.1374	888.1901	924.568	936.9	945.489	963.2893	968.6486	982.8079	995.8286	1030.9314	1045.8786	1080.9101	1104.0498	1132.0151	1135.5472	1153.334	1195.7018	1199.6773	1241.0072	1265.7611	1276.5853	1283.3403	1299.1373	1306.0989	1321.8789	1332.7382	1348.644	1350.4821	1367.8841	1394.6566	1412.5623	1484.435	1488.8736	1496.0144	1500.0231	1503.2164	1507.917	1522.2748	3002.143	3013.1109	3029.2152	3034.9654	3040.806	3042.8405	3049.5654	3054.2113	3076.0709	3078.7398	3080.092	3090.6163	3091.6353	3096.101	3101.3095	3103.6813
CCC1CC2CCC1C2	CC[C@H]1C[C@H]2CC[C@@H]1C2	
InChI=1S/C9H16/c1-2-8-5-7-3-4-9(8)6-7/h7-9H,2-6H2,1H3	InChI=1S/C9H16/c1-2-8-5-7-3-4-9(8)6-7/h7-9H,2-6H2,1H3/t7-,8+,9-/m1/s1
