20
gdb 54152	2.40099	1.44061	1.08151	3.303	76.24	-0.2353	0.0303	0.2656	1180.615	0.169057	-440.313806	-440.303931	-440.302987	-440.347884	37.947	
C	-0.0473836189	 1.3023131018	-0.4048582436	-0.45007
C	 0.2934070126	-0.1318353987	-0.0648261288	 0.345098
O	-0.3998948553	-1.0435777028	-0.8966644037	-0.452533
C	 1.6808899392	-0.5558545664	 0.2677171071	-0.358301
C	 0.6261064628	-0.5541239735	 1.3795853486	 0.129771
C	 0.7249415071	 0.5026551608	 2.4666404537	-0.447098
C	 0.1629597241	-1.887714194	 1.939316829	 0.354699
N	 0.0666990212	-2.9427855339	 1.0723088332	-0.547936
O	-0.0625065562	-2.0124152359	 3.1313533675	-0.369783
H	 0.5677891284	 2.0178724677	 0.1414540986	 0.130654
H	 0.1057862075	 1.4641496398	-1.4764341175	 0.132551
H	-1.0974708306	 1.5224992441	-0.17491552	 0.115772
H	-1.3449789537	-0.9130362472	-0.7521769354	 0.286843
H	 2.0082447483	-1.5209938583	-0.1019614346	 0.131312
H	 2.457159868	 0.2008073703	 0.3171303778	 0.119129
H	 1.2183372839	 1.4081583351	 2.1073653718	 0.100856
H	-0.2624493083	 0.7740979235	 2.8515858688	 0.124022
H	 1.2977777134	 0.1081738039	 3.3084469246	 0.141942
H	-0.0590022151	-2.7550420528	 0.0883875878	 0.262553
H	-0.3429694485	-3.7772817534	 1.462031975	 0.250519
72.7481	141.6731	159.1442	196.1082	243.3359	287.8432	311.9754	352.9054	373.8618	410.275	414.3456	472.0038	510.3815	523.9217	554.24	646.0441	673.1385	696.7185	799.8305	855.8019	910.1001	922.4903	957.6307	1006.0522	1062.4734	1089.0817	1106.9722	1119.7865	1160.4744	1203.167	1262.5278	1281.715	1381.0218	1406.1594	1415.2681	1426.0637	1478.2956	1483.5933	1489.8168	1495.0203	1510.8042	1617.0182	1771.0153	3029.0836	3052.2809	3093.6858	3117.5977	3131.7773	3132.9145	3146.2268	3224.5214	3552.3902	3692.3196	3781.9153
CC1(O)CC1(C)C(N)=O	C[C@@]1(O)C[C@]1(C)C(=O)N	
InChI=1S/C6H11NO2/c1-5(4(7)8)3-6(5,2)9/h9H,3H2,1-2H3,(H2,7,8)	InChI=1S/C6H11NO2/c1-5(4(7)8)3-6(5,2)9/h9H,3H2,1-2H3,(H2,7,8)/t5-,6-/m1/s1
