24
gdb 111314	2.28908	1.34006	1.14233	1.5727	88.51	-0.2246	0.082	0.3065	1268.0798	0.216353	-368.378752	-368.36885	-368.367906	-368.412926	38.215	
C	-0.0128860167	 1.6595905632	-0.0633442409	-0.37953
C	-0.1538632437	 0.1328693684	-0.0497495028	-0.201472
C	 0.6602661801	-0.527155669	-1.1541642695	 0.024783
N	 2.163093821	-0.3368066326	-1.1086632296	-0.142378
C	 2.663111388	-1.0791665615	 0.0653760388	-0.263509
C	 2.3091665261	-1.8485485665	-1.1393855703	-0.050123
C	 0.798465122	-2.0898488973	-1.2739503368	 0.285749
C	 0.1381630885	-2.9773186478	-0.2180570526	-0.448557
C	 0.431529976	-2.5780614926	-2.6777815308	-0.445998
H	 1.0334461328	 1.9542616787	 0.0591635029	 0.136114
H	-0.364389852	 2.0794375229	-1.0121389146	 0.11519
H	-0.5941146186	 2.1182208846	 0.7423254158	 0.108051
H	 0.1323458283	-0.2526440022	 0.9350759438	 0.093383
H	-1.2065791927	-0.1471741886	-0.1868381918	 0.097153
H	 0.3285371695	-0.1132623392	-2.1127704457	 0.074639
H	 3.7174375509	-0.8944625862	 0.2491692336	 0.118216
H	 2.0628369515	-1.1502001855	 0.9673991379	 0.10849
H	 3.0604666919	-2.3264740019	-1.762816878	 0.086016
H	 0.3813434009	-2.6735551948	 0.8032437053	 0.111523
H	-0.9530133408	-2.95925503	-0.3188359052	 0.1136
H	 0.4614504366	-4.0177062112	-0.3384755186	 0.113269
H	 0.7257734751	-3.6246756377	-2.8192236586	 0.110492
H	-0.649532764	-2.5112337731	-2.8447760294	 0.112104
H	 0.9304545194	-1.9821199702	-3.4486889829	 0.122795
78.6183	151.1379	159.0189	191.3776	216.5118	239.166	279.293	300.0831	322.1702	349.7967	460.8774	501.705	534.6032	620.8379	735.9213	753.6112	789.0033	828.7779	888.2828	921.9086	952.6078	962.7284	991.5475	997.764	1021.4761	1060.6281	1063.4483	1107.6817	1120.2044	1120.3366	1156.7335	1207.4663	1218.1866	1225.3882	1265.1524	1278.4892	1294.1986	1337.9525	1370.6125	1401.8038	1402.7955	1410.9667	1426.3648	1480.1949	1482.8296	1486.7374	1497.0459	1499.2175	1504.7945	1509.1725	1513.9033	3021.3034	3024.9112	3029.3882	3035.2504	3037.3319	3065.7979	3084.5486	3089.6789	3099.9636	3102.9965	3109.892	3114.8379	3119.9175	3141.215	3199.9806
CCC1N2CC2C1(C)C	CC[C@H]1N2C[C@H]2C1(C)C	
InChI=1S/C8H15N/c1-4-6-8(2,3)7-5-9(6)7/h6-7H,4-5H2,1-3H3	InChI=1S/C8H15N/c1-4-6-8(2,3)7-5-9(6)7/h6-7H,4-5H2,1-3H3/t6-,7+,9?/m1/s1
