18
gdb 105982	2.73778	1.58667	1.21885	2.3793	74.85	-0.2142	0.0594	0.2736	1061.7057	0.146514	-401.823935	-401.81573	-401.814786	-401.856799	31.301	
C	 0.0130437076	 1.5127819627	 0.1001302562	-0.52907
C	-0.0148122268	 0.0231559269	 0.0098781553	 0.263332
C	 0.8082987253	-1.0057928746	-0.8184129591	-0.118831
C	 0.6760279602	-2.0199092217	 0.2583023498	-0.045516
C	-0.1469406435	-1.0375408962	 1.1226985554	-0.22206
C	-1.1471776015	-0.9770904595	-0.010185194	 0.325157
C	-2.6323437749	-0.9140793818	-0.0909487208	-0.207903
O	-3.2316587263	-2.150736744	 0.263325629	-0.413171
N	-0.3431189069	-1.9786870003	-0.8492268469	-0.227921
H	 0.9900344695	 1.8737991683	 0.4417957013	 0.127253
H	-0.1964139399	 1.9794665333	-0.8694807693	 0.127223
H	-0.7383911698	 1.8724289251	 0.8112206592	 0.127366
H	 1.5064983449	-0.9104548393	-1.6424846408	 0.096091
H	 1.249880664	-2.911500395	 0.4812199113	 0.09796
H	-0.2748985229	-0.8967070435	 2.1868652888	 0.096751
H	-3.0180195249	-0.1618758761	 0.6060460103	 0.112527
H	-2.9296707846	-0.6074871162	-1.1074291297	 0.09627
H	-2.8073178197	-2.8255893282	-0.279552826	 0.294543
74.8617	121.9651	205.4379	225.9657	251.3207	288.2007	377.3389	440.9493	579.4811	653.3658	697.0207	753.8504	784.0392	801.0216	857.1505	865.8035	886.3135	918.2339	939.9605	958.0896	1000.028	1013.7157	1049.5114	1084.6874	1102.3432	1134.9679	1156.9049	1206.4329	1230.028	1249.5311	1307.1233	1342.2842	1370.7804	1411.7214	1418.3145	1478.9528	1483.5616	1489.5323	1504.7743	2969.1227	3021.0376	3068.4838	3079.9817	3093.8191	3168.7805	3184.7803	3216.0267	3794.7235
CC12C3C4C1C2(CO)N34	C[C@@]12[C@H]3[C@H]4[C@@H]1[C@]2(CO)N34	
InChI=1S/C7H9NO/c1-6-4-3-5(6)8(3)7(4,6)2-9/h3-5,9H,2H2,1H3	InChI=1S/C7H9NO/c1-6-4-3-5(6)8(3)7(4,6)2-9/h3-5,9H,2H2,1H3/t3-,4+,5-,6+,7+,8?/m1/s1
