17
gdb 65245	2.72605	1.44379	1.11333	3.565	67.35	-0.2544	0.0065	0.2609	1093.9447	0.13457	-458.965066	-458.956431	-458.955487	-458.998876	31.594	
O	-0.0227846138	 1.3860032962	 0.462571027	-0.477372
C	 0.0660419971	 0.0304617672	 0.1007095563	 0.417687
C	 1.1500258856	-0.4327574624	-0.8373136692	-0.345397
C	 1.1725402152	-0.8351411585	 0.6316580242	-0.331373
C	-1.3358510121	-0.5125969613	 0.0031085247	-0.236249
C	-2.1993523897	-0.1075526473	-1.2066874756	-0.090791
O	-2.303383154	-1.5172493255	-1.6089651089	-0.241349
C	-1.5107598753	-1.9227146987	-0.5711494428	 0.452358
O	-1.1402651723	-3.0258103552	-0.3210304421	-0.330695
H	 0.8656010541	 1.7497700491	 0.5307614083	 0.285562
H	 0.9357386461	-1.1998875892	-1.5736389131	 0.138023
H	 1.8660378376	 0.3119313417	-1.1710443269	 0.109794
H	 1.9079693028	-0.363740977	 1.2763309298	 0.110034
H	 0.9483154873	-1.868039107	 0.8734429278	 0.151444
H	-1.8448742043	-0.390304535	 0.9634557846	 0.124819
H	-3.1859722811	 0.3049089592	-0.9923958371	 0.129264
H	-1.6887886131	 0.4742440838	-1.975466817	 0.13424
60.0645	118.7425	139.1621	148.4994	240.4068	321.0182	329.8514	389.0577	506.6048	533.6311	641.9542	732.7014	762.9551	778.3742	877.7741	889.7605	934.5057	946.0999	965.0149	981.9151	1053.5579	1065.7664	1077.0448	1087.7374	1130.4873	1154.0916	1165.4966	1186.7924	1217.3087	1277.6073	1335.2479	1359.9388	1433.3931	1457.8899	1500.2378	1515.7704	1925.0674	3078.8324	3085.1487	3126.0125	3129.6985	3149.5422	3209.221	3225.076	3824.3064
OC1(CC1)C1COC1=O	OC1(CC1)[C@H]1COC1=O	
InChI=1S/C6H8O3/c7-5-4(3-9-5)6(8)1-2-6/h4,8H,1-3H2	InChI=1S/C6H8O3/c7-5-4(3-9-5)6(8)1-2-6/h4,8H,1-3H2/t4-/m0/s1
