14
gdb 12160	3.66312	1.55242	1.19756	1.2495	66.4	-0.2501	0.0086	0.2587	975.5019	0.106521	-378.671349	-378.663445	-378.662501	-378.703754	28.732	
N	-0.0110572492	 1.3023168822	 0.2762636679	-0.511641
C	 0.0697648036	-0.0864210017	-0.0946264983	-0.120949
C	-1.27402908	-0.8617521161	-0.2951512484	-0.039848
O	-0.8056129271	-1.2997051228	-1.6224464754	-0.262076
C	 0.3295105928	-0.519220036	-1.5353094489	 0.410268
N	 1.2048583165	-0.2453325846	-2.3887634007	-0.543792
C	-1.5878427518	-1.9559075197	 0.594210027	 0.314782
C	-1.838075939	-2.8530345549	 1.3534093081	-0.429654
H	 0.9070964148	 1.6536571931	 0.5246777218	 0.249178
H	-0.3355484555	 1.8653289033	-0.5042920278	 0.240279
H	 0.7204080656	-0.6143148969	 0.6059634527	 0.129284
H	-2.12582034	-0.185006387	-0.4155537939	 0.122715
H	 1.0192517426	-0.7020174587	-3.2835640537	 0.231966
H	-2.0648123333	-3.6483634702	 2.0201778095	 0.209488
80.1403	141.4809	167.8445	229.1814	247.5419	347.4436	415.7806	482.8979	558.1426	626.2124	673.3143	682.7619	722.7843	803.422	867.4102	895.7894	932.8372	958.3151	1015.3606	1059.6045	1168.3076	1176.636	1215.6511	1231.8157	1296.6141	1364.2472	1426.6358	1671.4203	1824.8595	2241.0197	3063.2633	3099.2044	3474.0309	3501.48	3506.3445	3587.6227
NC1C(OC1=N)C#C	N[C@H]1[C@@H](O[C]1[NH])C#C	
InChI=1S/C5H6N2O/c1-2-3-4(6)5(7)8-3/h1,3-4,7H,6H2	InChI=1S/C5H6N2O/c1-2-3-4(6)5(7)8-3/h1,3-4,7H,6H2/t3-,4-/m0/s1
