23
gdb 103288	2.36811	1.41251	1.22001	1.1889	85.87	-0.2381	0.0887	0.3267	1201.8841	0.204332	-388.257493	-388.247749	-388.246805	-388.29137	37.306	
C	 0.3260615194	 1.274602301	 0.2326106868	-0.251759
O	-0.1307536427	-0.0039444864	-0.1650617281	-0.28006
C	 0.605062979	-0.583000662	-1.2141589198	 0.448235
C	 0.4059891007	 0.0945314058	-2.5577150732	-0.46146
C	 1.962569346	-1.1712665879	-0.9526971441	-0.135437
C	 2.0418284763	-1.7587368739	 0.4633516895	-0.268507
C	 0.8730782152	-2.7421423877	 0.1171552095	 0.037126
C	-0.3363192014	-2.8602585012	 1.0377220062	-0.412031
C	 0.7336089111	-2.072746717	-1.2594574735	-0.147899
H	 1.4065030137	 1.2743903524	 0.4340970997	 0.110561
H	 0.1137173724	 2.0457974077	-0.520918105	 0.108392
H	-0.2079463423	 1.5317721971	 1.1507303434	 0.124187
H	 0.7861054223	 1.1211775228	-2.5552883802	 0.1169
H	 0.9325928741	-0.448583458	-3.3471905703	 0.120419
H	-0.6585611156	 0.1256234104	-2.8109792681	 0.124434
H	 2.8151431969	-0.9457617433	-1.5840557433	 0.078272
H	 2.9835792763	-2.2715924286	 0.6688717223	 0.096586
H	 1.8434774218	-1.0518014711	 1.2739947312	 0.09813
H	 1.3035950506	-3.7376585025	-0.0374172451	 0.071049
H	-0.7835077092	-1.8834264284	 1.2277117949	 0.138839
H	-1.1022616462	-3.5044503483	 0.5903389465	 0.105722
H	-0.0499625968	-3.3083137517	 1.99645464	 0.102483
H	 0.4924267282	-2.6072756792	-2.1730603995	 0.075819
113.4116	139.2029	168.9444	194.1516	205.3908	220.1281	267.1925	294.8485	334.6444	380.6288	413.0792	537.5	580.1609	656.0902	695.2332	822.0419	835.45	857.2633	886.5132	929.0414	962.2657	997.4385	1020.2169	1029.9798	1062.2674	1090.1992	1100.7117	1127.3417	1150.7459	1153.2693	1180.7143	1213.8286	1227.057	1253.5808	1273.1572	1277.3139	1293.1979	1377.2905	1402.7678	1410.088	1419.6982	1472.9804	1482.4773	1486.2331	1490.9856	1493.6687	1507.2569	1509.9951	1512.3702	2992.2184	3026.8368	3036.3295	3037.7087	3044.8983	3058.8273	3083.1482	3101.0253	3111.1412	3113.308	3116.0854	3141.05	3151.0218	3167.8953
COC1(C)C2CC(C)C12	CO[C@@]1(C)[C@H]2C[C@@H](C)[C@@H]12	
InChI=1S/C8H14O/c1-5-4-6-7(5)8(6,2)9-3/h5-7H,4H2,1-3H3	InChI=1S/C8H14O/c1-5-4-6-7(5)8(6,2)9-3/h5-7H,4H2,1-3H3/t5-,6+,7-,8+/m1/s1
