20
gdb 100636	2.51944	1.09891	0.94939	4.0355	75.18	-0.2772	0.0178	0.295	1316.6137	0.167588	-440.29299	-440.282097	-440.281153	-440.328649	39.343	
C	 0.0463559323	 1.5495788163	-0.0175497634	-0.436689
C	 0.0265084482	 0.0150265978	 0.0296680327	 0.017834
C	 0.8109818644	-0.4988814622	 1.2432583496	-0.101468
O	 2.1217981772	 0.0426129909	 1.163437808	-0.42278
C	-1.4264994903	-0.5500915221	 0.0144454127	 0.193721
C	-1.4913024304	-2.0843081424	 0.0468802159	-0.413379
O	-2.1806004207	-0.1104372656	 1.1400028045	-0.448176
C	-2.0938505936	-0.0888747241	-1.2316297548	 0.260509
N	-2.6185172644	 0.2826290654	-2.1921964146	-0.344592
H	 1.0779142103	 1.9015808199	-0.0445057059	 0.150715
H	-0.4773967347	 1.9313749696	-0.8980583154	 0.140005
H	-0.4157910527	 1.9820530529	 0.8786192928	 0.105957
H	 0.5241095682	-0.363172793	-0.872233481	 0.101064
H	 0.2979439794	-0.1859568337	 2.1646776422	 0.101106
H	 0.849674432	-1.5967371933	 1.238284688	 0.091134
H	 2.6101834004	-0.2394305345	 1.94196486	 0.290328
H	-1.1599534984	-2.4445943061	 1.0222044811	 0.138788
H	-2.5207251071	-2.4136004874	-0.1065644019	 0.145158
H	-0.8606647622	-2.5166024679	-0.7334505692	 0.135
H	-2.2720401677	 0.8478800793	 1.0937949686	 0.295766
64.7457	86.5801	140.4222	185.1026	223.8085	229.4602	238.3721	259.2342	281.897	323.5583	335.5778	362.3865	416.8509	436.7235	500.3394	597.9387	619.9229	743.6725	851.4198	918.2674	934.5599	952.5601	1027.4327	1042.7843	1074.1582	1118.7484	1158.0288	1174.142	1205.7376	1255.2526	1275.8804	1326.8827	1355.8957	1372.331	1404.2189	1410.0303	1457.8076	1480.1565	1493.7216	1500.96	1512.3234	1528.8829	2348.7972	2989.561	3021.4596	3029.0017	3042.8572	3062.248	3105.3297	3142.3001	3147.1444	3149.1358	3810.7118	3835.3323
CC(CO)C(C)(O)C#N	C[C@@H](CO)[C@@](C)(O)C#N	
InChI=1S/C6H11NO2/c1-5(3-8)6(2,9)4-7/h5,8-9H,3H2,1-2H3	InChI=1S/C6H11NO2/c1-5(3-8)6(2,9)4-7/h5,8-9H,3H2,1-2H3/t5-,6-/m0/s1
