13
gdb 20496	9.19412	1.01572	0.91993	3.5934	75.18	-0.2383	-0.0377	0.2006	1207.1137	0.09532	-361.438662	-361.431204	-361.430259	-361.473714	25.364	
C	-0.0861488656	 1.4559950394	 0.0105558835	-0.511458
C	-0.0011625675	 0.0059318951	 0.0025914009	 0.247578
C	 0.0657193909	-1.1984202686	-0.0039932253	-0.098396
C	 0.1460871025	-2.6021175822	-0.0116748191	 0.287088
C	 1.2009696974	-3.4731657582	-0.0222886541	-0.346437
C	 0.5815797874	-4.7456905355	-0.0252348451	 0.012461
N	-0.7275690346	-4.6603723436	-0.0171608245	-0.126116
O	-1.013923189	-3.3057548098	-0.0085239388	-0.20728
H	 0.9114600139	 1.907573036	 0.0032658134	 0.159246
H	-0.6282673578	 1.8233640984	-0.8676669887	 0.161687
H	-0.6113905258	 1.8146695945	 0.9025260369	 0.161667
H	 2.2495503734	-3.2306884426	-0.0271449355	 0.12649
H	 1.0435050548	-5.7228808727	-0.0329542236	 0.133471
3.6569	97.7393	108.5252	284.0643	318.9963	458.0194	477.2008	525.8286	642.8852	712.9765	819.4395	915.9158	928.2007	939.2674	960.4171	1041.9992	1047.8694	1052.1629	1066.8743	1221.9894	1264.5881	1361.5646	1411.1926	1470.8945	1473.0082	1502.5213	1614.768	2361.474	3030.4081	3092.7288	3097.7567	3245.2642	3290.5316
CC#CC1=CC=NO1	CC#Cc1ccno1	
InChI=1S/C6H5NO/c1-2-3-6-4-5-7-8-6/h4-5H,1H3	InChI=1S/C6H5NO/c1-2-3-6-4-5-7-8-6/h4-5H,1H3
