19
gdb 73973	2.80979	1.60273	1.17574	1.5293	82.79	-0.2256	0.0085	0.234	1088.1732	0.159667	-385.839987	-385.83226	-385.831316	-385.872053	30.446	
C	-0.0869346166	 1.4738611811	 0.0229270023	-0.493007
C	-0.0466721833	-0.0182904376	 0.0680702246	 0.174406
C	-1.0353944103	-0.8983706141	 0.2102749951	 0.195542
C	-2.4531739293	-1.2668608995	-0.161670066	-0.113371
O	-2.3219738099	-1.7669669932	-1.5182947801	-0.235425
C	-2.0114207913	-2.6557156705	-0.4477938773	 0.001147
C	-0.5884966666	-2.3416462881	 0.1029358378	-0.065837
C	 0.7542131245	-2.2200917407	-0.6304149359	-0.251791
C	 1.2498284832	-0.8171339875	-0.1414910358	-0.286347
H	 0.5103909753	 1.9135325581	 0.8324313484	 0.127265
H	 0.3390456794	 1.8497647006	-0.9159689064	 0.128867
H	-1.1079610165	 1.8537476989	 0.113452742	 0.124073
H	-3.4195813443	-0.867862594	 0.1191903987	 0.10657
H	-2.5670121031	-3.5856574269	-0.3986941872	 0.098971
H	-0.4889508783	-2.8117036918	 1.0915492968	 0.078511
H	 1.4681352654	-3.0222387383	-0.4230326692	 0.090498
H	 0.5810472741	-2.1789764803	-1.7106660999	 0.114815
H	 1.9046440785	-0.3282750418	-0.8725944907	 0.102356
H	 1.8332701892	-0.9002322147	 0.7872974327	 0.102757
126.4088	169.37	185.3473	210.4155	268.7956	398.6932	485.7504	543.318	590.5828	628.1678	690.9566	733.2517	825.174	828.3817	856.6375	902.3792	917.3912	934.6707	962.8994	997.2983	1035.0551	1045.9085	1083.8164	1089.9805	1111.5278	1156.9147	1172.6153	1213.4423	1214.9359	1246.0934	1258.2479	1298.1127	1321.8577	1330.7881	1363.1525	1410.9729	1475.5025	1478.7469	1485.7629	1489.7522	1763.1088	3000.7508	3008.1198	3015.7793	3047.1202	3057.5362	3061.0597	3102.7277	3111.7128	3177.1557	3201.7643
CC1=C2C3OC3C2CC1	C[C]1[C]2[C@H]3O[C@H]3[C@H]2CC1	
InChI=1S/C8H10O/c1-4-2-3-5-6(4)8-7(5)9-8/h5,7-8H,2-3H2,1H3	InChI=1S/C8H10O/c1-4-2-3-5-6(4)8-7(5)9-8/h5,7-8H,2-3H2,1H3/t5-,7-,8+/m0/s1
