16
gdb 30599	4.36265	1.07169	0.86505	3.3588	76.11	-0.2343	-0.0264	0.2079	1295.0187	0.125198	-437.949539	-437.941104	-437.94016	-437.983412	30.01	
C	 0.1163025616	 1.3692131519	 0.0577047214	-0.334181
N	-0.0535684785	-0.0683974278	 0.0565429091	-0.329257
C	-1.2809942332	-0.6575373518	-0.0236679965	 0.307863
O	-2.3354543273	-0.0452731882	-0.1008840154	-0.38775
C	-1.2622737054	-2.1334711521	-0.0114081078	 0.295155
C	-2.2816672832	-3.0352201048	-0.0745612004	-0.240183
C	-1.6802445976	-4.3292816405	-0.0235041587	-0.175123
C	-0.3389378339	-4.1189946961	 0.0670224124	-0.019308
O	-0.0636782255	-2.790702645	 0.075873242	-0.197389
H	 0.7190585563	 1.701346183	-0.7952691059	 0.12544
H	-0.8769357106	 1.813979529	-0.0138824791	 0.171772
H	 0.5969126136	 1.7143288805	 0.9802541504	 0.125436
H	 0.7542399532	-0.6661197489	 0.1167812657	 0.256847
H	-3.327370867	-2.7855908659	-0.1482828775	 0.13871
H	-2.1772599091	-5.2860735057	-0.0503721141	 0.120943
H	 0.5140341366	-4.7747197377	 0.1304719445	 0.141023
72.4296	91.4047	112.8052	153.5966	214.6085	313.9996	398.9479	489.3296	492.7487	609.332	633.7674	758.0985	774.1452	806.836	837.633	891.4655	900.7174	930.4551	1024.6805	1042.637	1110.8509	1154.0266	1162.9475	1177.811	1206.0677	1246.3162	1295.3634	1414.7672	1441.258	1492.5966	1500.1633	1514.4496	1569.2205	1633.4994	1760.5528	3025.1865	3075.4034	3153.162	3257.8205	3278.6987	3286.379	3649.5456
CNC(=O)C1=CC=CO1	CNC(=O)c1ccco1	
InChI=1S/C6H7NO2/c1-7-6(8)5-3-2-4-9-5/h2-4H,1H3,(H,7,8)	InChI=1S/C6H7NO2/c1-7-6(8)5-3-2-4-9-5/h2-4H,1H3,(H,7,8)
