21
gdb 95680	2.75975	1.22966	0.95677	2.5884	78.82	-0.2331	-0.0166	0.2165	1284.0572	0.182923	-424.254726	-424.245804	-424.24486	-424.288558	33.915	
C	 0.7575088381	 1.6460336046	-0.0935004647	-0.404327
C	 0.0241448306	 0.3037713115	 0.0254207566	 0.025555
C	 0.1000418244	-0.4793011701	-1.2950415238	-0.206107
C	-0.6261005731	-1.8453041437	-1.3060783499	-0.30214
C	 0.157378332	-2.932129101	-0.592139385	 0.346935
O	 0.6737134494	-3.8577983139	-1.1740771932	-0.302049
C	 0.2879905708	-2.8322459557	 0.9331382134	-0.182473
O	-0.1974918886	-1.6484877555	 1.5134292815	-0.240924
C	 0.5607583041	-0.4814247107	 1.2289700255	-0.075183
H	 1.8269939094	 1.4976590933	-0.2845417841	 0.117864
H	 0.3548738822	 2.2422507189	-0.9180042242	 0.118753
H	 0.6616993444	 2.2362145593	 0.8237646252	 0.116347
H	-1.0360351677	 0.5030069852	 0.2355942877	 0.083834
H	-0.3392715788	 0.1392975121	-2.0856895533	 0.106021
H	 1.151404051	-0.6272520371	-1.5784740223	 0.105302
H	-1.6098426489	-1.7372487067	-0.8329817887	 0.119336
H	-0.7667905006	-2.1851896112	-2.3349979636	 0.11795
H	-0.295550708	-3.6560461419	 1.3610408364	 0.137981
H	 1.3424293114	-3.0165590438	 1.1911360325	 0.120643
H	 1.6213435289	-0.7411290367	 1.07717437	 0.089986
H	 0.5040718593	 0.1471775231	 2.125155334	 0.106693
53.8047	114.7331	197.965	218.239	262.7883	290.7703	355.8636	381.938	399.8443	475.5384	483.7216	546.2953	607.885	732.6826	803.5892	873.7864	912.3385	929.2868	950.4124	979.4764	999.8861	1036.4572	1081.1479	1104.6991	1148.4099	1158.8085	1201.1019	1238.7415	1270.4876	1281.878	1319.8207	1320.9733	1342.9439	1355.456	1369.5022	1392.8181	1405.653	1422.1145	1451.9194	1467.3907	1485.3072	1496.9769	1499.4233	1503.1681	1811.3175	2973.3382	2994.0651	3007.7664	3018.3088	3029.2361	3037.6009	3057.0865	3064.3282	3067.3454	3094.1651	3105.0832	3108.3913
CC1CCC(=O)COC1	C[C@H]1CCC(=O)COC1	
InChI=1S/C7H12O2/c1-6-2-3-7(8)5-9-4-6/h6H,2-5H2,1H3	InChI=1S/C7H12O2/c1-6-2-3-7(8)5-9-4-6/h6H,2-5H2,1H3/t6-/m0/s1
