19
gdb 115635	2.38631	1.3088	1.03261	1.414	72.92	-0.2282	0.063	0.2912	1233.1758	0.156638	-460.101176	-460.091767	-460.090823	-460.135819	34.128	
C	-0.1193689486	 1.4008897748	 0.1387173737	-0.237845
O	 0.4509400492	 0.1240371427	-0.0529860824	-0.23996
C	 0.7273246077	-0.5425196158	 1.1466341413	-0.003702
C	-0.4313461345	-1.3442964792	 1.800106673	-0.111433
O	 0.2819198157	-2.5918738291	 1.6117186373	-0.311788
C	 1.3455340507	-1.9141112256	 0.9503627007	 0.422443
C	 2.0538090987	-2.4216137692	-0.267247193	-0.392161
C	 2.7779359719	-2.2944336468	 1.0663112239	 0.005301
O	 3.6803484739	-1.2505358573	 1.286327503	-0.421773
H	 0.5354395745	 2.0500605727	 0.7400513225	 0.110794
H	-0.252830678	 1.8472307743	-0.8492785978	 0.130501
H	-1.1001242236	 1.3449316032	 0.635035452	 0.107974
H	 1.2817533545	 0.107053121	 1.8366935548	 0.090216
H	-0.6336392765	-1.1501848841	 2.8586827503	 0.105565
H	-1.3632694452	-1.3157691576	 1.2238186043	 0.107182
H	 1.819284084	-3.4223664012	-0.6145862287	 0.122637
H	 2.2602170161	-1.6864613663	-1.0383268474	 0.130894
H	 2.9917080591	-3.2260112644	 1.5913983802	 0.095651
H	 4.4557321705	-1.4048367319	 0.7362356223	 0.289505
64.0827	89.371	141.101	161.5309	203.7493	234.4029	288.5102	337.5059	421.6625	440.2199	459.007	534.1679	607.0316	794.6183	833.9612	868.888	908.739	968.1758	992.2657	1007.9877	1020.1765	1041.4746	1081.5627	1092.9729	1157.3863	1167.5436	1174.4503	1182.5089	1209.0265	1232.752	1251.8906	1293.7555	1328.8165	1349.1801	1406.0072	1416.0357	1482.0139	1487.7744	1490.1229	1508.0056	1517.506	2977.018	3019.2154	3024.0413	3029.158	3083.4726	3100.4323	3119.1563	3129.4927	3225.8553	3800.356
COC1COC11CC1O	CO[C@H]1CO[C@]21C[C@H]2O	
InChI=1S/C6H10O3/c1-8-5-3-9-6(5)2-4(6)7/h4-5,7H,2-3H2,1H3	InChI=1S/C6H10O3/c1-8-5-3-9-6(5)2-4(6)7/h4-5,7H,2-3H2,1H3/t4-,5+,6-/m1/s1
