21
gdb 59682	2.08677	1.43797	0.97804	1.2374	84.41	-0.2494	0.0379	0.2873	1284.7396	0.180156	-387.045323	-387.035308	-387.034364	-387.080459	36.855	
C	-0.150769952	 1.5288833964	-0.1211328475	-0.396912
C	 0.0069023439	 0.0114440755	 0.0468805332	 0.014284
C	 0.8580834073	-0.3385413193	 1.2750016764	-0.401227
C	-1.3641866257	-0.6425610868	 0.1460669532	 0.155309
O	-2.2275946052	-0.3280900011	-0.9712002108	-0.289462
C	-2.4909218766	-1.711445634	-1.2467790648	-0.074028
C	-1.5264210341	-2.1811478932	-0.1225008749	-0.271524
C	-0.3694704583	-2.9437103915	-0.5429325342	 0.353139
C	 0.5755351248	-3.590103739	-0.9122228922	-0.476314
H	 0.8251570387	 2.0052476854	-0.2582722082	 0.108603
H	-0.7750252013	 1.761718001	-0.9871020272	 0.135345
H	-0.6181853897	 1.9762287524	 0.7644417282	 0.108288
H	 0.4994624344	-0.3890439576	-0.8479891822	 0.084251
H	 0.390848884	 0.033983833	 2.1947374616	 0.109597
H	 0.9981463147	-1.4185233679	 1.3752956023	 0.125271
H	 1.8483310652	 0.1213982963	 1.1990634376	 0.114582
H	-1.8449139603	-0.3472944838	 1.0912841996	 0.071885
H	-3.5428503585	-1.9755645134	-1.0820376711	 0.103355
H	-2.19749528	-1.9969938323	-2.2622612101	 0.114525
H	-2.0353541087	-2.6983559402	 0.6946732385	 0.110518
H	 1.4124050075	-4.15958986	-1.2332797075	 0.200513
52.0557	94.1799	119.2735	196.9885	208.1712	214.714	234.4682	307.856	338.9539	403.5885	458.7197	507.0155	579.6179	622.1712	637.0754	760.6673	805.893	871.7315	900.986	931.5028	955.1872	980.3685	1008.4916	1034.9669	1064.5202	1111.2602	1129.4751	1167.5981	1170.0413	1197.9337	1223.8579	1275.8923	1314.614	1341.2691	1348.6985	1358.1059	1396.0627	1405.8573	1421.8458	1487.9017	1492.7013	1503.0453	1514.334	1525.9383	2231.5919	2981.9654	3019.5015	3026.4427	3028.1975	3036.7671	3068.6774	3081.2092	3090.9412	3097.4449	3113.9603	3124.5216	3502.5997
CC(C)C1OCC1C#C	CC(C)[C@H]1OC[C@H]1C#C	
InChI=1S/C8H12O/c1-4-7-5-9-8(7)6(2)3/h1,6-8H,5H2,2-3H3	InChI=1S/C8H12O/c1-4-7-5-9-8(7)6(2)3/h1,6-8H,5H2,2-3H3/t7-,8-/m1/s1
