18
gdb 89664	3.0152	1.28982	1.06092	4.4512	78.26	-0.2686	0.0003	0.2689	1175.9993	0.145755	-401.93966	-401.930666	-401.929722	-401.973102	33.398	
C	-0.0502389903	 1.5756754519	 0.0711621651	-0.41236
C	 0.0190370853	 0.0596727893	-0.0412990494	-0.03344
C	 1.1133770658	-0.5731426708	-0.9780785271	-0.326379
C	 1.6734147717	-1.3035585046	 0.249357945	 0.249449
O	 2.0187020344	-0.3013361371	 1.2195917512	-0.302404
C	 0.6470377248	-0.7079247116	 1.1468594456	 0.31744
C	-0.0083342791	-1.2148905605	 2.3880762419	-0.500585
C	 2.343196738	-2.564737372	 0.3117232515	 0.204656
N	 2.862361293	-3.5984377875	 0.3294427988	-0.342992
H	 0.9228329303	 1.9820139363	 0.3605555623	 0.137728
H	-0.3385340531	 2.0245184904	-0.8847594136	 0.12253
H	-0.788269367	 1.88530644	 0.8188327747	 0.119873
H	-0.9625648207	-0.3614121239	-0.2804869513	 0.087226
H	 0.6988698565	-1.2446393516	-1.7317642896	 0.127347
H	 1.8195722841	 0.1182328332	-1.4428591011	 0.123516
H	-0.263961809	-0.3814242218	 3.0516637098	 0.141255
H	-0.9312942184	-1.7501646077	 2.1459754798	 0.135172
H	 0.6622112737	-1.8889038619	 2.9268075764	 0.151968
106.6371	124.8539	173.977	185.8121	217.8781	246.0317	297.5054	356.8813	441.5412	478.096	553.0027	569.2841	635.063	689.7699	710.3217	801.1611	851.0091	901.5339	917.0307	1009.0043	1056.886	1082.0714	1105.2288	1120.2689	1182.4945	1199.9635	1212.8196	1230.8435	1294.3257	1353.514	1402.7271	1407.0984	1454.6838	1476.6608	1482.7285	1491.9883	1496.3409	1502.6368	2352.6578	3035.907	3039.4272	3060.6756	3076.8974	3100.0086	3105.0141	3120.0954	3129.7584	3138.9906
CC1CC2(OC12C)C#N	C[C@H]1C[C@]2(O[C@@]12C)C#N	
InChI=1S/C7H9NO/c1-5-3-7(4-8)6(5,2)9-7/h5H,3H2,1-2H3	InChI=1S/C7H9NO/c1-5-3-7(4-8)6(5,2)9-7/h5H,3H2,1-2H3/t5-,6-,7-/m0/s1
