18
gdb 93709	3.4307	1.11956	1.07861	2.3827	72.59	-0.266	0.0144	0.2804	1186.9979	0.146895	-439.102998	-439.094005	-439.093061	-439.137122	33.263	
C	 0.8434512238	 1.5553994812	-0.2171869887	-0.397464
C	 0.1258614011	 0.2492332634	 0.0877023923	 0.131399
C	 0.08842723	-0.7573311295	-1.0947997712	-0.280673
C	 1.058636773	-1.8683412324	-0.6527788422	 0.231373
O	 2.3528246971	-1.4793169161	-1.0809149685	-0.450612
C	 0.9016448211	-1.7883322891	 0.8828968639	-0.111344
O	 0.8268051751	-0.4125766177	 1.1550565193	-0.261938
C	 0.7162276308	-3.2017555038	-1.1791718624	 0.231296
N	 0.4765327558	-4.2631161773	-1.5688070313	-0.334006
H	 1.8504307409	 1.3507377773	-0.5904927827	 0.137283
H	 0.2941355285	 2.1280885073	-0.9711910305	 0.115751
H	 0.9211197401	 2.1638229848	 0.6879899136	 0.128431
H	-0.8999607458	 0.4577496459	 0.4225395505	 0.07836
H	-0.9125676687	-1.1680594732	-1.2398675123	 0.127655
H	 0.4266350643	-0.3241126838	-2.0373118736	 0.138521
H	 3.0009919724	-2.0807256603	-0.6964541908	 0.293163
H	-0.0049257064	-2.3326728694	 1.1941419871	 0.106571
H	 1.7602774669	-2.2093521374	 1.4155850375	 0.116234
36.6347	135.0583	150.5112	207.6271	258.3749	308.8395	342.6564	385.6092	396.3316	419.2356	513.0325	556.7486	596.9697	690.871	812.3629	818.1522	893.8043	903.3354	963.5009	1019.3487	1049.4103	1078.8935	1095.5372	1133.3721	1143.7112	1177.1652	1223.9817	1276.4151	1306.4127	1336.1077	1359.2331	1386.2101	1397.0263	1410.7663	1479.4448	1487.7744	1499.3956	1507.1354	2352.8112	2975.2949	2998.7835	3043.3834	3079.1802	3084.8545	3117.1957	3129.7536	3138.8113	3802.2503
CC1CC(O)(CO1)C#N	C[C@H]1C[C@@](O)(CO1)C#N	
InChI=1S/C6H9NO2/c1-5-2-6(8,3-7)4-9-5/h5,8H,2,4H2,1H3	InChI=1S/C6H9NO2/c1-5-2-6(8,3-7)4-9-5/h5,8H,2,4H2,1H3/t5-,6-/m0/s1
