14
gdb 9456	2.92514	1.80263	1.69106	2.438	65.57	-0.2419	0.0115	0.2534	849.5562	0.105695	-378.666226	-378.658194	-378.65725	-378.698386	29.606	
O	 0.1624607052	 1.4267123541	 0.0824872648	-0.448988
C	 0.0566344605	 0.0211618218	 0.0505871852	 0.143854
C	-1.4307181502	-0.4428702345	-0.104977625	-0.197763
N	-1.0298111734	-1.090227334	-1.3665390857	-0.329213
C	 0.2465377485	-0.5579708738	-1.3729604527	 0.331641
N	 1.224767541	-0.4393531531	-2.1611724437	-0.553944
C	 0.8197732673	-0.6338946537	 1.1046134046	 0.329082
C	 1.4578991565	-1.1672575639	 1.9719416164	-0.488017
H	 1.0193200954	 1.6450550889	-0.3062667361	 0.298837
H	-1.805516502	-1.13196774	 0.6542645621	 0.124734
H	-2.0969348646	 0.4167343832	-0.2198521207	 0.127685
H	-1.6149108073	-1.2812136256	-2.166963	 0.245211
H	 1.0378835415	-0.8331574991	-3.0843432971	 0.214684
H	 2.0286540916	-1.6362594804	 2.735136128	 0.202197
104.1126	131.8876	183.0963	195.0246	303.9679	359.1058	403.715	437.4186	529.3371	585.0967	632.3081	651.2356	669.5411	714.8294	787.063	827.6577	935.1213	954.5706	1010.2471	1053.9939	1142.7514	1173.7	1212.6866	1238.5595	1326.5399	1357.7759	1385.9308	1511.0761	1805.4676	2236.1024	3057.9108	3122.647	3468.3862	3501.1756	3602.5102	3782.0235
OC1(CNC1=N)C#C	O[C@]1(CN[C]1[NH])C#C	
InChI=1S/C5H6N2O/c1-2-5(8)3-7-4(5)6/h1,8H,3H2,(H2,6,7)	InChI=1S/C5H6N2O/c1-2-5(8)3-7-4(5)6/h1,8H,3H2,(H2,6,7)/t5-/m0/s1
