19
gdb 127433	3.20449	1.14871	0.90133	1.2791	80.46	-0.2301	0.0142	0.2443	1321.2507	0.159528	-419.23413	-419.224592	-419.223648	-419.26874	34.092	
C	-0.4657636971	 1.1852155675	 0.2727865714	-0.339457
N	-0.1455196349	-0.2262174039	 0.1963353973	-0.009851
N	-0.2553930075	-0.8743179561	-0.9823816382	-0.323661
C	 0.1470057344	-2.1228316668	-0.7429257145	 0.359797
C	 0.1512803316	-3.1430456246	-1.8378720374	-0.490271
C	 0.5186334672	-2.2751667739	 0.6115422664	-0.400533
C	 0.3234482483	-1.0336052564	 1.1876668927	 0.343535
C	 0.5283396426	-0.5718027331	 2.5955611746	-0.185905
O	-0.6651846555	-0.0926423813	 3.2153379649	-0.407197
H	 0.4172380248	 1.8053765114	 0.0796297229	 0.133854
H	-1.2183354159	 1.4022361713	-0.4857781041	 0.153123
H	-0.8594148349	 1.4085370937	 1.2653246748	 0.160817
H	 1.1572717255	-3.5407773216	-2.0119106477	 0.126254
H	-0.4958093519	-3.994103057	-1.5979652499	 0.124951
H	-0.2048774852	-2.6918055005	-2.7663734702	 0.138213
H	 0.8769733705	-3.1641469278	 1.1074170196	 0.096913
H	 0.9752545093	-1.3958769857	 3.1683388664	 0.110111
H	 1.227926256	 0.2703259932	 2.6421082158	 0.122945
H	-1.3300878372	-0.7844855282	 3.1276296352	 0.286361
82.0984	94.562	135.9636	148.1264	182.7937	239.4943	270.6914	288.1516	371.4337	416.1632	479.4641	608.1739	646.544	687.0109	737.8239	794.8819	807.3015	962.9414	991.0316	1028.5223	1042.1892	1064.9698	1077.6238	1153.3605	1165.6723	1186.1691	1229.7107	1322.9238	1355.3245	1401.5815	1414.6164	1416.933	1448.4128	1479.0515	1484.7819	1485.963	1498.8109	1500.5391	1504.0017	1525.4171	1592.8042	3013.2114	3033.3643	3035.6753	3064.0118	3083.472	3119.9856	3130.8863	3163.7483	3250.3222	3805.8028
CN1N=C(C)C=C1CO	Cn1nc(C)cc1CO	
InChI=1S/C6H10N2O/c1-5-3-6(4-9)8(2)7-5/h3,9H,4H2,1-2H3	InChI=1S/C6H10N2O/c1-5-3-6(4-9)8(2)7-5/h3,9H,4H2,1-2H3
