17
gdb 56239	3.76277	0.91793	0.78534	9.4195	67.64	-0.2368	0.0031	0.24	1407.9144	0.134761	-492.315118	-492.305756	-492.304812	-492.350075	33.623	
N	 0.1214144443	 1.0276136742	-0.0929350333	-0.53277
C	-0.1396017841	-0.3122735247	-0.1820139467	 0.358211
N	 0.5908853457	-1.1968417051	-0.7466983021	-0.51286
H	 0.0720264166	-2.8341594341	-1.004813987	 0.343003
H	 1.4564628764	-0.8228746962	-1.1327480681	 0.218788
C	-1.4728012592	-0.726454002	 0.4388860667	-0.134048
O	-1.7415299359	-2.0884216518	 0.3318410664	-0.227013
C	-2.3142092355	-2.5390500655	-0.8905863859	-0.215455
C	-1.5611284187	-3.7544385622	-1.4566554995	 0.383382
O	-0.2406076639	-3.7171061264	-1.3547729783	-0.371698
O	-2.1615152157	-4.6588691908	-1.9809887794	-0.340348
H	 1.0491814101	 1.3610486164	-0.3004626859	 0.262805
H	-0.4048335956	 1.5905003137	 0.5558710316	 0.265315
H	-1.4363921863	-0.4907654889	 1.5109021807	 0.132537
H	-2.2701234557	-0.104856374	 0.0002177385	 0.118593
H	-3.3514286209	-2.8444549007	-0.7240694061	 0.133198
H	-2.3017994416	-1.7465829818	-1.6514262915	 0.11836
52.0224	79.7953	106.44	163.1963	242.3389	304.98	325.9421	345.3972	412.6066	446.7803	479.9099	539.793	591.1019	622.2251	695.215	840.4658	850.2936	886.1697	902.3814	984.9664	1009.1727	1065.8729	1092.0804	1155.451	1186.4135	1258.6463	1299.428	1323.5061	1360.2162	1380.0663	1441.8298	1473.283	1484.0176	1489.5245	1648.1092	1733.2163	1852.0621	2979.7175	3016.0282	3042.7381	3090.8019	3118.1684	3488.5913	3589.5342	3702.5609
NC(=[NH2+])COCC([O-])=O	NC(=N)COCC(=O)O	
InChI=1S/C4H8N2O3/c5-3(6)1-9-2-4(7)8/h1-2H2,(H3,5,6)(H,7,8)	InChI=1S/C4H8N2O3/c5-3(6)1-9-2-4(7)8/h1-2H2,(H3,5,6)(H,7,8)
