22
gdb 87682	3.38962	1.04623	0.9604	1.4854	83.45	-0.2231	0.0716	0.2948	1343.1562	0.191863	-404.310693	-404.301012	-404.300068	-404.344714	37.489	
C	 0.2808900977	 1.3634338563	-0.4684642883	-0.31591
N	 0.3049810956	-0.054364009	-0.1377597634	-0.134008
C	 1.5923053575	-0.6115297908	 0.2852708957	-0.322272
C	 0.4816061446	-0.4171573183	 1.2530312247	 0.397708
C	 0.5056064431	 0.4859877656	 2.4962026523	-0.348888
C	 0.0341815401	-0.7371338428	 3.3305521281	 0.422005
C	 1.149324048	-1.4139262794	 4.1202523392	-0.448201
O	-1.0506935428	-0.3853883785	 4.1694004923	-0.479668
C	-0.3310997989	-1.4769508962	 1.9988250745	-0.366377
H	 0.961607009	 1.9770051574	 0.144071402	 0.101025
H	 0.5599265977	 1.490449801	-1.5192579948	 0.121757
H	-0.7356692382	 1.7491909468	-0.3392421308	 0.122921
H	 1.8308755346	-1.5992414049	-0.1029589079	 0.110518
H	 2.442575378	 0.0671964937	 0.3592860477	 0.101781
H	 1.4499049996	 0.9523287892	 2.7877151778	 0.098726
H	-0.2815673148	 1.2452062456	 2.4736488888	 0.115311
H	 1.4835731637	-0.7675096585	 4.9377779907	 0.122967
H	 0.8009597143	-2.3617964765	 4.5500523133	 0.105179
H	 2.0079227219	-1.6393651709	 3.4799789727	 0.12237
H	-1.3199372237	-1.1722016853	 4.6560686891	 0.272907
H	-1.4005057875	-1.3889215836	 1.7882236407	 0.107707
H	-0.0201625893	-2.5205222309	 1.8971705954	 0.092443
61.2201	153.4496	195.1129	200.9826	262.8065	268.379	306.31	327.5416	357.2884	384.16	433.5919	449.5215	488.8678	547.7666	706.6688	748.0971	851.7372	864.9696	879.4062	911.7777	942.2849	955.3031	970.8619	1040.9802	1056.084	1093.6065	1112.571	1124.6997	1143.8358	1177.0198	1182.1553	1209.2161	1217.3696	1225.6779	1269.3991	1288.7241	1374.3086	1404.8876	1417.3306	1450.3087	1461.2321	1483.676	1491.1379	1492.6778	1495.4306	1497.9576	1514.0289	2969.7346	3020.0921	3050.3486	3056.9462	3065.9437	3077.1029	3087.7297	3100.673	3109.7493	3111.447	3113.0938	3164.064	3798.7149
CN1CC11CC(C)(O)C1	CN1C[C@]21C[C@@](C)(O)C2	
InChI=1S/C7H13NO/c1-6(9)3-7(4-6)5-8(7)2/h9H,3-5H2,1-2H3	InChI=1S/C7H13NO/c1-6(9)3-7(4-6)5-8(7)2/h9H,3-5H2,1-2H3/t6-,7+,8?
