19
gdb 41760	2.48757	1.838	1.38782	1.4747	82.13	-0.2211	-0.0251	0.196	994.6986	0.162069	-385.881534	-385.87417	-385.873226	-385.913331	29.216	
C	 0.3985298118	 1.5975748985	 0.2661443075	-0.077548
O	 1.4334086225	 1.470636708	-0.7249888285	-0.290096
C	 1.1811376649	 0.05711227	-0.8820233512	 0.134783
C	 2.3719507607	-0.8140405196	-0.4912714742	-0.284077
C	 2.9612842873	-0.5249489811	 0.863876818	-0.061636
C	 2.3090105018	-0.668434624	 2.0256781118	-0.077102
C	 0.9076220747	-1.0514676507	 2.1659856153	-0.085777
C	-0.0934363038	-0.7635662749	 1.3171707605	-0.093825
C	-0.028256266	 0.1079200873	 0.1001193028	-0.107794
H	 0.8047728829	 1.8432720175	 1.2536150741	 0.108918
H	-0.3563167838	 2.340757747	-0.0170243262	 0.099104
H	 0.8928996907	-0.1700585772	-1.9183952984	 0.07192
H	 2.0228224858	-1.8573296703	-0.5320014833	 0.113599
H	 3.1434386352	-0.7073905105	-1.260946112	 0.107893
H	 4.0041959209	-0.2223687728	 0.8888843737	 0.094255
H	 2.8589529272	-0.5195974767	 2.9529383156	 0.087634
H	 0.6570707207	-1.6085751334	 3.0673472655	 0.090031
H	-1.0830240162	-1.1378073118	 1.5688313212	 0.089496
H	-0.9714529273	 0.0314264148	-0.4445057223	 0.080223
101.29	136.4873	241.5367	287.6186	374.5849	399.711	440.7358	589.6109	665.1712	714.0716	740.8679	783.6224	827.2438	848.1085	890.548	905.5967	932.0575	977.2373	1000.401	1003.788	1012.3552	1041.6323	1061.2798	1086.0721	1135.0645	1164.5777	1208.9399	1237.1533	1249.5612	1266.7295	1298.8039	1322.8354	1357.9502	1377.5416	1387.1481	1422.2409	1455.0416	1466.9982	1518.7734	1670.8645	1703.0475	2989.8998	3003.5934	3019.6484	3065.4399	3071.9002	3084.6858	3128.353	3141.5441	3157.5853	3172.7269
C1OC2CC=CC=CC12	C1O[C@H]2CC=CC=C[C@@H]12	
InChI=1S/C8H10O/c1-2-4-7-6-9-8(7)5-3-1/h1-4,7-8H,5-6H2	InChI=1S/C8H10O/c1-2-4-7-6-9-8(7)5-3-1/h1-4,7-8H,5-6H2/t7-,8-/m0/s1
