21
gdb 58443	2.33678	1.63453	1.2017	2.3793	78.07	-0.2374	0.0668	0.3042	1121.8357	0.181626	-424.177926	-424.168919	-424.167975	-424.211276	35.227	
C	-0.0395138637	 1.5533990794	 0.3708927164	-0.39983
C	 0.0037374003	 0.086064576	-0.0819032689	 0.054068
O	 1.0061182686	-0.607816191	 0.6455576252	-0.439745
C	-1.3834353955	-0.5745692144	-0.0270919603	 0.279424
C	-2.4262343092	 0.1282501	-0.8904855346	-0.459882
C	-1.6604491058	-2.0764423378	 0.0353774097	-0.178792
C	-0.7585476483	-2.8185832375	 1.0132719043	-0.115619
O	-1.0019301485	-1.8181424768	 2.0540198663	-0.311726
C	-1.9784257862	-1.1718761182	 1.2136303846	 0.040095
H	 0.9812063239	 1.9431128367	 0.3926813096	 0.124472
H	-0.6328846575	 2.1830542588	-0.2980570094	 0.111385
H	-0.4590805042	 1.6348567465	 1.3803846787	 0.113439
H	 0.3382824924	 0.0550941955	-1.1284467927	 0.08202
H	 0.6329288778	-0.7971969505	 1.5177725361	 0.289396
H	-2.0989597813	 0.1692623181	-1.9354635568	 0.124385
H	-3.3827613454	-0.4031624659	-0.8652068663	 0.117691
H	-2.6103762013	 1.1519419742	-0.5536972381	 0.126897
H	-2.3279096854	-2.5548060218	-0.6697831921	 0.096212
H	-1.1833981606	-3.7785310048	 1.3268694075	 0.109669
H	 0.3007897346	-2.9204247117	 0.7751395236	 0.132795
H	-2.9077985746	-0.8686005047	 1.6852151471	 0.103647
60.1233	185.536	203.13	235.1449	250.0301	295.2115	316.9751	364.1025	385.9308	430.7678	515.9684	565.376	589.1048	696.7146	767.0055	818.6015	861.794	897.5114	936.3511	951.4153	989.792	1000.9077	1027.4622	1039.3146	1069.0579	1080.1694	1096.4031	1118.3716	1138.0806	1164.2419	1178.9565	1250.2772	1280.8328	1331.1988	1341.1066	1350.7042	1397.9649	1406.97	1421.0335	1456.1333	1491.1597	1492.7366	1496.6078	1504.1887	1510.1508	3007.1181	3032.4067	3034.6624	3041.741	3096.5287	3103.6266	3111.9107	3125.0456	3126.5549	3160.234	3193.4904	3730.5549
CC(O)C1(C)C2COC12	C[C@@H](O)[C@@]1(C)[C@H]2CO[C@@H]12	
InChI=1S/C7H12O2/c1-4(8)7(2)5-3-9-6(5)7/h4-6,8H,3H2,1-2H3	InChI=1S/C7H12O2/c1-4(8)7(2)5-3-9-6(5)7/h4-6,8H,3H2,1-2H3/t4-,5+,6-,7+/m1/s1
