15
gdb 25757	2.81314	1.58593	1.01605	1.4642	72.14	-0.1969	0.009	0.2059	1091.1829	0.114873	-450.17696	-450.169009	-450.168065	-450.209203	30.66	
N	-0.0799733841	 1.343747389	 0.1021083552	-0.557335
C	 0.049867423	-0.0238476646	 0.041700401	 0.263969
N	 1.1483538236	-0.7030420609	-0.0032870573	-0.581491
C	-1.2096657586	-0.7523304506	 0.066429391	 0.211052
C	-1.3596081238	-2.1157176782	 0.0776426765	 0.325689
N	-0.4582741914	-3.1255588134	 0.1709181083	-0.593326
O	-2.6863949858	-2.3953130814	 0.0536668538	-0.179804
C	-3.2956435763	-1.1613845912	 0.029052121	 0.037251
N	-2.4778161857	-0.1707411618	 0.0397863946	-0.330624
H	 0.6992778493	 1.9069461895	-0.1960477518	 0.245673
H	-0.9996708851	 1.7157743985	-0.0809585083	 0.268013
H	 1.9674566533	-0.096686117	-0.0175648437	 0.197549
H	 0.4851814788	-2.7726088906	 0.0180390171	 0.28506
H	-0.6998950306	-3.9956621074	-0.279067322	 0.258786
H	-4.3723715366	-1.1627204	-0.0018343453	 0.149537
103.3228	191.5139	194.8751	296.6942	326.7309	371.2942	391.0444	439.6279	489.4734	540.6317	634.0108	652.0693	659.6121	696.5228	756.8699	760.0201	793.2542	801.5641	944.0963	1029.7526	1081.8262	1098.452	1141.7663	1209.564	1273.7876	1296.596	1428.4473	1500.4271	1567.2945	1578.992	1629.5591	1681.576	1700.8101	3289.9015	3458.7613	3480.2816	3580.5062	3647.5056	3704.3775
NC(=N)C1=C(N)OC=N1	NC(=N)c1c(N)ocn1	
InChI=1S/C4H6N4O/c5-3(6)2-4(7)9-1-8-2/h1H,7H2,(H3,5,6)	InChI=1S/C4H6N4O/c5-3(6)2-4(7)9-1-8-2/h1H,7H2,(H3,5,6)
