17
gdb 78444	3.18155	1.43888	1.25659	2.6773	71.76	-0.2342	-0.0049	0.2293	1022.9851	0.13676	-421.792689	-421.785541	-421.784597	-421.823987	29.055	
O	-0.0586442123	 1.3472614016	-0.0631423193	-0.437748
C	 0.0329031401	-0.043847452	-0.0310206793	 0.054158
C	-0.3997057443	-0.7422214201	 1.2458095045	-0.097444
C	-1.2965573823	-0.7431014312	 0.0056363601	-0.053032
C	-1.3477583067	-2.2446616136	-0.3173836249	-0.16412
C	-1.5455167447	-2.8512542021	 1.1274936737	-0.239219
C	-0.1121566858	-2.2441532877	 1.3985380033	-0.162614
C	 0.1075416462	-2.6813867535	-0.0629342903	 0.42401
O	 0.9342417927	-3.3068055362	-0.6571995591	-0.334999
H	 0.7005441749	 1.7071243157	 0.4079488444	 0.28996
H	 0.8450370368	-0.4690060228	-0.6230449399	 0.109138
H	-0.6315306741	-0.1386099008	 2.1154439838	 0.098532
H	-2.194191553	-0.1401062896	-0.0547318012	 0.107127
H	-1.9127744256	-2.5821958266	-1.1833976211	 0.088313
H	-2.3590393038	-2.4204098074	 1.7139650643	 0.113346
H	-1.5734001157	-3.9432144085	 1.1466548098	 0.118841
H	 0.5303691875	-2.5837256053	 2.2080743712	 0.085751
136.7193	240.8795	270.0516	297.5514	344.9554	444.443	457.4233	477.7426	622.4198	651.6158	775.0636	802.8593	834.7104	851.9078	866.9748	886.3834	970.1706	977.3869	994.1944	1006.3818	1050.0095	1066.4891	1086.9659	1092.3097	1112.4069	1146.9693	1167.9139	1194.8015	1199.6971	1239.3784	1251.6242	1278.9524	1304.6066	1323.5029	1454.1928	1489.7436	1895.373	3068.3326	3086.8091	3138.8286	3146.2908	3149.4226	3179.6611	3192.1925	3804.3745
OC1C2C1C1CC2C1=O	O[C@H]1[C@H]2[C@@H]1[C@@H]1C[C@H]2C1=O	
InChI=1S/C7H8O2/c8-6-2-1-3(6)5-4(2)7(5)9/h2-5,7,9H,1H2	InChI=1S/C7H8O2/c8-6-2-1-3(6)5-4(2)7(5)9/h2-5,7,9H,1H2/t2-,3+,4-,5+,7+
