18
gdb 28439	3.10404	1.30919	0.92694	1.2427	85.12	-0.186	0.0148	0.2007	1244.093	0.148453	-402.024743	-402.015898	-402.014954	-402.058658	33.863	
C	-0.0663872583	 1.5224430297	 0.0007156268	-0.49303
C	 0.0005531392	 0.014067525	-0.0085088852	 0.323576
C	 0.012957544	-0.7019053367	-1.2023629469	-0.220899
C	 0.076487856	-2.0971656533	-1.1883180297	-0.231818
C	 0.1301123564	-2.7869197602	 0.0115779003	 0.314025
O	 0.1832643415	-4.1569881267	 0.1016392026	-0.464693
C	 0.122807111	-2.0882696681	 1.2341814235	 0.253239
N	 0.2356655323	-2.8032438982	 2.4280742979	-0.595179
C	 0.0547136128	-0.6966113358	 1.1960529096	-0.278175
H	 0.8249323067	 1.9630615319	 0.4629359211	 0.126216
H	-0.1440866534	 1.9212800287	-1.0143422267	 0.118244
H	-0.9316689005	 1.8848082526	 0.5679604313	 0.12325
H	-0.028519198	-0.1776313239	-2.151281602	 0.082136
H	 0.080124199	-2.6531584541	-2.1230069557	 0.076816
H	 0.1492223787	-4.5298069019	-0.7844083067	 0.295228
H	-0.0490476808	-3.7688578105	 2.3467923274	 0.256437
H	-0.1822737214	-2.3499131065	 3.2274127545	 0.242522
H	 0.047890495	-0.1534967021	 2.1382404578	 0.072105
27.3296	146.6485	214.2055	285.7422	298.1541	319.648	325.1029	368.7047	446.4671	453.5741	503.1718	579.8331	597.9537	645.2614	733.0129	742.9451	788.7646	800.3126	872.8219	880.2593	961.0555	1017.1727	1059.7387	1103.8741	1154.4337	1174.6155	1201.9237	1282.403	1326.095	1339.7035	1385.872	1412.6033	1469.6036	1484.4112	1504.4023	1558.0815	1633.9467	1648.8322	1662.0299	3024.4316	3074.2243	3109.2137	3148.7245	3151.0745	3182.9941	3561.7136	3664.8279	3835.3924
CC1=CC=C(O)C(N)=C1	Cc1ccc(O)c(N)c1	
InChI=1S/C7H9NO/c1-5-2-3-7(9)6(8)4-5/h2-4,9H,8H2,1H3	InChI=1S/C7H9NO/c1-5-2-3-7(9)6(8)4-5/h2-4,9H,8H2,1H3
