19
gdb 108839	2.92794	1.38156	1.05685	1.1704	76.62	-0.2361	0.0331	0.2692	1184.6435	0.16014	-419.197666	-419.189159	-419.188215	-419.230731	31.817	
C	-0.0229086737	 1.3400772728	 0.0424416669	-0.231922
O	-0.0504108247	-0.0852117688	-0.0741350317	-0.24238
C	 0.6020480561	-0.5815608043	-1.1187464431	 0.440797
N	 1.2402683702	 0.087518607	-1.9981039435	-0.356967
C	 1.7836194331	-0.881421027	-2.9651839212	 0.02847
C	 3.2672568842	-0.6475061836	-3.2490057049	-0.385691
C	 1.4272260722	-2.2547505484	-2.3708198777	-0.039358
C	 1.8905607525	-2.5817488241	-1.0022690812	-0.255177
N	 0.5333848955	-2.0058574461	-1.2163089682	-0.165911
H	 1.0051405031	 1.6981440575	 0.1467633004	 0.137496
H	-0.4660865791	 1.8056307235	-0.8420766629	 0.141139
H	-0.6046296171	 1.5757833205	 0.9339334517	 0.131788
H	 1.2352438819	-0.7642035334	-3.9105947783	 0.086367
H	 3.8646784471	-0.7536016546	-2.3386853306	 0.114186
H	 3.6372452543	-1.3640783853	-3.9896429206	 0.112348
H	 3.4214757058	 0.3621459642	-3.6388417077	 0.128427
H	 1.1306048415	-3.0590981246	-3.0359412167	 0.100506
H	 1.8874374349	-3.6125416813	-0.6630160106	 0.126351
H	 2.6311957121	-1.9416975541	-0.5317241901	 0.12953
114.5023	138.9236	172.0359	202.6827	218.8699	248.3026	309.9073	407.1154	483.0387	516.3103	670.9927	692.1298	764.1827	786.1157	829.3492	868.6121	949.9378	956.9703	1007.6295	1053.8282	1067.7486	1085.3975	1112.6731	1133.8139	1142.8975	1168.6512	1182.2143	1217.4071	1251.251	1314.282	1347.53	1368.3622	1377.72	1407.8336	1475.6765	1477.8503	1487.3054	1495.1491	1498.1937	1503.6314	1701.3518	2999.529	3039.2276	3046.0355	3109.787	3118.9039	3119.6852	3121.0703	3155.0728	3163.9975	3211.4472
COC1=NC(C)C2CN12	COC1=N[C@@H](C)[C@H]2CN12	
InChI=1S/C6H10N2O/c1-4-5-3-8(5)6(7-4)9-2/h4-5H,3H2,1-2H3	InChI=1S/C6H10N2O/c1-4-5-3-8(5)6(7-4)9-2/h4-5H,3H2,1-2H3/t4-,5+,8?/m0/s1
