18
gdb 111270	3.1364	1.2745	1.00783	3.1755	73.89	-0.2202	-0.0222	0.198	1212.8367	0.145387	-439.04018	-439.030913	-439.029969	-439.074502	33.138	
C	 0.1293311031	 1.3113068278	-0.156763868	-0.244673
O	-0.3114506859	 0.011448879	 0.196012073	-0.241763
C	 0.4929867847	-0.5943039289	 1.1548881599	 0.056249
C	 0.1274633699	-2.0217656552	 1.5507130423	-0.169997
N	 0.3559488565	-2.8609024621	 0.3666831362	-0.347821
C	 1.5200639763	-2.539404688	 1.2679578125	 0.19835
C	 2.3620572697	-3.5943721351	 1.9112907348	-0.511867
C	 1.9248212176	-1.153662249	 0.8065227813	 0.368648
O	 2.9590016078	-0.6478131122	 0.4784471492	-0.316684
H	 1.1394233932	 1.295864854	-0.5841011906	 0.137419
H	-0.5729226815	 1.6931976214	-0.9006345219	 0.129694
H	 0.1290515219	 1.9846713362	 0.7149973659	 0.103893
H	 0.6106432566	 0.0437610657	 2.0507879831	 0.084481
H	-0.5390295144	-2.3240591097	 2.3482844841	 0.109086
H	 0.0785980723	-3.8131538102	 0.610639408	 0.234934
H	 1.7409320813	-4.3791146565	 2.3562659243	 0.123108
H	 3.0255868216	-4.0626682851	 1.1767976742	 0.147435
H	 2.9883811793	-3.1664484221	 2.7001453116	 0.139509
70.9806	101.2753	154.6321	165.7086	184.8484	229.8527	265.1314	322.205	361.5925	490.5427	533.1339	616.1606	662.7775	758.2814	810.5351	837.6205	948.7557	956.7678	971.4238	1044.9282	1047.1347	1049.9649	1104.2428	1115.0186	1175.88	1184.436	1220.3592	1239.865	1289.7703	1334.1757	1388.2687	1405.4603	1434.7803	1478.9036	1482.0603	1488.7333	1495.0146	1511.5149	1886.9486	2937.4841	2981.9188	3032.582	3057.2244	3100.0276	3105.6937	3126.3805	3203.572	3453.0196
COC1C2NC2(C)C1=O	CO[C@H]1[C@H]2N[C@@]2(C)C1=O	
InChI=1S/C6H9NO2/c1-6-4(7-6)3(9-2)5(6)8/h3-4,7H,1-2H3	InChI=1S/C6H9NO2/c1-6-4(7-6)3(9-2)5(6)8/h3-4,7H,1-2H3/t3-,4+,6+/m0/s1
