16
gdb 27639	3.14366	1.21366	0.88212	6.2921	81.62	-0.1973	0.0108	0.2081	1266.0436	0.125806	-396.995712	-396.986904	-396.98596	-397.029082	32.318	
C	-0.0333028547	 1.5028814311	 0.0693524562	-0.504036
C	 0.0068778132	 0.0169511608	-0.0450573153	 0.328046
C	-0.0203877403	-0.8088552163	-1.1316699544	-0.349734
C	 0.0272036052	-2.1671950527	-0.6578059292	 0.136113
C	-0.008640669	-3.366091706	-1.3985502248	 0.175177
N	-0.0394161523	-4.3731474873	-1.975515496	-0.375464
C	 0.0962006765	-2.1122817223	 0.7288998814	 0.24463
N	 0.2455603128	-3.1226212172	 1.6723945875	-0.613721
N	 0.0795303997	-0.7967941615	 1.0844985944	-0.346524
H	 0.8605121335	 1.9061423488	 0.5622170628	 0.129734
H	-0.0889093651	 1.9472900139	-0.9266153177	 0.145135
H	-0.9051176985	 1.8507479416	 0.6377388399	 0.129973
H	-0.0852523164	-0.5027989217	-2.163622859	 0.113009
H	 0.2524145771	-4.035986523	 1.2345146759	 0.271679
H	-0.4532138483	-3.1059067969	 2.4068813991	 0.253403
H	 0.2097265165	-0.4670329815	 2.0261851692	 0.262581
117.8168	127.2359	141.4682	208.488	219.7709	263.5171	310.6185	407.415	473.8824	515.1493	532.0442	591.4534	634.5876	649.7903	693.8908	764.2969	803.4565	813.7082	990.0131	1018.8464	1064.7807	1109.7686	1169.45	1198.23	1260.7583	1351.9505	1396.7326	1420.7653	1478.2136	1494.2815	1524.4901	1586.5582	1638.6836	1664.1292	2323.8949	3015.9616	3059.6824	3127.1213	3263.4533	3518.0157	3611.3285	3666.5851
CC1=CC(C#N)=C(N)N1	Cc1cc(C#N)c(N)[nH]1	
InChI=1S/C6H7N3/c1-4-2-5(3-7)6(8)9-4/h2,9H,8H2,1H3	InChI=1S/C6H7N3/c1-4-2-5(3-7)6(8)9-4/h2,9H,8H2,1H3
