23
gdb 94565	2.89249	1.13775	0.89219	2.0401	84.88	-0.2409	0.0738	0.3148	1368.3526	0.206352	-388.258731	-388.24947	-388.248526	-388.293576	34.421	
C	-0.727518827	 1.2118333414	-0.0461387409	-0.414335
C	 0.077926288	-0.0795637004	-0.0764790201	 0.04263
C	 1.5069379488	-0.0710984629	-0.6870908509	-0.224266
C	 1.9487988266	-1.0724025127	 0.4125972217	-0.234355
C	 0.6829845009	-0.6862688838	 1.2383724612	-0.022575
C	 0.9700498625	 0.3006277865	 2.357285213	-0.017214
C	-0.1998880773	 0.7045577637	 3.2860773831	-0.091161
O	 0.47452004	 0.1805367216	 4.4471082426	-0.273623
C	 1.5874776916	-0.2781756074	 3.6535919308	-0.091002
H	-0.1719502605	 2.0277955378	 0.4280103088	 0.11304
H	-0.9754471036	 1.5352835479	-1.0633828793	 0.113808
H	-1.6705547765	 1.0873553772	 0.4979401374	 0.11596
H	-0.5152148268	-0.8587829791	-0.5686979739	 0.072024
H	 1.6127130583	-0.3812446211	-1.7296276015	 0.09474
H	 1.9900322018	 0.9045721095	-0.5711264855	 0.098123
H	 1.9115202044	-2.1083969796	 0.0658078702	 0.10026
H	 2.919606663	-0.9033775477	 0.8870881686	 0.094902
H	 0.1196659037	-1.5300995645	 1.6527946962	 0.062738
H	 1.5273986762	 1.1631946521	 1.981120535	 0.074208
H	-0.4028438676	 1.7786586075	 3.3779937595	 0.098146
H	-1.1466019517	 0.1819244342	 3.0919091181	 0.094896
H	 1.6823461797	-1.3728282995	 3.6721994365	 0.096008
H	 2.5356488753	 0.1639980493	 3.9833658694	 0.097049
53.355	82.5723	109.0151	150.5286	223.9641	236.9566	313.4187	340.7653	391.4451	517.1106	639.3664	746.7567	757.5344	851.4993	887.0254	892.1347	902.1258	928.6718	943.1162	968.0044	994.3836	1008.6843	1035.8667	1042.6126	1078.9294	1099.8673	1131.3396	1158.5727	1160.1159	1166.0664	1199.0366	1235.4695	1256.0222	1264.3598	1268.4028	1279.662	1285.6392	1310.3171	1313.0052	1372.9984	1379.6394	1411.1709	1414.4883	1481.5025	1494.5819	1500.3004	1500.9294	1512.5581	1538.293	2995.7109	3006.5815	3025.9082	3026.3219	3039.1196	3040.5258	3044.5007	3048.6072	3056.1389	3071.8215	3089.0106	3093.5287	3098.4499	3111.63
CC1CCC1C1COC1	C[C@H]1CC[C@H]1C1COC1	
InChI=1S/C8H14O/c1-6-2-3-8(6)7-4-9-5-7/h6-8H,2-5H2,1H3	InChI=1S/C8H14O/c1-6-2-3-8(6)7-4-9-5-7/h6-8H,2-5H2,1H3/t6-,8+/m0/s1
