17
gdb 39944	3.00972	1.6103	1.22702	1.137	74.5	-0.2465	0.003	0.2495	1021.5869	0.136807	-421.79891	-421.791735	-421.790791	-421.830547	28.434	
C	-0.2937341984	 1.4337855257	 0.0046476174	-0.233315
O	 1.0591835406	 0.9950101476	-0.0741090519	-0.287978
C	 0.0205648246	-0.0069261687	 0.0342735988	 0.426678
C	-0.0117875124	-0.7612580181	 1.3067288586	-0.116412
C	-0.1043283567	-2.0887949432	 1.3670782614	-0.06778
C	-0.1629416338	-2.9981610633	 0.1698721655	-0.318787
C	-0.2793534059	-2.2707409594	-1.1510285702	 0.053046
O	-1.4475551058	-1.4638096331	-1.3336932891	-0.261033
C	-0.1818309801	-0.8053507605	-1.2176071242	-0.065061
H	-0.5723441472	 1.9375795429	 0.9295212462	 0.116827
H	-0.7023971271	 1.8724294345	-0.9051745754	 0.119329
H	 0.0565642157	-0.1696419689	 2.2149838033	 0.095053
H	-0.1257147481	-2.5760847364	 2.3384618218	 0.098517
H	 0.739975705	-3.6254248088	 0.1467275457	 0.121612
H	-1.0031255914	-3.6995434109	 0.2694489695	 0.12637
H	 0.0004886958	-2.8466951098	-2.0333216026	 0.095275
H	 0.179420675	-0.3211889695	-2.1244145747	 0.097659
83.2099	215.7231	272.5897	326.0979	342.4194	432.6159	453.1037	535.6614	572.9268	701.8074	737.2565	793.2355	847.0826	867.0368	902.2283	929.3295	936.4244	971.9073	984.8163	998.8875	1038.2073	1081.9971	1129.9681	1139.3009	1158.9304	1196.418	1236.9623	1275.3606	1313.601	1326.1941	1376.4969	1388.7082	1446.2359	1461.7403	1480.3149	1524.1392	1726.7813	3006.6294	3031.3113	3078.132	3106.2253	3122.4354	3155.5092	3166.2885	3179.2017
C1OC11C=CCC2OC12	C1O[C@]21C=CC[C@H]1O[C@@H]21	
InChI=1S/C7H8O2/c1-2-5-6(9-5)7(3-1)4-8-7/h1,3,5-6H,2,4H2	InChI=1S/C7H8O2/c1-2-5-6(9-5)7(3-1)4-8-7/h1,3,5-6H,2,4H2/t5-,6-,7+/m1/s1
