16
gdb 127259	7.43822	0.81145	0.73525	2.3708	82.04	-0.2003	0.0065	0.2068	1498.3104	0.125402	-430.25676	-430.247981	-430.247037	-430.290932	30.973	
C	 0.0013773591	 1.4340403802	 0.0396080106	-0.32773
N	 0.0028594008	-0.0080256994	-0.075080632	 0.082516
C	 0.0531310616	-0.7804390624	-1.187601476	-0.208158
C	 0.0248047144	-2.0762937386	-0.711484707	 0.384
N	 0.0607057147	-3.2315098827	-1.4737147454	-0.35837
C	 0.0272699025	-4.3577986473	-0.8635173531	 0.11268
N	-0.0020094631	-5.5371802762	-1.5430674345	-0.503647
N	-0.0414123509	-2.0172302636	 0.6555851125	-0.276591
N	-0.0540645569	-0.770649195	 1.0334737781	-0.152102
H	 0.9140991361	 1.8581598659	-0.3889289823	 0.144398
H	-0.8667956498	 1.8628995471	-0.4692883835	 0.144787
H	-0.0460383652	 1.671967211	 1.1023497962	 0.166875
H	 0.1021789738	-0.3781195908	-2.1844478504	 0.13675
H	-0.0180289922	-4.4550496862	 0.2244725408	 0.132573
H	 0.1920984417	-5.5025788752	-2.5322601283	 0.260482
H	 0.2445463036	-6.3836359167	-1.0602701556	 0.261536
52.2771	100.1607	129.2148	144.3531	219.0192	322.348	343.8426	407.2011	420.7579	495.4102	587.1324	666.844	702.348	728.7052	791.1215	802.87	1020.4188	1031.4107	1043.6043	1067.034	1090.566	1151.7126	1189.0234	1263.6441	1297.1162	1309.1111	1373.3197	1393.522	1442.2721	1483.8719	1489.8221	1514.8811	1592.3139	1631.6954	1725.8756	3045.7497	3101.2759	3108.8223	3160.8961	3288.9072	3591.0161	3723.6584
CN1C=C(N=CN)N=N1	Cn1cc(N=CN)nn1	
InChI=1S/C4H7N5/c1-9-2-4(6-3-5)7-8-9/h2-3H,1H3,(H2,5,6)	InChI=1S/C4H7N5/c1-9-2-4(6-3-5)7-8-9/h2-3H,1H3,(H2,5,6)
