21
gdb 57663	3.2367	0.92873	0.87347	3.5675	79.08	-0.2396	-0.0176	0.222	1415.3658	0.179056	-424.220464	-424.210126	-424.209182	-424.256447	37.755	
C	 0.1391892544	 1.6122785882	 0.1789423785	-0.421841
C	 0.0405995019	 0.0932164738	 0.0176819982	 0.323406
O	 0.6083153375	-0.4478864692	 1.2211659557	-0.46139
C	-1.44690806	-0.3398713221	-0.0813285191	-0.295074
C	-2.2780550605	 0.0807455878	 1.11123762	 0.147783
O	-3.3477025887	 0.6320323197	 1.0355318009	-0.249446
C	 0.7878796362	-0.4581839547	-1.192409599	-0.019738
C	 1.0658107653	 0.3301477267	-2.448267709	-0.271709
C	 2.1992585842	-0.0494707277	-1.5307780998	-0.284482
H	 1.1799364403	 1.9442017069	 0.1770713398	 0.12531
H	-0.4054396603	 2.1344508293	-0.6113028354	 0.126288
H	-0.294830879	 1.9042675413	 1.1389719862	 0.135828
H	 0.8592060545	-1.3612147787	 1.0472248719	 0.277826
H	-1.9132127354	 0.0439604379	-0.9933406995	 0.120594
H	-1.4766355137	-1.4389134807	-0.1240510935	 0.105283
H	-1.8253210607	-0.1699818393	 2.093994984	 0.092418
H	 0.5640948054	-1.5112576072	-1.3603116559	 0.07661
H	 0.9717275309	-0.1803568038	-3.4002001977	 0.114835
H	 0.770998519	 1.3726935897	-2.4756142153	 0.119544
H	 2.6605878489	 0.7356876176	-0.9430105817	 0.124285
H	 2.8882320797	-0.8235118854	-1.8501275594	 0.11367
41.5057	63.7922	94.868	175.1477	228.4184	238.5956	261.0487	285.0083	334.8761	350.9438	407.5177	463.6589	500.9499	563.5764	708.4114	786.8491	822.9583	837.737	878.8055	929.7007	943.9348	953.9378	981.8974	1052.8525	1060.1115	1080.4676	1083.9464	1142.7666	1145.5996	1163.1611	1187.5416	1199.3562	1227.1911	1240.8667	1297.1027	1382.7784	1395.9055	1418.5736	1430.1785	1453.5217	1467.9239	1494.0244	1500.2907	1512.8178	1826.1779	2911.3014	3007.1592	3054.8892	3098.3042	3104.6398	3124.1208	3134.5638	3140.4605	3143.7704	3217.3473	3231.3254	3811.1546
CC(O)(CC=O)C1CC1	C[C@@](O)(CC=O)C1CC1	
InChI=1S/C7H12O2/c1-7(9,4-5-8)6-2-3-6/h5-6,9H,2-4H2,1H3	InChI=1S/C7H12O2/c1-7(9,4-5-8)6-2-3-6/h5-6,9H,2-4H2,1H3/t7-/m1/s1
