18
gdb 51848	2.89345	1.2021	0.89173	2.5102	73.24	-0.254	-0.0328	0.2213	1273.6539	0.148217	-439.148863	-439.140311	-439.139367	-439.182958	31.231	
O	 0.3459551393	 0.9653605384	-1.6272043931	-0.326408
C	 0.000046017	 1.0960255991	-0.4710120778	 0.148488
N	 0.8503731588	 1.2827113692	 0.571650955	-0.300622
C	 2.2793429952	 1.1839794261	 0.4206786741	-0.024577
C	 3.017888484	 2.3026955872	-0.3325363976	-0.230683
C	 4.4824323412	 2.1021612394	 0.1203082133	-0.223319
C	 4.3814101631	 1.7212035605	 1.6133125278	-0.320874
C	 2.96063277	 1.1909869175	 1.7906275631	 0.387321
O	 2.4113122386	 0.9040989054	 2.8249758194	-0.325041
H	-1.0599477692	 1.0916663423	-0.14955295	 0.081527
H	 0.5062004168	 1.2165596584	 1.5208850366	 0.257955
H	 2.5406564581	 0.2294406641	-0.0671699784	 0.123307
H	 2.8753661478	 2.2333217154	-1.4108269115	 0.137247
H	 2.6374230458	 3.2757578539	 0.0004223083	 0.108069
H	 4.9359581161	 1.2839740428	-0.449253553	 0.114706
H	 5.0966380454	 2.989040338	-0.0471145456	 0.112974
H	 5.1160822474	 0.9828406219	 1.9471643692	 0.137788
H	 4.4908124645	 2.5895748604	 2.2731027801	 0.142141
50.505	93.953	134.6693	187.1472	242.1113	276.9066	404.6636	464.5337	549.8406	564.539	594.0961	605.194	707.7954	804.0925	863.0677	910.1921	921.0962	948.3835	997.979	1014.226	1035.6703	1108.4221	1147.1563	1156.0464	1187.7647	1219.8283	1240.2953	1291.7824	1298.1983	1314.1077	1336.7193	1375.9784	1424.9321	1446.1944	1495.9989	1506.1555	1511.6982	1797.195	1839.0874	2944.0741	2968.7927	3044.5666	3052.8821	3054.5932	3096.1507	3113.086	3137.2722	3580.014
O=CNC1CCCC1=O	O=CN[C@H]1CCCC1=O	
InChI=1S/C6H9NO2/c8-4-7-5-2-1-3-6(5)9/h4-5H,1-3H2,(H,7,8)	InChI=1S/C6H9NO2/c8-4-7-5-2-1-3-6(5)9/h4-5H,1-3H2,(H,7,8)/t5-/m0/s1
