17
gdb 89345	1.97896	1.73995	1.12807	3.6481	71.18	-0.255	-0.0386	0.2164	1113.0247	0.132519	-458.935062	-458.92597	-458.925026	-458.968788	33.101	
C	 0.0713391572	 1.5208521534	 0.0925935206	-0.494355
C	-0.0775134565	 0.0338533306	 0.1206999282	 0.328955
C	-1.3501827782	-0.8029311614	-0.086291921	-0.330911
C	-0.7681590122	-1.8538461003	 0.9350414298	 0.057201
O	-0.5393555391	-3.1676091729	 0.5074669155	-0.428783
C	 0.4998265583	-1.0120947817	 1.0385180326	 0.250653
O	 1.0117610993	-0.7784772381	-0.2837400034	-0.302233
C	 1.408217026	-0.842819086	 2.1854630207	 0.062333
O	 1.1878889778	-1.2989572511	 3.2818720929	-0.262237
H	 1.069770731	 1.8206419453	 0.4189531546	 0.140395
H	-0.0802054473	 1.8929146672	-0.9270982394	 0.140941
H	-0.6726709576	 1.9981324856	 0.7373468293	 0.134759
H	-2.2696925672	-0.3242048881	 0.2575650195	 0.108742
H	-1.469387741	-1.1727478089	-1.1067760563	 0.118881
H	-1.3092346447	-1.8132789334	 1.8883965486	 0.099207
H	-1.3634517667	-3.6590490203	 0.576891403	 0.290504
H	 2.3137996709	-0.23881936	 1.9614697548	 0.085951
100.9895	129.235	159.7082	191.6778	214.6863	231.7802	246.6205	338.6157	423.5441	483.7744	497.8545	571.3106	632.2203	725.4021	780.6291	817.2387	851.8632	921.8429	970.3141	1035.4731	1051.98	1082.0138	1142.9911	1162.5912	1189.6538	1205.4799	1245.1599	1263.6375	1323.6468	1378.1211	1409.6586	1433.9571	1451.5832	1476.4895	1483.564	1498.3255	1803.8601	2901.9515	3035.6128	3038.5366	3070.4357	3101.8951	3131.0133	3134.8818	3827.2211
CC12CC(O)C1(O2)C=O	C[C@]12C[C@@H](O)[C@]1(O2)C=O	
InChI=1S/C6H8O3/c1-5-2-4(8)6(5,3-7)9-5/h3-4,8H,2H2,1H3	InChI=1S/C6H8O3/c1-5-2-4(8)6(5,3-7)9-5/h3-4,8H,2H2,1H3/t4-,5+,6-/m1/s1
