18
gdb 103208	3.20837	1.47466	1.26902	3.9663	70.32	-0.2366	0.0519	0.2886	1024.9349	0.148037	-439.009331	-439.001499	-439.000555	-439.041457	31.003	
O	-0.1192274225	 1.4789584205	-0.0875623075	-0.434549
C	 0.040949262	 0.0638994146	 0.0148164666	-0.173924
C	-1.3635539511	-0.5157743766	 0.1064655703	 0.472059
O	-2.1122197517	-0.0846742081	-1.0129512926	-0.495798
C	-1.5727837048	-2.0036447983	 0.2910620579	-0.113265
C	-1.5766478275	-2.3197900742	 1.7542410778	-0.047084
C	-1.3775341591	-1.0419755022	 2.5518167692	-0.258656
C	-2.1943933008	-0.4023609554	 1.4169540581	-0.068084
N	-2.8248605445	-1.8048696203	 1.0996964157	-0.15335
H	 0.710839041	 1.8651061727	-0.3796590159	 0.296989
H	 0.5260815207	-0.3473318975	-0.882301367	 0.100564
H	 0.6495576481	-0.2047638503	 0.8875848367	 0.096542
H	-1.903775972	 0.8537798726	-1.1100538975	 0.285336
H	-1.5159325146	-2.7671241293	-0.476744705	 0.098058
H	-1.5148944589	-3.3438099931	 2.106505757	 0.096925
H	-1.9560390611	-1.0808064671	 3.478890846	 0.115159
H	-0.3711489707	-0.6693662781	 2.7673285679	 0.096097
H	-2.8446431229	 0.4559174702	 1.5704284924	 0.086983
92.8268	166.439	241.9861	257.9801	315.7122	392.7999	421.2044	464.5347	476.9104	543.5002	686.9776	756.8227	783.8749	818.0774	822.6881	905.4372	942.5399	946.9743	980.9165	1027.7043	1033.4003	1045.3905	1054.8865	1099.7953	1109.8082	1132.2405	1146.7496	1182.4109	1198.2115	1236.3658	1251.7161	1270.3197	1276.3544	1328.3411	1369.7518	1425.8128	1458.1403	1494.6708	1516.8296	2998.0698	3040.5906	3049.4112	3099.3839	3148.2304	3171.2728	3184.8405	3768.3136	3843.6469
OCC1(O)C2C3CC1N23	OC[C@@]1(O)[C@H]2[C@H]3C[C@@H]1N23	
InChI=1S/C6H9NO2/c8-2-6(9)4-1-3-5(6)7(3)4/h3-5,8-9H,1-2H2	InChI=1S/C6H9NO2/c8-2-6(9)4-1-3-5(6)7(3)4/h3-5,8-9H,1-2H2/t3-,4+,5-,6+,7?/m1/s1
