16
gdb 39022	3.09963	1.82357	1.34144	4.0916	68.55	-0.2467	0.0203	0.2671	932.6182	0.12673	-437.857781	-437.851192	-437.850247	-437.888693	26.112	
C	 0.0735516747	 1.5794378672	 0.0524165238	-0.118818
O	 1.5283126668	 1.4106136062	-0.0989072871	-0.265622
C	 1.411139729	 0.0811412282	 0.2114830165	 0.451484
N	 2.2778554148	-0.7135855024	 0.6430731479	-0.304891
C	 1.6935447621	-1.9604387143	 1.149789905	-0.201306
C	 0.2808231751	-1.8216453998	 1.7299832457	 0.044766
O	 0.008022555	-0.6465564841	 2.501480783	-0.244141
C	-0.6501269004	-0.7860324794	 1.2409028057	 0.013366
C	-0.090395569	 0.0397640994	 0.1134558029	-0.193077
H	-0.1456637118	 2.1086652849	 0.9826735799	 0.137809
H	-0.3582391214	 2.0943777607	-0.8071799281	 0.124693
H	 1.668970628	-2.736458212	 0.3704061029	 0.113977
H	 2.3566182436	-2.3397463666	 1.9355045193	 0.127202
H	-0.132771484	-2.7391665338	 2.149169002	 0.100612
H	-1.7264126186	-0.9415625826	 1.2988760741	 0.097329
H	-0.4404459838	-0.3603127617	-0.8440923733	 0.116617
149.9037	194.2533	281.6051	334.1724	432.333	476.0692	511.0346	653.1021	708.2245	763.0239	773.9752	835.1853	868.7052	930.8743	938.062	957.1865	1008.8741	1034.0939	1070.0926	1106.0447	1117.4404	1133.0546	1157.2608	1190.7945	1215.6197	1250.9978	1282.4063	1328.4143	1346.6604	1362.6525	1378.534	1453.0192	1486.8042	1508.8819	1824.2303	3003.7402	3057.0933	3059.7163	3071.2442	3108.8842	3125.0526	3138.7738
C1OC2=NCC3OC3C12	C1O[C]2[N]C[C@H]3O[C@H]3[C@@H]12	
InChI=1S/C6H7NO2/c1-4-5(9-4)3-2-8-6(3)7-1/h3-5H,1-2H2	InChI=1S/C6H7NO2/c1-4-5(9-4)3-2-8-6(3)7-1/h3-5H,1-2H2/t3-,4-,5+/m1/s1
