20
gdb 60852	2.1862	1.34494	1.11559	3.7799	76.26	-0.2428	0.0196	0.2624	1204.0765	0.168243	-440.288438	-440.278197	-440.277253	-440.323567	37.057	
C	 0.0706380247	 0.579809124	 0.8442223878	-0.350833
N	-0.4439786704	-0.5447107906	 0.0715028534	-0.100581
C	-1.5408224447	-1.2301399102	 0.5398571108	 0.13482
O	-2.0610734872	-1.061111261	 1.6217605461	-0.339244
C	-0.046377569	-0.7006379528	-1.3066201266	 0.251352
C	-0.8217500803	 0.1271431629	-2.314295949	-0.442751
C	 1.4411260291	-0.9403354282	-1.5480848597	-0.38247
C	 0.4673795564	-2.074544688	-1.7017060066	 0.111828
O	 0.4519382092	-3.1542288574	-0.8244598929	-0.421358
H	 1.1583341331	 0.5172119481	 0.9419771116	 0.123805
H	-0.1785455508	 1.536710643	 0.3704588698	 0.127366
H	-0.3914769983	 0.5422462073	 1.8304113398	 0.16855
H	-1.8874626786	-1.986493405	-0.1866347345	 0.098992
H	-0.7030169345	 1.1995969174	-2.1224853044	 0.12505
H	-0.4685509181	-0.0669476767	-3.3314721847	 0.12209
H	-1.8906224111	-0.1080557515	-2.2759438861	 0.128766
H	 1.8953670145	-0.498577353	-2.4284929287	 0.12104
H	 2.0873175937	-0.9693122856	-0.6765993974	 0.119338
H	 0.2273262954	-2.41424701	-2.7037276844	 0.115076
H	 0.5694825468	-2.8180324027	 0.0712778959	 0.289164
70.5437	87.3552	126.6121	173.322	208.8645	238.4722	266.2122	290.6799	306.6906	343.4329	375.7482	443.8598	471.9575	550.494	600.9181	789.89	807.6584	865.3859	902.1064	939.4582	1026.8943	1033.9609	1043.1495	1055.5214	1099.5268	1125.2179	1157.3076	1159.0683	1180.8554	1265.8075	1329.032	1336.3163	1366.0337	1415.2661	1434.7076	1436.2846	1439.6361	1480.7984	1487.1339	1497.5139	1499.505	1513.8814	1792.8914	2980.6244	3027.7113	3031.6244	3089.0523	3093.5984	3108.7787	3129.2312	3160.5869	3170.987	3217.8627	3803.9469
CN(C=O)C1(C)CC1O	CN(C=O)[C@@]1(C)C[C@H]1O	
InChI=1S/C6H11NO2/c1-6(3-5(6)9)7(2)4-8/h4-5,9H,3H2,1-2H3	InChI=1S/C6H11NO2/c1-6(3-5(6)9)7(2)4-8/h4-5,9H,3H2,1-2H3/t5-,6+/m1/s1
