17
gdb 49197	4.17542	1.09673	0.98197	2.055	76.	-0.2523	-0.0664	0.1859	1195.3304	0.136952	-421.830217	-421.82268	-421.821736	-421.862781	28.194	
O	-0.1186037267	-0.0031835685	-0.0759658072	-0.264394
C	-0.0364610113	 1.204241074	-0.117503558	 0.078631
C	 1.2301008433	 1.9418588564	-0.022819945	 0.235119
C	 1.3294659781	 3.2792744848	-0.0717295006	-0.17425
C	 2.7532629796	 3.7391895953	 0.0858473624	 0.091906
O	 3.0400773367	 4.2374377379	 1.4167535444	-0.291047
C	 3.6932479273	 2.9960640844	 1.7749734873	-0.081304
C	 3.5454110132	 2.4289234608	 0.3440831281	-0.088175
C	 2.5715754054	 1.2545251851	 0.1375792665	-0.335709
H	-0.9407570161	 1.8416461002	-0.2334794569	 0.073551
H	 0.4930829754	 3.9621942041	-0.1793306195	 0.117114
H	 3.0839065207	 4.4478395848	-0.6815382114	 0.086284
H	 4.7173944643	 3.1710865332	 2.1222452775	 0.109335
H	 3.1403527916	 2.4477864581	 2.5488050503	 0.104892
H	 4.4883005865	 2.3162991953	-0.1899671834	 0.086795
H	 2.5643918881	 0.5507945456	 0.9773684469	 0.127039
H	 2.8141140839	 0.6618720584	-0.7517875815	 0.124213
82.5561	113.3205	183.7155	212.3634	352.3836	395.6574	442.3016	530.4438	665.8348	702.1045	807.1939	848.5492	866.0006	875.6846	898.48	936.6247	979.985	1009.3258	1017.2359	1033.2547	1075.6263	1085.5963	1157.1441	1160.9286	1194.7813	1242.6876	1266.4839	1278.4079	1320.0415	1331.443	1353.4909	1373.2176	1418.9543	1482.6067	1519.0043	1674.4376	1786.2381	2888.1745	3014.5464	3042.5947	3046.3955	3065.5516	3072.7691	3117.4202	3193.4687
O=CC1=CC2OCC2C1	O=CC1=C[C@H]2OC[C@H]2C1	
InChI=1S/C7H8O2/c8-3-5-1-6-4-9-7(6)2-5/h2-3,6-7H,1,4H2	InChI=1S/C7H8O2/c8-3-5-1-6-4-9-7(6)2-5/h2-3,6-7H,1,4H2/t6-,7-/m1/s1
