18
gdb 35778	3.72596	1.20476	1.01718	1.0357	77.39	-0.2126	0.0393	0.2519	1174.918	0.148296	-401.877658	-401.86961	-401.868666	-401.91018	31.65	
C	 0.0746048452	-1.1902338649	 0.0776400095	-0.426393
C	 0.0270202261	 0.0089204116	 0.0161224951	 0.292321
C	-0.0327808816	 1.4648375501	 0.0002480521	-0.143312
C	-0.8050773394	 1.988452324	 1.2290224893	-0.090236
O	-0.9371209181	 3.3965827134	 1.1696357555	-0.253902
C	 0.2326976249	 4.1044770961	 0.8766546279	 0.129091
C	 1.5178436302	 3.9352740445	 1.63848348	-0.345961
C	 1.4024869006	 3.4440679359	 0.1939713388	-0.035501
N	 1.3210756115	 2.031865701	-0.0883638588	-0.31949
H	 0.1132420162	-2.2511227497	 0.1099041401	 0.199643
H	-0.592550341	 1.7935291849	-0.8873846925	 0.118425
H	-1.8227757353	 1.590461256	 1.2486990916	 0.121499
H	-0.2908066589	 1.6674928451	 2.1480326475	 0.096018
H	-0.0358149856	 5.1076334454	 0.5645133261	 0.106814
H	 2.1071197411	 4.8224802434	 1.843903351	 0.114201
H	 1.571394949	 3.1715563087	 2.4069193997	 0.115947
H	 1.9277925116	 4.0225245057	-0.5635193328	 0.094055
H	 1.9641478335	 1.4908826389	 0.4766733099	 0.226782
81.9695	146.5958	179.4461	276.0776	337.8125	386.5136	445.1194	486.6921	526.2031	535.1159	630.7335	663.5685	667.6917	701.6856	752.6266	818.3659	860.4616	930.5027	972.8806	996.9761	1019.3017	1056.2818	1058.9775	1090.1553	1128.2935	1148.4459	1174.5622	1215.4666	1258.8963	1272.7414	1301.941	1339.6921	1370.3109	1384.934	1419.3086	1467.2207	1478.4596	1498.9749	2241.0604	2986.3794	3005.4068	3098.7192	3110.1586	3131.8446	3171.8062	3219.7364	3503.7919	3544.5719
C#CC1COC2CC2N1	C#C[C@H]1CO[C@H]2C[C@H]2N1	
InChI=1S/C7H9NO/c1-2-5-4-9-7-3-6(7)8-5/h1,5-8H,3-4H2	InChI=1S/C7H9NO/c1-2-5-4-9-7-3-6(7)8-5/h1,5-8H,3-4H2/t5-,6+,7-/m0/s1
