18
gdb 17969	2.71364	2.33426	1.4499	0.9267	68.77	-0.2368	-0.0062	0.2306	884.8423	0.155718	-384.913462	-384.906275	-384.90533	-384.944591	27.962	
C	-0.0291414651	 1.3211898103	-0.0545717231	-0.098393
C	 1.3367673621	 2.0267645808	 0.0514369748	-0.068529
O	 1.7492096268	 2.4592202076	 1.3396348929	-0.257377
C	 1.7165328043	 1.5039420649	 2.3981071846	-0.108083
C	 2.3723600479	 0.1932195684	 2.0537200655	-0.07384
C	 1.7260051711	-0.8168177717	 1.4700811333	-0.051962
C	 0.2604232955	-0.7901811974	 1.0876962501	-0.125684
O	 0.0076168673	-0.0945082075	-0.1286172934	-0.242433
H	-0.692071912	 1.6614098658	 0.7570884035	 0.097347
H	-0.4896130774	 1.6250929612	-1.0004985656	 0.112227
H	 2.0860994171	 1.3737397025	-0.4169030461	 0.103517
H	 1.2945588767	 2.9553478782	-0.527461081	 0.107229
H	 2.2358925761	 1.9925053524	 3.2272940335	 0.110588
H	 0.6791235888	 1.3350443538	 2.7202244543	 0.091461
H	 3.4424394443	 0.1149453347	 2.2307910317	 0.096541
H	 2.2789703497	-1.7100088173	 1.1887620373	 0.097583
H	-0.0950596187	-1.8094759622	 0.9127592056	 0.10989
H	-0.3516969644	-0.3651158444	 1.8968999922	 0.099918
149.5299	186.4971	261.1437	275.2006	324.8763	376.5518	477.0673	493.0285	532.3512	644.0948	738.587	813.924	885.251	914.954	987.953	992.2843	1001.9851	1009.4477	1017.0025	1069.6111	1129.0873	1142.893	1147.0757	1253.9782	1257.3016	1292.0278	1312.0488	1348.0456	1374.9781	1395.1602	1400.6496	1416.7247	1427.1895	1478.1873	1485.0023	1489.4179	1517.1009	1714.2881	2982.9513	2989.0189	3004.3469	3014.7277	3067.4538	3080.6889	3083.0487	3085.3746	3144.4725	3167.9381
C1COCC=CCO1	C1COCC=CCO1	
InChI=1S/C6H10O2/c1-2-4-8-6-5-7-3-1/h1-2H,3-6H2/b2-1-	InChI=1S/C6H10O2/c1-2-4-8-6-5-7-3-1/h1-2H,3-6H2/b2-1-
