19
gdb 103717	2.93684	1.19304	0.99814	4.1904	77.54	-0.2275	0.0129	0.2403	1241.053	0.156847	-419.190914	-419.180835	-419.179891	-419.225473	37.062	
C	 0.2468295146	 1.2466870839	 0.3813689834	-0.321051
N	-0.2548695066	 0.0612643547	-0.3037374127	-0.33467
C	 0.5827194129	-0.4280772845	-1.3643914401	 0.293336
C	 0.4107604897	 0.3075080591	-2.678302564	-0.434667
C	 1.9478515804	-1.0261843294	-1.0478582231	-0.383589
C	 0.7746167552	-1.9384188339	-1.3867253649	 0.179358
O	 0.1543587019	-2.6431207417	-0.3491580204	-0.446898
C	 0.7813325876	-2.6447919093	-2.6506297791	 0.264408
N	 0.8003569528	-3.2305567929	-3.6479329997	-0.353004
H	 1.2641910654	 1.1337137382	 0.7945691376	 0.095692
H	 0.2609330946	 2.1019629514	-0.3019043949	 0.126615
H	-0.4317450825	 1.4947441093	 1.2018718278	 0.12418
H	-0.4394637413	-0.6854956	 0.3551908294	 0.238423
H	 0.7139804245	 1.3534086985	-2.5672050538	 0.123057
H	 1.017284602	-0.1320760432	-3.4735992644	 0.133119
H	-0.6387148087	 0.287195057	-2.9835277081	 0.139211
H	 2.7526460836	-0.9389109428	-1.769442515	 0.132865
H	 2.2548927039	-1.0535327706	-0.0075659964	 0.12335
H	 0.7420836699	-3.3537577637	-0.0679393916	 0.300265
83.6211	114.2921	137.3768	190.0417	207.6807	239.4427	259.8357	301.4994	313.8381	387.6239	411.377	450.1697	473.5887	579.3179	619.5493	697.9398	727.2178	774.843	873.3716	912.452	931.2294	959.6853	1039.2331	1087.1383	1101.8343	1115.8478	1157.1611	1186.7347	1218.8523	1291.6052	1325.3694	1365.8934	1416.7545	1456.7359	1459.877	1481.0183	1484.6198	1494.9133	1509.5784	1527.5233	2347.2094	2954.662	3045.827	3067.1373	3111.2825	3114.1046	3130.107	3132.9993	3226.9315	3553.9809	3796.7675
CNC1(C)CC1(O)C#N	CN[C@@]1(C)C[C@]1(O)C#N	
InChI=1S/C6H10N2O/c1-5(8-2)3-6(5,9)4-7/h8-9H,3H2,1-2H3	InChI=1S/C6H10N2O/c1-5(8-2)3-6(5,9)4-7/h8-9H,3H2,1-2H3/t5-,6-/m0/s1
