18
gdb 43384	2.38579	1.97414	1.1507	4.3969	78.61	-0.2313	-0.0274	0.2039	1049.5982	0.150586	-401.980027	-401.972622	-401.971677	-402.012003	28.688	
O	 0.0650953562	 0.0243776188	 0.0023700717	-0.38564
C	 0.0202954136	 1.2385408311	-0.1114985908	 0.36081
C	-1.2502217318	 2.0229612399	-0.0900369515	-0.148845
C	-1.2804976781	 3.2915806152	 0.3306379458	-0.069453
C	-0.0227503888	 4.0349758587	 0.7294406636	-0.294231
C	 1.1619910778	 3.4927747737	-0.0682609266	 0.056712
C	 2.5703525013	 3.342736295	 0.5826985986	-0.272427
C	 2.4809192312	 1.812201929	 0.2949118006	-0.169344
N	 1.1247212672	 2.0293743243	-0.2164725898	-0.092782
H	-2.1506550877	 1.4667208402	-0.3248431409	 0.11484
H	-2.2299917654	 3.8095923582	 0.4399138002	 0.105481
H	-0.1375267333	 5.1107246084	 0.5609930313	 0.114762
H	 0.1427642883	 3.9069905518	 1.8096566638	 0.118294
H	 1.194507081	 3.9879019461	-1.0482431081	 0.085596
H	 3.3802304937	 3.8745390572	 0.0822819032	 0.114665
H	 2.5828816682	 3.5880264604	 1.6467466273	 0.113937
H	 3.1801622962	 1.4387652128	-0.4602929935	 0.118797
H	 2.5153609904	 1.1480839793	 1.163439035	 0.128828
118.4936	135.9977	163.3571	302.8472	352.1016	429.2454	469.1447	528.4935	635.8268	662.3816	711.3356	772.8544	811.0751	856.1268	912.4523	937.5876	947.2548	973.9772	1006.6723	1045.9663	1105.4239	1114.1694	1144.8006	1183.8162	1197.703	1204.7543	1237.9582	1263.3262	1287.7759	1312.4228	1345.6492	1366.1492	1397.843	1438.1027	1477.6915	1489.7724	1522.7702	1676.6495	1767.1582	2995.6866	3007.533	3044.1847	3072.2885	3079.5838	3090.5458	3138.8624	3158.575	3205.0208
O=C1C=CCC2CCN12	O=C1C=CC[C@H]2CCN12	
InChI=1S/C7H9NO/c9-7-3-1-2-6-4-5-8(6)7/h1,3,6H,2,4-5H2	InChI=1S/C7H9NO/c9-7-3-1-2-6-4-5-8(6)7/h1,3,6H,2,4-5H2/t6-/m0/s1
