21
gdb 55113	2.42585	1.434	1.14168	2.841	82.77	-0.2283	-0.0088	0.2196	1183.2002	0.180855	-387.091024	-387.081572	-387.080627	-387.125601	35.244	
C	 0.0991393458	 1.0970244499	 0.8080004338	-0.482198
C	 0.0696775638	-0.0210676744	-0.2202670295	 0.38088
O	 1.0254063258	-0.2611682185	-0.9266083677	-0.310738
C	-1.2008187885	-0.8448899434	-0.2817472762	-0.151059
C	-1.3819980199	-1.8475131145	-1.4610420686	-0.252828
C	-1.4420043414	-3.0029033695	-0.4549006749	-0.090862
C	-0.183301063	-3.0366760827	 0.3692847936	-0.331935
C	-1.2582767263	-2.0403641356	 0.7203259158	 0.347465
C	-1.9412024565	-1.987745612	 2.056363838	-0.501756
H	 1.0979235775	 1.5321751135	 0.8596010647	 0.140001
H	-0.6234467572	 1.8740331149	 0.5313962309	 0.138533
H	-0.1993084998	 0.7260782353	 1.7947814116	 0.139348
H	-2.0743560046	-0.1991995193	-0.1459908395	 0.075535
H	-2.3210692314	-1.6833118209	-1.9935693591	 0.09992
H	-0.5577671366	-1.8749597865	-2.1774870009	 0.119841
H	-2.103934594	-3.8584818976	-0.520227024	 0.083164
H	-0.1034092267	-3.8710045415	 1.0594817216	 0.106885
H	 0.7618856084	-2.7149183853	-0.0590699022	 0.131873
H	-1.3662193736	-1.404550132	 2.7867408617	 0.120008
H	-2.9371973696	-1.5355092261	 1.9809276494	 0.115663
H	-2.0626674421	-2.994094424	 2.4709853114	 0.12226
46.0477	115.8466	127.3617	147.4463	209.886	269.6895	300.5391	357.7686	384.3549	436.9538	552.4298	599.1894	631.4952	714.9055	765.505	815.386	871.1101	922.8899	943.5767	951.9682	977.0592	1003.9604	1018.776	1041.5857	1053.5035	1092.0636	1107.0953	1124.0093	1165.0666	1187.6964	1203.9221	1235.4523	1269.4989	1286.8526	1357.0644	1380.5763	1394.6935	1423.4279	1461.2358	1473.997	1479.6916	1486.1859	1495.9671	1503.42	1796.3157	3015.4062	3033.2367	3054.2263	3068.9685	3071.0244	3093.1602	3093.9942	3118.0712	3122.3347	3150.2394	3177.5428	3204.4555
CC(=O)C1CC2CC12C	CC(=O)[C@H]1C[C@H]2C[C@@]12C	
InChI=1S/C8H12O/c1-5(9)7-3-6-4-8(6,7)2/h6-7H,3-4H2,1-2H3	InChI=1S/C8H12O/c1-5(9)7-3-6-4-8(6,7)2/h6-7H,3-4H2,1-2H3/t6-,7+,8+/m0/s1
