19
gdb 31070	2.3682	1.33889	0.86801	1.6124	81.69	-0.1659	0.0532	0.219	1337.674	0.15873	-419.230259	-419.220124	-419.21918	-419.265993	35.84	
C	 0.0266477646	 1.4102115704	 0.0088314401	-0.239646
O	 0.0181211995	 0.0004500018	-0.0070484576	-0.273814
C	-1.2138651436	-0.5895781798	 0.0011620097	 0.298567
C	-1.3717269759	-1.9597914717	-0.0014104773	 0.18621
C	-0.3561214336	-3.0496920582	-0.0115652887	-0.511763
N	-2.7370473112	-2.184095014	 0.0109021382	-0.310992
C	-3.4259090667	-1.0030825324	 0.0261727287	 0.271688
N	-4.8400612909	-1.0334966446	 0.0063034942	-0.612035
C	-2.5021100516	 0.0243241292	 0.0237283825	-0.362896
H	 1.0744398638	 1.7177928453	-0.0041010246	 0.124511
H	-0.4811296484	 1.8301636732	-0.8708684494	 0.113789
H	-0.4532616	 1.8100058866	 0.9133647183	 0.112977
H	-0.4132358043	-3.6880211471	 0.8803149665	 0.118081
H	-0.4487675169	-3.7057098254	-0.8875106312	 0.117226
H	 0.6412235477	-2.6050333917	-0.0361889156	 0.147045
H	-3.1852431176	-3.0809150003	-0.0660830027	 0.25342
H	-5.2365537228	-0.9999704896	 0.9418753399	 0.240935
H	-5.2078888218	-0.2375650526	-0.5016380901	 0.242737
H	-2.73143544	 1.077192481	 0.0558383492	 0.083959
49.7615	70.9483	106.3688	176.7321	189.2951	198.9363	246.2006	254.4998	337.7652	383.2074	471.0154	545.0269	584.635	630.95	642.347	677.7962	748.6741	807.4597	826.9984	994.7077	1039.2056	1062.1064	1080.1152	1155.9019	1180.0642	1190.3802	1195.6449	1221.1163	1253.1325	1345.2526	1411.4907	1450.6354	1472.3275	1483.7665	1484.4961	1497.4637	1509.7412	1510.1964	1557.5973	1647.9108	1666.8134	2989.0657	3003.8998	3040.7747	3041.9676	3121.5078	3125.8263	3257.99	3481.3202	3577.6607	3675.7982
COC1=C(C)NC(N)=C1	COc1c(C)[nH]c(N)c1	
InChI=1S/C6H10N2O/c1-4-5(9-2)3-6(7)8-4/h3,8H,7H2,1-2H3	InChI=1S/C6H10N2O/c1-4-5(9-2)3-6(7)8-4/h3,8H,7H2,1-2H3
