20
gdb 62695	3.12039	1.6551	1.40192	1.2239	84.97	-0.2081	-0.041	0.1671	1008.0996	0.170129	-365.892701	-365.884782	-365.883838	-365.924292	32.523	
C	 0.235924705	 1.3979704153	 0.3116426532	-0.449402
C	-0.024986672	-0.0910130828	 0.1303885532	 0.267526
C	-1.5282133639	-0.3771194638	 0.077129172	-0.430144
C	 0.6705003131	-0.8642889794	-1.0926086022	-0.068628
C	 0.9086035027	-2.0627143543	-0.2728562063	-0.09126
N	 2.0497862599	-1.5203364761	-0.980373666	-0.134163
C	 3.000083119	-1.129531667	 0.1011566403	-0.175841
C	 2.0860855752	-0.7010474815	 1.2443581098	-0.131544
C	 0.8365994665	-1.100613948	 0.9367330688	-0.020733
H	 1.2978304367	 1.6411515797	 0.2253437019	 0.115138
H	-0.3083503067	 1.9695853806	-0.4484899056	 0.115343
H	-0.1127161332	 1.7434887044	 1.2913814871	 0.121749
H	-1.9974424153	 0.1466916995	-0.7636734561	 0.112213
H	-1.7336390487	-1.4455382757	-0.0281130225	 0.121026
H	-2.0103094141	-0.0284042815	 0.9963935906	 0.121195
H	 0.3012185145	-0.8103517685	-2.1128777668	 0.101415
H	 0.570701102	-3.087807579	-0.3661265631	 0.090249
H	 3.6624542401	-1.9897567384	 0.2639336187	 0.117347
H	 3.6279365492	-0.2790508187	-0.1903354012	 0.11645
H	 2.3022587901	 0.2039143953	 1.8033395941	 0.102064
170.725	205.1416	230.05	243.4115	325.148	355.6508	366.8177	448.4063	500.7398	585.3306	640.9941	712.8933	762.3536	779.1505	812.7079	818.0122	882.2752	894.8316	921.0123	940.1115	949.1879	985.1517	1003.5618	1018.4389	1047.8716	1080.5371	1150.4935	1183.4507	1192.5048	1197.9451	1219.7996	1256.5986	1279.6164	1290.8829	1325.8545	1400.1358	1416.9589	1473.8471	1478.5214	1484.1306	1500.0216	1502.5788	1577.9635	3017.9742	3027.4146	3032.7526	3062.6821	3089.4302	3095.2604	3113.449	3116.3922	3153.4955	3174.2705	3183.1073
CC1(C)C2C3N2CC=C13	CC1(C)[C@@H]2[C@H]3N2C[CH][C]13	
InChI=1S/C8H11N/c1-8(2)5-3-4-9-6(5)7(8)9/h3,6-7H,4H2,1-2H3	InChI=1S/C8H11N/c1-8(2)5-3-4-9-6(5)7(8)9/h3,6-7H,4H2,1-2H3/t6-,7-,9?/m0/s1
