17
gdb 80088	2.37141	1.84259	1.40709	3.5619	74.82	-0.2205	-0.0136	0.2069	970.732	0.137973	-418.02301	-418.01534	-418.014396	-418.055018	29.775	
C	-0.3175207431	 1.4864655577	-0.1148097068	-0.321919
N	 0.0066501195	 0.0708851506	 0.0040943761	-0.09934
C	 1.3404956392	-0.449908981	-0.318551882	-0.087774
C	 2.47287179	 0.4482760789	-0.6193333976	-0.116655
C	 2.932014641	 1.3030686438	 0.3032569779	-0.010761
N	 2.4195076624	 1.3469067534	 1.5957485715	-0.333237
C	 1.4750446902	 0.4704314825	 2.1056825083	 0.417051
O	 1.220959448	 0.43794376	 3.2939789221	-0.368172
C	 0.8171800093	-0.4351592472	 1.1072654369	-0.16315
H	 0.5295415964	 2.175402497	-0.0098720798	 0.120737
H	-0.7668648026	 1.6477308121	-1.0995758487	 0.126376
H	-1.0647980303	 1.7314514998	 0.6455469325	 0.135536
H	 1.3069385634	-1.3889115865	-0.8659393782	 0.101293
H	 2.9212474486	 0.4269132799	-1.6042823035	 0.103032
H	 3.736544043	 2.0026581679	 0.1106927802	 0.124941
H	 2.8643374261	 1.929325645	 2.2899743144	 0.257438
H	 0.4333532989	-1.3375064939	 1.5756372966	 0.114605
114.0256	141.0539	201.4889	246.2094	387.4988	399.3784	434.3166	530.2189	536.4083	598.2191	641.0247	688.1887	729.2857	750.3591	838.2121	861.1034	929.966	948.3208	963.6147	1023.9312	1066.9778	1116.711	1130.6338	1164.9414	1174.1171	1210.6868	1298.6008	1319.7083	1359.3168	1384.1983	1426.6523	1453.7936	1470.4042	1486.4691	1507.1745	1706.0618	1787.342	3020.3299	3085.7401	3111.7499	3131.4777	3149.1515	3199.5116	3219.6716	3618.9758
CN1C2C=CNC(=O)C12	CN1[C@H]2C=CNC(=O)[C@@H]12	
InChI=1S/C6H8N2O/c1-8-4-2-3-7-6(9)5(4)8/h2-5H,1H3,(H,7,9)	InChI=1S/C6H8N2O/c1-8-4-2-3-7-6(9)5(4)8/h2-5H,1H3,(H,7,9)/t4-,5-,8?/m0/s1
