18
gdb 84543	3.73137	1.3187	1.10956	2.8463	78.61	-0.253	0.0042	0.2571	1121.1863	0.149094	-401.96487	-401.957217	-401.956272	-401.99703	29.81	
C	-0.3531200003	 1.3974300427	-0.0483762557	-0.404055
C	 0.0729748416	-0.0780775182	 0.0035302218	-0.048011
C	 0.9566348412	-0.4801259729	-1.1601154738	-0.066601
C	 2.187342885	-0.8396701051	-0.7936845827	-0.087532
C	 2.3621556051	-0.8141385369	 0.7028106093	-0.212702
C	 0.9543035224	-0.4107611137	 1.2179664581	 0.100069
O	 0.7579819904	-1.7751052913	 1.723557284	-0.270844
C	 2.0452754855	-2.1404750676	 1.3792009404	 0.437824
N	 2.6765556496	-3.2030238479	 1.5820611632	-0.548397
H	 0.5197382296	 2.0586767047	-0.0293218063	 0.121834
H	-0.909573226	 1.6106787588	-0.9661708529	 0.121297
H	-0.9946290055	 1.6516879526	 0.8018200702	 0.120173
H	-0.827505341	-0.7049102167	 0.0485733019	 0.101558
H	 0.5987617732	-0.4545540203	-2.1841059964	 0.100126
H	 2.978639148	-1.1608081711	-1.4600666262	 0.111946
H	 3.2531838371	-0.299272361	 1.0657667462	 0.105157
H	 0.8841210834	 0.3019447221	 2.0421135219	 0.090734
H	 2.1051712307	-3.8860235683	 2.082806667	 0.227424
95.7918	140.2058	222.795	267.2352	298.7277	331.3212	453.9429	525.6379	631.8041	683.1565	728.7812	785.2735	819.7451	854.6355	867.231	872.5808	935.2172	958.3431	978.6172	985.6289	1020.4285	1026.9237	1047.7876	1098.5345	1118.2155	1133.311	1207.1659	1216.9047	1268.6858	1282.03	1301.0991	1315.2435	1351.6031	1381.1334	1409.9979	1494.9688	1500.0615	1673.7055	1821.2995	3024.878	3031.827	3091.8492	3103.0529	3104.74	3107.7966	3184.8091	3216.4501	3473.4254
CC1C=CC2C1OC2=N	C[C@H]1C=C[C@H]2[C@@H]1O[C]2[NH]	
InChI=1S/C7H9NO/c1-4-2-3-5-6(4)9-7(5)8/h2-6,8H,1H3	InChI=1S/C7H9NO/c1-4-2-3-5-6(4)9-7(5)8/h2-6,8H,1H3/t4-,5-,6+/m0/s1
