16
gdb 75842	2.6464	1.66511	1.23943	1.6175	65.16	-0.2612	0.0071	0.2683	1002.1602	0.123964	-475.011017	-475.003076	-475.002131	-475.043309	30.904	
O	-0.1002323891	 1.5034306722	 0.1544991885	-0.438869
C	-0.0500502208	 0.1013658336	 0.0347480209	-0.044148
C	 0.5980277011	-0.5409605154	 1.2583673663	 0.381687
N	 1.622750436	-0.0566497009	 1.8099384024	-0.554079
O	-0.0989598176	-1.6382950095	 1.6630797318	-0.227826
C	-1.3444400529	-1.6728369994	 0.9741909588	 0.021872
C	-2.2669661515	-0.5026279547	 1.2089019233	-0.3684
C	-1.405122357	-0.5732071517	-0.0369914764	 0.374431
O	-1.9770787197	-0.8115284696	-1.2801195549	-0.471767
H	 0.6934955498	 1.752131577	 0.6495079953	 0.298448
H	 0.5116700088	-0.199849891	-0.8647662488	 0.105676
H	 1.8936995859	-0.5769489775	 2.6445603968	 0.23368
H	-1.7072889117	-2.677129445	 0.8031658924	 0.127919
H	-3.3246017813	-0.6903325247	 1.0619651315	 0.128905
H	-2.0167922943	 0.2161759417	 1.9818845104	 0.137355
H	-2.3580270457	 0.0172384448	-1.5923805583	 0.295115
80.291	193.6808	235.2742	294.0755	302.746	362.1284	405.1489	449.2085	479.0336	505.7881	573.6516	660.3498	692.9618	750.2755	871.5348	888.6783	910.6721	919.9148	975.0303	1011.1112	1028.2406	1042.158	1073.9951	1122.7357	1146.7949	1197.538	1244.7449	1284.9078	1294.9848	1340.4762	1379.2299	1394.8437	1436.7052	1490.4733	1783.171	2975.6121	3137.0287	3216.0759	3234.3563	3491.92	3741.2787	3795.027
OC1C(=N)OC2CC12O	O[C@H]1[C]([NH])O[C@H]2C[C@@]12O	
InChI=1S/C5H7NO3/c6-4-3(7)5(8)1-2(5)9-4/h2-3,6-8H,1H2	InChI=1S/C5H7NO3/c6-4-3(7)5(8)1-2(5)9-4/h2-3,6-8H,1H2/t2-,3-,5-/m0/s1
