18
gdb 54936	3.36913	0.96449	0.88104	3.4089	74.78	-0.2414	-0.0379	0.2036	1356.3586	0.145615	-439.110888	-439.101283	-439.100339	-439.147162	32.569	
C	-0.3169665887	 1.4612469513	 0.3128419238	-0.489827
C	-0.1361076064	-0.0462084659	 0.2671766815	 0.367851
O	 0.8047109844	-0.6330425403	 0.7721723902	-0.364771
N	-1.1125937986	-0.7255893704	-0.3993350197	-0.062873
C	-2.4720054532	-0.3841589211	-0.8355284305	-0.19877
C	-2.7803236417	-1.9007298649	-0.9139583042	-0.11752
C	-1.3175579313	-2.1703240794	-0.4036625657	-0.188146
C	-3.8533819038	-2.4113298425	 0.012496776	 0.149422
O	-4.520708013	-1.7193328164	 0.7379743841	-0.233479
H	 0.5907339561	 1.907773866	 0.7175814989	 0.14944
H	-0.5198502657	 1.8732652593	-0.6805493395	 0.133571
H	-1.1617226967	 1.7262028297	 0.9584496504	 0.143225
H	-3.0765842853	 0.1367680093	-0.0862825664	 0.140295
H	-2.5183215245	 0.1561455659	-1.7867052692	 0.115709
H	-2.9559419412	-2.2927704318	-1.9191322311	 0.107554
H	-0.6721181485	-2.7169726718	-1.0972084453	 0.127866
H	-1.2360595687	-2.6269043501	 0.5891667088	 0.132905
H	-3.9802167532	-3.517476947	-0.001141142	 0.087549
35.687	68.1359	86.3093	104.1156	144.7284	181.9555	265.5103	315.9875	399.8436	545.8964	593.0907	636.5277	655.0181	774.3654	885.4335	905.8502	915.4953	968.6881	1001.0806	1050.4996	1072.7729	1118.8739	1120.5787	1143.1592	1176.0856	1196.2241	1236.1239	1291.4456	1322.3991	1352.3451	1381.4941	1422.0932	1440.3454	1471.8966	1481.4472	1507.698	1526.5749	1769.5076	1827.2372	2880.4192	3035.6957	3041.6809	3042.2477	3077.2615	3087.6729	3093.9595	3104.178	3162.096
CC(=O)N1CC(C1)C=O	CC(=O)N1CC(C1)C=O	
InChI=1S/C6H9NO2/c1-5(9)7-2-6(3-7)4-8/h4,6H,2-3H2,1H3	InChI=1S/C6H9NO2/c1-5(9)7-2-6(3-7)4-8/h4,6H,2-3H2,1H3
