19
gdb 98363	3.81261	0.82289	0.72156	4.574	75.44	-0.2366	-0.0265	0.2101	1568.9264	0.156263	-456.381213	-456.370066	-456.369122	-456.420445	36.46	
C	 0.0934869941	 1.5011484784	-0.1329921788	-0.323495
N	 0.110976117	 0.0516601221	-0.0538399567	-0.373909
C	 0.6656452169	-0.5724162303	 1.0376418837	 0.516588
O	 1.2833964529	 0.0364033388	 1.8995401442	-0.424997
N	 0.4945946415	-1.9510442857	 1.082022845	-0.144635
C	-0.0873756796	-2.7053227145	-0.0166721192	-0.362047
C	 1.1506333735	-2.6784727694	 2.1508921904	-0.258803
C	 0.1554718915	-3.3550935087	 3.0783507412	 0.157985
O	 0.3128146492	-4.4406394336	 3.5722247904	-0.237602
H	 0.9612841946	 1.8784491361	 0.4072946108	 0.169489
H	 0.1515898145	 1.8150554429	-1.1789591608	 0.12159
H	-0.8078396159	 1.9378892848	 0.3169898047	 0.12253
H	-0.5559093452	-0.447153953	-0.6162431884	 0.242835
H	 0.4288347889	-2.513409541	-0.966257245	 0.137181
H	-0.0013433254	-3.7714043656	 0.2004899632	 0.150286
H	-1.1564653302	-2.4910927709	-0.1501569777	 0.129808
H	 1.8563716868	-3.4274446256	 1.7726771752	 0.120284
H	 1.7069317686	-1.9369393341	 2.736281636	 0.177595
H	-0.7567077936	-2.7441377206	 3.2730514317	 0.07932
14.6229	46.9381	58.4912	86.5112	119.3288	137.7088	173.0463	229.3194	334.1063	338.7152	360.341	418.1548	451.2071	568.6198	654.6758	760.5879	765.645	856.5877	1007.4099	1056.1474	1071.7413	1109.7294	1144.7466	1152.7035	1167.8082	1197.416	1240.0418	1313.841	1336.9696	1371.5015	1411.1076	1440.4636	1446.3441	1474.064	1491.4805	1493.27	1507.6235	1524.8056	1562.0631	1759.8203	1836.8592	2868.4617	3000.467	3017.1532	3031.6182	3048.7511	3088.5435	3089.1736	3128.8077	3161.5363	3664.2481
CNC(=O)N(C)CC=O	CNC(=O)N(C)CC=O	
InChI=1S/C5H10N2O2/c1-6-5(9)7(2)3-4-8/h4H,3H2,1-2H3,(H,6,9)	InChI=1S/C5H10N2O2/c1-6-5(9)7(2)3-4-8/h4H,3H2,1-2H3,(H,6,9)
