21
gdb 116489	2.46795	1.33661	1.06779	1.9354	80.03	-0.2346	0.0137	0.2484	1213.8275	0.184233	-424.220183	-424.21135	-424.210405	-424.254134	33.66	
O	 0.216050755	 0.238956658	-1.6668018855	-0.426131
C	-0.2173776463	 0.4373500723	-0.3308812536	-0.06187
C	-1.4449699371	-0.42934179	 0.0451921761	-0.057392
C	-1.1828837837	-1.9129042106	-0.2370180477	-0.108378
O	-0.0427128326	-2.4388337907	 0.4208988546	-0.250653
C	-0.2607674244	-2.8037799137	 1.7710461512	-0.067758
C	-0.2622173137	-1.6344415029	 2.7594499556	-0.25703
C	-1.358200052	-0.6068588621	 2.5949568498	-0.052933
C	-1.8651507085	-0.1141817596	 1.4623487493	-0.0854
H	 0.7417495503	-0.5666243761	-1.6823842901	 0.292775
H	 0.5921614418	 0.2413385393	 0.3830750155	 0.102154
H	-0.4834301689	 1.4955987966	-0.2445561053	 0.107405
H	-2.2596361028	-0.1399780703	-0.6318698783	 0.080138
H	-2.0758839615	-2.5038920309	 0.016703629	 0.09133
H	-0.9936006676	-2.0358412554	-1.3086825277	 0.103467
H	-1.2071573607	-3.3614250625	 1.8576059685	 0.090243
H	 0.5557752255	-3.4865783313	 2.0300433777	 0.102755
H	-0.3256242297	-2.0643096045	 3.7670161303	 0.101987
H	 0.7176707074	-1.1375033439	 2.7121999966	 0.120059
H	-1.7519403874	-0.2076507299	 3.5277826399	 0.087883
H	-2.6294596532	 0.6549572684	 1.5559885939	 0.08735
43.6178	113.8539	164.7644	229.8865	256.18	308.5663	363.4688	392.5904	433.3911	482.4909	523.006	603.0204	723.9011	748.2896	782.4579	824.5364	892.059	934.1891	962.3128	992.9851	1007.9103	1051.1736	1068.4343	1074.6166	1097.1532	1109.1644	1157.9883	1201.1036	1237.801	1260.6039	1293.1246	1313.4517	1341.8877	1362.9162	1379.8974	1387.5597	1398.4964	1412.6881	1428.2663	1435.7921	1464.9374	1487.0134	1492.3708	1501.5383	1721.9361	2976.3281	2991.1233	3006.4568	3020.4476	3030.2751	3050.3147	3066.5122	3070.2989	3083.8544	3129.0801	3153.5473	3827.3842
OCC1COCCC=C1	OC[C@H]1COCCC=C1	
InChI=1S/C7H12O2/c8-5-7-3-1-2-4-9-6-7/h1,3,7-8H,2,4-6H2	InChI=1S/C7H12O2/c8-5-7-3-1-2-4-9-6-7/h1,3,7-8H,2,4-6H2/t7-/m0/s1
