22
gdb 118831	3.04528	0.88334	0.77394	3.8103	79.08	-0.2359	0.0634	0.2992	1544.2092	0.192907	-441.452177	-441.441573	-441.440628	-441.488422	38.551	
C	 0.2637391469	 1.8011578743	-0.0141493813	-0.453604
C	-0.2467559966	 0.3863570884	 0.1852227683	 0.323904
C	-1.6762334735	 0.1604829173	-0.3045171281	-0.279399
C	-1.7988045447	-0.0592900173	-1.8122400593	-0.068183
O	-1.3184660009	-1.3713946209	-2.0984367089	-0.413563
N	 0.7406508604	-0.6855483038	-0.0589376993	-0.384145
C	 0.2285429104	-0.4756255797	 1.309328498	-0.079524
C	 1.290018482	-0.103843349	 2.3216297172	-0.074243
O	 2.2260867634	-1.158846888	 2.4713538275	-0.422484
H	 1.3324224603	 1.8711364411	 0.1917994149	 0.13186
H	 0.1116998255	 2.1235461748	-1.0507867956	 0.112818
H	-0.26784632	 2.507629279	 0.6335881591	 0.113985
H	-2.1139223385	-0.7166083204	 0.185626155	 0.110893
H	-2.2935665819	 1.021996277	-0.0228597428	 0.101908
H	-2.8522095949	 0.0396438815	-2.1155471078	 0.091148
H	-1.224246027	 0.6997673214	-2.3628626289	 0.096388
H	-1.2010524189	-1.4561389202	-3.0488245671	 0.291395
H	 0.2806828882	-1.468489465	-0.5154249775	 0.243502
H	-0.4879677469	-1.2088217475	 1.6784755874	 0.083113
H	 1.7917336788	 0.8303527089	 2.0334976423	 0.083814
H	 0.8380295701	 0.0543854771	 3.3068184198	 0.102092
H	 2.5087163376	-1.373605249	 1.5734847772	 0.288326
47.2889	60.2725	119.477	168.1245	172.6447	220.062	250.5551	274.8683	319.5481	362.2896	415.5793	441.3842	458.6757	485.7296	618.6461	695.952	823.5068	864.8488	884.8785	922.971	980.5168	995.2211	1012.1978	1035.2698	1057.0605	1082.4684	1098.6626	1111.0211	1145.4055	1187.935	1200.3073	1261.8099	1267.7807	1287.0431	1299.1967	1358.2556	1374.4002	1384.8953	1417.7479	1430.5806	1449.2624	1462.5098	1469.8063	1493.7831	1496.6785	1508.2831	1519.8491	2981.2717	3005.8956	3014.3747	3030.3812	3036.5894	3068.6844	3077.2338	3085.051	3111.3663	3139.4478	3517.0754	3776.7799	3836.868
CC1(CCO)NC1CO	C[C@@]1(CCO)N[C@H]1CO	
InChI=1S/C6H13NO2/c1-6(2-3-8)5(4-9)7-6/h5,7-9H,2-4H2,1H3	InChI=1S/C6H13NO2/c1-6(2-3-8)5(4-9)7-6/h5,7-9H,2-4H2,1H3/t5-,6-/m0/s1
