15
gdb 34284	3.61464	1.54895	1.3904	1.7192	71.11	-0.2514	-0.0101	0.2413	941.2887	0.112393	-420.570266	-420.56335	-420.562406	-420.601301	28.061	
C	 0.050887303	-1.159724227	 0.071877785	-0.308712
C	 0.043833743	 0.0393406652	 0.0401452049	 0.111503
C	 0.0015999619	 1.4825433905	-0.0438253023	 0.368327
O	-0.6879270395	 2.0547168823	 1.1110149302	-0.315544
C	-0.1778055176	 3.3879516345	 1.1878287774	-0.082719
C	 0.7626794146	 3.4441344155	-0.0596874991	-0.052709
O	 1.2737108639	 2.1012199231	 0.006624608	-0.260246
C	-0.1531797848	 3.3828180545	-1.2731028974	-0.099142
C	-0.6395959823	 2.1423898582	-1.2711936286	-0.118316
H	 0.0669466361	-2.221238841	 0.1115683862	 0.194457
H	-0.9937339971	 4.1163816016	 1.1482859876	 0.107234
H	 0.3929250315	 3.5106931222	 2.1139034916	 0.11597
H	 1.5659759403	 4.1767147331	-0.0365512913	 0.097917
H	-0.4365684541	 4.2237314547	-1.8903965292	 0.116755
H	-1.4070328489	 1.6894739126	-1.8811064327	 0.125224
145.3345	159.2726	292.3007	395.0424	453.8163	490.7018	541.388	556.9547	644.1104	653.4233	688.4385	718.6164	736.5728	803.8381	852.1312	860.045	894.5287	916.9074	936.6972	992.931	1010.5546	1038.2296	1073.0736	1095.0068	1188.7182	1247.2586	1272.6136	1314.9734	1331.2192	1347.1357	1509.219	1635.7418	2263.4388	3040.731	3092.3712	3155.5182	3227.5643	3257.3773	3501.0697
C#CC12OCC(O1)C=C2	C#C[C@@]12OC[C@@H](O1)C=C2	
InChI=1S/C7H6O2/c1-2-7-4-3-6(9-7)5-8-7/h1,3-4,6H,5H2	InChI=1S/C7H6O2/c1-2-7-4-3-6(9-7)5-8-7/h1,3-4,6H,5H2/t6-,7+/m0/s1
