12
gdb 130840	2.36046	1.57134	0.94336	2.4078	71.08	-0.2876	-0.0986	0.189	1112.641	0.079736	-431.715141	-431.707907	-431.706963	-431.747382	25.632	
O	 0.0792959201	-0.0649421748	-0.0018170785	-0.2764
C	 0.0042487347	 1.1440133892	 0.0095049109	 0.079221
C	 1.1943521571	 1.9967564443	 0.003450641	 0.209369
C	 1.3765305909	 3.3823719021	 0.0133788762	 0.021965
C	 2.7807938532	 3.5559702555	-0.0010590221	-0.070932
N	 3.4123229785	 2.3850506505	-0.0181454738	-0.188523
N	 2.439348835	 1.469708892	-0.0151327432	-0.226675
C	 0.3691967645	 4.3751979586	 0.0333162701	 0.206115
N	-0.4543365361	 5.1891525013	 0.0496183534	-0.333225
H	-0.9620602559	 1.681866001	 0.0250048808	 0.12115
H	 3.3367200067	 4.4805076405	 0.0006048269	 0.154722
H	 2.6534066013	 0.4831919498	-0.0260573915	 0.303215
114.8747	145.6758	177.8785	218.0392	280.5125	448.2993	519.7562	558.6252	624.8891	634.3621	701.2642	724.2463	799.3425	897.7748	963.4466	1032.4852	1138.9871	1169.1003	1232.5927	1317.56	1372.8337	1392.0748	1445.9751	1496.7558	1587.19	1778.7075	2350.2669	2966.7709	3268.9695	3640.9981
O=CC1=C(C=NN1)C#N	O=Cc1c(cn[nH]1)C#N	
InChI=1S/C5H3N3O/c6-1-4-2-7-8-5(4)3-9/h2-3H,(H,7,8)	InChI=1S/C5H3N3O/c6-1-4-2-7-8-5(4)3-9/h2-3H,(H,7,8)
