15
gdb 69643	4.21928	1.12583	1.11666	4.4888	67.29	-0.2562	-0.0503	0.2059	1119.1945	0.108735	-457.673673	-457.665634	-457.66469	-457.706357	29.715	
C	-0.0399274314	 1.5309121246	-0.0856429685	-0.51209
C	 0.126948184	 0.0524001787	 0.0004027409	 0.403008
O	-0.8225719014	-0.7467990625	 0.7060995985	-0.24619
C	 0.5538253866	-0.8711303828	 1.052102574	-0.166611
C	 1.2399451124	-1.8198242967	-0.0153576432	 0.304052
O	 0.2646244821	-2.1878702236	-0.9852852557	-0.222953
C	 0.7983400887	-0.8906263571	-1.0883583932	-0.118401
C	 2.5125297978	-2.5598970981	 0.1016056052	 0.054701
O	 2.918639914	-3.3635870798	-0.6990137731	-0.253309
H	 0.8942324869	 2.0084578146	-0.399015326	 0.133256
H	-0.8137284731	 1.7910508099	-0.8162277983	 0.14367
H	-0.3324423973	 1.9375949513	 0.8856588414	 0.144871
H	 0.8561874471	-0.7123245139	 2.0802922159	 0.12225
H	 1.3118168371	-0.606010685	-2.000053522	 0.135362
H	 3.0931390367	-2.2961395795	 1.0145447841	 0.078383
87.8419	147.6499	183.4997	209.8922	271.5684	306.5917	391.6796	436.9733	504.3858	581.0147	710.3855	751.2043	782.0667	796.3002	845.3614	882.2476	917.8357	990.4183	997.9889	1035.2189	1038.0935	1099.6919	1101.7835	1165.217	1211.9482	1263.7607	1393.6841	1409.68	1434.2834	1468.2983	1485.294	1496.117	1813.2848	2874.0379	3036.7893	3100.1786	3125.3614	3188.108	3193.3089
CC12OC1C1(OC21)C=O	C[C@]12O[C@H]1[C@]1(O[C@@H]21)C=O	
InChI=1S/C6H6O3/c1-5-3(8-5)6(2-7)4(5)9-6/h2-4H,1H3	InChI=1S/C6H6O3/c1-5-3(8-5)6(2-7)4(5)9-6/h2-4H,1H3/t3-,4+,5+,6-/m1/s1
