21
gdb 102528	2.28952	1.04822	0.76223	0.8967	75.99	-0.2478	-0.0259	0.2219	1485.4137	0.179627	-461.361109	-461.350195	-461.349251	-461.398218	38.385	
C	-0.0911043386	 1.5645556771	 0.0659174641	-0.425143
C	 0.0350635087	 0.0285402323	 0.0111069283	-0.07123
C	-1.3748767315	-0.5354991729	 0.0339766424	 0.159135
O	-1.8447915614	-1.2100114847	 0.9134491515	-0.256688
C	 0.791337687	-0.4837415192	-1.2433027948	-0.026572
C	 2.2378662222	 0.0486817178	-1.3210691655	-0.063123
O	 2.8315720628	-0.1335859753	-2.5870204962	-0.430563
C	 0.7763733209	-2.0182065474	-1.2601773414	-0.101922
O	 1.4158938372	-2.4788641659	-2.4516575333	-0.425241
H	 0.8834441377	 2.0452819115	 0.1689083788	 0.138669
H	-0.5647206305	 1.9540790485	-0.8418443569	 0.127997
H	-0.6997930105	 1.8682725973	 0.9230587751	 0.132128
H	 0.5338480224	-0.3317095026	 0.9186761785	 0.094398
H	-1.9851901793	-0.2480714217	-0.856835125	 0.073407
H	 0.2675693834	-0.1277516577	-2.1414971546	 0.09389
H	 2.2570365415	 1.1256549954	-1.1342779689	 0.103126
H	 2.8296986971	-0.4263247296	-0.5168289742	 0.077243
H	 2.6779235734	-1.0570981644	-2.8274295179	 0.289803
H	 1.3005132807	-2.3937402787	-0.3674143372	 0.10322
H	-0.2541573308	-2.3985335345	-1.2183447691	 0.110289
H	 1.5237272075	-3.4325950152	-2.3946840336	 0.297177
32.8022	67.097	86.5718	130.6086	169.5402	225.6787	253.2179	270.8112	313.2885	331.3907	353.4608	388.0119	443.0624	454.4611	560.5999	614.382	851.4043	892.4091	911.3124	934.1303	973.0002	1029.4792	1059.6153	1082.191	1111.7327	1125.8854	1141.5146	1160.6994	1228.3645	1235.7481	1270.7642	1292.6148	1316.0836	1353.5102	1365.5691	1390.6548	1407.0076	1427.8984	1464.9861	1471.9909	1493.739	1506.8488	1510.0369	1519.4944	1831.5861	2837.7196	2932.0572	2981.5621	3013.9259	3028.3626	3040.996	3049.7374	3084.6039	3107.4428	3132.6102	3746.6557	3836.1888
CC(C=O)C(CO)CO	C[C@@H](C=O)C(CO)CO	
InChI=1S/C6H12O3/c1-5(2-7)6(3-8)4-9/h2,5-6,8-9H,3-4H2,1H3	InChI=1S/C6H12O3/c1-5(2-7)6(3-8)4-9/h2,5-6,8-9H,3-4H2,1H3/t5-/m0/s1
