22
gdb 98684	3.25075	0.90413	0.85191	3.8078	84.8	-0.2352	-0.0138	0.2214	1519.0583	0.191364	-404.356841	-404.346271	-404.345326	-404.392677	38.519	
C	-0.3306607739	 1.6690927173	-0.04836526	-0.378732
C	-0.3913191494	 0.174288377	-0.3473189494	-0.286883
C	 0.9251995675	-0.3980903772	-0.8602919943	 0.407484
O	 1.8939235592	 0.3002675423	-1.0604827033	-0.313767
C	 0.9285952724	-1.8858300574	-1.0706661349	-0.183631
N	 1.9224758627	-2.4547076972	-2.0053477316	-0.343796
C	 2.041419164	-2.7915952388	-0.5893414782	 0.325603
C	 3.2601548907	-2.221535161	 0.1054600451	-0.446837
C	 1.642578694	-4.1842499308	-0.1386787675	-0.452208
H	 0.4148850551	 1.8829131266	 0.7219715221	 0.129581
H	-0.0426148566	 2.2309113114	-0.9402128361	 0.134823
H	-1.3012771881	 2.0358929961	 0.2970391265	 0.107524
H	-0.6881487574	-0.4017971722	 0.5408449365	 0.119133
H	-1.1635700324	-0.0490397352	-1.097955775	 0.121957
H	-0.0626192319	-2.3363957243	-1.0569240075	 0.076917
H	 1.4924276837	-3.2189466862	-2.5223457201	 0.228736
H	 3.4963057234	-1.2313607979	-0.2826462568	 0.167362
H	 3.0958976352	-2.154394187	 1.1866656472	 0.107879
H	 4.1204629594	-2.8793865753	-0.061780395	 0.114473
H	 2.453363502	-4.894569061	-0.3388048548	 0.127102
H	 1.442290995	-4.2102232845	 0.937809117	 0.126503
H	 0.7456143152	-4.5363146447	-0.6587939199	 0.110779
48.4217	78.2767	134.4019	163.6973	194.2206	205.8594	248.4708	263.9487	327.3475	345.1882	377.7968	427.289	438.6904	571.6433	662.8301	696.0589	788.6448	831.7369	862.9137	913.9931	960.0953	975.3539	997.0682	1025.6723	1028.7977	1077.1119	1093.9139	1104.3529	1138.8829	1155.7045	1195.8882	1277.345	1305.5513	1350.471	1364.4979	1411.2542	1413.5809	1421.1617	1448.3527	1452.6638	1480.6738	1486.9913	1491.3774	1497.6792	1505.0842	1509.0034	1801.6512	3009.392	3024.0564	3034.4477	3035.4379	3051.2767	3088.2289	3092.6197	3099.9399	3115.6829	3121.535	3128.3522	3161.5552	3485.1627
CCC(=O)C1NC1(C)C	CCC(=O)[C@H]1NC1(C)C	
InChI=1S/C7H13NO/c1-4-5(9)6-7(2,3)8-6/h6,8H,4H2,1-3H3	InChI=1S/C7H13NO/c1-4-5(9)6-7(2,3)8-6/h6,8H,4H2,1-3H3/t6-/m1/s1
