13
gdb 128759	7.15905	0.75969	0.70072	5.7164	67.03	-0.272	-0.0683	0.2037	1510.8167	0.087693	-485.997542	-485.989373	-485.988428	-486.031843	27.17	
C	 0.0086783204	 1.3785234157	-0.0704523749	-0.256721
O	-0.1227596327	-0.04169671	 0.0561320514	-0.1732
C	 0.5877034764	-0.6186100757	 1.0130256994	 0.156833
N	 0.5999966144	-1.8874364083	 1.1111620007	-0.304936
C	 1.251120274	-2.4383188846	 2.1828180314	 0.469337
N	 1.3516176381	-1.9474940005	 3.3948875737	-0.170753
O	 2.0456169082	-2.8836830744	 4.0843513313	-0.148085
N	 2.341674207	-3.947342464	 3.2269031808	 0.051836
N	 1.8620233721	-3.6841294162	 2.0999212737	-0.207037
H	 0.9784600955	 1.6382981066	-0.5064584663	 0.147565
H	-0.7893265777	 1.6969640372	-0.7403008726	 0.162472
H	-0.1085589141	 1.8729137066	 0.8992642389	 0.145188
H	 1.1359420085	 0.0574731978	 1.6812970026	 0.1275
50.5147	73.6655	111.7051	170.0204	192.4981	317.9536	409.8484	426.1557	549.1238	663.3777	689.8286	788.6343	832.0981	957.2801	1015.7474	1048.581	1058.4465	1118.2253	1170.0355	1177.6623	1273.3106	1333.8857	1398.4084	1479.2229	1491.4062	1499.9482	1524.1992	1572.1059	1737.9332	3034.6052	3053.111	3110.2208	3163.0928
COC=NC1=NON=N1	COC=Nc1nonn1	
InChI=1S/C3H4N4O2/c1-8-2-4-3-5-7-9-6-3/h2H,1H3	InChI=1S/C3H4N4O2/c1-8-2-4-3-5-7-9-6-3/h2H,1H3
