21
gdb 91511	2.43643	1.41314	1.09871	2.8781	83.69	-0.2356	-0.0105	0.2251	1203.531	0.18109	-387.094134	-387.084762	-387.083818	-387.128374	35.243	
C	 0.1430209534	 1.7553556276	 0.1358820742	-0.410684
C	 0.0704447838	 0.2327295874	 0.1210566401	-0.059759
C	 0.9474622524	-0.5607174601	-0.9107229005	-0.252991
C	 1.5700924375	-1.3643872147	 0.2344580421	-0.073773
C	 2.243885985	-0.467691399	 1.2045373109	-0.321506
C	 0.7308976836	-0.557138992	 1.2697335179	 0.250662
C	 0.0926627815	-1.1409222541	 2.4759421791	 0.281467
C	-1.370826491	-0.8103103265	 2.7158815291	-0.495728
O	 0.7085039693	-1.8684347053	 3.2306698119	-0.325422
H	 1.172702531	 2.111821841	 0.2399245042	 0.118213
H	-0.2595727994	 2.1731384701	-0.7933409088	 0.116958
H	-0.4377761348	 2.1720899467	 0.9663697179	 0.116594
H	-0.9737305026	-0.0757050937	 0.0116618902	 0.074874
H	 0.3503653143	-1.1601253254	-1.6004715448	 0.106508
H	 1.6573305562	 0.0370953362	-1.4928352327	 0.100209
H	 1.7170699415	-2.437187855	 0.252800106	 0.106313
H	 2.7293091939	-0.9572057001	 2.0409693863	 0.143362
H	 2.7085604905	 0.4554899152	 0.8682098065	 0.109
H	-1.9933235088	-1.2300620483	 1.91733707	 0.139654
H	-1.6836432784	-1.2289879039	 3.6729248167	 0.140105
H	-1.533667409	 0.273074994	 2.7100774438	 0.135942
55.0237	126.2597	145.0821	187.6507	207.0439	223.2454	293.0942	374.0929	405.7577	450.5026	536.9157	592.8839	627.265	674.298	799.5685	829.8477	850.0552	878.5354	929.2623	952.3739	958.1024	1020.6979	1024.6438	1050.4495	1075.9371	1089.6161	1107.9833	1133.5356	1150.1383	1196.4578	1232.0043	1253.0382	1282.6915	1305.02	1362.926	1373.237	1397.132	1416.2109	1462.1769	1471.2986	1475.5129	1491.8625	1496.6065	1497.3452	1773.5224	3029.0414	3034.6774	3044.5452	3053.0337	3093.2559	3095.6307	3101.1973	3111.9004	3118.603	3152.2155	3193.5165	3224.6715
CC1CC2CC12C(C)=O	C[C@H]1C[C@H]2C[C@@]12C(=O)C	
InChI=1S/C8H12O/c1-5-3-7-4-8(5,7)6(2)9/h5,7H,3-4H2,1-2H3	InChI=1S/C8H12O/c1-5-3-7-4-8(5,7)6(2)9/h5,7H,3-4H2,1-2H3/t5-,7-,8-/m0/s1
