21
gdb 90293	3.0455	1.222	1.09503	2.1527	85.15	-0.2312	0.0142	0.2454	1208.6125	0.183352	-387.07571	-387.067272	-387.066328	-387.108559	33.599	
C	-0.1301872626	 1.5460086309	-0.16033978	-0.390836
C	-0.0098716762	 0.0326909444	-0.0529976742	-0.00648
C	 1.2372565366	-0.5615128794	-0.8292251126	-0.338873
C	 1.9228448584	-0.5870489794	 0.5143416318	 0.329432
C	 2.9862305368	-0.1992988166	 1.2094585503	-0.315348
C	 2.5727753505	 0.0907941356	 2.6537685148	 0.132349
O	 3.2301380336	 1.2183681212	 3.2130968674	-0.431815
C	 1.0151392282	 0.2533468014	 2.5611262433	-0.286387
C	 0.6367460121	-0.5205638464	 1.2849417804	-0.050018
H	 0.8236561932	 2.0384822535	 0.060063288	 0.111428
H	-0.427264007	 1.8407634225	-1.1723243932	 0.115693
H	-0.8796523334	 1.9378663418	 0.5355623385	 0.117996
H	-0.9618669383	-0.4394781326	-0.3119156638	 0.069697
H	 1.0205652381	-1.5571108106	-1.2298589011	 0.110985
H	 1.6851671297	 0.0477178389	-1.6193296224	 0.107552
H	 3.9979956859	-0.0242346656	 0.8618712849	 0.094566
H	 2.8400517002	-0.7300844526	 3.3316552172	 0.091755
H	 3.085207796	 1.9589089642	 2.6128728709	 0.269736
H	 0.5036778727	-0.0894014465	 3.4644825493	 0.097718
H	 0.8015385923	 1.3236533794	 2.4527807437	 0.094391
H	 0.2088029034	-1.503535064	 1.5134909568	 0.076458
73.6812	143.2033	224.294	260.7827	323.5846	327.0909	361.7275	386.686	472.3864	496.2232	571.0173	642.297	740.3387	786.5923	795.8126	830.8017	848.4908	894.2402	923.7291	962.4773	1009.5911	1027.3171	1037.7436	1060.1621	1078.9438	1091.2412	1136.6504	1148.9716	1180.1308	1203.1218	1224.4988	1239.4575	1260.9077	1267.3599	1310.3318	1322.4777	1333.8265	1359.5336	1405.9824	1428.9436	1474.2762	1485.553	1493.566	1501.9234	1733.7989	3023.1662	3026.2605	3029.8779	3040.8557	3044.9218	3060.2702	3093.7422	3096.0767	3098.7633	3099.9666	3198.4433	3787.9372
CC1CC2=CC(O)CC12	C[C@H]1C[C]2[CH][C@@H](O)C[C@@H]12	
InChI=1S/C8H12O/c1-5-2-6-3-7(9)4-8(5)6/h3,5,7-9H,2,4H2,1H3	InChI=1S/C8H12O/c1-5-2-6-3-7(9)4-8(5)6/h3,5,7-9H,2,4H2,1H3/t5-,7+,8-/m0/s1
