18
gdb 93266	2.29907	1.66333	1.22278	2.4463	67.6	-0.2503	0.0225	0.2727	1053.783	0.147317	-476.267299	-476.258264	-476.25732	-476.300505	34.358	
C	 0.5436896204	 1.5077293109	 0.1028720987	-0.412403
C	 0.0229143951	 0.0714479408	-0.0336606354	 0.226984
O	-1.3826634953	 0.0577932453	-0.180040981	-0.489603
C	 0.7121071986	-0.7175036233	-1.1681922899	 0.089368
O	 1.1070605371	 0.0200475715	-2.3022917285	-0.428602
C	 1.9662427666	-1.308937044	-0.4921646213	-0.191997
N	 1.5441469801	-1.4429410231	 0.8951855178	-0.323893
C	 0.4168285725	-0.7516454885	 1.2048331726	 0.385412
O	-0.2090669437	-0.7640068127	 2.2462602575	-0.406037
H	 1.6348386008	 1.5454583994	 0.1768060505	 0.119415
H	 0.2411223409	 2.0915886599	-0.7692975668	 0.12126
H	 0.1168812379	 1.9636670966	 1.0003629121	 0.127673
H	-1.7355438606	-0.0162560485	 0.7193299922	 0.289763
H	 0.0290712751	-1.5343056487	-1.4412524676	 0.091327
H	 0.3104748338	 0.2869876783	-2.7725258275	 0.295892
H	 2.2510209934	-2.274193596	-0.9192975539	 0.122723
H	 2.8110262153	-0.6184761539	-0.6094870103	 0.12527
H	 1.9985243721	-2.041442104	 1.5667085008	 0.257448
87.2365	170.8605	214.3896	234.8032	254.0689	279.4317	306.6796	334.5545	396.66	426.2011	501.4695	512.6052	551.2127	630.7346	679.595	733.3634	758.5665	858.9622	958.543	1000.8639	1021.1249	1063.5382	1097.3307	1148.705	1161.5952	1204.0888	1218.9256	1263.7982	1287.0399	1321.3824	1368.9195	1385.5042	1405.3373	1433.0647	1456.5212	1485.2416	1490.4062	1531.3577	1825.6334	3007.5535	3028.084	3045.5363	3089.0332	3119.0356	3131.7659	3638.8878	3722.7537	3821.7719
CC1(O)C(O)CNC1=O	C[C@@]1(O)[C@@H](O)CNC1=O	
InChI=1S/C5H9NO3/c1-5(9)3(7)2-6-4(5)8/h3,7,9H,2H2,1H3,(H,6,8)	InChI=1S/C5H9NO3/c1-5(9)3(7)2-6-4(5)8/h3,7,9H,2H2,1H3,(H,6,8)/t3-,5+/m0/s1
