16
gdb 30386	4.10514	1.1316	0.89268	4.327	81.55	-0.2032	-0.0202	0.183	1262.6874	0.125157	-434.095325	-434.086954	-434.086009	-434.128425	30.938	
C	 0.0319300288	 1.4691902688	-0.0250928049	-0.326523
N	 0.1248715294	 0.0246434293	-0.0608842992	-0.321674
C	 0.6198982805	-0.6143091399	 0.9275317173	 0.369736
C	 0.7165424171	-2.0643940432	 0.9115856366	-0.289672
C	 1.2541422242	-2.722878865	 1.9542453767	 0.431296
N	 1.5038407928	-4.070671757	 2.076808332	-0.574775
O	 1.6997670652	-2.054707191	 3.0667413649	-0.224395
C	 1.5744422242	-0.6933388088	 3.0389009429	 0.11674
N	 1.1034687668	 0.0201543429	 2.1116065458	-0.307735
H	 0.5831674632	 1.8836322037	-0.8790104631	 0.115323
H	-1.01628469	 1.7632156095	-0.1650377935	 0.114508
H	 0.4085408541	 1.9289160262	 0.8951581108	 0.121746
H	 0.3576717812	-2.6008478202	 0.0433182536	 0.104482
H	 0.9901006363	-4.6545706236	 1.4341136272	 0.266323
H	 1.4884472205	-4.4130160893	 3.0272509173	 0.2627
H	 1.9541370056	-0.2749322925	 3.9670942656	 0.141918
88.2015	114.2273	163.6723	233.085	274.3783	310.6818	376.3703	427.2065	454.5968	535.3441	580.2249	642.7149	680.0693	760.3087	782.5452	842.6462	891.0262	927.9785	954.1567	1036.3494	1083.3603	1128.7196	1134.1134	1152.9433	1253.8012	1304.5381	1395.5813	1424.7453	1431.4111	1488.8878	1495.0821	1625.8419	1677.1228	1716.9278	1756.0532	3006.379	3053.4665	3084.7812	3180.7491	3220.5403	3568.4605	3678.2469
CN=C1C=C(N)OC=N1	C[N]C1=C[C@@H](N)OC=N1	
InChI=1S/C5H7N3O/c1-7-5-2-4(6)9-3-8-5/h2-3H,6H2,1H3	InChI=1S/C5H8N3O/c1-7-5-2-4(6)9-3-8-5/h2-4H,6H2,1H3/t4-/m0/s1
