21
gdb 41478	3.01526	1.62961	1.26174	1.5282	81.16	-0.2286	0.0687	0.2973	1060.8258	0.185114	-387.074681	-387.067239	-387.066295	-387.10671	30.204	
C	 0.2663002391	 1.6134439607	 0.3008650881	-0.091582
O	 1.5656981582	 1.4337944967	-0.3128181787	-0.334284
C	 1.2758044722	 0.0598901055	-0.6264054769	 0.492184
C	 1.7219301919	-0.4535645048	-1.9942442136	-0.317936
C	 2.6047243779	-1.6833595434	-1.6742212207	-0.20009
C	 2.0253994058	-2.2444497451	-0.3561297955	-0.232313
C	 1.6769286263	-0.9857110946	 0.4570652094	-0.043803
C	 0.2503786878	-0.8757462692	 1.0838301627	-0.265796
C	-0.1502827731	 0.1614047279	 0.0012153952	-0.148128
H	 0.3398514634	 1.8838401645	 1.3623357338	 0.095957
H	-0.3125268288	 2.3840328755	-0.2232262978	 0.100688
H	 0.8559569972	-0.7395552588	-2.6020806506	 0.100784
H	 2.2552235652	 0.3306387583	-2.5380853247	 0.114308
H	 2.6223215005	-2.4224226888	-2.4801943551	 0.094021
H	 3.6391749849	-1.3592087425	-1.5104888177	 0.104663
H	 1.1156528531	-2.8201987965	-0.5699856856	 0.092942
H	 2.7156812572	-2.917611284	 0.1603338975	 0.098408
H	 2.5017991079	-0.6700013578	 1.101211447	 0.072367
H	-0.3180923455	-1.8084610091	 1.0336494005	 0.098792
H	 0.2082472488	-0.5056666993	 2.1120295828	 0.098373
H	-1.07868013	 0.0125627348	-0.5507531403	 0.070444
64.1427	185.847	208.9277	325.8465	358.9617	431.7327	448.969	542.7519	648.3221	709.4089	790.5176	814.253	832.4545	862.1065	866.9161	910.9057	919.5842	967.7444	987.8677	1003.1923	1014.7801	1026.7728	1045.6519	1089.1005	1099.1735	1127.8177	1155.3819	1180.1272	1192.6949	1208.112	1222.5618	1249.8067	1262.6809	1272.3729	1301.0141	1315.4693	1330.24	1340.8986	1348.9245	1353.3323	1476.1133	1478.0914	1491.9595	1504.1691	1520.5452	3006.441	3023.3234	3038.7099	3041.4712	3048.5519	3051.6972	3069.5878	3087.1032	3090.6882	3099.4448	3102.0181	3108.529
C1OC23CCCC2CC13	C1O[C@@]23CCC[C@@H]2C[C@@H]13	
InChI=1S/C8H12O/c1-2-6-4-7-5-9-8(6,7)3-1/h6-7H,1-5H2	InChI=1S/C8H12O/c1-2-6-4-7-5-9-8(6,7)3-1/h6-7H,1-5H2/t6-,7+,8+/m1/s1
