17
gdb 33102	4.49629	0.85174	0.74038	5.7349	72.03	-0.214	0.0212	0.2352	1504.851	0.136973	-455.187047	-455.178421	-455.177477	-455.221046	31.255	
C	 0.1231691141	 1.5185529	 0.1577929418	-0.310275
N	 0.1489455522	 0.0647797004	 0.0436776658	-0.294722
H	 1.7012538175	-2.1823667866	 0.4088402216	 0.279487
H	-0.7364837861	-0.3190941159	 0.3593908107	 0.225438
C	 0.4123993935	-0.4029553445	-1.3161251848	-0.260825
C	 0.5128545339	-1.8882913975	-1.34156715	 0.290603
C	-0.007045264	-2.8203511439	-2.1517927588	-0.131617
O	 0.4169287885	-4.0754421151	-1.7683589088	-0.211016
C	 1.2247451136	-3.9409585951	-0.6485926753	 0.486034
O	 1.7224517273	-4.8574018093	-0.0556915507	-0.400414
N	 1.2967777412	-2.5853491334	-0.4189238646	-0.405534
H	 1.1170749142	 1.919087835	-0.0708398899	 0.128168
H	-0.5985444317	 2.0117833931	-0.5162405546	 0.101553
H	-0.1213387205	 1.7986616838	 1.1858983244	 0.127091
H	-0.3381839712	-0.08202698	-2.0599238024	 0.100837
H	 1.3683788656	 0.0411189945	-1.6296815674	 0.124444
H	-0.6457032881	-2.7620465854	-3.0155908872	 0.150749
68.6913	99.5957	114.9014	203.4532	240.7884	313.223	336.815	394.8525	483.4841	530.9257	616.3674	696.3067	721.5383	768.4388	780.0599	803.7013	912.5719	974.8441	990.8476	1015.5045	1094.2606	1131.4119	1156.1431	1179.8166	1182.7285	1239.582	1268.4499	1334.7268	1387.8294	1427.009	1459.7176	1483.9116	1491.0337	1503.1703	1517.3101	1713.973	1899.5705	2949.8097	2957.457	3011.5049	3061.7665	3111.9986	3295.1154	3512.533	3686.2906
C[NH2+]CC1=COC([O-])=N1	CNCc1coc(=O)[nH]1	
InChI=1S/C5H8N2O2/c1-6-2-4-3-9-5(8)7-4/h3,6H,2H2,1H3,(H,7,8)	InChI=1S/C5H8N2O2/c1-6-2-4-3-9-5(8)7-4/h3,6H,2H2,1H3,(H,7,8)
