20
gdb 59820	6.08532	0.50537	0.48403	2.54	82.83	-0.2594	-0.0403	0.2191	2257.0992	0.166125	-440.290031	-440.279064	-440.27812	-440.328654	37.054	
C	-0.0613589546	 1.4573288167	 0.2061909196	-0.368349
C	-0.0182569512	-0.0518846723	-0.0586529207	 0.057426
C	-1.4257767255	-0.6307867981	-0.2432032153	-0.368207
N	 0.7567139804	-0.2966023373	-1.2697838588	-0.207387
C	 1.7854323378	-1.0070515221	-1.175387069	 0.12106
O	 2.5280504231	-1.2950058275	-2.2719679162	-0.206809
C	 3.7476052361	-1.983260571	-2.0702238108	-0.165518
C	 3.97140478	-2.9317719229	-3.2393056336	 0.140841
O	 5.0161171212	-3.4882924949	-3.4414817274	-0.228577
H	 0.9463783878	 1.8565635899	 0.3540959987	 0.111902
H	-0.5099964954	 1.9785250775	-0.6449851695	 0.127491
H	-0.6534922365	 1.6749376462	 1.1007994469	 0.10981
H	 0.448375145	-0.5451432781	 0.8137700161	 0.05668
H	-1.9143191504	-0.1709784137	-1.1076849686	 0.127528
H	-1.3843932831	-1.7107420508	-0.4130495302	 0.111706
H	-2.0383355009	-0.44418283	 0.6445661194	 0.110027
H	 2.166180542	-1.4582754476	-0.2450914742	 0.078601
H	 4.5911719264	-1.2846984166	-2.0036417461	 0.146979
H	 3.7300819691	-2.5773731861	-1.1442967894	 0.137575
H	 3.0752103888	-3.0695795011	-3.882273441	 0.107222
16.8044	47.6617	64.202	100.5754	141.2852	213.426	237.8414	243.1295	264.1694	299.4659	393.0722	453.5754	464.8362	531.2226	629.0705	735.4704	857.3526	930.1772	955.0852	971.4369	983.1397	1032.6642	1083.2368	1111.2906	1135.6119	1172.5499	1187.351	1226.1612	1277.6826	1341.1208	1353.4386	1366.3121	1394.7831	1401.5009	1413.7981	1419.6948	1469.6609	1480.5631	1487.4081	1494.2787	1510.6725	1774.3687	1846.2963	2910.124	2924.963	2985.2176	3002.9117	3035.3174	3039.4372	3056.887	3108.9545	3112.2168	3113.1496	3117.806
CC(C)N=COCC=O	CC(C)N=COCC=O	
InChI=1S/C6H11NO2/c1-6(2)7-5-9-4-3-8/h3,5-6H,4H2,1-2H3	InChI=1S/C6H11NO2/c1-6(2)7-5-9-4-3-8/h3,5-6H,4H2,1-2H3
