23
gdb 101689	2.56588	1.09483	0.89469	2.3789	82.31	-0.2454	0.0758	0.3212	1415.7394	0.203009	-425.407689	-425.397159	-425.396214	-425.443586	39.348	
C	-0.2691656753	 1.54022942	 0.4028077074	-0.38531
C	-0.0123024029	 0.0716883599	 0.0736786521	 0.089437
C	-1.3088273585	-0.6982718748	-0.2059183836	-0.056969
O	-1.9485263477	-0.2217920508	-1.3731867028	-0.421365
O	 0.7682090619	-0.0227474406	-1.1323411257	-0.322831
C	 2.0766979553	-0.5149926198	-1.0052049191	 0.443605
C	 3.0592576885	 0.4490522096	-0.3757074675	-0.449039
C	 2.2434712126	-2.0025511735	-0.796469879	-0.320166
C	 2.512718389	-1.3754726111	-2.1518419461	-0.309785
H	 0.6695369091	 2.0887269704	 0.5119377482	 0.114537
H	-0.8543691077	 2.0008562238	-0.3969720738	 0.135668
H	-0.8334630094	 1.6306329107	 1.3370319396	 0.111285
H	 0.5208830465	-0.4211448725	 0.8968323587	 0.075464
H	-1.0779789977	-1.7727055527	-0.2874791617	 0.082145
H	-2.0139680636	-0.5704305094	 0.622780401	 0.102045
H	-1.2594168422	-0.1966595903	-2.0490013335	 0.289116
H	 2.796148558	 0.6709186124	 0.6642760952	 0.118872
H	 4.068691635	 0.0279580094	-0.3785632665	 0.115812
H	 3.0778669488	 1.3921169045	-0.9316738026	 0.125738
H	 3.0855122401	-2.3532472079	-0.2091323939	 0.112269
H	 1.344766514	-2.6003717457	-0.6992592861	 0.118523
H	 1.7823246891	-1.5525394071	-2.9326287572	 0.118765
H	 3.537952987	-1.2962898344	-2.496436263	 0.112185
39.2672	72.6833	119.2148	185.7288	217.186	243.3328	253.2309	296.1326	321.625	355.8541	374.5338	464.6757	486.5604	513.6053	620.632	736.3992	776.6218	818.8114	857.024	899.2761	917.9027	929.0826	956.9571	1001.741	1030.5688	1043.724	1059.3647	1078.3304	1080.0018	1127.0883	1147.0575	1156.3613	1188.436	1232.3317	1288.6355	1334.7723	1337.6959	1371.5084	1385.238	1412.3941	1416.3293	1435.8728	1454.5108	1483.3869	1485.9045	1489.7104	1498.9921	1501.6686	1506.6117	2971.3574	3026.4371	3032.4557	3044.1662	3068.5149	3096.5807	3112.4467	3115.3223	3133.6353	3134.6086	3139.0691	3218.3069	3232.3227	3780.9882
CC(CO)OC1(C)CC1	C[C@@H](CO)OC1(C)CC1	
InChI=1S/C7H14O2/c1-6(5-8)9-7(2)3-4-7/h6,8H,3-5H2,1-2H3	InChI=1S/C7H14O2/c1-6(5-8)9-7(2)3-4-7/h6,8H,3-5H2,1-2H3/t6-/m0/s1
