20
gdb 97767	6.16711	0.54625	0.54564	1.6082	87.12	-0.2187	0.0311	0.2497	2073.331	0.169631	-403.084324	-403.07422	-403.073276	-403.121634	35.443	
C	-0.1106383361	 1.4500459084	-0.1767269368	-0.317274
N	-0.0030115974	 0.038053587	 0.1114769519	-0.067646
C	-1.1947428952	-0.6705700473	 0.6098442552	-0.17227
C	-0.2581986597	-1.5282948983	 1.5139002981	-0.175687
C	 0.7741882725	-0.3816183838	 1.2910775577	-0.171847
C	-0.6731971428	-1.8576505103	 2.8590346139	 0.048485
C	-1.0111324783	-2.1145716016	 3.9878385798	 0.064002
C	-1.4453533812	-2.4795927565	 5.3354035793	-0.191633
O	-1.2288801333	-3.8485155723	 5.6524335469	-0.402404
H	 0.8715550685	 1.848539172	-0.452433272	 0.12212
H	-0.7849199545	 1.6053386011	-1.0257532837	 0.121678
H	-0.4931860185	 2.0402833054	 0.6780738467	 0.090934
H	-1.8594853168	-0.0360771445	 1.2185216873	 0.091654
H	-1.786405254	-1.188363342	-0.1518273122	 0.106113
H	 0.0595813503	-2.4280629136	 0.9794968041	 0.111844
H	 1.8139479798	-0.6608805612	 1.0940060499	 0.107829
H	 0.7425262022	 0.345500677	 2.1186779134	 0.092814
H	-0.8803611233	-1.9100268945	 6.0820019019	 0.138825
H	-2.5045606487	-2.202889163	 5.4634048508	 0.115948
H	-1.6050264735	-4.3707300219	 4.9363083576	 0.286516
12.1415	58.1925	100.8331	126.6744	220.7215	223.2442	258.3223	315.3327	346.8095	349.3407	459.318	515.5902	530.3554	606.4298	743.0448	886.9315	892.0573	975.3174	978.0422	992.2788	1005.011	1048.4969	1091.5885	1124.5202	1143.8537	1175.8869	1202.5635	1214.3844	1229.0015	1229.789	1241.1201	1296.125	1334.9508	1355.4409	1368.4543	1418.9846	1450.3496	1485.3164	1492.683	1498.0085	1501.4004	1529.0488	2355.8203	2922.9377	2967.8879	2971.0862	2978.3414	3055.9279	3058.8925	3060.1089	3067.3034	3077.5684	3097.9337	3817.5223
CN1CC(C1)C#CCO	CN1CC(C1)C#CCO	
InChI=1S/C7H11NO/c1-8-5-7(6-8)3-2-4-9/h7,9H,4-6H2,1H3	InChI=1S/C7H11NO/c1-8-5-7(6-8)3-2-4-9/h7,9H,4-6H2,1H3
