13
gdb 16052	3.8	1.73862	1.44127	3.1928	59.46	-0.2685	0.001	0.2694	843.7497	0.095612	-398.556391	-398.549559	-398.548615	-398.5874	25.39	
O	-0.0005378332	 1.3893952335	 0.0016902399	-0.420222
C	-0.0322035918	 0.0103842153	 0.0021829946	 0.079599
C	-0.4632686022	-0.7581867766	 1.1960955855	-0.011561
O	-1.4168753638	 0.0121989803	 1.924933724	-0.296325
C	-2.3717111738	-0.0620820094	 0.8247945781	-0.145998
C	-1.3562133017	-0.7819816238	-0.062331053	 0.096164
C	-1.6241750108	-1.80250403	-1.0115600145	 0.184381
N	-1.8368933706	-2.631661838	-1.7917264529	-0.343785
H	-0.3168292675	 1.6759366201	 0.8700155199	 0.304757
H	 0.753304047	-0.435674904	-0.6002677528	 0.140393
H	 0.0750519084	-1.53985075	 1.7198505109	 0.135444
H	-3.2252155074	-0.6834610384	 1.1059744481	 0.143414
H	-2.7017156227	 0.9254571612	 0.4891498223	 0.133738
142.861	169.3835	230.6036	258.4233	434.1727	444.1487	509.1348	545.0995	588.3499	659.4448	782.1151	827.002	915.6443	945.0606	991.4965	1030.5896	1054.7402	1069.3809	1124.9355	1162.9124	1221.1233	1260.0989	1293.4942	1322.5127	1387.4434	1459.1871	1509.6692	2343.4124	3056.1662	3118.7819	3172.7502	3188.3858	3750.2771
OC1C2OCC12C#N	O[C@H]1[C@H]2OC[C@@]12C#N	
InChI=1S/C5H5NO2/c6-1-5-2-8-4(5)3(5)7/h3-4,7H,2H2	InChI=1S/C5H5NO2/c6-1-5-2-8-4(5)3(5)7/h3-4,7H,2H2/t3-,4+,5-/m0/s1
