19
gdb 53342	3.48979	0.96597	0.8764	1.7134	84.18	-0.2379	0.0484	0.2863	1402.5718	0.158778	-385.830361	-385.821422	-385.820478	-385.865838	32.101	
C	 0.295645237	 1.6270722219	-0.3442815344	-0.498221
C	 0.1892397677	 0.1835153535	-0.1853572999	 0.049936
C	 0.1134824222	-1.0128670874	-0.0579835772	 0.092632
C	 0.0023422273	-2.4471822576	 0.1163438737	-0.18144
C	 0.064270727	-3.0401261719	 1.5757902673	-0.252279
C	-1.2963868777	-3.7357599714	 1.3429059364	 0.122937
O	-2.4091751672	-2.9519430798	 1.8119362316	-0.291365
C	-2.5945200463	-2.351440988	 0.5048905501	-0.08396
C	-1.4001850387	-3.1202484818	-0.0795137122	-0.092106
H	 1.2896273275	 1.9159431704	-0.7037281813	 0.147609
H	-0.4382290348	 2.0039582521	-1.0654505116	 0.147233
H	 0.1228478535	 2.1468640624	 0.6046574892	 0.148676
H	 0.7362036109	-2.9523866758	-0.5198179524	 0.100672
H	 0.9112238801	-3.7122074835	 1.7334742036	 0.103145
H	 0.0297776495	-2.3008812693	 2.37713544	 0.119912
H	-1.3957859588	-4.7956436541	 1.5910349042	 0.075048
H	-3.5665538187	-2.6278426421	 0.0780269706	 0.099168
H	-2.5025229025	-1.259560886	 0.5258898648	 0.113856
H	-1.555523948	-3.6796719316	-1.0007020525	 0.078548
25.7034	57.9578	97.3875	141.2548	253.05	299.4315	358.9994	389.2666	470.4183	523.5333	637.7854	721.4542	773.551	825.4379	884.6188	914.8969	939.916	980.7179	996.2483	1021.1507	1050.5978	1052.1593	1057.6697	1068.3182	1128.6022	1158.4497	1185.758	1196.6232	1201.7633	1245.3263	1267.2041	1293.5885	1318.9394	1339.1726	1370.3588	1414.8192	1463.155	1478.446	1478.8413	1520.2066	2362.7155	3016.9151	3025.5859	3045.5073	3065.964	3067.7974	3077.1506	3085.5322	3086.2885	3121.0496	3138.2062
CC#CC1CC2OCC12	CC#C[C@H]1C[C@H]2OC[C@@H]12	
InChI=1S/C8H10O/c1-2-3-6-4-8-7(6)5-9-8/h6-8H,4-5H2,1H3	InChI=1S/C8H10O/c1-2-3-6-4-8-7(6)5-9-8/h6-8H,4-5H2,1H3/t6-,7-,8+/m0/s1
