20
gdb 99147	3.61061	0.88407	0.85333	2.2797	77.12	-0.2471	0.0641	0.3112	1481.5181	0.169267	-440.315981	-440.305646	-440.304702	-440.35277	36.002	
C	-0.2678601418	 1.1622436433	 0.0789845039	-0.329256
N	 0.394589156	-0.1216430256	 0.0108654843	-0.359495
C	 0.635547246	-0.7541545107	-1.1675817738	 0.522253
O	 0.3236863725	-0.3592202387	-2.2680410506	-0.411275
O	 1.3025807171	-1.9215623707	-0.9225095987	-0.283081
C	 1.6103041464	-2.6855876792	-2.0710505431	 0.143889
C	 1.9941145323	-4.10621115	-1.8026539284	-0.337786
C	 0.6765154555	-3.7872920529	-2.4885329757	-0.00847
C	-0.6360663937	-4.0098058985	-1.7731083025	-0.409017
H	 0.3873259286	 1.9329943373	 0.5014948379	 0.125029
H	-0.5342939733	 1.4469391864	-0.9395465862	 0.170315
H	-1.1807281667	 1.11046935	 0.6831765526	 0.125005
H	 0.7365288017	-0.5619042814	 0.8481299295	 0.252301
H	 2.1239551289	-2.1141457276	-2.8351724058	 0.112594
H	 2.8075556827	-4.5412507287	-2.3724410201	 0.114556
H	 1.9410183481	-4.4318424585	-0.7689135313	 0.118946
H	 0.6450438883	-3.9656539786	-3.5601516511	 0.090583
H	-0.5481072544	-3.7757322324	-0.7088063195	 0.119035
H	-1.421375621	-3.3715576075	-2.1916773754	 0.128825
H	-0.9615682431	-5.0514014761	-1.863834736	 0.115048
34.4288	57.8704	80.9122	129.8212	144.5643	187.1352	239.2925	292.2021	332.395	390.9248	463.2972	465.7743	590.019	715.6749	778.6298	780.9961	815.5648	848.3164	910.2782	956.8697	993.5523	1047.3098	1092.1679	1102.943	1135.7202	1148.1703	1160.0226	1172.2749	1186.829	1192.4754	1244.53	1248.2895	1376.1034	1409.4633	1419.3642	1447.0836	1483.9659	1495.5172	1499.0387	1500.5148	1504.5099	1567.4277	1823.5519	3023.902	3035.4241	3073.3837	3096.3743	3113.301	3133.2031	3144.2399	3152.7724	3179.8499	3221.0213	3660.3221
CNC(=O)OC1CC1C	CNC(=O)O[C@H]1C[C@H]1C	
InChI=1S/C6H11NO2/c1-4-3-5(4)9-6(8)7-2/h4-5H,3H2,1-2H3,(H,7,8)	InChI=1S/C6H11NO2/c1-4-3-5(4)9-6(8)7-2/h4-5H,3H2,1-2H3,(H,7,8)/t4-,5+/m1/s1
