18
gdb 57733	2.65892	0.97782	0.87209	4.2557	70.2	-0.2544	-0.0451	0.2093	1370.3897	0.144165	-476.253502	-476.243182	-476.242238	-476.290117	35.917	
C	-0.2148960788	 1.5661481373	 0.148621079	-0.408967
C	 0.0106101984	 0.0561777315	 0.0659155737	 0.224812
O	 0.76656009	-0.2925693523	 1.2358396277	-0.463932
C	-1.2982103676	-0.7460175961	 0.0108462489	-0.184774
N	-2.073040835	-0.5649583617	 1.221867321	-0.277366
C	-3.3798759176	-0.1861303685	 1.2222328452	 0.152724
O	-4.0561922948	-0.0007843416	 0.2334537206	-0.319494
C	 0.8838160138	-0.2394938576	-1.1549536724	 0.12437
O	 0.5230176277	-0.8339386058	-2.1361624059	-0.242827
H	 0.7432170164	 2.0920029204	 0.1802447713	 0.131233
H	-0.7890201652	 1.9183897444	-0.7121177712	 0.143404
H	-0.7675568037	 1.8045730118	 1.0603545378	 0.136744
H	 0.9951396498	-1.2285194428	 1.1826506065	 0.289085
H	-1.918466479	-0.4316724072	-0.8296614494	 0.16406
H	-1.0605603202	-1.8068345279	-0.1458937221	 0.110039
H	-1.5840890559	-0.6372609201	 2.100647111	 0.249971
H	-3.7688706674	-0.0675024103	 2.2530187003	 0.075961
H	 1.9255204491	 0.1385446063	-1.040583382	 0.094956
33.0465	53.7837	86.2455	159.9159	199.2492	224.7023	265.9384	303.7471	333.4951	369.6269	387.3435	413.3807	504.818	577.2856	637.8432	734.8015	803.1131	909.4083	937.5662	969.0377	998.2041	1033.0491	1043.9716	1111.5544	1176.0366	1210.0273	1238.5876	1255.049	1352.1207	1382.463	1403.6433	1410.0773	1429.7561	1479.3446	1490.2483	1497.8934	1523.5577	1806.4418	1834.0832	2879.4692	2937.8959	3017.1725	3051.6455	3128.2566	3133.7455	3137.7893	3630.4772	3784.1999
CC(O)(CNC=O)C=O	C[C@@](O)(CNC=O)C=O	
InChI=1S/C5H9NO3/c1-5(9,3-7)2-6-4-8/h3-4,9H,2H2,1H3,(H,6,8)	InChI=1S/C5H9NO3/c1-5(9,3-7)2-6-4-8/h3-4,9H,2H2,1H3,(H,6,8)/t5-/m1/s1
