16
gdb 44399	3.71255	1.53304	1.50406	2.71	75.55	-0.2415	-0.017	0.2245	922.8869	0.125217	-400.624561	-400.618065	-400.617121	-400.655137	27.182	
N	 0.0836042739	 1.2321040978	-0.3938601134	-0.555347
C	 0.0542320219	 0.036878342	-0.0339147941	 0.337654
O	 1.129075615	-0.8543120901	 0.2641522126	-0.29377
C	 0.1485937082	-1.6800224473	 1.0167455103	 0.135627
C	-0.7181578013	-3.0026819348	 0.9077714436	-0.155918
C	-1.9242236127	-1.9348846515	 1.153812955	-0.306827
C	-0.9615902947	-1.0734455089	 0.2162971339	 0.112585
C	-0.9795028722	-1.9663430145	-1.051325045	-0.100852
C	-0.8324999489	-3.2068567908	-0.5922283494	-0.069213
H	 1.0423978878	 1.5739296136	-0.4802128803	 0.237151
H	 0.2186212724	-1.3567548869	 2.0581629178	 0.102025
H	-0.5745203604	-3.8548303201	 1.5715143962	 0.081085
H	-2.8901046308	-2.2246126218	 0.7383821164	 0.123915
H	-2.0161329911	-1.5812394759	 2.1832193117	 0.120612
H	-1.1070987425	-1.5839959108	-2.0533266271	 0.117611
H	-0.8004848046	-4.1512426499	-1.1152492382	 0.113662
138.653	265.864	297.8122	436.9145	466.9757	545.7417	592.4104	647.5886	689.2941	723.2766	726.257	800.0862	809.0764	839.392	868.83	877.4548	914.6565	940.7071	958.2262	987.6285	1006.2429	1037.4584	1062.9999	1115.5212	1132.6185	1160.0425	1193.4287	1206.8703	1226.4136	1255.0639	1317.1315	1396.6694	1481.7818	1634.7806	1817.7976	3068.0647	3079.6546	3127.2301	3152.6287	3230.0526	3257.4261	3477.077
N=C1OC2C3CC12C=C3	[NH][C]1O[C@@H]2[C@H]3C[C@@]12C=C3	
InChI=1S/C7H7NO/c8-6-7-2-1-4(3-7)5(7)9-6/h1-2,4-5,8H,3H2	InChI=1S/C7H7NO/c8-6-7-2-1-4(3-7)5(7)9-6/h1-2,4-5,8H,3H2/t4-,5-,7-/m1/s1
