17
gdb 5905	3.90737	1.26579	1.21453	3.3977	74.21	-0.2782	0.0182	0.2964	1053.7466	0.139345	-326.717731	-326.708556	-326.707611	-326.751026	33.568	
C	-0.0426074596	 1.564539144	 0.0547059875	-0.410021
C	 0.0020396873	 0.0208693855	 0.0443081745	 0.037196
C	 0.7275958426	-0.5014661098	 1.3035827809	-0.410019
C	-1.3625562415	-0.513119622	 0.0024312204	 0.330557
C	-2.4794728059	-0.9552397296	-0.0396275342	-0.469189
C	 0.7303646346	-0.4863506795	-1.2439592821	-0.34528
C	 2.11464213	-0.0283785079	-1.3401260298	 0.26771
N	 3.2081448065	 0.3405612977	-1.4046440366	-0.318507
H	 0.9721725853	 1.9729735569	 0.0640430825	 0.14158
H	-0.5652170715	 1.9478900449	-0.8261919969	 0.12643
H	-0.5692940495	 1.9213010874	 0.9432285733	 0.131127
H	 0.2088364429	-0.1659898943	 2.2049677907	 0.131129
H	 0.7554491533	-1.5946940779	 1.3152592225	 0.12643
H	 1.7545123137	-0.1255878331	 1.3326130838	 0.141582
H	-3.4685020426	-1.3417146337	-0.06742317	 0.201065
H	 0.7196321429	-1.5807981787	-1.26207557	 0.1591
H	 0.1845559014	-0.1457359499	-2.1295883765	 0.159109
81.5104	122.3842	181.6165	183.8432	239.6292	270.1879	339.3055	344.4901	373.5898	400.8732	502.0819	547.8574	559.2685	636.2698	652.5802	734.0765	879.6825	893.9118	952.8431	959.5246	983.1521	1043.8487	1139.4122	1209.83	1226.8898	1279.7285	1335.051	1399.8163	1422.0263	1460.9639	1482.5457	1487.3342	1499.9878	1508.8713	2234.6385	2358.4221	3042.4592	3045.8248	3056.9723	3098.5153	3119.4242	3121.5345	3124.1589	3128.2051	3500.4141
CC(C)(C#C)CC#N	CC(C)(C#C)CC#N	
InChI=1S/C7H9N/c1-4-7(2,3)5-6-8/h1H,5H2,2-3H3	InChI=1S/C7H9N/c1-4-7(2,3)5-6-8/h1H,5H2,2-3H3
