18
gdb 55551	3.95494	0.90867	0.77341	4.0768	75.5	-0.2471	0.0021	0.2492	1454.0609	0.148692	-435.311553	-435.3024	-435.301456	-435.34663	33.571	
N	 0.7787031569	 0.1622439099	 0.425721265	-0.544944
C	-0.1831972593	 0.178135743	-0.5216669659	 0.450742
O	-0.3253901513	 1.0234334755	-1.3846461797	-0.404345
N	-1.0946929056	-0.9050340751	-0.4674883913	-0.364659
C	-1.1688060979	-1.9887200235	 0.3841130127	 0.385124
N	-0.2967062169	-2.1794845733	 1.3035136764	-0.544915
C	-2.3593330588	-2.8573667815	 0.0959109639	-0.09793
C	-2.2628004109	-3.9423804396	-0.9600185949	-0.250523
C	-2.3943557645	-4.3057163939	 0.4949928718	-0.275987
H	 1.4499966134	 0.9089564918	 0.4065599005	 0.259674
H	 0.8254848729	-0.614275608	 1.0789569265	 0.285628
H	-1.7733693777	-0.8472496444	-1.2103526175	 0.25898
H	-0.5353909617	-2.9961694047	 1.8585531051	 0.222087
H	-3.3032723946	-2.3196017123	 0.1311693479	 0.114466
H	-3.1119177532	-4.089699802	-1.617577831	 0.124798
H	-1.2972090062	-4.0987868723	-1.4278742319	 0.133615
H	-1.520096906	-4.7254852594	 0.9810212928	 0.123321
H	-3.3358497084	-4.7072130903	 0.8510975495	 0.124869
38.8933	72.6796	91.7912	167.786	247.0048	327.1044	335.0237	376.6905	438.4504	567.2236	581.7183	606.8778	680.2825	725.0368	780.0269	795.1439	822.0646	836.2807	865.156	923.5958	955.631	993.4809	1065.2169	1093.6117	1114.714	1133.6701	1146.9435	1150.7103	1200.0906	1227.0103	1299.6653	1376.8126	1398.6981	1467.7823	1501.5939	1515.3535	1602.233	1700.2331	1825.2043	3137.7535	3139.815	3143.9509	3218.0782	3232.9415	3452.7549	3531.6459	3645.6035	3718.2922
NC(=O)NC(=N)C1CC1	NC(=O)NC(=N)C1CC1	
InChI=1S/C5H9N3O/c6-4(3-1-2-3)8-5(7)9/h3H,1-2H2,(H4,6,7,8,9)	InChI=1S/C5H9N3O/c6-4(3-1-2-3)8-5(7)9/h3H,1-2H2,(H4,6,7,8,9)
