16
gdb 37115	3.14633	1.82957	1.79351	1.0028	70.97	-0.2386	0.0098	0.2484	842.1566	0.1262	-400.661562	-400.655304	-400.65436	-400.691825	26.221	
C	-0.0530075563	 1.5778241791	 0.0223167146	-0.326443
C	 1.4124020343	 2.002822052	 0.0765223256	-0.053328
C	 2.2705941346	 0.9816707959	-0.0367617622	-0.123226
C	 1.5280250971	-0.3040273063	-0.1290155135	 0.136636
N	 0.6902328179	-0.6293315938	 1.0382462461	-0.366177
C	 0.0514813557	 0.0649941676	-0.0791146983	 0.169207
C	-0.1930363716	-0.8618786974	-1.2630446318	-0.054457
O	 0.6361945079	-0.4476159413	-2.3573524256	-0.226748
C	 1.241739831	-1.2214845895	-1.3125406075	-0.048291
H	-0.6064862495	 1.9066396427	 0.9088329569	 0.122353
H	-0.5590674144	 2.000526996	-0.8537453386	 0.122378
H	 1.701458453	 3.0381131353	 0.2294981196	 0.098332
H	 3.350395651	 1.0645651826	-0.0294060185	 0.103165
H	 0.436626887	-1.6154041237	 1.0467040113	 0.232291
H	-1.0697877517	-1.4498660134	-1.5107376595	 0.106721
H	 1.7208299141	-2.148349036	-1.6059417085	 0.107588
187.5008	225.1698	356.6485	418.2694	491.9191	561.1075	614.0255	669.389	691.9292	754.6531	792.2515	803.9036	855.7905	864.3445	878.7278	924.9003	932.9249	962.4907	982.4913	1022.8051	1055.3027	1083.4611	1087.6682	1134.2408	1163.6039	1208.1979	1238.7101	1262.0222	1268.8028	1326.0511	1342.937	1380.1757	1393.3033	1463.1899	1647.7313	3036.9905	3073.222	3176.3203	3178.7668	3191.976	3213.1317	3478.1546
C1C=CC23NC12C1OC31	C1C=C[C@@]23N[C@@]12[C@H]1O[C@@H]31	
InChI=1S/C7H7NO/c1-2-6-4-5(9-4)7(6,3-1)8-6/h1-2,4-5,8H,3H2	InChI=1S/C7H7NO/c1-2-6-4-5(9-4)7(6,3-1)8-6/h1-2,4-5,8H,3H2/t4-,5+,6+,7-/m1/s1
