16
gdb 126042	3.91763	1.14119	1.02461	5.1587	73.31	-0.2567	-0.0378	0.2189	1171.363	0.124483	-434.020033	-434.01216	-434.011215	-434.053112	28.948	
C	 0.0543957896	 1.5566261874	-0.3057016528	-0.410286
C	 0.0070975525	 0.0781831746	-0.0130776589	 0.009011
N	 1.2642407629	-0.6673595358	-0.059694153	-0.319644
C	 0.563980956	-0.5554535034	 1.2323086559	-0.178761
C	 1.2245169313	 0.1751053891	 2.322851567	 0.471416
C	 1.1007795394	 0.0621536561	 3.6780145525	-0.213638
N	 1.9318182261	 0.9986627804	 4.2378939607	-0.109442
N	 2.5336194783	 1.6516697508	 3.3516970069	-0.011872
O	 2.1005029226	 1.1438556532	 2.0696646935	-0.218343
H	 0.9637662162	 2.0077544265	 0.0927020253	 0.158596
H	 0.0337494939	 1.7227317723	-1.3878140751	 0.126457
H	-0.8128926324	 2.0632699698	 0.1301832132	 0.122216
H	-0.8791700697	-0.4300611	-0.3940562382	 0.094461
H	 1.136028617	-1.5986204705	-0.4457282676	 0.241908
H	 0.0233842583	-1.4252246088	 1.5984603474	 0.10057
H	 0.498731228	-0.6018534516	 4.2739037032	 0.137351
55.199	126.8234	168.2846	199.8868	277.1137	379.6727	433.6859	485.4577	604.1919	692.8091	700.9104	750.203	783.2406	814.697	858.0366	931.0139	986.5798	993.7485	1019.4701	1047.2555	1076.8586	1125.0811	1142.4028	1178.1076	1235.2918	1243.5475	1281.2484	1374.2456	1397.6303	1421.8972	1448.7264	1473.3677	1493.2935	1499.3082	1603.779	3042.8005	3101.0513	3102.7926	3135.9362	3154.3776	3290.1122	3511.414
CC1NC1C1=CN=NO1	C[C@H]1N[C@H]1c1cnno1	
InChI=1S/C5H7N3O/c1-3-5(7-3)4-2-6-8-9-4/h2-3,5,7H,1H3	InChI=1S/C5H7N3O/c1-3-5(7-3)4-2-6-8-9-4/h2-3,5,7H,1H3/t3-,5-/m1/s1
