20
gdb 87482	4.0443	1.13074	1.0369	2.4623	80.57	-0.2326	0.061	0.2936	1223.4381	0.169852	-403.037223	-403.028459	-403.027515	-403.070397	33.737	
C	-0.1655265039	 1.5420375594	 0.0533498138	-0.44948
C	 0.0299202115	 0.0417306391	-0.0442694286	 0.108161
C	 0.8322555408	-0.6575536594	-1.1793287891	-0.186651
C	 2.0950724723	-0.1420407891	-0.4522301775	-0.180562
N	 1.2151174358	-0.6057736928	 0.7308765319	-0.202663
C	 0.9340908726	-1.8029803733	-0.1657299866	 0.399063
C	 0.1040404225	-3.007403082	 0.1469016275	-0.438815
C	 1.6025349822	-3.1206319779	-0.151034739	 0.006167
O	 2.0913171457	-3.7356635505	-1.3100794679	-0.429475
H	 0.6986875791	 2.129227625	-0.2637324938	 0.121681
H	-1.0165098642	 1.8403916417	-0.5686003053	 0.121159
H	-0.3983088987	 1.8161562402	 1.0876094091	 0.133807
H	-0.9042894137	-0.4655126039	 0.2168357105	 0.07954
H	 0.6141802106	-0.6996723954	-2.2536839803	 0.060349
H	 3.0107090312	-0.727206753	-0.5571323928	 0.114669
H	 2.3095258303	 0.9264512934	-0.4565092494	 0.101048
H	-0.2234526735	-3.1739357851	 1.16869989	 0.125407
H	-0.5869873863	-3.3611384452	-0.6141782004	 0.112031
H	 2.2452921142	-3.3562611611	 0.6916523068	 0.119272
H	 1.6535641714	-3.3432362501	-2.0721991188	 0.285292
114.72	136.0804	144.1157	176.1042	223.0159	277.0129	365.642	413.4318	431.9817	525.5058	624.5165	654.7775	729.1924	782.8752	788.2001	809.1626	844.5826	907.2519	970.4908	986.3102	1018.6557	1029.8869	1041.6294	1063.9487	1084.4089	1097.3192	1132.7742	1137.8657	1154.6338	1159.1825	1189.6661	1219.0097	1232.1336	1267.9401	1307.3722	1362.9888	1404.6489	1420.4841	1428.09	1487.8975	1494.9846	1505.3394	1540.1271	3021.2511	3039.776	3056.3706	3081.5333	3100.6476	3113.2637	3125.3189	3147.8761	3162.6844	3202.4374	3819.4285
CC1C2CN1C21CC1O	C[C@H]1[C@H]2CN1[C@]12C[C@H]1O	
InChI=1S/C7H11NO/c1-4-5-3-8(4)7(5)2-6(7)9/h4-6,9H,2-3H2,1H3	InChI=1S/C7H11NO/c1-4-5-3-8(4)7(5)2-6(7)9/h4-6,9H,2-3H2,1H3/t4-,5+,6+,7-/m0/s1
