17
gdb 45755	3.06912	1.34651	0.98536	3.2268	73.91	-0.2223	-0.0102	0.2122	1163.5245	0.137585	-418.017562	-418.009597	-418.008653	-418.050742	29.898	
O	-0.2682340465	-0.0027886837	 0.2631695706	-0.366241
C	-0.1668662448	 1.1950885327	 0.1430503242	 0.408006
N	-1.2070143907	 2.0990204996	 0.0295064871	-0.323824
C	-0.7339995629	 3.4164162486	-0.0732247665	-0.026531
C	 0.6011847212	 3.4568642071	-0.0531582559	-0.155109
C	 1.1281872552	 2.0468306021	 0.0856492784	-0.197053
C	 2.0140524084	 1.7995242729	 1.2927511473	 0.038854
C	 2.9206738068	 0.629866375	 1.3204771354	-0.231403
N	 3.4704671239	 1.9958617464	 1.2104988904	-0.333046
H	-2.1736900243	 1.8206196469	 0.0554115677	 0.263515
H	-1.4442016547	 4.2266105941	-0.1582227116	 0.132764
H	 1.2137827756	 4.3433409353	-0.1105001829	 0.11543
H	 1.6766228985	 1.7295075121	-0.8133665101	 0.107228
H	 1.5879502185	 2.1459762306	 2.2317672729	 0.098045
H	 3.1298313944	 0.1262249251	 2.2591527256	 0.122017
H	 2.9348109425	-0.0166964357	 0.4477005159	 0.121039
H	 3.7415299389	 2.1782803111	 0.2464820314	 0.226309
67.0929	86.0422	156.4061	232.5908	317.886	377.4784	444.3102	515.2231	546.8933	662.2619	685.6697	722.2882	809.5461	822.851	875.3688	899.7174	913.8142	938.4333	964.1708	1031.9199	1054.5328	1077.3335	1120.5436	1136.1646	1159.6192	1187.5441	1198.4648	1233.7196	1252.1506	1269.8954	1311.1839	1373.0616	1409.2737	1414.1192	1515.1977	1668.1803	1836.7014	3005.4767	3118.1251	3131.4428	3203.6186	3233.9679	3259.7612	3487.1774	3665.7435
O=C1NC=CC1C1CN1	O=C1NC=C[C@H]1[C@H]1CN1	
InChI=1S/C6H8N2O/c9-6-4(1-2-7-6)5-3-8-5/h1-2,4-5,8H,3H2,(H,7,9)	InChI=1S/C6H8N2O/c9-6-4(1-2-7-6)5-3-8-5/h1-2,4-5,8H,3H2,(H,7,9)/t4-,5+/m0/s1
