18
gdb 19518	3.54053	1.83493	1.71935	0.8756	72.61	-0.2174	0.0247	0.2421	866.1315	0.154624	-347.786203	-347.77888	-347.777935	-347.817719	28.025	
C	 0.1134681347	 1.0441661848	 0.377816336	-0.230437
O	-0.165667275	 0.0064090072	-0.5398040757	-0.226374
C	-1.3656483032	-0.6386646787	-0.2858947567	 0.12699
C	-1.489791919	-2.0720652789	-0.6835670357	-0.116864
C	-0.1920866735	-2.8456439454	-0.9358844088	-0.260956
C	 0.4943440603	-2.8582886164	 0.4126644801	-0.068363
C	-0.2373271359	-2.2595811524	 1.3548288448	-0.063335
C	-1.502189143	-1.698192441	 0.8068087301	-0.148553
H	 1.0603935597	 1.4970175616	 0.0747171573	 0.125052
H	-0.6709757399	 1.8162495907	 0.3656655429	 0.102889
H	 0.208071922	 0.6589915386	 1.4025680702	 0.110431
H	-2.2463970727	-0.0089010946	-0.4317667792	 0.079627
H	-2.3920979186	-2.383715179	-1.1965763079	 0.085784
H	-0.3969252023	-3.8608849161	-1.2988516891	 0.101608
H	 0.4273932364	-2.3548626915	-1.6966896806	 0.122183
H	 1.4808284256	-3.2837206906	 0.5581993356	 0.089652
H	 0.0469389822	-2.1471269051	 2.3949418619	 0.089254
H	-2.4090305079	-1.6999806032	 1.4027201447	 0.081413
98.6393	163.5563	181.4277	233.1965	312.1483	399.313	543.6601	605.9736	704.6123	748.7088	769.7676	784.9575	808.7321	917.7289	938.6754	953.4256	955.3689	1013.6924	1029.1321	1057.2751	1064.7044	1106.421	1111.3467	1135.6087	1180.6635	1191.6019	1208.0062	1260.5794	1298.8002	1309.3405	1357.5015	1375.3856	1418.0216	1468.0867	1485.731	1487.5636	1505.1079	1669.7233	2983.5596	3022.1091	3038.8719	3054.5079	3071.5716	3118.1242	3157.9249	3176.4406	3184.9214	3210.0422
COC1C2CC=CC12	CO[C@H]1[C@H]2CC=C[C@@H]12	
InChI=1S/C7H10O/c1-8-7-5-3-2-4-6(5)7/h2-3,5-7H,4H2,1H3	InChI=1S/C7H10O/c1-8-7-5-3-2-4-6(5)7/h2-3,5-7H,4H2,1H3/t5-,6+,7-/m1/s1
