18
gdb 118333	2.49242	1.04097	0.76543	1.2116	70.52	-0.255	-0.0425	0.2125	1463.7496	0.145027	-476.253755	-476.243639	-476.242694	-476.289778	35.034	
C	-0.0126553992	 1.4630915972	-0.0288145659	-0.231196
O	 0.0589291611	 0.0552296403	-0.0010029774	-0.246498
C	 0.6318572844	-0.4880037491	-1.172815532	-0.081222
C	 0.6211380993	-2.0056488405	-1.0152430562	-0.227172
C	-0.7960636536	-2.540089149	-0.8489366482	 0.157549
O	-1.0916459061	-3.7123887209	-0.8419410046	-0.266914
C	 1.4219722524	-2.6900534172	-2.1447147284	 0.396679
N	 1.3866675941	-4.0478906294	-2.120305491	-0.52543
O	 2.0654202544	-2.0364324659	-2.9427474121	-0.358081
H	 0.98533074	 1.916955109	-0.1249618952	 0.112329
H	-0.6353437475	 1.8226793307	-0.862557822	 0.109176
H	-0.4606227249	 1.7857901882	 0.9137915222	 0.130691
H	 0.0565767661	-0.1905987655	-2.0651744869	 0.101277
H	 1.6593878865	-0.1348586004	-1.3226392444	 0.12421
H	 1.1284897979	-2.2524682928	-0.0708037025	 0.15045
H	-1.568504023	-1.7591845427	-0.7093735617	 0.118935
H	 0.6403869755	-4.5009905172	-1.6091308457	 0.275965
H	 1.8014213127	-4.5241021445	-2.9063002378	 0.25925
61.3319	82.1965	95.3396	110.6325	153.6566	232.6893	243.6368	324.4331	327.2639	360.2729	429.0842	510.32	581.0372	624.8007	642.4294	730.5387	785.3613	913.7538	970.9846	1023.6707	1098.3443	1123.3035	1151.1	1164.6072	1186.7005	1202.542	1236.0175	1240.6921	1308.9324	1345.7195	1410.9669	1423.7757	1483.0136	1486.3851	1504.9477	1524.8821	1621.6542	1797.4968	1803.4943	2952.506	2972.8078	2981.7666	3018.3657	3025.8721	3050.7734	3119.1056	3535.6934	3684.5186
COCC(C=O)C(N)=O	COC[C@@H](C=O)C(=O)N	
InChI=1S/C5H9NO3/c1-9-3-4(2-7)5(6)8/h2,4H,3H2,1H3,(H2,6,8)	InChI=1S/C5H9NO3/c1-9-3-4(2-7)5(6)8/h2,4H,3H2,1H3,(H2,6,8)/t4-/m1/s1
