17
gdb 85709	2.3617	1.44596	1.03259	4.6324	79.05	-0.2528	0.0129	0.2657	1175.3135	0.134965	-380.826776	-380.817762	-380.816817	-380.860686	33.123	
C	 0.0181520474	 1.571928187	-0.1685412652	-0.402145
C	 0.0957830482	 0.0711319671	 0.0243333451	 0.051946
N	 1.0780124668	-0.6345853507	-0.8300201903	-0.300256
C	 1.432808108	-1.5668721608	 0.26521417	-0.188334
C	 2.8271519406	-1.9498428342	 0.3718748691	 0.359003
C	 3.9770860091	-2.2821893009	 0.4730021575	-0.41841
C	 0.8222297129	-0.5280334769	 1.2799670217	-0.217811
C	 1.7807106114	 0.3544552683	 1.9206203072	 0.318265
N	 2.5219706025	 1.0684813043	 2.4468308497	-0.335212
H	 1.007408211	 2.0266882306	-0.0794614279	 0.151434
H	-0.3780996856	 1.8005632112	-1.1634757683	 0.12069
H	-0.6483278756	 2.0260271709	 0.5721681767	 0.123146
H	-0.9120755898	-0.3699275238	-0.0227207009	 0.075786
H	 0.7135023331	-1.0720445277	-1.669926063	 0.225393
H	 0.8041295872	-2.4701361745	 0.2913180823	 0.101757
H	 4.9990906946	-2.5574488416	 0.5628563919	 0.205234
H	 0.1710442282	-0.9635153285	 2.0389639344	 0.129516
70.1938	101.2857	148.2025	183.9333	226.1278	260.9888	322.4458	429.1679	441.212	487.255	537.7884	633.3076	639.2801	671.5625	695.6605	775.6522	795.9932	883.3639	955.9137	995.5726	1006.6009	1069.4099	1102.1918	1122.4557	1146.3551	1167.983	1235.5171	1290.1965	1341.4315	1352.892	1380.4894	1404.4018	1422.8751	1484.6042	1493.9943	2242.6305	2358.3646	2974.4202	2978.0473	3039.3295	3105.0619	3107.9746	3132.9907	3502.467	3525.0205
CC1NC(C#C)C1C#N	C[C@H]1N[C@@H](C#C)[C@H]1C#N	
InChI=1S/C7H8N2/c1-3-7-6(4-8)5(2)9-7/h1,5-7,9H,2H3	InChI=1S/C7H8N2/c1-3-7-6(4-8)5(2)9-7/h1,5-7,9H,2H3/t5-,6+,7+/m1/s1
