17
gdb 67302	3.21652	1.59371	1.32964	2.8513	72.75	-0.2317	0.0774	0.3091	980.9082	0.136739	-417.869757	-417.862587	-417.861643	-417.900999	29.193	
O	-0.0780135399	 1.3276987589	-0.0185037636	-0.469687
C	-0.0481300513	-0.0370092461	-0.0236581414	 0.342778
C	 0.8851222838	-0.9989561948	-0.8555257101	-0.088885
N	 1.9599702156	-0.9220546181	 0.1893133056	-0.369137
C	 0.683659754	-1.0193943195	 0.9718308294	-0.094407
C	-0.0644166863	-1.9501117726	-0.0496050391	-0.192811
C	-1.2332673927	-0.9713500679	-0.1720158684	 0.361572
N	-2.5039181005	-0.9090776721	 0.5225183664	-0.386422
C	-2.4675513807	-0.9565993131	-0.9691703388	-0.334836
H	 0.8291399224	 1.6377136999	 0.0995661829	 0.29787
H	 1.0795689329	-0.993401467	-1.928366116	 0.085865
H	 2.4762658056	-1.8044904747	 0.2362972839	 0.208671
H	 0.6406081809	-1.0380550808	 2.0609508125	 0.090582
H	-0.0582613366	-3.0386419995	-0.0639014025	 0.079733
H	-2.7559630983	-1.8237998315	 0.8906247831	 0.228839
H	-2.8002249975	-0.0428969298	-1.4536039456	 0.129585
H	-2.7751594612	-1.8736155811	-1.4661300482	 0.110691
155.9123	198.4617	250.3623	298.3719	343.4862	411.2897	502.5749	580.2737	589.3209	685.8265	741.6086	803.5407	866.6276	867.5873	883.0689	900.227	915.1805	940.5904	959.8028	970.9113	1025.8895	1044.7044	1061.7995	1091.7107	1108.4096	1125.1708	1158.3729	1169.5115	1201.2089	1256.7302	1257.8686	1281.8526	1282.7495	1343.6787	1376.989	1483.4369	1549.577	3104.8908	3112.9081	3116.7635	3139.8719	3190.8214	3403.6876	3488.5793	3779.4001
OC12C3NC1C3C21NC1	O[C@@]12[C@H]3N[C@@H]1[C@H]3[C@]12NC1	
InChI=1S/C6H8N2O/c9-6-3-2(4(6)8-3)5(6)1-7-5/h2-4,7-9H,1H2	InChI=1S/C6H8N2O/c9-6-3-2(4(6)8-3)5(6)1-7-5/h2-4,7-9H,1H2/t2-,3-,4+,5-,6-/m1/s1
