15
gdb 98145	2.2755	1.23878	0.83353	4.6795	71.08	-0.2944	-0.0586	0.2358	1324.845	0.109735	-416.841302	-416.83162	-416.830676	-416.87735	32.685	
C	 0.0995765387	 1.4995186861	-0.1376371241	-0.388206
C	-0.1800328122	 0.0165478677	-0.3713790832	-0.298446
C	-1.5255345137	-0.4202175608	 0.1592083139	 0.397182
O	-2.3588150233	 0.3084268278	 0.6147695407	-0.252542
C	-1.7953616392	-1.9831580179	 0.1554566622	-0.415091
C	-3.2201546248	-2.278948036	 0.3140584592	 0.329666
N	-4.3402201003	-2.5214765576	 0.4457481272	-0.290845
C	-1.2282269577	-2.6637731141	-1.0107355683	 0.304265
N	-0.753423746	-3.1719043309	-1.9326125277	-0.304441
H	 1.0735335213	 1.7689242175	-0.5530834255	 0.127823
H	-0.664471391	 2.1187663708	-0.6128156627	 0.146372
H	 0.0999390832	 1.7365809347	 0.9292690063	 0.1378
H	-0.1540878085	-0.2330296732	-1.4405804527	 0.167588
H	 0.591789405	-0.6215393153	 0.0810333044	 0.137919
H	-1.2679350716	-2.3564078089	 1.0462316303	 0.200956
27.621	70.3135	123.1406	136.4334	176.5936	211.2354	248.873	352.8078	381.7104	414.3764	454.7333	519.1847	584.0455	681.9972	729.6132	830.7689	919.3284	985.8336	1016.2659	1073.7504	1089.9522	1116.7029	1196.9126	1283.9045	1296.754	1372.1497	1418.6358	1440.9388	1494.4241	1498.645	1850.2873	2366.5045	2381.1029	3016.0012	3025.973	3054.1799	3058.2482	3131.3654	3136.8418
CCC(=O)C(C#N)C#N	CCC(=O)C(C#N)C#N	
InChI=1S/C6H6N2O/c1-2-6(9)5(3-7)4-8/h5H,2H2,1H3	InChI=1S/C6H6N2O/c1-2-6(9)5(3-7)4-8/h5H,2H2,1H3
