17
gdb 75922	2.74319	1.56351	1.12263	2.2257	67.89	-0.2468	0.0031	0.2498	1065.7365	0.13807	-455.150636	-455.142594	-455.14165	-455.183327	30.361	
N	 0.1803250966	 1.2169469452	-0.641131541	-0.519378
C	-0.0351172725	-0.0839504856	-0.0379574597	-0.228087
C	 0.4217735916	-0.2551903119	 1.4204965171	 0.426777
O	 1.3419971711	 0.2863246432	 1.9615567804	-0.344634
O	-0.4021219169	-1.1269961245	 2.056043836	-0.22315
C	-1.4701899725	-1.5540211289	 1.1812008805	-0.141664
C	-1.4819981442	-0.540129114	 0.0496912392	 0.327179
C	-2.6207410498	 0.3675483595	-0.2259885814	-0.286625
N	-2.3280610282	-0.7836024834	-1.1073624887	-0.374033
H	-0.0642330901	 1.9470100147	 0.022680428	 0.241579
H	 1.1703120198	 1.34117834	-0.8292980874	 0.248747
H	 0.5245872621	-0.8266033745	-0.626747804	 0.119431
H	-1.2496291947	-2.5626594733	 0.8130411238	 0.125978
H	-2.3928125197	-1.5819551322	 1.7638385431	 0.131986
H	-3.5351056213	 0.2793913828	 0.3543660929	 0.122127
H	-2.397717283	 1.3611949684	-0.6016638075	 0.129882
H	-1.8558027781	-0.4448979955	-1.9443414312	 0.243885
72.5748	175.6609	223.9888	241.9564	257.9005	294.6441	350.938	482.9891	490.2292	558.5177	628.134	716.0861	777.5502	847.3311	880.6143	933.7982	945.66	974.0567	986.3487	1040.1237	1064.2219	1070.6482	1127.3251	1149.6751	1160.7477	1208.4963	1236.6671	1263.2113	1283.9076	1334.4681	1370.4829	1416.7155	1435.5154	1504.0662	1518.7849	1669.6148	1880.8153	2999.6007	3043.3488	3114.4032	3115.8786	3208.1013	3480.5109	3497.6715	3571.7187
NC1C(=O)OCC11CN1	N[C@H]1C(=O)OC[C@]21CN2	
InChI=1S/C5H8N2O2/c6-3-4(8)9-2-5(3)1-7-5/h3,7H,1-2,6H2	InChI=1S/C5H8N2O2/c6-3-4(8)9-2-5(3)1-7-5/h3,7H,1-2,6H2/t3-,5-/m0/s1
