17
gdb 14370	4.25048	2.14391	1.87491	1.3466	67.95	-0.228	0.0658	0.2938	758.0481	0.145097	-363.748452	-363.742449	-363.741504	-363.778443	24.476	
C	-0.045181696	 1.4811948651	 0.0653951995	-0.193971
N	 1.4798722952	 1.3020818069	 0.0788791759	-0.171121
C	 1.181816578	 0.1020454067	 1.016274629	-0.251686
C	 0.0953380463	-0.0539716462	-0.0805083339	 0.267921
C	-0.8712038523	-0.923648682	-0.8407152179	-0.200853
O	-0.7574384707	-0.3755852725	-2.1746127547	-0.286142
C	 0.4790785658	 0.3645617672	-2.3777315092	-0.12563
C	 1.2283942833	 0.2422769428	-1.0557095474	 0.020019
H	-0.4411995132	 1.864696285	 1.0093093999	 0.098642
H	-0.4194944862	 2.065044641	-0.7752261592	 0.115378
H	 1.9863648263	-0.6364980282	 1.0539743454	 0.109162
H	 0.8693131916	 0.4142690563	 2.0155798803	 0.106985
H	-0.5798471022	-1.9840128587	-0.8277034926	 0.097245
H	-1.920320315	-0.8374242601	-0.5434600352	 0.110664
H	 1.0359232766	-0.1065084089	-3.1947850115	 0.105612
H	 0.2275784951	 1.385448659	-2.6824191534	 0.11628
H	 2.0588148375	-0.4666923235	-1.1031920452	 0.081496
115.1483	301.6861	346.7931	406.1149	526.7156	602.9177	685.7328	699.3324	766.7753	808.1865	861.4878	888.5537	898.7721	916.9995	974.9959	997.2124	1019.1123	1038.598	1062.1228	1098.4156	1118.6982	1153.4588	1163.7142	1182.9542	1191.3618	1201.111	1235.8831	1246.6014	1300.9162	1344.3593	1371.1655	1398.0779	1505.9735	1513.0291	1524.1608	1559.4096	2997.3468	3037.9116	3057.5504	3062.7596	3070.4346	3082.3853	3083.6498	3129.1498	3142.4543
C1N2CC11COCC21	C1N2C[C@]31COC[C@@H]23	
InChI=1S/C6H9NO/c1-5-6(4-8-1)2-7(5)3-6/h5H,1-4H2	InChI=1S/C6H9NO/c1-5-6(4-8-1)2-7(5)3-6/h5H,1-4H2/t5-/m1/s1
