18
gdb 23386	3.02158	1.22244	1.08866	1.4959	74.51	-0.2302	0.0115	0.2416	1169.7561	0.145858	-438.994531	-438.985641	-438.984697	-439.029236	32.523	
C	-0.6856394272	 1.2031398679	 0.0581881491	-0.483282
C	 0.0212707706	-0.1165510891	 0.1953454113	 0.34895
N	 0.4607301264	-0.6175997494	 1.2865900335	-0.176391
O	 0.2088084423	 0.2059408828	 2.3956034456	-0.394031
C	 0.2257773257	-0.9203163425	-1.0454430071	-0.124153
C	 0.1830637774	-2.4309807353	-1.1359997908	-0.1499
C	-0.9414454293	-2.9779002927	-0.2616667914	-0.089755
O	-1.9035711129	-2.0554177103	-0.8540995174	-0.284353
C	-0.9095754316	-1.5956315936	-1.7680411285	 0.084534
H	-0.3955629323	 1.6969167595	-0.8743555351	 0.121139
H	-1.7676181763	 1.0313609184	 0.0114205629	 0.154441
H	-0.4756512365	 1.8583747488	 0.9029900553	 0.150528
H	 0.626491346	-0.2876316605	 3.1088242073	 0.304858
H	 0.9448752621	-0.4861217995	-1.7409077146	 0.102905
H	 0.9788591298	-3.0123153913	-1.5809123747	 0.100311
H	-1.2107720689	-4.0096013307	-0.5132422628	 0.105557
H	-0.8537168368	-2.8517510483	 0.8197213013	 0.125687
H	-1.2072971884	-1.4068248143	-2.7935292538	 0.102954
31.8568	82.3118	117.1677	157.9898	298.8791	318.0994	328.7844	387.8023	454.7437	517.245	552.1739	707.3384	750.0219	789.2787	816.2621	849.6804	940.2413	961.4401	977.055	992.7251	1010.7547	1035.6746	1048.5713	1057.0138	1077.0561	1110.4946	1137.3309	1168.5248	1241.8361	1261.4511	1313.6323	1351.9785	1390.6634	1392.7249	1442.7235	1479.127	1486.5317	1505.7055	1725.4184	3039.5558	3039.6973	3095.6441	3107.3688	3112.5785	3157.5955	3173.5847	3207.0005	3823.0576
CC(=NO)C1C2COC12	CC(=NO)[C@H]1[C@H]2CO[C@@H]12	
InChI=1S/C6H9NO2/c1-3(7-8)5-4-2-9-6(4)5/h4-6,8H,2H2,1H3	InChI=1S/C6H9NO2/c1-3(7-8)5-4-2-9-6(4)5/h4-6,8H,2H2,1H3/t4-,5+,6-/m1/s1
