18
gdb 124823	4.46582	0.97053	0.82634	4.2207	73.26	-0.2492	0.0179	0.2671	1373.4043	0.149438	-435.3015	-435.292983	-435.292039	-435.335043	31.516	
C	 0.1468816104	 1.496935311	 0.1583029695	-0.40756
C	 0.0226529604	-0.0180245512	 0.2852312587	 0.115782
O	 0.0583879548	-0.4236766437	 1.6620787569	-0.430423
C	-1.2337368996	-0.5611934261	-0.4160052894	-0.324102
C	-1.3398858161	-2.0535970065	-0.3992881992	 0.36673
N	-1.8294934645	-2.8202953743	-1.3626317488	-0.323472
C	-1.7096876755	-4.0735884735	-0.8428687141	 0.017266
N	-1.1802842131	-4.1368182102	 0.3678504244	-0.21867
N	-0.9551044729	-2.8294004068	 0.6363132829	-0.220715
H	 1.0318405554	 1.8501746383	 0.6937557798	 0.132566
H	 0.2308350231	 1.7984012049	-0.8900853124	 0.130348
H	-0.7345829666	 1.9974760285	 0.5786085717	 0.113136
H	 0.9058247034	-0.4942185314	-0.1549297881	 0.108953
H	-0.6080414587	 0.0874994648	 2.1361495312	 0.284569
H	-2.1202908274	-0.1166321354	 0.0604560903	 0.113948
H	-1.2533792608	-0.241200123	-1.4615604175	 0.139529
H	-2.0190412288	-4.9624444384	-1.3722927453	 0.120671
H	-0.5112038335	-2.517694307	 1.4874363496	 0.281443
73.9441	94.2838	157.9935	239.6045	295.139	300.605	324.8161	358.6986	456.6887	488.0844	650.303	704.7506	750.8602	773.1727	842.5133	906.3781	908.3158	940.7776	985.3897	1053.5569	1056.2634	1078.2463	1123.1459	1147.8857	1191.2827	1208.9293	1291.1152	1294.2929	1315.5457	1318.9344	1381.4345	1405.148	1419.446	1428.4195	1466.1718	1490.1078	1494.2834	1498.6814	1584.4108	3001.8696	3027.1463	3057.0388	3095.0271	3103.4343	3125.2799	3259.5104	3635.4777	3791.4454
CC(O)CC1=NC=NN1	C[C@@H](O)Cc1ncn[nH]1	
InChI=1S/C5H9N3O/c1-4(9)2-5-6-3-7-8-5/h3-4,9H,2H2,1H3,(H,6,7,8)	InChI=1S/C5H9N3O/c1-4(9)2-5-6-3-7-8-5/h3-4,9H,2H2,1H3,(H,6,7,8)/t4-/m1/s1
