17
gdb 14287	3.51113	1.78213	1.76142	1.5845	67.48	-0.234	-0.0217	0.2123	840.3654	0.142469	-363.862195	-363.854938	-363.853994	-363.893694	27.705	
C	-0.4611444746	 1.3108430428	-0.2219423029	-0.335872
N	 0.0320412701	-0.0480992456	-0.0567712843	-0.086067
C	 1.4184265746	-0.4138140697	-0.3108456564	-0.039276
C	 2.4873819161	 0.6600360372	-0.3764819424	-0.343675
C	 2.4443898301	 1.3824900054	 0.980458479	 0.38672
O	 3.0263217948	 2.3996481372	 1.2497367339	-0.307432
C	 1.532196491	 0.5944678449	 1.9354429266	-0.343677
C	 0.8425539274	-0.453358518	 1.0830479229	-0.039274
H	-0.7082515015	 1.4654753187	-1.276834265	 0.129842
H	-1.3834142275	 1.4190677089	 0.3572622702	 0.129843
H	 0.2215544371	 2.1172144949	 0.0830322656	 0.118891
H	 1.5569038473	-1.3129800868	-0.904975876	 0.094173
H	 3.4794586032	 0.2082249914	-0.5006312149	 0.134926
H	 2.3685402366	 1.3837387036	-1.1890573716	 0.13589
H	 2.1566375912	 0.1174239794	 2.7011222801	 0.134925
H	 0.8603564437	 1.2802027203	 2.4613216452	 0.135891
H	 0.5396128103	-1.3828349348	 1.55735254	 0.094171
82.088	155.9556	229.0843	250.8307	420.2903	439.5902	463.4148	494.224	645.6763	688.3153	728.2398	768.3316	779.7805	860.5199	886.6803	1003.5043	1011.8241	1030.1714	1097.8454	1102.6241	1130.717	1161.0929	1161.9111	1187.527	1216.7083	1276.3169	1277.3989	1326.2637	1342.3346	1399.5858	1441.7579	1445.797	1464.6314	1501.3937	1503.6976	1846.2195	2996.4837	3040.913	3043.6422	3071.9327	3086.5157	3086.9888	3105.3471	3136.7796	3145.7818
CN1C2CC(=O)CC12	CN1[C@H]2CC(=O)C[C@@H]12	
InChI=1S/C6H9NO/c1-7-5-2-4(8)3-6(5)7/h5-6H,2-3H2,1H3	InChI=1S/C6H9NO/c1-7-5-2-4(8)3-6(5)7/h5-6H,2-3H2,1H3/t5-,6+,7?
