23
gdb 116002	1.92235	1.29775	0.89801	1.3638	88.12	-0.2262	0.031	0.2571	1412.4818	0.205754	-388.30794	-388.297863	-388.296919	-388.34368	36.98	
C	-0.1031089109	 1.685211972	 0.163633609	-0.371987
C	-0.03175106	 0.1716216113	-0.1085959706	-0.295835
C	-1.3640475219	-0.5169931886	-0.0077868757	 0.329727
C	-2.0300584063	-1.102323507	-1.0065141454	-0.179156
C	-3.3452983455	-1.7002774936	-0.5721020929	-0.251798
C	-3.5367283761	-1.112231392	 0.8492316381	-0.220293
C	-2.1261902619	-0.6557581915	 1.3047233282	-0.071986
C	-1.4564381011	-1.6666511814	 2.2419118635	-0.083567
O	-2.194183499	-1.6917798029	 3.4568861114	-0.421758
H	 0.8862972412	 2.1437577908	 0.0703582064	 0.11115
H	-0.7746387628	 2.1767628975	-0.5472736319	 0.119514
H	-0.4733241355	 1.8956129405	 1.1718281874	 0.121647
H	 0.3841264389	 0.0028449234	-1.1084087652	 0.099786
H	 0.678480764	-0.2775330652	 0.5993863914	 0.100272
H	-1.6652387355	-1.1690641349	-2.0272464445	 0.080375
H	-4.1717622448	-1.4413606447	-1.2441716316	 0.098651
H	-3.2955950582	-2.7986688927	-0.5658340533	 0.100335
H	-4.1992125869	-0.2430432316	 0.7966560474	 0.098081
H	-3.9820265182	-1.8137844305	 1.558169856	 0.107534
H	-2.1777286825	 0.2907041425	 1.8565627413	 0.076705
H	-1.4430056019	-2.6583574236	 1.7613328034	 0.0854
H	-0.4098965887	-1.3765721876	 2.4258366522	 0.082274
H	-1.8140388661	-2.3675799502	 4.0254317553	 0.284927
39.3971	91.2509	108.446	157.8327	194.1443	220.0698	257.4354	289.849	303.1172	386.3256	462.1389	554.9006	629.9753	690.5722	786.2565	791.9925	851.7249	868.4634	918.3746	929.5321	968.8938	974.5645	999.6559	1060.8822	1063.4044	1076.0596	1099.5489	1104.5997	1166.6505	1180.4592	1226.117	1244.0823	1251.4149	1266.6806	1290.8132	1314.4354	1320.3416	1352.767	1356.8794	1368.8868	1406.9521	1450.0659	1480.0818	1486.3168	1498.0387	1502.3601	1506.9802	1520.6106	1714.3071	2964.1805	2991.6487	3002.9044	3009.1066	3029.8701	3037.1742	3044.1284	3057.564	3063.4615	3106.3884	3109.7887	3110.002	3174.033	3830.4837
CCC1=CCCC1CO	CCC1=CCC[C@H]1CO	
InChI=1S/C8H14O/c1-2-7-4-3-5-8(7)6-9/h4,8-9H,2-3,5-6H2,1H3	InChI=1S/C8H14O/c1-2-7-4-3-5-8(7)6-9/h4,8-9H,2-3,5-6H2,1H3/t8-/m0/s1
