19
gdb 70559	2.60311	1.45478	1.16463	1.9406	74.89	-0.2369	-0.0144	0.2226	1106.2499	0.159682	-423.044341	-423.036073	-423.035129	-423.07732	32.28	
O	-0.0546300796	 1.4085475	 0.0767303878	-0.468327
C	-0.0139686189	 0.0105767071	-0.0401452086	 0.39529
C	-0.5301588451	-0.5920638589	-1.3192365814	-0.347382
C	-1.3645696842	-0.6544001132	-0.0475843656	-0.061201
C	-1.5986909901	-1.9917034858	 0.6527536349	-0.243967
C	-0.4690864322	-2.3753172531	 1.6366213116	-0.289226
C	 0.8976906015	-2.1117718373	 1.0297154507	 0.375722
O	 1.7182673169	-2.9772825933	 0.8337733624	-0.311747
C	 1.1492966485	-0.647720837	 0.6908993797	-0.3734
H	 0.6612717985	 1.7713927	-0.4574480117	 0.28188
H	-0.8503037041	 0.0925691871	-2.0965446707	 0.114162
H	-0.0799681573	-1.5145158046	-1.6762284977	 0.119879
H	-2.1925599366	 0.0455498703	-0.0177890289	 0.102333
H	-2.5448125193	-1.9585294484	 1.2009990631	 0.111435
H	-1.7049907072	-2.7869465681	-0.0937705402	 0.117579
H	-0.5596236075	-1.7560368748	 2.5386810758	 0.117657
H	-0.5345996718	-3.4253879399	 1.9286338929	 0.118813
H	 2.0862986639	-0.5682340112	 0.130251692	 0.111616
H	 1.2778058846	-0.1129356088	 1.6417155542	 0.128883
61.2711	113.5783	212.6568	299.053	352.3242	361.3916	384.6701	413.8985	484.0736	499.814	539.09	627.8983	746.1073	780.2778	795.633	866.2751	895.3188	923.0354	936.537	960.8921	998.0951	1036.6897	1066.8765	1102.751	1112.4252	1153.7765	1198.9031	1221.7066	1232.5778	1244.4395	1278.6028	1322.6635	1330.3868	1346.1515	1372.4868	1411.1865	1462.6125	1476.6289	1488.1844	1502.221	1819.3086	3021.1743	3029.4482	3039.4408	3081.2611	3081.9883	3115.8788	3118.6459	3168.7341	3214.7456	3788.3122
OC12CC1CCC(=O)C2	O[C@]12C[C@H]1CCC(=O)C2	
InChI=1S/C7H10O2/c8-6-2-1-5-3-7(5,9)4-6/h5,9H,1-4H2	InChI=1S/C7H10O2/c8-6-2-1-5-3-7(5,9)4-6/h5,9H,1-4H2/t5-,7+/m1/s1
