20
gdb 73807	2.77511	1.33449	0.92603	3.6843	87.21	-0.199	0.0072	0.2062	1275.7667	0.170613	-403.202149	-403.192638	-403.191694	-403.236689	34.375	
C	-0.0318320848	 1.5173744116	 0.1566884319	-0.493195
C	-0.0002349016	 0.0332712457	-0.0037354354	 0.180663
C	 0.0109592928	-0.6877282593	-1.1367815948	 0.268743
C	 0.0099331708	-0.2162901876	-2.5550653775	-0.474386
N	 0.0281653201	-2.0803369355	-0.844415467	-0.105402
C	 0.2219249775	-2.2758024101	 0.6035019916	-0.181433
C	-0.0391476098	-0.8798358371	 1.2047603169	-0.316669
C	-0.0971013368	-3.1278509289	-1.7052326195	 0.138138
O	-0.2488157976	-3.0709356296	-2.909504332	-0.343608
H	 0.8281617569	 1.8734705535	 0.7395505513	 0.123599
H	-0.0250563215	 2.0434967798	-0.8003806668	 0.128554
H	-0.9291385075	 1.835996174	 0.7047914505	 0.124641
H	 0.8754264159	-0.6027165065	-3.1005696194	 0.145611
H	-0.8715156321	-0.57390135	-3.0920715296	 0.155329
H	 0.030973844	 0.8747051727	-2.5877335594	 0.114924
H	-0.4547725204	-3.0452733788	 0.9821456522	 0.123105
H	 1.2504689614	-2.6007952054	 0.800445993	 0.120041
H	 0.7136332078	-0.6180540784	 1.9564565438	 0.111071
H	-1.0143296506	-0.8227038446	 1.7091454936	 0.111455
H	-0.0455846645	-4.0913695355	-1.1582645332	 0.06882
51.2791	126.1016	155.87	183.7308	219.2264	230.1403	242.2357	313.4461	330.2369	394.238	484.6032	577.8623	597.7237	668.1404	752.0195	843.518	893.1553	974.0622	1003.3038	1009.8091	1025.5999	1068.2591	1099.0803	1102.5971	1142.7158	1192.3256	1221.5684	1242.7706	1282.4324	1334.0127	1359.3387	1412.8689	1425.5625	1437.9381	1453.3013	1469.2679	1475.8998	1478.2691	1492.7386	1495.2091	1519.4603	1737.5452	1788.4298	2920.493	3000.4903	3008.6473	3025.4477	3045.8902	3055.7919	3056.1832	3096.1797	3116.0861	3118.7539	3138.5715
CC1=C(C)N(CC1)C=O	CC1=C(C)N(CC1)C=O	
InChI=1S/C7H11NO/c1-6-3-4-8(5-9)7(6)2/h5H,3-4H2,1-2H3	InChI=1S/C7H11NO/c1-6-3-4-8(5-9)7(6)2/h5H,3-4H2,1-2H3
