16
gdb 67724	2.53061	1.82319	1.16335	3.2174	81.23	-0.2015	-0.0249	0.1766	1027.5254	0.125065	-400.733842	-400.726426	-400.725482	-400.765497	29.106	
O	 0.0814125794	 1.4113813968	-0.4006586015	-0.423502
C	 0.0292564332	 0.0646160476	-0.276556984	 0.376875
C	-0.7899487898	-0.7416226036	-0.9799714753	-0.278983
C	-0.6248384715	-2.139421876	-0.6005642053	 0.388812
C	-1.2550537967	-3.2103199028	-1.0940780145	-0.442388
N	-0.1685716043	-2.1529928782	 1.9118870452	-0.171478
C	 0.2314876941	-0.9452429654	 2.0744273754	-0.004813
C	 0.8677633007	-0.6944193714	 0.7151770117	-0.271062
C	 0.4062907072	-2.1736298167	 0.5099012914	-0.093093
H	 0.7701390583	 1.7611110557	 0.1727686549	 0.303374
H	-1.4991252479	-0.3960758627	-1.7215485811	 0.102775
H	-2.0092255851	-3.1191775458	-1.8683315186	 0.101805
H	-1.0441681174	-4.2086589359	-0.728160594	 0.106578
H	 0.0905215627	-0.3283111995	 2.9626254574	 0.117142
H	 1.9362985537	-0.4507377086	 0.6937333994	 0.092244
H	 1.1734144433	-2.9421951536	 0.400479359	 0.095712
133.0943	173.466	242.2312	296.3271	318.3405	348.1604	453.54	581.6606	598.8278	633.7305	643.9323	700.4451	821.3999	874.5816	879.775	895.2217	904.9196	937.0304	959.0406	968.0359	984.163	1022.6876	1170.8531	1190.591	1198.3968	1219.6226	1259.5819	1267.5347	1306.8295	1309.3355	1388.4757	1459.8615	1648.1788	1697.1822	1705.5611	3042.6403	3099.5147	3127.2487	3152.2985	3213.1082	3235.5827	3834.0126
OC12C=C3CN4C1C2C34	O[C]1C=C([CH2])[C@@H]2[N][CH][C@H]12	
InChI=1S/C7H7NO/c9-7-1-3-2-8-5(3)4(7)6(7)8/h1,4-6,9H,2H2	InChI=1S/C7H7NO/c1-4-2-6(9)5-3-8-7(4)5/h2-3,5,7,9H,1H2/t5-,7+/m1/s1
