20
gdb 69498	2.96438	1.41387	1.30318	0.8369	77.89	-0.2209	0.0771	0.2979	1078.6134	0.171087	-403.111917	-403.103784	-403.10284	-403.143855	33.266	
C	 0.0418566095	 1.4772629009	-0.08483092	-0.478659
C	-0.0533378277	-0.029453591	-0.0432362649	 0.348892
C	-0.6228752078	-0.7239769142	 1.1413502291	-0.296866
N	 0.8314155856	-0.7490331653	 0.9199226823	-0.134486
C	 1.3583857196	-1.950934891	 0.247017023	-0.253203
C	 0.8827168051	-1.9601041628	-1.2159062629	 0.410673
O	 1.7715674571	-2.3997245231	-2.1944546127	-0.463618
C	-0.5641548774	-2.1663020933	-1.5120631295	-0.338352
C	-0.0245551141	-0.7503541433	-1.3732477034	-0.187293
H	 0.8840493916	 1.8018628523	-0.7065315989	 0.115078
H	-0.8723519054	 1.9148837641	-0.5014639243	 0.118578
H	 0.1899250334	 1.8795970135	 0.9202925063	 0.127148
H	-0.9306555265	-0.1412449655	 2.0069636051	 0.108525
H	-1.1955315617	-1.6376013023	 1.0075583591	 0.10744
H	 2.453949703	-1.893175291	 0.2504789566	 0.099744
H	 1.0828936305	-2.8592973845	 0.7945983613	 0.111102
H	 2.5489984426	-1.8297075015	-2.1703631561	 0.280872
H	-0.7819195448	-2.4787979938	-2.5280517154	 0.122572
H	-1.2296517997	-2.5848507765	-0.7658320392	 0.114009
H	 0.0137399673	-0.1430100816	-2.2703799056	 0.087842
145.6612	195.3192	221.1651	307.5964	320.1959	342.3678	392.5312	415.1738	451.8987	489.3477	579.0913	605.9181	703.0171	737.1721	769.2519	850.3007	895.8226	911.4608	927.44	969.0006	975.4624	1012.4254	1028.9433	1058.3915	1068.8232	1082.6479	1104.4032	1122.312	1164.5243	1209.5529	1231.8661	1250.1657	1261.7132	1327.4786	1350.2391	1371.6086	1413.0834	1423.2898	1483.3038	1486.5325	1495.6885	1501.0207	1521.2336	3023.9097	3029.1886	3064.8552	3089.3366	3098.5463	3120.6576	3136.2062	3177.2944	3177.8077	3221.6513	3784.835
CC12CN1CC1(O)CC21	C[C@]12CN1C[C@@]1(O)C[C@@H]21	
InChI=1S/C7H11NO/c1-6-3-8(6)4-7(9)2-5(6)7/h5,9H,2-4H2,1H3	InChI=1S/C7H11NO/c1-6-3-8(6)4-7(9)2-5(6)7/h5,9H,2-4H2,1H3/t5-,6+,7-,8?/m0/s1
