14
gdb 19344	4.27418	1.84051	1.53786	2.8035	62.61	-0.2454	-0.0255	0.2198	810.4715	0.106127	-382.470205	-382.463734	-382.462789	-382.500843	24.856	
O	-0.1149103303	 0.0128072119	 0.0002638251	-0.281558
C	-0.0014613058	 1.2183680833	-0.0312767497	 0.060874
C	 1.2730803595	 1.9234285544	 0.0286126183	 0.220239
C	 1.4194497474	 3.3975703269	 0.3642749733	-0.331831
C	 1.775834919	 2.976030406	-1.0133237096	-0.137617
C	 3.1245683726	 2.1957922689	-1.0620580665	 0.028661
O	 3.6936204165	 2.1505182593	 0.250920489	-0.23941
C	 2.6564256298	 1.2198134045	-0.0850606647	-0.039889
H	-0.8912209314	 1.8833894882	-0.123688973	 0.065841
H	 0.4787730634	 3.9310929866	 0.4594218883	 0.129562
H	 2.194524718	 3.6828323182	 1.0639625952	 0.154052
H	 1.2338050996	 3.2898027195	-1.895328926	 0.118228
H	 3.7896020104	 2.1081905382	-1.911468488	 0.121002
H	 2.8422074213	 0.1615316741	 0.0360692483	 0.131845
119.6253	177.7584	257.6728	395.3326	427.8142	486.0732	596.4464	680.0952	735.7575	768.5734	817.8603	860.4719	875.4701	918.7095	966.6822	981.5081	996.4242	1032.2521	1050.7577	1073.7612	1111.4161	1193.8084	1205.4317	1250.4169	1298.4573	1350.3932	1394.0767	1432.565	1462.0473	1786.3199	2862.2657	3140.8956	3201.3036	3213.5847	3225.2923	3237.222
O=CC12CC1C1OC21	O=C[C@]12C[C@H]1[C@H]1O[C@@H]21	
InChI=1S/C6H6O2/c7-2-6-1-3(6)4-5(6)8-4/h2-5H,1H2	InChI=1S/C6H6O2/c7-2-6-1-3(6)4-5(6)8-4/h2-5H,1H2/t3-,4+,5+,6+/m0/s1
