20
gdb 112672	3.12075	1.13103	0.89062	1.9666	77.29	-0.2657	0.0242	0.2898	1360.1381	0.170214	-440.31951	-440.31015	-440.309206	-440.354053	34.218	
C	-0.0612999611	 1.5140517126	-0.0836486642	-0.38909
C	 0.1332092055	-0.0034604568	-0.1193350638	-0.203623
C	 0.717949088	-0.5526781744	 1.1649435236	 0.217958
O	 0.8542000324	-1.9464272148	 1.0969253389	-0.27025
C	 1.9600698359	-2.2932354755	 1.9304172783	 0.034204
C	 2.6462438668	-3.5481100166	 1.4259577814	-0.399949
C	 2.8183421915	-1.0407588542	 1.881110462	 0.387209
N	 4.0245744015	-0.9577588264	 2.2369591851	-0.540152
O	 2.0468626967	-0.0361843965	 1.3829578121	-0.249762
H	 0.8918560021	 2.0269429873	 0.0709505053	 0.136869
H	-0.490910505	 1.8704353509	-1.0236667408	 0.121084
H	-0.7380849437	 1.8105265958	 0.7251278033	 0.118777
H	-0.8229475281	-0.5133772248	-0.281807286	 0.116104
H	 0.7992553029	-0.2961412286	-0.9378315269	 0.114957
H	 0.1126515757	-0.2600956545	 2.0412554854	 0.077567
H	 1.6160658378	-2.4391341764	 2.9682785981	 0.100043
H	 2.9519321986	-3.4198677656	 0.3845547892	 0.129079
H	 3.5361111615	-3.7371924886	 2.0305970706	 0.148395
H	 1.974004002	-4.407065449	 1.4949469457	 0.124808
H	 4.3771393287	-0.0064143538	 2.1234328229	 0.225771
70.5868	101.97	107.2361	192.5447	208.3111	237.8208	248.2962	352.7515	416.7899	460.3609	510.9187	600.0743	685.4415	717.4037	783.2176	821.343	889.5948	896.7623	917.2416	952.494	1024.2115	1056.9212	1079.1229	1110.9277	1127.8099	1151.8879	1158.0817	1184.367	1281.273	1284.6818	1328.2438	1338.7497	1366.8401	1398.681	1405.8336	1414.9936	1442.0417	1477.2348	1483.6799	1494.9415	1499.2177	1509.4823	1792.5794	2949.2098	2966.2327	3040.8635	3047.4892	3053.9701	3087.2789	3110.6838	3124.325	3131.2987	3141.3829	3479.7238
CCC1OC(C)C(=N)O1	CC[C@H]1O[C@@H](C)[C]([NH])O1	
InChI=1S/C6H11NO2/c1-3-5-8-4(2)6(7)9-5/h4-5,7H,3H2,1-2H3	InChI=1S/C6H11NO2/c1-3-5-8-4(2)6(7)9-5/h4-5,7H,3H2,1-2H3/t4-,5-/m0/s1
