18
gdb 11024	4.21487	1.6637	1.39168	1.75	73.33	-0.2317	0.0129	0.2446	956.3828	0.15295	-347.809568	-347.80178	-347.800836	-347.841144	29.906	
C	 0.0418606558	 1.511363932	 0.086270901	-0.501653
C	-0.0120847123	 0.0199965118	-0.0069191998	 0.3459
C	-0.0113872482	-0.7429200269	-1.1063317038	-0.180886
C	-0.0815514568	-2.2225526294	-0.7961650724	-0.325571
C	-0.0733547744	-2.2660382183	 0.7350765741	 0.419538
C	-0.6942620646	-3.4175709894	 1.4766171812	-0.483794
O	 1.1309414149	-1.7258918277	 1.2975249119	-0.298914
C	-0.0334785431	-0.867695441	 1.2013551928	-0.135373
H	 0.9451009545	 1.8436761663	 0.6130726735	 0.134627
H	 0.0349137909	 1.9752370354	-0.9037561388	 0.12455
H	-0.812424726	 1.9065749028	 0.6506768988	 0.124677
H	 0.066228961	-0.3654592022	-2.120718416	 0.09102
H	-0.991836697	-2.6847256696	-1.201349298	 0.105582
H	 0.7679436619	-2.7782983077	-1.2122702996	 0.120279
H	-0.168007556	-4.3522125818	 1.2515916129	 0.126485
H	-0.6414517588	-3.2518859664	 2.5555512984	 0.128802
H	-1.7434632539	-3.5473239351	 1.1908102003	 0.120057
H	-0.4353652779	-0.535326673	 2.1557263135	 0.084673
148.4834	176.0768	195.7687	246.1299	259.4527	349.3104	391.4404	411.5102	548.2379	598.819	644.196	753.8994	811.439	846.0844	885.6872	915.5663	952.5508	964.1132	1006.3211	1029.8067	1062.9599	1071.5149	1094.2461	1192.8908	1194.1794	1224.3714	1261.0897	1322.7745	1346.5343	1407.7371	1415.0155	1441.5908	1465.3533	1479.0963	1485.854	1489.6444	1496.6043	1706.5155	3018.1833	3018.6272	3033.4613	3055.341	3064.9933	3094.2116	3110.8442	3122.2808	3141.3117	3184.981
CC1=CCC2(C)OC12	CC1=CC[C@@]2(C)O[C@@H]12	
InChI=1S/C7H10O/c1-5-3-4-7(2)6(5)8-7/h3,6H,4H2,1-2H3	InChI=1S/C7H10O/c1-5-3-4-7(2)6(5)8-7/h3,6H,4H2,1-2H3/t6-,7+/m0/s1
