17
gdb 30592	4.61735	0.98669	0.82114	0.4301	77.87	-0.2439	-0.0467	0.1972	1367.0222	0.137234	-418.079423	-418.070929	-418.069984	-418.113696	30.346	
C	-0.0286969475	 1.5983911923	 0.0230868115	-0.379485
C	 0.0136611572	 0.0727717143	-0.0202133188	-0.291608
C	 0.7175051431	-0.4710894306	-1.2541331132	 0.285851
O	 1.1960907461	 0.2559381226	-2.1105896601	-0.36132
C	 0.8110214181	-1.9235627531	-1.3960863696	 0.24025
C	 0.4035975015	-3.0210750667	-0.6599427394	-0.159231
N	 0.7639344302	-4.1841925358	-1.2772633143	-0.259011
C	 1.3872157978	-3.8073788927	-2.3824407725	 0.03436
N	 1.4412291417	-2.4635057709	-2.4992341929	-0.288163
H	 0.9805390602	 2.0173671473	 0.0164102446	 0.132388
H	-0.552095915	 1.9994222262	-0.8483565696	 0.13227
H	-0.5418019168	 1.9423964458	 0.9252034291	 0.1104
H	 0.5213591408	-0.3345116047	 0.8642290256	 0.128258
H	-0.9983861017	-0.3525261081	 0.005811169	 0.128139
H	-0.1289211191	-3.0270101153	 0.279491669	 0.120748
H	 1.8110066992	-4.4732874438	-3.1194152818	 0.14317
H	 1.8489239041	-1.8974354167	-3.2275604967	 0.282982
37.1774	97.8539	138.5247	168.0827	209.399	281.6016	361.499	506.0125	539.4985	629.5058	680.4684	699.1022	711.4833	812.7442	848.8367	882.5448	922.26	953.6054	1008.8444	1044.4768	1089.7294	1096.7802	1123.8916	1168.1416	1266.927	1275.3394	1301.971	1343.8521	1399.0357	1414.2188	1435.7751	1456.2436	1481.0618	1492.6223	1498.6605	1583.6196	1743.5165	3024.5081	3052.9994	3053.193	3124.8361	3129.3256	3247.7943	3254.986	3646.1465
CCC(=O)C1=CN=CN1	CCC(=O)c1cnc[nH]1	
InChI=1S/C6H8N2O/c1-2-6(9)5-3-7-4-8-5/h3-4H,2H2,1H3,(H,7,8)	InChI=1S/C6H8N2O/c1-2-6(9)5-3-7-4-8-5/h3-4H,2H2,1H3,(H,7,8)
