19
gdb 97058	3.01829	1.24656	0.8977	4.2809	86.51	-0.2003	0.0055	0.2058	1306.2338	0.158703	-419.240764	-419.230914	-419.22997	-419.276118	35.01	
C	-0.0127290844	 1.4195973287	-0.0394666702	-0.330046
N	-0.0184384045	-0.0317888456	-0.0295169596	-0.346163
C	 0.5597767921	-0.6708130255	-0.9543912186	 0.400159
O	 1.228976717	-0.0840649835	-2.0208403154	-0.265963
C	 1.7634814102	-1.1039654823	-2.851074708	-0.164167
C	 1.3330159675	-2.3970139105	-2.2103692134	 0.219959
N	 1.7392487806	-3.6061449002	-2.7331473374	-0.589976
C	 0.6304385392	-2.1241690686	-1.0945096099	 0.101164
C	 0.0027123413	-3.0582643663	-0.1116031753	-0.511939
H	 0.7106287072	 1.8638701245	-0.7332994866	 0.117917
H	-1.0111400496	 1.7931363035	-0.3034046767	 0.116336
H	 0.2007484573	 1.7843002868	 0.9716902417	 0.115299
H	 1.3710475774	-0.9871297081	-3.8723133201	 0.113462
H	 2.8575283374	-1.0118106183	-2.8993517713	 0.126623
H	 1.8382165235	-3.6413523581	-3.7378605517	 0.252708
H	 1.2593860044	-4.4179559985	-2.370941015	 0.256707
H	 0.6735461556	-3.2826942879	 0.7265856593	 0.134229
H	-0.8948145941	-2.5996086707	 0.3111819808	 0.153228
H	-0.2777586382	-4.0119859794	-0.5741866626	 0.100462
46.4966	75.1412	107.2949	196.5311	201.6006	213.0166	249.5018	327.204	337.4182	364.729	512.7495	538.8085	611.3338	621.3939	688.2028	727.5912	738.5031	901.1162	1016.123	1034.4875	1043.8957	1060.3629	1076.9989	1085.89	1131.0335	1167.5591	1199.1278	1229.451	1290.616	1377.1338	1397.409	1435.2598	1438.4461	1476.6103	1493.1472	1495.9068	1498.8033	1508.9786	1648.8078	1736.7748	1782.2701	2993.3765	3005.708	3021.0714	3024.7197	3058.3103	3070.8373	3079.4056	3117.2715	3554.0865	3654.2519
CN=C1OCC(N)=C1C	CN=C1OCC(=C1C)N	
InChI=1S/C6H10N2O/c1-4-5(7)3-9-6(4)8-2/h3,7H2,1-2H3	InChI=1S/C6H10N2O/c1-4-5(7)3-9-6(4)8-2/h3,7H2,1-2H3
