21
gdb 99895	2.25117	1.32607	1.18122	2.6526	82.89	-0.2539	0.0281	0.2819	1213.1309	0.180752	-383.261144	-383.251073	-383.250128	-383.295792	37.152	
C	 0.4639523377	 1.3285499888	-0.6388895615	-0.408184
C	 0.4057937425	-0.1499560294	-0.2487668363	-0.184132
C	 0.671494601	-0.4600333793	 1.245656818	 0.121326
C	 2.0791415031	-0.026171968	 1.6906018301	-0.403622
C	-0.333696931	 0.2543864668	 2.0741243924	 0.264206
N	-1.1348749937	 0.7672390738	 2.7325002705	-0.363421
N	 0.5905740404	-1.9204063213	 1.402598225	-0.08318
C	 0.2873903459	-2.5042269762	 2.7052990888	-0.238203
C	-0.7024767258	-2.5703627502	 1.5922157424	-0.235993
H	 1.4614999979	 1.7522930583	-0.4910767557	 0.12229
H	 0.2117301928	 1.4458805669	-1.6966806083	 0.122431
H	-0.247190569	 1.9251472312	-0.0590249824	 0.141238
H	-0.5782582039	-0.5594594727	-0.5018911759	 0.113241
H	 1.1417130008	-0.7303471713	-0.8148430226	 0.115469
H	 2.2099028689	 1.0542022165	 1.603826959	 0.134503
H	 2.2524616075	-0.3092419355	 2.7317732334	 0.133351
H	 2.8180490017	-0.5328119083	 1.0646789693	 0.132794
H	 0.88256378	-3.372004843	 2.9733587849	 0.121756
H	 0.043804142	-1.8366000307	 3.5291725261	 0.135868
H	-1.5863864322	-1.9446464832	 1.6954037698	 0.136613
H	-0.8466321364	-3.4873806435	 1.0289565531	 0.121648
90.8604	98.3461	148.0454	162.4671	202.553	224.1045	245.2218	284.8858	316.9497	384.2949	404.0683	461.0669	585.5949	600.2323	649.9071	771.9145	804.3859	834.149	896.4137	919.3184	973.6242	1011.3472	1025.9425	1039.9616	1076.8642	1115.8544	1129.1797	1153.8393	1169.9251	1181.7864	1206.5457	1220.542	1311.0817	1313.541	1359.7824	1406.2759	1416.6973	1479.9612	1485.5062	1486.1665	1497.4286	1505.9596	1508.5035	1514.5374	2335.1505	3042.9537	3044.9067	3054.4116	3083.9356	3104.5445	3107.2949	3113.0747	3117.0348	3130.6141	3141.3416	3188.3457	3201.7761
CCC(C)(C#N)N1CC1	CC[C@@](C)(C#N)N1CC1	
InChI=1S/C7H12N2/c1-3-7(2,6-8)9-4-5-9/h3-5H2,1-2H3	InChI=1S/C7H12N2/c1-3-7(2,6-8)9-4-5-9/h3-5H2,1-2H3/t7-/m0/s1
