14
gdb 21951	7.64773	1.08241	0.95945	2.4366	58.65	-0.2789	-0.0239	0.255	1129.3685	0.1076	-415.855848	-415.848338	-415.847394	-415.88923	25.586	
O	-0.086429915	 1.4416702846	 0.0283100683	-0.41931
C	-0.0819446107	 0.0752707617	 0.4046645496	-0.072886
C	-1.1425611747	-0.6089864789	-0.452434513	-0.315321
C	-1.2558848099	-2.0650634475	-0.1674896	 0.446713
N	-0.5848623446	-2.780542976	 0.6887091849	-0.321203
C	-1.1246229556	-4.0289481055	 0.4969670388	 0.036898
N	-2.0609072331	-4.100209137	-0.406266527	-0.113203
O	-2.1554445979	-2.7767622309	-0.8600477798	-0.202153
H	 0.5748896712	 1.9002998946	 0.5542426441	 0.291932
H	 0.8953253642	-0.3964846791	 0.2303240407	 0.109856
H	-0.3227561785	-0.0594447087	 1.4685493384	 0.10989
H	-2.1143121251	-0.1294457314	-0.287506802	 0.150514
H	-0.9085531597	-0.463097612	-1.5132864249	 0.150504
H	-0.8091611006	-4.9040613137	 1.0462788219	 0.147769
27.5056	89.8288	146.349	252.625	265.9404	357.51	407.5882	650.6615	691.6289	772.2929	806.9294	911.0575	931.239	979.5932	1027.3314	1033.1215	1079.7369	1096.3352	1191.1222	1203.6476	1216.0048	1257.954	1291.2927	1303.7545	1374.8874	1468.3446	1473.3594	1522.3468	1525.8206	1619.5408	2998.4611	3029.2861	3047.1769	3083.1261	3260.8026	3836.5526
OCCC1=NC=NO1	OCCc1ncno1	
InChI=1S/C4H6N2O2/c7-2-1-4-5-3-6-8-4/h3,7H,1-2H2	InChI=1S/C4H6N2O2/c7-2-1-4-5-3-6-8-4/h3,7H,1-2H2
