16
gdb 38330	4.12403	1.47981	1.24402	1.7048	68.33	-0.2453	0.0162	0.2614	979.7007	0.125397	-437.818373	-437.811699	-437.810755	-437.849617	26.352	
C	-0.1548553758	 1.5389216619	 0.0828712588	-0.239828
C	 1.3720525414	 1.2762383079	 0.0908113705	-0.028308
O	 1.1365924569	 0.1642448552	 1.0397652884	-0.310167
C	 0.0922854129	 0.0115835173	 0.001205895	-0.0283
C	 1.1717545738	 0.2787949493	-1.0789351693	 0.473329
C	 0.8687938857	 0.6888063596	-2.5391835799	-0.284886
N	 1.7542804191	-0.1491066805	-3.364106331	-0.265047
C	 2.4001162435	-0.8610511393	-2.5390564546	 0.10073
O	 2.1792035747	-0.7315038735	-1.2086048397	-0.254142
H	-0.5461521005	 1.8667412927	 1.0447655014	 0.121577
H	-0.607597428	 2.0571961853	-0.7656237123	 0.109491
H	 2.2021332808	 1.9532778057	 0.2925409633	 0.105238
H	-0.6050688632	-0.8207771119	 0.0959871183	 0.10524
H	-0.1760935535	 0.5095272812	-2.815006332	 0.126058
H	 1.0771962406	 1.7476601001	-2.7273740661	 0.126057
H	 3.1494814717	-1.6013073711	-2.7959136408	 0.142958
90.1458	218.3968	224.2134	387.7361	421.958	519.349	525.5689	642.5963	769.6689	774.9428	790.993	873.4379	881.8822	900.5687	918.5419	964.1313	990.9107	1008.4706	1012.8836	1087.4949	1089.8243	1118.5532	1127.5098	1162.7566	1171.3611	1197.8671	1204.9678	1230.5938	1261.9259	1295.4545	1334.074	1343.8343	1484.8395	1492.3364	1708.3123	3037.4584	3070.0986	3072.0975	3122.8885	3128.2997	3164.4607	3219.6789
C1C2OC1C21CN=CO1	C1[C@H]2O[C@@H]1[C@]12CN=CO1	
InChI=1S/C6H7NO2/c1-4-6(5(1)9-4)2-7-3-8-6/h3-5H,1-2H2	InChI=1S/C6H7NO2/c1-4-6(5(1)9-4)2-7-3-8-6/h3-5H,1-2H2/t4-,5+,6-
