12
gdb 21508	5.28769	1.7641	1.32278	1.1534	56.96	-0.2737	-0.043	0.2307	835.586	0.085755	-410.877814	-410.871173	-410.870228	-410.908923	23.941	
N	-0.1025525577	 1.3190210654	 0.0090995324	-0.561359
C	 0.0943614426	-0.0132846824	 0.0021089724	 0.522162
O	 1.1464979221	-0.6041067182	-0.0093413675	-0.365542
N	-1.1452467973	-0.7436810855	 0.0103837974	-0.021546
C	-1.2955640819	-2.0934293842	 0.0071981263	-0.061666
C	-2.6521097718	-2.2749176129	 0.0182911581	-0.075302
N	-3.2631387221	-1.049375586	 0.0274318773	-0.179534
N	-2.3562145258	-0.1267425853	 0.0225128734	-0.14801
H	 0.7043626261	 1.9172301558	 0.0026753527	 0.280698
H	-1.0371369196	 1.6954952178	 0.0173716484	 0.294139
H	-0.4463857966	-2.7533999274	-0.0022137768	 0.177987
H	-3.222771258	-3.1887791872	 0.020275036	 0.137974
86.8649	167.4845	231.5094	274.1145	422.2157	512.2231	591.5353	635.8812	678.8034	715.7026	771.4958	822.4036	886.0485	961.063	1019.617	1049.7368	1107.452	1128.3776	1206.029	1275.3961	1318.375	1387.2634	1470.1963	1527.9068	1597.3089	1856.7365	3279.992	3313.134	3599.1056	3748.2561
NC(=O)N1C=CN=N1	NC(=O)n1ccnn1	
InChI=1S/C3H4N4O/c4-3(8)7-2-1-5-6-7/h1-2H,(H2,4,8)	InChI=1S/C3H4N4O/c4-3(8)7-2-1-5-6-7/h1-2H,(H2,4,8)
