21
gdb 112088	3.04489	1.24474	0.98094	1.2997	83.73	-0.2323	0.0307	0.2631	1250.3379	0.184312	-387.087628	-387.07916	-387.078216	-387.12064	33.148	
O	 0.1152304569	 1.351415136	-0.1169066012	-0.422479
C	 0.0490486969	-0.0670488538	-0.1786474754	-0.077409
C	-1.4078335339	-0.4870683936	 0.0556978016	-0.052632
C	-2.3150778008	 0.0500826241	-1.0217134369	-0.046048
C	-3.362864989	-0.6055429603	-1.5182628654	-0.081451
C	-3.7917073334	-1.9776553777	-1.072670331	-0.273887
C	-2.7078165784	-2.738888434	-0.32817992	-0.036975
C	-1.3488687576	-2.9176926239	-0.9571806505	-0.289857
C	-1.5185163585	-1.9942465205	 0.2297666989	-0.036402
H	 0.9998409441	 1.6239118259	-0.3758970534	 0.286844
H	 0.3868833458	-0.4417363587	-1.1567847895	 0.088645
H	 0.6883995238	-0.5268138053	 0.5919008241	 0.08135
H	-1.7014078977	-0.0133031	 1.0057087175	 0.092307
H	-2.0758012085	 1.0484681591	-1.3753802065	 0.099017
H	-3.9757690111	-0.1315337979	-2.2815678532	 0.082152
H	-4.6761766558	-1.8819918586	-0.4248752225	 0.109553
H	-4.1321658093	-2.5602866837	-1.9402771614	 0.102103
H	-3.0714720881	-3.5737572567	 0.2636745857	 0.078506
H	-0.828131855	-3.8573794199	-0.8093952617	 0.104284
H	-1.1880139753	-2.4630845902	-1.9294142954	 0.114559
H	-1.120216675	-2.3603543402	 1.1722288363	 0.077821
90.9065	122.6875	182.3046	241.0009	272.3666	311.7363	362.2207	388.9919	505.5604	526.654	597.832	726.0337	753.5311	788.9633	829.1379	848.7519	879.8443	932.1758	952.0403	1010.1946	1026.1394	1040.0954	1062.3092	1065.106	1072.2526	1088.6687	1119.5251	1138.4752	1153.8534	1201.9464	1228.1906	1231.461	1241.9352	1250.8589	1325.1593	1350.4595	1359.9331	1368.0092	1415.1617	1423.1078	1450.5096	1478.9065	1492.4782	1518.0546	1724.9999	2968.4492	2977.9002	2993.1977	3009.2118	3016.6613	3129.4334	3133.5331	3146.1223	3147.2595	3181.4124	3214.8155	3834.8766
OCC1C=CCC2CC12	OC[C@H]1C=CC[C@H]2C[C@@H]12	
InChI=1S/C8H12O/c9-5-7-3-1-2-6-4-8(6)7/h1,3,6-9H,2,4-5H2	InChI=1S/C8H12O/c9-5-7-3-1-2-6-4-8(6)7/h1,3,6-9H,2,4-5H2/t6-,7+,8+/m0/s1
