16
gdb 30409	2.55574	1.61742	0.99664	6.4059	80.34	-0.1912	-0.006	0.1852	1141.2163	0.125072	-434.089429	-434.08085	-434.079906	-434.124519	31.139	
C	 0.0143791845	 1.391169713	 0.0075557164	-0.302985
N	 0.0337214088	-0.0611642427	 0.0028216972	-0.309115
C	-1.0911739446	-0.6669631594	 0.0091400253	 0.305296
N	-2.3381859368	-0.0112327717	 0.0203575366	-0.33995
C	-3.4258050258	-0.696783602	 0.0261298458	 0.088085
N	-3.4896175852	-2.0528769948	 0.0223353456	-0.305325
C	-2.3073222514	-2.7902298662	 0.0113123967	-0.147246
C	-1.1230067535	-2.1411381483	 0.0046851077	 0.288879
O	 0.0777997877	-2.7619945479	-0.006081014	-0.404239
H	 1.0437593377	 1.7603998635	-0.0011315311	 0.103725
H	-0.5104057917	 1.8025494073	-0.8656115439	 0.112474
H	-0.4932004157	 1.7967018346	 0.893560389	 0.11244
H	-4.3894171162	-0.189215317	 0.0347874971	 0.123864
H	-4.3795944546	-2.5214597684	 0.0272703542	 0.266268
H	-2.4078637186	-3.8682806101	 0.008655809	 0.113661
H	-0.0550782047	-3.7171107399	-0.0081230917	 0.294169
9.4525	94.1886	204.993	211.1156	305.2763	340.4302	358.3378	392.5646	491.705	506.4608	562.1834	576.1697	593.1039	767.903	780.2602	794.2371	911.4008	946.2637	1048.3941	1066.1004	1100.8543	1104.0516	1168.0668	1227.1436	1237.8034	1305.2791	1422.396	1433.0855	1453.0402	1479.1685	1494.1444	1530.1546	1657.0745	1688.8341	1702.8464	2995.9959	3043.814	3092.4212	3141.15	3205.1406	3660.5902	3796.7816
CN=C1N=CNC=C1O	C[N]C1=NCNC=C1O	
InChI=1S/C5H7N3O/c1-6-5-4(9)2-7-3-8-5/h2-3,9H,1H3,(H,6,7,8)	InChI=1S/C5H8N3O/c1-6-5-4(9)2-7-3-8-5/h2,7,9H,3H2,1H3
