16
gdb 98712	3.07608	1.13869	0.94505	6.1571	71.93	-0.2623	0.0101	0.2724	1252.0496	0.123723	-434.079971	-434.070657	-434.069713	-434.11508	32.036	
C	-0.156078208	 1.2864654092	 0.2088041073	-0.327702
N	-0.1642248202	-0.1287701971	-0.1134019469	-0.331548
C	-1.3192301388	-0.8551014562	-0.0824092377	 0.453837
O	-2.3885042809	-0.4539730932	 0.3191424427	-0.36936
N	-1.1542032619	-2.1543011887	-0.637800184	-0.139634
C	-0.2575927518	-3.1564125587	-0.0959414923	-0.253493
C	-1.7554367314	-3.321671578	-0.0256533046	-0.143864
C	-2.3904177886	-3.2621017749	 1.2728705215	 0.311606
N	-2.895861111	-3.2956007558	 2.3115288445	-0.326616
H	 0.7266797745	 1.5353376357	 0.8048511359	 0.128778
H	-0.1652203188	 1.9145340472	-0.6904259744	 0.129527
H	-1.0543085226	 1.4978633228	 0.7892202312	 0.176588
H	 0.6128962964	-0.509092971	-0.6286111911	 0.252442
H	 0.3083425093	-3.7401246654	-0.8167815974	 0.139006
H	 0.2497034132	-2.9393810279	 0.8408666258	 0.152735
H	-2.2482332795	-3.996606558	-0.7200639505	 0.147698
51.3072	81.3306	103.6564	138.6221	186.336	235.9981	278.7166	314.0152	456.229	475.1691	536.606	558.8027	665.8707	770.3666	795.4913	846.9036	940.4162	995.5333	1044.5816	1084.1194	1115.5407	1128.6963	1153.8968	1158.6897	1175.967	1234.8407	1342.0662	1385.6086	1445.061	1490.6356	1500.3833	1507.7595	1556.2588	1809.0398	2363.429	3026.7535	3090.6201	3107.6825	3151.2204	3159.4415	3202.239	3642.1948
CNC(=O)N1CC1C#N	CNC(=O)N1C[C@H]1C#N	
InChI=1S/C5H7N3O/c1-7-5(9)8-3-4(8)2-6/h4H,3H2,1H3,(H,7,9)	InChI=1S/C5H7N3O/c1-7-5(9)8-3-4(8)2-6/h4H,3H2,1H3,(H,7,9)/t4-,8?/m1/s1
