21
gdb 87824	2.73703	1.35456	1.16205	1.7413	82.95	-0.2393	0.0888	0.3281	1181.6644	0.180769	-387.048035	-387.038999	-387.038055	-387.081328	34.934	
C	-0.1526132121	 1.4761236553	-0.0050980335	-0.405344
C	 0.0483946769	-0.0226659438	 0.022259905	-0.05337
C	 1.4260897954	-0.6216470448	-0.1755140274	-0.365185
C	 0.7550325658	-0.6850180945	 1.1674344543	 0.322848
C	 1.2857984721	-0.0760483486	 2.4916023653	-0.348874
C	 0.8293577361	-1.3730444122	 3.1822977957	-0.042864
O	-0.5773932705	-1.512417219	 2.9422183074	-0.293178
C	 0.3397049227	-1.9476642579	 1.9155568279	 0.345262
C	 0.2197288219	-3.3470848014	 1.409200195	-0.514604
H	 0.7015155134	 1.998521139	 0.4383102007	 0.114463
H	-0.2674727178	 1.8417687968	-1.0315510499	 0.115712
H	-1.0469874956	 1.7664276928	 0.5568271143	 0.123307
H	-0.7729918691	-0.5925219526	-0.4073362112	 0.082665
H	 1.5169387358	-1.5353368332	-0.7551557473	 0.108103
H	 2.2646651443	 0.0597014306	-0.2890796245	 0.107402
H	 2.3712666154	 0.0576400459	 2.4946311435	 0.104277
H	 0.7996917714	 0.8332055601	 2.855003135	 0.109439
H	 1.2326818247	-1.8503726713	 4.0686679827	 0.098587
H	-0.625034018	-3.442585633	 0.7169501165	 0.129268
H	 1.1274776478	-3.6492560597	 0.8775743116	 0.126612
H	 0.0527330497	-4.0366203386	 2.2406859989	 0.135475
111.4722	131.3975	177.5905	200.1451	216.1462	246.1816	312.3985	403.1779	421.2309	481.0607	494.2009	585.0181	656.4845	763.6311	794.4209	854.0905	869.213	889.7876	899.5463	937.2775	961.0565	1008.1976	1028.1937	1043.5087	1064.0098	1098.2043	1101.8352	1121.6872	1155.5328	1166.2519	1187.2513	1218.8034	1258.8233	1268.6124	1333.2267	1398.764	1410.7759	1425.809	1455.7092	1477.0971	1484.1001	1491.9219	1492.7941	1495.5233	1508.9047	3027.4273	3032.8374	3055.1491	3090.2086	3094.5603	3095.4704	3110.6163	3114.7842	3122.6449	3128.3663	3177.4963	3197.9867
CC1CC11CC2OC12C	C[C@H]1C[C@]21C[C@H]1O[C@@]21C	
InChI=1S/C8H12O/c1-5-3-8(5)4-6-7(8,2)9-6/h5-6H,3-4H2,1-2H3	InChI=1S/C8H12O/c1-5-3-8(5)4-6-7(8,2)9-6/h5-6H,3-4H2,1-2H3/t5-,6+,7+,8+/m0/s1
