17
gdb 106885	2.90883	1.18123	0.98407	1.4623	71.02	-0.2627	-0.0448	0.2179	1213.1815	0.13372	-458.93015	-458.921342	-458.920398	-458.964162	31.975	
O	 0.0968901417	 1.3066696276	-0.3532915314	-0.407738
C	 0.0824682915	-0.0321801982	 0.1147362464	-0.17201
C	-1.3215563778	-0.5348853442	 0.2645423392	 0.308854
C	-2.3879651706	-0.1401759588	 1.2990523204	-0.278025
C	-3.0139239568	-1.5700246105	 1.1517690617	-0.298642
C	-1.9354436615	-1.8982621492	 0.1176137184	 0.245218
O	-2.0079214469	-0.9127612515	-0.9274786258	-0.3134
C	-1.2817659169	-3.183933621	-0.187507539	 0.06649
O	-1.4729593269	-4.1934937051	 0.4463477894	-0.256845
H	-0.3181232793	 1.3107700768	-1.2231268573	 0.296113
H	 0.6458337913	-0.7050811135	-0.5472995476	 0.103129
H	 0.5803298721	-0.0189136991	 1.0893225206	 0.123691
H	-1.9713404222	 0.0398535654	 2.2921006114	 0.118854
H	-3.0115914633	 0.7058564457	 1.0051396057	 0.122187
H	-2.916230582	-2.1760348145	 2.0533291845	 0.134759
H	-4.0372106202	-1.6271792971	 0.7767214292	 0.120791
H	-0.5838665024	-3.1442248229	-1.0512083557	 0.086573
67.4124	90.8042	147.6468	199.6923	218.3483	288.7052	312.5314	398.4138	464.985	494.1419	509.1699	675.6627	740.9956	764.8449	793.1559	866.094	911.6865	938.2051	991.0131	1030.4543	1051.7148	1078.4432	1124.6154	1167.7409	1206.8942	1215.4254	1226.358	1278.9411	1313.1053	1363.4375	1388.685	1420.1393	1456.8106	1464.9703	1487.6799	1492.2127	1805.3085	2905.7019	3006.4653	3077.2262	3085.9237	3087.1851	3131.8612	3149.8689	3805.4975
OCC12CCC1(O2)C=O	OC[C@]12CC[C@]1(O2)C=O	
InChI=1S/C6H8O3/c7-3-5-1-2-6(5,4-8)9-5/h3,8H,1-2,4H2	InChI=1S/C6H8O3/c7-3-5-1-2-6(5,4-8)9-5/h3,8H,1-2,4H2/t5-,6+/m0/s1
