20
gdb 47053	3.41899	1.31061	1.03937	3.0404	78.78	-0.2234	-0.01	0.2134	1168.0482	0.173435	-403.158508	-403.150689	-403.149745	-403.191306	30.742	
O	-0.0366438624	 0.7534895969	-1.4344197029	-0.309618
C	-0.0851327704	 1.3023824131	-0.3599456733	 0.392623
C	-1.3962145303	 1.8929337594	 0.1731435513	-0.266698
N	-1.1940728729	 2.5261905807	 1.4714670074	-0.30743
C	-0.1922374997	 3.5786111026	 1.3777997355	 0.02558
C	 0.3466510438	 4.0501629756	 2.75251	-0.240436
C	 1.6165617377	 3.1768352903	 2.5475445179	-0.233105
C	 1.1940605354	 2.9258359911	 1.0693530062	 0.022609
C	 1.1088106358	 1.4761539424	 0.5639232349	-0.323145
H	-1.7828333334	 2.5710631743	-0.610541678	 0.108436
H	-2.1172893781	 1.0729111407	 0.2653238585	 0.130048
H	-2.0693482475	 2.889383738	 1.8337804064	 0.221347
H	-0.4876397863	 4.3867501875	 0.6866593016	 0.048504
H	 0.5579170114	 5.1220498523	 2.7738865571	 0.101332
H	-0.2823562921	 3.7992803457	 3.6098719138	 0.100658
H	 2.5763768666	 3.6761873878	 2.6970089702	 0.101567
H	 1.6086659251	 2.2621773445	 3.1455639457	 0.105555
H	 1.7717683444	 3.5342070298	 0.3686354013	 0.078981
H	 0.9414605931	 0.8097527876	 1.4195921965	 0.127382
H	 2.0130861897	 1.1463492497	 0.0480064902	 0.115811
61.6446	88.9811	230.5244	309.7507	357.5911	390.6308	442.2217	502.347	544.7602	612.065	692.842	732.7226	762.0304	824.1192	829.47	860.149	953.7929	963.8618	972.8731	988.2818	1018.2969	1080.9025	1097.2649	1108.4099	1151.5642	1162.3643	1220.1878	1235.6386	1246.0149	1259.6407	1266.9661	1277.3674	1295.4689	1311.4485	1330.3509	1350.9534	1390.6234	1454.7078	1458.4852	1467.936	1475.1674	1494.8328	1824.2037	2932.0734	2937.0141	3034.0532	3061.1839	3064.3704	3066.4487	3069.7447	3106.6702	3113.2418	3125.3266	3519.6655
O=C1CNC2CCC2C1	O=C1CN[C@H]2CC[C@H]2C1	
InChI=1S/C7H11NO/c9-6-3-5-1-2-7(5)8-4-6/h5,7-8H,1-4H2	InChI=1S/C7H11NO/c9-6-3-5-1-2-7(5)8-4-6/h5,7-8H,1-4H2/t5-,7-/m0/s1
