19
gdb 74848	2.26212	1.74925	1.33598	2.0523	76.04	-0.2371	0.0021	0.2391	1044.8679	0.157171	-423.018295	-423.009304	-423.008359	-423.051324	34.459	
C	 0.0340368918	 1.5021761245	-0.0148793855	-0.50599
C	-0.0065464854	 0.0078856431	-0.0497781812	 0.298113
C	-0.0822097491	-0.7751191438	-1.1320635298	-0.207151
C	-0.0513946933	-2.2159488491	-0.7536584513	 0.001252
O	 1.1676360986	-2.6105617426	-0.0644909916	-0.265938
C	 0.0226189412	-2.2646512421	 0.7094321849	 0.017
C	 0.035938324	-0.8266010928	 1.2414056189	 0.248642
C	 1.2629618319	-0.5443689528	 2.1107558088	-0.456794
O	-1.1729912288	-0.6734774109	 1.9914433812	-0.470986
H	 0.9915796585	 1.8747948079	 0.3700817972	 0.132657
H	-0.1137804371	 1.9276247906	-1.0107489348	 0.129706
H	-0.7502577283	 1.8989711483	 0.6418495164	 0.123319
H	-0.1307969544	-0.4266914125	-2.1573024831	 0.098081
H	-0.499640189	-2.9920328024	-1.3654690178	 0.098527
H	-0.4125186828	-3.0442787464	 1.3289981775	 0.099385
H	 2.1779409933	-0.7711096747	 1.5590621228	 0.146698
H	 1.296598918	 0.5073581235	 2.4185267666	 0.10685
H	 1.2310175706	-1.1638198128	 3.0122998176	 0.124789
H	-1.0773540497	 0.0958715848	 2.5614555033	 0.281842
116.8221	163.7883	191.3727	215.9614	231.3802	259.5492	266.5427	351.6831	432.2053	468.5863	474.3858	586.8113	638.5093	682.339	747.556	809.7674	866.2595	872.1187	919.7861	940.1197	985.9736	1011.8615	1034.6058	1060.5842	1096.5682	1112.461	1135.8003	1157.5939	1221.5218	1252.5923	1281.5079	1341.6918	1373.8074	1394.6262	1406.3318	1421.2642	1477.4151	1486.993	1494.8284	1498.8333	1697.9212	3019.2747	3031.6115	3067.2149	3098.5938	3113.6845	3133.4329	3152.4807	3171.6072	3198.9251	3822.8248
CC1=CC2OC2C1(C)O	CC1=C[C@H]2O[C@H]2[C@]1(C)O	
InChI=1S/C7H10O2/c1-4-3-5-6(9-5)7(4,2)8/h3,5-6,8H,1-2H3	InChI=1S/C7H10O2/c1-4-3-5-6(9-5)7(4,2)8/h3,5-6,8H,1-2H3/t5-,6-,7-/m1/s1
