21
gdb 64370	2.08306	1.80778	1.3786	1.6689	77.49	-0.2472	0.0811	0.3283	1065.0722	0.181087	-424.22084	-424.211775	-424.210831	-424.254456	34.965	
C	 0.0006424237	 1.6680481609	 0.0247452329	-0.408282
C	 0.0545856173	 0.1374350689	 0.0297911242	 0.294851
C	-1.3420505042	-0.4769850242	-0.0758432534	-0.404342
O	 0.8384257896	-0.2525454881	-1.1197506768	-0.305546
C	 1.8340639221	-1.1945929236	-0.7395058954	-0.088214
C	 2.2089895536	-0.8110950523	 0.6933471178	-0.301624
C	 0.8488445199	-0.411809698	 1.2356636786	 0.380296
C	 0.573159816	-0.0842181781	 2.6338353275	-0.259161
O	 0.1985428363	-1.3568710985	 2.095868575	-0.27186
H	 0.9976187758	 2.0942754898	 0.1700280381	 0.112529
H	-0.3795571427	 2.0174516923	-0.9394243557	 0.126013
H	-0.6584450551	 2.0448900412	 0.8126094276	 0.110424
H	-1.8394588186	-0.0985040438	-0.9732903503	 0.115525
H	-1.2830793209	-1.5656727928	-0.1384837344	 0.12592
H	-1.9528636729	-0.225333204	 0.7958176708	 0.114833
H	 1.4418053825	-2.2233721611	-0.774138554	 0.098021
H	 2.6582578307	-1.1179214708	-1.4538338102	 0.107437
H	 2.6526349419	-1.6197774276	 1.2772148525	 0.115434
H	 2.8910918038	 0.0459479891	 0.6906408878	 0.111087
H	 1.3823609413	-0.1030148488	 3.3636339409	 0.112935
H	-0.2560268701	 0.5758249195	 2.8872138764	 0.113724
44.8224	179.6	203.1284	230.1733	242.9804	267.5622	327.856	336.0195	407.5341	437.91	498.2771	552.7505	628.0326	651.847	797.4401	841.7555	870.2721	916.8589	933.4016	948.6307	970.0591	978.8168	1008.4466	1071.839	1099.0779	1128.0529	1155.7388	1172.228	1176.8807	1205.8008	1226.959	1241.8599	1293.5435	1311.3364	1380.2862	1395.9467	1409.6119	1428.7422	1469.8558	1473.0324	1479.7907	1494.4573	1498.5545	1522.7376	1535.9691	2979.3155	3038.6478	3047.425	3051.1486	3075.3744	3088.246	3112.7719	3114.911	3121.1742	3122.7142	3131.614	3158.2333
CC1(C)OCCC11CO1	CC1(C)OCC[C@]21CO2	
InChI=1S/C7H12O2/c1-6(2)7(5-9-7)3-4-8-6/h3-5H2,1-2H3	InChI=1S/C7H12O2/c1-6(2)7(5-9-7)3-4-8-6/h3-5H2,1-2H3/t7-/m1/s1
