15
gdb 51130	4.55944	1.04231	0.98042	2.7144	65.51	-0.2526	-0.0052	0.2474	1178.4257	0.11056	-457.690488	-457.682956	-457.682012	-457.723137	28.219	
O	 0.0652767854	-0.0183715645	-0.1944049387	-0.261323
C	 0.1007662171	 1.1692769955	-0.280770522	 0.147426
O	 1.0675810152	 1.9088040562	 0.3264699836	-0.226984
C	 0.9791922753	 3.2923806807	 0.1922420011	 0.387473
C	 1.0859682774	 4.0443857664	-1.1035043559	-0.342238
C	 2.1153060914	 4.2666539748	-0.0118471362	-0.182692
C	 1.534159082	 5.1328636882	 1.1534264138	 0.027059
O	 0.1781802368	 5.5000167236	 0.8467073642	-0.230886
C	 0.4410918074	 4.1920311076	 1.3618203665	-0.056725
H	-0.6127899261	 1.7924237166	-0.8488273895	 0.095797
H	 1.4605878082	 3.4483998078	-1.9299081346	 0.130479
H	 0.3715555583	 4.8154093769	-1.3623343823	 0.148076
H	 3.1664728488	 4.0544612211	-0.1472820899	 0.118966
H	 2.0847283843	 5.7640283421	 1.838930271	 0.12157
H	-0.0869318617	 3.8582139269	 2.2469425889	 0.124002
62.4721	136.7191	146.2743	334.9175	341.4848	399.8464	417.4575	508.8927	596.0621	743.3265	758.6411	799.4217	815.8014	877.7153	908.2317	921.2342	976.6642	991.7904	1016.329	1031.9966	1048.2057	1072.4536	1100.4081	1142.3592	1174.6358	1206.1318	1254.5479	1268.1118	1341.3397	1391.1243	1414.0104	1468.6207	1874.1054	2985.1244	3142.0918	3192.1375	3208.488	3222.7172	3238.4771
O=COC12CC1C1OC21	O=CO[C@]12C[C@H]1[C@H]1O[C@@H]21	
InChI=1S/C6H6O3/c7-2-8-6-1-3(6)4-5(6)9-4/h2-5H,1H2	InChI=1S/C6H6O3/c7-2-8-6-1-3(6)4-5(6)9-4/h2-5H,1H2/t3-,4+,5+,6+/m0/s1
