21
gdb 73593	2.17998	1.59184	1.27145	0.9316	88.74	-0.2356	0.0498	0.2854	1128.858	0.182739	-349.934157	-349.925312	-349.924368	-349.967123	34.841	
C	 0.1282008659	 1.5508968284	-0.0752486598	-0.479884
C	-0.0231842387	 0.0556769792	 0.0777154066	 0.326165
C	-1.4135436935	-0.5441308353	-0.1140214108	-0.266494
C	-1.4183183256	-1.8988051093	 0.6366384851	-0.228638
C	-0.2720909511	-1.8129667466	 1.67690811	-0.22593
C	 0.6681778111	-0.7379717663	 1.1584605428	-0.083052
C	 1.1730612367	-0.8293510244	-0.2820840091	-0.274394
C	 1.1038073287	-2.0081830075	-1.0937174855	 0.342806
C	 1.0896547864	-2.9839211944	-1.7993079374	-0.460835
H	 1.147869274	 1.8775659606	 0.1523044366	 0.114577
H	-0.1023085978	 1.8719617639	-1.097771703	 0.121961
H	-0.5523034025	 2.0832829795	 0.5999203046	 0.115721
H	-2.1427866439	 0.1475907	 0.32554139	 0.09449
H	-1.6802268106	-0.6592368711	-1.1702246115	 0.103878
H	-2.3835286269	-2.0985901023	 1.1098834583	 0.092265
H	-1.2270810033	-2.7137993641	-0.062058445	 0.124807
H	-0.6531998024	-1.4978784373	 2.6553654426	 0.098132
H	 0.2222537205	-2.7793518504	 1.8210448756	 0.10591
H	 1.3374450027	-0.2525519964	 1.8621068893	 0.081167
H	 2.0839522124	-0.258719975	-0.4499876618	 0.106752
H	 1.0705800179	-3.8458686911	-2.4186911975	 0.190596
110.7765	136.609	195.6777	200.8636	222.7076	311.6983	347.5818	360.9709	527.7041	535.1451	569.6759	578.4308	641.2066	667.3482	712.4231	776.3346	839.9107	844.7988	889.5035	905.7304	943.9334	988.1228	1006.3242	1029.3191	1061.861	1085.3398	1116.7326	1126.0552	1180.4518	1199.0176	1247.1441	1260.9888	1288.954	1318.4533	1335.8294	1345.4409	1360.3531	1416.794	1438.7061	1486.1603	1487.6405	1490.183	1500.8484	1511.0495	2226.2697	3020.4812	3028.0212	3034.376	3067.8142	3071.2604	3072.765	3081.0128	3096.8035	3125.3896	3128.1887	3156.0557	3503.8075
CC12CCCC1C2C#C	C[C@]12CCC[C@H]1[C@H]2C#C	
InChI=1S/C9H12/c1-3-7-8-5-4-6-9(7,8)2/h1,7-8H,4-6H2,2H3	InChI=1S/C9H12/c1-3-7-8-5-4-6-9(7,8)2/h1,7-8H,4-6H2,2H3/t7-,8+,9-/m1/s1
