12
gdb 129790	3.57549	1.65075	1.13032	4.7585	66.64	-0.203	-0.0533	0.1497	956.3961	0.078162	-468.765923	-468.759045	-468.758101	-468.796915	26.484	
N	 0.0778588927	 1.3749958612	 0.1925621038	-0.589513
C	-0.0506209296	 0.0207885938	 0.0698707079	 0.338083
C	-1.1159331566	-0.8497983173	 0.0366245063	 0.131299
N	-2.4812276871	-0.944484202	 0.0326458511	-0.193797
N	-2.8613806816	-2.1145169307	-0.0163600487	-0.02845
O	-1.5996594351	-3.042340241	-0.0544427492	-0.300647
C	-0.5917707976	-2.1777876617	-0.01959012	 0.341994
C	 0.7578180099	-2.084597912	-0.0207145653	-0.220966
O	 1.0719785049	-0.7082587547	 0.035158054	-0.181577
H	 0.9578802114	 1.7504690329	-0.1306719921	 0.273864
H	-0.7258170387	 1.9115497546	-0.0965992696	 0.279413
H	 1.5998323774	-2.7476544531	-0.0505215581	 0.150297
204.0275	230.9147	267.8182	300.3586	360.2532	388.761	538.267	563.3024	590.3183	620.9742	634.8853	659.8971	695.0331	753.597	827.3465	948.4991	983.0573	1072.7694	1168.1527	1241.106	1323.3129	1353.1283	1448.8017	1546.8537	1623.1373	1664.063	1713.3462	3327.3686	3574.8317	3685.1334
NC1=C2N=NOC2=CO1	Nc1c2nnoc2co1	
InChI=1S/C4H3N3O2/c5-4-3-2(1-8-4)9-7-6-3/h1H,5H2	InChI=1S/C4H3N3O2/c5-4-3-2(1-8-4)9-7-6-3/h1H,5H2
