25
gdb 110927	2.55128	1.02888	0.89	0.1714	93.04	-0.2443	0.083	0.3274	1502.2287	0.229102	-352.334204	-352.324276	-352.323332	-352.369209	37.83	
C	-0.1899214789	 1.6568622148	 0.3293051111	-0.377956
C	 0.1456826497	 0.2083700281	-0.0489327653	-0.209467
C	 0.7806915813	-0.5417542252	 1.1082392425	 0.033258
C	 0.044288427	-1.2803901172	 2.1914236825	-0.073009
C	-1.1290843593	-2.0984610437	 1.6291952123	-0.266953
C	-0.1148980155	-2.932654317	 0.7699127903	 0.059946
C	-0.3406706665	-3.1794601037	-0.7208434429	-0.202331
C	-1.5296523646	-4.1082143406	-0.9911662165	-0.377541
C	 1.0224441902	-2.0232263986	 1.2628856828	-0.138548
H	 0.709380076	 2.205622909	 0.6309861371	 0.111664
H	-0.6416317648	 2.1941084168	-0.510517226	 0.108097
H	-0.8926999438	 1.6896624399	 1.1685612091	 0.11847
H	-0.7668587807	-0.2917587153	-0.3843603996	 0.101165
H	 0.8304406541	 0.2019253042	-0.9069783751	 0.093906
H	 1.6244120138	 0.0110801311	 1.524410961	 0.077776
H	 0.1675244685	-1.0338427652	 3.2395762178	 0.078457
H	-1.6401538002	-2.700222621	 2.3833827405	 0.099048
H	-1.8881269161	-1.5310118214	 1.0796411211	 0.093188
H	 0.0040615797	-3.9088196048	 1.2560741572	 0.069716
H	-0.4882342822	-2.232760956	-1.2504186138	 0.097966
H	 0.572490851	-3.6212149824	-1.1422864329	 0.091723
H	-1.6658129299	-4.2825259336	-2.0630445644	 0.109452
H	-1.3876701806	-5.0828060589	-0.5102894009	 0.111154
H	-2.4618244664	-3.6830059506	-0.6029468641	 0.11635
H	 2.0187298384	-2.3865415786	 1.4931998864	 0.07447
69.4031	81.6409	134.9996	161.1935	213.9105	216.8923	266.8746	277.5902	392.5127	399.3909	468.2987	565.9706	687.5476	730.1946	776.3518	792.7032	807.2428	829.6576	884.873	924.3144	952.224	955.9743	995.5355	1016.5125	1019.0191	1027.3884	1071.859	1074.7795	1089.3854	1128.2549	1137.6266	1140.8285	1196.8894	1223.7321	1245.346	1270.3827	1281.9055	1298.7324	1308.2216	1329.9832	1344.2063	1369.2786	1396.8801	1408.1357	1411.0206	1457.8682	1477.9498	1488.8252	1497.6493	1499.7533	1500.1886	1508.224	1508.7698	3018.2972	3021.1335	3025.3414	3028.3995	3029.819	3042.0715	3068.3678	3079.0073	3093.3306	3096.7079	3101.0139	3103.502	3103.581	3107.3836	3155.2057	3175.926
CCC1C2CC(CC)C12	CC[C@H]1[C@H]2C[C@@H](CC)[C@@H]12	
InChI=1S/C9H16/c1-3-6-5-8-7(4-2)9(6)8/h6-9H,3-5H2,1-2H3	InChI=1S/C9H16/c1-3-6-5-8-7(4-2)9(6)8/h6-9H,3-5H2,1-2H3/t6-,7+,8-,9+/m1/s1
