23
gdb 68479	2.65181	1.598	1.24644	1.1597	84.87	-0.2463	0.0794	0.3257	1113.4636	0.208377	-388.29132	-388.283303	-388.282359	-388.323055	33.457	
C	-0.0724785428	 1.5591980738	-0.0168254121	-0.464102
C	 0.0333573698	 0.0392385463	 0.029313534	 0.34551
C	 1.1130615483	-0.6063725413	-0.8999984904	-0.252963
C	 1.4732589119	-1.5804829256	 0.2551417781	-0.019093
C	 0.8035051819	-0.5790892491	 1.2377601074	-0.272897
C	 0.7745617885	-2.9385129484	 0.120551665	-0.091608
O	-0.4876596476	-2.9000274215	-0.5230951314	-0.239507
C	-1.4603898	-2.1040387172	 0.1308111305	-0.087754
C	-1.3520561996	-0.6023804003	-0.1748643239	-0.245548
H	 0.9129746361	 2.0266719437	 0.0834424494	 0.106178
H	-0.5068421281	 1.8981468297	-0.965157948	 0.112166
H	-0.7077466727	 1.9395213034	 0.7920240813	 0.109861
H	 0.766000375	-1.052273702	-1.8349163139	 0.103112
H	 1.9257034313	 0.0945067121	-1.1111565626	 0.086535
H	 2.5382034404	-1.7626580826	 0.4299862404	 0.063723
H	 1.5349611148	 0.1276099849	 1.6410259809	 0.090709
H	 0.2228208398	-0.9825623524	 2.0735346707	 0.08802
H	 1.3840392016	-3.6031778966	-0.5010180575	 0.104787
H	 0.6779595915	-3.4059251896	 1.1162457586	 0.084187
H	-2.4334630988	-2.4683247359	-0.2161812698	 0.102131
H	-1.419476622	-2.279699691	 1.2174206472	 0.087395
H	-2.0871249879	-0.0906121673	 0.4620586617	 0.089147
H	-1.6642534712	-0.4274716529	-1.2127693855	 0.100009
195.9782	213.0328	247.3831	268.3442	316.3514	353.3958	384.5561	394.8832	418.5906	513.5987	585.2176	648.5233	779.8749	825.6836	831.863	844.81	895.7758	906.3929	918.8154	945.0238	996.6602	1016.5758	1020.0666	1057.5836	1073.7443	1103.9701	1124.9642	1161.0914	1176.37	1204.7599	1213.2218	1251.5541	1270.4304	1289.398	1297.2529	1307.3835	1333.8015	1354.301	1386.2788	1397.79	1413.394	1423.4903	1466.436	1476.0117	1488.5035	1492.8912	1496.5468	1498.1687	1515.2475	2953.6641	2981.8623	3007.0683	3017.8355	3041.8496	3047.2661	3048.7264	3058.8226	3065.6892	3070.8883	3081.5035	3088.7733	3093.4836	3113.7008
CC12CC(C1)COCC2	C[C@@]12C[C@@H](C1)COCC2	
InChI=1S/C8H14O/c1-8-2-3-9-6-7(4-8)5-8/h7H,2-6H2,1H3	InChI=1S/C8H14O/c1-8-2-3-9-6-7(4-8)5-8/h7H,2-6H2,1H3/t7-,8+
