22
gdb 101662	3.57581	0.73713	0.66999	4.7393	81.26	-0.2348	0.0312	0.266	1744.6973	0.19209	-441.511631	-441.500629	-441.499685	-441.548494	38.816	
C	 0.0364250604	 1.5747720089	-0.0287665475	-0.381163
C	-0.0576747244	 0.0557733103	 0.1342856932	-0.190443
C	-1.4756896593	-0.4859316613	-0.088258606	 0.134887
O	-1.9810466581	-0.1247251207	-1.3719396321	-0.420789
C	-1.5393479536	-2.0063433519	 0.1473091064	-0.20525
N	-2.8744309228	-2.5727486674	 0.1449045102	-0.026314
C	-3.5653110202	-2.7895379811	-1.1191671749	-0.353735
C	-3.467853571	-2.9614209513	 1.3107767359	 0.152137
O	-4.5719352523	-3.4522274238	 1.417643113	-0.342638
H	 1.0685623984	 1.9199248318	 0.080074419	 0.113907
H	-0.3295800907	 1.8822377829	-1.0116104039	 0.128424
H	-0.5705691394	 2.0876129989	 0.7249367009	 0.120249
H	 0.6234480454	-0.4405771527	-0.5736534438	 0.088894
H	 0.281797743	-0.236819122	 1.1356963039	 0.102242
H	-2.1637410068	-0.0054249345	 0.6186548027	 0.098074
H	-1.3690830202	-0.4638638327	-2.0358657758	 0.278421
H	-0.9289923838	-2.5144988607	-0.615045139	 0.09608
H	-1.0805449622	-2.2263045198	 1.1178220435	 0.116345
H	-2.9635208799	-3.4328394707	-1.7742234904	 0.112513
H	-4.5094190881	-3.2858202365	-0.894899975	 0.164038
H	-3.7478814091	-1.8423957883	-1.6304619889	 0.149258
H	-2.8097489052	-2.7761998473	 2.1837184688	 0.064863
45.948	66.7582	109.9909	116.2801	161.6321	224.194	233.5451	285.182	308.5071	324.6392	340.5089	366.6779	391.5389	463.0299	537.8122	710.3594	780.2862	865.7684	874.1071	920.3178	994.3521	1022.1059	1027.7362	1075.8286	1093.5239	1109.0641	1145.4017	1165.6761	1211.9901	1267.1397	1278.5736	1298.1322	1352.6198	1382.9496	1399.3919	1408.2254	1422.7719	1431.4826	1441.6736	1446.9981	1470.9398	1484.296	1495.8674	1496.8683	1509.092	1529.7045	1797.1369	2924.4801	2989.2735	2998.8476	3022.7637	3040.459	3041.3876	3051.4655	3071.611	3107.5289	3108.4161	3124.5608	3162.8775	3787.3556
CCC(O)CN(C)C=O	CC[C@@H](O)CN(C)C=O	
InChI=1S/C6H13NO2/c1-3-6(9)4-7(2)5-8/h5-6,9H,3-4H2,1-2H3	InChI=1S/C6H13NO2/c1-3-6(9)4-7(2)5-8/h5-6,9H,3-4H2,1-2H3/t6-/m1/s1
