17
gdb 45139	2.80805	1.64329	1.1327	4.5298	74.45	-0.2614	-0.0456	0.2158	1055.7276	0.137443	-421.844654	-421.837299	-421.836355	-421.876555	28.813	
O	-0.0060785194	-0.0577655726	-0.1525164185	-0.318333
C	 0.0099445007	 1.1443968952	-0.1240057684	 0.381003
O	-1.1848887216	 1.8134394756	-0.0372947798	-0.239696
C	-1.3533023017	 3.0848931157	-0.6264986411	 0.110226
C	-2.1068133777	 4.0953041031	 0.1883920985	-0.324187
C	-0.6258870056	 4.2686720182	-0.0666539375	-0.029943
C	 0.4035992464	 3.9921464428	 1.0182013736	-0.299225
C	 1.4956263863	 3.0963645606	 0.4873824183	-0.064653
C	 1.2898639239	 1.8986537987	-0.0707113526	-0.152701
H	-1.5379950922	 3.0249788867	-1.6952972495	 0.107202
H	-2.8110780905	 4.7454210484	-0.3178890441	 0.121896
H	-2.4094946967	 3.7798100754	 1.1809068327	 0.131859
H	-0.3326951324	 5.0240445869	-0.7900290197	 0.097388
H	 0.8224073819	 4.9290712993	 1.3955349011	 0.113097
H	-0.085503941	 3.5043643902	 1.869249044	 0.133755
H	 2.5202086325	 3.4528858256	 0.5627266338	 0.111412
H	 2.1294556571	 1.3005044601	-0.4086600408	 0.120899
87.0965	163.7694	265.615	303.0011	355.2881	388.0336	433.0049	524.9018	630.3412	691.8141	702.7764	775.9193	805.5637	830.9629	866.4004	902.7699	944.5796	959.6138	1013.2746	1042.8046	1054.6511	1077.0319	1118.7287	1131.4838	1170.8233	1180.8241	1241.4768	1254.017	1264.4178	1335.6281	1377.9068	1402.5106	1413.8843	1478.0372	1488.9739	1691.3003	1817.1458	3041.1944	3089.2365	3138.5182	3141.9961	3152.9025	3156.7373	3194.7185	3228.8959
O=C1OC2CC2CC=C1	O=C1O[C@H]2C[C@H]2CC=C1	
InChI=1S/C7H8O2/c8-7-3-1-2-5-4-6(5)9-7/h1,3,5-6H,2,4H2	InChI=1S/C7H8O2/c8-7-3-1-2-5-4-6(5)9-7/h1,3,5-6H,2,4H2/t5-,6+/m1/s1
