22
gdb 88450	3.08639	1.1068	1.00787	1.293	82.59	-0.2266	0.0727	0.2993	1302.86	0.191871	-404.294043	-404.283965	-404.283021	-404.328835	37.952	
C	 0.8147923838	 1.2781688659	-0.5521132933	-0.314588
N	 0.6774198288	-0.1279624343	-0.2052404342	-0.104826
C	 1.8820251415	-0.8725670304	 0.1284279987	-0.316293
C	 0.8480851549	-0.5827257293	 1.1795191226	 0.299258
C	 1.2055787682	 0.3935946824	 2.291622577	-0.461571
C	-0.1534605829	-1.6139260898	 1.633221945	-0.09558
C	-0.1573952355	-3.0463159189	 1.1294159685	-0.350276
C	 0.2765549656	-2.7443724784	 2.5361756061	 0.13508
O	 1.6077377814	-2.8866656208	 2.951346487	-0.425506
H	 1.6576681632	 1.7939548774	-0.0673660267	 0.100124
H	 0.9550993859	 1.3556263577	-1.6352038569	 0.124922
H	-0.1074508138	 1.808676556	-0.2939533103	 0.122902
H	 1.9837648025	-1.8491208257	-0.3396139863	 0.110415
H	 2.8187000581	-0.3189313635	 0.2090939816	 0.101416
H	 1.94226645	 1.1384868076	 1.9838826991	 0.113885
H	 0.3125349588	 0.9226694614	 2.6442028606	 0.11801
H	 1.6174691852	-0.1627962926	 3.1385816584	 0.140261
H	-1.1297415606	-1.1811046954	 1.8428968023	 0.085769
H	-1.112070243	-3.5329998686	 0.9611228606	 0.113588
H	 0.6129845917	-3.3401206985	 0.4237904667	 0.109666
H	-0.3788974963	-3.0297574464	 3.3520727004	 0.104755
H	 2.1820247727	-2.637623976	 2.2203032231	 0.288587
50.8143	118.5581	182.577	187.5843	210.9868	214.4709	231.9211	308.8112	354.0456	373.5867	431.7472	452.323	512.6338	592.883	677.1363	777.2776	794.1378	806.9295	873.4495	926.7165	955.7092	994.1231	1012.9653	1049.495	1068.6138	1077.0116	1097.0043	1121.2577	1125.9849	1132.3015	1148.0323	1186.9875	1208.3887	1230.7296	1246.9457	1315.88	1374.4139	1397.0153	1408.7457	1438.2092	1451.4315	1484.1507	1486.9447	1490.4209	1499.7937	1514.3773	1516.2358	2983.9959	3036.0288	3066.4258	3074.8148	3099.3276	3102.0075	3120.5735	3127.1413	3131.3394	3158.606	3169.3132	3214.4973	3825.7741
CN1CC1(C)C1CC1O	CN1C[C@]1(C)[C@H]1C[C@H]1O	
InChI=1S/C7H13NO/c1-7(4-8(7)2)5-3-6(5)9/h5-6,9H,3-4H2,1-2H3	InChI=1S/C7H13NO/c1-7(4-8(7)2)5-3-6(5)9/h5-6,9H,3-4H2,1-2H3/t5-,6+,7+,8?/m0/s1
