19
gdb 37167	3.49816	1.70385	1.58263	1.5906	77.72	-0.2383	0.0917	0.33	924.0734	0.161797	-385.801303	-385.794975	-385.794031	-385.831453	27.989	
C	 0.0385974076	 1.571222647	 0.1214493694	-0.308449
C	 1.3442379591	 0.8335456402	-0.0621702744	-0.037421
C	 0.0203102458	 0.0652072088	 0.0286184358	-0.150392
C	 0.0995581538	-0.5277854003	-1.3699871771	 0.43879
C	-0.6781962414	-1.2604653988	-2.4554496616	-0.332494
C	 0.2089038864	-0.4728236476	-3.4911450574	-0.248106
C	 0.6105116081	 0.5491913806	-2.3670240725	-0.061154
C	 1.8349140017	 0.3531211832	-1.4716197254	 0.044889
O	 1.4982223741	-1.0652897809	-1.3802150105	-0.345223
H	-0.1235329666	 1.9837464528	 1.1133795228	 0.1127
H	-0.3883509593	 2.1792452642	-0.6669130383	 0.114552
H	 2.0604834027	 0.810832536	 0.7501528877	 0.09675
H	-0.2299169517	-0.5470353215	 0.8863412829	 0.095357
H	-0.6170926034	-2.350881151	-2.4490206637	 0.112158
H	-1.7262170844	-0.949702814	-2.4963714553	 0.107469
H	 1.035034128	-1.0610488431	-3.8867128911	 0.12184
H	-0.3421770152	-0.0151339457	-4.314923906	 0.096352
H	 0.1564893807	 1.5328314278	-2.4751349997	 0.072536
H	 2.8760942442	 0.5532564222	-1.7337220056	 0.069846
243.8545	270.0137	377.4973	393.9891	442.1428	571.7454	607.4308	666.8149	703.3681	739.8209	776.8138	796.0782	817.6479	843.8721	868.116	893.5911	906.8728	935.8679	946.3156	996.8927	1034.3617	1048.9107	1066.0487	1089.7064	1095.4339	1120.2542	1136.0874	1179.9694	1185.5512	1192.9371	1221.6867	1243.3836	1256.1701	1263.055	1280.7459	1312.8871	1342.8107	1380.8314	1462.9252	1479.3639	1493.6209	3059.8592	3082.674	3091.9739	3113.2833	3118.7757	3130.7949	3155.7095	3181.4223	3188.9016	3211.928
C1C2C1C13CCC1C2O3	C1[C@H]2[C@@H]1[C@@]13CC[C@@H]1[C@@H]2O3	
InChI=1S/C8H10O/c1-2-8-5(1)7(9-8)4-3-6(4)8/h4-7H,1-3H2	InChI=1S/C8H10O/c1-2-8-5(1)7(9-8)4-3-6(4)8/h4-7H,1-3H2/t4-,5+,6+,7+,8+/m0/s1
