23
gdb 108620	2.2699	1.45974	1.09243	0.1627	92.81	-0.2024	0.0296	0.232	1255.3709	0.206546	-351.140838	-351.131829	-351.130884	-351.174518	34.981	
C	 0.0055508384	 1.5462390165	 0.3395174934	-0.368435
C	-0.0421746542	 0.0626808601	-0.0715333615	-0.321635
C	-1.4228610405	-0.5063785528	-0.0738868123	 0.251982
C	-2.2024194654	-0.9662489925	-1.0648387546	 0.220553
C	-1.981794991	-1.0936604544	-2.5332098022	-0.520713
C	-3.4916981874	-1.3848933547	-0.3295976876	-0.103552
C	-3.6835998319	-0.1638134998	 0.6321061645	-0.208201
C	-2.3119843664	-0.6871721638	 1.1759861533	-0.105602
C	-2.8848358267	-2.1206733253	 0.9127523203	-0.208352
H	 1.0357004583	 1.9163598698	 0.3529018874	 0.109284
H	-0.5702301266	 2.1619389967	-0.3585316007	 0.117477
H	-0.4162986227	 1.6944430373	 1.338895703	 0.118568
H	 0.4069543282	-0.0531518578	-1.0647642969	 0.098438
H	 0.5919252729	-0.5117127003	 0.6194984837	 0.100628
H	-0.9897510216	-0.7394865373	-2.8283455962	 0.121629
H	-2.077693995	-2.1360082785	-2.865372384	 0.123107
H	-2.7243453421	-0.5190571473	-3.1028817106	 0.123314
H	-4.3098292322	-1.8032911638	-0.9175179431	 0.052289
H	-3.7015280313	 0.8329402846	 0.1841912219	 0.0868
H	-4.5114458976	-0.2898466581	 1.3381803323	 0.086555
H	-1.9124509347	-0.3867335537	 2.1455157443	 0.05265
H	-3.6361728015	-2.4329106816	 1.6460140384	 0.086598
H	-2.1679124589	-2.9235414431	 0.7229320373	 0.086618
70.2228	128.3186	173.9804	187.5149	202.1409	269.6609	296.1732	388.2627	498.8535	544.4448	577.3494	647.8423	689.283	780.7781	820.0059	842.9784	846.8199	874.4207	888.7826	955.4382	993.578	999.1843	1022.7711	1052.6413	1057.8514	1066.4269	1084.2093	1092.1564	1113.3404	1162.3368	1193.026	1206.5224	1226.0671	1238.2902	1252.9437	1270.9035	1297.2672	1333.5287	1358.8743	1405.6716	1414.1768	1476.1938	1477.3967	1478.5161	1490.2187	1497.8392	1506.5277	1517.2318	1726.7809	2999.4973	3008.3073	3033.9635	3035.7378	3045.0705	3048.9367	3053.5755	3100.7666	3103.2118	3104.9101	3106.1622	3106.6116	3109.0446	3111.5173
CCC1=C(C)C2CC1C2	CCC1=C(C)[C@@H]2C[C@H]1C2	
InChI=1S/C9H14/c1-3-9-6(2)7-4-8(9)5-7/h7-8H,3-5H2,1-2H3	InChI=1S/C9H14/c1-3-9-6(2)7-4-8(9)5-7/h7-8H,3-5H2,1-2H3/t7-,8+
