16
gdb 128367	6.62028	0.89148	0.79413	3.5151	71.36	-0.222	0.0314	0.2535	1427.8475	0.123087	-471.186202	-471.176874	-471.175929	-471.221851	31.633	
C	-0.0799300627	 1.3509647647	-0.1166275546	-0.329113
N	-0.0044201939	-0.0940608262	 0.0436742253	-0.394449
C	 0.6547965366	-0.6112811825	 1.1038155473	 0.523841
N	 1.0921626792	 0.0286102971	 2.1365713416	-0.242104
O	 1.626709298	-1.0225316133	 2.9641244352	-0.260706
C	 1.4728198928	-2.2116436309	 2.3229692766	 0.538689
O	 0.8486207937	-1.9497508573	 1.1144764513	-0.236823
N	 1.7915402921	-3.366199348	 2.671006407	-0.366994
C	 2.4415393642	-3.5601302469	 3.9581439653	-0.332812
H	 0.8969048307	 1.8046184339	-0.3256479928	 0.139763
H	-0.7665653887	 1.5757140979	-0.9341596579	 0.138113
H	-0.4707896715	 1.7909092967	 0.8034673144	 0.168135
H	 0.0281525268	-0.6613733935	-0.7890733414	 0.267989
H	 2.0440477643	-4.46867635	 4.4201580564	 0.12865
H	 3.5171326861	-3.7159254765	 3.8113465038	 0.129142
H	 2.3089347121	-2.7245648052	 4.6556145926	 0.12868
22.2351	77.0477	128.897	154.3766	159.3812	236.9592	267.1661	326.1576	376.8513	439.1593	613.8014	675.7353	684.106	734.2424	761.1266	899.7311	940.444	984.3465	1089.6849	1119.0096	1133.8442	1153.9735	1168.5159	1182.6812	1212.9924	1353.5348	1447.7135	1458.5602	1484.0714	1492.8772	1504.222	1510.1179	1569.6372	1716.2976	1849.251	3015.0827	3027.0967	3074.2591	3094.9961	3107.3596	3147.3342	3634.0967
CNC1=NOC(O1)=NC	CNc1noc(=NC)o1	
InChI=1S/C4H7N3O2/c1-5-3-7-9-4(6-2)8-3/h1-2H3,(H,5,7)	InChI=1S/C4H7N3O2/c1-5-3-7-9-4(6-2)8-3/h1-2H3,(H,5,7)
