25
gdb 63622	2.6106	1.12268	1.07116	0.05	92.86	-0.2383	0.0814	0.3197	1350.9052	0.227289	-352.339306	-352.329007	-352.328062	-352.373975	40.176	
C	 0.1582633456	 1.4845860411	-0.3824158135	-0.456187
C	 0.0558523531	-0.0005129222	-0.0915972484	 0.3605
C	-1.2802675656	-0.6060547763	-0.4823672834	-0.450973
C	 1.2875991668	-0.8566254526	-0.2627890096	-0.348212
C	 0.7507004714	-0.5876637572	 1.1281218239	-0.128945
C	 1.502085648	 0.2211065776	 2.1691681638	 0.377425
C	 2.9259245002	 0.6418054083	 1.8479892086	-0.471319
C	 0.6879299327	 1.1481477603	 3.0512402918	-0.28827
C	 1.2316804747	-0.138991107	 3.6154143949	-0.315092
H	 1.1281897797	 1.8991565695	-0.0991925146	 0.118226
H	 0.0137638359	 1.6773224225	-1.4523166946	 0.110023
H	-0.6108271647	 2.0481089969	 0.1586509076	 0.112503
H	-1.4702274756	-0.4830624052	-1.5557805256	 0.110831
H	-1.3151835799	-1.6773770369	-0.2602554306	 0.109701
H	-2.1072610163	-0.1263439805	 0.0553805039	 0.110121
H	 1.179408743	-1.8563011933	-0.6720889149	 0.101464
H	 2.2075427068	-0.361693809	-0.5551909298	 0.105386
H	 0.2114832914	-1.4274441017	 1.5605459903	 0.075335
H	 2.9824019954	 1.3049746915	 0.9778190594	 0.115717
H	 3.3658347282	 1.1804645007	 2.6933565414	 0.108204
H	 3.5569217127	-0.2292993822	 1.6401061011	 0.118696
H	 1.1390312945	 2.0820888122	 3.370904374	 0.104291
H	-0.3795625179	 1.2094187213	 2.8696109212	 0.108455
H	 0.5305968804	-0.9420878352	 3.8191336546	 0.107
H	 2.0571197097	-0.0851477426	 4.3178041785	 0.10512
51.6874	144.1027	157.8621	203.1809	231.3797	244.7813	298.7534	310.5549	338.5851	356.3317	384.3002	388.6123	455.5409	525.5822	690.0364	710.8252	784.9872	840.5172	858.0609	882.3833	916.8904	943.3457	952.6286	969.1681	977.141	987.2753	1039.6395	1055.508	1070.1379	1078.6228	1081.4346	1111.6355	1119.3735	1138.3094	1157.3143	1192.3008	1273.8744	1310.421	1322.446	1349.9395	1405.719	1414.7873	1425.2141	1426.9507	1468.5812	1478.944	1484.1494	1494.0041	1497.1447	1498.0935	1503.9267	1507.6683	1514.4604	3015.3878	3025.5902	3027.0139	3073.1328	3078.5122	3086.6629	3093.9894	3098.2165	3119.2922	3121.4489	3122.8154	3126.1429	3128.7587	3200.9143	3208.2535	3217.2272
CC1(C)CC1C1(C)CC1	CC1(C)C[C@H]1C1(C)CC1	
InChI=1S/C9H16/c1-8(2)6-7(8)9(3)4-5-9/h7H,4-6H2,1-3H3	InChI=1S/C9H16/c1-8(2)6-7(8)9(3)4-5-9/h7H,4-6H2,1-3H3/t7-/m1/s1
