20
gdb 61965	5.31344	0.5847	0.55254	2.0824	83.53	-0.2324	-0.0286	0.2038	1950.8924	0.166821	-403.103278	-403.09255	-403.091606	-403.140442	37.346	
C	-0.1802739618	 1.5337194745	 0.0656158182	-0.336579
N	-0.0269029398	 0.0825853943	 0.0748402457	-0.073038
C	 0.701708957	-0.4067671444	 1.2413997698	-0.132556
C	 2.2140523115	-0.1140214054	 1.1502456956	-0.364454
C	 2.945607704	-0.6835867913	 2.2740325577	 0.297261
C	 3.5199584591	-1.1676737492	 3.2122926651	-0.438595
C	-1.3063758536	-0.5768131459	-0.1218753698	-0.234933
C	-1.7838514966	-0.4364702515	-1.5606401283	 0.151558
O	-2.9376672351	-0.4192758281	-1.8979210947	-0.236191
H	 0.7952643088	 2.0250313649	 0.0844692689	 0.127518
H	-0.6868527986	 1.8497897324	-0.8515836215	 0.131009
H	-0.7712777467	 1.9046659848	 0.9235675036	 0.10468
H	 0.30855775	 0.007967063	 2.1871138068	 0.097026
H	 0.5724085675	-1.4915806589	 1.2948932364	 0.114584
H	 2.5898680757	-0.5206275058	 0.2039685138	 0.139062
H	 2.3921387172	 0.9670233886	 1.115587972	 0.132807
H	 4.0413472022	-1.589143642	 4.0356140088	 0.196933
H	-1.1791266747	-1.65503186	 0.0475095374	 0.129491
H	-2.1099232664	-0.2360911668	 0.5547580419	 0.108769
H	-0.9483717998	-0.3779907029	-2.2954839375	 0.085647
46.7455	48.0589	76.34	114.7298	137.0401	211.1609	240.0297	298.89	333.8934	352.3269	387.6401	423.4224	513.0579	580.0023	622.5061	647.5169	755.7654	783.0517	887.58	972.261	1024.339	1054.4132	1060.9763	1068.1703	1078.6173	1149.6727	1174.5493	1205.7653	1266.1312	1286.5486	1310.0518	1340.2181	1348.3058	1396.3969	1413.606	1454.0328	1468.912	1476.9434	1491.4711	1503.9358	1505.0014	1841.0688	2240.4471	2877.0421	2940.0551	2944.0106	2956.5966	3033.726	3035.9965	3063.5546	3072.873	3085.2276	3118.4139	3507.0626
CN(CCC#C)CC=O	CN(CCC#C)CC=O	
InChI=1S/C7H11NO/c1-3-4-5-8(2)6-7-9/h1,7H,4-6H2,2H3	InChI=1S/C7H11NO/c1-3-4-5-8(2)6-7-9/h1,7H,4-6H2,2H3
