19
gdb 89493	2.93711	1.46887	1.22991	1.5246	76.99	-0.2459	-0.0089	0.237	1069.737	0.159037	-422.992568	-422.984276	-422.983332	-423.025008	32.589	
C	-0.1053600611	 1.6262463984	-0.1169175525	-0.445172
C	 0.0402879969	 0.1175693571	 0.0102622018	 0.415195
C	 0.8267586844	-0.5510857301	-1.1285629816	-0.314606
C	 2.220531361	-0.835564082	-0.4621864018	 0.111244
O	 3.1723462998	 0.2099025335	-0.6508408357	-0.437047
C	 1.8388417643	-1.0834631947	 0.9995468121	-0.255611
C	 0.68043145	-0.4758252226	 1.2333476198	 0.153059
C	-0.6926490267	-0.6591208567	 1.8252214058	-0.171261
O	-1.2386014144	-0.4676520728	 0.4855587378	-0.344419
H	 0.8501686422	 2.0825951315	-0.3965621001	 0.114773
H	-0.8315153702	 1.8600585675	-0.9023622759	 0.132849
H	-0.4535037519	 2.079740349	 0.8155350849	 0.116947
H	 0.349079018	-1.5037903719	-1.3755756164	 0.115736
H	 0.928059492	 0.0455021376	-2.0387571437	 0.101229
H	 2.6868660542	-1.7203272531	-0.90684722	 0.090129
H	 2.9964999622	 0.8828901485	 0.0143775428	 0.278933
H	 2.3993777316	-1.7347675389	 1.6589801127	 0.105051
H	-0.9232274879	-1.6453157106	 2.2404025938	 0.122893
H	-1.0402252944	 0.1204254504	 2.5153144563	 0.110075
99.4584	170.0382	244.7694	247.7189	290.3083	306.5694	362.2417	386.643	436.9216	510.567	588.4436	687.9365	736.8118	788.5317	837.3294	849.14	871.7673	910.3361	941.1857	951.7593	996.3313	1006.5325	1015.9442	1072.1853	1108.2717	1139.4629	1179.2989	1219.8238	1225.5156	1232.465	1273.8904	1307.9568	1334.042	1340.895	1406.9149	1424.1286	1469.91	1486.7852	1490.8725	1511.3831	1731.9152	3016.5145	3034.2764	3056.0923	3068.0557	3079.5081	3104.8641	3113.0744	3117.3589	3206.8848	3819.3413
CC12CC(O)C=C1CO2	C[C@@]12C[C@@H](O)[CH][C]1CO2	
InChI=1S/C7H10O2/c1-7-3-6(8)2-5(7)4-9-7/h2,6,8H,3-4H2,1H3	InChI=1S/C7H10O2/c1-7-3-6(8)2-5(7)4-9-7/h2,6,8H,3-4H2,1H3/t6-,7+/m0/s1
