19
gdb 39166	3.10426	1.68864	1.25124	1.8455	81.51	-0.2286	0.0185	0.2471	1031.9918	0.161703	-385.901139	-385.893918	-385.892974	-385.932805	29.1	
C	-0.0369974339	 1.5146529804	-0.1002860307	-0.253276
C	 1.4517403024	 1.9686000768	 0.0586681339	-0.371143
C	 2.2281474562	 0.6640536571	 0.0421493496	 0.419017
O	 3.3936900457	 0.4514031439	-0.7870333203	-0.315283
C	 3.4818118919	 0.1607311713	 0.6178948952	-0.06532
C	 3.3110089434	-1.3211850031	 0.9384822674	-0.24076
C	 2.0028261034	-1.7515929121	 0.1930392704	-0.354492
C	 1.2576415318	-0.4574486186	 0.0119448176	 0.345857
C	 0.0077187265	-0.0039669859	-0.0395949897	-0.257173
H	-0.6682882883	 1.9244325933	 0.6970934469	 0.107157
H	-0.4750078214	 1.868479668	-1.0424654378	 0.111456
H	 1.7792704352	 2.6166501603	-0.7575052018	 0.123748
H	 1.5983802706	 2.5195438077	 0.9919454152	 0.11181
H	 4.1774852299	 0.7769750292	 1.1826866652	 0.091378
H	 4.1777951408	-1.9168234562	 0.6372835869	 0.110168
H	 3.1933711759	-1.4354732055	 2.0226418283	 0.105683
H	 2.2595226463	-2.1762061096	-0.7829924424	 0.129406
H	 1.4389714608	-2.5111929092	 0.7398911818	 0.110617
H	-0.8962843873	-0.6031609979	-0.0166257757	 0.091149
79.1256	205.7503	234.8046	278.3671	393.8516	434.1415	547.6752	599.7857	645.9638	690.9697	752.4774	783.1834	822.2441	830.9227	879.4871	891.5342	905.1914	922.1571	979.3528	988.447	1027.6422	1053.8059	1072.4849	1084.8804	1165.3111	1170.503	1215.4546	1233.1324	1242.1128	1260.9284	1278.8585	1302.6046	1318.2627	1333.9323	1365.3214	1453.3315	1471.7298	1477.3566	1485.2082	1500.0047	1739.1124	3022.5287	3040.9433	3048.3938	3052.611	3065.475	3087.9759	3103.7121	3110.9497	3142.0311	3187.3225
C1CC23OC2CCC3=C1	C1C[C@@]23O[C@@H]2CCC3=C1	
InChI=1S/C8H10O/c1-2-6-3-4-7-8(6,5-1)9-7/h2,7H,1,3-5H2	InChI=1S/C8H10O/c1-2-6-3-4-7-8(6,5-1)9-7/h2,7H,1,3-5H2/t7-,8+/m1/s1
