18
gdb 93138	2.60553	1.71525	1.205	2.9658	73.15	-0.2437	0.0232	0.2668	1054.061	0.148167	-439.067291	-439.05925	-439.058305	-439.100104	30.288	
C	 0.1880271751	 1.5922387227	-0.0019620182	-0.403621
C	 0.0506583933	 0.073858672	-0.0357152604	 0.075646
O	 0.8741139621	-0.3608182773	-1.1217842477	-0.224305
C	 0.9515692027	-1.6590509647	-1.5100621092	 0.145016
N	 0.6995440116	-2.7620458607	-0.9609889528	-0.264951
C	 0.2893162306	-3.0252559256	 0.3988167623	-0.200917
C	 0.5281295694	-2.0004377109	 1.4891360784	 0.035532
O	 1.6982664506	-1.1759891352	 1.4146900705	-0.241862
C	 0.4191827269	-0.5548390411	 1.2983893439	 0.042904
H	 1.2178057781	 1.8728278216	 0.2374803394	 0.141573
H	-0.0725724339	 2.017662922	-0.9736512625	 0.130297
H	-0.4767289338	 2.0179768396	 0.755263686	 0.11969
H	-0.9916786578	-0.1948700519	-0.2647230156	 0.093765
H	 1.3319962632	-1.6669978242	-2.5326130329	 0.119931
H	-0.7807664578	-3.2825056755	 0.4077523097	 0.119859
H	 0.8025988518	-3.9485054577	 0.6993642943	 0.126291
H	 0.3277822129	-2.3914874182	 2.4897878616	 0.092242
H	 0.1320156448	 0.0550829254	 2.1573974631	 0.092911
68.5892	119.6719	222.2697	261.5057	279.5626	303.6453	377.8317	446.7838	467.0525	625.8302	668.8853	751.6113	807.8985	827.8983	859.9923	915.442	950.5696	972.8127	1002.5907	1022.6824	1051.1926	1104.5412	1131.6468	1154.9588	1161.6368	1193.4023	1266.3507	1313.3634	1339.2754	1365.0378	1384.5077	1399.6242	1409.5172	1444.8587	1471.7689	1485.92	1498.8684	1506.4581	1782.556	2992.1819	3000.1958	3027.208	3047.6311	3076.1957	3091.7661	3123.0976	3127.6997	3133.0067
CC1OC=NCC2OC12	C[C@H]1OC=NC[C@H]2O[C@@H]12	
InChI=1S/C6H9NO2/c1-4-6-5(9-6)2-7-3-8-4/h3-6H,2H2,1H3	InChI=1S/C6H9NO2/c1-4-6-5(9-6)2-7-3-8-4/h3-6H,2H2,1H3/t4-,5-,6+/m1/s1
