21
gdb 115655	2.66814	1.15688	0.94714	1.3703	78.22	-0.2431	0.0692	0.3123	1303.814	0.182148	-424.182329	-424.173118	-424.172173	-424.217167	33.781	
O	-0.3178046761	 1.5726891741	-0.0734827335	-0.42159
C	-0.2375248447	 0.2316274159	 0.3884113992	-0.11024
C	-1.4177969939	-0.5201513803	-0.1910867835	-0.014446
C	-1.4381351989	-0.8337590835	-1.7112630959	-0.224913
C	-2.0381222168	-2.2252031992	-1.3754177239	-0.296196
C	-1.5891302997	-2.0381756189	 0.0955380639	 0.273873
C	-0.4341180117	-2.9066870346	 0.6514834093	-0.128563
O	-1.2610332729	-3.4053978005	 1.720338249	-0.274674
C	-2.3753872442	-2.595758349	 1.2932334285	-0.138471
H	 0.4478631884	 2.0516115839	 0.2569124133	 0.287162
H	 0.7041100744	-0.2415346642	 0.0648721777	 0.08177
H	-0.2649179076	 0.1842896556	 1.4902847848	 0.088842
H	-2.3345667906	 0.0076449724	 0.0982116549	 0.081521
H	-2.0181339691	-0.1704078076	-2.3547841009	 0.105236
H	-0.4243245553	-0.9107259351	-2.1168676522	 0.099866
H	-3.1293553091	-2.2376607313	-1.4624719446	 0.102768
H	-1.6398854997	-3.0947984748	-1.9056607789	 0.09995
H	-0.0914683731	-3.710478628	-0.0140733522	 0.096926
H	 0.4435599704	-2.3702665472	 1.0350217854	 0.09712
H	-2.6599654029	-1.8542942883	 2.0531385401	 0.096059
H	-3.255873357	-3.2026680593	 1.0422328795	 0.097998
52.0993	81.9256	103.5264	166.0679	227.7527	268.4442	301.622	339.8044	432.6989	465.0474	507.658	720.1947	781.2739	853.831	875.7763	893.2112	904.4236	950.3882	957.2244	991.5984	1000.2282	1041.0704	1070.985	1098.1976	1135.7578	1150.5192	1159.8071	1167.8306	1188.2492	1216.8293	1239.0085	1253.8575	1259.8988	1272.4303	1281.5059	1303.3597	1311.8116	1365.7639	1383.5149	1461.6385	1479.5144	1495.7061	1506.5097	1521.0543	1532.5668	2952.4476	2979.7679	2989.2745	3003.3336	3033.6333	3037.908	3039.7232	3046.4906	3055.9294	3095.1999	3119.6761	3828.0678
OCC1CCC11COC1	OC[C@H]1CCC21COC2	
InChI=1S/C7H12O2/c8-3-6-1-2-7(6)4-9-5-7/h6,8H,1-5H2	InChI=1S/C7H12O2/c8-3-6-1-2-7(6)4-9-5-7/h6,8H,1-5H2/t6-/m1/s1
