19
gdb 41345	2.99721	1.83885	1.53199	1.6302	73.22	-0.2465	0.068	0.3145	920.2321	0.162802	-422.995461	-422.989008	-422.988063	-423.025887	27.618	
C	 0.0512584942	 1.4776065999	 0.2471931337	-0.148822
O	 1.465242174	 1.4750063059	-0.1316357502	-0.362083
C	 1.2596671787	 0.2423919644	-0.8229388976	 0.436356
C	 2.1221695777	-1.0087785263	-0.8335826829	-0.142432
O	 1.2379454166	-1.8873832691	-1.578520977	-0.298492
C	 0.1786007898	-1.0844635733	-2.1753201208	 0.120365
C	-0.9232083295	-0.7940155247	-1.1139743061	-0.27188
C	-0.0579771548	-0.033867657	-0.084612468	-0.037814
C	 0.8366395863	 0.2853238014	-2.3118674364	-0.29917
H	-0.0790550743	 1.7697576239	 1.2924745269	 0.113582
H	-0.5323189022	 2.1469248965	-0.3974399021	 0.104097
H	 3.0848360804	-0.9039042131	-1.351570966	 0.097687
H	 2.2906099536	-1.4310183088	 0.1622138519	 0.105385
H	-0.1561913898	-1.6031481196	-3.0739924096	 0.077737
H	-1.7346677014	-0.2021785492	-1.5515755896	 0.099344
H	-1.3525197862	-1.7098763841	-0.7024762878	 0.107934
H	 0.1020830899	-0.6175557661	 0.8239736372	 0.090031
H	 0.1382485654	 1.0897728693	-2.5481129711	 0.103408
H	 1.6812580116	 0.3082756301	-3.0037840843	 0.104765
198.8735	295.6151	331.2986	390.8787	425.5641	454.3807	518.0189	618.9188	706.186	751.5808	800.8264	834.1478	857.0556	888.9733	916.4866	946.6411	954.2585	962.7002	984.287	1018.9557	1041.8062	1090.2053	1101.3151	1137.3163	1147.68	1157.9636	1172.8177	1203.1108	1228.5234	1237.2409	1267.8243	1301.9955	1311.7894	1323.8768	1333.8497	1373.1429	1376.8401	1477.3375	1497.9808	1518.0187	1531.6115	3009.2914	3022.5713	3049.1229	3073.1678	3076.848	3080.238	3098.1814	3112.937	3116.802	3134.8527
C1OC23COC(CC12)C3	C1O[C@@]23CO[C@@H](C[C@H]12)C3	
InChI=1S/C7H10O2/c1-5-3-9-7(5)2-6(1)8-4-7/h5-6H,1-4H2	InChI=1S/C7H10O2/c1-5-3-9-7(5)2-6(1)8-4-7/h5-6H,1-4H2/t5-,6+,7+/m1/s1
