13
gdb 133249	2.60443	1.83163	1.08262	2.7773	63.93	-0.2549	-0.0767	0.1782	1003.8466	0.089537	-494.060659	-494.053203	-494.052259	-494.093095	26.694	
C	-0.0211200175	 1.4367948508	 0.0052714511	-0.322145
N	-0.0053163879	-0.0228501736	 0.0068355739	-0.048364
N	-0.0463095224	-0.6336976897	-1.1941232549	-0.206728
C	-0.0318922582	-1.9322868365	-1.1834573292	 0.07622
N	 0.0206465818	-2.7359703218	-0.0745337733	-0.302122
C	 0.0587287835	-2.130458457	 1.0512663239	 0.27226
F	 0.110137018	-2.8310398441	 2.1593729257	-0.023063
C	 0.0504073922	-0.6686281576	 1.2380875234	 0.300827
O	 0.0859814643	-0.0749324855	 2.297445859	-0.376882
H	 0.8792572105	 1.8178008829	 0.493495387	 0.161202
H	-0.0659217802	 1.7608804579	-1.0321263084	 0.15794
H	-0.8878102497	 1.7987398117	 0.5638826789	 0.161211
H	-0.0648893645	-2.4245199276	-2.146982537	 0.149642
85.5121	111.3573	217.2848	290.1038	314.4982	321.0498	509.4096	512.121	542.1846	591.1065	635.2246	731.9339	797.5833	891.9515	921.9158	988.6962	1064.1138	1149.7197	1227.022	1286.9072	1324.5922	1367.5115	1404.5727	1441.2088	1473.0064	1500.2425	1555.665	1665.7517	1780.545	3061.4861	3126.343	3187.4151	3224.2462
CN1N=CN=C(F)C1=O	Cn1ncnc(F)c1=O	
InChI=1S/C4H4FN3O/c1-8-4(9)3(5)6-2-7-8/h2H,1H3	InChI=1S/C4H4FN3O/c1-8-4(9)3(5)6-2-7-8/h2H,1H3
