21
gdb 90257	3.25728	1.4771	1.23461	1.6041	81.56	-0.2258	0.0722	0.298	1089.59	0.18346	-387.043002	-387.035115	-387.034171	-387.075168	31.724	
C	-0.0328092543	 1.5550327587	-0.0312859995	-0.402278
C	 0.0420145468	 0.0335737054	 0.0059771831	 0.023181
C	 1.10020955	-0.6287931259	-0.9501614498	-0.351122
C	 1.8948697732	-1.0151297941	 0.2823220278	 0.505041
O	 2.745613799	-2.1438613876	 0.4136535252	-0.332682
C	 3.6206693937	-1.4077754221	 1.3110123233	-0.103989
C	 2.8273485922	-0.0945658746	 1.1134566155	-0.13729
C	 1.6831168306	 0.1894525777	 2.1277445684	-0.256553
C	 0.7201681464	-0.6576062396	 1.2533948459	-0.116303
H	 0.9540817332	 2.0184701743	 0.0713587862	 0.117276
H	-0.4529474786	 1.8938584764	-0.9844682956	 0.115336
H	-0.6696697727	 1.9452039039	 0.7702437724	 0.116136
H	-0.9585282084	-0.3745942262	-0.1568215677	 0.078224
H	 0.6950833681	-1.5079998865	-1.4606957249	 0.110504
H	 1.5922453807	 0.0109956531	-1.6900758484	 0.093718
H	 3.6083304857	-1.8203952414	 2.3277772641	 0.099685
H	 4.6501072498	-1.4014062239	 0.9362953471	 0.105878
H	 3.3817259535	 0.7447859586	 0.6913037455	 0.071636
H	 1.8618092497	-0.2261532477	 3.1242808653	 0.097562
H	 1.4174450454	 1.2431192561	 2.2455477223	 0.100039
H	 0.1002134159	-1.4100152445	 1.7427306636	 0.066001
85.6553	177.7542	224.9237	252.8778	331.2129	358.4826	385.6529	455.5834	521.0966	641.7982	722.6902	762.7698	809.019	823.8108	862.5139	896.8694	908.3705	947.6533	957.8568	987.9069	1018.3836	1023.1541	1059.3619	1074.2388	1097.0556	1114.3655	1145.4252	1157.7382	1174.5163	1198.3047	1216.275	1239.4823	1255.6233	1278.499	1286.7884	1313.7553	1321.3355	1352.9249	1364.195	1409.9944	1475.6197	1481.9819	1495.4222	1500.9013	1517.1393	3015.2022	3027.073	3041.6952	3049.2842	3061.9241	3065.0067	3090.6793	3092.5692	3093.8549	3097.6886	3101.4004	3106.2059
CC1CC23OCC2CC13	C[C@H]1C[C@@]23OC[C@@H]2C[C@@H]13	
InChI=1S/C8H12O/c1-5-3-8-6(4-9-8)2-7(5)8/h5-7H,2-4H2,1H3	InChI=1S/C8H12O/c1-5-3-8-6(4-9-8)2-7(5)8/h5-7H,2-4H2,1H3/t5-,6-,7-,8+/m0/s1
