18
gdb 96866	3.04186	1.34874	1.03582	2.8653	75.86	-0.2486	0.0078	0.2565	1185.4897	0.146914	-439.082062	-439.0735	-439.072555	-439.115537	31.484	
C	-0.0186920292	 1.4173090466	-0.1626352737	-0.332348
N	-0.0546391057	-0.0331873252	-0.2566631476	-0.33656
C	-1.1101712415	-0.6447358215	 0.0537598855	 0.470464
O	-2.2883196101	-0.0696097362	 0.4632701214	-0.27652
C	-3.1900994175	-1.048846886	 1.034187175	 0.094185
C	-4.5894669114	-0.8104558607	 0.4918465842	-0.402146
C	-2.5801576949	-2.3923727139	 0.670311011	 0.012533
O	-2.4101365908	-2.5426312855	-0.7357687438	-0.2459
C	-1.2771764673	-2.1247891537	 0.0562619624	-0.088494
H	 0.9676887234	 1.7241127485	 0.1986247093	 0.122901
H	-0.1428793264	 1.8506005513	-1.1627366761	 0.131255
H	-0.7920402265	 1.8398037568	 0.4894394568	 0.12152
H	-3.1683616934	-0.9269787771	 2.1257304441	 0.093593
H	-4.6050894635	-0.9942291579	-0.5847920459	 0.146888
H	-5.3036475647	-1.4825067453	 0.9780137039	 0.120326
H	-4.90017759	 0.2196346542	 0.6825258995	 0.132962
H	-2.8165713214	-3.2872422394	 1.2384669671	 0.112172
H	-0.4163850291	-2.7817878451	 0.0663234268	 0.123169
83.4964	109.1819	150.6322	194.6732	239.2567	257.7586	346.8229	411.5309	464.4443	522.2066	664.2482	702.9991	743.7432	833.1305	856.5916	880.2846	895.6566	954.6396	1006.9224	1041.2904	1050.9803	1091.6702	1117.9699	1125.5803	1149.1317	1160.2679	1218.3969	1246.8954	1316.4095	1356.346	1370.5751	1405.4146	1419.8091	1437.6963	1485.9934	1490.285	1497.2925	1499.6606	1803.2805	3015.7396	3017.9976	3048.8574	3075.0915	3095.1013	3121.7498	3140.822	3162.8072	3206.3529
CN=C1OC(C)C2OC12	CN=C1O[C@@H](C)[C@H]2O[C@@H]12	
InChI=1S/C6H9NO2/c1-3-4-5(9-4)6(7-2)8-3/h3-5H,1-2H3	InChI=1S/C6H9NO2/c1-3-4-5(9-4)6(7-2)8-3/h3-5H,1-2H3/t3-,4+,5+/m0/s1
