19
gdb 43090	3.14793	1.67004	1.58162	3.2758	77.68	-0.2296	-0.0074	0.2222	930.2824	0.163482	-385.925438	-385.919042	-385.918098	-385.955981	27.265	
O	-0.0136267873	 0.0136132917	-0.0161548811	-0.331446
C	-0.0227116323	 1.2119426531	 0.0222236773	 0.434166
C	-1.1180825806	 2.2751336736	-0.0269211046	-0.152626
C	-1.2800047741	 2.9174112914	 1.3898611925	-0.231672
C	-0.0354716695	 3.8249248897	 1.4932875952	-0.011431
C	-0.0478518675	 4.5203373066	 0.1165797521	-0.226764
C	-0.0419212003	 3.2238956148	-0.6920333712	-0.027606
C	 1.0555068504	 2.2919654979	-0.0379657316	-0.152626
C	 1.2218506497	 2.9367847015	 1.3771491261	-0.231672
H	-2.0576636696	 2.036288994	-0.5257036609	 0.0831
H	-2.1969873114	 3.5143464184	 1.4265530357	 0.104604
H	-1.340971364	 2.1665639933	 2.1833952552	 0.110396
H	-0.0361333091	 4.482203488	 2.3647512004	 0.06502
H	-0.9428901045	 5.1280213832	-0.0503722015	 0.09735
H	 0.8359254724	 5.1417963651	-0.0594103641	 0.09735
H	-0.0478388626	 3.2748763758	-1.7789367989	 0.075756
H	 1.9935578133	 2.0676611022	-0.5462877388	 0.0831
H	 2.1298044351	 3.5478518113	 1.4045680729	 0.104604
H	 1.302497942	 2.1870338583	 2.1699634655	 0.110396
132.132	261.8407	382.1451	418.6647	463.4337	509.4411	551.7525	692.2685	774.2597	796.0705	804.354	836.5434	854.2707	876.1397	895.3454	916.3524	943.5767	956.9489	991.2046	1001.629	1025.9956	1049.4985	1085.4364	1099.072	1124.6115	1135.9293	1144.2105	1214.3854	1234.2586	1235.0874	1243.5047	1251.6893	1289.5699	1303.5341	1327.0555	1330.8714	1348.0383	1487.8417	1492.7415	1515.4513	1882.4956	3044.8779	3046.1084	3050.0648	3089.2008	3093.2454	3095.6435	3098.9349	3111.4043	3111.6455	3139.588
O=C1C2CC3CC2C1C3	O=C1[C@H]2C[C@@H]3C[C@H]2[C@H]1C3	
InChI=1S/C8H10O/c9-8-6-2-4-1-5(6)7(8)3-4/h4-7H,1-3H2	InChI=1S/C8H10O/c9-8-6-2-4-1-5(6)7(8)3-4/h4-7H,1-3H2/t4-,5+,6-,7+
