15
gdb 18546	4.13427	2.06593	1.55122	3.4291	66.79	-0.2185	-0.002	0.2165	805.5946	0.120847	-362.684256	-362.677946	-362.677001	-362.714832	24.334	
O	-0.0572676305	-0.0416926539	 0.1631691454	-0.320591
C	-0.0923893565	 1.1453573481	 0.0309119302	 0.402298
C	-1.1849685138	 2.2240084405	-0.1397693737	-0.401551
C	-0.0290719895	 3.255688163	-0.0329985647	 0.041591
C	 0.2307559372	 4.0798748669	 1.2535517338	-0.298066
C	 1.5111832911	 3.454254697	 1.7867339171	-0.091841
C	 1.8409335726	 2.3555889432	 1.1044815759	-0.063167
N	 0.9400455713	 2.1201929882	 0.0314917418	-0.109233
H	-1.7381063166	 2.1996141298	-1.0810292982	 0.134965
H	-1.8916242393	 2.2290208512	 0.6936289245	 0.138426
H	 0.1146600394	 3.8587200696	-0.9328044459	 0.094297
H	 0.3439121709	 5.1443274205	 1.026036063	 0.118291
H	-0.5832938229	 4.0028517126	 1.9880148069	 0.114383
H	 2.0586554951	 3.844247082	 2.6342731086	 0.106593
H	 2.6588691517	 1.6699504215	 1.2752672654	 0.133605
106.1976	152.8163	319.9979	414.5705	489.2052	543.9771	624.6379	690.6603	732.8848	765.0792	834.8051	868.6981	904.9505	929.9131	945.7125	1023.3759	1031.7079	1042.985	1088.4206	1116.0957	1153.9231	1196.6096	1214.2629	1239.8658	1263.6413	1303.6787	1336.252	1381.1549	1448.7784	1493.1391	1662.6966	1893.6862	3009.9537	3062.1551	3075.8492	3080.9234	3132.8943	3221.3045	3248.2205
O=C1CC2CC=CN12	O=C1C[C@H]2CC=CN12	
InChI=1S/C6H7NO/c8-6-4-5-2-1-3-7(5)6/h1,3,5H,2,4H2	InChI=1S/C6H7NO/c8-6-4-5-2-1-3-7(5)6/h1,3,5H,2,4H2/t5-/m1/s1
