16
gdb 34564	3.72694	1.30299	1.22912	5.0791	76.45	-0.2621	-0.0527	0.2094	1037.6579	0.127414	-400.764602	-400.757865	-400.756921	-400.795822	26.741	
N	 0.0647812532	-1.1494590121	 0.026849296	-0.342662
C	-0.007985791	 0.0070101754	 0.0033449028	 0.173427
C	-0.0516624059	 1.4195246361	-0.0491617874	 0.251876
C	-1.1277189491	 2.2276685044	-0.0070778749	-0.174137
C	-0.6167344845	 3.6517241347	 0.0406372977	-0.102419
C	 0.0916162239	 3.782739267	 1.4271664367	-0.07277
O	 1.2250938955	 2.9121570294	 1.3177559748	-0.265564
C	 1.1702562288	 2.348823948	-0.0134813576	-0.009592
C	 0.6518641676	 3.5278163452	-0.8476981474	-0.228394
H	-2.1625152133	 1.9261734784	 0.0889069621	 0.130548
H	-1.3321598248	 4.4407293307	-0.1831451523	 0.086309
H	 0.4320122194	 4.8103625985	 1.6024788563	 0.111148
H	-0.5450426243	 3.4691863934	 2.2612934162	 0.111857
H	 2.137224249	 1.9076872939	-0.2426303588	 0.099397
H	 0.4241508708	 3.2716083432	-1.8828989444	 0.117242
H	 1.3141483347	 4.3958449938	-0.8005337	 0.113735
117.9343	158.2542	294.6093	394.3534	454.2732	461.0377	541.0541	563.9276	650.4434	716.0703	814.5852	850.0094	864.5939	895.5383	906.5908	926.4585	937.9894	971.3114	988.639	1031.5111	1067.6697	1125.8237	1152.2982	1199.6302	1220.0734	1249.6226	1271.5604	1283.6794	1293.3582	1326.2001	1365.6035	1490.3445	1522.641	1642.1843	2335.1818	3025.9243	3072.7331	3075.9021	3139.8059	3142.7799	3160.8448	3225.0775
N#CC1=CC2COC1C2	N#CC1=C[C@H]2CO[C@@H]1C2	
InChI=1S/C7H7NO/c8-3-6-1-5-2-7(6)9-4-5/h1,5,7H,2,4H2	InChI=1S/C7H7NO/c8-3-6-1-5-2-7(6)9-4-5/h1,5,7H,2,4H2/t5-,7-/m1/s1
