16
gdb 127378	3.98205	1.15472	1.06919	2.8472	73.84	-0.2439	-0.0452	0.1987	1140.0131	0.124125	-434.010097	-434.002267	-434.001323	-434.042947	28.852	
C	-0.5946245734	 1.2585798212	 0.0544694712	-0.330187
N	 0.00787227	-0.0709983308	 0.0482691136	-0.082161
C	 1.4033984179	-0.1918930221	-0.3183684509	-0.251003
C	 0.9742125751	-0.4486353281	 1.0946684879	-0.118059
C	 1.3845990705	 0.4459996144	 2.1855522523	 0.432864
C	 1.4163535446	 0.2485318488	 3.5367437118	-0.218476
N	 1.8939907405	 1.4023033692	 4.1037562053	-0.103857
N	 2.1462407093	 2.2653727881	 3.2314630014	-0.01192
O	 1.829281123	 1.6792766397	 1.9410827662	-0.231326
H	 0.0951010105	 2.0692738388	 0.3224916102	 0.134796
H	-0.9872152408	 1.4520711904	-0.9481094208	 0.132426
H	-1.4344758811	 1.2662663408	 0.7555560513	 0.131385
H	 1.6648684514	-1.033287472	-0.9547221286	 0.12746
H	 1.9730401043	 0.7192822868	-0.493260906	 0.134356
H	 0.857664915	-1.4754687634	 1.431114278	 0.110361
H	 1.1404856433	-0.6099380418	 4.1242583871	 0.14334
63.621	131.9224	177.2557	214.1362	291.1518	351.9165	433.6049	472.5947	579.2268	682.0107	695.819	724.8162	776.7507	822.0013	877.7185	972.4064	984.4269	1034.5472	1043.4678	1094.8203	1123.8456	1129.1246	1131.6979	1169.7069	1210.4852	1256.729	1323.9748	1349.6852	1401.7684	1452.612	1466.4507	1492.2803	1504.0904	1511.6004	1595.5957	3017.88	3090.356	3096.9482	3112.7336	3143.146	3186.668	3292.7686
CN1CC1C1=CN=NO1	CN1C[C@H]1c1cnno1	
InChI=1S/C5H7N3O/c1-8-3-4(8)5-2-6-7-9-5/h2,4H,3H2,1H3	InChI=1S/C5H7N3O/c1-8-3-4(8)5-2-6-7-9-5/h2,4H,3H2,1H3/t4-,8?/m0/s1
