20
gdb 22316	4.04587	0.74658	0.69711	2.0024	79.5	-0.2363	0.019	0.2553	1636.2947	0.168186	-440.227323	-440.217047	-440.216103	-440.263567	37.158	
C	-0.2674196021	 1.4061226075	 0.1920148095	-0.469362
C	-0.0079231798	-0.0572712384	-0.04716447	 0.357004
C	 0.1405045581	-0.9974430625	 1.123981654	-0.287506
C	 1.3961493913	-0.7292161039	 1.9395771377	-0.014347
C	 1.404046497	 0.2698511773	 3.0844163651	-0.326939
C	 1.50002966	-1.210495162	 3.3576507403	 0.087031
O	 0.3890451719	-1.8868588498	 3.8732160184	-0.415361
N	 0.1122952538	-0.5911643443	-1.2033812497	-0.166354
O	-0.0064660226	 0.3514336845	-2.2417044287	-0.402556
H	 0.6746917894	 1.9648778636	 0.2368631978	 0.141678
H	-0.8583201452	 1.8283420544	-0.6224464107	 0.148487
H	-0.7859792776	 1.5585871404	 1.1415704624	 0.118479
H	-0.7346761576	-0.9201498281	 1.7781819516	 0.112038
H	 0.1685119184	-2.0203617245	 0.7370762331	 0.119523
H	 2.3139203679	-0.791610346	 1.3609110636	 0.095311
H	 2.2767455177	 0.8956136339	 3.2371242284	 0.111158
H	 0.4583909049	 0.7400123742	 3.3349564021	 0.11233
H	 2.4624178975	-1.6069338905	 3.6813131335	 0.086975
H	 0.2859987263	-1.6295116984	 4.7950613887	 0.28894
H	 0.0487347608	-0.2082588074	-3.0229499572	 0.303471
42.0188	68.3589	84.099	118.7446	191.0709	273.5505	298.2309	323.2542	347.9041	385.6966	412.0669	466.6191	518.4204	545.4131	669.7681	769.0391	818.7972	836.5283	881.3455	896.4141	973.8806	986.4834	1012.5028	1039.6572	1053.3765	1073.5591	1126.8863	1142.8051	1179.9042	1233.1877	1237.9232	1279.6304	1300.3827	1317.3524	1390.9587	1398.2998	1400.3236	1424.0704	1470.9199	1478.1691	1486.005	1491.2389	1727.9888	3042.1384	3047.647	3095.3813	3096.7509	3104.0227	3127.5003	3143.945	3145.3321	3216.0246	3809.5308	3823.8163
CC(CC1CC1O)=NO	CC(=NO)C[C@H]1C[C@H]1O	
InChI=1S/C6H11NO2/c1-4(7-9)2-5-3-6(5)8/h5-6,8-9H,2-3H2,1H3	InChI=1S/C6H11NO2/c1-4(7-9)2-5-3-6(5)8/h5-6,8-9H,2-3H2,1H3/t5-,6+/m0/s1
