21
gdb 95959	2.55276	1.52214	1.1696	2.0197	77.82	-0.2417	0.0782	0.3199	1136.6656	0.182991	-424.219451	-424.210801	-424.209857	-424.254257	32.701	
C	-0.0533635455	 1.549265604	-0.1098227804	-0.412076
C	 0.0596233801	 0.0413274547	 0.0455716279	 0.097706
O	 0.6534812273	-0.4835284314	-1.1431439185	-0.26827
C	 1.3666736105	-1.6587472611	-0.7870560822	-0.092804
C	 2.0154928184	-1.2998961782	 0.5487615138	-0.264372
C	 0.9100895379	-0.4873741003	 1.2399917486	 0.394182
C	 1.3246945843	 0.4225487777	 2.4212009538	-0.353018
C	 0.5338337766	-0.5696716149	 3.2913828719	-0.070727
O	 0.0948107871	-1.3027726987	 2.1310370297	-0.321438
H	 0.9354623478	 2.0171193757	-0.1476763007	 0.117477
H	-0.5744678749	 1.7818531138	-1.0423585341	 0.129667
H	-0.6211775236	 1.9894991633	 0.7151971349	 0.11566
H	-0.9411192593	-0.3976792538	 0.1818610022	 0.08396
H	 0.6850170281	-2.5171054075	-0.6726442166	 0.098639
H	 2.0747767137	-1.8805834457	-1.5894153777	 0.106263
H	 2.3180236557	-2.1574053519	 1.1536254195	 0.108581
H	 2.8878782166	-0.660171026	 0.3742054474	 0.104251
H	 2.39854264	 0.4783207724	 2.6090769283	 0.108871
H	 0.9162398626	 1.4333241831	 2.392819919	 0.113096
H	 1.1415672366	-1.1884088192	 3.9638797095	 0.100276
H	-0.3103964599	-0.1586926462	 3.8569642235	 0.104075
14.848	78.3915	205.4823	229.0514	270.2988	294.9299	355.6331	416.9805	470.4916	506.5218	628.8721	703.9133	778.4483	824.7172	866.7477	879.6936	927.4411	934.1883	978.4435	985.6402	1017.0372	1029.929	1070.3897	1109.6581	1121.253	1144.5332	1161.583	1185.8824	1194.8304	1222.6301	1239.5899	1253.5268	1277.2995	1314.7476	1338.4584	1352.1508	1378.3654	1391.8792	1409.473	1464.4747	1483.6273	1489.8562	1500.7061	1516.8842	1532.4187	2975.8738	2982.4092	3014.0725	3039.8962	3045.1767	3055.7952	3080.1566	3095.0664	3113.1357	3116.1173	3119.1789	3135.1065
CC1OCCC11CCO1	C[C@H]1OCC[C@]21CCO2	
InChI=1S/C7H12O2/c1-6-7(2-4-8-6)3-5-9-7/h6H,2-5H2,1H3	InChI=1S/C7H12O2/c1-6-7(2-4-8-6)3-5-9-7/h6H,2-5H2,1H3/t6-,7-/m1/s1
