20
gdb 96855	2.3748	1.39328	0.99691	2.365	83.7	-0.2392	0.0319	0.2711	1269.8399	0.169581	-403.139242	-403.129761	-403.128816	-403.173722	34.521	
C	 0.0075528357	 1.4118849473	 0.2689337642	-0.33867
N	-0.0449245994	-0.0385932585	 0.3806852068	-0.351531
C	-1.068736715	-0.6471270816	-0.0020847148	 0.437421
O	-2.2571186283	-0.181133299	-0.5553508289	-0.304749
C	-2.8029691234	-1.5464884795	-0.6464930182	 0.079113
C	-3.1588185083	-1.9190843066	-2.0680483831	-0.403092
C	-1.4956239802	-2.0704546619	-0.0457375199	 0.157041
C	-0.6564931593	-3.2653254299	-0.4027981142	-0.317999
C	-1.2336201575	-3.1340613207	 0.981161658	-0.320902
H	 0.8734458772	 1.6951096379	-0.3402118384	 0.123662
H	-0.8913500576	 1.8603592338	-0.1704489309	 0.124836
H	 0.1636907607	 1.8446473015	 1.263705737	 0.124014
H	-3.6680559241	-1.6297824079	 0.0205394516	 0.093
H	-2.2879157694	-1.8290064186	-2.7231773058	 0.130335
H	-3.5218123627	-2.9518474668	-2.1098799586	 0.120779
H	-3.9512887733	-1.2668524266	-2.4470822154	 0.132394
H	-1.0893563005	-4.0031168915	-1.0704096683	 0.11914
H	 0.4052466187	-3.0911670346	-0.5373564545	 0.138391
H	-0.5669295042	-2.8705021142	 1.7947753597	 0.138229
H	-2.0597130291	-3.7824180326	 1.2547415336	 0.118589
85.823	97.7361	137.0292	160.9201	194.6213	212.3767	245.3248	296.2732	368.9332	477.6259	530.1401	611.5245	702.255	741.6919	779.7561	834.1544	868.3082	915.049	953.2304	995.5643	1030.4618	1042.9895	1061.3076	1079.6702	1090.7991	1110.7596	1133.6063	1144.4064	1170.851	1195.4566	1269.7044	1282.9341	1378.5783	1407.8582	1410.1136	1441.0508	1457.5146	1484.894	1489.7678	1495.0286	1498.2314	1503.1973	1847.8307	3013.9134	3037.9388	3048.4129	3076.7118	3083.0566	3107.7813	3123.7015	3131.035	3133.8022	3215.7448	3229.8436
CN=C1OC(C)C11CC1	CN=C1O[C@@H](C)C21CC2	
InChI=1S/C7H11NO/c1-5-7(3-4-7)6(8-2)9-5/h5H,3-4H2,1-2H3	InChI=1S/C7H11NO/c1-5-7(3-4-7)6(8-2)9-5/h5H,3-4H2,1-2H3/t5-/m0/s1
