17
gdb 20794	3.12562	1.75908	1.22463	3.3749	70.72	-0.2415	-0.0032	0.2383	1009.4195	0.141862	-363.875403	-363.867189	-363.866245	-363.908946	29.063	
C	-0.3994562491	 1.4609749798	 0.0391089978	-0.365508
C	 0.0551213327	-0.0086610837	 0.0533074822	-0.312963
C	 0.7751507927	-0.4214328393	-1.1958939022	 0.07501
C	 2.1064576404	-0.648915843	-1.3977349895	 0.344327
C	 3.3022286712	-0.6009425959	-0.5135991282	-0.493887
O	 2.3277436137	-0.9865098964	-2.6844744535	-0.212553
N	 1.12011453	-0.9895232969	-3.3772902456	-0.145049
C	 0.2204631156	-0.6546158108	-2.488965682	-0.032487
H	 0.4574403768	 2.1346012572	-0.058098318	 0.121548
H	-1.0714195665	 1.6579077746	-0.8022440926	 0.122452
H	-0.9311883683	 1.7137534954	 0.9616886036	 0.11527
H	 0.7020896624	-0.1801861738	 0.920792233	 0.105412
H	-0.8197588017	-0.654184417	 0.1992017188	 0.113321
H	 3.0083232224	-0.3793160688	 0.5142155543	 0.138794
H	 3.8350074405	-1.5573147162	-0.5238963277	 0.150859
H	 4.0057001518	 0.1707606336	-0.8440829108	 0.150365
H	-0.8158693445	-0.5915501488	-2.7935154094	 0.125088
38.4376	93.8022	158.0355	200.2598	242.0305	276.9845	374.2446	432.4389	621.2114	641.5399	684.0452	717.1618	787.0737	912.7605	913.7515	954.4841	977.5145	1007.2508	1054.5149	1062.324	1085.484	1187.0883	1206.7998	1257.632	1298.449	1356.9674	1400.3769	1410.6016	1422.9163	1473.5719	1481.6429	1489.5759	1496.2014	1506.8989	1519.0393	1672.3943	3029.1445	3036.7478	3041.1416	3064.1195	3097.0019	3108.7273	3112.0091	3134.2988	3231.4135
CCC1=C(C)ON=C1	CCc1c(C)onc1	
InChI=1S/C6H9NO/c1-3-6-4-7-8-5(6)2/h4H,3H2,1-2H3	InChI=1S/C6H9NO/c1-3-6-4-7-8-5(6)2/h4H,3H2,1-2H3
