21
gdb 88089	3.12749	1.25849	1.16947	1.2682	82.26	-0.2402	0.0833	0.3235	1161.5053	0.183953	-387.072432	-387.064305	-387.063361	-387.104775	32.976	
O	-0.1476454227	 1.4214767689	-0.0494355444	-0.422812
C	-0.0691027641	 0.0238493832	-0.0166848446	 0.039716
C	-0.4581178714	-0.7211860137	 1.2406371789	-0.393036
C	-1.3678236493	-0.7180335208	 0.0240639542	 0.375863
C	-2.7033249547	 0.0325782037	 0.0458164734	-0.299794
C	-3.7784622976	-1.07414579	-0.0868987591	-0.221591
C	-3.0931440739	-2.2096458067	-0.8356417138	-0.027802
C	-2.307678834	-1.8662209859	-2.0772210578	-0.300629
C	-1.5969267672	-1.9917846728	-0.74806987	-0.106875
H	 0.580146632	 1.772827815	 0.4741417949	 0.285894
H	 0.7329630207	-0.4002749182	-0.6226480309	 0.079992
H	 0.0817981821	-1.6287778812	 1.4939354296	 0.104484
H	-0.7673048162	-0.1201096365	 2.0901223527	 0.108204
H	-2.8328876024	 0.637432365	 0.9453257166	 0.100187
H	-2.7529044504	 0.7247867132	-0.8007461424	 0.114559
H	-4.0776736332	-1.4326863167	 0.9052467718	 0.097977
H	-4.6838662335	-0.7105136396	-0.5849169403	 0.094125
H	-3.5153346706	-3.2059119021	-0.760481883	 0.077856
H	-2.1511826776	-2.6629877521	-2.796412424	 0.105622
H	-2.4157166698	-0.88373373	-2.5258394741	 0.112707
H	-0.9091826561	-2.8175983126	-0.6008751877	 0.075356
104.0581	156.7361	202.7195	289.1842	292.5681	359.5528	388.568	457.0213	470.0292	588.8478	628.8464	717.789	792.1077	821.0179	832.6662	843.9908	903.147	918.4168	933.3935	948.3827	988.5264	1015.8512	1019.6046	1046.5028	1058.3724	1073.2771	1090.1737	1106.7543	1119.1967	1158.1534	1198.0506	1203.3551	1216.8108	1256.2352	1274.5574	1307.978	1320.2719	1328.7069	1368.4587	1390.7925	1431.7806	1485.7964	1490.7189	1494.1604	1511.3219	3030.964	3054.9317	3071.889	3085.9921	3106.8456	3116.9629	3127.9829	3158.018	3167.401	3207.2373	3211.1535	3802.2671
OC1CC11CCC2CC12	O[C@H]1C[C@]21CC[C@H]1C[C@@H]21	
InChI=1S/C8H12O/c9-7-4-8(7)2-1-5-3-6(5)8/h5-7,9H,1-4H2	InChI=1S/C8H12O/c9-7-4-8(7)2-1-5-3-6(5)8/h5-7,9H,1-4H2/t5-,6+,7-,8+/m0/s1
