13
gdb 29667	3.43861	1.36066	0.98095	0.4317	67.4	-0.243	-0.054	0.189	1092.3961	0.089774	-452.808956	-452.801004	-452.80006	-452.841999	27.785	
C	 0.0262399408	 1.4464305344	 0.0611364186	-0.353519
N	 0.0254228642	-0.0040285039	 0.0447392041	-0.21368
C	-0.0237774758	-0.7500617837	-1.11010842	 0.499254
O	-0.0727016611	-0.3992696811	-2.2534979975	-0.391552
O	-0.0060407867	-2.0872980991	-0.6986723924	-0.197298
C	 0.0518571594	-2.1234926502	 0.6560088436	-0.10587
C	 0.0727306682	-0.8679627168	 1.148748766	 0.183467
C	 0.129655603	-0.4248571883	 2.4862730227	 0.231444
N	 0.1758470363	-0.0392499737	 3.5777019942	-0.334346
H	 0.9383473844	 1.82982753	 0.527109759	 0.156502
H	-0.0186465185	 1.7752653706	-0.9775401394	 0.181188
H	-0.8421818953	 1.8298702547	 0.6041334855	 0.156522
H	 0.0726409611	-3.0858182028	 1.1367754756	 0.187889
91.3854	116.7903	138.282	170.487	279.8966	295.0811	462.3777	503.3653	527.8421	628.279	629.2113	700.868	751.2503	781.2849	790.8294	969.9078	1013.26	1159.8656	1162.8318	1192.1493	1279.9345	1356.3587	1409.5815	1467.5477	1491.06	1511.329	1653.1032	1901.5507	2346.5127	3048.4001	3113.8342	3160.9742	3300.9728
CN1C(=O)OC=C1C#N	Cn1c(=O)occ1C#N	
InChI=1S/C5H4N2O2/c1-7-4(2-6)3-9-5(7)8/h3H,1H3	InChI=1S/C5H4N2O2/c1-7-4(2-6)3-9-5(7)8/h3H,1H3
