20
gdb 62608	2.93403	1.74314	1.51406	1.6942	81.64	-0.2102	0.0013	0.2115	973.8361	0.171886	-365.97659	-365.968936	-365.967992	-366.007952	31.638	
C	-0.0438977261	 1.592278285	-0.0312332193	-0.458047
C	 0.052845409	 0.0695176538	-0.0140491587	 0.320413
C	-1.3292907761	-0.557968115	 0.2066831232	-0.433694
C	 0.7626008847	-0.6429681465	-1.1633870265	-0.083524
C	 2.2652943452	-0.7347967827	-1.0401210943	-0.080738
C	 2.9943714625	 0.1714853383	-0.1097423164	-0.08849
C	 2.3598467014	 0.162758249	 1.0639122488	-0.09134
C	 1.114408708	-0.6666897391	 0.9100930349	-0.102566
N	 1.4091312565	-1.6415879648	-0.24159117	-0.135691
H	 0.9311758435	 2.0639431843	-0.1654274228	 0.118574
H	-0.692361203	 1.9160847747	-0.8536522379	 0.112173
H	-0.4831931653	 1.9714069821	 0.8990725081	 0.109405
H	-2.0319803145	-0.2451974357	-0.5740366491	 0.110445
H	-1.2757693179	-1.6501482475	 0.1984874319	 0.132888
H	-1.7429818652	-0.2413124216	 1.170926257	 0.110978
H	 0.270245657	-0.9547778788	-2.0820947428	 0.085795
H	 2.7850387089	-1.2051542262	-1.8700681353	 0.090893
H	 3.8762008888	 0.736065562	-0.3828352617	 0.105919
H	 2.5920752578	 0.7561534173	 1.9389571763	 0.105259
H	 0.7208309049	-1.1446461389	 1.8077187045	 0.071348
182.618	202.2804	238.8293	255.7233	337.3452	345.6304	421.5442	464.2841	592.9329	598.8455	731.0686	743.5647	762.8132	784.5545	808.5535	847.5649	904.0868	924.7193	948.272	959.1645	971.6081	986.5635	999.2023	1033.5334	1060.201	1090.4742	1124.9966	1162.3274	1169.9931	1208.3378	1224.6045	1249.1266	1289.9983	1340.2072	1353.0926	1379.3555	1398.6583	1418.9808	1485.1029	1488.106	1502.0846	1512.167	1655.2925	3023.3923	3029.5231	3082.5967	3088.4255	3103.4214	3113.5734	3129.3556	3130.059	3153.5282	3205.8332	3230.925
CC1(C)C2C3C=CC1N23	CC1(C)[C@H]2[C@H]3C=C[C@@H]1N23	
InChI=1S/C8H11N/c1-8(2)6-4-3-5-7(8)9(5)6/h3-7H,1-2H3	InChI=1S/C8H11N/c1-8(2)6-4-3-5-7(8)9(5)6/h3-7H,1-2H3/t5-,6+,7-,9?/m1/s1
