21
gdb 53340	3.50824	0.93163	0.84552	0.0971	91.55	-0.2362	0.055	0.2912	1477.1712	0.182619	-349.908415	-349.899197	-349.898252	-349.944153	33.798	
C	-0.0500983855	 1.4802352487	 0.1488942095	-0.498281
C	-0.0181302599	 0.0254077277	 0.0920018905	 0.059193
C	 0.0185904102	-1.1785220899	 0.0352923029	 0.07972
C	 0.0422191353	-2.6273430773	-0.0057538949	-0.163628
C	 0.386432552	-3.4210351296	 1.3059207588	-0.248492
C	-0.8474382393	-4.3406521282	 1.0839258429	-0.011052
C	-2.1049572402	-3.9374482158	 1.8893030593	-0.220715
C	-2.4604116986	-2.8835494173	 0.7953732631	-0.231344
C	-1.3048317555	-3.4134208329	-0.0983313717	-0.023114
H	 0.8322091617	 1.9181016018	-0.3314862326	 0.145663
H	-0.9343990186	 1.8800564955	-0.3601620857	 0.145918
H	-0.0750850621	 1.840283391	 1.1836282103	 0.144875
H	 0.7036306311	-2.9605899398	-0.8131680786	 0.093698
H	 1.3588382729	-3.9174236942	 1.2827435251	 0.102318
H	 0.3299286442	-2.815052353	 2.2138466975	 0.103292
H	-0.6360602194	-5.4039783959	 0.9627159584	 0.060473
H	-2.8426960712	-4.7425441127	 1.9471101908	 0.096728
H	-1.9292871645	-3.5624162658	 2.902397663	 0.093333
H	-3.4559834172	-2.9998804092	 0.3614289635	 0.098082
H	-2.3402280161	-1.8390442895	 1.0939495506	 0.111
H	-1.5832265293	-3.7798276237	-1.0872863627	 0.062332
24.0372	57.2509	93.1063	134.6079	242.0472	296.9883	340.5558	371.0144	465.2346	515.4966	611.7166	712.5287	738.7301	755.0705	840.7443	874.0396	886.0192	902.3349	951.672	969.3823	1010.2676	1042.7854	1051.8861	1053.2534	1056.0285	1092.3544	1144.4327	1171.8969	1192.3832	1208.4372	1219.0842	1250.5213	1256.1789	1270.2324	1289.2059	1299.5571	1319.3915	1349.361	1414.7485	1476.3568	1479.0356	1479.2477	1482.513	1498.2128	2360.4745	3023.7307	3035.4312	3045.6046	3061.9872	3063.7568	3083.0779	3083.2336	3084.2821	3094.0889	3097.9305	3116.1896	3120.7008
CC#CC1CC2CCC12	CC#C[C@H]1C[C@H]2CC[C@@H]12	
InChI=1S/C9H12/c1-2-3-7-6-8-4-5-9(7)8/h7-9H,4-6H2,1H3	InChI=1S/C9H12/c1-2-3-7-6-8-4-5-9(7)8/h7-9H,4-6H2,1H3/t7-,8+,9-/m0/s1
