17
gdb 24235	3.99645	1.56624	1.22638	1.9417	78.47	-0.1629	0.0579	0.2208	997.0392	0.140113	-380.875923	-380.869215	-380.868271	-380.906624	28.056	
C	 0.0252457974	 1.4970046775	 0.0861551829	-0.301849
C	 1.3247612415	 0.7228304214	 0.0088796253	-0.002981
N	 2.0554477856	 0.3436577727	 1.2268586377	-0.415901
C	 1.1246369591	-0.4352904044	 1.9408693561	 0.327641
C	-0.0277708738	-0.7483665596	 1.2716168295	 0.302118
C	-0.7649887106	-1.6382285488	 2.102679907	-0.338532
C	-0.0236285874	-1.8164944584	 3.251427611	-0.085076
N	 1.1456719391	-1.0650512192	 3.1468435055	-0.379117
C	-0.0137341346	-0.0178181929	-0.025386219	-0.194849
H	-0.2730557993	 1.9381216493	 1.0315484904	 0.109071
H	-0.2316810038	 2.0789489591	-0.793271428	 0.107081
H	 1.9452932845	 0.8327047747	-0.8731381801	 0.093913
H	 2.4170674086	 1.1480626695	 1.7297515024	 0.230366
H	-1.7246845539	-2.0910339718	 1.9050223646	 0.089886
H	-0.2204848289	-2.3963943584	 4.137886594	 0.111174
H	 1.8915767213	-1.0547559754	 3.8193238929	 0.257687
H	-0.3775895747	-0.4730319553	-0.9397045621	 0.089369
147.4814	245.1901	345.1458	392.1307	426.4246	442.7852	598.2066	614.245	631.3586	677.7175	696.9335	742.7428	789.231	808.4561	810.7367	847.1238	929.1733	954.5898	974.2225	1029.7362	1052.2355	1070.7666	1087.1723	1100.8586	1139.6084	1173.8099	1193.0515	1236.5422	1299.953	1335.1122	1352.9306	1383.8865	1450.6845	1465.336	1496.1519	1556.0255	1618.0408	3122.5388	3164.4776	3172.2967	3214.1705	3243.538	3274.1248	3508.2219	3687.3619
C1C2NC3=C(C=CN3)C12	C1[C@H]2Nc3c(cc[nH]3)[C@@H]12	
InChI=1S/C7H8N2/c1-2-8-7-4(1)5-3-6(5)9-7/h1-2,5-6,8-9H,3H2	InChI=1S/C7H8N2/c1-2-8-7-4(1)5-3-6(5)9-7/h1-2,5-6,8-9H,3H2/t5-,6-/m1/s1
