18
gdb 36098	3.64999	1.13818	1.03537	1.1	80.58	-0.2232	0.0438	0.267	1197.0447	0.146608	-364.684784	-364.676709	-364.675765	-364.717682	31.744	
C	-0.1022749314	-1.2057180695	 0.2399868408	-0.45569
C	-0.0621123627	-0.0157503095	 0.0767275319	 0.314078
C	 0.019820102	 1.4292592308	-0.1294192819	-0.472837
C	 1.4346729792	 1.9511437477	-0.0558457766	 0.361618
C	 2.1201737192	 2.3945830264	 1.2055783166	-0.35016
C	 1.9609753116	 3.3613043441	 0.0584139103	-0.075283
N	 2.8766622639	 3.207641555	-1.143132311	-0.141195
C	 3.8404499783	 2.1111856251	-0.9186605476	-0.249668
C	 2.4354858194	 1.7688329557	-1.2186852479	-0.080977
H	-0.1473497035	-2.2562307448	 0.3872473449	 0.196956
H	-0.4156175064	 1.6804751581	-1.1065618322	 0.135611
H	-0.5956853261	 1.9442860061	 0.6188198072	 0.13191
H	 1.4324340915	 2.6062035498	 2.0199784442	 0.117723
H	 3.0680966434	 1.9942830085	 1.5462470105	 0.116738
H	 1.4447418985	 4.3081973001	 0.1569590046	 0.104292
H	 4.5449782468	 2.0260410316	-1.7415162215	 0.124438
H	 4.2847725162	 1.9453892401	 0.0555017523	 0.12166
H	 2.1289042999	 1.3375407648	-2.1671143444	 0.100786
56.5166	100.9082	226.9056	281.3902	346.0141	378.5506	422.4151	470.5226	537.1335	620.7889	640.7806	675.499	694.0746	755.7852	801.3459	850.5339	892.498	916.4803	942.0695	962.7329	993.0582	1008.8405	1029.3568	1046.7572	1071.3936	1095.2903	1111.5582	1136.7952	1165.987	1219.861	1249.8764	1276.5898	1328.9278	1347.1206	1405.1761	1460.6859	1484.3664	1526.9619	2238.3273	3010.3352	3047.8247	3124.5416	3134.4343	3153.2512	3186.7554	3204.0274	3216.2872	3506.3415
C#CCC12CC1N1CC21	C#CC[C@]12C[C@H]1N1C[C@@H]21	
InChI=1S/C8H9N/c1-2-3-8-4-6(8)9-5-7(8)9/h1,6-7H,3-5H2	InChI=1S/C8H9N/c1-2-3-8-4-6(8)9-5-7(8)9/h1,6-7H,3-5H2/t6-,7+,8+,9?/m1/s1
