21
gdb 94561	2.64314	1.37041	1.17296	2.6083	78.19	-0.2371	0.0542	0.2913	1157.8817	0.181852	-424.19507	-424.186003	-424.185059	-424.228608	35.505	
O	 0.3552876622	 0.8462696914	-0.851483845	-0.438621
C	 0.0359212952	-0.2344862022	-0.019052439	 0.152349
C	 0.0088217429	-0.0329186084	 1.5222716221	-0.246228
C	-1.3039264785	-0.8608548939	 1.5876406797	-0.238361
C	-1.4517864036	-0.7449914547	 0.0391958453	-0.091971
C	-2.4722504612	 0.2510033231	-0.4484782015	 0.433508
O	-2.2207985027	 1.5259942919	 0.1214469199	-0.482894
C	-2.9847570175	 0.1797693338	-1.8599979246	-0.323582
C	-3.895807403	-0.1690595398	-0.6909813534	-0.337128
H	-0.2867046867	 1.5395180844	-0.6476977987	 0.283343
H	 0.7101994832	-1.047657832	-0.3050291406	 0.080851
H	 0.869996053	-0.3986401246	 2.0868960518	 0.090741
H	-0.1607586859	 1.0167076309	 1.7736187955	 0.107804
H	-1.1469118815	-1.8928514442	 1.9105609903	 0.095528
H	-2.1167528035	-0.4316083072	 2.1767387618	 0.102844
H	-1.631086622	-1.6891045161	-0.4824811493	 0.065025
H	-2.9181658205	 2.1331534224	-0.1441877441	 0.286124
H	-3.168546733	 1.1170247437	-2.376481036	 0.108351
H	-2.6323187573	-0.6172794708	-2.5051946899	 0.124122
H	-4.1703185624	-1.2061631243	-0.5310868881	 0.121311
H	-4.6821196373	 0.5370102967	-0.439571946	 0.106883
73.417	123.4461	177.6139	218.5805	234.5571	278.5786	327.8842	401.2635	424.8636	482.2422	546.9279	593.5458	665.8061	727.528	756.4649	760.799	859.0834	878.6712	917.0641	940.3069	954.1141	960.2251	970.5304	1026.791	1048.6714	1053.8335	1063.7585	1095.5786	1147.0131	1167.8028	1181.6253	1188.4634	1232.3175	1247.2302	1260.1624	1268.0636	1297.6633	1335.6099	1352.8683	1443.5317	1460.7811	1464.3414	1475.3136	1494.3621	1502.0652	3054.911	3061.5005	3063.7594	3073.9949	3110.8256	3120.9973	3127.5359	3127.6947	3202.0604	3217.6076	3753.482	3827.9692
OC1CCC1C1(O)CC1	O[C@H]1CC[C@H]1C1(O)CC1	
InChI=1S/C7H12O2/c8-6-2-1-5(6)7(9)3-4-7/h5-6,8-9H,1-4H2	InChI=1S/C7H12O2/c8-6-2-1-5(6)7(9)3-4-7/h5-6,8-9H,1-4H2/t5-,6+/m1/s1
