20
gdb 6215	3.51064	1.61186	1.5001	1.2681	77.05	-0.23	0.0186	0.2486	983.3882	0.175249	-349.026385	-349.017694	-349.01675	-349.059105	33.153	
C	 0.282083662	 1.5768692936	-0.1236791062	-0.388857
C	-0.0108014679	 0.0902747852	 0.0846717251	 0.080717
O	 0.4382444118	-0.6600807283	-1.0469897233	-0.314108
C	 1.2957462436	-1.7494850974	-0.6509462664	 0.332619
C	 0.6053623287	-3.0775361738	-1.0008536701	-0.405416
C	 2.628948446	-1.6149267135	-1.399234097	-0.404522
C	 1.4408875361	-1.5584007057	 0.8419456903	-0.115446
C	 0.7034151427	-0.5360748021	 1.2539076611	-0.102633
H	 1.3599962948	 1.7494783758	-0.1939245159	 0.117813
H	-0.1872247123	 1.9244410565	-1.0483692175	 0.12475
H	-0.1156239419	 2.1694120782	 0.7073330728	 0.108237
H	-1.1029107268	-0.0360399914	 0.1866012976	 0.076356
H	 0.4242006235	-3.13320519	-2.0785952495	 0.120421
H	 1.2265415964	-3.932211008	-0.7123019878	 0.107429
H	-0.3544028415	-3.157315176	-0.4834667102	 0.116761
H	 3.108452392	-0.6634679989	-1.1557002917	 0.116441
H	 3.3116311122	-2.4287159717	-1.1327729978	 0.107686
H	 2.4579211141	-1.6506703962	-2.4794362372	 0.121193
H	 2.063890326	-2.2013515208	 1.4518866615	 0.098939
H	 0.5992191705	-0.1730161054	 2.2691086724	 0.10162
65.1203	181.8527	202.4019	228.5865	244.3408	297.8433	322.7407	341.5173	399.2496	470.7715	559.928	627.3177	732.4808	776.8371	815.7549	863.1204	876.1306	919.8384	936.4064	958.3298	987.8887	1009.7008	1060.5018	1092.5283	1122.4796	1134.872	1193.0311	1203.9849	1249.8324	1337.3284	1358.1132	1375.8342	1389.0382	1399.5171	1409.3463	1475.3769	1480.2955	1485.6467	1494.7998	1495.1264	1502.7322	1693.5619	2942.1921	3032.7298	3035.9337	3038.5643	3103.5925	3109.0179	3110.8937	3118.2779	3120.4566	3122.0835	3197.0285	3222.3612
CC1OC(C)(C)C=C1	C[C@H]1OC(C)(C)C=C1	
InChI=1S/C7H12O/c1-6-4-5-7(2,3)8-6/h4-6H,1-3H3	InChI=1S/C7H12O/c1-6-4-5-7(2,3)8-6/h4-6H,1-3H3/t6-/m1/s1
