21
gdb 87402	1.95697	1.59917	1.0915	1.9425	79.12	-0.2465	0.0609	0.3074	1212.9626	0.180294	-424.201469	-424.19176	-424.190816	-424.235628	36.561	
C	-0.1402388414	 1.4499187765	-0.263170251	-0.419828
C	-0.0505899058	-0.0265673317	 0.0209498728	-0.011637
O	 1.2522950488	-0.634258672	-0.0977239443	-0.307628
C	 0.6268802226	-0.6348774986	 1.1724021732	 0.393842
C	 1.196014976	-0.0651765336	 2.4869542685	-0.060074
C	 1.0406088937	 1.3977215605	 2.8765894108	-0.414049
C	 0.3213624734	-1.1239211403	 3.2276423997	-0.28382
C	 0.1754170694	-1.9048882682	 1.8894465496	 0.048648
O	-1.0905164183	-2.3820114195	 1.500914316	-0.431149
H	 0.7095698492	 1.9899722231	 0.156857199	 0.126772
H	-0.1526487751	 1.6206323525	-1.3450050318	 0.125326
H	-1.0644436144	 1.8680252845	 0.1502662076	 0.121553
H	-0.8441708795	-0.6288525804	-0.4232699594	 0.105478
H	 2.2527579329	-0.3523926206	 2.5491821314	 0.085617
H	 0.0026438535	 1.7305960464	 2.776393404	 0.116751
H	 1.3373302391	 1.5429247638	 3.9212191279	 0.115077
H	 1.6690719089	 2.0519644358	 2.2644416426	 0.123123
H	 0.7665117723	-1.6436714326	 4.0783916249	 0.095068
H	-0.6458334817	-0.7039583075	 3.5193173221	 0.107172
H	 0.9462279558	-2.6831642316	 1.7955643811	 0.077105
H	-1.2146249495	-3.2614048266	 1.8699438052	 0.286653
78.775	136.897	166.5222	215.2316	227.1803	229.3897	259.3584	275.7724	333.9994	411.6407	465.5582	516.4935	545.7128	564.9779	671.3102	789.1054	831.5424	879.7881	916.9715	932.6828	981.3363	1021.804	1051.7947	1096.5224	1101.0086	1122.3336	1146.1118	1156.706	1169.2112	1192.5766	1210.6339	1246.1394	1273.9629	1300.5929	1356.4205	1378.5929	1404.8007	1411.0021	1437.3435	1468.6307	1484.2215	1489.1201	1497.7667	1503.8048	1525.3962	3001.8557	3031.1625	3033.4565	3039.0161	3060.2633	3094.635	3097.1079	3105.3731	3106.4511	3121.786	3144.7187	3827.4477
CC1OC11C(C)CC1O	C[C@H]1O[C@]21[C@@H](C)C[C@H]2O	
InChI=1S/C7H12O2/c1-4-3-6(8)7(4)5(2)9-7/h4-6,8H,3H2,1-2H3	InChI=1S/C7H12O2/c1-4-3-6(8)7(4)5(2)9-7/h4-6,8H,3H2,1-2H3/t4-,5+,6+,7-/m0/s1
