14
gdb 52031	3.08861	0.80271	0.66114	2.2967	64.22	-0.2783	-0.0703	0.208	1567.0504	0.095824	-473.818121	-473.808241	-473.807296	-473.855699	31.387	
O	-0.3241179162	 0.3157380046	 0.6647733271	-0.224888
C	 0.027183925	 1.1011727536	-0.1717227529	 0.144033
C	 1.259614496	 1.9784721242	-0.0184992593	-0.164592
O	 1.4753982752	 2.6399071976	-1.2542836464	-0.250272
C	 2.5830798594	 3.5006939639	-1.2850358256	-0.084253
C	 2.7297663904	 3.9697241395	-2.7527232442	 0.149033
O	 3.7426203159	 4.4237998534	-3.1951125386	-0.211136
C	 2.4099788715	 4.6695631164	-0.4000527219	 0.27053
N	 2.2444117846	 5.5766646113	 0.296283522	-0.303628
H	-0.5232323253	 1.2589331896	-1.1243968575	 0.105112
H	 1.0846735374	 2.6979440871	 0.7956726113	 0.157969
H	 2.120432007	 1.3540537946	 0.2621872335	 0.139529
H	 3.5162125654	 2.9897717695	-1.0025731614	 0.148799
H	 1.8006119437	 3.8253888946	-3.3400420763	 0.123764
31.3554	51.1203	60.7683	104.0445	109.5877	165.2083	246.7478	292.8794	344.0114	457.0878	523.6992	556.6638	660.8293	745.5989	846.8597	1003.9193	1024.3403	1040.5716	1099.279	1111.7492	1161.0166	1243.882	1262.5882	1320.7805	1365.4435	1387.976	1414.0548	1479.8775	1849.9629	1859.6932	2353.2778	2908.7405	2942.1457	2995.2754	3003.0831	3037.7229
O=CCOC(C=O)C#N	O=CCO[C@@H](C=O)C#N	
InChI=1S/C5H5NO3/c6-3-5(4-8)9-2-1-7/h1,4-5H,2H2	InChI=1S/C5H5NO3/c6-3-5(4-8)9-2-1-7/h1,4-5H,2H2/t5-/m1/s1
