21
gdb 70094	2.40424	1.83904	1.32666	0.3004	88.19	-0.2122	0.0229	0.2351	1053.867	0.183379	-349.944629	-349.936609	-349.935665	-349.976482	33.164	
C	-0.0462440939	 1.5118568549	 0.0432069757	-0.4912
C	 0.0398038433	 0.0052131243	-0.0121489753	 0.261136
C	-0.560273766	-0.8070432164	 1.1124183129	-0.322896
C	 0.9481753648	-0.7904367092	 0.9190320905	-0.128883
C	 1.4946998655	-1.9081968452	 0.0975516123	-0.102907
C	 1.0068613512	-1.878087217	-1.1465691585	-0.15168
C	 0.1142663308	-0.7039789123	-1.3604396634	 0.29802
C	-1.0754251069	-0.7822845567	-2.296564951	-0.307723
C	 0.1232777226	 0.0387573011	-2.6832486971	-0.325248
H	 0.7908260012	 1.9836523546	-0.4825189065	 0.120426
H	-0.9760349803	 1.8811930133	-0.4075100228	 0.114767
H	-0.0294142642	 1.8623082415	 1.0798377054	 0.113125
H	-0.9625786942	-0.2508229887	 1.9538009102	 0.102016
H	-1.087221708	-1.7268893239	 0.880439241	 0.108828
H	 1.5643019024	-0.3051962637	 1.6692897181	 0.080895
H	 2.1672310857	-2.6603270999	 0.4930482056	 0.0927
H	 1.1964732013	-2.6099089159	-1.9243336749	 0.090556
H	-1.2555006557	-1.7171116736	-2.8170028923	 0.1103
H	-1.9778820034	-0.2578198508	-1.9985204467	 0.113236
H	 0.0285246235	 1.1186542584	-2.6635871121	 0.114158
H	 0.7777554705	-0.3347444447	-3.4638350809	 0.110372
121.8275	218.3604	236.7414	261.0149	285.0552	352.9012	396.088	442.3771	529.8914	584.3887	620.6927	742.2815	773.6631	779.6676	802.8568	842.6571	891.9439	898.8922	931.3166	933.9489	951.9191	970.4545	985.6661	1019.4325	1052.4781	1057.8189	1067.0615	1076.0703	1079.9928	1116.211	1132.8444	1191.992	1207.1306	1259.0903	1284.3569	1344.5688	1384.8739	1393.1608	1420.6836	1464.0203	1479.2533	1489.2826	1500.2574	1504.4544	1658.4373	3019.5999	3079.0658	3099.6966	3118.9293	3123.6806	3132.5506	3156.961	3182.5244	3204.0776	3208.2371	3209.2442	3221.3475
CC12CC1C=CC21CC1	C[C@]12C[C@H]1C=CC12CC1	
InChI=1S/C9H12/c1-8-6-7(8)2-3-9(8)4-5-9/h2-3,7H,4-6H2,1H3	InChI=1S/C9H12/c1-8-6-7(8)2-3-9(8)4-5-9/h2-3,7H,4-6H2,1H3/t7-,8+/m1/s1
