19
gdb 70262	3.75597	1.12042	0.98601	1.7166	81.51	-0.2325	0.0352	0.2678	1248.0856	0.158195	-385.845279	-385.836685	-385.835741	-385.878258	33.472	
C	-0.8263927559	 1.479402646	 0.1921289497	-0.479681
C	-0.1194033459	 0.1500841977	 0.0876121227	 0.304419
C	-0.7296813439	-1.1016987389	 0.7068894763	-0.36762
C	 0.5601328374	-0.5274423049	 1.2431408773	 0.087386
O	 1.7748907205	-1.1111288172	 0.8515685269	-0.264061
C	 1.7824723896	-1.1958210641	-0.5819112931	-0.069744
C	 0.8156356058	-0.0874074514	-1.0905288876	-0.310133
C	 3.1453544912	-1.0762929282	-1.0821769263	 0.295049
C	 4.2562367344	-0.9789744251	-1.5286937468	-0.410509
H	-0.1162516717	 2.3118680142	 0.1261207028	 0.119991
H	-1.5630408926	 1.6050500477	-0.6100571206	 0.120074
H	-1.360688214	 1.569002129	 1.143345894	 0.117021
H	-1.6201812444	-0.9619024925	 1.3112234209	 0.109322
H	-0.7064648643	-2.0412689154	 0.1645973343	 0.115225
H	 0.6170185512	-0.1104353539	 2.2420116706	 0.102484
H	 1.3906448236	-2.1797755935	-0.8788559307	 0.105497
H	 0.3121517584	-0.4001682668	-2.0099695223	 0.111304
H	 1.373963177	 0.8292169064	-1.3049723103	 0.116753
H	 5.2427969734	-0.8950468092	-1.9126673379	 0.197223
79.3879	144.5525	207.183	218.916	264.6062	310.2769	356.2247	423.4479	495.2081	528.738	573.1514	616.3119	653.9665	670.1809	725.9744	844.6958	858.1419	866.5299	928.4805	966.8437	999.4811	1012.7461	1033.2362	1040.3997	1062.8833	1102.1952	1125.4563	1157.0002	1204.8152	1242.7424	1291.8997	1311.1886	1338.2092	1379.3763	1406.9584	1418.6897	1483.9508	1489.5029	1495.1081	1506.0287	2243.7244	2985.9492	3021.4286	3051.6436	3081.4639	3096.1826	3098.4483	3128.2226	3180.564	3213.2276	3504.1878
CC12CC1OC(C2)C#C	C[C@]12C[C@H]1O[C@@H](C2)C#C	
InChI=1S/C8H10O/c1-3-6-4-8(2)5-7(8)9-6/h1,6-7H,4-5H2,2H3	InChI=1S/C8H10O/c1-3-6-4-8(2)5-7(8)9-6/h1,6-7H,4-5H2,2H3/t6-,7-,8+/m1/s1
