18
gdb 126627	3.29591	1.05877	0.85151	2.3548	73.68	-0.2365	0.0285	0.265	1369.0623	0.149227	-435.304508	-435.295715	-435.294771	-435.339131	31.575	
C	 0.0820315502	 1.571576642	 0.0938508005	-0.38194
C	 0.069470542	 0.0416788578	 0.0754064715	-0.173632
C	 0.5835121275	-0.5195327051	-1.2541044123	-0.152525
N	 0.6217721968	-1.970750244	-1.2721228719	-0.026249
N	 1.5555574725	-2.6741843505	-0.5540581643	-0.264361
C	 1.2289420846	-3.9233568746	-0.8172741495	 0.036714
N	 0.1565009029	-4.093600445	-1.6463506842	-0.380537
C	-0.1844314369	-2.8471909246	-1.8967367029	 0.455445
O	-1.1944276183	-2.4278931581	-2.6700923199	-0.423295
H	 1.0942987625	 1.9629053119	-0.0557046297	 0.121182
H	-0.5546211844	 1.9871376193	-0.6952251352	 0.117862
H	-0.2834953719	 1.9541987918	 1.050842412	 0.12197
H	 0.6949979275	-0.3561759055	 0.881122696	 0.12912
H	-0.9467423775	-0.3314775345	 0.2490577082	 0.107857
H	-0.055581595	-0.2063698087	-2.0844210108	 0.135351
H	 1.597603348	-0.1586781919	-1.4536187233	 0.13093
H	 1.782247855	-4.7523909617	-0.4016983994	 0.125468
H	-1.6174088955	-3.2205760484	-3.0236940947	 0.32064
40.6464	85.0279	98.8692	237.2971	265.7194	281.9	315.8071	371.4521	414.9274	499.6407	675.7735	705.8034	742.0871	753.4659	801.9468	880.6025	900.6251	905.0873	986.764	1045.0022	1063.94	1125.5349	1152.8876	1225.9643	1233.4814	1288.3554	1300.5246	1323.0477	1332.7592	1354.5263	1408.9161	1417.544	1472.0799	1482.5998	1493.8679	1501.5365	1510.8667	1591.8165	1618.1498	3032.5712	3038.9044	3057.9535	3076.4378	3098.6363	3111.4798	3116.2617	3257.9719	3806.2126
CCCN1N=CN=C1O	CCCn1ncnc1O	
InChI=1S/C5H9N3O/c1-2-3-8-5(9)6-4-7-8/h4H,2-3H2,1H3,(H,6,7,9)	InChI=1S/C5H9N3O/c1-2-3-8-5(9)6-4-7-8/h4H,2-3H2,1H3,(H,6,7,9)
