22
gdb 16065	2.91487	1.66135	1.37367	0.2218	82.15	-0.2392	0.0852	0.3244	1052.5488	0.200456	-313.052425	-313.043766	-313.042822	-313.085219	33.265	
C	-0.2227448973	 1.5232298311	 0.0582455368	-0.371597
C	 0.1109023543	 0.0283663962	-0.0509464456	-0.292294
C	 0.8153866048	-0.508204526	 1.1665092631	 0.372034
C	 2.2936823698	-0.2248222916	 1.4966337221	-0.289538
C	 2.4597039054	-1.6992500527	 1.9836165747	-0.223981
C	 0.9835719682	-1.956732074	 1.6602968342	-0.139613
C	 0.079161464	-0.9939237284	 2.3914426265	-0.037995
C	 0.2789651413	-0.5079064437	 3.8122475324	-0.419573
H	 0.6835223729	 2.1208152632	 0.2045448368	 0.116763
H	-0.7181827445	 1.8869933387	-0.847528045	 0.108406
H	-0.8865471728	 1.7159500754	 0.9075235991	 0.116075
H	-0.8125793692	-0.5418321347	-0.2151542657	 0.092393
H	 0.7360877674	-0.1395369563	-0.9390142214	 0.090348
H	 2.8831044084	-0.0220243341	 0.598192362	 0.09721
H	 2.4960039642	 0.5695472769	 2.2224247917	 0.091253
H	 3.1369890723	-2.2681640276	 1.3427983992	 0.099403
H	 2.7674630946	-1.8503560547	 3.0236297334	 0.093064
H	 0.5956289905	-2.8703898794	 1.2226016098	 0.074834
H	-0.9675262369	-1.1906690165	 2.1597500606	 0.076409
H	 1.3292822318	-0.3156156602	 4.0453518749	 0.11898
H	-0.2716143166	 0.4229071173	 3.9891139362	 0.11343
H	-0.0856638725	-1.2497153088	 4.5318128741	 0.11399
83.6913	141.5746	185.0027	213.2501	252.2132	265.7615	313.1944	357.6483	443.0334	525.5668	642.8729	718.5754	757.7647	784.2537	804.6416	879.6479	923.5256	945.9731	969.5593	984.066	993.8078	1019.8982	1062.4162	1069.9557	1097.1594	1125.7434	1145.4674	1169.1342	1219.562	1233.2531	1242.3266	1256.9498	1287.4254	1325.0159	1346.9293	1361.8309	1407.4597	1415.5674	1462.6131	1476.7071	1482.2835	1498.3227	1502.5342	1506.0451	1507.3427	1511.5824	3006.3677	3030.6893	3031.6409	3040.7129	3042.5423	3048.5551	3084.9323	3085.7981	3099.7945	3103.2803	3103.3663	3106.566	3122.8871	3163.8031
CCC12CCC1C2C	CC[C@]12CC[C@H]1[C@H]2C	
InChI=1S/C8H14/c1-3-8-5-4-7(8)6(8)2/h6-7H,3-5H2,1-2H3	InChI=1S/C8H14/c1-3-8-5-4-7(8)6(8)2/h6-7H,3-5H2,1-2H3/t6-,7+,8-/m1/s1
