14
gdb 27799	2.11857	1.82066	0.98514	4.8668	68.49	-0.2562	-0.0544	0.2018	1118.6174	0.101009	-473.909825	-473.902122	-473.901177	-473.942317	28.471	
C	 0.0613600544	 1.4800464367	 0.0025266512	-0.473109
C	-0.0723722741	-0.0061510512	 0.0109799663	 0.427757
C	-1.2285803967	-0.6988666852	-0.1216972948	-0.3361
C	-1.1055977841	-2.1180439206	-0.0826059922	 0.46208
O	-2.2299708649	-2.8235994463	-0.2111916925	-0.389673
N	 0.014176123	-2.7668111316	 0.0680759689	-0.441405
C	 1.1825678267	-2.0739768053	 0.2023856354	 0.437703
O	 2.2797875306	-2.5199280889	 0.3469194911	-0.33454
O	 1.0949371761	-0.6348351818	 0.1672689069	-0.256494
H	 0.7298159326	 1.7905131109	-0.806976394	 0.161756
H	-0.9096048585	 1.9600390239	-0.1269758008	 0.141869
H	 0.5114862855	 1.8200925762	 0.9407413822	 0.161751
H	-2.185045643	-0.2155130717	-0.2491397381	 0.12667
H	-1.9725519576	-3.7579194851	-0.1634095395	 0.311734
110.7943	142.3667	177.9553	213.7023	287.5483	377.4012	504.2479	530.2867	571.8392	597.2633	631.9176	645.9513	753.9092	785.3483	790.9781	821.4807	973.7964	1011.0693	1032.8058	1064.0009	1139.3503	1187.5101	1270.938	1383.342	1414.0951	1464.7195	1467.9304	1504.2797	1614.576	1692.9639	1889.2587	3046.7923	3107.1079	3148.3839	3251.1802	3730.6364
CC1=CC(O)=NC(=O)O1	Cc1cc(O)nc(=O)o1	
InChI=1S/C5H5NO3/c1-3-2-4(7)6-5(8)9-3/h2H,1H3,(H,6,7,8)	InChI=1S/C5H5NO3/c1-3-2-4(7)6-5(8)9-3/h2H,1H3,(H,6,7,8)
