20
gdb 99884	1.76744	1.55969	1.39155	1.3661	80.64	-0.2425	0.0442	0.2867	1130.027	0.16792	-403.074548	-403.064489	-403.063545	-403.109022	37.676	
C	 0.0351869883	 1.5540367479	 0.1124420999	-0.406129
C	-0.0816478982	 0.0213372216	 0.0310527289	 0.055323
C	 0.6853183358	-0.6027665424	 1.2252384215	-0.066819
O	 0.7385627643	-2.0110153786	 1.1897252412	-0.421476
C	-1.4988324545	-0.3701515035	 0.0790747143	 0.363364
C	-2.6624507296	-0.6751605953	 0.0976740667	-0.515036
N	 0.624581979	-0.4150002399	-1.1945905254	-0.104973
C	 0.194092022	-1.6289318497	-1.8917212135	-0.241053
C	-0.0499371928	-0.2867061039	-2.4828138144	-0.232404
H	 1.0867936588	 1.8441502053	 0.0384111183	 0.125584
H	-0.5142569394	 2.0240537075	-0.7067265994	 0.127273
H	-0.3763939506	 1.9230257976	 1.0556703699	 0.125223
H	 1.6919778935	-0.1603694899	 1.2345990747	 0.093124
H	 0.1785397734	-0.3325944627	 2.1562275711	 0.112928
H	 1.2939125882	-2.2547475596	 0.4423746891	 0.294136
H	-3.6876691425	-0.9511087334	 0.1326862273	 0.19929
H	 0.9991977944	-2.255948099	-2.266189107	 0.11178
H	-0.6718330609	-2.160650777	-1.5078041018	 0.138931
H	-1.0816491061	 0.0577203455	-2.4846206711	 0.124821
H	 0.565721427	 0.0858303395	-3.2963168704	 0.116113
86.2757	104.3249	144.6461	171.3366	220.2253	226.1789	264.876	298.6943	370.7421	392.4232	412.959	462.5207	579.6662	618.9392	625.5094	654.0179	661.1614	788.6786	830.2128	898.7187	919.58	974.523	993.2907	1035.6441	1091.9136	1111.975	1119.1143	1129.4145	1157.6951	1175.7265	1190.8523	1208.3126	1266.9295	1309.1665	1390.0745	1402.9208	1420.462	1480.5568	1482.7648	1489.7963	1494.9463	1510.143	2219.6227	3000.4852	3047.4006	3091.8406	3105.0547	3107.9305	3126.9757	3128.0372	3188.3162	3202.1409	3498.5245	3823.9545
CC(CO)(C#C)N1CC1	C[C@@](CO)(C#C)N1CC1	
InChI=1S/C7H11NO/c1-3-7(2,6-9)8-4-5-8/h1,9H,4-6H2,2H3	InChI=1S/C7H11NO/c1-3-7(2,6-9)8-4-5-8/h1,9H,4-6H2,2H3/t7-/m0/s1
