14
gdb 76297	2.52081	1.62788	1.11925	1.2684	59.13	-0.2656	-0.0377	0.2279	1025.0609	0.100854	-511.020082	-511.011947	-511.011003	-511.052993	29.768	
O	-0.1652223886	 1.419120471	-0.3738089481	-0.411612
C	-0.0310603351	 0.0727386855	 0.0337978309	-0.038885
C	-1.4098009359	-0.609083888	-0.021905543	 0.039581
O	-2.4949739618	 0.1875955296	 0.3287818289	-0.423111
C	-1.4845138121	-1.1139572007	-1.4649273778	 0.391487
O	-2.4923949537	-1.3213791177	-2.0912262391	-0.35209
N	-0.1772635932	-1.2818161112	-1.8945287376	-0.359557
C	 0.7617521142	-0.6712216203	-1.064794531	 0.397374
O	 1.9514583911	-0.6510954235	-1.2437386724	-0.343491
H	 0.7229626297	 1.7891136357	-0.4420764416	 0.302639
H	 0.4653351613	-0.0200681211	 1.0059945845	 0.104601
H	-1.3542756253	-1.5114810776	 0.6132900517	 0.110961
H	-3.1804505175	 0.0271233909	-0.3345962402	 0.303341
H	 0.0638439069	-1.6731742327	-2.7953533251	 0.278761
72.3408	137.2613	243.0208	251.4888	263.6136	290.1237	365.3189	387.4979	503.7805	543.919	625.5799	650.7147	675.8986	747.8447	786.3935	849.0145	904.5914	970.8529	1107.15	1152.2409	1193.2961	1198.925	1267.0457	1298.2585	1332.894	1350.9424	1374.8507	1417.5527	1431.1704	1836.9135	1884.0358	2947.9244	3051.3982	3604.7156	3751.7555	3799.2475
OC1C(O)C(=O)NC1=O	O[C@H]1[C@@H](O)C(=O)NC1=O	
InChI=1S/C4H5NO4/c6-1-2(7)4(9)5-3(1)8/h1-2,6-7H,(H,5,8,9)	InChI=1S/C4H5NO4/c6-1-2(7)4(9)5-3(1)8/h1-2,6-7H,(H,5,8,9)/t1-,2+
