19
gdb 111702	2.14763	1.45045	1.04935	1.8002	83.86	-0.2284	0.0159	0.2444	1224.4218	0.157385	-385.815116	-385.806077	-385.805133	-385.849095	34.051	
C	-0.2190296464	 1.4470879186	-0.117498969	-0.376833
C	 0.1799518621	-0.0180507217	 0.0940919411	-0.2088
C	 0.804220901	-0.6247158256	-1.1448059709	-0.067632
C	 0.9808830329	-2.1033206876	-1.4113371133	-0.225578
C	-0.2532983686	-2.8773458495	-0.9701806254	-0.102828
O	-1.1377754724	-1.9728785332	-1.6838060201	-0.322134
C	-0.0079046835	-1.2764216562	-2.2409305727	 0.278677
C	-0.0385620967	-0.8855343408	-3.6058886001	 0.24025
C	-0.0651626896	-0.5409241677	-4.7585775165	-0.411392
H	 0.6476173017	 2.0618356706	-0.3848089036	 0.112888
H	-0.9535337624	 1.5389109771	-0.9237592446	 0.130257
H	-0.6602028004	 1.8695776933	 0.7903037758	 0.112572
H	 0.8905100609	-0.0954839069	 0.9268847933	 0.096454
H	-0.7049707374	-0.5960186287	 0.3756809416	 0.118042
H	 1.6339793678	-0.052751131	-1.5574502213	 0.098436
H	 1.9232356705	-2.5392148294	-1.7143344219	 0.110404
H	-0.3089190788	-3.8825268751	-1.4017511109	 0.116819
H	-0.4779949678	-2.9206851175	 0.1012950773	 0.107832
H	-0.0918576429	-0.2401361088	-5.7766223288	 0.192567
62.489	99.8754	158.3861	204.643	207.0183	273.2944	326.9574	434.2254	489.3297	499.4281	535.1058	566.2422	646.7997	688.0702	769.7472	792.7721	826.4317	884.23	932.7136	964.9929	984.58	997.3083	1012.5322	1047.7286	1093.7715	1125.8685	1140.9672	1157.8918	1182.161	1250.8963	1303.7205	1316.6195	1337.3273	1356.9893	1413.0626	1458.0714	1478.6246	1500.6276	1504.4853	1518.8353	2231.8461	3027.1687	3031.8164	3034.0934	3078.1611	3081.6075	3104.4415	3110.6046	3131.1668	3206.1207	3502.0371
CCC1C2COC12C#C	CC[C@H]1[C@H]2CO[C@@]12C#C	
InChI=1S/C8H10O/c1-3-6-7-5-9-8(6,7)4-2/h2,6-7H,3,5H2,1H3	InChI=1S/C8H10O/c1-3-6-7-5-9-8(6,7)4-2/h2,6-7H,3,5H2,1H3/t6-,7+,8-/m0/s1
