21
gdb 32915	4.39504	0.80876	0.7191	1.3927	89.	-0.1771	0.0534	0.2305	1655.9525	0.183132	-383.309307	-383.299447	-383.298503	-383.344976	35.908	
C	 0.352348641	 1.553348318	-0.1337811202	-0.390762
C	 0.7112392465	 0.0717033091	-0.1672247262	-0.11653
N	-0.0183770075	-0.6155566719	-1.2470108675	-0.404133
C	 0.2666531331	-1.9859064593	-1.4039003932	 0.292445
C	-0.3284495971	-3.1339639805	-0.9304197948	-0.219557
C	 0.3971949049	-4.239238677	-1.4651962068	-0.212013
C	 1.4224069025	-3.7449912706	-2.2391351596	 0.300696
C	 2.4869691242	-4.4401479338	-3.0209326846	-0.504396
N	 1.328476528	-2.3705762182	-2.1932035143	-0.311168
H	 0.5725183749	 2.0273280005	-1.0947398078	 0.124215
H	-0.7146375968	 1.6958866981	 0.0744793557	 0.112912
H	 0.9135383343	 2.0707521127	 0.6499093432	 0.117061
H	 1.7825220685	-0.0500393788	-0.3625644263	 0.103774
H	 0.5196115405	-0.3890535384	 0.8160646852	 0.091009
H	-1.0155254753	-0.4866087269	-1.1177993189	 0.225908
H	-1.1813872188	-3.1737656699	-0.2696102203	 0.078474
H	 0.1980536344	-5.2866527288	-1.2926896113	 0.08312
H	 2.4438982532	-4.201203229	-4.0916504584	 0.12127
H	 3.4957914852	-4.1834637283	-2.6722619394	 0.121919
H	 2.3703230675	-5.5219943712	-2.9219283547	 0.134574
H	 1.8843971569	-1.7228587358	-2.7252638598	 0.251181
46.1684	65.7688	100.4828	119.3283	222.8715	244.9143	277.5164	328.9446	377.6902	424.2948	486.5328	630.2248	641.9083	677.3955	707.2375	770.8913	783.1757	812.5961	818.3744	918.03	984.7315	1003.1649	1025.3594	1059.8611	1062.9653	1071.0158	1134.091	1157.6658	1213.6993	1259.2758	1286.2126	1303.7995	1370.3008	1406.9263	1412.1727	1417.7498	1437.212	1479.4186	1485.523	1497.1783	1501.3729	1505.0539	1522.4794	1555.046	1637.5903	2964.9074	3009.9431	3032.4116	3050.9383	3056.2338	3099.6624	3118.7302	3118.9485	3232.7771	3248.2264	3537.9032	3670.6248
CCNC1=CC=C(C)N1	CCNc1ccc(C)[nH]1	
InChI=1S/C7H12N2/c1-3-8-7-5-4-6(2)9-7/h4-5,8-9H,3H2,1-2H3	InChI=1S/C7H12N2/c1-3-8-7-5-4-6(2)9-7/h4-5,8-9H,3H2,1-2H3
