16
gdb 49548	3.89043	1.37057	1.27869	0.9377	69.17	-0.2555	-0.0397	0.2159	988.9313	0.125989	-437.882252	-437.875248	-437.874304	-437.913927	26.879	
O	-0.7935122081	 1.1178112849	-0.2356170031	-0.253196
C	 0.2869956352	 0.9290658883	 0.2719720808	 0.123192
C	 1.4487236483	 1.8734212161	 0.2113451426	-0.117301
C	 1.3329890643	 3.0154040523	-0.8379139995	 0.118593
C	 0.5282403842	 3.8283368032	 0.1980172902	-0.261374
C	 1.3760664961	 3.0698118889	 1.2575890341	-0.010006
N	 2.7045610599	 3.6785025928	 1.3311155683	-0.256552
C	 3.2132013056	 3.9031680235	 0.1899884663	 0.109379
O	 2.6393877963	 3.6052942091	-1.0012396552	-0.238664
H	 0.4845818637	 0.002190241	 0.854975697	 0.090323
H	 2.3893832953	 1.3172224087	 0.2398159466	 0.099628
H	 0.9427414884	 2.8139679725	-1.8331093407	 0.107394
H	 0.6220466262	 4.9152620929	 0.1768208309	 0.115023
H	-0.5152894147	 3.5180717515	 0.1910651798	 0.146427
H	 0.9799378605	 2.8813326418	 2.2544907978	 0.089847
H	 4.1884768288	 4.3645530325	 0.0632373141	 0.137289
79.1903	186.7983	232.5774	309.4144	358.4269	427.7262	493.2296	602.9434	667.8669	772.7314	814.0711	859.911	877.1237	904.2043	937.6891	957.4719	980.6801	1005.7907	1024.8126	1055.0844	1122.2117	1138.9197	1151.84	1157.8704	1216.6249	1247.3196	1266.6112	1311.8155	1312.4527	1363.5885	1388.1218	1426.2423	1479.849	1692.3056	1804.3072	2886.5373	3081.388	3088.5241	3118.6483	3146.0198	3166.2909	3187.3785
O=CC1C2CC1N=CO2	O=C[C@H]1[C@H]2C[C@@H]1[N][CH]O2	
InChI=1S/C6H7NO2/c8-2-4-5-1-6(4)9-3-7-5/h2-6H,1H2	InChI=1S/C6H7NO2/c8-2-4-5-1-6(4)9-3-7-5/h2-6H,1H2/t4-,5+,6-/m1/s1
