14
gdb 124157	6.45215	0.76518	0.687	3.9812	78.63	-0.2186	-0.0263	0.1922	1564.5423	0.101509	-432.891628	-432.883018	-432.882074	-432.9271	29.841	
C	-0.0360929319	 1.4493752536	 0.0089478194	-0.509808
C	 0.0148189254	-0.0024769751	 0.0062627243	 0.213575
C	 0.0739249319	-1.206707984	 0.0040852284	-0.030094
C	 0.0942025807	-2.6166982467	 0.0013930573	 0.22853
N	 1.1670577256	-3.3642903248	 0.0032860298	-0.26473
N	 0.6840303028	-4.6445785968	-0.0008555012	-0.29786
C	-0.6964075862	-4.7427224657	-0.0051952507	 0.44235
O	-1.4058993867	-5.7228928341	-0.0091790533	-0.420431
N	-1.0512298981	-3.3913295554	-0.0037265825	-0.412242
H	 0.9740685323	 1.8719148467	 0.0099707133	 0.165506
H	-0.5580590387	 1.8294148312	-0.8760117756	 0.159612
H	-0.5584854585	 1.8261482453	 0.8950547209	 0.159621
H	 1.321154658	-5.4218387269	 6.3948*^-6	 0.28455
H	-2.0009548066	-3.0628037474	-0.0060234849	 0.281421
12.4034	85.8573	92.4975	197.5974	304.1528	308.3071	421.6133	440.8628	471.8568	494.814	518.3582	577.6931	725.0429	756.2118	759.1391	946.8989	1010.2033	1049.7483	1050.0914	1060.5684	1100.9191	1269.4359	1274.2133	1386.1345	1411.4324	1460.0415	1471.3935	1473.2857	1593.4712	1860.5778	2365.4518	3030.5591	3092.1082	3099.3301	3692.285	3692.9282
CC#CC1=NNC(=O)N1	CC#Cc1n[nH]c(=O)[nH]1	
InChI=1S/C5H5N3O/c1-2-3-4-6-5(9)8-7-4/h1H3,(H2,6,7,8,9)	InChI=1S/C5H5N3O/c1-2-3-4-6-5(9)8-7-4/h1H3,(H2,6,7,8,9)
