17
gdb 15355	4.25188	1.20009	1.07954	2.848	71.27	-0.2252	0.0516	0.2768	1120.8967	0.140033	-363.778337	-363.769523	-363.768579	-363.812015	31.741	
O	-0.0334966697	 1.5749520232	 0.0537762155	-0.402374
C	-0.0242179698	 0.1832011982	 0.3405208412	-0.117022
C	-1.3736561193	-0.4447106655	 0.0531634615	 0.00612
C	-2.59274846	 0.3792081011	-0.1776599494	-0.240337
N	-2.0351559938	-0.4383819858	-1.252595375	-0.089928
C	-1.3935735657	 0.2580500017	-2.3752816716	-0.328301
C	-2.3780551634	 0.6300996022	-3.3875397211	 0.325278
C	-3.1815800644	 0.955598867	-4.2192848911	-0.441955
H	 0.8631994817	 1.9085340035	 0.1533715534	 0.292227
H	 0.7531228388	-0.3341532876	-0.2452264628	 0.097878
H	 0.2029189404	 0.0049787964	 1.4035955654	 0.099813
H	-1.483109089	-1.3988093789	 0.5681089548	 0.093707
H	-3.5583132558	 0.0611586839	 0.2062720828	 0.111939
H	-2.444365158	 1.4546271681	-0.2273139928	 0.134332
H	-0.8381136247	 1.1530688368	-2.0608162179	 0.139693
H	-0.6653758176	-0.4336024866	-2.8189539326	 0.125818
H	-3.8924328295	 1.2373891822	-4.9557166	 0.193109
55.9418	105.7094	130.2563	211.7578	241.7124	254.2133	334.5853	361.2428	434.6526	505.9848	601.5777	618.8425	652.7399	748.6568	819.9179	920.6632	945.0557	991.914	1004.8117	1032.0969	1061.5582	1105.5815	1123.5357	1157.3091	1171.0928	1230.3674	1274.7977	1278.8903	1331.2601	1378.4434	1418.4334	1457.1995	1488.4492	1510.9232	1515.1165	2242.277	2965.6723	2991.5134	3003.8891	3038.5219	3106.9028	3110.2771	3196.7347	3507.491	3828.9377
OCC1CN1CC#C	OC[C@H]1CN1CC#C	
InChI=1S/C6H9NO/c1-2-3-7-4-6(7)5-8/h1,6,8H,3-5H2	InChI=1S/C6H9NO/c1-2-3-7-4-6(7)5-8/h1,6,8H,3-5H2/t6-,7?/m1/s1
