15
gdb 110171	2.5548	1.24504	0.91452	2.8382	68.84	-0.2769	-0.0162	0.2608	1240.0316	0.111356	-453.929898	-453.921162	-453.920218	-453.964102	30.363	
C	-0.0606611752	 1.3477063159	 0.1742156167	-0.255099
O	-0.1685350431	 0.0062845544	-0.2930871071	-0.24069
C	-1.3940003364	-0.5762766259	-0.0058970449	-0.019426
C	-1.4662460946	-2.0652126815	-0.4420426584	-0.039968
O	-1.7503147692	-2.4612484173	 0.93430767	-0.252874
C	-1.6017777969	-1.1590382291	 1.3922513902	 0.431194
N	-1.6107000106	-0.6901858518	 2.5495997091	-0.536962
C	-2.5218733925	-2.4559887629	-1.3663613944	 0.286465
N	-3.3532915572	-2.7488023599	-2.1127992593	-0.307561
H	 0.9289190848	 1.6995176419	-0.1213522182	 0.140227
H	-0.825996924	 1.9867664231	-0.2890948189	 0.118853
H	-0.1619673376	 1.398424145	 1.2638813443	 0.153409
H	-2.2422380792	 0.0321100302	-0.3497173343	 0.122904
H	-0.4960543994	-2.4476777606	-0.7677379924	 0.156594
H	-1.7453175488	-1.4099890915	 3.2617917777	 0.242933
68.8185	92.3121	152.9832	162.484	195.0014	255.6546	311.712	386.271	430.6946	507.3673	577.6344	678.7692	726.7413	869.2038	886.2518	954.7101	1001.8177	1011.159	1027.8741	1055.4339	1169.6243	1182.6862	1185.4317	1230.0305	1245.9914	1275.4164	1349.9269	1386.9787	1480.6194	1487.1851	1510.6576	1839.6603	2366.6243	3002.0515	3016.7876	3079.5875	3097.6453	3140.834	3479.1743
COC1C(OC1=N)C#N	CO[C@H]1[C@@H](O[C]1[NH])C#N	
InChI=1S/C5H6N2O2/c1-8-4-3(2-6)9-5(4)7/h3-4,7H,1H3	InChI=1S/C5H6N2O2/c1-8-4-3(2-6)9-5(4)7/h3-4,7H,1H3/t3-,4-/m0/s1
