15
gdb 19246	3.31823	1.97734	1.58244	2.8489	66.51	-0.239	0.0451	0.2841	832.5025	0.118589	-362.574611	-362.567372	-362.566427	-362.605957	27.939	
O	-0.0411633243	 1.3882349922	 0.22256531	-0.424794
C	 0.0127685051	 0.0133578026	 0.0407322123	 0.147851
C	-1.3220629746	-0.7448601695	 0.0601578134	-0.09204
N	-2.0960249511	-0.1262226584	-1.0446770598	-0.347108
C	-1.1376482359	-1.2148363148	-1.3373444023	-0.048184
C	 0.2474453305	-0.5575095174	-1.4473940819	-0.271854
C	 0.4813163887	 0.3900765074	-2.5144170848	 0.350162
C	 0.6767028673	 1.1948584968	-3.3862669919	-0.445238
H	-0.760513058	 1.7015850436	-0.3437997393	 0.29631
H	 0.7580907683	-0.3849508106	 0.7313463069	 0.097524
H	-1.8218161363	-1.2098965626	 0.9007271079	 0.099436
H	-3.0322190523	-0.5264938591	-1.03358051	 0.237243
H	-1.4621284633	-2.1328613099	-1.8102171785	 0.103892
H	 1.0378179121	-1.3139373193	-1.4180711968	 0.102997
H	 0.8480688838	 1.901305509	-4.1600785051	 0.193802
109.4932	131.6786	208.7266	326.7089	368.706	475.6549	532.569	565.6069	623.6964	626.4546	654.1087	716.0544	781.2065	842.8606	845.2565	901.6641	948.1804	975.5637	1029.3488	1067.4552	1082.1628	1101.0731	1141.9478	1163.3978	1225.2858	1249.5779	1313.818	1331.1112	1347.3173	1374.1239	1452.4007	2234.5732	3060.2635	3103.5032	3189.2587	3203.6291	3495.717	3504.6147	3750.0027
OC1C2NC2C1C#C	O[C@H]1[C@H]2N[C@H]2[C@H]1C#C	
InChI=1S/C6H7NO/c1-2-3-4-5(7-4)6(3)8/h1,3-8H	InChI=1S/C6H7NO/c1-2-3-4-5(7-4)6(3)8/h1,3-8H/t3-,4+,5+,6-/m1/s1
