19
gdb 117576	2.94442	0.96669	0.80152	3.5095	76.46	-0.2586	0.0272	0.2858	1467.5932	0.158519	-419.176362	-419.16656	-419.165616	-419.212054	34.008	
C	-0.0898090302	 1.3816358348	 0.1877947065	-0.233854
O	-0.034560135	-0.0173862026	 0.013080112	-0.231643
C	-1.2968735402	-0.6280199348	 0.0507167818	-0.050785
C	-1.0925762682	-2.1493337349	-0.060944176	-0.193874
C	-0.3445740291	-2.6501205593	 1.0957121369	 0.285312
N	 0.1979433966	-3.0690944163	 2.0263265986	-0.335588
C	-2.4279696105	-2.8737860143	-0.2255247823	 0.007833
C	-2.6186624111	-4.2904160177	 0.1621936382	-0.256301
N	-3.2775975641	-3.21102164	 0.9222386502	-0.317197
H	 0.9364127331	 1.7523644632	 0.1485628236	 0.13776
H	-0.6765651781	 1.8674484325	-0.6071038214	 0.108918
H	-0.5312544309	 1.6512252054	 1.1589965042	 0.114885
H	-1.8332312609	-0.3861901155	 0.9820243041	 0.109943
H	-1.9269201098	-0.2954255908	-0.790926216	 0.098946
H	-0.4809019662	-2.3259193913	-0.9551597842	 0.142671
H	-2.9875769116	-2.4974378552	-1.0798550203	 0.104676
H	-3.2877050975	-4.9194015498	-0.4173792946	 0.124509
H	-1.7850236228	-4.809741303	 0.6260582764	 0.138891
H	-2.7691880037	-3.0596950804	 1.7921613321	 0.244899
61.7758	76.491	96.4508	134.7055	160.333	210.7979	237.3929	301.7621	340.6396	410.8635	439.7048	601.0686	639.3557	786.1103	835.4198	863.6703	940.7393	980.1145	988.4344	1021.5339	1079.1965	1101.2459	1133.0197	1150.969	1166.5682	1182.9208	1191.9785	1228.3687	1246.0646	1266.6491	1282.6385	1313.3297	1352.8002	1406.8232	1417.5809	1480.5912	1486.5898	1501.9695	1512.7102	1526.3957	2357.2247	2963.4375	2980.6119	3001.1309	3027.9817	3039.5734	3117.1385	3124.7702	3126.5115	3205.7426	3481.852
COCC(C#N)C1CN1	COC[C@@H](C#N)[C@H]1CN1	
InChI=1S/C6H10N2O/c1-9-4-5(2-7)6-3-8-6/h5-6,8H,3-4H2,1H3	InChI=1S/C6H10N2O/c1-9-4-5(2-7)6-3-8-6/h5-6,8H,3-4H2,1H3/t5-,6-/m1/s1
