15
gdb 28071	6.84739	0.82112	0.7452	3.2865	72.7	-0.1955	0.0125	0.208	1445.4354	0.112693	-453.956222	-453.947846	-453.946902	-453.989738	30.528	
N	 0.0519910279	 1.3156277485	 0.3436549366	-0.592988
C	-0.0653845254	-0.0356746111	 0.0717851639	 0.428855
C	-1.1293385211	-0.885911922	-0.0097461308	-0.414569
C	-0.5480360839	-2.1788172604	-0.2175786988	 0.349842
O	-1.2946745714	-3.311463001	-0.379042372	-0.212372
C	-0.8135668748	-4.46684009	 0.1506328721	 0.105842
N	-1.3385150996	-5.5629290634	-0.1782851227	-0.429161
C	 0.8025001677	-2.0339904302	-0.255467844	-0.168293
O	 1.1033078437	-0.6997561976	-0.0681259616	-0.17681
H	 0.8742577656	 1.7319394654	-0.073937072	 0.259513
H	-0.780166649	 1.8414473291	 0.1173363223	 0.260635
H	-2.1770902889	-0.650882887	 0.0703308481	 0.114503
H	 0.0090842827	-4.2961037095	 0.8553888689	 0.102061
H	-0.8980019772	-6.3248522554	 0.3333271589	 0.234157
H	 1.6334921436	-2.6913369354	-0.4335772689	 0.138786
56.882	110.567	167.6687	189.8411	242.4001	331.3194	405.0791	442.8177	502.9847	603.6331	637.2455	668.6619	693.8066	724.2323	759.1398	794.4462	834.2674	960.7207	1004.0323	1054.9885	1055.3459	1088.4251	1151.9985	1204.5675	1255.7386	1277.3411	1357.6787	1401.1295	1468.5887	1605.5669	1633.7079	1674.6633	1746.3382	3052.9015	3277.1301	3303.1983	3519.5338	3552.5458	3655.3453
NC1=CC(OC=N)=CO1	Nc1cc(O[CH][NH])co1	
InChI=1S/C5H6N2O2/c6-3-9-4-1-5(7)8-2-4/h1-3,6H,7H2	InChI=1S/C5H6N2O2/c6-3-9-4-1-5(7)8-2-4/h1-3,6H,7H2
