20
gdb 105639	1.85959	1.52598	1.38294	4.2695	79.59	-0.2306	0.029	0.2597	1128.6103	0.170998	-399.309563	-399.299739	-399.298795	-399.344137	35.656	
C	 0.0231541041	 1.5166841869	-0.0609616779	-0.340854
N	 0.0588551254	 0.0749930636	 0.1127048028	-0.100088
C	-1.2120626023	-0.6387655831	 0.3477759926	-0.160296
C	-0.4803489443	-1.5810350863	 1.3294418218	-0.293784
C	 0.6797625553	-0.5337653253	 1.3204285965	 0.178557
C	 2.1013562569	-1.0600922074	 1.0846689503	-0.218761
N	 2.9888139559	 0.0307243065	 0.6928974367	-0.503725
C	 0.6320794681	 0.3351994943	 2.5108978575	 0.273682
N	 0.553503747	 1.0226402969	 3.4374913677	-0.35365
H	 1.0413703899	 1.9125289105	-0.0764822243	 0.13903
H	-0.4542977248	 1.7451144934	-1.0195643582	 0.120087
H	-0.5325493308	 2.0358159219	 0.7376632595	 0.119261
H	-1.9699027729	-0.0193418252	 0.8513694458	 0.103999
H	-1.6563564198	-1.0800078706	-0.5500211465	 0.107447
H	-0.9578902575	-1.7666437648	 2.2898776061	 0.129077
H	-0.1692021064	-2.5260628889	 0.8809808841	 0.116814
H	 2.4725688425	-1.5035222335	 2.0152557117	 0.1172
H	 2.0243736828	-1.8653735266	 0.3377615506	 0.09053
H	 3.958852644	-0.2392400834	 0.808052775	 0.236869
H	 2.854892577	 0.2397514211	-0.290813582	 0.238606
82.2062	104.3342	133.6331	170.8872	190.9047	223.3592	243.9651	286.3112	336.7862	404.6534	425.3143	522.0072	602.3971	662.3814	705.5107	774.3078	846.4737	872.8229	961.4174	969.0239	985.5759	1010.7117	1080.9371	1113.7587	1140.5313	1166.8059	1185.5153	1202.3723	1223.7538	1240.769	1260.9329	1275.1374	1333.2942	1352.5233	1412.6102	1447.4714	1483.0751	1487.0107	1488.3995	1504.0692	1524.3233	1654.515	2341.9166	2970.5035	2978.4961	2987.9252	3066.1546	3070.0088	3070.8785	3090.9556	3123.7754	3158.2938	3513.71	3594.0995
CN1CCC1(CN)C#N	CN1CC[C@]1(CN)C#N	
InChI=1S/C6H11N3/c1-9-3-2-6(9,4-7)5-8/h2-4,7H2,1H3	InChI=1S/C6H11N3/c1-9-3-2-6(9,4-7)5-8/h2-4,7H2,1H3/t6-/m0/s1
