27
gdb 119972	2.75488	0.76683	0.71011	0.0444	96.96	-0.2559	0.0776	0.3335	1831.696	0.250682	-353.559116	-353.547531	-353.546586	-353.596491	42.134	
C	 0.9453614187	-0.3155751802	 3.6210650198	-0.381641
C	 0.5438311025	-1.4627508454	 2.6905241443	-0.158396
C	-0.8989376352	-1.3458925666	 2.1777658811	-0.187129
C	-1.2724108523	-2.458374153	 1.2165807203	-0.045823
C	-1.8498791021	-3.7902462545	 1.6624362553	-0.015173
C	-2.1140273566	-4.1344133138	 3.1138206718	-0.40938
C	-2.7044542729	-2.8154645401	 0.8720446773	-0.033661
C	-3.9065215065	-2.0959467708	 1.4552221334	-0.190028
C	-5.2012288324	-2.9064571769	 1.3128080509	-0.375887
H	 1.9790980496	-0.4212985594	 3.9651393664	 0.10951
H	 0.8606037321	 0.6529215337	 3.1152022031	 0.112336
H	 0.3021805836	-0.280208676	 4.5077185002	 0.11175
H	 1.2281748577	-1.4960391319	 1.832334604	 0.092475
H	 0.665558124	-2.421542134	 3.2101074457	 0.098667
H	-1.5805393902	-1.319287904	 3.0349034956	 0.090011
H	-1.0203780783	-0.3772673101	 1.6720935464	 0.090834
H	-0.577966106	-2.5259005958	 0.380528827	 0.072927
H	-1.4987377402	-4.6472795039	 1.0919122865	 0.075644
H	-2.478256903	-3.2840765499	 3.6951415894	 0.11615
H	-2.864786772	-4.9286495391	 3.195500431	 0.114772
H	-1.2016246434	-4.4956127363	 3.6020097119	 0.114908
H	-2.8620577908	-3.0951286365	-0.1685970634	 0.072341
H	-3.7457799833	-1.85639631	 2.5109616422	 0.093313
H	-4.0267785746	-1.1302648252	 0.9459851713	 0.094243
H	-6.060860881	-2.3570782379	 1.7099682321	 0.107166
H	-5.4087178966	-3.1349312485	 0.261425509	 0.112244
H	-5.1328105406	-3.8588595637	 1.8486845675	 0.117827
59.3419	76.8174	85.8666	89.5205	148.7763	198.8494	225.1268	229.963	250.9646	283.0443	289.9244	360.8828	486.4152	536.1377	550.0531	732.2891	753.0093	767.4775	812.4187	827.9827	884.2476	904.2448	950.2388	967.5137	997.1094	1045.1778	1056.9615	1061.4606	1075.817	1098.1311	1128.2416	1143.6311	1159.473	1193.0411	1198.2361	1262.6662	1273.6182	1291.1189	1301.7314	1327.9585	1337.9207	1376.3556	1397.6791	1402.7656	1410.55	1412.5964	1420.3017	1460.173	1477.1345	1488.9031	1492.9675	1497.4851	1499.1072	1501.6954	1502.6654	1509.795	1514.6804	3006.1586	3017.8387	3019.2672	3027.2694	3029.3193	3030.4962	3045.2279	3063.7962	3072.0205	3080.922	3093.6377	3097.0876	3099.3236	3103.1017	3105.1799	3109.2419	3115.6078	3132.7145
CCCC1C(C)C1CC	CCC[C@H]1[C@@H](C)[C@H]1CC	
InChI=1S/C9H18/c1-4-6-9-7(3)8(9)5-2/h7-9H,4-6H2,1-3H3	InChI=1S/C9H18/c1-4-6-9-7(3)8(9)5-2/h7-9H,4-6H2,1-3H3/t7-,8+,9-/m0/s1
