14
gdb 128240	2.20906	1.58798	0.93123	5.5026	71.63	-0.2316	-0.0569	0.1746	1174.7176	0.101543	-432.857858	-432.84974	-432.848796	-432.890985	28.976	
C	 0.0337288821	 1.3777904916	-0.0495947049	-0.337085
N	-0.0077380974	-0.0546443475	 0.182779837	-0.405746
C	-1.2109527815	-0.7092387178	 0.0705006909	 0.136958
C	-2.4906183683	-0.2313366885	 0.040229559	-0.016971
O	-3.3670085666	-1.2655033815	-0.0155616935	-0.150524
N	-2.6960400758	-2.4484696378	-0.0375889403	-0.189051
C	-1.414139887	-2.1280205507	 0.0150368035	 0.230495
C	-0.391460437	-3.1137374577	 0.0014404237	 0.24838
N	 0.500986057	-3.85029534	-0.0142592396	-0.339083
H	 1.0631574306	 1.7257676646	 0.0509331279	 0.141623
H	-0.3425660897	 1.6660017772	-1.0431646818	 0.123946
H	-0.5681972449	 1.8931745726	 0.7070558939	 0.140248
H	 0.7820562584	-0.5728180771	-0.1723063894	 0.259205
H	-2.9229065601	 0.7541090025	 0.0586806237	 0.157604
95.4512	117.1657	167.6125	191.0094	223.5223	341.9729	397.1599	487.8716	528.4968	557.6315	607.7706	623.0363	724.9675	752.3094	762.4382	933.1733	1012.1885	1077.6353	1126.7972	1151.6864	1172.2696	1230.2842	1316.8914	1396.7878	1453.6401	1467.1545	1485.2365	1514.9483	1543.8517	1667.7483	2354.5515	2988.1036	3066.7714	3133.729	3293.1823	3607.2821
CNC1=CON=C1C#N	CNc1conc1C#N	
InChI=1S/C5H5N3O/c1-7-5-3-9-8-4(5)2-6/h3,7H,1H3	InChI=1S/C5H5N3O/c1-7-5-3-9-8-4(5)2-6/h3,7H,1H3
