19
gdb 40934	3.77538	1.24855	1.14005	1.241	74.11	-0.2455	0.0623	0.3078	1111.9928	0.159988	-422.96019	-422.952527	-422.951583	-422.993157	29.122	
C	-0.1785545096	 1.3404132808	-0.2214639729	-0.0855
O	 1.0584243047	 1.7306945261	 0.4192490956	-0.291907
C	 1.4759646067	 0.356609849	 0.5529871691	 0.125421
C	 1.1164827551	-0.2446884084	 1.9288521848	-0.325762
C	-0.2395670045	-0.7455992894	 1.3509503697	 0.301424
C	-0.6356887321	-2.2325173337	 1.4668221516	-0.13556
O	-1.9199587364	-1.9023622044	 2.0275021929	-0.273495
C	-1.6053283771	-0.4953907046	 2.0206300194	-0.133227
C	 0.1307216508	-0.1552750981	-0.0367890962	-0.16553
H	-1.0615556803	 1.7395321881	 0.2934549049	 0.10372
H	-0.2036266064	 1.6670629231	-1.26880777	 0.104362
H	 2.4701864863	 0.1783373569	 0.1358834015	 0.078289
H	 1.7723986489	-1.0619532901	 2.245983508	 0.103264
H	 1.0571664464	 0.4968252511	 2.7296915316	 0.11456
H	-0.7266603086	-2.781616042	 0.519995881	 0.099987
H	-0.0216208168	-2.8207648828	 2.162936253	 0.09826
H	-1.5550554284	-0.079339016	 3.0358090865	 0.102608
H	-2.3314010055	 0.0838233476	 1.4355517246	 0.100655
H	 0.0288568468	-0.8088015632	-0.903270575	 0.078432
57.8621	76.8532	200.8823	260.7857	335.9982	367.749	443.5941	504.4862	714.4015	787.2292	822.5536	841.4379	861.3872	907.504	929.0998	953.7575	983.1333	984.9468	1008.0351	1018.1871	1042.8788	1062.2936	1096.8055	1151.0647	1154.3023	1162.3484	1180.0986	1187.316	1207.317	1227.3844	1243.3369	1267.2073	1305.6363	1310.4986	1322.8921	1361.9921	1382.3573	1459.1249	1505.0025	1522.779	1531.241	2991.1592	3005.3492	3010.4181	3037.443	3043.9894	3046.873	3051.7689	3076.6815	3109.2736	3109.9542
C1OC2CC3(COC3)C12	C1O[C@H]2CC3(COC3)[C@@H]12	
InChI=1S/C7H10O2/c1-6-5(2-9-6)7(1)3-8-4-7/h5-6H,1-4H2	InChI=1S/C7H10O2/c1-6-5(2-9-6)7(1)3-8-4-7/h5-6H,1-4H2/t5-,6-/m0/s1
