20
gdb 84925	2.31187	1.62587	1.14574	1.7841	82.26	-0.2326	0.0091	0.2417	1143.9868	0.170997	-403.153617	-403.144561	-403.143617	-403.187384	33.767	
C	-0.3294315229	 1.4568502518	 0.0607601361	-0.386983
C	 0.0643941374	-0.0360727909	-0.0173230291	-0.050094
N	 0.720192088	-0.2726328779	-1.3019369949	-0.224609
C	 1.9182415251	 0.0387061724	-1.5224777721	 0.095517
O	 2.8447440467	 0.5715512522	-0.6689490316	-0.231215
C	 3.1908506902	-0.1852786635	 0.4915608965	-0.139593
C	 2.0858450567	-0.5291380381	 1.4421604023	-0.154343
C	 0.7670184925	-0.4865036131	 1.2551182871	 0.287649
C	-0.1758965055	-0.8972994246	 2.3605204052	-0.469815
H	 0.567883137	 2.0785947828	 0.1111713177	 0.133272
H	-0.9037867131	 1.7366474653	-0.8263170219	 0.125907
H	-0.9414295361	 1.6539560531	 0.9456285274	 0.114312
H	-0.8708238033	-0.6082928731	-0.0636898268	 0.084726
H	 2.316364049	-0.048056597	-2.5354256012	 0.115532
H	 3.7039509886	-1.1068186325	 0.1707965991	 0.114628
H	 3.9413159205	 0.4245964823	 1.0068604571	 0.124923
H	 2.4594044196	-0.8799374505	 2.4038447304	 0.08327
H	 0.3607164417	-1.1392048652	 3.2810985876	 0.120301
H	-0.8971493859	-0.1032498061	 2.5897969443	 0.127037
H	-0.7641110361	-1.7755319777	 2.0655812266	 0.129578
60.4638	126.6468	173.6403	225.5944	249.4524	255.0505	287.4409	336.6014	353.547	462.6542	540.4422	597.7621	669.5135	757.2457	812.1098	829.1553	874.4416	908.9825	963.3005	996.8169	1020.4909	1042.2978	1055.567	1078.6954	1106.424	1116.0051	1186.5634	1193.597	1289.2829	1331.2548	1363.3778	1392.9416	1402.3599	1404.7617	1412.6605	1425.112	1478.0372	1488.6525	1490.5355	1493.0749	1500.141	1758.2845	1760.8167	2970.2962	3013.948	3021.7628	3044.5043	3057.568	3068.0699	3114.9895	3116.5375	3118.8553	3129.9105	3130.7561
CC1N=COCC=C1C	C[C@H]1N=COCC=C1C	
InChI=1S/C7H11NO/c1-6-3-4-9-5-8-7(6)2/h3,5,7H,4H2,1-2H3	InChI=1S/C7H11NO/c1-6-3-4-9-5-8-7(6)2/h3,5,7H,4H2,1-2H3/t7-/m1/s1
