15
gdb 71386	2.73368	1.83662	1.32719	3.8457	67.63	-0.2341	0.0149	0.249	937.8977	0.111819	-453.854085	-453.846506	-453.845562	-453.8857	29.839	
O	-0.0319013933	 1.3071308676	 0.0981059877	-0.459705
C	 0.0499270259	-0.0645102085	-0.0062015165	 0.278442
C	 0.8139373402	-0.9667305883	-0.960559751	-0.254349
N	-0.0889675518	-2.0905263134	-0.4579000776	-0.207163
C	-1.0794321125	-1.028750496	 0.0364730805	-0.157847
C	-0.2070841477	-0.9211744421	 1.2922731269	 0.287078
O	-0.4371902215	-0.3186198678	 2.4932427821	-0.458513
C	 0.3757188372	-2.2329938442	 0.9590457613	 0.35117
N	 0.9500882126	-3.1680423109	 1.564439985	-0.562665
H	 0.8487857954	 1.6513230117	 0.2933763482	 0.299208
H	 0.6099280886	-0.7610314519	-2.015086392	 0.123801
H	 1.8822909392	-1.1480694341	-0.8003014453	 0.115165
H	-2.1443829751	-1.0225095215	-0.1400733002	 0.128458
H	-0.3692325157	 0.6369902119	 2.3583341706	 0.287798
H	 1.1435887787	-3.9393317826	 0.9214737502	 0.229121
133.2051	218.7361	240.1306	281.2086	297.2486	393.1641	412.511	484.1187	522.3844	575.9599	655.0234	707.0844	751.5283	770.1369	822.7557	870.2644	878.3786	918.3453	960.6371	968.2807	1024.0052	1078.1306	1096.9057	1143.8813	1178.4863	1218.8597	1264.0914	1310.2629	1326.3509	1433.8476	1447.6198	1509.5277	1828.1172	3041.741	3105.9116	3236.7654	3458.6709	3741.4094	3777.2275
OC12CN3C1C2(O)C3=N	O[C@]12CN3[C@H]1[C@@]2(O)[C]3[NH]	
InChI=1S/C5H6N2O2/c6-3-5(9)2-4(5,8)1-7(2)3/h2,6,8-9H,1H2	InChI=1S/C5H6N2O2/c6-3-5(9)2-4(5,8)1-7(2)3/h2,6,8-9H,1H2/t2-,4-,5-/m1/s1
