15
gdb 25678	6.01942	0.84124	0.7415	3.2001	88.45	-0.2522	-0.0558	0.1964	1485.7055	0.113999	-379.704049	-379.695905	-379.69496	-379.739487	28.342	
C	-0.0087684792	 1.4664842559	 0.0105061669	-0.510424
C	 0.0072791167	 0.0138127365	 0.0027030712	 0.28907
C	 0.0340985562	-1.1919057923	-0.0038087793	-0.136297
C	 0.0371376926	-2.6181265583	-0.0114365964	 0.169593
N	 1.2261087959	-3.2514834563	-0.0216446653	-0.298928
C	 1.1846664185	-4.5811154687	-0.0284651867	 0.063355
N	 0.104237543	-5.3661239041	-0.0264073049	-0.248988
C	-1.0676810233	-4.7235063183	-0.0162270342	 0.020843
C	-1.1633123643	-3.3405391624	-0.0083314721	-0.179114
H	 1.0076463332	 1.8733589226	 0.0030579988	 0.161204
H	-0.5353577554	 1.8590189447	-0.866423408	 0.157977
H	-0.5185889409	 1.8496312956	 0.9013923771	 0.158008
H	 2.147288556	-5.0879580573	-0.036707473	 0.119409
H	-1.9622326662	-5.3424149977	-0.0143483512	 0.12025
H	-2.1197544226	-2.8330547199	-0.0001048229	 0.114042
7.9043	89.322	90.9979	237.7645	308.575	373.0481	407.7659	413.582	542.2335	584.8199	685.2789	746.823	810.7333	871.948	990.3754	1000.0758	1024.0334	1024.3756	1047.7296	1052.829	1095.2308	1192.3612	1229.1344	1311.6552	1336.4833	1411.8364	1420.5359	1472.1142	1473.9874	1493.5856	1571.4294	1613.5212	2357.9531	3030.4471	3090.9751	3098.5869	3155.1167	3161.0831	3213.4843
CC#CC1=NC=NC=C1	CC#Cc1ncncc1	
InChI=1S/C7H6N2/c1-2-3-7-4-5-8-6-9-7/h4-6H,1H3	InChI=1S/C7H6N2/c1-2-3-7-4-5-8-6-9-7/h4-6H,1H3
