23
gdb 117889	4.0078	0.52977	0.49029	1.7553	93.02	-0.2471	0.0414	0.2885	2362.637	0.202817	-388.274172	-388.262385	-388.261441	-388.314051	40.859	
C	 0.1077641354	 1.5578061035	 0.1434036629	-0.387495
C	-0.0228305949	 0.0387133722	 0.0082357179	-0.163538
C	 0.725882788	-0.5179735379	-1.2058113275	-0.166595
C	 0.5448129581	-2.0393535227	-1.3756552485	-0.069537
O	-0.8338729158	-2.3986820531	-1.495548899	-0.417435
C	 1.335407195	-2.551163029	-2.4985342085	 0.015673
C	 1.9562914616	-2.9375244742	-3.4570056406	 0.111988
C	 2.7201455332	-3.4455026721	-4.5921007514	-0.316866
C	 3.2717647608	-4.8648441967	-4.3648664975	-0.363473
H	 1.1556834057	 1.8610922938	 0.2477246123	 0.111978
H	-0.2963092417	 2.0703641504	-0.7369322377	 0.112328
H	-0.4340122577	 1.9269495426	 1.0198454825	 0.11211
H	 0.357242746	-0.4454309875	 0.9179483023	 0.092559
H	-1.0775683375	-0.2447096755	-0.06929218	 0.112538
H	 0.3802581028	-0.0242464956	-2.1244351329	 0.090658
H	 1.7988844686	-0.3033850106	-1.1259009426	 0.101836
H	 0.8725686199	-2.5316565809	-0.4504663391	 0.110239
H	-1.1068808097	-2.1744887722	-2.3921133866	 0.280758
H	 2.0848979448	-3.4379522276	-5.4873132742	 0.129014
H	 3.5488431223	-2.7589420516	-4.8084412195	 0.129751
H	 3.9377599817	-4.8881139769	-3.4981413461	 0.128872
H	 2.4586126102	-5.5727102879	-4.1835662164	 0.130424
H	 3.8339450832	-5.2004903904	-5.2414252298	 0.114214
7.0607	62.8314	78.0867	88.9249	137.0113	159.6743	223.3099	236.2258	248.5505	283.9958	328.015	354.2957	411.7257	495.6068	546.3466	564.2556	747.9082	767.1939	784.4641	852.2404	906.4259	933.3143	976.9498	1040.336	1074.4276	1077.7041	1103.7373	1109.6276	1121.0424	1171.5774	1240.3894	1268.8019	1286.1585	1292.862	1330.6805	1349.2352	1353.4343	1389.2637	1408.9086	1412.5628	1420.2212	1473.4747	1476.9877	1494.4921	1494.571	1499.9402	1505.2689	1511.3967	2357.4538	3011.133	3018.7635	3019.1946	3025.4306	3028.4328	3044.3366	3045.5719	3055.5343	3074.4456	3097.1302	3100.7751	3117.657	3124.5436	3804.4566
CCCC(O)C#CCC	CCC[C@@H](O)C#CCC	
InChI=1S/C8H14O/c1-3-5-7-8(9)6-4-2/h8-9H,3-4,6H2,1-2H3	InChI=1S/C8H14O/c1-3-5-7-8(9)6-4-2/h8-9H,3-4,6H2,1-2H3/t8-/m1/s1
