18
gdb 126765	3.17948	1.15344	0.92227	0.5802	77.69	-0.1893	0.0187	0.2079	1301.9018	0.149448	-431.456355	-431.446988	-431.446044	-431.491111	33.838	
C	 0.032582493	 1.5206632304	 0.1381578033	-0.376414
C	 0.0772039546	-0.0085251716	 0.096887667	-0.123202
N	 0.7574480961	-0.5870269275	 1.2380897436	 0.128252
N	 2.0855449499	-0.7393371079	 1.2723016904	-0.30743
C	 2.3292100535	-1.1335029411	 2.5189073991	 0.272191
N	 3.6058007534	-1.3846907898	 3.0304127592	-0.605899
C	 1.1040237582	-1.1885015332	 3.2198372814	 0.274193
N	 0.9008079988	-1.62765159	 4.531137031	-0.604676
N	 0.1271564221	-0.8290004881	 2.3925248768	-0.308019
H	 1.0448495299	 1.933847082	 0.1516214331	 0.135503
H	-0.4874898109	 1.9063352516	-0.7443650875	 0.116869
H	-0.4968597262	 1.8658532127	 1.0304429188	 0.134312
H	-0.932022418	-0.4272515683	 0.0890155873	 0.130265
H	 0.6047902727	-0.3577201292	-0.7942323866	 0.129472
H	 4.3025933414	-1.3669434654	 2.2955468761	 0.251998
H	 3.6506339674	-2.2733787638	 3.5172232969	 0.2501
H	 1.5385680683	-1.1828769108	 5.1820111935	 0.250373
H	-0.0541943742	-1.4661139899	 4.8270652566	 0.252111
43.6859	79.0427	141.9122	207.9946	232.7839	282.5135	312.9659	318.8922	327.2572	411.4767	532.5374	630.6634	645.1125	660.9969	724.1507	796.0531	800.2685	833.6973	837.6602	961.737	1019.5092	1092.9247	1099.1844	1132.7764	1173.2716	1263.3153	1324.1885	1371.3882	1391.1164	1405.5013	1409.1854	1454.6522	1471.3262	1488.1218	1505.53	1585.529	1597.4191	1643.4563	1649.6673	3043.241	3070.6037	3113.1079	3117.6194	3136.6043	3514.4542	3518.182	3611.9759	3614.9938
CCN1N=C(N)C(N)=N1	CCn1nc(N)c(N)n1	
InChI=1S/C4H9N5/c1-2-9-7-3(5)4(6)8-9/h2H2,1H3,(H2,5,7)(H2,6,8)	InChI=1S/C4H9N5/c1-2-9-7-3(5)4(6)8-9/h2H2,1H3,(H2,5,7)(H2,6,8)
