23
gdb 76916	2.24988	1.16173	0.97849	1.4249	87.01	-0.2379	0.0776	0.3155	1372.8444	0.203501	-388.265324	-388.254961	-388.254017	-388.300618	39.054	
C	-0.1240632772	 1.5426486356	 0.1900994788	-0.412853
C	 0.0876232592	 0.051973834	 0.0322304285	-0.099312
C	 0.6523707267	-0.5825693986	-1.2384309905	-0.065672
C	 1.0557107821	 0.2048315098	-2.4448736979	 0.017499
C	 1.6125260569	-0.5111090495	-3.6533660846	-0.270004
C	 0.2372539653	 0.1055391941	-3.7109702119	-0.27187
C	 1.4477993112	-0.6197854004	 0.0395043311	 0.361973
C	 2.7358825586	 0.152500878	 0.215771715	-0.44875
O	 1.4984421625	-1.9094095943	 0.6100265507	-0.465218
H	 0.6593876188	 2.1343488001	-0.289915215	 0.114368
H	-1.0781666306	 1.8492295187	-0.2530213171	 0.120335
H	-0.1452630578	 1.8281522632	 1.2480606175	 0.112435
H	-0.6813993348	-0.5517555851	 0.5085573841	 0.082269
H	 0.2093699006	-1.5450660959	-1.483466363	 0.087195
H	 1.4833185791	 1.1823151082	-2.247248328	 0.075524
H	 2.414422147	-0.0391726213	-4.2105094675	 0.107656
H	 1.6815856961	-1.592976249	-3.6071171356	 0.114927
H	-0.6184071282	-0.5617700092	-3.7048298253	 0.110637
H	 0.0968866861	 1.000475289	-4.3072478041	 0.107387
H	 2.7116189114	 1.1312524643	-0.2677832556	 0.115822
H	 2.9436600899	 0.3181183574	 1.2806650984	 0.103223
H	 3.5719678565	-0.4152987785	-0.2043374158	 0.128092
H	 1.5374127406	-1.8034680007	 1.5676127477	 0.274338
45.8821	124.0246	145.032	174.5391	185.5374	227.2731	242.3745	302.9484	305.7849	378.9056	413.6721	450.3472	486.8138	553.471	705.7047	760.0121	788.0291	826.4556	842.9174	905.3464	916.2518	957.382	983.9897	1015.0909	1025.4163	1057.5788	1072.8378	1080.2548	1089.1222	1123.8168	1133.3707	1146.4853	1198.0635	1199.7502	1228.5784	1246.837	1290.9896	1312.484	1342.3209	1408.7787	1413.647	1421.9306	1467.434	1469.9981	1483.458	1492.3141	1497.4233	1505.8603	1520.5129	3023.989	3030.3617	3083.7122	3088.2331	3107.3799	3125.135	3128.3986	3129.6313	3133.0697	3139.0959	3159.2547	3206.4081	3222.201	3782.8933
CC1C(C2CC2)C1(C)O	C[C@H]1[C@@H](C2CC2)[C@]1(C)O	
InChI=1S/C8H14O/c1-5-7(6-3-4-6)8(5,2)9/h5-7,9H,3-4H2,1-2H3	InChI=1S/C8H14O/c1-5-7(6-3-4-6)8(5,2)9/h5-7,9H,3-4H2,1-2H3/t5-,7-,8+/m0/s1
