19
gdb 89537	4.4638	1.08538	0.99433	2.8443	75.83	-0.2311	0.07	0.3011	1213.8959	0.158909	-422.935043	-422.927257	-422.926313	-422.967332	31.107	
O	-0.0963745632	 1.4998444022	-0.032396087	-0.430843
C	 0.0368401652	 0.0986218031	-0.0127749107	 0.139553
C	 0.3556915134	-0.6004068447	 1.3438582909	-0.374532
C	-0.7716445099	-1.6054542045	 1.0142055982	 0.432291
C	-1.3128231494	-0.6499221676	-0.0646019888	-0.32863
C	-0.56115434	-3.11627177	 0.7302034303	-0.021284
C	-0.4481071295	-3.3814017079	 2.2496784788	-0.232591
C	-1.6426429791	-2.4352231572	 1.9830151079	-0.032115
O	-2.0286798635	-3.2972596156	 0.8355198998	-0.318499
H	 0.7826711916	 1.8895346516	 0.0119943471	 0.281939
H	 0.7179872513	-0.2490587585	-0.8026562906	 0.066736
H	 1.366955706	-0.9846160444	 1.5014849202	 0.095754
H	 0.0834168905	 0.0572015542	 2.1755617969	 0.108793
H	-2.106280822	-0.0045160922	 0.3246095981	 0.113803
H	-1.6327900219	-1.076511708	-1.0159993344	 0.111914
H	-0.0537404652	-3.6056737818	-0.1028221247	 0.091259
H	-0.7229510234	-4.3900073056	 2.5599092516	 0.107016
H	 0.418477198	-2.9872050813	 2.7854746559	 0.099083
H	-2.4371837287	-2.1072651617	 2.6549519207	 0.090351
74.6068	185.5028	226.9949	277.9393	314.725	378.5374	404.9504	469.3942	546.6143	640.1513	712.8312	737.753	783.7003	832.6526	859.6122	881.9979	920.3674	929.896	964.8658	1012.4086	1019.9815	1047.9812	1050.3028	1106.7484	1125.2631	1147.7907	1159.6158	1172.0424	1188.3601	1202.6122	1216.2433	1226.8779	1257.8301	1268.1192	1271.4777	1325.1228	1351.6211	1428.1178	1464.0191	1484.4504	1491.6891	2994.0058	3048.3201	3064.6239	3068.3176	3103.4838	3106.7963	3111.4935	3129.6502	3150.036	3814.664
OC1CC2(C1)C1CC2O1	O[C@H]1C[C@@]2(C1)[C@H]1C[C@@H]2O1	
InChI=1S/C7H10O2/c8-4-2-7(3-4)5-1-6(7)9-5/h4-6,8H,1-3H2	InChI=1S/C7H10O2/c8-4-2-7(3-4)5-1-6(7)9-5/h4-6,8H,1-3H2/t4-,5-,6+,7-/m0/s1
