19
gdb 37720	3.11341	2.13129	1.71668	0.4668	77.27	-0.2014	0.0828	0.2842	857.4157	0.164125	-382.010165	-382.004067	-382.003123	-382.040543	26.161	
C	 0.0100915032	 1.6775539444	 0.0804214991	-0.214883
C	 1.531727828	 1.3385295492	 0.0440342155	-0.045381
C	 1.6985228957	 0.6128323699	 1.4090357703	-0.051152
C	 0.51150926	-0.2990781187	 1.3418227519	-0.051151
C	-0.0486776182	 0.1243837605	-0.0454625723	-0.045383
N	 1.151663143	 0.2653128043	-0.9193239906	-0.081612
C	 2.0420643126	-0.881502288	-1.0840330374	-0.184472
C	 2.4534161495	-1.5162464128	 0.2613340432	-0.160557
N	 1.8643176468	-0.8343104035	 1.4136197988	-0.105262
H	-0.3861217616	 2.1259307629	 0.9942057441	 0.095742
H	-0.3363530741	 2.1945815205	-0.8159541793	 0.10683
H	 2.2979031783	 2.0502814017	-0.2677536411	 0.068223
H	 2.0209398734	 1.155100499	 2.2928483982	 0.089614
H	-0.1564863028	-0.5176700459	 2.1695498848	 0.089612
H	-0.9083455734	-0.4129197747	-0.4493219153	 0.068224
H	 1.5244510684	-1.6045629946	-1.7242671234	 0.104914
H	 2.9169355736	-0.5347412291	-1.6452793075	 0.104915
H	 2.1466264422	-2.566026509	 0.3184986535	 0.105891
H	 3.5399186454	-1.4958098962	 0.3974234373	 0.10589
94.607	322.5897	414.5207	493.2443	525.951	573.3829	707.6291	723.3545	733.1832	792.0419	820.9359	823.1022	859.5487	890.6727	905.3695	933.1308	962.5013	968.9347	980.1338	1037.8795	1051.4696	1070.2881	1082.8972	1105.7606	1126.0336	1182.2123	1186.4439	1217.6972	1255.723	1255.8315	1272.5559	1275.8774	1289.4984	1295.9128	1315.5437	1350.3674	1366.4945	1390.449	1478.595	1484.9115	1499.8014	3027.7637	3038.7882	3058.4867	3068.875	3084.0199	3101.1383	3103.7072	3140.8977	3146.0666	3155.8405
C1C2C3C4C1N2CCN34	C1[C@H]2[C@H]3[C@H]4[C@@H]1N2CCN34	
InChI=1S/C7H10N2/c1-2-9-6-4-3-5(7(6)9)8(1)4/h4-7H,1-3H2	InChI=1S/C7H10N2/c1-2-9-6-4-3-5(7(6)9)8(1)4/h4-7H,1-3H2/t4-,5+,6-,7+,9?
