19
gdb 101507	5.90582	0.54965	0.52468	2.2089	95.06	-0.2387	-0.0093	0.2294	2092.8171	0.155549	-385.841272	-385.830576	-385.829632	-385.877627	38.242	
C	 0.1029070977	 1.5509933353	-0.0644393656	-0.387822
C	 0.0119669545	 0.025024834	 0.0025626628	-0.18352
C	-1.4345060202	-0.4856575622	 0.0290637942	 0.14649
O	-2.1755598871	-0.0469999508	-1.0976108287	-0.4173
C	-1.478459488	-2.0273133366	 0.1709250444	-0.431512
C	-2.8245632565	-2.5659439935	 0.2653465107	 0.377107
C	-3.9451842007	-3.0136429744	 0.3545986838	-0.213222
C	-5.2062238589	-3.5147429555	 0.4549054959	 0.29507
C	-6.3245455459	-3.9617367274	 0.5449774098	-0.563464
H	 1.1427501384	 1.8818393054	-0.1405751267	 0.112071
H	-0.4467013961	 1.9314625978	-0.9290803086	 0.130631
H	-0.3301194629	 2.0094318756	 0.8312345974	 0.118308
H	 0.5239864125	-0.4201392467	-0.8637065576	 0.086889
H	 0.5374674743	-0.3465615914	 0.8912749997	 0.098762
H	-1.9571526707	-0.0480614747	 0.8878630855	 0.102714
H	-1.7671099451	-0.4193645235	-1.8877359268	 0.279087
H	-0.9593325755	-2.4754519534	-0.6896822137	 0.124445
H	-0.901044052	-2.3203124102	 1.0577580685	 0.137101
H	-7.3087130678	-4.3516841378	 0.623169845	 0.188167
45.9152	60.0959	110.2948	158.9123	182.9242	220.0023	250.3328	282.4523	331.5243	356.1204	383.8232	457.4861	514.5572	534.4606	555.1761	589.5918	594.5427	740.0525	780.3488	850.3267	908.2395	992.5362	1008.3317	1073.0084	1106.6498	1138.1623	1180.8224	1192.9915	1265.515	1289.074	1349.5382	1359.6116	1383.9896	1406.919	1423.9323	1457.4719	1482.2456	1495.6448	1509.1068	2182.567	2365.7399	2995.4667	3000.5579	3037.3664	3040.478	3043.6429	3061.0724	3105.3704	3125.1967	3506.8024	3791.0891
CCC(O)CC#CC#C	CC[C@@H](O)CC#CC#C	
InChI=1S/C8H10O/c1-3-5-6-7-8(9)4-2/h1,8-9H,4,7H2,2H3	InChI=1S/C8H10O/c1-3-5-6-7-8(9)4-2/h1,8-9H,4,7H2,2H3/t8-/m1/s1
