17
gdb 74079	2.79242	1.51594	1.12019	3.5562	76.26	-0.2446	-0.0546	0.19	1096.902	0.135064	-421.850147	-421.841888	-421.840944	-421.882639	31.724	
C	-0.0158398745	 1.4651631685	 0.0731080619	-0.492491
C	-0.0178370838	-0.0246808533	-0.0068041915	 0.336461
C	 0.0426292296	-0.7845652148	-1.1200094598	-0.315202
C	-0.010843746	-2.2132357279	-0.7580753855	 0.331112
O	-0.1440339858	-3.1929641406	-1.4620190138	-0.363414
C	 0.0312361428	-2.290593717	 0.7544817418	 0.343553
O	-0.6365971533	-3.3566554393	 1.3269906501	-0.474933
C	 1.2525159729	-1.6893991806	 1.4232365188	-0.338707
C	-0.0290416334	-0.873895319	 1.2338834307	-0.223128
H	 0.8323725776	 1.8164338385	 0.6735868606	 0.144813
H	 0.0376093037	 1.9282366898	-0.9146522902	 0.135929
H	-0.9212072879	 1.824410623	 0.5776962288	 0.143399
H	 0.102480638	-0.4301336077	-2.1405994031	 0.11492
H	-0.6906111883	-4.0211267288	 0.6234006963	 0.296301
H	 1.4426894501	-2.0671410034	 2.4230254881	 0.130699
H	 2.1304562963	-1.4227269264	 0.843700216	 0.121429
H	-0.5939540479	-0.5712747308	 2.1074998309	 0.109259
135.1476	144.6428	173.3083	253.784	283.0021	311.1191	357.797	410.4404	494.8708	529.5108	566.9621	641.5456	717.3679	763.6865	812.8619	850.4214	885.9481	921.4709	953.9804	991.1724	1011.7813	1047.6538	1060.1685	1085.4563	1124.114	1159.0155	1202.3466	1238.2013	1343.0616	1383.0333	1409.4158	1431.2	1474.0449	1477.9188	1488.0736	1651.2359	1799.8016	3025.3405	3074.9249	3121.7309	3125.6284	3188.6285	3220.1506	3222.9501	3721.3137
CC1=CC(=O)C2(O)CC12	CC1=CC(=O)[C@@]2(O)C[C@@H]12	
InChI=1S/C7H8O2/c1-4-2-6(8)7(9)3-5(4)7/h2,5,9H,3H2,1H3	InChI=1S/C7H8O2/c1-4-2-6(8)7(9)3-5(4)7/h2,5,9H,3H2,1H3/t5-,7+/m0/s1
