15
gdb 45962	2.98668	1.5375	1.19117	1.7654	67.96	-0.2572	-0.0429	0.2143	1011.7198	0.114206	-453.94189	-453.934556	-453.933612	-453.974063	27.682	
N	-0.2494253852	 1.3293942172	-0.1730018256	-0.522071
C	-0.0672440029	 0.0768620076	-0.133577688	 0.445143
O	 1.1563315161	-0.482402291	-0.327837076	-0.269527
C	 1.3519391055	-1.9052406905	-0.3619677255	-0.176199
C	 0.1563952848	-2.6971989613	-0.8895342215	 0.414203
O	 0.2778115939	-3.5982481065	-1.6838845049	-0.308174
C	-1.1482101955	-2.2616586591	-0.320629775	-0.167684
N	-1.0516616412	-1.8754097936	 1.1063089303	-0.335744
C	-1.2298599306	-0.8241999849	 0.1034221711	-0.107665
H	 0.6323080019	 1.8110686003	-0.3604455832	 0.226216
H	 2.2064612458	-2.081851561	-1.0161536894	 0.144637
H	 1.5852374717	-2.2633817499	 0.6480404852	 0.151595
H	-2.0362738422	-2.7604084267	-0.6940348172	 0.11723
H	-1.9366305437	-2.0623201253	 1.570241521	 0.256585
H	-2.1853705885	-0.3176499854	 0.0312193487	 0.131457
76.231	134.5943	209.8378	296.6701	389.5257	432.7726	480.7305	488.3605	568.5308	697.4668	717.9422	757.3338	859.9756	865.4129	905.6684	914.8191	936.5683	980.0723	1013.4679	1075.4467	1136.9135	1148.2975	1178.6485	1220.7176	1249.5156	1263.8322	1332.2971	1375.1419	1397.5935	1439.8417	1481.6344	1747.1023	1826.3056	3040.6691	3133.2168	3178.2857	3191.25	3469.575	3518.2042
N=C1OCC(=O)C2NC12	[NH][C]1OCC(=O)[C@H]2N[C@@H]12	
InChI=1S/C5H6N2O2/c6-5-4-3(7-4)2(8)1-9-5/h3-4,6-7H,1H2	InChI=1S/C5H6N2O2/c6-5-4-3(7-4)2(8)1-9-5/h3-4,6-7H,1H2/t3-,4-/m1/s1
