12
gdb 21366	5.54745	2.39148	1.67108	4.256	60.2	-0.2246	0.0124	0.237	694.1774	0.08858	-373.732806	-373.727447	-373.726503	-373.762037	20.94	
N	-0.0250630154	 1.3429115546	 0.0100088966	-0.415762
C	 1.2988479221	 1.7818767395	-0.0005117553	-0.081937
C	 2.12323958	 0.6974488092	-0.0146127792	-0.1183
N	 1.2873350458	-0.4072135418	-0.0125273248	 0.055702
N	 1.362201624	-1.7668590451	-0.0207831471	-0.292009
C	 0.0657626525	-2.0833402702	-0.00987304	 0.032994
N	-0.8375316497	-1.0569082277	 0.0046860807	-0.401359
C	-0.0147775121	-0.0209525538	 0.002364965	 0.505292
H	-0.844973932	 1.9217586211	 0.0212696628	 0.284167
H	 1.5410637769	 2.8303411466	 0.00293697	 0.150693
H	 3.1957113274	 0.6254957342	-0.0255235651	 0.157236
H	-0.2446473694	-3.1179851967	-0.0125626236	 0.123282
215.9144	326.4985	383.2921	488.9353	604.0353	650.1119	694.1148	734.3963	769.6438	782.6918	783.9413	900.9344	943.8359	986.8789	1074.4894	1097.2962	1190.1333	1218.3765	1265.0553	1280.9136	1349.1162	1418.7536	1439.519	1483.1804	1587.9844	1647.7576	3257.155	3289.9149	3312.2668	3704.9682
N1C=CN2N=CN=C12	[nH]1ccn2ncnc12	
InChI=1S/C4H4N4/c1-2-8-4(5-1)6-3-7-8/h1-3H,(H,5,6,7)	InChI=1S/C4H4N4/c1-2-8-4(5-1)6-3-7-8/h1-3H,(H,5,6,7)
