18
gdb 44493	4.27002	1.42637	1.23387	3.173	77.24	-0.2483	0.0255	0.2738	1024.1866	0.15086	-401.923951	-401.91731	-401.916365	-401.955263	27.287	
N	-0.0373440614	 1.2062977546	-0.5925316007	-0.5216
C	-0.0126595857	 0.0655968828	-0.0467857903	 0.39005
C	-1.2776942344	-0.7247207834	 0.213723748	-0.338735
C	-1.0046022172	-2.0638418061	 0.8767937058	 0.001424
C	 0.0419716212	-2.0893226378	 2.0396903355	-0.099909
C	 0.2594678514	-3.5923162754	 1.7209753327	-0.233627
C	 0.1985915825	-2.9028769694	 0.3321479408	-0.099909
C	 1.1059959628	-1.803241402	 0.9462207395	 0.158568
O	 1.1578607188	-0.5215276725	 0.3403088966	-0.268537
H	 0.9128085751	 1.5731663374	-0.6801737045	 0.217401
H	-1.9415378595	-0.1115684699	 0.832862388	 0.137496
H	-1.7971787634	-0.8614143931	-0.7409634043	 0.137496
H	-1.9220096952	-2.6302659791	 1.0625181543	 0.071122
H	-0.0414730408	-1.6174533816	 3.0193195139	 0.080442
H	 1.2173937883	-4.0286858753	 2.0167458824	 0.09666
H	-0.5747740362	-4.2550682121	 1.960223187	 0.102576
H	 0.2951305774	-3.3659233005	-0.6504838454	 0.080442
H	 2.1416977065	-2.0666516665	 1.1667187707	 0.088639
58.2893	248.3567	379.2232	393.9978	438.7068	471.9037	539.3368	618.9172	753.9092	776.3159	787.6552	823.4054	854.1791	895.3235	902.668	902.997	967.743	990.5439	1015.3272	1019.3095	1071.1309	1078.6336	1086.0599	1104.5013	1141.4686	1163.1991	1164.2266	1202.6995	1220.1625	1241.4243	1271.8946	1273.387	1296.6901	1325.5966	1407.0506	1428.617	1466.8062	1518.2938	1756.04	3046.8677	3057.1491	3065.8572	3080.5731	3101.3283	3108.6863	3117.0336	3124.6042	3461.7373
N=C1CC2C3CC2C3O1	[NH][C]1C[C@@H]2[C@H]3C[C@@H]2[C@H]3O1	
InChI=1S/C7H9NO/c8-6-2-3-4-1-5(3)7(4)9-6/h3-5,7-8H,1-2H2	InChI=1S/C7H9NO/c8-6-2-3-4-1-5(3)7(4)9-6/h3-5,7-8H,1-2H2/t3-,4-,5+,7+
