15
gdb 51392	2.98037	1.36696	1.29583	3.6273	65.65	-0.2531	-0.0004	0.2526	1010.6726	0.113446	-453.954104	-453.946377	-453.945433	-453.987046	28.442	
O	 0.5025956478	 1.4233214709	-1.5708124913	-0.324202
C	 0.3522191957	 1.763123455	-0.416937642	 0.152589
N	 1.2950953674	 1.6798016059	 0.5653945247	-0.286926
C	 2.6019941758	 1.1211561271	 0.3929582298	 0.018224
C	 3.4458666075	 1.4197241902	-0.8029088497	 0.004251
N	 3.2556560674	 2.7790506914	-1.2962404029	-0.334172
C	 3.5645072729	 3.3444714619	-0.047748624	 0.425141
O	 3.5583832882	 4.473792256	 0.3482367802	-0.337094
C	 3.8685799568	 1.9695310167	 0.5534059827	-0.295135
H	-0.5895928271	 2.2021139576	-0.0335216697	 0.089239
H	 1.0512126314	 2.0358081883	 1.4773250862	 0.260065
H	 2.7180561866	 0.1078953352	 0.7771434428	 0.120821
H	 3.9104634204	 0.6610138614	-1.4170177387	 0.124065
H	 2.444479828	 3.0373334715	-1.847655213	 0.259981
H	 4.6770648814	 1.6896888309	 1.2131581148	 0.123152
53.7899	112.8682	166.2869	246.1374	296.3508	406.2206	458.7611	537.5522	572.4717	650.1275	732.8651	751.2112	802.2663	856.005	863.1521	920.07	955.3637	982.4256	1033.8208	1046.7206	1065.2879	1090.9578	1132.0723	1147.7962	1233.3563	1281.8604	1319.086	1337.036	1410.9784	1435.1919	1516.9562	1802.9874	1903.0489	2945.6821	3110.4532	3217.7037	3230.6519	3554.8672	3616.6339
O=CNC1C2NC(=O)C12	O=CN[C@H]1[C@H]2NC(=O)[C@@H]12	
InChI=1S/C5H6N2O2/c8-1-6-3-2-4(3)7-5(2)9/h1-4H,(H,6,8)(H,7,9)	InChI=1S/C5H6N2O2/c8-1-6-3-2-4(3)7-5(2)9/h1-4H,(H,6,8)(H,7,9)/t2-,3+,4-/m0/s1
