18
gdb 32422	2.89531	1.24706	0.93162	1.2027	75.05	-0.1742	0.0578	0.232	1259.6503	0.146919	-439.11539	-439.105841	-439.104897	-439.149436	35.403	
C	 0.0738843555	 1.6036573199	 0.0892605615	-0.366956
C	-0.0708212946	 0.078947383	-0.059897616	-0.303236
C	 0.6476693861	-0.4676299123	-1.2580771687	 0.193353
C	 0.0925536508	-1.0493561632	-2.373055929	-0.200446
N	 1.1126535305	-1.388182982	-3.2478714594	-0.313802
C	 2.3085210363	-1.0365930277	-2.6953437549	 0.339037
O	 3.4650184893	-1.2575400148	-3.3671086942	-0.443361
C	 2.0652290926	-0.4684178106	-1.4701706933	 0.042687
O	 3.067680645	 0.0643451659	-0.6770156039	-0.461457
H	 1.1285626973	 1.8839892756	 0.1624851479	 0.129414
H	-0.3479953564	 2.1185748189	-0.779365816	 0.116051
H	-0.442121042	 1.9634883394	 0.9856368192	 0.101508
H	 0.302659678	-0.4015369794	 0.8559851846	 0.086494
H	-1.1318008859	-0.1881164526	-0.1249974074	 0.098333
H	-0.9361364293	-1.255966666	-2.6180102745	 0.113503
H	 1.0087422388	-1.8151201913	-4.1508207471	 0.265197
H	 4.1689565665	-0.8893769244	-2.819263271	 0.308241
H	 3.0958194314	-0.4206989283	 0.154810362	 0.295443
73.8028	120.8089	189.2576	230.6953	239.7546	251.0815	290.0937	302.969	338.6064	370.1023	437.6234	527.0635	567.439	629.5415	665.0656	692.182	728.1684	764.2675	801.4148	957.6431	1036.4848	1073.6446	1088.7953	1103.0128	1179.069	1212.9558	1261.8112	1280.7632	1308.8601	1359.1299	1400.0673	1405.1203	1418.8499	1484.5383	1496.2627	1511.3317	1564.0615	1582.3272	1682.2149	2998.1389	3035.4126	3055.1066	3104.5034	3117.6066	3267.1188	3694.1447	3787.2882	3803.6746
CCC1=CNC(O)=C1O	CCc1c[nH]c(O)c1O	
InChI=1S/C6H9NO2/c1-2-4-3-7-6(9)5(4)8/h3,7-9H,2H2,1H3	InChI=1S/C6H9NO2/c1-2-4-3-7-6(9)5(4)8/h3,7-9H,2H2,1H3
