19
gdb 70452	2.66503	1.41815	1.2137	1.2404	74.48	-0.2241	0.0603	0.2844	1104.7686	0.158514	-422.956244	-422.947977	-422.947033	-422.989221	32.302	
O	 0.8448713625	 1.2452499307	-0.5632445265	-0.452554
C	 0.3627367347	-0.0106513845	-0.2563020474	 0.287545
C	-1.007330923	-0.1730269717	 0.3490785591	-0.324454
C	 0.179951376	-0.7928587757	 1.0313777976	 0.012635
O	 0.5196676495	-2.0267318942	 0.3940078621	-0.30633
C	 0.8840582853	-1.3275280237	-0.8393713529	 0.06713
C	 0.3633072818	-1.9363623242	-2.1100323907	-0.024067
C	-0.9121239423	-1.502770855	-2.7859163657	-0.264395
C	 0.4194447123	-1.1208070659	-3.3808195057	-0.271425
H	 1.8000246148	 1.2445538344	-0.4295264929	 0.287782
H	-1.3612877282	 0.7445230395	 0.8101800278	 0.121795
H	-1.7710450163	-0.8066078113	-0.0900162741	 0.121532
H	 0.478641157	-0.6412333196	 2.0614956035	 0.107292
H	 1.9850251522	-1.2919337983	-0.8855826788	 0.071171
H	 0.623189994	-2.9874681264	-2.2071989349	 0.094954
H	-1.5001659977	-2.2651379254	-3.2849465034	 0.112308
H	-1.4974523656	-0.7127432286	-2.3322674836	 0.124306
H	 0.7196561911	-0.081657587	-3.2908719776	 0.123493
H	 0.7484540419	-1.6059626533	-4.2928896257	 0.111281
65.166	125.0305	178.0119	265.0588	322.0938	361.878	369.1731	408.4139	464.394	580.9844	667.3422	722.81	785.0701	821.6021	847.6068	863.8093	906.0943	921.3427	936.4815	982.2224	1014.5699	1019.1086	1029.689	1058.7744	1073.4623	1088.6385	1100.0597	1135.7617	1142.7716	1201.7882	1204.9258	1228.2946	1268.7347	1271.4376	1333.4158	1380.1215	1401.6099	1421.2624	1467.6342	1492.467	1506.5503	2965.1294	3122.4019	3131.1604	3139.3718	3146.0544	3189.1338	3213.9375	3216.5752	3235.5355	3784.8234
OC12CC1OC2C1CC1	O[C@]12C[C@H]1O[C@H]2C1CC1	
InChI=1S/C7H10O2/c8-7-3-5(7)9-6(7)4-1-2-4/h4-6,8H,1-3H2	InChI=1S/C7H10O2/c8-7-3-5(7)9-6(7)4-1-2-4/h4-6,8H,1-3H2/t5-,6+,7-/m1/s1
