15
gdb 52639	2.69665	0.69161	0.56665	2.083	92.8	-0.2466	-0.0282	0.2183	1892.8391	0.108399	-383.397926	-383.387482	-383.386538	-383.435555	35.606	
C	-0.0582987311	 1.4992115214	 0.0423503234	-0.499337
C	 0.0006494647	 0.0457604861	 0.0200587885	 0.056256
C	 0.0554597178	-1.1565759678	 0.0054197029	 0.100612
C	 0.0847405222	-2.6246231305	-0.0195667654	-0.294933
O	-1.2079481924	-3.2018313763	 0.1453545026	-0.384992
C	 0.7489499892	-3.10980043	-1.2385943137	 0.500629
C	 1.2738189408	-3.5239604381	-2.2469127232	-0.327103
C	 1.8651179363	-3.986913902	-3.3812649219	 0.295631
C	 2.3891939148	-4.3984106853	-4.388162188	-0.548665
H	 0.647990604	 1.9112708888	 0.7709903908	 0.155475
H	 0.1864579414	 1.9217406652	-0.9379796912	 0.155208
H	-1.0597793299	 1.8479322802	 0.3166737217	 0.155021
H	 0.6525707034	-2.9861187173	 0.8482848429	 0.151674
H	-1.7601707112	-2.874188293	-0.5743330838	 0.289989
H	 2.85112809	-4.7604440814	-5.2729435658	 0.194537
16.9092	49.6179	98.6858	128.8048	153.9333	240.956	257.7976	308.0323	338.954	382.7503	465.3994	472.6769	528.662	540.7423	582.4577	595.1899	615.1166	766.473	806.6174	1008.1604	1051.7452	1053.5719	1137.7398	1180.0928	1255.4178	1310.714	1409.4497	1414.2261	1475.2726	1476.8339	2181.1771	2361.5884	2371.1584	3021.9868	3030.7926	3093.7902	3094.6974	3504.8641	3798.6411
CC#CC(O)C#CC#C	CC#C[C@@H](O)C#CC#C	
InChI=1S/C8H6O/c1-3-5-7-8(9)6-4-2/h1,8-9H,2H3	InChI=1S/C8H6O/c1-3-5-7-8(9)6-4-2/h1,8-9H,2H3/t8-/m1/s1
