17
gdb 45570	3.23406	1.45958	1.28173	4.2379	67.59	-0.241	0.0598	0.3008	1008.8459	0.139839	-455.197986	-455.190695	-455.18975	-455.230006	28.129	
O	 0.0047741977	-0.0741749453	 0.1143325774	-0.403057
C	-0.0132379025	 1.1290900643	-0.0069375537	 0.428084
N	-1.1326919087	 1.9414709208	-0.1027802197	-0.33791
C	-0.8294169492	 3.349545157	 0.0538107185	-0.011525
C	-1.1585844249	 3.933912655	 1.4448848137	-0.097533
O	-0.0173367581	 3.6851611775	 2.2472458466	-0.232725
C	 1.094494235	 3.9645363617	 1.4142458308	-0.097533
C	 0.7436274027	 3.3709333459	 0.0324147379	-0.011527
N	 1.080695813	 1.9715680483	-0.1329008922	-0.33791
H	-2.0152110278	 1.5529187205	 0.1852424361	 0.252963
H	-1.274609741	 3.9470990438	-0.7474790493	 0.091964
H	-1.3490489796	 5.0169753128	 1.3594622579	 0.092181
H	-2.0228526841	 3.4612808921	 1.9183820298	 0.113711
H	 1.2530682496	 5.0523428801	 1.3240826686	 0.092181
H	 1.9838385021	 3.5157331469	 1.8638928245	 0.113711
H	 1.1504576279	 3.98008105	-0.7804570359	 0.091964
H	 1.980962218	 1.6072552784	 0.1308536589	 0.252963
90.725	110.4633	262.7165	331.9828	362.618	418.9315	464.1522	513.0764	599.4379	687.7631	725.52	767.2024	841.0956	843.6626	914.2576	940.9104	968.9782	986.5089	1006.3755	1049.903	1107.3043	1137.3307	1167.566	1217.5548	1218.9447	1268.3792	1295.7888	1320.9496	1351.6919	1352.1757	1384.7748	1395.9083	1427.5449	1428.8522	1493.3108	1507.7609	1854.1709	2963.1541	2970.0704	3048.6457	3062.6522	3097.6624	3100.6051	3660.4608	3662.8684
O=C1NC2COCC2N1	O=C1N[C@H]2COC[C@H]2N1	
InChI=1S/C5H8N2O2/c8-5-6-3-1-9-2-4(3)7-5/h3-4H,1-2H2,(H2,6,7,8)	InChI=1S/C5H8N2O2/c8-5-6-3-1-9-2-4(3)7-5/h3-4H,1-2H2,(H2,6,7,8)/t3-,4+
