19
gdb 87979	2.96145	1.18281	1.00608	0.9135	71.9	-0.2309	0.0678	0.2986	1225.6143	0.158408	-460.137364	-460.128521	-460.127577	-460.171344	33.665	
O	-0.0556622357	 1.3642330021	-0.1273582094	-0.418247
C	-0.0545170478	-0.0311400848	-0.0727349961	 0.025208
C	-0.4451362116	-0.7412386254	 1.2141861231	-0.410331
C	-1.3887092708	-0.7110222081	 0.0509325097	 0.433258
C	-2.6953725445	 0.0755099258	-0.0003732262	-0.324747
C	-3.5841899431	-0.7727564034	-0.9306766337	 0.111131
O	-4.3081979259	 0.0681391252	-1.8103401729	-0.427268
C	-2.5517720408	-1.6806113537	-1.6292861794	-0.131625
O	-1.5643482514	-1.9304568539	-0.6413056872	-0.282041
H	 0.6671412895	 1.688325804	 0.420216709	 0.28955
H	 0.6823055618	-0.5302563388	-0.7018181581	 0.093412
H	 0.0453122498	-1.6819202799	 1.4404863245	 0.122245
H	-0.6957892786	-0.1243262983	 2.0715905598	 0.114797
H	-3.1444410429	 0.2099640564	 0.9861162983	 0.107239
H	-2.5436962137	 1.0629501169	-0.4425705545	 0.142803
H	-4.2686791654	-1.392920061	-0.3349674428	 0.073483
H	-4.9376079561	-0.4741900627	-2.2957101553	 0.284775
H	-2.9468445407	-2.6448155555	-1.961267661	 0.097713
H	-2.1380123521	-1.1407397148	-2.496001588	 0.098646
34.5162	146.9299	194.7411	222.3719	270.6283	279.1797	351.8004	415.1437	445.0609	460.6883	491.6306	531.966	611.2267	785.0073	821.5755	867.0556	891.0527	902.5733	952.2237	998.0515	1024.4472	1045.5685	1074.5879	1086.2422	1100.8304	1125.3673	1173.6482	1198.5588	1221.8423	1235.8346	1268.6725	1279.6963	1293.1943	1336.1145	1350.2217	1368.8253	1410.2139	1433.3119	1483.135	1495.429	1515.0031	2981.4314	2999.9585	3071.9756	3090.9586	3106.3655	3119.7702	3125.8138	3221.0051	3801.3167	3820.3048
OC1CC11CC(O)CO1	O[C@H]1C[C@]21C[C@@H](O)CO2	
InChI=1S/C6H10O3/c7-4-1-6(9-3-4)2-5(6)8/h4-5,7-8H,1-3H2	InChI=1S/C6H10O3/c7-4-1-6(9-3-4)2-5(6)8/h4-5,7-8H,1-3H2/t4-,5+,6+/m1/s1
