19
gdb 82004	2.46178	1.41556	1.29735	4.2783	79.09	-0.2499	0.0298	0.2798	1097.2108	0.158904	-382.042298	-382.033475	-382.032531	-382.075269	33.601	
C	-0.243320932	 1.5419934535	-0.0793739614	-0.415056
C	 0.0505063555	 0.0548437561	-0.0239024007	 0.020081
N	 0.9763979356	-0.5116740734	-1.0704943561	-0.132208
C	 2.3241067518	 0.0261814858	-0.8140694687	-0.26195
C	 1.8408565733	-1.0724100139	 0.040066129	-0.043103
C	 0.9151688934	-0.5569000061	 1.1597631869	 0.097731
C	 1.5211437359	 0.3604291864	 2.2302007441	-0.450608
C	 0.1973232283	-1.6499825575	 1.8107660387	 0.249001
N	-0.371486988	-2.5077063968	 2.3380488953	-0.343944
H	 0.647500511	 2.1642573396	 0.0361077115	 0.119422
H	-0.7006004006	 1.7838975833	-1.0440825223	 0.140585
H	-0.9505561659	 1.8194052358	 0.7086647326	 0.131801
H	-0.8868412915	-0.4983976158	-0.1077895989	 0.116713
H	 3.0272758474	-0.2360888764	-1.5983913017	 0.133226
H	 2.451722537	 1.029762174	-0.4206107907	 0.115906
H	 2.2413822304	-2.0795454115	 0.0016794967	 0.117235
H	 2.0796958713	 1.1812454045	 1.7774449157	 0.124102
H	 0.737363069	 0.7858983635	 2.8633024007	 0.139431
H	 2.2042021282	-0.2035860112	 2.8718971593	 0.141634
128.9177	157.4031	190.755	202.2032	220.7817	235.3077	314.7097	359.8101	451.9574	502.8599	548.323	558.6104	626.9127	734.0654	776.9044	788.7274	857.9952	903.9109	954.3423	1004.1026	1037.8505	1060.063	1098.5871	1111.4662	1115.6869	1138.089	1167.3596	1189.5604	1212.8197	1234.427	1291.3911	1358.6261	1384.5818	1409.7139	1418.8012	1484.8707	1486.0178	1489.7358	1499.1129	1513.435	2350.4637	3043.7401	3050.3138	3086.0942	3110.8029	3119.3362	3121.7773	3126.7656	3137.6836	3174.0822	3208.8653
CC1N2CC2C1(C)C#N	C[C@H]1N2C[C@H]2[C@]1(C)C#N	
InChI=1S/C7H10N2/c1-5-7(2,4-8)6-3-9(5)6/h5-6H,3H2,1-2H3	InChI=1S/C7H10N2/c1-5-7(2,4-8)6-3-9(5)6/h5-6H,3H2,1-2H3/t5-,6+,7-,9?/m1/s1
