17
gdb 18737	2.99497	2.39119	1.57007	3.5406	68.15	-0.2354	-0.0005	0.2349	840.3843	0.142824	-363.858914	-363.851754	-363.85081	-363.890208	27.453	
C	-0.3023895404	 1.5459322088	 0.0071490154	-0.398926
C	 0.0120745219	 0.0632868622	-0.0073215068	 0.052808
C	 1.1397889759	-0.477589166	-0.9434070693	-0.274309
C	 1.7286263236	-1.2190949804	 0.2873311789	 0.033132
C	 2.9086842195	-0.5900079056	 1.0597486487	-0.38355
C	 1.8134614266	 0.252535488	 1.7591275971	 0.391776
O	 1.7967527573	 1.2229083985	 2.4602958523	-0.327823
N	 0.7542017749	-0.5017358849	 1.1852246696	-0.154288
H	 0.6007420292	 2.1522601584	 0.1152604838	 0.133065
H	-0.7956158838	 1.8235419111	-0.9304880538	 0.118429
H	-0.9737206737	 1.7952546066	 0.8338850227	 0.140025
H	-0.9117815959	-0.5117425143	-0.1264758368	 0.093512
H	 0.818337497	-1.1035754439	-1.7780115074	 0.110845
H	 1.7926769901	 0.3136755369	-1.3251279366	 0.109905
H	 1.6622050043	-2.3084684023	 0.2738454465	 0.086496
H	 3.4579297566	-1.2728063004	 1.7130707029	 0.135193
H	 3.6213098569	 0.0054749972	 0.4844429729	 0.133711
99.9416	156.3962	220.6098	323.7543	341.4887	412.4485	471.5689	541.9824	623.4999	720.0083	751.7046	833.5024	858.5763	881.4954	938.5128	970.9438	985.6645	1031.5224	1064.1022	1078.1394	1131.2862	1154.0201	1156.6111	1204.3081	1217.7733	1235.9065	1258.0372	1310.3009	1335.7108	1384.5382	1416.9873	1442.5335	1484.1523	1488.2973	1493.3829	1878.9115	3041.1954	3048.238	3055.9547	3070.532	3091.5583	3111.433	3119.8305	3125.8245	3129.2152
CC1CC2CC(=O)N12	C[C@H]1C[C@H]2CC(=O)N12	
InChI=1S/C6H9NO/c1-4-2-5-3-6(8)7(4)5/h4-5H,2-3H2,1H3	InChI=1S/C6H9NO/c1-4-2-5-3-6(8)7(4)5/h4-5H,2-3H2,1H3/t4-,5-/m0/s1
