16
gdb 31875	4.92479	0.98334	0.82388	1.9463	75.59	-0.2225	-0.018	0.2045	1322.3135	0.125199	-437.93777	-437.929558	-437.928614	-437.971059	30.474	
O	 0.0084003033	 1.4380333712	-0.0028799434	-0.42081
C	-0.002601176	 0.0211807688	-0.0322914726	-0.152689
C	-1.4280426531	-0.4764769616	 0.0131898116	 0.280649
N	-1.5708248112	-1.8078248926	-0.0079629878	-0.310778
C	-2.7966531728	-2.3167523256	 0.0294127429	-0.064488
C	-3.9511313624	-1.5285240235	 0.0900752366	 0.338767
O	-5.1548968834	-2.1641076073	 0.1240891693	-0.439038
C	-3.7997941203	-0.1458860635	 0.1119457679	-0.233154
C	-2.5161835642	 0.3892329906	 0.0728096699	-0.134013
H	 0.9229345266	 1.7305162134	-0.0341297233	 0.292435
H	 0.4758829703	-0.3700074158	-0.9438068087	 0.108469
H	 0.5451751087	-0.4072427219	 0.8216490892	 0.108494
H	-2.8959403537	-3.3993379935	 0.011546771	 0.112302
H	-5.8589414213	-1.5083635495	 0.1646244425	 0.298401
H	-4.6704042907	 0.5039385752	 0.1588215908	 0.092728
H	-2.3521283398	 1.4584544657	 0.0878862342	 0.122724
46.9027	131.2572	205.2526	215.4489	343.0445	352.9704	374.0822	430.5722	441.8285	531.1736	548.7645	653.3567	750.1339	750.5879	849.8907	866.2638	943.5633	965.0027	1033.9553	1044.5827	1092.0296	1144.5889	1187.714	1196.0164	1239.6997	1264.3946	1302.984	1315.8224	1336.046	1446.3222	1466.4368	1505.5617	1527.5655	1624.1292	1645.7668	2974.7759	2999.0366	3154.7672	3160.2177	3227.3636	3818.9447	3847.1147
OCC1=NC=C(O)C=C1	OCc1ncc(O)cc1	
InChI=1S/C6H7NO2/c8-4-5-1-2-6(9)3-7-5/h1-3,8-9H,4H2	InChI=1S/C6H7NO2/c8-4-5-1-2-6(9)3-7-5/h1-3,8-9H,4H2
