23
gdb 87218	2.84279	1.0755	0.98808	0.579	87.05	-0.2213	0.0912	0.3125	1362.3461	0.204353	-384.408363	-384.39837	-384.397426	-384.443384	37.286	
C	-0.510077414	 1.2477557501	 0.1447415808	-0.314702
N	-0.0866581268	-0.1379053161	 0.2725046736	-0.102316
C	 1.259954971	-0.4872304881	-0.1681593557	-0.302938
C	 0.9068112728	-0.5314668704	 1.2826294075	 0.333318
C	 1.5209695478	 0.4770090095	 2.2356182276	-0.458818
C	 0.6106534111	-1.8859297725	 1.9052266564	-0.199551
N	-0.3120071798	-1.7588776768	 3.029571098	-0.068869
C	-1.7333555391	-1.8100036558	 2.6939666745	-0.211859
C	-1.0698729375	-2.9565182787	 3.3733478825	-0.224389
H	 0.3013902937	 1.9884658403	 0.2147380146	 0.099422
H	-0.9922095875	 1.3759943466	-0.8301752957	 0.121445
H	-1.2491770199	 1.4756475687	 0.9194982515	 0.123574
H	 1.3536611711	-1.3987634032	-0.7550995874	 0.105158
H	 1.9157239755	 0.3226852843	-0.4881456304	 0.100397
H	 1.7440815431	 1.4288781323	 1.7501070474	 0.111832
H	 0.8552657175	 0.6565105848	 3.0841970035	 0.138713
H	 2.4613255984	 0.0825063313	 2.6359315762	 0.11818
H	 0.2186486131	-2.5565693194	 1.1217291078	 0.080997
H	 1.5419430303	-2.3259165247	 2.2858123892	 0.095952
H	-2.3749962705	-1.1370240327	 3.2559777868	 0.109814
H	-1.99781988	-1.9263888917	 1.6459886778	 0.125547
H	-0.8987638146	-3.8543420305	 2.7809245727	 0.106197
H	-1.2191569858	-3.1347047274	 4.4346263007	 0.112897
70.937	74.8287	141.5058	165.7096	171.3092	227.8219	291.8683	322.1499	348.7914	399.9667	449.9949	470.3852	513.1299	717.0235	758.1444	785.5887	842.5162	897.2119	904.0461	920.0818	970.0783	1005.126	1032.5386	1038.5511	1061.6568	1109.2096	1112.941	1116.7428	1123.0366	1150.8197	1167.8147	1174.3899	1189.4784	1212.7273	1267.9675	1314.5466	1319.5232	1361.5066	1402.4046	1420.5202	1447.4284	1476.4018	1484.77	1485.5242	1496.089	1500.1149	1511.8297	1516.2916	1525.4059	2954.2633	2976.8205	3036.6907	3045.3193	3062.9669	3079.4875	3093.5665	3098.2154	3105.4991	3108.5633	3136.5615	3160.9306	3177.2591	3196.1514
CN1CC1(C)CN1CC1	CN1C[C@]1(C)CN1CC1	
InChI=1S/C7H14N2/c1-7(5-8(7)2)6-9-3-4-9/h3-6H2,1-2H3	InChI=1S/C7H14N2/c1-7(5-8(7)2)6-9-3-4-9/h3-6H2,1-2H3/t7-,8?/m1/s1
