18
gdb 82218	2.49777	1.81477	1.38844	2.1559	70.06	-0.2273	0.0556	0.2829	972.3689	0.147847	-439.026991	-439.019143	-439.018198	-439.058798	31.66	
O	-0.0008565563	 1.431550704	-0.1578424871	-0.433587
C	 0.0201899439	 0.0181446003	 0.0204781022	-0.011927
C	 0.6207458358	-0.4619928574	 1.348226673	-0.056539
C	 0.1034381839	 0.0940869419	 2.6246449655	-0.252923
N	-0.3976159511	-1.1936719494	 2.132737556	-0.100728
C	-1.6325143949	-1.1810188913	 1.3445968582	-0.057737
C	-2.3748216822	 0.1000219453	 0.9924650258	-0.357793
C	-1.4165057981	-0.525061336	 0.0149772761	 0.408308
O	-1.8855554518	-1.1091602094	-1.1594165562	-0.470736
H	 0.9057608576	 1.7508589216	-0.1063710227	 0.285414
H	 0.550851376	-0.4646347894	-0.8117780003	 0.080182
H	 1.6104474356	-0.9113358794	 1.3159817767	 0.088963
H	 0.7117733715	 0.0222805438	 3.5222387433	 0.115564
H	-0.5337135614	 0.9708238739	 2.5874435076	 0.124903
H	-2.2177848012	-2.0892579831	 1.4297603571	 0.107174
H	-3.4276608499	-0.0374172466	 0.7681546333	 0.114675
H	-2.1314246773	 1.0519968805	 1.4461071845	 0.129725
H	-2.1901647499	-0.4013194991	-1.7383066229	 0.287062
127.9845	199.3957	253.7673	280.299	306.2301	344.9006	420.4543	439.342	492.3586	571.5985	628.027	664.3158	726.3586	765.0663	827.8139	867.2295	896.4585	959.5033	963.9947	988.1224	1011.3308	1034.3085	1060.5179	1087.4069	1096.418	1118.6905	1124.0484	1157.1618	1188.0448	1251.7129	1276.1521	1280.5448	1322.5245	1333.8123	1387.9371	1393.7386	1419.6345	1481.3592	1518.4912	3010.4399	3117.7625	3131.6653	3142.6109	3178.6264	3205.1228	3234.9217	3792.3771	3816.5588
OC1C2CN2C2CC12O	O[C@H]1[C@H]2CN2[C@H]2C[C@@]12O	
InChI=1S/C6H9NO2/c8-5-3-2-7(3)4-1-6(4,5)9/h3-5,8-9H,1-2H2	InChI=1S/C6H9NO2/c8-5-3-2-7(3)4-1-6(4,5)9/h3-5,8-9H,1-2H2/t3-,4+,5+,6+,7?/m1/s1
