21
gdb 72219	3.16441	1.66967	1.35234	1.5959	81.03	-0.2361	0.0758	0.3119	1028.3481	0.184448	-387.08654	-387.078899	-387.077954	-387.118645	30.947	
C	 0.0533024123	 1.553436882	 0.0708790963	-0.481438
C	-0.0592131141	 0.0579989761	-0.0568273858	 0.469504
C	 0.4413563187	-0.6716822111	-1.3230681239	-0.276665
C	-0.7381070663	-1.6916651823	-1.1956534691	-0.014947
C	-0.3838092543	-3.060572517	-0.5661056359	-0.224051
C	-0.5673646131	-2.9129792418	 0.9710378766	-0.225006
C	-0.8175096839	-1.4291014014	 1.2238344875	 0.130442
O	 0.398144991	-0.6340078222	 1.1389379887	-0.358417
C	-1.3581490694	-0.7990418255	-0.0698018822	-0.173732
H	 1.1053284506	 1.8447098842	 0.171454074	 0.126554
H	-0.3552739683	 2.0544307619	-0.8127018108	 0.112875
H	-0.4815077992	 1.9114340175	 0.955895569	 0.120674
H	 0.3516869983	-0.0498056733	-2.2194524723	 0.092629
H	 1.4574361541	-1.0723183092	-1.2636919594	 0.097531
H	-1.3273123937	-1.7949854072	-2.1079586865	 0.066704
H	-1.0389131479	-3.8466203315	-0.9538651331	 0.095904
H	 0.6380767378	-3.3511482347	-0.8274088507	 0.103577
H	-1.4349764894	-3.4878011297	 1.3155468743	 0.095115
H	 0.298073789	-3.2598626631	 1.5430376295	 0.11037
H	-1.345739774	-1.2253289651	 2.1622349873	 0.066869
H	-2.3753039781	-0.4191018266	-0.1433553336	 0.065508
61.4136	204.9983	216.8669	253.3398	363.4251	387.9181	412.305	562.3807	638.3401	699.6445	732.6	779.0582	803.2354	849.9837	855.4009	883.9643	904.4432	913.3778	946.3309	964.5074	975.3053	1008.2341	1043.685	1068.3449	1104.814	1139.1143	1162.2693	1187.7471	1199.4534	1201.2246	1232.4603	1243.8014	1264.5828	1283.9657	1310.9362	1327.3406	1333.6119	1344.2834	1369.1418	1409.6473	1463.8845	1473.0472	1481.1517	1488.9051	1502.0944	3029.086	3030.1993	3043.2355	3044.6306	3053.3545	3078.27	3090.361	3096.7903	3099.3615	3104.9541	3109.9424	3130.4241
CC12CC3CCC(O1)C23	C[C@@]12C[C@H]3CC[C@@H](O1)[C@@H]23	
InChI=1S/C8H12O/c1-8-4-5-2-3-6(9-8)7(5)8/h5-7H,2-4H2,1H3	InChI=1S/C8H12O/c1-8-4-5-2-3-6(9-8)7(5)8/h5-7H,2-4H2,1H3/t5-,6-,7+,8+/m1/s1
