20
gdb 19566	3.67079	1.98784	1.83178	0.0539	78.51	-0.2647	0.0972	0.3619	845.0421	0.180017	-311.84547	-311.838861	-311.837917	-311.875741	27.787	
C	 0.0034672229	 1.4882040563	 0.0102579279	-0.367099
C	 1.3392145604	 0.7544676397	-0.0070015851	-0.370658
C	 0.05329824	-0.0020968351	 0.0016297857	 0.472687
C	-0.5537036338	-0.9719165894	 1.0325963918	-0.099438
C	-1.7228191514	-1.1254931722	 0.0131174495	-0.220788
C	-0.574140828	-0.9606736248	-1.0276153609	-0.099437
C	 0.2520086137	-2.2443112207	-0.7969083859	-0.206268
C	 0.267569999	-2.2528693377	 0.7715517001	-0.206268
H	-0.2817200567	 1.9965978621	 0.926510771	 0.108853
H	-0.2997928496	 2.0065426482	-0.8945477398	 0.108853
H	 1.9207239013	 0.7840886118	-0.9236632269	 0.108472
H	 1.9388105344	 0.7741484205	 0.898203259	 0.108472
H	-0.7236340015	-0.6792987938	 2.0699023948	 0.055304
H	-2.2820785001	-2.0665111075	 0.0135301186	 0.081749
H	-2.4042195603	-0.2730255784	 0.0245279895	 0.09813
H	-0.7645836346	-0.656771601	-2.0580911942	 0.055304
H	-0.2312629538	-3.1302068335	-1.2194882639	 0.091496
H	 1.2562733863	-2.1711791176	-1.2234381681	 0.094571
H	 1.2801071789	-2.1842873891	 1.1788460053	 0.094571
H	-0.207319347	-3.1433752179	 1.1939441417	 0.091495
179.0259	228.9741	251.1793	337.8367	409.0161	547.0016	588.9279	664.5611	774.8879	813.49	835.0068	841.1129	865.4254	902.067	914.6976	939.8988	942.768	967.6527	979.7535	1007.8653	1019.2363	1045.6414	1056.748	1077.2269	1091.4624	1136.9041	1148.5427	1181.3562	1208.9947	1220.0371	1236.2737	1257.4239	1258.7723	1264.4433	1317.3614	1321.3043	1406.1958	1464.1766	1490.7639	1491.3816	1507.026	1522.0769	3047.7265	3049.1421	3057.3612	3085.8329	3100.9982	3104.4093	3104.5172	3115.1213	3119.2452	3123.332	3190.8393	3205.4879
C1CC11C2CC1CC2	C1CC21[C@H]1C[C@@H]2CC1	
InChI=1S/C8H12/c1-2-7-5-6(1)8(7)3-4-8/h6-7H,1-5H2	InChI=1S/C8H12/c1-2-7-5-6(1)8(7)3-4-8/h6-7H,1-5H2/t6-,7+
