25
gdb 89841	2.71986	1.21921	1.03294	0.2574	92.15	-0.2577	0.0798	0.3375	1323.563	0.229699	-352.367787	-352.358302	-352.357358	-352.401982	37.537	
C	-0.2235191899	 1.5881594427	-0.011732157	-0.41652
C	-0.0438537062	 0.0744179378	 0.0860873405	 0.047705
C	 0.6149262007	-0.5748079959	-1.1507419077	-0.30229
C	 1.1620804509	-1.9191755233	-0.6479404767	 0.40226
C	 0.9721267119	-3.1904470228	-1.4344908132	-0.32042
C	 2.3423534711	-2.5661450692	-1.3290675886	-0.312447
C	 1.0237095732	-1.926779545	 0.8828410994	-0.298319
C	 0.8094124044	-0.4480259398	 1.2730714249	 0.008812
C	 2.1389102229	 0.294820098	 1.4660221289	-0.394451
H	 0.7314013461	 2.0982934495	-0.17579836	 0.115049
H	-0.8821739734	 1.8497790717	-0.846959199	 0.110143
H	-0.6699596597	 1.9982356797	 0.9010959684	 0.108782
H	-1.0393466917	-0.3767459737	 0.2031315815	 0.067982
H	-0.0923573479	-0.6884991739	-1.9789374281	 0.091923
H	 1.4299267561	 0.0622371189	-1.5178259514	 0.09383
H	 0.7860983212	-4.1081767263	-0.8842588837	 0.104695
H	 0.4555978814	-3.1328610243	-2.3877673915	 0.10492
H	 2.7503137644	-2.0815019548	-2.2111686155	 0.104289
H	 3.0846794091	-3.0630255225	-0.7120084738	 0.105282
H	 0.144904975	-2.5145755429	 1.1761351512	 0.091958
H	 1.8895701507	-2.3733984128	 1.3829511913	 0.08792
H	 0.2397352778	-0.3735157805	 2.2069656577	 0.058573
H	 2.7615690652	 0.2579285601	 0.5656178347	 0.119021
H	 1.9828880206	 1.3472740558	 1.7215901216	 0.111887
H	 2.7140757063	-0.1604353163	 2.2791056962	 0.109414
39.182	133.1568	211.8291	221.1136	249.297	272.7772	294.998	347.2077	387.2575	408.668	449.1675	514.4561	618.5688	759.4273	773.2372	779.9928	840.4364	869.4013	892.2562	935.0044	937.4912	951.8666	957.9478	985.8174	1022.638	1036.624	1054.7182	1079.303	1091.8071	1101.3467	1121.8816	1164.4008	1189.7953	1211.0017	1226.4259	1261.4449	1280.5086	1297.3308	1313.6201	1336.971	1367.7145	1381.7442	1384.8386	1411.1564	1413.3171	1465.5722	1486.7843	1495.0344	1496.1342	1497.3972	1502.5092	1505.8759	1509.5224	2996.0039	3018.0141	3020.0673	3027.2953	3032.6594	3036.4179	3066.2276	3069.1573	3090.7784	3095.2697	3099.5076	3104.6679	3114.0756	3118.8587	3191.4595	3207.6023
CC1CC2(CC2)CC1C	C[C@H]1CC2(CC2)C[C@H]1C	
InChI=1S/C9H16/c1-7-5-9(3-4-9)6-8(7)2/h7-8H,3-6H2,1-2H3	InChI=1S/C9H16/c1-7-5-9(3-4-9)6-8(7)2/h7-8H,3-6H2,1-2H3/t7-,8+
