15
gdb 29053	2.78938	1.71618	1.06248	2.6603	88.19	-0.2087	-0.0766	0.1321	1053.5428	0.114938	-413.00328	-412.995646	-412.994702	-413.035841	28.835	
N	 0.0149666303	 1.3409446366	 0.0871054586	-0.543494
C	-0.012815955	-0.0033549916	 0.0430901572	 0.322928
C	-1.2172566357	-0.6903347209	 0.0188458661	-0.079051
N	-1.502368435	-2.001968552	-0.0248211768	-0.242164
C	-0.6632380978	-2.9989017516	-0.0565153689	 0.055792
N	 0.6976878221	-3.0500015623	-0.0568040179	-0.253841
C	 1.5176658824	-2.0504251826	-0.0227963965	-0.025618
C	 1.3372363182	-0.6031589979	 0.0253927737	 0.227228
N	 2.3242943643	 0.2316926206	 0.0549822096	-0.553353
H	 0.9315059468	 1.7688149786	 0.1036418138	 0.287198
H	-0.8250990582	 1.8910541596	 0.1048511888	 0.26695
H	-2.1053512142	-0.0559616055	 0.0385840259	 0.092886
H	-1.1211329164	-3.9853872753	-0.0895189994	 0.114914
H	 2.5775186491	-2.3277114265	-0.0311551213	 0.107696
H	 3.2214613192	-0.2539926894	 0.0403355371	 0.221928
49.8316	132.3176	255.5505	338.7803	375.2078	380.4205	399.2974	481.9585	498.7108	615.8939	662.0345	689.4125	755.2951	757.1825	847.9718	851.942	895.7918	941.4423	975.0766	1029.7471	1069.671	1133.9299	1246.8867	1325.0318	1398.7044	1425.8713	1440.064	1487.3444	1507.2018	1573.1983	1587.0747	1628.675	1641.5215	3063.8965	3101.0914	3149.6909	3471.8277	3543.3756	3723.1512
NC1=CN=CN=CC1=N	NC1=CN=C[N]C=C1[NH]	
InChI=1S/C5H6N4/c6-4-1-8-3-9-2-5(4)7/h1-3H,(H3,6,7)	InChI=1S/C5H6N4/c6-4-1-8-3-9-2-5(4)7/h1-3H,(H3,6,7)
