17
gdb 48751	3.09704	1.44628	1.18611	4.0353	75.58	-0.2349	-0.022	0.213	1058.5338	0.135856	-421.818491	-421.810829	-421.809884	-421.850644	29.595	
O	-0.0124177042	 0.0332169049	 0.2369793934	-0.263677
C	 0.0774104163	 1.1818844737	-0.1049285118	 0.123183
C	 1.3024081538	 2.0197868652	-0.0073013927	 0.335238
C	 1.0857270763	 3.5104770874	 0.1576429272	-0.359313
C	 1.5469684061	 2.9764670791	-1.1829109443	-0.148094
C	 2.9717671335	 3.1046776986	-1.5665497445	-0.046619
C	 3.9453793941	 2.6545218612	-0.7756495015	-0.096471
C	 3.6446336171	 1.9670979579	 0.5265508594	-0.138271
O	 2.3663119597	 1.3383518831	 0.5535419266	-0.2859
H	-0.7845839665	 1.7359465058	-0.5460954527	 0.067926
H	 0.0643824284	 3.8657046264	 0.2477470216	 0.128684
H	 1.8091829381	 4.0578903717	 0.750121675	 0.137384
H	 0.8210735993	 2.9785348847	-1.9896759582	 0.103035
H	 3.1962699896	 3.571981492	-2.5203176069	 0.102419
H	 4.9897721496	 2.7620058097	-1.0503193007	 0.103284
H	 4.3605772618	 1.159732157	 0.7107530953	 0.12905
H	 3.7383309668	 2.6683966714	 1.3734387947	 0.108142
96.9217	157.6691	213.1256	224.7585	345.8838	388.0421	441.8081	506.1356	549.157	592.4821	709.8912	754.9498	771.733	830.4611	852.6531	909.8624	928.9149	983.8949	1009.9904	1027.0613	1041.976	1051.8855	1060.3953	1106.8676	1139.7427	1200.2647	1235.778	1265.3993	1306.0179	1376.7437	1408.2697	1422.3468	1442.4228	1470.551	1505.7457	1713.2241	1834.3552	2851.7734	2953.2031	3071.5878	3134.7847	3155.9347	3170.0199	3190.8235	3228.4147
O=CC12CC1C=CCO2	O=C[C@]12C[C@H]1C=CCO2	
InChI=1S/C7H8O2/c8-5-7-4-6(7)2-1-3-9-7/h1-2,5-6H,3-4H2	InChI=1S/C7H8O2/c8-5-7-4-6(7)2-1-3-9-7/h1-2,5-6H,3-4H2/t6-,7-/m1/s1
