17
gdb 71046	3.19379	2.14097	1.67928	3.9191	75.92	-0.2099	-0.0447	0.1652	838.2267	0.136804	-380.743191	-380.73671	-380.735766	-380.773433	27.693	
C	 0.087170089	 1.4273990214	-0.1276334233	-0.490369
C	-0.0141046429	-0.0726050342	 0.0025627811	 0.341461
N	 0.1763976465	-0.8528416042	-1.3571151545	-0.371293
C	-0.5740193638	-1.8379966084	-0.5666391036	 0.070852
N	 0.1679896598	-2.702142745	 0.0304272231	-0.139592
C	 0.2230737127	-2.2259490462	 1.3724908285	-0.025
C	-0.8181622833	-1.1727142398	 1.7408108727	-0.108771
C	 0.575369886	-0.7092344716	 1.3250581361	-0.131938
C	-1.320749875	-0.8195744879	 0.3566150205	-0.144397
H	 1.1157633689	 1.7264026991	-0.3528465192	 0.142681
H	-0.5606460573	 1.7936017857	-0.931246737	 0.120667
H	-0.2170528825	 1.911564644	 0.8048673739	 0.135838
H	-0.4473360767	-0.3348517547	-1.9862042875	 0.216315
H	 0.6922766955	-2.8336670664	 2.1371586629	 0.104465
H	-1.3272605867	-1.1185368619	 2.6920946351	 0.100001
H	 1.3773788905	-0.2958677958	 1.9214734081	 0.097665
H	-2.3076968107	-0.4484158141	 0.0936771331	 0.081415
226.3127	232.0036	285.9978	404.7663	486.333	528.229	600.9369	662.651	692.1887	712.1441	735.3153	773.9892	796.1962	825.6934	839.6302	892.4681	927.042	933.554	982.3453	1006.7339	1020.1502	1025.3324	1054.8616	1062.3839	1104.5072	1142.7838	1157.2545	1203.5117	1213.0043	1246.0778	1279.0157	1324.1419	1346.0057	1403.4892	1483.7232	1488.6014	1553.2671	3033.4516	3102.4955	3114.9803	3151.0528	3191.19	3207.3175	3223.4347	3373.6259
CC12NC3=NC4C(C14)C23	C[C@@]12N[C]3[N][C@@H]4[C@@H]([C@H]14)[C@@H]23	
InChI=1S/C7H8N2/c1-7-3-2-4(7)6(9-7)8-5(2)3/h2-5H,1H3,(H,8,9)	InChI=1S/C7H8N2/c1-7-3-2-4(7)6(9-7)8-5(2)3/h2-5H,1H3,(H,8,9)/t2-,3-,4+,5+,7+/m0/s1
