21
gdb 112606	2.84872	1.02668	0.89318	1.6094	80.15	-0.2491	-0.022	0.2272	1400.2763	0.179591	-424.220887	-424.210849	-424.209905	-424.256391	36.188	
C	 0.5946118236	 1.6380527854	-0.7140035906	-0.242444
O	-0.1791637295	 0.459281425	-0.6671706049	-0.24246
C	 0.5485261416	-0.6925064098	-0.9952700692	 0.173733
C	 1.5137354004	-1.2928527591	 0.0686582775	-0.305268
C	 0.8983053011	-2.6914399581	-0.2103406134	 0.218051
C	 0.536308606	-3.5814807565	 0.9765471361	-0.469915
C	-0.2976548414	-1.9780943951	-0.9430142029	-0.313692
C	 1.688599456	-3.4837983033	-1.2293642122	 0.123795
O	 2.7052569534	-3.1257921107	-1.7679697496	-0.256039
H	 1.423690171	 1.6162404411	 0.0090021522	 0.110254
H	 1.0176172203	 1.8056713797	-1.7168020031	 0.107547
H	-0.0668752438	 2.4711959819	-0.4650298949	 0.12672
H	 1.0561585791	-0.5671774465	-1.9630325479	 0.079367
H	 2.5859919492	-1.2004054754	-0.1081115225	 0.118571
H	 1.2581681904	-0.9360000744	 1.0700504008	 0.101378
H	-0.1206902848	-3.0464108951	 1.6682467263	 0.125636
H	 0.0125365507	-4.4876942367	 0.6500624882	 0.121158
H	 1.4298270819	-3.8909116969	 1.5302343277	 0.127543
H	-1.1463250508	-1.8496235406	-0.2659028157	 0.117004
H	-0.6521973761	-2.3995160181	-1.887417263	 0.10597
H	 1.2284061116	-4.4696282968	-1.4797994586	 0.073092
53.672	76.5264	104.4577	172.6937	216.8592	228.29	265.5772	293.2186	313.54	358.5787	445.0169	458.605	573.8437	605.3154	755.6161	835.6028	861.6985	916.8522	925.2454	974.3572	999.5435	1016.7243	1042.0816	1087.6475	1137.2643	1157.4068	1174.9766	1185.4308	1217.3476	1232.3911	1247.0252	1273.6979	1292.3657	1309.0703	1394.0561	1407.0433	1421.867	1458.4903	1478.9325	1485.4635	1489.7707	1495.242	1499.2785	1509.6802	1822.5048	2846.7906	2976.5265	2995.7781	3025.0672	3025.2385	3056.8424	3067.5544	3090.3563	3107.2249	3115.6779	3115.8737	3137.3731
COC1CC(C)(C1)C=O	CO[C@H]1C[C@@](C)(C1)C=O	
InChI=1S/C7H12O2/c1-7(5-8)3-6(4-7)9-2/h5-6H,3-4H2,1-2H3	InChI=1S/C7H12O2/c1-7(5-8)3-6(4-7)9-2/h5-6H,3-4H2,1-2H3/t6-,7-
