19
gdb 70267	3.74832	1.07874	0.95246	1.352	81.3	-0.2516	0.0533	0.3049	1260.0329	0.159	-385.854898	-385.846439	-385.845494	-385.88753	33.736	
O	-0.0403716667	 1.2799765406	-0.9518333821	-0.469428
C	-0.0629873213	 0.0605247056	-0.2727695905	 0.406916
C	-0.0756677057	-1.226008478	-1.0621476659	-0.356638
C	-1.313985129	-0.7737836913	-0.3040962875	-0.077514
C	-1.5530126886	-1.3398536549	 1.0843896633	-0.225187
C	-0.1737948216	-1.2102459327	 1.8039660535	-0.190917
C	 0.4952138625	 0.0286233347	 1.1423961729	-0.288657
C	-0.2699081607	-1.1297151435	 3.2532281469	 0.282663
C	-0.3594257214	-1.0513121196	 4.4497882288	-0.41863
H	 0.8539025533	 1.4216108805	-1.2810071455	 0.28158
H	-0.1202346016	-1.1095170119	-2.1394274769	 0.111458
H	 0.4885885425	-2.0908926417	-0.7261279607	 0.108372
H	-2.1636822881	-0.445283528	-0.8912694997	 0.095986
H	-2.2988999553	-0.7319098717	 1.6070451171	 0.115794
H	-1.9088627893	-2.3747977201	 1.0903209981	 0.10646
H	 0.4247195181	-2.0947872267	 1.5554418759	 0.108651
H	 1.5880328093	-0.0272782717	 1.1916288196	 0.098355
H	 0.1831204702	 0.9458420513	 1.652275661	 0.120697
H	-0.4354376767	-0.9861499609	 5.5067063516	 0.190039
100.1483	144.8024	220.101	267.5416	294.4657	353.5753	375.7557	426.2574	504.7852	510.3822	546.8201	581.4372	620.7284	632.2015	711.8731	833.6274	844.902	891.7133	902.1983	926.3916	970.0413	1021.161	1038.3722	1047.297	1068.2643	1094.8378	1104.8507	1157.3736	1212.1736	1244.0319	1265.1452	1291.0246	1312.1282	1324.8783	1335.5004	1366.4313	1411.4996	1483.7043	1490.3966	1508.4509	2236.184	3027.818	3042.686	3047.7942	3088.3373	3092.0912	3123.5369	3181.0606	3213.8614	3505.2825	3796.9098
OC12CC1CC(C2)C#C	O[C@]12C[C@H]1C[C@@H](C2)C#C	
InChI=1S/C8H10O/c1-2-6-3-7-5-8(7,9)4-6/h1,6-7,9H,3-5H2	InChI=1S/C8H10O/c1-2-6-3-7-5-8(7,9)4-6/h1,6-7,9H,3-5H2/t6-,7+,8+/m0/s1
