18
gdb 96730	2.41559	1.21354	0.85963	3.44	77.47	-0.2347	-0.0201	0.2146	1335.0943	0.146906	-435.2488	-435.239146	-435.238201	-435.284952	33.407	
C	-0.0101309405	 1.6013321758	 0.0424725118	-0.329043
N	 0.0935278907	 0.1621892561	-0.0489204697	-0.228997
C	 0.6090023931	-0.5167658992	 0.8847555024	 0.335245
N	 0.7261236902	-1.9194555116	 0.7768077077	-0.346729
C	 0.2283742113	-2.7797202563	-0.188610586	 0.160434
O	-0.4805771125	-2.5036652138	-1.1179165311	-0.263341
C	 1.2048474591	-0.0113612126	 2.1799188919	-0.114101
C	 0.3564092602	 0.5874120218	 3.2396292602	-0.220899
N	 0.9714486587	-0.7352512076	 3.447764187	-0.32747
H	 0.5159826094	 2.0427512858	-0.8119686472	 0.135165
H	-1.0629824495	 1.8890785847	-0.0614311657	 0.133192
H	 0.3861023332	 2.0512276071	 0.9621475996	 0.107088
H	 1.2998617465	-2.3575526004	 1.4820104484	 0.261538
H	 0.5752324757	-3.8131434128	 0.0248879229	 0.075712
H	 2.2258879745	 0.3542923994	 2.0846044488	 0.125123
H	 0.7540715448	 1.3845646103	 3.8606729987	 0.130018
H	-0.7143416341	 0.6353515254	 3.0642247495	 0.131498
H	 0.2581105392	-1.4481482719	 3.3045502709	 0.235566
21.7692	76.2019	119.8547	158.7122	190.0502	196.4462	246.801	308.7642	327.2247	431.2209	546.5949	607.3441	648.6114	735.2536	851.5876	867.8073	887.1533	971.0079	1013.5665	1022.596	1059.156	1095.1146	1128.9955	1132.0886	1155.6195	1164.5821	1197.3854	1237.3571	1278.287	1302.7002	1392.3421	1438.9983	1451.6484	1488.7053	1495.8658	1509.1203	1526.319	1755.2837	1846.1607	2905.6542	3004.7428	3071.3625	3075.1579	3116.5764	3121.4127	3204.9626	3481.6073	3618.6593
CN=C(NC=O)C1CN1	CN=C(NC=O)[C@H]1CN1	
InChI=1S/C5H9N3O/c1-6-5(8-3-9)4-2-7-4/h3-4,7H,2H2,1H3,(H,6,8,9)	InChI=1S/C5H9N3O/c1-6-5(8-3-9)4-2-7-4/h3-4,7H,2H2,1H3,(H,6,8,9)/t4-/m1/s1
