19
gdb 91184	2.13275	1.73507	1.54241	2.5647	75.1	-0.24	0.0094	0.2494	1007.3686	0.158865	-423.019651	-423.011363	-423.010419	-423.052285	32.37	
C	 0.2854828083	 1.4974758669	-0.2669865083	-0.410862
C	 0.0460595781	 0.0479651562	 0.1057284644	 0.110575
O	 0.5971623178	-0.8711847735	-0.8708839426	-0.320402
C	 1.3588302108	-1.5770188948	 0.1462322083	 0.071084
C	 2.8382052539	-1.3282273876	 0.081387143	-0.084096
C	 3.2226259331	-0.4347234106	 0.9945516009	-0.059643
C	 2.0826558896	 0.0745501115	 1.8479729083	-0.3523
C	 0.8441067679	-0.6399104373	 1.2602989278	 0.303597
O	 0.0497296335	-1.2942680093	 2.2227925663	-0.480716
H	 1.3520132949	 1.7089642026	-0.3826450454	 0.126009
H	-0.205693178	 1.7181736005	-1.2199725891	 0.129352
H	-0.1316721643	 2.1710687269	 0.4903092318	 0.108219
H	-1.0276545111	-0.1430440465	 0.2402560219	 0.073591
H	 1.0635079989	-2.6297724918	 0.2056471657	 0.086927
H	 3.4880638605	-1.8181075965	-0.6344475997	 0.101272
H	 4.242448356	-0.0920819898	 1.1379817335	 0.099934
H	 2.2065103418	-0.213574316	 2.8999666761	 0.11139
H	 2.0070856452	 1.1684489847	 1.82460026	 0.107303
H	-0.278920627	-0.6346836956	 2.8433140069	 0.278767
68.8142	216.2472	219.9001	231.3393	251.14	315.0994	363.9932	430.6355	488.5208	500.9614	588.053	663.6256	731.6174	793.8938	817.0145	878.0557	913.2323	954.8372	968.6306	979.8687	998.5949	1015.446	1039.5678	1091.7896	1109.5273	1128.653	1138.4653	1193.877	1225.7794	1245.8912	1293.8696	1306.9092	1311.749	1356.2062	1385.276	1399.8357	1405.8204	1473.6713	1481.882	1497.9232	1676.0331	3005.3888	3021.5716	3032.8042	3055.1218	3057.1378	3101.3993	3117.627	3178.7401	3208.8056	3802.6192
CC1OC2C=CCC12O	C[C@H]1O[C@H]2C=CC[C@@]12O	
InChI=1S/C7H10O2/c1-5-7(8)4-2-3-6(7)9-5/h2-3,5-6,8H,4H2,1H3	InChI=1S/C7H10O2/c1-5-7(8)4-2-3-6(7)9-5/h2-3,5-6,8H,4H2,1H3/t5-,6+,7-/m1/s1
