21
gdb 96530	2.31519	1.46612	0.98852	3.2699	78.26	-0.2593	-0.0245	0.2347	1231.6294	0.183912	-424.266935	-424.258328	-424.257384	-424.300514	33.541	
O	 0.1639306774	 1.4289882173	 0.1472951465	-0.444395
C	 0.08151747	 0.0316315126	 0.0726055273	 0.050538
C	-1.3914510087	-0.4216770998	 0.2031116024	-0.215149
C	-1.5979867292	-1.8572321952	 0.6967442978	-0.200971
C	-1.1155631738	-2.9672345718	-0.2456647067	-0.183409
C	 0.3936569517	-2.9582464183	-0.5392772715	-0.212565
C	 0.8510495003	-1.9162886303	-1.5680925669	-0.286427
C	 0.7173331387	-0.4382119748	-1.2366054728	 0.358458
O	 1.1204311407	 0.401898777	-2.0163975606	-0.336657
H	 0.5841170142	 1.7001712653	-0.6865833348	 0.29067
H	 0.6543626308	-0.4222544222	 0.9011049623	 0.084291
H	-1.8417344222	 0.273800488	 0.9178783989	 0.12225
H	-1.909557112	-0.2597718994	-0.7512463081	 0.099233
H	-1.0953783722	-1.9733017185	 1.6673596489	 0.0987
H	-2.6668514741	-2.002732151	 0.8918114793	 0.100522
H	-1.3781970701	-3.9330178268	 0.2013614515	 0.099081
H	-1.6669933999	-2.912974688	-1.1949518815	 0.094582
H	 0.9522323051	-2.8380653746	 0.3980736079	 0.103081
H	 0.6809981214	-3.9401156037	-0.9316597074	 0.10439
H	 1.9090761431	-2.0653548609	-1.8154824936	 0.13677
H	 0.3144533783	-2.0656398048	-2.5145844091	 0.137006
42.645	122.2094	231.6835	263.6528	308.6429	342.2272	364.0448	382.2836	463.9323	499.44	513.5174	573.1851	596.3677	768.0463	807.97	813.7058	843.3617	899.6071	941.4177	990.2389	1013.3509	1058.2286	1064.974	1112.3015	1121.5597	1165.6178	1190.9262	1211.6622	1229.1079	1278.6253	1295.2178	1303.5485	1337.7877	1366.7585	1377.2895	1383.0531	1389.84	1395.6505	1438.7976	1451.4197	1482.562	1484.1726	1493.0926	1497.3653	1778.3394	2944.3075	3008.6027	3012.8711	3024.7105	3026.8814	3028.3888	3058.3869	3061.5539	3065.1784	3069.0542	3085.9651	3652.5559
OC1CCCCCC1=O	O[C@H]1CCCCCC1=O	
InChI=1S/C7H12O2/c8-6-4-2-1-3-5-7(6)9/h6,8H,1-5H2	InChI=1S/C7H12O2/c8-6-4-2-1-3-5-7(6)9/h6,8H,1-5H2/t6-/m0/s1
