18
gdb 19820	3.51152	2.18803	1.8518	1.6869	70.06	-0.2497	0.0716	0.3213	799.8091	0.154415	-347.742646	-347.735891	-347.734947	-347.773169	27.271	
C	-0.2221327105	 1.5892308632	-0.0225199884	-0.415654
C	 0.0444511107	 0.0903320072	 0.0045152073	 0.042511
C	 1.163953345	-0.5045946737	-0.9192454931	-0.257259
C	 1.7845262345	-1.2429061523	 0.3039533451	-0.057601
C	 2.9061460187	-0.4946986756	 1.0675206455	 0.014428
O	 2.663305537	 0.9099751833	 0.9409780528	-0.233736
C	 1.9193847082	 0.1851466958	 1.9298390547	 0.015191
C	 0.7422865823	-0.5545004212	 1.2446549344	-0.076133
H	 0.6989023291	 2.1556830811	 0.1306619772	 0.140727
H	-0.6517226558	 1.8891290642	-0.9851319495	 0.10896
H	-0.935838284	 1.8754016883	 0.758833597	 0.105668
H	-0.8947540193	-0.4450703252	-0.1738522693	 0.069836
H	 0.7949631696	-1.1679491095	-1.704782616	 0.09265
H	 1.8224255577	 0.2439656127	-1.3640097303	 0.110127
H	 1.881795418	-2.3274948323	 0.2684763937	 0.071413
H	 3.9323403881	-0.7952974129	 1.2497161057	 0.100482
H	 1.9905960667	 0.5508373466	 2.9485633183	 0.100746
H	 0.1332704039	-1.1378578298	 1.9369570049	 0.067644
151.5675	218.9069	228.8853	317.4778	364.125	471.3492	617.2398	649.4278	723.0399	789.471	809.9159	826.7819	859.0874	880.5698	898.2883	936.6465	944.5866	975.8493	1005.1272	1047.6402	1069.5291	1092.0724	1118.6727	1122.8048	1192.4364	1200.9093	1228.5978	1246.0894	1251.499	1273.4407	1294.7153	1319.6136	1358.8244	1381.7387	1405.4024	1471.124	1492.4145	1509.7912	3027.4978	3035.8934	3066.7847	3084.8572	3098.4527	3115.889	3126.26	3131.2233	3166.3861	3181.6038
CC1CC2C3OC3C12	C[C@H]1C[C@H]2[C@H]3O[C@H]3[C@@H]12	
InChI=1S/C7H10O/c1-3-2-4-5(3)7-6(4)8-7/h3-7H,2H2,1H3	InChI=1S/C7H10O/c1-3-2-4-5(3)7-6(4)8-7/h3-7H,2H2,1H3/t3-,4+,5-,6+,7-/m0/s1
