20
gdb 70722	2.57773	1.59007	1.23143	2.1328	80.63	-0.2227	0.0295	0.2522	1090.837	0.172383	-403.145852	-403.137681	-403.136736	-403.178335	32.158	
C	 0.1905053252	 1.5981963956	 0.2073433907	-0.42655
C	 0.1382984772	 0.0849973651	 0.1010594878	 0.337387
C	-0.9439465183	-0.6341495706	 0.87171381	-0.324021
C	 0.4966221964	-0.7385925615	 1.3244958267	-0.067718
C	 1.284640184	-2.0262461914	 1.1758117444	-0.254161
C	 2.5124463508	-1.840761712	 0.2914485273	-0.059938
O	 2.2141774277	-1.908538085	-1.1092648906	-0.224004
C	 1.247447737	-1.1494678216	-1.6796781761	 0.113357
N	 0.3802814637	-0.3416299934	-1.2474643322	-0.309631
H	 1.2023372973	 1.9699288615	 0.0107110236	 0.11261
H	-0.4811551164	 2.0499734285	-0.5288977966	 0.128096
H	-0.1082542529	 1.9330052762	 1.205140032	 0.107049
H	-1.6409349955	-0.0433918459	 1.4570454695	 0.107887
H	-1.3778957972	-1.5127911409	 0.4049835273	 0.113945
H	 0.7635227803	-0.1556482999	 2.202807257	 0.08169
H	 1.6121249362	-2.3769807706	 2.1609976812	 0.10729
H	 0.6735331282	-2.8303104131	 0.7501876116	 0.114646
H	 3.0071417374	-0.8854715908	 0.5112897266	 0.110882
H	 3.2394670794	-2.6434164242	 0.4433662747	 0.113449
H	 1.2785998694	-1.3476495961	-2.7518905649	 0.117735
84.4652	164.3579	227.599	261.4812	313.4762	335.1182	360.8099	423.3988	436.1472	571.0146	578.4294	680.1023	747.504	812.0323	837.2683	869.8358	927.2684	951.124	954.7608	969.264	983.3581	1033.7559	1055.3828	1089.7573	1120.4216	1124.3404	1154.356	1172.3513	1227.2702	1266.4924	1293.0808	1320.8186	1359.8055	1409.5452	1412.6704	1420.7915	1446.1787	1474.289	1481.3827	1487.7906	1503.4072	1504.6459	1756.1362	3021.1099	3031.0595	3036.7026	3075.9546	3091.0536	3096.7998	3113.3454	3124.0514	3130.0789	3130.9241	3212.7663
CC12CC1CCOC=N2	C[C@]12C[C@H]1CCOC=N2	
InChI=1S/C7H11NO/c1-7-4-6(7)2-3-9-5-8-7/h5-6H,2-4H2,1H3	InChI=1S/C7H11NO/c1-7-4-6(7)2-3-9-5-8-7/h5-6H,2-4H2,1H3/t6-,7+/m1/s1
