18
gdb 99346	6.13525	0.63165	0.59664	6.8666	75.16	-0.2556	0.0377	0.2933	1817.9805	0.147148	-435.320994	-435.310499	-435.309554	-435.357859	35.396	
C	 0.5067036033	 1.267709226	 0.1946839008	-0.327268
N	-0.1286039221	 0.034403651	-0.2328676853	-0.360733
C	 0.5238191873	-0.8315060318	-1.0779255831	 0.495537
O	 1.5764451047	-0.5682364682	-1.6380652241	-0.404733
N	-0.1125008727	-2.0508884407	-1.2523220161	-0.371345
C	 0.3530631346	-2.935500507	-2.308510327	-0.154456
C	 1.6461239488	-3.6704426139	-1.8907366416	-0.319852
C	 2.0818779757	-4.6235311969	-2.9062937147	 0.253555
N	 2.4018819881	-5.3781926861	-3.7209825013	-0.307224
H	 1.0107709444	 1.1663664251	 1.1645416917	 0.123141
H	 1.2530603053	 1.5308947882	-0.5548772375	 0.172456
H	-0.2334885475	 2.0700876352	 0.2649352708	 0.124763
H	-0.8504819874	-0.3416119208	 0.3605028172	 0.238134
H	-1.0940661007	-2.1009637954	-1.0313855783	 0.241317
H	-0.4357251986	-3.663606495	-2.5112540617	 0.120582
H	 0.5492929817	-2.3758836218	-3.2290463586	 0.144657
H	 2.4283989806	-2.9244913917	-1.7259808789	 0.185226
H	 1.4834702344	-4.201067796	-0.9466419923	 0.146242
55.1753	59.9064	78.9879	92.4761	138.3621	180.0129	223.6795	296.6767	334.8111	361.2093	403.6985	459.8991	493.9703	591.4801	704.9194	771.2973	785.1418	928.8018	959.061	1021.4755	1055.4313	1091.7848	1152.4977	1169.4067	1187.0932	1229.2301	1262.2612	1292.3952	1341.3916	1404.5354	1442.0171	1472.2598	1482.3504	1486.7451	1497.967	1513.1553	1568.8099	1777.802	2361.9931	3019.0499	3049.582	3061.8923	3086.2416	3102.1802	3121.7602	3159.2164	3626.5704	3633.7313
CNC(=O)NCCC#N	CNC(=O)NCCC#N	
InChI=1S/C5H9N3O/c1-7-5(9)8-4-2-3-6/h2,4H2,1H3,(H2,7,8,9)	InChI=1S/C5H9N3O/c1-7-5(9)8-4-2-3-6/h2,4H2,1H3,(H2,7,8,9)
