19
gdb 112356	3.29127	1.138	0.87939	0.4262	79.04	-0.2546	-0.0067	0.2479	1321.6092	0.160639	-419.278419	-419.269625	-419.268681	-419.312528	32.726	
C	 0.1787403293	 1.6242339033	 0.1222270175	-0.393049
C	 0.0098787489	 0.1039422645	 0.050470692	-0.184794
C	 0.5422339375	-0.5272193146	-1.2467756094	-0.116246
C	 0.5980125586	-2.0697194684	-1.2418410124	-0.307709
C	 0.0958326991	-2.5081536439	-2.6059848653	 0.385932
N	 0.1733372579	-3.6899669252	-3.0585391076	-0.528323
N	-0.457844992	-1.3730596002	-3.1985194167	-0.3565
C	-0.2998761035	-0.1933130408	-2.4851340437	 0.416155
O	-0.7474716221	 0.8755594344	-2.8260014214	-0.357932
H	 1.2377798447	 1.9020142697	 0.0718025862	 0.110564
H	-0.3368570329	 2.1124364968	-0.7066854295	 0.155437
H	-0.2219168178	 2.0130190081	 1.0633340623	 0.110453
H	 0.5358921382	-0.3666846322	 0.8903297279	 0.101906
H	-1.0486600456	-0.1626267009	 0.1659235339	 0.104396
H	 1.5420406086	-0.1193392769	-1.4478420843	 0.11256
H	 1.5909835811	-2.478882215	-1.0503473584	 0.139821
H	-0.0731164655	-2.4815034169	-0.4796828072	 0.13818
H	-0.2395999	-3.7710087744	-3.9895291374	 0.210471
H	-0.9360963747	-1.3792724974	-4.0880234565	 0.258679
44.9494	117.9627	130.2298	192.9115	245.5716	307.5614	340.1429	396.8177	524.6063	541.5808	608.4756	632.7298	637.5928	716.4331	755.4201	826.9798	877.5391	887.2314	943.7813	956.8547	1023.0669	1064.7026	1107.1737	1123.6982	1137.7822	1196.9264	1223.225	1261.1414	1288.3307	1304.6219	1354.3628	1368.0813	1374.287	1385.2328	1413.1033	1473.6437	1488.7687	1496.963	1514.993	1764.754	1838.4099	3016.4631	3023.8377	3035.9924	3054.5104	3055.9453	3099.214	3122.819	3141.5332	3455.8063	3617.4916
CCC1CC(=N)NC1=O	CC[C@H]1C[C]([NH])NC1=O	
InChI=1S/C6H10N2O/c1-2-4-3-5(7)8-6(4)9/h4H,2-3H2,1H3,(H2,7,8,9)	InChI=1S/C6H10N2O/c1-2-4-3-5(7)8-6(4)9/h4H,2-3H2,1H3,(H2,7,8,9)/t4-/m0/s1
