15
gdb 127341	4.66265	0.92637	0.87483	6.2127	71.85	-0.2746	-0.0077	0.2669	1323.917	0.114357	-413.031581	-413.023289	-413.022345	-413.066056	28.523	
C	-0.0438271023	 1.4117337616	 0.0683174868	-0.322619
N	-0.0077759968	-0.0343891383	 0.00498175	 0.058906
C	-0.0336321977	-0.8496817553	-1.0683003591	 0.00832
N	 0.0174529843	-2.1138622128	-0.6924580854	-0.300984
C	 0.0788319128	-2.014602262	 0.6624948317	 0.34996
C	 0.1527474238	-3.2069407692	 1.5734496822	-0.425559
C	 1.4595568868	-3.8692892524	 1.5372106498	 0.268641
N	 2.488797263	-4.3928763339	 1.5188049875	-0.306438
N	 0.0644488153	-0.7767408336	 1.1346879478	-0.295456
H	 0.8631216053	 1.7891144731	 0.5463903368	 0.162981
H	-0.1090984387	 1.8046382533	-0.9476014308	 0.148798
H	-0.9134060174	 1.7406219964	 0.6420666677	 0.16011
H	-0.0916908459	-0.482820463	-2.0822751419	 0.149309
H	-0.0525070031	-2.8862516133	 2.5986035826	 0.172692
H	-0.6120398194	-3.9367919905	 1.2876557643	 0.171338
27.9114	96.756	101.6905	194.2398	257.9725	322.8276	376.0618	409.4713	477.9014	653.8369	667.927	735.7171	822.0182	861.7722	927.4213	944.1431	1033.2094	1054.0184	1079.1898	1154.2646	1211.1106	1233.8012	1315.1399	1331.429	1369.1175	1446.0678	1448.6601	1456.5065	1473.7824	1493.5666	1524.6123	1558.3801	2368.4176	3057.9809	3059.1172	3110.7843	3130.9178	3151.5924	3257.4852
CN1C=NC(CC#N)=N1	Cn1cnc(CC#N)n1	
InChI=1S/C5H6N4/c1-9-4-7-5(8-9)2-3-6/h4H,2H2,1H3	InChI=1S/C5H6N4/c1-9-4-7-5(8-9)2-3-6/h4H,2H2,1H3
