18
gdb 52806	2.05746	1.17352	0.83731	3.6899	83.62	-0.2449	0.0009	0.2458	1425.0611	0.144383	-401.924697	-401.914467	-401.913523	-401.961583	35.175	
C	-0.3959831815	 1.2348112034	-0.0304814774	-0.501422
C	-0.2046011094	-0.2076437717	-0.0195126331	 0.088974
C	-0.0564815211	-1.4031576268	 0.0015457119	 0.04059
C	 0.1575542921	-2.8312510535	-0.0153286868	 0.11692
C	 1.476671022	-3.2901865601	-0.6093041061	-0.458837
C	-0.5037333674	-3.6597630027	 1.0691026805	-0.26619
N	-0.9975715546	-3.700634647	-0.2846336349	-0.102529
C	-2.2621137155	-3.2545228719	-0.6442043375	 0.148734
O	-3.2708081077	-3.4804121883	-0.0239019064	-0.286166
H	 0.362176058	 1.7290807127	-0.6474160549	 0.153403
H	-1.3787901995	 1.4982842602	-0.4360081694	 0.157427
H	-0.3295701114	 1.6530128056	 0.979761415	 0.154548
H	 2.3132528625	-2.8723820678	-0.0417941661	 0.132494
H	 1.5405921849	-4.3808459898	-0.5896253057	 0.130244
H	 1.5673426643	-2.9546632803	-1.6463926896	 0.134093
H	 0.0030924661	-4.5544214494	 1.4212897707	 0.126306
H	-1.1181081284	-3.1455041415	 1.8023158132	 0.141981
H	-2.2471145134	-2.7239838612	-1.6139553133	 0.089431
19.8371	62.5494	114.6272	129.7039	177.6428	222.4227	238.8883	298.4963	333.12	363.3002	366.0242	522.6966	543.3189	596.8639	657.8308	810.8435	894.5209	942.1431	986.3899	1034.5029	1051.5283	1052.6011	1067.2328	1096.0068	1126.568	1131.2451	1195.917	1314.3441	1383.4205	1411.9793	1414.3243	1415.4201	1475.3446	1477.129	1481.1354	1495.0029	1504.4325	1802.7923	2366.7625	2968.8203	3030.3533	3045.3938	3092.5323	3094.1931	3111.4003	3117.9041	3129.946	3207.3273
CC#CC1(C)CN1C=O	CC#C[C@@]1(C)CN1C=O	
InChI=1S/C7H9NO/c1-3-4-7(2)5-8(7)6-9/h6H,5H2,1-2H3	InChI=1S/C7H9NO/c1-3-4-7(2)5-8(7)6-9/h6H,5H2,1-2H3/t7-,8?/m0/s1
