21
gdb 91546	2.8617	1.30576	1.07537	1.3326	82.84	-0.2378	0.0784	0.3161	1206.9982	0.182752	-387.044307	-387.035624	-387.03468	-387.07806	33.827	
O	 0.2347209016	 1.3257038414	-0.1032037916	-0.435071
C	 0.1149314516	-0.0710235066	 0.0716198574	 0.048661
C	 0.1924079508	-0.6629596954	 1.523270908	-0.269785
C	-1.2344963148	-1.1832323334	 1.343674031	-0.11234
C	-2.1508259729	-0.0280713935	 1.0521731543	-0.33212
C	-1.3194813122	-0.5841737804	-0.0736181136	 0.396052
C	-1.8488466149	-1.129123423	-1.3525072993	-0.135819
C	-3.3201911687	-1.1725830415	-1.6873150037	-0.277337
C	-2.4225036714	-0.1946572138	-2.3974754638	-0.251369
H	 1.1597815841	 1.5660565665	 0.0108510319	 0.281494
H	 0.7917102119	-0.6099499409	-0.6063142502	 0.063937
H	 0.9505167933	-1.4440810193	 1.6203359675	 0.095264
H	 0.331062199	 0.0743724408	 2.3211141364	 0.092668
H	-1.6102847785	-2.1397827237	 1.6858356628	 0.084597
H	-3.2061419021	-0.2747799681	 1.0123882145	 0.109293
H	-1.9346934284	 0.9584609342	 1.4531329483	 0.115251
H	-1.2639980194	-1.9557849325	-1.7514806169	 0.076786
H	-3.6852878366	-2.0326809691	-2.2378583267	 0.108778
H	-4.0281502972	-0.7759985079	-0.9687431219	 0.111347
H	-2.5057402964	 0.8523932435	-2.1288646585	 0.123069
H	-2.1775559388	-0.3741941273	-3.4384105662	 0.106642
40.5625	113.5261	184.5534	215.1977	265.579	322.5227	338.286	419.1523	467.3038	540.2114	649.2096	695.3831	783.7254	814.4199	838.022	844.8586	870.0306	914.3302	925.7132	949.2736	975.9877	1013.6753	1029.53	1057.0454	1070.4519	1081.0847	1087.7286	1106.5751	1128.1152	1137.6432	1176.5473	1195.1263	1200.4756	1206.4256	1226.8871	1248.2058	1276.9781	1319.9944	1374.7736	1411.5805	1444.4118	1468.0373	1477.3467	1499.9898	1509.6599	2997.0383	3041.843	3101.4875	3115.8629	3120.0469	3135.0651	3140.0188	3184.6884	3210.0265	3214.7018	3229.1606	3812.8045
OC1CC2CC12C1CC1	O[C@H]1C[C@H]2C[C@@]12C1CC1	
InChI=1S/C8H12O/c9-7-3-6-4-8(6,7)5-1-2-5/h5-7,9H,1-4H2	InChI=1S/C8H12O/c9-7-3-6-4-8(6,7)5-1-2-5/h5-7,9H,1-4H2/t6-,7-,8-/m0/s1
