23
gdb 90454	3.42342	1.0587	1.05064	1.4037	85.44	-0.2396	0.0741	0.3137	1305.8656	0.205525	-388.296105	-388.286617	-388.285673	-388.329801	37.022	
C	-0.7580881398	 1.082049861	-0.1798950737	-0.407876
C	 0.2622178511	-0.0554896935	-0.090556483	 0.037445
C	 1.2975153269	-0.0477545501	-1.2518558277	-0.241781
C	 2.6349207924	-0.4730089893	-0.6633022826	-0.116095
C	 2.5141176258	-0.4592871769	 0.8570513997	-0.079349
C	 1.1007901624	-0.0303636162	 1.2195676108	-0.244852
C	 2.7817023153	-1.7526446479	 0.1368517643	 0.396155
C	 1.8523107723	-2.9434134115	 0.073505059	-0.468604
O	 4.1275260134	-2.1449308228	 0.3258888706	-0.468772
H	-0.2595593206	 2.0579977457	-0.1470928022	 0.112913
H	-1.3313204838	 1.0314779408	-1.1120567903	 0.111191
H	-1.4715176063	 1.0438279473	 0.6505176288	 0.111896
H	-0.2993818722	-0.9941676029	-0.1288546853	 0.076798
H	 0.9671328641	-0.6734917103	-2.0893746659	 0.092765
H	 1.4028232461	 0.97021348	-1.6478412987	 0.096378
H	 3.5426410535	-0.1168869528	-1.1395433416	 0.077947
H	 3.3344741069	-0.099743367	 1.4682763952	 0.089872
H	 1.142877952	 0.9927912313	 1.6133271276	 0.097088
H	 0.6442406404	-0.6462469108	 2.0029080025	 0.096852
H	 0.8015031561	-2.6694526274	-0.0217895347	 0.123272
H	 2.1046915023	-3.5757825427	-0.7876049601	 0.10498
H	 1.9692928396	-3.5516490233	 0.9762467916	 0.126684
H	 4.4129944023	-2.5978931405	-0.4757636143	 0.275093
98.3759	123.766	164.1719	215.6017	234.289	259.3716	308.127	358.421	382.3401	411.7592	447.6971	453.5843	640.7392	668.4125	685.6517	814.9972	823.4816	853.5776	916.4933	927.1709	942.0478	963.6908	988.1769	1037.3724	1045.0849	1070.9056	1094.307	1099.1144	1120.0299	1154.5872	1179.0972	1192.6365	1256.958	1280.1204	1295.9361	1310.1128	1312.0004	1333.874	1346.1165	1375.2413	1410.0075	1413.9874	1447.7855	1482.1683	1492.2565	1494.6417	1498.6405	1498.8923	1506.95	3020.4816	3022.4402	3024.0785	3027.7642	3033.1193	3056.6907	3064.8063	3086.4431	3092.8383	3093.6244	3142.181	3158.7798	3173.9774	3786.9732
CC1CC2C(C1)C2(C)O	C[C@H]1C[C@H]2[C@@H](C1)[C@]2(C)O	
InChI=1S/C8H14O/c1-5-3-6-7(4-5)8(6,2)9/h5-7,9H,3-4H2,1-2H3	InChI=1S/C8H14O/c1-5-3-6-7(4-5)8(6,2)9/h5-7,9H,3-4H2,1-2H3/t5-,6-,7+,8+
