13
gdb 61111	2.50672	1.25847	1.0332	6.0749	68.83	-0.3144	-0.0319	0.2825	1145.3022	0.085971	-415.577899	-415.568582	-415.567638	-415.612201	32.683	
O	 0.0891267377	 1.421409387	-0.0837127006	-0.407822
C	 0.0338794191	 0.0116211708	-0.0018133594	 0.002834
C	 0.7111422624	-0.51213754	-1.299729374	-0.343195
C	 0.0572542169	-0.0327089967	-2.5137622663	 0.280964
N	-0.4437382608	 0.3288923294	-3.4889429775	-0.291289
C	 0.7567939119	-0.5052515977	 1.1686702673	 0.308252
C	 1.3640962057	-0.9045690364	 2.1239022724	-0.406699
C	-1.3773630609	-0.4529281965	 0.0653647554	 0.281816
N	-2.4779941379	-0.7947754699	 0.1375731311	-0.317757
H	-0.2850279307	 1.7935645839	 0.7240447175	 0.30798
H	 1.7478223739	-0.1645891861	-1.280524614	 0.181504
H	 0.7168432836	-1.6050567266	-1.2881842552	 0.180062
H	 1.8935965393	-1.2593859511	 2.9749786431	 0.223349
69.9971	107.7797	127.1186	179.7147	189.3581	266.8523	312.9227	363.7877	389.5222	453.1098	485.8503	517.7779	575.3193	625.3113	677.5781	695.4451	737.1125	903.0509	947.3034	1032.7701	1085.3171	1112.7419	1264.1038	1330.2975	1363.849	1448.7586	2243.1053	2361.0566	2374.0983	3073.972	3124.4616	3493.8344	3803.4538
OC(CC#N)(C#C)C#N	O[C@@](CC#N)(C#C)C#N	
InChI=1S/C6H4N2O/c1-2-6(9,5-8)3-4-7/h1,9H,3H2	InChI=1S/C6H4N2O/c1-2-6(9,5-8)3-4-7/h1,9H,3H2/t6-/m1/s1
