17
gdb 77734	2.85862	1.61288	1.50126	1.3552	66.49	-0.2455	0.0358	0.2813	943.9816	0.137073	-458.891493	-458.884258	-458.883314	-458.92282	28.733	
O	 0.0500594264	 1.3183725342	 0.0851136811	-0.439844
C	-0.0467906425	-0.0626124007	 0.0345337832	 0.063198
C	-1.3916277677	-0.7855404118	 0.0662103765	 0.063953
C	-2.3951770011	-0.0095072065	-0.792592009	-0.156943
O	-1.4563825085	 0.0898168513	-1.9126676239	-0.33656
C	-0.5317927978	-0.7466843029	-1.1964369157	 0.270296
C	-0.2046883061	-2.1765806408	-1.5434555202	-0.159647
O	-0.3943633254	-2.8798048164	-0.3090780242	-0.263822
C	-1.4394740806	-2.2421447409	 0.4575045766	-0.154042
H	-0.2871796097	 1.6476090361	-0.7591838946	 0.299916
H	 0.744860896	-0.5631864126	 0.5838430735	 0.12774
H	-3.272914987	-0.5983568444	-1.0785002747	 0.119294
H	-2.7036983655	 0.978345821	-0.4362648004	 0.121296
H	-0.8919705107	-2.5176850234	-2.3330491597	 0.107344
H	 0.8244773429	-2.3711640313	-1.8574747673	 0.120124
H	-1.2174017136	-2.458183115	 1.5064028892	 0.119408
H	-2.4256298491	-2.667430066	 0.2145910296	 0.098291
176.1479	212.3511	241.4881	264.6984	319.2103	390.2335	442.3719	501.828	600.8466	659.0398	710.8212	768.2831	818.9347	850.3131	897.2493	943.911	970.3923	980.8103	1030.5566	1039.7334	1051.0225	1136.5729	1155.7764	1162.7003	1206.2698	1228.0785	1239.0078	1241.2215	1299.6841	1319.901	1348.4955	1376.8034	1384.5538	1465.1086	1503.8928	1507.951	1517.555	2985.3081	2992.4995	3037.8521	3082.9672	3088.9935	3093.0267	3167.2635	3756.1617
OC1C23COC12COC3	O[C@H]1[C@@]23CO[C@@]12COC3	
InChI=1S/C6H8O3/c7-4-5-1-8-3-6(4,5)9-2-5/h4,7H,1-3H2	InChI=1S/C6H8O3/c7-4-5-1-8-3-6(4,5)9-2-5/h4,7H,1-3H2/t4-,5+,6-/m0/s1
