15
gdb 26979	3.262	1.26613	0.93865	2.7737	70.92	-0.2472	-0.0077	0.2396	1173.0629	0.113084	-416.863415	-416.855137	-416.854192	-416.897658	29.058	
C	-0.0233251406	 1.4046878769	-0.474077028	-0.509194
C	-0.10488625	-0.0365426149	-0.125578164	 0.278524
C	-1.0773948501	-0.9852881154	-0.054355715	 0.160307
C	-2.5599083905	-0.9355220994	-0.3052307936	-0.445997
C	-2.9983991868	 0.1207206764	-1.2156009867	 0.27537
N	-3.3543928802	 0.9570487681	-1.9288321742	-0.316861
N	-0.5196391538	-2.1930593166	 0.361157225	-0.308148
C	 0.732707489	-1.9255268697	 0.5157185343	 0.065664
O	 1.0709265072	-0.6483386324	 0.2420427045	-0.172639
H	 0.7318872415	 1.5735060055	-1.2488369999	 0.148743
H	-0.9826748342	 1.7643790459	-0.8462829973	 0.173209
H	 0.2590469069	 2.0051421624	 0.3980922498	 0.144341
H	-2.8676315485	-1.902016807	-0.7190092759	 0.179918
H	-3.1081792827	-0.8233059025	 0.6395001253	 0.171043
H	 1.5267030827	-2.5861722573	 0.8264290457	 0.155719
24.3273	118.5002	131.2245	225.9135	260.745	291.644	379.278	398.8724	474.9131	647.9026	674.3067	689.9713	749.5163	841.2438	947.0385	953.6887	963.6458	972.9207	1067.8011	1119.8415	1157.3261	1198.0368	1232.8455	1278.2154	1334.1955	1377.4999	1425.6063	1458.5227	1478.3772	1487.2795	1566.2638	1674.0301	2365.4091	3029.1246	3038.3777	3077.3277	3091.1211	3157.4881	3277.8662
CC1=C(CC#N)N=CO1	Cc1c(CC#N)nco1	
InChI=1S/C6H6N2O/c1-5-6(2-3-7)8-4-9-5/h4H,2H2,1H3	InChI=1S/C6H6N2O/c1-5-6(2-3-7)8-4-9-5/h4H,2H2,1H3
