17
gdb 27259	3.28433	1.50569	1.05455	2.4934	76.46	-0.1689	0.0489	0.2178	1099.2038	0.139327	-418.02403	-418.016396	-418.015452	-418.055861	29.98	
N	 0.1216957963	 1.3920332551	 0.015873592	-0.596493
C	-0.0645205244	 0.0146755771	 0.0012401572	 0.205323
C	-1.1509994806	-0.7962211435	 0.0832398114	 0.186395
C	-2.6470149981	-0.8374785388	 0.1965867401	-0.367639
C	-2.9249985021	-2.3373745379	-0.1308143871	-0.16162
N	-1.6839411861	-3.054804242	 0.2524986154	-0.412811
C	-0.640799866	-2.1330743433	 0.1092823642	 0.261376
C	 0.708794366	-2.0736983984	 0.032199468	-0.193632
O	 1.0716438039	-0.7230964422	-0.03866476	-0.194911
H	 0.9679129089	 1.666879121	-0.4673365086	 0.253028
H	-0.6748718729	 1.8967166446	-0.348459929	 0.251299
H	-2.9889044446	-0.5964395956	 1.2115183469	 0.116616
H	-3.1862724337	-0.1793396251	-0.4921607795	 0.102191
H	-3.7828028018	-2.7357068717	 0.4185184048	 0.105465
H	-3.1311430128	-2.4422421331	-1.2068122574	 0.096143
H	-1.5607597939	-3.9449589595	-0.2102493522	 0.231725
H	 1.5229972218	-2.7737077767	 0.0017458339	 0.117543
153.1252	168.4145	208.8989	264.8158	279.9142	370.38	534.7889	543.9451	567.3971	588.8964	619.1489	681.5752	689.078	736.6916	780.8317	822.4646	877.6681	935.7152	993.0155	1037.1221	1077.8033	1078.8923	1111.4208	1192.2011	1218.4418	1237.3747	1264.9164	1313.0249	1316.2479	1373.2537	1414.1677	1459.7293	1494.2065	1518.8473	1629.2936	1666.4722	1726.1275	2983.0842	3016.8499	3066.9857	3080.6228	3302.7525	3540.4992	3579.5278	3640.867
NC1=C2CCNC2=CO1	Nc1c2CCNc2co1	
InChI=1S/C6H8N2O/c7-6-4-1-2-8-5(4)3-9-6/h3,8H,1-2,7H2	InChI=1S/C6H8N2O/c7-6-4-1-2-8-5(4)3-9-6/h3,8H,1-2,7H2
