20
gdb 70538	2.55656	1.56972	1.19521	3.2664	80.41	-0.2468	0.0332	0.2801	1110.8708	0.172	-403.164016	-403.155747	-403.154803	-403.196734	32.614	
C	 0.0650516903	 1.3466110328	-0.2328403967	-0.447842
C	-0.0826969618	-0.1111169529	 0.121711892	 0.414103
C	-0.8453329484	-0.55480258	 1.3390291306	-0.339058
C	 0.6579296213	-0.7449393997	 1.2683519157	-0.077745
C	 1.2789077124	-2.1051652645	 0.9854496201	-0.245648
C	 1.8001603427	-2.1047993738	-0.4604010883	-0.278359
C	 0.6809561613	-1.8187714893	-1.4298169485	 0.387145
N	 0.5871168274	-2.4193576576	-2.5403517523	-0.518042
O	-0.2712661528	-0.9146460213	-1.0358459317	-0.286407
H	 0.9602912266	 1.5141285517	-0.8413899115	 0.123562
H	-0.8027096489	 1.6933100951	-0.8030835011	 0.131318
H	 0.146769991	 1.956081112	 0.6716810602	 0.118493
H	-1.2432299615	 0.204886826	 2.0031283857	 0.113805
H	-1.4648626438	-1.439099556	 1.2326161107	 0.122801
H	 1.2607939196	-0.0686741937	 1.8673416474	 0.092554
H	 2.0939886262	-2.3103482073	 1.6847384388	 0.108212
H	 0.5449452803	-2.9081931679	 1.1125114592	 0.114651
H	 2.5718377587	-1.3303585243	-0.5618370726	 0.119453
H	 2.2499293106	-3.0541542878	-0.7541383324	 0.132437
H	-0.2364835713	-2.0862237716	-3.0470563752	 0.214567
72.8313	152.4837	207.5963	229.3787	308.4887	384.1239	422.788	437.2897	462.9707	494.6301	578.6815	642.6558	739.7849	782.12	816.1069	881.5515	905.2696	918.4528	943.2264	950.6452	970.3733	1022.5215	1053.653	1063.6146	1116.1651	1119.2638	1126.8667	1143.5496	1211.6744	1214.5807	1265.278	1286.4071	1336.9501	1348.4314	1373.5898	1405.1401	1424.4196	1473.9366	1481.2749	1482.3029	1496.0654	1504.1102	1750.965	3028.0553	3033.836	3047.6347	3091.3113	3100.1702	3114.8503	3126.161	3130.4409	3148.7038	3220.7265	3455.1972
CC12CC1CCC(=N)O2	C[C@]12C[C@H]1CC[C]([NH])O2	
InChI=1S/C7H11NO/c1-7-4-5(7)2-3-6(8)9-7/h5,8H,2-4H2,1H3	InChI=1S/C7H11NO/c1-7-4-5(7)2-3-6(8)9-7/h5,8H,2-4H2,1H3/t5-,7+/m1/s1
