21
gdb 56255	5.33985	0.6109	0.57123	3.3407	81.3	-0.2432	-0.0087	0.2344	1981.229	0.179085	-424.218156	-424.20763	-424.206685	-424.255896	36.27	
C	-0.0793685616	 1.4149259791	-0.0521519661	-0.482686
C	-0.2419910177	-0.0951351387	 0.0189000706	 0.359257
O	-0.5778180477	-0.6685664846	 1.0234185275	-0.269517
C	 0.061745614	-0.8317915569	-1.2838987809	-0.150855
O	-0.0047836122	-2.2101776225	-1.0974446949	-0.224909
C	 0.2720108765	-2.9455887618	-2.2764288592	-0.066003
C	 0.2362530979	-4.4134504412	-1.9578362654	 0.012963
C	-1.0802345571	-5.143495152	-1.9262493841	-0.243644
C	-0.1045568157	-5.4007618371	-3.0463128319	-0.274964
H	 0.9866924634	 1.6687590184	-0.0904116999	 0.144856
H	-0.5407161216	 1.8279342317	-0.9553659975	 0.132344
H	-0.519559089	 1.8715060683	 0.8349067582	 0.147159
H	-0.6619216118	-0.4816706988	-2.0454415	 0.102657
H	 1.0562319825	-0.508334662	-1.6459880632	 0.100086
H	-0.4714648353	-2.7093992579	-3.0582318849	 0.079826
H	 1.2605414668	-2.6583839535	-2.6753792474	 0.085518
H	 0.9808809044	-4.7241036272	-1.2312413969	 0.093502
H	-1.220166283	-5.9120857419	-1.1748907236	 0.116076
H	-1.9763989171	-4.5752002099	-2.1516505708	 0.114521
H	-0.3456426175	-5.011389874	-4.030375682	 0.109773
H	 0.4290447119	-6.3442794277	-3.0648710576	 0.114038
33.9545	48.3652	71.562	92.3829	122.6241	139.352	220.6468	280.953	364.7625	395.4329	479.7993	486.3361	610.4951	771.8112	807.244	836.5116	853.507	866.4021	922.2516	936.7248	962.9303	1031.6122	1060.6271	1074.0348	1083.6168	1096.7355	1134.2376	1167.7045	1195.631	1195.9764	1206.1829	1228.7588	1259.2324	1282.9641	1365.192	1380.7245	1402.1031	1448.0411	1463.6934	1471.1262	1476.5682	1488.5766	1506.1471	1521.5398	1836.7968	2921.7839	2940.5625	2944.8394	2969.9313	3036.6327	3097.8889	3131.1137	3138.2808	3153.2655	3156.9113	3210.0081	3226.1258
CC(=O)COCC1CC1	CC(=O)COCC1CC1	
InChI=1S/C7H12O2/c1-6(8)4-9-5-7-2-3-7/h7H,2-5H2,1H3	InChI=1S/C7H12O2/c1-6(8)4-9-5-7-2-3-7/h7H,2-5H2,1H3
