23
gdb 81031	2.36606	1.69679	1.26355	1.4371	84.59	-0.2311	0.0799	0.311	1117.6024	0.206895	-388.288157	-388.279539	-388.278595	-388.320502	34.924	
C	-0.1426371547	 1.4985401962	-0.0852446346	-0.433657
C	 0.0261111429	-0.0144760794	 0.0033628986	-0.000251
C	 1.2107845752	-0.606549052	-0.8133977803	 0.123982
C	 2.1036928184	-0.4193451591	 0.442192866	-0.30869
C	 0.7831478038	-0.5811273765	 1.2609077741	 0.324681
C	 0.6433154584	 0.1017044094	 2.6097763127	-0.483934
C	 0.4450117384	-2.0874692306	 1.317880004	-0.268654
C	 0.9582007052	-2.8053592429	 0.0499441954	-0.074513
O	 0.9619438954	-1.9740097272	-1.1082733789	-0.277766
H	 0.7939915959	 2.0399359704	 0.0834056164	 0.114493
H	-0.5085780575	 1.7815737999	-1.0784034639	 0.116974
H	-0.8689624297	 1.8617351613	 0.6495761815	 0.117022
H	-0.9294933868	-0.5054963352	-0.2112659168	 0.060913
H	 1.495947572	-0.1293231604	-1.754337558	 0.068593
H	 2.9226695459	-1.123184366	 0.6100682188	 0.095451
H	 2.4991988452	 0.5969448953	 0.5007261418	 0.09865
H	 0.8444453877	 1.1753704282	 2.5423502217	 0.112225
H	-0.3672415608	-0.0246738215	 3.0168931165	 0.112492
H	 1.3456127616	-0.3230007262	 3.3367530368	 0.11222
H	 0.9087992959	-2.5549353279	 2.1955137491	 0.091375
H	-0.6398657953	-2.2045802347	 1.4280674253	 0.099443
H	 1.9774569435	-3.1750838659	 0.2325561268	 0.094036
H	 0.3420587496	-3.6753326552	-0.195396973	 0.104914
182.5097	204.636	212.37	223.6947	243.3125	298.0028	312.9148	376.5117	447.1576	461.2313	482.8035	616.3562	652.2363	792.8011	809.3096	832.6359	868.8033	891.8134	909.0365	935.3953	974.4545	1013.3889	1042.6383	1051.3703	1055.6425	1071.6508	1108.9404	1154.6981	1164.143	1211.0113	1217.9005	1239.4718	1251.0407	1265.3991	1277.6393	1288.554	1342.638	1360.3577	1378.2626	1406.6926	1410.7445	1413.5526	1485.5497	1487.5523	1492.6935	1494.363	1500.3025	1504.9126	1526.9314	2990.0736	3017.7317	3022.1161	3029.1229	3039.5521	3058.683	3065.5705	3079.221	3080.6014	3081.5778	3091.886	3097.0912	3098.5558	3118.4328
CC1C2CC1(C)CCO2	C[C@H]1[C@H]2C[C@]1(C)CCO2	
InChI=1S/C8H14O/c1-6-7-5-8(6,2)3-4-9-7/h6-7H,3-5H2,1-2H3	InChI=1S/C8H14O/c1-6-7-5-8(6,2)3-4-9-7/h6-7H,3-5H2,1-2H3/t6-,7+,8-/m0/s1
