19
gdb 110076	1.96942	1.24416	0.93494	3.0935	83.46	-0.2437	-0.0243	0.2195	1337.0455	0.156341	-385.858728	-385.84886	-385.847916	-385.893951	35.687	
C	-0.2636271248	 1.5273144251	-0.1387406656	-0.379279
C	 0.1795485166	 0.0817191159	 0.1158121826	-0.210685
C	 0.7714609725	-0.5491552596	-1.1288672431	-0.020142
C	 0.9544009301	-2.0496992419	-1.3078238088	-0.160024
C	 0.5105742519	-3.0236533833	-0.2802928837	 0.161106
O	 1.1496156505	-4.0034816153	 0.0192254931	-0.270031
C	-0.080412441	-1.2704890915	-2.1468005721	-0.222378
C	-1.4889280516	-1.452863943	-1.9410002985	 0.335832
C	-2.6761066949	-1.5846085608	-1.7967069377	-0.460178
H	 0.5742349645	 2.1447396168	-0.4810297853	 0.115175
H	-1.0449531254	 1.5659870409	-0.9039535847	 0.130902
H	-0.6613476905	 1.9809111696	 0.7737625869	 0.117382
H	 0.9273879244	 0.0556443727	 0.9176831985	 0.108624
H	-0.6772001894	-0.5011876109	 0.4658389426	 0.116253
H	 1.5815774907	 0.0302585929	-1.5658094712	 0.10475
H	 1.8455384189	-2.3723686489	-1.8354883361	 0.113855
H	-0.4640551708	-2.804848106	 0.2019154223	 0.088455
H	 0.2033997412	-1.1487061422	-3.1881142278	 0.126636
H	-3.7227764327	-1.7121822704	-1.6699930017	 0.203747
65.8298	76.7211	123.4255	147.7588	180.2339	226.0334	271.784	310.631	367.2274	429.0429	480.0297	589.1422	592.8466	619.1789	661.1391	748.6974	796.7357	819.3869	880.9611	944.848	966.9531	1002.6557	1044.5748	1049.7605	1103.812	1134.2837	1145.4673	1184.0466	1242.2294	1296.2521	1333.5732	1339.549	1377.1477	1409.5615	1421.5144	1451.4293	1483.6465	1498.7219	1505.3721	1810.6917	2233.5627	2920.8968	3035.0551	3036.9611	3082.8333	3106.5253	3114.6091	3134.2415	3148.5372	3177.0088	3502.4674
CCC1C(C=O)C1C#C	CC[C@H]1[C@@H](C=O)[C@H]1C#C	
InChI=1S/C8H10O/c1-3-6-7(4-2)8(6)5-9/h1,5-8H,4H2,2H3	InChI=1S/C8H10O/c1-3-6-7(4-2)8(6)5-9/h1,5-8H,4H2,2H3/t6-,7+,8-/m0/s1
