12
gdb 5464	3.70723	1.97602	1.29038	1.4214	68.17	-0.2014	-0.0192	0.1823	863.2152	0.084377	-377.522038	-377.515039	-377.514095	-377.55305	26.173	
N	 0.1107048237	 1.3964183845	 0.1602628364	-0.602148
C	 0.0136284628	 0.0302089417	 0.0521204552	 0.179683
C	-1.1063203138	-0.7675934769	 0.016757144	 0.155524
O	-0.6489382815	-2.0832699419	-0.0257579755	-0.178752
C	 0.6824199348	-1.9735645574	-0.0196393697	 0.06704
N	 1.1452102276	-0.7621700374	 0.0249169659	-0.293797
C	-2.4744686778	-0.4948258463	 0.0142204369	 0.215691
C	-3.6483954845	-0.2140173126	 0.0053819953	-0.411791
H	 0.9839789461	 1.7696318633	-0.1815782098	 0.262628
H	-0.6982909656	 1.9122100971	-0.1526633081	 0.261188
H	 1.2487575951	-2.8915883231	-0.052823869	 0.153389
H	-4.6830355769	 0.0236530491	 0.0107848385	 0.191345
134.3549	155.3615	289.7716	327.7291	373.2999	422.5693	491.0614	526.4725	582.3205	608.6698	638.8132	706.1016	741.7864	761.5583	850.5582	955.7403	1032.315	1130.8049	1196.6737	1278.0629	1321.6433	1429.7852	1544.5384	1620.8748	1673.7178	2215.5063	3272.1372	3502.7149	3572.1763	3680.0922
NC1=C(OC=N1)C#C	Nc1c(ocn1)C#C	
InChI=1S/C5H4N2O/c1-2-4-5(6)7-3-8-4/h1,3H,6H2	InChI=1S/C5H4N2O/c1-2-4-5(6)7-3-8-4/h1,3H,6H2
