14
gdb 23940	9.06553	0.66961	0.62355	3.7118	100.31	-0.2044	-0.0194	0.185	1675.9153	0.101507	-362.401915	-362.393917	-362.392973	-362.434749	30.119	
C	 0.0596681145	-3.7626149122	-0.018432468	-0.621747
C	 0.042322796	-2.5535472545	-0.011634895	 0.265127
C	 0.0235751538	-1.1963208483	-0.0040094382	-0.093025
C	-0.003752006	 0.0179721251	 0.0029863448	 0.341315
C	-0.0065141907	 1.4250012109	 0.0106640489	 0.064855
C	-1.1276112803	 2.243619713	 0.0299987133	-0.202304
N	-0.6989362806	 3.5370514529	 0.0313318933	-0.23147
C	 0.6761785105	 3.5817966708	 0.0133172203	-0.063678
C	 1.1379288502	 2.2927450488	 0.0001622977	-0.283019
H	 0.074108987	-4.8237394284	-0.0244009129	 0.183146
H	-2.1744543974	 1.9896568077	 0.0425287409	 0.133526
H	-1.3023862602	 4.3407143365	 0.043719226	 0.270078
H	 1.2008800791	 4.5231519448	 0.0114592132	 0.128197
H	 2.1683877742	 1.9765254629	-0.015251104	 0.109
76.4456	84.7997	223.8075	226.9832	429.4661	442.3861	476.5263	483.8296	508.261	525.778	577.3881	597.2482	631.9228	666.084	696.8226	783.8218	843.2385	898.3532	905.4911	1024.6583	1098.4853	1105.8065	1162.6238	1257.2029	1356.6455	1376.7308	1459.2323	1530.9743	1586.382	2175.7815	2336.1939	3260.4238	3275.4485	3280.1922	3507.2056	3683.8511
C#CC#CC1=CNC=C1	C#CC#Cc1c[nH]cc1	
InChI=1S/C8H5N/c1-2-3-4-8-5-6-9-7-8/h1,5-7,9H	InChI=1S/C8H5N/c1-2-3-4-8-5-6-9-7-8/h1,5-7,9H
