19
gdb 102192	2.72353	1.012	0.79062	0.869	77.67	-0.2578	0.0386	0.2964	1432.5909	0.156671	-422.961055	-422.951254	-422.950309	-422.996302	35.569	
O	 0.3471390613	 1.4389908869	 0.1155201161	-0.424257
C	 0.2332460958	 0.0613274435	-0.1654690003	-0.066022
C	-1.1826908908	-0.5033423565	 0.0634944405	-0.049552
C	-2.1803663239	-0.1237246844	-1.0611678459	-0.358441
C	-2.3608389385	 1.310258568	-1.2656822035	 0.276403
C	-2.5102738187	 2.4917915923	-1.4407403412	-0.429991
C	-1.1343526167	-2.0118225233	 0.1785132375	 0.076885
C	-1.1524219687	-2.7019012806	 1.4737717005	-0.18316
O	-2.3205709242	-2.655934735	 0.6500086891	-0.243518
H	-0.2944220242	 1.9062674668	-0.433783417	 0.287002
H	 0.5576380941	-0.1743631732	-1.1943985887	 0.083766
H	 0.9325357132	-0.4430023317	 0.511208748	 0.10784
H	-1.5532183804	-0.0934979016	 1.0096362714	 0.099079
H	-1.8442014325	-0.5784553825	-2.003460738	 0.130895
H	-3.1491873161	-0.5798141793	-0.8270072512	 0.156353
H	-2.6621302549	 3.5315014357	-1.5967323971	 0.204161
H	-0.6630299134	-2.5279488386	-0.6618963816	 0.093721
H	-0.6908188994	-3.6829481695	 1.5745042066	 0.118464
H	-1.204926772	-2.1159339769	 2.3902883946	 0.120373
59.5198	82.5918	117.8489	143.4402	180.6949	256.6633	291.7235	354.7289	401.8831	429.0813	440.1245	486.617	548.3637	625.0656	642.8574	845.3214	861.2599	870.8306	888.4545	947.5678	977.9197	1070.6263	1078.7446	1092.3732	1110.0628	1135.3911	1161.3704	1178.7393	1200.1671	1253.1307	1275.5372	1296.9688	1318.1311	1362.9571	1402.8097	1446.0545	1449.0462	1471.8024	1508.6491	1530.1383	2226.597	2950.2761	3014.8531	3050.7477	3059.3601	3067.3295	3079.5235	3085.9263	3172.9067	3500.8846	3766.8251
OCC(CC#C)C1CO1	OC[C@@H](CC#C)[C@H]1CO1	
InChI=1S/C7H10O2/c1-2-3-6(4-8)7-5-9-7/h1,6-8H,3-5H2	InChI=1S/C7H10O2/c1-2-3-6(4-8)7-5-9-7/h1,6-8H,3-5H2/t6-,7-/m1/s1
