17
gdb 18808	3.09396	3.01248	2.40977	0.3077	66.16	-0.216	0.0862	0.3023	680.5649	0.146015	-363.806829	-363.801369	-363.800425	-363.835946	23.483	
C	-0.0623455321	 1.5063720742	 0.1422733541	-0.237441
C	 1.4766366043	 1.4416190665	-0.0162626109	-0.015207
C	 2.0855112164	 1.1801038815	 1.3579338122	-0.093737
O	 1.3393234754	 0.146041182	 2.0068188676	-0.269491
C	 0.8189712191	-0.7645865263	 1.0480872434	 0.094024
C	 1.8554210185	-1.0387230429	-0.0634660081	-0.199465
N	 1.3290853846	 0.144049179	-0.8252332104	-0.151777
C	 0.0124086432	-0.0049125143	-0.0659884138	-0.001222
H	-0.4541251611	 1.8823884669	 1.0893724456	 0.109648
H	-0.5537290073	 2.0004292006	-0.6978703627	 0.111796
H	 1.9954554782	 2.2377518987	-0.555365464	 0.077414
H	 3.1458833779	 0.9011686129	 1.2773562259	 0.099713
H	 2.0218966197	 2.0713557964	 1.9916574005	 0.109945
H	 0.3527281062	-1.5808985589	 1.6044252825	 0.07782
H	 2.916255696	-1.0372948341	 0.2022060409	 0.107782
H	 1.6354624367	-1.9419729451	-0.6405639013	 0.109893
H	-0.7947704958	-0.561895757	-0.5492457116	 0.070305
307.5084	371.8995	395.7632	446.6503	542.4287	613.398	732.6296	743.0355	813.2651	827.4206	857.1409	895.7461	917.8	965.3607	974.2789	987.3553	1000.7066	1046.4035	1067.6036	1101.9398	1114.0206	1136.8306	1197.5455	1202.3934	1226.1015	1232.767	1256.708	1266.7472	1294.0155	1312.4565	1339.7357	1347.9481	1398.5359	1473.2367	1490.5915	1526.1088	3000.8236	3051.8474	3065.786	3066.7447	3074.9714	3081.5044	3089.2838	3104.6414	3133.4075
C1C2COC3CN2C13	C1[C@H]2CO[C@@H]3CN2[C@H]13	
InChI=1S/C6H9NO/c1-4-3-8-6-2-7(4)5(1)6/h4-6H,1-3H2	InChI=1S/C6H9NO/c1-4-3-8-6-2-7(4)5(1)6/h4-6H,1-3H2/t4-,5+,6+/m0/s1
