17
gdb 107607	2.7432	1.61208	1.15772	4.8632	68.59	-0.2428	0.0143	0.2571	1050.2766	0.138264	-455.1566	-455.148742	-455.147798	-455.188952	30.111	
O	 0.0526197999	 1.3434796273	 0.3528690905	-0.419762
C	 0.0730152316	 0.0021652615	-0.0837459046	-0.167361
C	-1.3146289086	-0.5849468622	-0.1019640293	 0.189501
N	-1.9922651475	-1.1003022068	 1.117118116	-0.355435
C	-1.7240899812	-2.0063969616	-0.0129894349	-0.124104
C	-2.9538125509	-2.2034736439	-0.8935321235	-0.165374
N	-3.2269265877	-0.8534173525	-1.3739159779	-0.324331
C	-2.3263784555	 0.0960015102	-0.9983392734	 0.436666
O	-2.3094584746	 1.2679233314	-1.3353835905	-0.409897
H	-0.6175703004	 1.7860454214	-0.1913951881	 0.302078
H	 0.515767364	-0.0923621576	-1.0894712719	 0.096076
H	 0.7130699801	-0.5603401428	 0.6072635825	 0.097214
H	-1.2807339722	-1.2380513925	 1.8342015577	 0.238452
H	-1.0108255482	-2.8155118104	 0.0957020653	 0.104909
H	-2.7386752607	-2.8856473329	-1.725632574	 0.115592
H	-3.7966280004	-2.6047323697	-0.3196155044	 0.128141
H	-4.0523655279	-0.6069433089	-1.8961358794	 0.257633
108.4584	141.3165	187.9344	267.1287	273.6905	366.998	447.3379	489.2403	511.0985	581.1191	634.6184	715.9321	727.7117	794.8067	828.93	894.4149	909.2517	987.9564	1029.7934	1045.6908	1059.5215	1079.6366	1096.5392	1142.3634	1198.5858	1225.8268	1260.4863	1293.5754	1340.1867	1380.9238	1384.6634	1437.6894	1460.6945	1471.6011	1500.7588	1515.2785	1800.5554	2963.7086	3021.9328	3046.2407	3065.1961	3179.5307	3475.8663	3646.933	3699.287
OCC12NC1CNC2=O	OC[C@]12N[C@H]1CNC2=O	
InChI=1S/C5H8N2O2/c8-2-5-3(7-5)1-6-4(5)9/h3,7-8H,1-2H2,(H,6,9)	InChI=1S/C5H8N2O2/c8-2-5-3(7-5)1-6-4(5)9/h3,7-8H,1-2H2,(H,6,9)/t3-,5-/m0/s1
