16
gdb 51218	4.69154	1.06932	1.03386	1.7157	70.29	-0.235	0.0142	0.2492	1166.4855	0.123833	-437.798683	-437.791281	-437.790337	-437.831224	28.104	
N	-0.1548580896	 1.2566804947	 0.0278693444	-0.436344
C	-0.1337013498	 0.0113253966	 0.2117103483	 0.10246
O	-1.0740906399	-0.7681797988	-0.3855388659	-0.226744
C	-0.932281612	-2.1343948344	-0.2232593088	 0.364694
C	-0.1204083921	-3.1078580708	-1.0756956929	-0.30146
C	-0.9452282581	-4.1911845575	-0.3298929274	 0.065401
O	-0.4709172298	-4.1128837392	 1.049034753	-0.288707
C	-1.1583076569	-2.8689934867	 1.1206363986	 0.024297
C	-2.0672336674	-3.1234119961	-0.037650467	-0.208243
H	 0.6004142395	 1.6978997053	 0.5487075432	 0.234081
H	 0.5715124708	-0.5616001926	 0.826079711	 0.101823
H	-0.4044085329	-3.0377279479	-2.1283155894	 0.120096
H	 0.9666258536	-3.1551021409	-0.9612545401	 0.107594
H	-1.0628382305	-5.2061133572	-0.6999367667	 0.100194
H	-1.3086613364	-2.3829129122	 2.0756123905	 0.121626
H	-3.1345814184	-3.0648607321	-0.1934802009	 0.119232
69.5128	108.3201	142.5219	350.0019	371.8489	437.4019	467.5856	546.0098	724.0426	765.6275	774.5738	810.5536	827.3673	839.4313	903.7702	914.4477	965.3284	984.6638	1021.1816	1039.7003	1047.9962	1050.0124	1067.4392	1126.2056	1144.4039	1153.6514	1196.6515	1239.9636	1274.8102	1288.6165	1308.0247	1399.6548	1412.4851	1489.8117	1748.3262	3048.7567	3055.6352	3124.1043	3160.6257	3209.4061	3227.1206	3518.6833
N=COC12CC3OC1C23	[NH][CH]O[C@@]12C[C@H]3O[C@@H]1[C@@H]23	
InChI=1S/C6H7NO2/c7-2-8-6-1-3-4(6)5(6)9-3/h2-5,7H,1H2	InChI=1S/C6H7NO2/c7-2-8-6-1-3-4(6)5(6)9-3/h2-5,7H,1H2/t3-,4+,5-,6-/m1/s1
