21
gdb 49063	2.18046	1.7293	1.23688	2.6417	82.04	-0.245	-0.0209	0.224	1100.5765	0.183974	-387.109556	-387.10129	-387.100346	-387.142912	31.911	
O	-0.0056503603	-0.0524593851	-0.1207792905	-0.262008
C	 0.0911922097	 1.1480063605	-0.0551090774	 0.102491
C	 1.3761486834	 1.9265141376	 0.0028039123	 0.261878
C	 1.3462045592	 3.1861091356	 0.9221725994	-0.302575
C	 1.8758076531	 4.0591230796	-0.2447916563	-0.230539
C	 1.6081701205	 2.8879704677	-1.2355870766	-0.029977
C	 2.7796200377	 2.2992548088	-2.0507247491	-0.227653
C	 3.0186968488	 0.8955108195	-1.4505295079	-0.200689
C	 2.6286756855	 1.0367394769	 0.032885201	-0.285974
H	-0.8225866872	 1.7904235648	-0.054178794	 0.066082
H	 0.3263626773	 3.45596555	 1.2146887515	 0.102983
H	 1.9552485152	 3.1252542234	 1.827226656	 0.107188
H	 1.3368078527	 4.9901384383	-0.4347246712	 0.102741
H	 2.940591368	 4.2938878213	-0.1595302769	 0.103453
H	 0.7117680842	 3.0511269682	-1.8400546133	 0.071951
H	 2.5676699603	 2.2601568257	-3.1229224856	 0.10023
H	 3.6713503271	 2.9240306195	-1.9248048646	 0.098512
H	 2.3521845685	 0.1671179315	-1.9251468213	 0.11749
H	 4.0434586586	 0.5405126866	-1.5927665562	 0.094623
H	 3.4298561057	 1.5349514604	 0.5908130074	 0.091286
H	 2.4285111519	 0.0745013091	 0.5092317933	 0.118506
60.5956	77.2576	169.0376	256.8284	287.3904	341.4533	395.8233	472.2855	541.1537	603.6971	687.5616	758.0097	783.1305	831.7543	848.0726	885.3528	904.1403	946.7638	949.9636	962.6504	990.3811	1025.3424	1040.1113	1071.9702	1089.4052	1157.5841	1180.1708	1203.2592	1214.1044	1229.6166	1260.1335	1268.6089	1274.1016	1312.663	1318.5189	1327.9423	1338.7761	1357.3622	1428.9588	1476.7413	1480.6395	1489.2399	1494.4586	1505.3057	1814.6147	2838.7196	3037.7085	3040.7567	3047.8397	3048.4344	3057.4304	3060.9697	3086.4651	3097.2564	3099.0604	3111.9487	3115.5559
O=CC12CCC1CCC2	O=C[C@]12CC[C@H]1CCC2	
InChI=1S/C8H12O/c9-6-8-4-1-2-7(8)3-5-8/h6-7H,1-5H2	InChI=1S/C8H12O/c9-6-8-4-1-2-7(8)3-5-8/h6-7H,1-5H2/t7-,8+/m1/s1
