17
gdb 80596	3.75994	1.11438	1.00965	6.175	68.28	-0.2425	0.0247	0.2672	1186.3783	0.137983	-455.12861	-455.120686	-455.119742	-455.16143	30.136	
N	-0.141867331	 1.4914917247	 0.014125258	-0.516897
C	-0.0421269081	 0.0570233004	 0.0104257845	-0.038691
C	-0.4308494557	-0.7298269396	 1.2357317587	-0.019743
N	-1.5254338909	-0.0938778786	 1.9849342051	-0.351933
H	-2.9087533836	-1.1828973445	 2.6883622516	 0.305273
H	-1.2989329711	 0.8552263155	 2.274298211	 0.234503
C	-2.401925757	-0.1313896475	 0.7723001712	-0.127879
C	-1.2820652602	-0.7997301851	-0.0307902798	-0.097363
C	-3.619810951	-1.0333259512	 0.9887210576	 0.428061
O	-3.7067088092	-1.5296988099	 2.2271509764	-0.365718
O	-4.4091088329	-1.271565831	 0.113586365	-0.351842
H	 0.7322296318	 1.9119174673	 0.3131762247	 0.236063
H	-0.3402421395	 1.8419890562	-0.9176501267	 0.240873
H	 0.7861103529	-0.4079080075	-0.5302794004	 0.088458
H	 0.2111460239	-1.4635894338	 1.7088902636	 0.103388
H	-2.7365791943	 0.8413324	 0.4029526058	 0.114899
H	-1.4255342442	-1.6048649355	-0.7382256363	 0.118549
82.2592	119.7752	170.4124	238.408	282.69	336.7779	464.5526	486.3856	617.3361	635.6178	701.3098	741.2908	796.5518	834.9931	863.1242	882.1748	890.7295	944.9303	968.4394	1000.5014	1025.7419	1046.8454	1066.2654	1084.3219	1105.3819	1200.2285	1224.5718	1236.9847	1265.8348	1280.2609	1293.4082	1342.3029	1376.6078	1437.1175	1446.4625	1655.4874	1869.5113	3070.8761	3084.4209	3179.7917	3214.6449	3440.9481	3487.8918	3498.8755	3574.6536
NC1C2[NH2+]C(C12)C([O-])=O	N[C@H]1[C@H]2N[C@@H]([C@@H]12)C(=O)O	
InChI=1S/C5H8N2O2/c6-2-1-3(2)7-4(1)5(8)9/h1-4,7H,6H2,(H,8,9)	InChI=1S/C5H8N2O2/c6-2-1-3(2)7-4(1)5(8)9/h1-4,7H,6H2,(H,8,9)/t1-,2+,3-,4-/m0/s1
