25
gdb 94541	2.37007	1.2855	1.07875	1.443	88.37	-0.2548	0.0636	0.3185	1300.8593	0.227325	-389.490592	-389.480158	-389.479213	-389.524981	40.773	
C	 0.7864989721	 1.0808412468	-0.6754146007	-0.424142
C	 1.4489820448	-0.2043142686	-0.1749480711	-0.01316
C	 2.9921051172	-0.2109300173	-0.3968589521	-0.22786
C	 3.1923341426	 0.1218701399	 1.1038698057	-0.243824
C	 1.7414018832	-0.3592812423	 1.3648520287	 0.053485
C	 0.9119992261	 0.3148393941	 2.4724225941	 0.301982
C	-0.5296976817	-0.215855934	 2.4776451495	-0.4316
C	 1.5750543224	 0.0616787816	 3.8314056363	-0.390554
O	 0.9090663707	 1.7431496497	 2.3342476827	-0.461892
H	 1.3025977649	 1.9766041922	-0.3160004984	 0.128403
H	 0.8160651178	 1.107655644	-1.7706605356	 0.114729
H	-0.2691886372	 1.1484983178	-0.3862925639	 0.107521
H	 0.9198616872	-1.0588447861	-0.60874545	 0.063732
H	 3.3674369346	-1.2060637471	-0.6515130231	 0.095921
H	 3.3829778858	 0.5027158121	-1.1278498675	 0.09105
H	 4.0006574499	-0.3888428249	 1.632648197	 0.090588
H	 3.2800822839	 1.1970152966	 1.2803769516	 0.114728
H	 1.7547914363	-1.4343231107	 1.5830726645	 0.063476
H	-0.5526278064	-1.2952145308	 2.6592859509	 0.113898
H	-1.1101821105	 0.2784745322	 3.2624548013	 0.118954
H	-1.0272895804	-0.0340556945	 1.5186690422	 0.111329
H	 2.5861979	 0.4771913377	 3.8450990283	 0.124227
H	 0.9989489102	 0.5462091805	 4.6248184241	 0.115551
H	 1.6358189272	-1.0092749081	 4.0464512673	 0.106578
H	 0.3267045094	 1.9695937589	 1.603857398	 0.276882
93.1194	125.7505	175.1697	209.1649	233.1629	249.1854	281.5026	292.5944	324.9995	354.0023	374.0294	387.2195	402.4739	501.3577	584.851	648.4075	739.2499	788.2232	843.0847	889.9449	917.3823	933.1438	948.6262	957.5816	961.9632	994.0508	1008.196	1038.5743	1089.2877	1112.9414	1132.1759	1168.1265	1204.3801	1217.1952	1253.5951	1255.1644	1263.9932	1284.0543	1287.4958	1349.2177	1371.7718	1377.4114	1400.2659	1408.8724	1416.7591	1478.5481	1482.9614	1484.8997	1495.6	1503.0847	1506.2572	1507.0721	1513.7513	3021.1719	3022.3308	3031.2692	3042.0079	3044.2432	3051.9006	3063.2653	3079.2689	3094.9842	3097.6231	3101.6312	3109.3588	3117.6601	3119.8314	3121.3716	3844.2953
CC1CCC1C(C)(C)O	C[C@H]1CC[C@H]1C(C)(C)O	
InChI=1S/C8H16O/c1-6-4-5-7(6)8(2,3)9/h6-7,9H,4-5H2,1-3H3	InChI=1S/C8H16O/c1-6-4-5-7(6)8(2,3)9/h6-7,9H,4-5H2,1-3H3/t6-,7+/m0/s1
