23
gdb 60418	4.62965	0.69368	0.62939	2.1883	83.71	-0.2551	0.0805	0.3355	1841.9705	0.204584	-425.412969	-425.40285	-425.401906	-425.449033	37.215	
C	-0.0635363115	 1.6129006585	-0.0448751696	-0.387716
C	-0.0253747675	 0.1056750332	 0.1611588916	 0.134064
O	 0.2466856415	-0.1443530977	 1.530674097	-0.442147
C	-1.3376028149	-0.5662473497	-0.2343110785	-0.083194
O	-1.2083332718	-1.9419817593	 0.087899599	-0.273233
C	-2.3897493468	-2.6874325946	-0.0581396126	 0.177476
C	-2.8483540412	-3.1090393046	-1.4834174112	-0.245878
C	-3.1837695518	-4.5070728997	-0.8928368117	-0.217437
C	-2.2599758509	-4.1770329587	 0.3128646866	-0.252587
H	 0.8843007452	 2.0557047807	 0.2714797599	 0.128232
H	-0.2271563993	 1.8608854073	-1.0982174944	 0.110781
H	-0.863561706	 2.0618790654	 0.5522407905	 0.121287
H	 0.7711951813	-0.3281805006	-0.4675490812	 0.067333
H	 0.0587117149	-1.08163974	 1.6650368421	 0.286527
H	-2.1707869206	-0.1206881402	 0.3335921654	 0.090566
H	-1.5391257851	-0.4307430882	-1.3079229217	 0.090496
H	-3.212453348	-2.2024405455	 0.4900984518	 0.067247
H	-3.6490743756	-2.5419404873	-1.9634470201	 0.096125
H	-1.9846829883	-3.1543848436	-2.1535666429	 0.108647
H	-4.2329505301	-4.5833056082	-0.5952864046	 0.106148
H	-2.9303894373	-5.3811502132	-1.4950209001	 0.10433
H	-1.2340245436	-4.5111724775	 0.134580732	 0.113334
H	-2.5695360225	-4.4860533665	 1.3133742929	 0.099598
51.1241	52.7574	103.134	141.9014	187.5797	214.2329	269.0344	300.1317	421.7987	436.8449	466.725	496.662	513.8043	648.4279	768.9443	787.5703	862.6652	902.5389	924.7672	937.5108	946.8303	949.8183	976.5953	1044.583	1061.9744	1083.2829	1141.3288	1156.021	1171.629	1190.4035	1195.5186	1245.8486	1248.2478	1259.5677	1264.3404	1273.2675	1296.6736	1305.7254	1352.7472	1388.968	1398.2469	1424.7296	1451.8408	1472.4194	1485.6802	1487.1669	1501.0535	1505.3738	1512.2416	2953.2849	2968.2299	2981.2274	3014.4239	3041.5302	3056.9839	3064.2394	3068.6015	3109.3768	3113.4276	3117.0931	3122.9747	3129.8791	3780.42
CC(O)COC1CCC1	C[C@@H](O)COC1CCC1	
InChI=1S/C7H14O2/c1-6(8)5-9-7-3-2-4-7/h6-8H,2-5H2,1H3	InChI=1S/C7H14O2/c1-6(8)5-9-7-3-2-4-7/h6-8H,2-5H2,1H3/t6-/m1/s1
