14
gdb 130142	3.41872	1.29242	0.94094	3.297	74.34	-0.2095	-0.0285	0.181	1149.1454	0.103412	-429.078436	-429.069899	-429.068954	-429.11144	31.033	
N	-0.0280325959	 1.3796624235	 0.1131350677	-0.604596
C	 0.0298621896	-0.0144211304	 0.0259580162	 0.335246
N	-1.048248313	-0.7917747318	 0.0655015865	-0.27272
N	-0.5805966032	-2.0477314557	 0.0416611732	-0.311202
C	 0.7911448189	-2.0950361639	-0.0308992511	 0.252361
C	 1.5330732359	-3.290603612	-0.0594880719	 0.206107
N	 2.1632390705	-4.2646447663	-0.0792275088	-0.353155
C	 1.2257576972	-0.7745142768	-0.0344453373	 0.06056
N	 2.5115328437	-0.2548361968	-0.1342979368	-0.628049
H	 0.4690153393	 1.8320299885	-0.6467830451	 0.253497
H	-0.9882890808	 1.7023566665	 0.1282775169	 0.256133
H	-1.2201452709	-2.8223881128	 0.039118616	 0.285594
H	 3.2423932355	-0.9344837823	 0.0317159507	 0.261526
H	 2.6450142031	 0.5598677203	 0.4533262038	 0.258698
115.4093	127.7618	172.6002	226.4461	240.2307	285.8592	354.4187	387.2923	428.8476	519.5552	526.2602	605.5248	666.8171	695.3665	718.4349	769.2769	795.9609	831.1737	998.7931	1110.8794	1228.4373	1240.095	1275.5142	1309.5703	1461.0551	1506.4023	1573.6896	1611.8491	1647.3258	1664.2263	2328.3217	3513.6012	3526.525	3610.5435	3625.0905	3693.3254
NC1=NNC(C#N)=C1N	Nc1n[nH]c(C#N)c1N	
InChI=1S/C4H5N5/c5-1-2-3(6)4(7)9-8-2/h6H2,(H3,7,8,9)	InChI=1S/C4H5N5/c5-1-2-3(6)4(7)9-8-2/h6H2,(H3,7,8,9)
