17
gdb 17833	4.85985	1.46216	1.22092	3.3746	70.62	-0.233	0.0111	0.2441	1004.7767	0.141364	-363.846878	-363.838999	-363.838055	-363.879688	28.537	
C	-0.0787105676	 1.4489975721	 0.0346261111	-0.473946
C	-0.0239630231	-0.0677697058	-0.0054659279	 0.361026
O	 0.9275664879	-0.7082253349	 0.3860140097	-0.338974
N	-1.1316200947	-0.6646910089	-0.607294685	-0.095226
C	-2.4877532873	-0.6230946399	-0.0618416493	-0.05232
C	-3.4328167935	-1.1171181362	-1.1653314529	-0.236107
C	-2.6106141223	-2.4567024584	-1.2189894265	-0.241012
C	-1.6965922046	-1.9063992942	-0.1143841295	-0.024039
H	 0.9378192975	 1.8432308794	 0.0023757823	 0.148185
H	-0.6720731025	 1.8563267949	-0.7866668746	 0.135096
H	-0.5345563213	 1.7731314168	 0.9774175693	 0.140431
H	-2.7145943213	 0.0102793381	 0.7877502788	 0.106715
H	-4.4532431774	-1.2722342703	-0.8088932413	 0.110324
H	-3.4517682856	-0.5097295216	-2.0728888738	 0.112058
H	-3.2006459978	-3.314716196	-0.891110895	 0.111148
H	-2.1121537996	-2.6946542298	-2.1609717011	 0.115827
H	-1.1840265968	-2.439208335	 0.6761303559	 0.120814
70.6033	88.9022	153.3303	157.344	285.157	342.839	463.6318	572.6869	624.5712	686.2996	750.977	789.1618	853.9508	881.3115	928.2258	952.3241	979.3183	993.8536	1036.462	1051.1821	1067.1487	1085.0139	1141.4596	1188.6543	1220.674	1238.4097	1250.6714	1291.5133	1305.9123	1385.1515	1414.1873	1468.1303	1470.3373	1480.311	1488.5937	1784.8083	3043.6897	3068.0899	3075.5276	3114.1737	3119.6538	3136.2106	3155.4607	3185.6213	3210.123
CC(=O)N1C2CCC12	CC(=O)N1[C@H]2CC[C@@H]12	
InChI=1S/C6H9NO/c1-4(8)7-5-2-3-6(5)7/h5-6H,2-3H2,1H3	InChI=1S/C6H9NO/c1-4(8)7-5-2-3-6(5)7/h5-6H,2-3H2,1H3/t5-,6+,7?
