16
gdb 115130	2.59276	1.42999	1.09895	5.7659	66.07	-0.2432	-0.0815	0.1617	1117.542	0.124211	-475.049619	-475.041111	-475.040166	-475.08334	30.32	
C	 0.055906083	 1.3633266813	 0.2422566174	-0.328175
N	-0.0801211504	-0.0764948006	 0.0389293343	-0.294296
C	-1.4509990531	-0.5264783837	-0.1776057563	-0.105645
C	-1.4762848797	-2.0109680617	-0.5618828974	-0.108969
O	-1.5045773322	-2.7796306598	 0.661105412	-0.219603
C	-1.878260825	-2.023323832	 1.7194987758	 0.374577
O	-2.0329023582	-2.443715236	 2.8248947719	-0.311855
C	-2.0712050681	-0.5738694545	 1.21945439	 0.297021
O	-2.5750527701	 0.3093336195	 1.8522792487	-0.27755
H	 1.1122784275	 1.6047062276	 0.3834533358	 0.129927
H	-0.335331304	 1.9628804413	-0.5969997001	 0.104414
H	-0.4844402112	 1.6620863689	 1.1442060817	 0.158913
H	 0.5080501044	-0.3847317266	-0.7271908497	 0.228532
H	-2.0338050547	 0.0973751337	-0.8730029434	 0.091435
H	-2.3678749268	-2.258895355	-1.145991652	 0.133127
H	-0.5897724413	-2.3216414924	-1.1205243388	 0.128146
59.5834	124.0892	153.1603	172.4839	237.7244	288.4142	328.7289	391.4858	462.4857	557.7475	620.6008	711.4682	734.4347	743.3763	842.9481	891.8395	985.7816	1039.1262	1061.0288	1065.7225	1141.3412	1148.4323	1188.4902	1221.4195	1240.2679	1291.927	1342.5328	1400.0056	1458.8142	1476.1476	1492.8545	1511.2787	1524.143	1870.3042	1889.7679	2965.5831	2980.432	3056.1244	3086.6145	3106.5807	3130.0681	3527.0434
CNC1COC(=O)C1=O	CN[C@H]1COC(=O)C1=O	
InChI=1S/C5H7NO3/c1-6-3-2-9-5(8)4(3)7/h3,6H,2H2,1H3	InChI=1S/C5H7NO3/c1-6-3-2-9-5(8)4(3)7/h3,6H,2H2,1H3/t3-/m0/s1
