19
gdb 75580	2.41933	1.58402	1.03985	4.6208	79.48	-0.2573	-0.0307	0.2266	1172.6598	0.160161	-423.073828	-423.065311	-423.064367	-423.107155	31.998	
C	 0.1582300477	 1.3144414037	 0.5355653063	-0.455859
C	 0.072712759	-0.0670920772	-0.0764774641	 0.124475
C	-1.0389670661	-0.8020528455	 0.080267066	-0.116045
C	-1.4366994758	-2.1607575337	-0.4145279175	-0.262053
C	-0.4110639915	-2.9276986381	-1.2490950054	-0.225407
C	 0.998444757	-2.8011237243	-0.6823149605	-0.073395
O	 1.6736065391	-1.6448455577	-1.1798786836	-0.222891
C	 1.2833588761	-0.3772604825	-0.9106395122	 0.357576
O	 1.9638714519	 0.518325044	-1.348360716	-0.326396
H	 1.0399401971	 1.4062478509	 1.1786869416	 0.132672
H	 0.267682566	 2.0721706367	-0.2445901093	 0.15144
H	-0.7317480182	 1.5344001967	 1.1297006143	 0.109923
H	-1.8202470196	-0.3381968927	 0.6826263407	 0.09593
H	-1.6987413694	-2.756785559	 0.4730278714	 0.119086
H	-2.3805816501	-2.0653274234	-0.9692030485	 0.121767
H	-0.6991401989	-3.9836091257	-1.2906176081	 0.107014
H	-0.3883491909	-2.5657391166	-2.2827778542	 0.125149
H	 0.987630645	-2.791442925	 0.4151441596	 0.112943
H	 1.6304917315	-3.6303845105	-1.0075100305	 0.124072
68.942	115.1828	171.0534	251.7485	270.5433	324.9631	359.8433	365.7294	420.5455	538.005	573.2915	629.7501	722.6739	764.6457	824.634	859.5593	902.9996	938.3288	995.0832	1040.9573	1074.7169	1080.9412	1095.0108	1125.0659	1132.6834	1212.6601	1242.2588	1275.4554	1306.8254	1377.1152	1383.1703	1405.5803	1417.3521	1426.0069	1464.989	1470.2802	1482.7156	1491.8533	1506.0172	1713.522	1792.5368	2995.8462	3024.5276	3028.9077	3042.5701	3045.7308	3086.8639	3103.7211	3105.9705	3122.3304	3131.038
CC1=CCCCOC1=O	CC1=CCCCOC1=O	
InChI=1S/C7H10O2/c1-6-4-2-3-5-9-7(6)8/h4H,2-3,5H2,1H3	InChI=1S/C7H10O2/c1-6-4-2-3-5-9-7(6)8/h4H,2-3,5H2,1H3
