20
gdb 105012	2.00956	1.38883	1.24496	3.0073	78.91	-0.2647	0.0304	0.2951	1175.9141	0.168746	-403.141479	-403.131431	-403.130487	-403.176571	36.337	
C	 0.470628769	 0.3565050189	 0.9804898031	-0.261851
O	-0.0324841066	-0.5496735004	 0.0052979567	-0.293014
C	 0.7454958579	-0.7133568879	-1.1408299754	 0.436317
C	 2.0542523128	-1.4483484535	-1.0146653357	-0.323852
C	 0.8434472628	-2.133723667	-1.6169076239	-0.318754
C	 0.5956098743	 0.3799922841	-2.2092919783	-0.198329
C	-0.8839355522	 0.6709969262	-2.5252243007	-0.39326
C	 1.3109258267	 1.6132344835	-1.8501031699	 0.273687
N	 1.8766952019	 2.5855356726	-1.5828432406	-0.334006
H	 1.5119000305	 0.1288013023	 1.2413882609	 0.11605
H	 0.415827939	 1.3984504009	 0.6466847719	 0.137817
H	-0.1567122694	 0.2318211282	 1.8659891378	 0.127541
H	 2.8754464797	-1.1677137993	-1.6653657277	 0.123903
H	 2.3530117372	-1.7560167272	-0.0194027039	 0.127039
H	 0.3377562634	-2.8738015211	-1.0084688355	 0.130962
H	 0.8317681718	-2.3313341178	-2.6834266918	 0.114635
H	 1.0835103038	 0.0065491166	-3.1177959223	 0.125175
H	-1.3671836746	-0.2459036404	-2.8726125456	 0.130049
H	-1.4059119723	 1.0126213491	-1.6297853922	 0.14837
H	-0.9746872757	 1.4344522423	-3.3011549769	 0.131518
53.2687	96.3115	139.7263	178.428	203.3751	216.5134	233.6553	273.1707	333.1861	355.4706	418.2135	529.5643	546.9604	588.2497	736.215	770.5902	834.0211	902.4467	916.0332	955.5152	993.2763	1017.4372	1053.5444	1082.035	1089.8633	1103.6991	1122.9496	1181.0531	1188.3089	1222.4659	1249.4008	1287.1777	1318.4474	1364.6893	1409.9045	1456.4393	1476.8353	1490.2823	1494.2729	1497.0897	1499.7407	1509.1593	2350.601	3016.0717	3040.2129	3056.6607	3082.2127	3123.877	3131.3707	3136.8278	3140.4119	3146.5522	3221.958	3235.408
COC1(CC1)C(C)C#N	COC1(CC1)[C@@H](C)C#N	
InChI=1S/C7H11NO/c1-6(5-8)7(9-2)3-4-7/h6H,3-4H2,1-2H3	InChI=1S/C7H11NO/c1-6(5-8)7(9-2)3-4-7/h6H,3-4H2,1-2H3/t6-/m0/s1
