17
gdb 107367	3.64966	1.19992	1.01799	4.333	68.23	-0.2619	0.0062	0.2681	1168.9672	0.135038	-458.977073	-458.968933	-458.967989	-459.010014	30.473	
C	 0.3400149962	 1.3599424346	-0.2418591712	-0.257584
O	-0.0956436363	 0.0380867581	 0.0353526922	-0.285585
C	 0.4766916613	-0.5105527006	 1.1706379381	 0.407359
C	 1.8848139378	-1.0802116758	 1.1070541102	-0.371932
C	 0.6877559236	-1.9898126585	 1.2403396976	 0.017405
O	 0.3841767491	-2.4571160109	 2.5390452095	-0.216447
C	-0.0258331529	-1.4264332992	 3.343768936	 0.429426
O	-0.3012538405	-1.5892168929	 4.4933759845	-0.322414
C	-0.049603441	-0.1212146178	 2.5387657727	-0.452957
H	 1.4305653055	 1.4060879035	-0.366306849	 0.114966
H	-0.1416544131	 1.661567609	-1.1740193022	 0.135194
H	 0.0474494546	 2.060424754	 0.5525621643	 0.116349
H	 2.3610627078	-1.063082598	 0.1328985774	 0.131577
H	 2.5517922256	-0.974627144	 1.9569320318	 0.128744
H	 0.3973208454	-2.6770875874	 0.4570425988	 0.130546
H	 0.5266642646	 0.639436658	 3.0713838727	 0.143328
H	-1.0845050278	 0.2286569879	 2.4655326767	 0.152024
95.7814	108.1094	174.4503	190.9035	298.1326	370.6607	395.7773	440.9149	495.0378	561.6918	630.1355	684.8475	739.7317	821.9507	891.9709	918.1631	932.7584	996.8667	1015.0543	1035.7692	1059.5216	1094.7077	1135.2608	1156.4877	1174.3038	1181.4172	1208.9467	1245.5645	1296.3697	1315.1816	1392.4125	1452.527	1467.0142	1486.4036	1492.1525	1506.3195	1892.6078	2996.4021	3051.0272	3063.766	3110.3846	3128.6326	3129.9831	3211.0239	3227.5454
COC12CC1OC(=O)C2	CO[C@]12C[C@H]1OC(=O)C2	
InChI=1S/C6H8O3/c1-8-6-2-4(6)9-5(7)3-6/h4H,2-3H2,1H3	InChI=1S/C6H8O3/c1-8-6-2-4(6)9-5(7)3-6/h4H,2-3H2,1H3/t4-,6+/m1/s1
