23
gdb 103638	2.20705	1.2138	1.16117	1.0321	81.38	-0.2452	0.0645	0.3097	1277.7624	0.203069	-425.420495	-425.409766	-425.408822	-425.455614	40.192	
C	 0.3530366526	 1.3441800431	 0.3365645679	-0.417778
C	 0.3296253072	-0.162685892	 0.056217844	-0.208963
C	 0.6817525942	-0.5193601364	-1.3914421121	 0.392524
O	-0.2330436668	 0.0666912111	-2.3065399221	-0.490084
C	 2.1943492201	-0.3700243038	-1.7687223079	-0.303777
C	 2.3516516243	-1.9204948942	-1.771465047	-0.027834
C	 3.1315520529	-2.5096431914	-0.6010509789	-0.391945
C	 0.7928999625	-2.0382198953	-1.676417405	 0.071402
O	 0.2336453706	-2.8601197062	-0.6758912656	-0.424547
H	 1.3276036697	 1.7879042497	 0.1036010266	 0.117424
H	-0.409131387	 1.8773700101	-0.2434599558	 0.109825
H	 0.1435854352	 1.5453439666	 1.3911409863	 0.119878
H	 1.023617421	-0.6718080377	 0.7322312366	 0.104731
H	-0.6632947272	-0.5693693961	 0.2720041943	 0.114985
H	-0.1994732336	 1.022409638	-2.1947021739	 0.274807
H	 2.3173011446	 0.0820458461	-2.7552393156	 0.097844
H	 2.8212792479	 0.1655753439	-1.0500224331	 0.091911
H	 2.753754455	-2.3178739472	-2.708293858	 0.065341
H	 2.7654721655	-2.1428890275	 0.3618649041	 0.126524
H	 3.0537692671	-3.6019604417	-0.5814388476	 0.104975
H	 4.1930008777	-2.2510557559	-0.6797858223	 0.109882
H	 0.3459382709	-2.2428061696	-2.6570737944	 0.076565
H	 0.2297367056	-3.7672686636	-0.9947650706	 0.28631
76.0079	109.3257	171.8791	192.382	214.1033	220.6207	232.3141	245.4302	279.6829	307.2033	352.2497	376.5475	437.895	547.066	554.9509	675.5659	763.4491	779.8704	818.4709	842.1249	904.8484	945.8541	970.102	1010.7962	1015.6297	1039.103	1089.5694	1098.3329	1144.2378	1166.693	1182.7264	1197.5423	1224.1709	1271.0229	1278.5285	1295.3056	1316.565	1329.2997	1365.5492	1384.971	1407.9843	1413.0355	1435.0464	1471.5359	1477.0431	1493.1428	1495.4815	1502.0774	1511.9625	3024.1739	3027.309	3033.069	3049.9088	3054.9956	3058.191	3079.2853	3094.4782	3102.3026	3105.8885	3112.4044	3117.362	3812.0047	3830.1642
CCC1(O)CC(C)C1O	CC[C@@]1(O)C[C@@H](C)[C@H]1O	
InChI=1S/C7H14O2/c1-3-7(9)4-5(2)6(7)8/h5-6,8-9H,3-4H2,1-2H3	InChI=1S/C7H14O2/c1-3-7(9)4-5(2)6(7)8/h5-6,8-9H,3-4H2,1-2H3/t5-,6-,7-/m1/s1
