19
gdb 29519	2.9888	1.51742	1.03082	1.6818	83.51	-0.1688	0.0575	0.2263	1154.8475	0.162983	-382.110388	-382.102222	-382.101278	-382.142762	31.892	
N	-0.0054920337	 1.4469119334	 0.0749296983	-0.608093
C	 0.0233747195	 0.0384978075	-0.0135365293	 0.051434
C	-1.0592627503	-0.8152334165	-0.1258869878	-0.157212
N	-0.5919501801	-2.1258674098	-0.0796077491	-0.387389
C	 0.7638354266	-2.094657099	 0.035004337	 0.305521
C	 1.178703737	-0.7887684094	 0.0852763293	 0.270243
C	 2.6633684824	-0.7037924934	 0.3027155745	-0.356491
C	 3.1150021987	-2.1785539148	 0.0353326984	-0.188462
C	 1.859996313	-3.0953888026	 0.2121557353	-0.345409
H	 0.7830426991	 1.8689915973	-0.4006019194	 0.236724
H	-0.8559268813	 1.8369682388	-0.3126632001	 0.233266
H	-2.1100841353	-0.6036599745	-0.2437304732	 0.097855
H	-1.1688898808	-2.9428523611	-0.1653328105	 0.252387
H	 3.1837486832	-0.0064914072	-0.3652724226	 0.090259
H	 2.9108902328	-0.3903855986	 1.3266336729	 0.102861
H	 3.4652935529	-2.2599778948	-0.9981539664	 0.105669
H	 3.9425923347	-2.4850692596	 0.6805654151	 0.094136
H	 1.8373745789	-3.5586733654	 1.2091876857	 0.104533
H	 1.8522246328	-3.9165361803	-0.514561298	 0.098168
132.0234	167.63	180.5347	224.7854	253.7328	306.227	392.4198	494.443	571.5343	603.8885	612.9865	638.7964	681.9299	719.9235	771.0065	807.0358	841.7614	899.9792	908.163	992.473	1041.4006	1061.818	1079.0739	1120.0598	1151.9022	1203.9442	1210.2324	1223.4766	1276.8869	1306.8873	1312.6982	1339.1644	1360.0065	1466.6815	1485.1303	1497.9349	1511.753	1532.5933	1564.0238	1631.2772	1656.568	2996.1461	3003.0644	3032.7196	3038.9632	3059.1178	3100.4883	3255.1734	3520.6136	3608.373	3691.7339
NC1=CNC2=C1CCC2	Nc1c[nH]c2c1CCC2	
InChI=1S/C7H10N2/c8-6-4-9-7-3-1-2-5(6)7/h4,9H,1-3,8H2	InChI=1S/C7H10N2/c8-6-4-9-7-3-1-2-5(6)7/h4,9H,1-3,8H2
