21
gdb 118877	3.04245	1.01965	0.91958	1.8538	78.16	-0.2528	0.0635	0.3163	1382.7267	0.180399	-424.188348	-424.178876	-424.177932	-424.222695	35.752	
C	 0.0077367483	 1.6144083371	 0.0271975674	-0.379837
C	 0.0778453972	 0.0853711727	-0.0247360443	-0.188716
C	 0.6275376363	-0.5274449334	 1.2698352509	-0.222313
C	 0.7429057004	-2.0476582094	 1.2432201551	 0.382343
O	-0.5125595033	-2.6949810025	 1.1376289829	-0.492172
C	 1.8340461198	-2.6923412516	 0.2882505539	-0.318328
C	 2.4865803782	-3.3007751682	 1.5339359277	 0.034925
O	 2.8303674159	-2.2100851775	 2.4030873168	-0.250302
C	 1.4882336185	-2.7004292828	 2.4270882362	-0.009211
H	 1.0008130808	 2.0475921762	 0.1883218307	 0.119217
H	-0.391321202	 2.0285489158	-0.9039314736	 0.111491
H	-0.636124418	 1.9518679582	 0.8466118618	 0.117794
H	-0.9291105445	-0.3072613842	-0.224435014	 0.084931
H	 0.7032824056	-0.2229125097	-0.8728819052	 0.100607
H	 1.6221111415	-0.1193808481	 1.4799742023	 0.114554
H	-0.0216281145	-0.2479361524	 2.1101332045	 0.096924
H	-0.9179336468	-2.4310435396	 0.3052547402	 0.281116
H	 1.3737229182	-3.4383077162	-0.363602293	 0.106557
H	 2.4718848352	-2.0200934467	-0.2912794276	 0.10235
H	 3.065546693	-4.2111665052	 1.6340819981	 0.104429
H	 1.07253796	-3.0257398625	 3.3739134393	 0.103639
82.6172	93.613	126.6129	195.9402	245.6162	263.212	287.9247	320.7728	367.6829	432.8709	457.6981	545.1984	687.4692	751.6965	799.209	833.8605	868.1865	870.7446	899.8198	917.0565	951.7937	981.5396	1002.016	1034.5448	1042.2557	1053.6627	1119.4808	1124.2075	1180.3519	1218.475	1226.9186	1245.5619	1258.6411	1283.1784	1301.2318	1337.5467	1365.7632	1388.1	1409.6863	1413.0871	1457.5819	1479.4813	1492.1636	1498.8193	1508.8469	3004.0686	3022.4465	3031.8031	3039.9254	3061.7968	3081.0459	3100.3482	3103.4423	3125.8627	3181.4309	3196.8232	3814.3789
CCCC1(O)CC2OC12	CCC[C@@]1(O)C[C@H]2O[C@@H]12	
InChI=1S/C7H12O2/c1-2-3-7(8)4-5-6(7)9-5/h5-6,8H,2-4H2,1H3	InChI=1S/C7H12O2/c1-2-3-7(8)4-5-6(7)9-5/h5-6,8H,2-4H2,1H3/t5-,6-,7-/m1/s1
