18
gdb 17922	3.11501	2.179	2.09948	0.9586	65.81	-0.2349	0.0658	0.3007	773.1923	0.15682	-384.947041	-384.94043	-384.939486	-384.977366	26.834	
O	-0.0545469398	 1.4117206571	 0.0298105084	-0.443698
C	 0.0071759704	 0.0025201631	-0.0382505626	 0.123834
C	-1.3690958721	-0.6029184508	-0.3690100103	-0.060389
C	-1.6541679379	-0.0035730527	-1.7677482545	-0.210066
C	-0.2399990257	-0.0035959782	-2.4350851307	-0.208117
C	 0.640577083	-0.5894125591	-1.3168172197	 0.067869
O	 0.3549994744	-1.9848768772	-1.1746445555	-0.2826
C	-0.9498909915	-2.0673277251	-0.5566617415	-0.077879
H	 0.838815992	 1.7450071195	 0.1583191012	 0.286434
H	 0.4520749334	-0.4303127832	 0.867973338	 0.068559
H	-2.1539977241	-0.4511845521	 0.3726874965	 0.070504
H	-2.3822376054	-0.6046074806	-2.3195299672	 0.09342
H	-2.049273943	 1.0097746526	-1.6801993615	 0.112274
H	-0.1844083543	-0.6323325163	-3.3264163568	 0.103029
H	 0.0774191311	 1.0070831393	-2.7038108208	 0.098534
H	 1.7186852963	-0.4739700717	-1.4468793553	 0.063913
H	-0.8644796774	-2.6105220348	 0.3936880312	 0.096242
H	-1.6350095595	-2.6218385298	-1.209874269	 0.098138
191.9125	239.595	287.0104	302.9832	376.2921	410.5032	555.7363	605.8162	755.1982	776.4444	841.1077	844.6213	877.9218	901.7576	934.6703	960.1415	975.3445	1026.4544	1045.3152	1047.9925	1083.5333	1140.727	1154.3805	1176.4917	1197.2939	1213.7289	1247.7917	1281.1379	1297.3491	1305.9238	1311.6676	1343.3766	1355.9051	1375.9219	1430.1218	1471.2879	1495.9836	1529.7732	3007.5648	3016.0941	3045.3313	3061.2457	3069.0179	3097.6946	3106.9777	3114.859	3125.5896	3822.5025
OC1C2CCC1OC2	O[C@H]1[C@H]2CC[C@@H]1OC2	
InChI=1S/C6H10O2/c7-6-4-1-2-5(6)8-3-4/h4-7H,1-3H2	InChI=1S/C6H10O2/c7-6-4-1-2-5(6)8-3-4/h4-7H,1-3H2/t4-,5-,6-/m0/s1
