21
gdb 94936	2.3352	1.48615	1.23453	2.3013	77.94	-0.2394	0.0704	0.3098	1126.7684	0.182038	-424.218975	-424.209709	-424.208765	-424.252535	35.811	
C	 0.0259709205	 1.6591070504	-0.165943261	-0.456655
C	 0.070424969	 0.1572382186	-0.0069753648	 0.40801
O	-1.1780251818	-0.4432497966	-0.2905141532	-0.471104
C	 1.2517282374	-0.7316711113	-0.3353898727	-0.121684
C	 2.6676445106	-0.1671584263	-0.4124136598	-0.233757
C	 2.9186118799	 0.560114202	 0.9313523736	-0.271571
C	 1.8436940744	 0.0465040687	 1.9319739359	 0.114624
O	 1.2974232633	 1.073601993	 2.7542744185	-0.436603
C	 0.754430463	-0.599763895	 1.0987430338	-0.089824
H	 0.9718059089	 2.1472437425	 0.0635764353	 0.123912
H	-0.2403755334	 1.9170791514	-1.1996504304	 0.096065
H	-0.7384462464	 2.0765596637	 0.495190756	 0.135532
H	-1.3650463261	-0.2935415111	-1.224206516	 0.275334
H	 1.0214103668	-1.623636023	-0.9085076697	 0.080353
H	 3.3678427597	-1.001036651	-0.532683461	 0.102828
H	 2.8225154093	 0.4952264566	-1.2717684686	 0.098466
H	 3.9329184176	 0.3865223107	 1.3033894657	 0.09345
H	 2.8037807082	 1.6424375757	 0.8321444691	 0.112112
H	 2.2812834708	-0.7382041165	 2.5685833267	 0.066576
H	 1.9960219287	 1.3912135178	 3.3352917452	 0.279692
H	 0.1610684095	-1.3817676903	 1.5576697974	 0.094244
96.0419	122.4982	161.9424	205.5372	246.4006	284.939	299.3972	387.2878	401.0169	422.2669	446.8696	533.5388	634.1804	667.9467	713.9061	812.9313	836.6486	876.3929	905.9622	956.3274	962.8358	1000.9746	1020.4391	1066.1018	1068.2363	1080.3852	1101.6988	1121.7604	1175.0433	1189.6873	1227.4998	1243.2599	1275.6105	1291.7457	1311.0542	1326.2954	1344.4272	1356.3614	1413.4851	1430.2272	1449.8022	1476.5076	1490.9228	1501.7916	1510.8987	2970.9425	3022.078	3033.7783	3058.5947	3063.9624	3098.6857	3101.7828	3159.2455	3162.0577	3182.2232	3789.3286	3813.8256
CC1(O)C2CCC(O)C12	C[C@@]1(O)[C@H]2CC[C@@H](O)[C@@H]12	
InChI=1S/C7H12O2/c1-7(9)4-2-3-5(8)6(4)7/h4-6,8-9H,2-3H2,1H3	InChI=1S/C7H12O2/c1-7(9)4-2-3-5(8)6(4)7/h4-6,8-9H,2-3H2,1H3/t4-,5+,6-,7+/m0/s1
