22
gdb 119483	3.88466	0.93013	0.86605	1.6088	86.15	-0.2024	0.0804	0.2828	1456.3009	0.194015	-367.131547	-367.122689	-367.121745	-367.165429	34.537	
C	-0.0309795595	 1.6010957465	-0.0734333491	-0.381267
C	-0.0260500981	 0.0723715956	-0.150274295	-0.154012
C	-1.4023969188	-0.5490492698	 0.1356499638	-0.305439
C	-1.3959723864	-2.0510341197	 0.0983042946	 0.384171
C	-1.5378248453	-2.8827155909	-1.1504370301	-0.337509
C	-2.5512376495	-3.0360487012	-0.0415988755	-0.142925
C	-1.9875292484	-3.8446111959	 1.1616090776	-0.04858
N	-0.6103691342	-4.3032618856	 0.8377264265	-0.339254
C	-0.8563359684	-2.9098678662	 1.2926061665	-0.118026
H	 0.9599229726	 2.0154990331	-0.2840222021	 0.11065
H	-0.7322961505	 2.031884776	-0.7970946778	 0.112619
H	-0.3320367662	 1.9478286905	 0.9216677185	 0.111486
H	 0.3107688692	-0.2505269992	-1.1429455688	 0.101663
H	 0.706702969	-0.329321793	 0.5617926415	 0.095473
H	-1.7560773128	-0.2057118392	 1.1193002529	 0.089194
H	-2.1311708521	-0.1742440773	-0.5953726631	 0.093131
H	-1.9047716719	-2.3309306379	-2.0112956909	 0.100817
H	-0.8443950089	-3.6831751389	-1.3741710134	 0.138482
H	-3.604165611	-2.81994815	-0.171711491	 0.084955
H	-2.5781306999	-4.3413632321	 1.9202419396	 0.090762
H	-0.2743676457	-4.8233731582	 1.648041484	 0.226946
H	-0.3710423932	-2.5123169166	 2.1753726114	 0.086662
73.1875	87.4479	111.2391	243.1313	281.0741	293.3335	330.2542	417.6664	434.9526	566.5015	675.871	732.1255	743.6476	789.7679	824.5822	840.9802	852.5425	879.3689	895.4347	913.8344	924.2236	960.5601	983.1004	998.8915	1043.3067	1047.7892	1072.4935	1097.5779	1103.3606	1118.6433	1147.4149	1210.1333	1224.4357	1265.1516	1277.8356	1309.109	1315.2015	1335.4867	1354.6072	1384.0025	1403.6796	1411.3	1471.5593	1479.8281	1492.0118	1499.532	1509.2234	2994.4171	3020.6141	3027.3595	3034.1883	3058.5222	3093.8905	3100.3783	3132.1583	3183.0273	3189.4493	3201.8664	3228.5904	3471.0372
CCCC12CC1C1NC21	CCC[C@]12C[C@H]1[C@H]1N[C@@H]21	
InChI=1S/C8H13N/c1-2-3-8-4-5(8)6-7(8)9-6/h5-7,9H,2-4H2,1H3	InChI=1S/C8H13N/c1-2-3-8-4-5(8)6-7(8)9-6/h5-7,9H,2-4H2,1H3/t5-,6+,7+,8-/m0/s1
