18
gdb 67294	3.13545	1.62471	1.34282	0.7843	76.73	-0.2336	0.0753	0.3089	998.484	0.147041	-401.824001	-401.816489	-401.815545	-401.855627	29.813	
C	-0.0547385859	 1.5003944699	 0.0377590737	-0.531507
C	-0.0657662666	 0.0054615158	-0.0315224102	 0.23704
C	 0.7937046821	-0.9612724079	-0.9293027566	-0.096203
C	 1.9076224971	-0.9083537619	 0.1068994529	-0.200928
N	 0.6821140823	-0.8949357967	 1.0199164122	-0.196017
C	-0.0240334127	-1.8763519182	 0.0351651947	-0.137975
C	-1.231765038	-0.9682045484	-0.0078944934	 0.495055
C	-2.5802355111	-0.9758217464	 0.534575209	-0.288053
O	-2.3236544251	-1.0168146621	-0.8925326643	-0.294892
H	 0.9651090539	 1.8967026645	 0.0067474214	 0.128987
H	-0.6094418382	 1.9209842917	-0.8073439145	 0.137229
H	-0.525539162	 1.8446857764	 0.9640500141	 0.134849
H	 0.8294052881	-1.002812718	-2.0224422581	 0.077261
H	 2.533173728	-1.7971196274	 0.2378916229	 0.102807
H	 2.5188270129	-0.0029874438	 0.1767175473	 0.102075
H	 0.0626895602	-2.9541821228	 0.1712285793	 0.087684
H	-2.9947756119	-1.8908366696	 0.9539774903	 0.122577
H	-3.0316965832	-0.052541265	 0.8936921293	 0.120011
149.5969	189.2247	202.071	239.3982	308.3647	343.4089	502.1624	534.217	596.9092	647.033	694.2327	796.1753	835.4043	841.7716	862.9493	897.2289	922.6481	934.8809	1003.4142	1025.9543	1067.0896	1074.8625	1097.8208	1110.1695	1124.404	1134.3892	1157.8662	1173.7902	1202.2283	1218.9514	1268.1592	1273.9101	1331.5251	1410.9846	1471.3514	1482.5743	1489.3751	1527.6571	1565.8969	3035.3617	3039.7237	3058.4005	3088.6746	3096.4043	3107.5198	3107.7592	3123.939	3175.8284
CC12C3CN1C3C21CO1	C[C@@]12[C@H]3CN1[C@H]3[C@]12CO1	
InChI=1S/C7H9NO/c1-6-4-2-8(6)5(4)7(6)3-9-7/h4-5H,2-3H2,1H3	InChI=1S/C7H9NO/c1-6-4-2-8(6)5(4)7(6)3-9-7/h4-5H,2-3H2,1H3/t4-,5+,6-,7-/m0/s1
