23
gdb 118058	3.82859	0.71964	0.63438	1.5424	79.78	-0.2598	0.0696	0.3294	1835.3431	0.202562	-462.552021	-462.540525	-462.539581	-462.589145	40.753	
C	 0.053075176	 1.5634135225	 0.0480142234	-0.385329
C	-0.0005069134	 0.0340145227	 0.0344867818	-0.19564
C	-1.4273113091	-0.5138542129	-0.0400403024	 0.125906
O	-2.1099721156	-0.0813220302	-1.2169932103	-0.434718
C	-1.4668709272	-2.044401673	 0.0623832861	 0.091046
O	-0.8509363429	-2.4219278376	 1.2813677553	-0.446604
C	-2.8918608966	-2.587291101	 0.011902439	-0.082968
O	-2.7967189556	-3.9852761034	 0.2292419766	-0.252949
C	-4.049536508	-4.6224961405	 0.3266293927	-0.228407
H	 1.0864426216	 1.9227230582	 0.0406899703	 0.109346
H	-0.4622450977	 1.9805645513	-0.8217258755	 0.121341
H	-0.4331738022	 1.9647867869	 0.9439650255	 0.115766
H	 0.5646634158	-0.3553747402	-0.8264990353	 0.078594
H	 0.4788117426	-0.3802498335	 0.9263383216	 0.127848
H	-2.0137559663	-0.1047274736	 0.7926116566	 0.090977
H	-1.5601000078	-0.3159925569	-1.9734949965	 0.278575
H	-0.9108309435	-2.4682290474	-0.7951155909	 0.055347
H	-1.1163641318	-3.3378295846	 1.4324626321	 0.291419
H	-3.4974307391	-2.1194291706	 0.8059125695	 0.090225
H	-3.3620103048	-2.3648545029	-0.955037499	 0.102447
H	-4.6472452136	-4.2190620101	 1.1584675665	 0.109458
H	-4.6322640343	-4.5122837945	-0.6004446439	 0.10991
H	-3.8646511966	-5.6847556886	 0.5039966268	 0.128411
56.8763	84.8519	97.5067	115.8015	126.9702	209.8078	231.792	239.659	267.0274	307.7669	314.7168	368.9971	413.3697	446.9409	485.8696	538.6138	598.2476	780.9738	874.7596	914.0358	981.9465	988.5434	1037.2497	1063.1111	1088.6827	1112.704	1126.7179	1150.1426	1171.5901	1184.5175	1218.966	1230.5259	1253.4577	1269.0055	1316.1601	1345.2648	1357.3457	1380.9783	1404.5579	1405.0867	1415.0652	1455.0415	1478.8568	1484.2019	1485.6866	1496.8567	1500.4937	1509.2099	1521.4487	2925.9532	2968.6828	2980.6659	2993.5453	3025.9062	3035.9593	3038.7269	3043.1802	3088.2142	3102.9572	3115.2511	3118.2532	3777.7529	3791.2637
CCC(O)C(O)COC	CC[C@@H](O)[C@@H](O)COC	
InChI=1S/C6H14O3/c1-3-5(7)6(8)4-9-2/h5-8H,3-4H2,1-2H3	InChI=1S/C6H14O3/c1-3-5(7)6(8)4-9-2/h5-8H,3-4H2,1-2H3/t5-,6+/m1/s1
