16
gdb 101960	1.75801	1.51707	1.20698	2.6644	76.04	-0.2773	-0.0604	0.2169	1144.7727	0.120355	-400.729751	-400.719809	-400.718865	-400.764632	34.901	
C	-0.2355516711	 1.6124373515	 0.0501256315	-0.41854
C	-0.0218001148	 0.0979116439	 0.0293471926	-0.20113
C	 0.676645674	-0.4330172494	-1.2544986182	-0.187706
C	 2.1759277914	 0.0212918221	-1.3284620144	 0.161139
O	 2.7540399726	 0.5172892557	-0.4073183943	-0.223866
C	 0.7378216921	-1.8972216237	-1.2679723347	 0.306498
C	 0.8527115313	-3.0925496445	-1.2490633424	-0.411021
C	 0.0116066036	 0.0484600235	-2.4767766873	 0.285699
N	-0.4804994018	 0.4590734061	-3.4382277675	-0.331929
H	 0.7146528963	 2.1497243049	 0.0110632595	 0.143254
H	-0.8570096386	 1.9416711842	-0.7878256541	 0.143517
H	-0.7437191432	 1.8973426917	 0.9754757786	 0.125929
H	 0.6060964328	-0.2124841278	 0.8684033735	 0.136385
H	-0.9769442941	-0.4263105937	 0.1218737485	 0.126849
H	 2.6575096034	-0.1978632802	-2.301345802	 0.12781
H	 0.9308486761	-4.1524154545	-1.2385511993	 0.217112
83.6762	112.1396	123.4486	145.3421	160.2216	207.019	226.6233	286.0797	352.2318	450.8586	476.435	511.2966	555.816	577.4888	661.8819	666.361	716.6645	785.5283	939.7676	955.1512	979.6378	1057.8676	1118.2881	1148.2748	1176.9294	1312.1636	1360.1478	1406.9353	1417.9819	1477.1928	1500.2361	1509.0551	1846.5679	2236.5414	2355.6383	2949.415	3051.1065	3066.7485	3109.1491	3121.0116	3137.2823	3497.5158
CCC(C=O)(C#C)C#N	CC[C@@](C=O)(C#C)C#N	
InChI=1S/C7H7NO/c1-3-7(4-2,5-8)6-9/h1,6H,4H2,2H3	InChI=1S/C7H7NO/c1-3-7(4-2,5-8)6-9/h1,6H,4H2,2H3/t7-/m0/s1
