18
gdb 106201	3.8501	1.45947	1.3359	2.6834	73.51	-0.2293	0.0718	0.3011	994.7089	0.149832	-401.888899	-401.881995	-401.881051	-401.920116	28.282	
O	-0.0179385132	 1.3619180683	-0.2826906323	-0.416515
C	 0.0651835532	-0.0072585968	 0.0549953007	-0.18109
C	-1.3099135463	-0.5768277413	 0.2742206063	 0.316734
C	-1.7627680879	-2.0416171697	 0.1208721112	-0.189916
C	-3.1881856745	-2.0207256898	 0.6571540612	-0.082107
C	-3.3971025183	-0.832331844	 1.5748291249	-0.243436
C	-2.4574262257	 0.1339078154	 0.8917199418	-0.083375
N	-2.4331554309	-0.0869990491	-0.5987535845	-0.221448
C	-2.8888381317	-1.5234515547	-0.7317419709	-0.014579
H	-0.7255937497	 1.4222849526	-0.9402418552	 0.295285
H	 0.5781819213	-0.589499918	-0.7294946752	 0.089336
H	 0.671827001	-0.0807081967	 0.9655874014	 0.11042
H	-1.1401663194	-2.9198153279	 0.0267318793	 0.095544
H	-3.7163425697	-2.9575080714	 0.7829424354	 0.095349
H	-4.4337263445	-0.4791613363	 1.5741503387	 0.111397
H	-3.0946369811	-1.0306456828	 2.6086598502	 0.11071
H	-2.3685422645	 1.1717279293	 1.1885138233	 0.10794
H	-3.333818068	-1.8702412271	-1.6543128163	 0.099751
108.395	187.3412	235.2034	380.3758	412.5509	505.2944	571.8521	652.1855	698.4709	724.1594	765.1147	781.5311	832.4229	851.3346	884.8775	908.5563	958.3672	963.6891	1007.1075	1012.6013	1027.1401	1038.7219	1051.1334	1072.0633	1079.226	1101.6024	1163.8138	1187.6	1215.8555	1224.9333	1261.2639	1278.8536	1298.7345	1367.0885	1382.1974	1423.9484	1448.6967	1488.5624	1509.9851	2957.7172	3046.1646	3050.8297	3089.4888	3198.1651	3199.9165	3204.5033	3219.7357	3739.3716
OCC12C3C4CC1N2C34	OC[C@@]12[C@H]3[C@H]4C[C@@H]1N2[C@@H]34	
InChI=1S/C7H9NO/c9-2-7-4-1-3-5(7)6(3)8(4)7/h3-6,9H,1-2H2	InChI=1S/C7H9NO/c9-2-7-4-1-3-5(7)6(3)8(4)7/h3-6,9H,1-2H2/t3-,4+,5+,6-,7+,8?/m1/s1
