20
gdb 121449	5.55003	0.68284	0.64254	4.5485	80.52	-0.243	0.0207	0.2637	1776.6216	0.170012	-440.285446	-440.275844	-440.2749	-440.32112	34.583	
C	-0.5541909134	 1.4880921621	-0.1403361055	-0.399322
C	 0.0635644862	 0.1127972096	-0.0346483256	 0.150798
C	 0.9244932185	-0.4063331938	-1.2101318733	-0.401079
C	 2.0443085837	-0.3773009462	-0.1954068433	 0.478097
O	 1.2564664738	 0.1108986265	 0.8287330485	-0.276001
N	 3.2584839562	-0.6781150442	-0.2003480069	-0.366363
C	 4.0472337944	-0.5376821493	 1.0224943463	-0.169353
C	 5.1279403935	-1.6203657438	 1.0126163649	-0.0446
O	 5.8941033825	-1.5639623119	-0.1717317229	-0.42436
H	 0.1707748162	 2.2128710302	-0.5230316761	 0.12967
H	-1.413607925	 1.4630814796	-0.8185818161	 0.127427
H	-0.9016546054	 1.8303673179	 0.8388053234	 0.137044
H	-0.6527606784	-0.6203025347	 0.3485987575	 0.09787
H	 0.6757314041	-1.3952987435	-1.59807156	 0.137413
H	 1.0450081394	 0.291587802	-2.0416005744	 0.135732
H	 4.5339716419	 0.4463281505	 1.0112010153	 0.114335
H	 3.4367930141	-0.6020509381	 1.9328748222	 0.105326
H	 5.8135628298	-1.4756599541	 1.8547345883	 0.098817
H	 4.6502108496	-2.6070078445	 1.1363698164	 0.079681
H	 5.2453811982	-1.4633362942	-0.8815177986	 0.288867
30.7206	92.7139	98.212	146.0081	190.4014	236.8817	312.9072	331.9438	423.9327	476.0293	503.0146	511.4984	584.5522	720.818	805.7621	882.8106	894.0168	902.5072	908.7499	980.1853	1045.7867	1061.5758	1070.6771	1095.3751	1112.4294	1121.6495	1156.8962	1200.5027	1225.3042	1240.1416	1266.4834	1321.1368	1372.3122	1382.2043	1384.6134	1414.2684	1444.1201	1465.7004	1475.8959	1484.2095	1495.1593	1509.9793	1843.7739	2961.7973	3009.3221	3039.183	3055.0159	3063.2845	3068.5788	3081.7319	3112.8362	3120.1233	3137.5693	3753.5501
CC1CC(O1)=NCCO	C[C@H]1CC(=NCCO)O1	
InChI=1S/C6H11NO2/c1-5-4-6(9-5)7-2-3-8/h5,8H,2-4H2,1H3	InChI=1S/C6H11NO2/c1-5-4-6(9-5)7-2-3-8/h5,8H,2-4H2,1H3/t5-/m0/s1
