18
gdb 17384	4.72425	1.68813	1.58231	1.7108	71.41	-0.2374	0.0787	0.3161	878.111	0.154726	-347.757539	-347.750593	-347.749648	-347.789002	27.01	
C	-0.0312051637	 1.4400754687	 0.2066039098	-0.281187
C	 1.2508854576	 0.7548055884	-0.1572681031	-0.03939
C	 1.8660086299	 0.1332698307	 1.1020885974	-0.313239
C	 0.571332429	-0.7224041464	 1.27410513	 0.468956
C	 0.6543148215	-2.2604262198	 1.3692697142	-0.36065
C	-0.108179961	-2.080586593	 2.6952500655	-0.070939
O	-0.1455822032	-0.6499200461	 2.5258612462	-0.317682
C	-0.035322145	-0.0578260691	 0.0466381407	-0.107129
H	-0.1581347398	 1.8805850766	 1.1921892574	 0.121641
H	-0.5235488814	 1.9826129512	-0.594019304	 0.10993
H	 1.7757140146	 0.9544123524	-1.0825577332	 0.085983
H	 2.7467004826	-0.4869852845	 0.9153986487	 0.100145
H	 2.0814546294	 0.8259368652	 1.9218267149	 0.104238
H	 0.1148273667	-2.7983384625	 0.5869231941	 0.10993
H	 1.6637242101	-2.6674102009	 1.454097112	 0.108658
H	-1.1141816046	-2.5157832142	 2.7302478508	 0.101361
H	 0.4347368098	-2.3722887076	 3.6025495147	 0.100434
H	-0.6666734923	-0.5531694492	-0.6825961961	 0.07894
64.0103	122.2104	242.589	373.0333	396.8174	444.8044	528.095	744.7226	780.8305	787.473	829.4313	864.7706	882.1926	914.7574	937.3772	972.0159	980.485	986.8927	1022.5704	1031.1255	1059.4641	1081.7193	1112.9537	1142.6539	1158.6599	1184.1242	1194.738	1221.7585	1225.0585	1242.6412	1264.908	1313.6198	1350.0262	1368.8008	1473.3329	1486.8555	1494.0861	1532.0322	3016.2677	3046.8486	3054.6568	3071.7426	3102.5425	3115.3048	3126.2337	3169.3486	3193.6378	3206.6581
C1C2CC3(CCO3)C12	C1[C@H]2C[C@]3(CCO3)[C@@H]12	
InChI=1S/C7H10O/c1-2-8-7(1)4-5-3-6(5)7/h5-6H,1-4H2	InChI=1S/C7H10O/c1-2-8-7(1)4-5-3-6(5)7/h5-6H,1-4H2/t5-,6-,7+/m0/s1
