21
gdb 75242	3.59324	1.19377	1.04384	1.1916	85.14	-0.2343	0.0291	0.2634	1241.5023	0.182642	-387.091213	-387.082663	-387.081719	-387.124045	33.717	
C	 0.0328240969	 1.5110070101	 0.0855531889	-0.479737
C	-0.0167302066	 0.0141409007	-0.0347135738	 0.296583
C	-0.0661939324	-0.6367549139	-1.1970643964	-0.157623
C	-0.0723681148	-2.141503477	-1.2811258643	-0.317568
C	 0.3186326649	-2.7376433137	 0.0555400458	 0.442666
C	 0.5600664117	-4.1998757737	 0.2245749087	-0.332166
C	 1.7253047915	-3.2280852905	 0.3056643794	-0.323037
O	-0.3423041345	-2.1225741567	 1.1303021215	-0.288423
C	 0.0038658208	-0.7543366809	 1.2652856558	-0.163274
H	 0.9234081569	 1.8373269301	 0.638742955	 0.123561
H	 0.0529184917	 1.989923172	-0.896859253	 0.123316
H	-0.8343635857	 1.8975530774	 0.6366154296	 0.123841
H	-0.1037119623	-0.0799389055	-2.1307145024	 0.078059
H	-1.0694288345	-2.5013074252	-1.5760207981	 0.112066
H	 0.618103712	-2.4833136321	-2.0618082965	 0.102161
H	 0.2192667442	-4.6454904874	 1.152079121	 0.122193
H	 0.4745988259	-4.8385952405	-0.6482766595	 0.109599
H	 2.4420591426	-3.2036080856	-0.508192201	 0.109548
H	 2.1448959862	-3.045701803	 1.2889047441	 0.115227
H	 0.9980151991	-0.6521890896	 1.7382064071	 0.093396
H	-0.7242336035	-0.330377435	 1.9678048681	 0.109614
84.2883	166.2104	189.1898	250.2132	264.2932	325.4871	354.3401	404.4393	430.263	485.7623	549.8368	648.3782	735.8974	772.897	803.1508	861.5938	883.6614	918.1585	941.436	975.1275	987.3561	1011.1222	1036.4187	1045.8225	1068.2916	1077.987	1094.7422	1108.4849	1178.2891	1187.7234	1209.9068	1269.574	1279.8865	1303.1874	1361.7441	1386.907	1409.1048	1415.0302	1451.5469	1475.4373	1478.6966	1483.0749	1492.5485	1499.492	1747.3675	2935.9923	2996.445	3013.1279	3045.1218	3047.3306	3058.1261	3111.6095	3130.5391	3135.1465	3148.5915	3214.9135	3229.2233
CC1=CCC2(CC2)OC1	CC1=CCC2(CC2)OC1	
InChI=1S/C8H12O/c1-7-2-3-8(4-5-8)9-6-7/h2H,3-6H2,1H3	InChI=1S/C8H12O/c1-7-2-3-8(4-5-8)9-6-7/h2H,3-6H2,1H3
