16
gdb 52959	4.84765	0.82991	0.78631	4.385	81.72	-0.246	-0.0173	0.2287	1471.7604	0.122435	-400.707778	-400.69894	-400.697996	-400.743115	31.38	
C	-0.0427664261	 1.4803333631	 0.0253835925	-0.508602
C	-0.0077622075	 0.0269325203	-0.0045334514	 0.244666
C	 0.0089108424	-1.1779155161	-0.0289476478	-0.123707
C	 0.0764123689	-2.5978766798	-0.0513980501	 0.123358
C	-0.4269635405	-3.4408953951	-1.1523618333	-0.266895
N	-1.1934679405	-3.5032368349	 0.1255003206	-0.199999
C	-0.3888158716	-4.3339492131	 1.0072072499	 0.417371
O	-0.7194235799	-5.3013151808	 1.615820282	-0.293539
C	 0.8698245552	-3.4574057145	 0.9433224865	-0.428365
H	 0.6956284466	 1.8784351936	 0.7296699338	 0.155158
H	 0.172132415	 1.905316987	-0.9610790419	 0.154126
H	-1.0285360538	 1.8422490825	 0.337560996	 0.159344
H	-0.9907288175	-2.954618269	-1.9408432848	 0.147297
H	 0.1366431852	-4.3171354123	-1.466571371	 0.132113
H	 1.7944968438	-3.916520154	 0.5851623269	 0.134689
H	 1.0544158003	-2.9602180769	 1.8981052322	 0.152985
18.9584	73.1541	97.8706	170.042	294.5688	311.678	365.7404	439.6709	466.429	521.0071	570.5473	572.6342	633.804	730.9155	833.243	872.9289	953.6777	1003.4865	1032.6154	1040.9226	1050.1117	1053.5885	1111.3117	1135.9676	1174.2039	1217.3802	1250.723	1393.6622	1415.4596	1454.5314	1474.2827	1475.8087	1505.6635	1921.3604	2366.9822	3029.1316	3071.8817	3091.5994	3093.1421	3108.0512	3131.6131	3212.2026
CC#CC12CN1C(=O)C2	CC#C[C@]12CN1C(=O)C2	
InChI=1S/C7H7NO/c1-2-3-7-4-6(9)8(7)5-7/h4-5H2,1H3	InChI=1S/C7H7NO/c1-2-3-7-4-6(9)8(7)5-7/h4-5H2,1H3/t7-,8?/m0/s1
