14
gdb 23923	4.24376	1.28978	1.24541	2.6076	51.17	-0.2513	0.0793	0.3306	973.112	0.103555	-510.197311	-510.189853	-510.188909	-510.22989	26.716	
F	 0.2301775879	 0.1415002545	-0.0608478284	-0.068921
C	-0.031062515	 1.4427795463	 0.0823382613	 0.287657
F	 1.1441741553	 2.0851026269	 0.1831793067	-0.081769
F	-0.6280482415	 1.8680838776	-1.044207487	-0.081015
C	-0.9272170821	 1.7235163971	 1.2792624533	-0.284355
N	-0.2957628837	 1.2801544124	 2.5045936273	-0.066005
C	 0.5647650184	 2.250700932	 3.1775991329	-0.214712
C	-0.771050781	 1.9069426915	 3.7351288542	-0.223364
H	-1.1639512962	 2.8011744531	 1.2601938019	 0.108361
H	-1.858295632	 1.1688397451	 1.1264546002	 0.135962
H	 1.4698444558	 1.843850306	 3.6172715752	 0.1278
H	 0.6805495602	 3.230827118	 2.7201420558	 0.119986
H	-1.5532130286	 2.6602600181	 3.6555770354	 0.114297
H	-0.8625468376	 1.2446087016	 4.5905352912	 0.126078
65.4207	103.8491	160.6154	302.517	335.7984	375.3902	429.5085	538.4696	545.0032	666.7869	776.0438	842.6292	850.6964	908.3417	982.3883	1037.1295	1047.6286	1115.9225	1123.0055	1157.5994	1170.6772	1193.7351	1222.598	1284.9665	1319.7025	1333.299	1418.4213	1478.1662	1494.6851	1523.124	2964.3027	3086.4772	3100.0789	3110.57	3187.0323	3203.0293
FC(F)(F)CN1CC1	FC(F)(F)CN1CC1	
InChI=1S/C4H6F3N/c5-4(6,7)3-8-1-2-8/h1-3H2	InChI=1S/C4H6F3N/c5-4(6,7)3-8-1-2-8/h1-3H2
