17
gdb 33943	3.39653	1.42422	1.24296	1.8619	78.97	-0.228	0.0242	0.2522	1036.7908	0.137193	-380.783988	-380.776669	-380.775725	-380.815436	29.727	
C	-0.0062686271	-1.17651391	-0.0680958661	-0.365773
C	 0.0284692459	 0.0229320589	 0.0182920564	 0.141979
C	 0.0402433898	 1.449765838	 0.1189507594	 0.200174
N	 0.3130777732	 2.2738012268	-1.0956417005	-0.374795
C	 1.2901214051	 2.2721642761	-0.0000391521	-0.097283
C	 1.1533209126	 3.4476794466	 0.95951918	-0.170918
N	-0.1548706698	 3.3451123634	 1.6471495432	-0.108692
C	-1.3547318767	 3.4997538185	 0.8096445943	-0.245161
C	-0.848157608	 2.1438510116	 1.1386002814	-0.097309
H	-0.0298828135	-2.2355821242	-0.1421536196	 0.192831
H	 0.6302142257	 1.6570060052	-1.8409252356	 0.240426
H	 2.2584328034	 1.8050804954	-0.1533592872	 0.104229
H	 1.9379957169	 3.3876077557	 1.7214357004	 0.113949
H	 1.2479802567	 4.4118803959	 0.4500756774	 0.119116
H	-2.2164395228	 3.8958275655	 1.3405958287	 0.109801
H	-1.2401460154	 3.829861374	-0.2173192295	 0.141482
H	-1.3405461259	 1.5035003424	 1.8634710094	 0.095942
135.5741	149.3222	275.0912	313.124	418.2362	464.3937	496.691	518.6019	589.4401	607.5919	667.9342	695.0539	698.7845	787.8202	817.9668	858.9736	882.2621	927.6128	973.4414	1014.9463	1044.4352	1069.1372	1071.762	1106.9866	1124.3551	1156.0587	1170.242	1234.4956	1255.5215	1270.7787	1281.28	1345.9186	1380.7386	1421.3632	1485.3205	1501.2134	2237.3079	3043.7864	3087.5391	3112.2879	3158.2049	3161.8422	3211.2911	3494.1677	3501.8035
C#CC12NC1CN1CC21	C#C[C@]12N[C@H]1CN1C[C@@H]21	
InChI=1S/C7H8N2/c1-2-7-5(8-7)3-9-4-6(7)9/h1,5-6,8H,3-4H2	InChI=1S/C7H8N2/c1-2-7-5(8-7)3-9-4-6(7)9/h1,5-6,8H,3-4H2/t5-,6-,7-,9?/m0/s1
