14
gdb 24390	3.81783	1.67389	1.172	1.2882	67.49	-0.2084	-0.0042	0.2042	960.3974	0.104099	-436.715437	-436.709089	-436.708145	-436.746349	24.709	
C	 0.0074867156	 1.542494472	-0.0531764593	-0.279921
N	 1.3915930224	 2.0029539783	 0.1267015287	-0.247571
C	 2.3482736829	 1.2024266751	 0.2725050611	 0.117629
O	 2.3298428037	-0.187519376	 0.2966836757	-0.237846
C	 1.0749872968	-0.6584396618	 0.1344991439	 0.404393
C	-0.065876355	 0.0441807666	-0.0345659931	 0.103123
C	-1.0881582784	-0.9609049978	-0.1549441112	-0.309743
C	-0.4601586775	-2.1605598584	-0.0461876418	-0.019534
O	 0.8947921574	-1.9845565745	 0.1352633718	-0.187154
H	-0.6007456374	 2.0021788347	 0.7378766922	 0.126912
H	-0.364556349	 1.9690767136	-0.9947844088	 0.126912
H	 3.3711782753	 1.5403703522	 0.405566173	 0.141198
H	-2.1464567991	-0.8101179387	-0.302278314	 0.11856
H	-0.7886736678	-3.1846802954	-0.0713581682	 0.143042
97.6193	236.3593	302.3968	407.2786	494.0354	513.2093	611.6557	633.1074	666.5495	717.0086	736.708	824.3863	863.8281	916.7629	936.0411	944.0313	1034.3752	1044.5231	1069.2177	1140.7006	1177.6028	1246.2709	1260.5103	1312.1202	1365.6017	1401.8514	1479.1071	1503.068	1539.2113	1685.9615	1759.8584	3004.3775	3017.2197	3196.5987	3254.3213	3300.8058
C1N=COC2=C1C=CO2	C1N=COc2c1cco2	
InChI=1S/C6H5NO2/c1-2-8-6-5(1)3-7-4-9-6/h1-2,4H,3H2	InChI=1S/C6H5NO2/c1-2-8-6-5(1)3-7-4-9-6/h1-2,4H,3H2
