19
gdb 84741	2.00542	1.85147	1.18128	2.8751	76.65	-0.2416	-0.0187	0.2229	1097.8907	0.158884	-423.060243	-423.051355	-423.050411	-423.093791	33.523	
C	-0.0712196609	 1.5608237488	 0.0185082788	-0.396766
C	 0.0881838188	 0.0434429225	 0.026650951	-0.109694
C	 0.768772324	-0.4991867163	-1.2634234317	 0.074676
O	 1.9491147862	 0.2262238721	-1.6066112093	-0.425227
C	 1.0545717842	-1.9768396032	-1.169650755	-0.101245
C	 1.13685868	-2.6362909496	-0.0142838446	-0.055027
C	 0.937504734	-1.9896164007	 1.3328390588	-0.355913
C	 0.8480102374	-0.4705180224	 1.2409061459	 0.363828
O	 1.3621313097	 0.2534378925	 2.0615335495	-0.309463
H	 0.9032154139	 2.0471446846	-0.0462803794	 0.138862
H	-0.6694048879	 1.8783756999	-0.8411726479	 0.107531
H	-0.5625774273	 1.9046801403	 0.9316133273	 0.121041
H	-0.8984088646	-0.4436208033	 0.0579935646	 0.094308
H	 0.0888203026	-0.3049820469	-2.1009778536	 0.095304
H	 2.6475523721	-0.0423760732	-0.9987630654	 0.28418
H	 1.2443527562	-2.490812586	-2.1078694292	 0.100933
H	 1.370483328	-3.6984025519	-0.0100108118	 0.102882
H	 0.0075934228	-2.3604914791	 1.7923209314	 0.136565
H	 1.7417015006	-2.2495453382	 2.0290675906	 0.133225
77.2782	97.1885	175.5899	224.6136	262.6072	271.0652	324.1448	397.0495	440.0022	481.7968	528.3959	577.2957	644.1723	711.0127	750.9723	810.7479	890.7409	932.3811	942.7943	986.487	1009.822	1030.0826	1058.6297	1091.6569	1124.2791	1162.6404	1177.1908	1226.4491	1237.1386	1298.1656	1317.4134	1328.4682	1391.4962	1404.2019	1411.3913	1430.7212	1448.3757	1487.9154	1493.5494	1717.8168	1814.1361	2994.9312	3000.0956	3042.2775	3051.9165	3074.5961	3120.4568	3145.6221	3149.9107	3175.8429	3798.5163
CC1C(O)C=CCC1=O	C[C@H]1[C@@H](O)C=CCC1=O	
InChI=1S/C7H10O2/c1-5-6(8)3-2-4-7(5)9/h2-3,5-6,8H,4H2,1H3	InChI=1S/C7H10O2/c1-5-6(8)3-2-4-7(5)9/h2-3,5-6,8H,4H2,1H3/t5-,6-/m0/s1
