15
gdb 74716	2.36233	1.80265	1.48964	2.9496	66.9	-0.2269	-0.0131	0.2137	930.906	0.112506	-453.938847	-453.930788	-453.929844	-453.971135	30.648	
N	-0.0090926911	 1.2611844806	 0.0933630969	-0.618026
C	 0.0019964635	-0.0852638692	-0.0283333825	 0.384177
N	-1.0162160443	-0.8923558881	-0.0306321765	-0.294891
C	-0.3254346455	-2.2126092489	-0.0226853848	-0.121824
C	 0.8377800808	-2.0218983947	-1.0374187203	-0.280098
C	 1.2758000911	-0.8975209094	-0.0222034504	 0.18158
O	 2.4774697363	-0.2209862351	-0.0080041385	-0.485026
C	 0.7669850506	-1.9452945382	 1.058761458	 0.37547
O	 1.1722689528	-2.3522007352	 2.0982075855	-0.311
H	 0.8222220715	 1.7650112847	-0.1669571161	 0.271897
H	-0.8930442114	 1.7365972221	 0.0055742337	 0.266239
H	-0.98453082	-3.0747040814	-0.0240626353	 0.096841
H	 1.5409896821	-2.8583598982	-1.0930087064	 0.111675
H	 0.5371884864	-1.6685033307	-2.0260731979	 0.119436
H	 3.0873725372	-0.6882216183	 0.5746288146	 0.303549
110.972	143.3049	237.2818	244.773	255.1146	338.6743	404.7271	463.5753	496.6015	527.2658	600.678	664.2134	677.9312	738.9656	805.5908	823.7388	845.8201	937.7042	966.759	1008.025	1034.3616	1085.6138	1119.6392	1164.1895	1205.9117	1238.0219	1281.029	1350.1359	1457.5571	1487.371	1599.3688	1677.5803	1909.5522	3056.6874	3135.1472	3178.5605	3595.5247	3720.1314	3796.4581
NC1=NC2CC1(O)C2=O	N[C]1[N][C@H]2C[C@]1(O)C2=O	
InChI=1S/C5H6N2O2/c6-4-5(9)1-2(7-4)3(5)8/h2,9H,1H2,(H2,6,7)	InChI=1S/C5H6N2O2/c6-4-5(9)1-2(7-4)3(5)8/h2,9H,1H2,(H2,6,7)/t2-,5-/m0/s1
