19
gdb 79077	2.67696	1.71069	1.43933	0.8435	79.19	-0.2187	0.0174	0.2361	992.7128	0.159943	-385.860355	-385.852719	-385.851775	-385.891806	31.483	
C	-0.0334402776	 1.5973577106	-0.0617642629	-0.413837
C	 0.0886111301	 0.0815854306	-0.0056170495	 0.044163
C	 0.6988504875	-0.700089991	-1.1592424869	-0.140605
C	 2.2736708067	-0.7801458191	-1.0618926782	-0.168326
C	 3.0010103804	 0.1461632493	-0.1594596731	-0.082035
C	 2.3930877346	 0.178601629	 1.0364542115	-0.098504
C	 1.1335474275	-0.6367474923	 0.9718002061	-0.20351
C	 1.3685366659	-1.6477382258	-0.2238089962	 0.390778
O	 1.292254725	-3.0198973993	-0.2038646716	-0.463777
H	 0.925171228	 2.0725760532	-0.2822796254	 0.12076
H	-0.7413095288	 1.8888044843	-0.8461253942	 0.109858
H	-0.4054549532	 2.001353493	 0.886779495	 0.107964
H	-0.8877096738	-0.3640374234	 0.2121093025	 0.083721
H	 0.2413464071	-0.897852664	-2.1216021786	 0.089679
H	 2.7336739187	-1.2053319153	-1.9467235051	 0.084353
H	 3.8796667885	 0.7079392399	-0.4525919046	 0.092878
H	 2.671925981	 0.797483546	 1.8803930876	 0.092188
H	 0.7201779323	-1.0049534159	 1.9101534068	 0.066263
H	 2.09415045	-3.3615156899	 0.2092564469	 0.287988
164.4039	210.7554	243.1279	267.9422	312.3051	373.237	448.7826	493.0819	558.8252	606.5919	672.7408	687.2698	761.0836	791.6202	811.7441	848.2196	894.1447	925.6755	943.2956	949.5268	965.6357	1036.3028	1044.3759	1048.6746	1084.1875	1100.1276	1126.6991	1141.4481	1150.9593	1188.3654	1248.6664	1278.7086	1305.5378	1317.1481	1360.2196	1379.4715	1404.4829	1477.3507	1491.1996	1500.3196	1628.913	3028.726	3049.1803	3087.1344	3118.1413	3123.1024	3178.0083	3186.4243	3194.6297	3217.9419	3780.5642
CC1C2C3C=CC1C23O	C[C@H]1[C@H]2[C@H]3C=C[C@@H]1[C@@]23O	
InChI=1S/C8H10O/c1-4-5-2-3-6-7(4)8(5,6)9/h2-7,9H,1H3	InChI=1S/C8H10O/c1-4-5-2-3-6-7(4)8(5,6)9/h2-7,9H,1H3/t4-,5+,6-,7+,8+/m1/s1
