20
gdb 120053	4.95142	0.94122	0.88804	2.0366	79.	-0.2364	0.0813	0.3176	1370.1379	0.171445	-403.061545	-403.053363	-403.052419	-403.094825	30.914	
C	-0.0672141078	 1.3141724559	-0.0397433171	-0.225704
O	-0.1123662135	-0.0880251784	 0.0642895142	-0.235706
C	 0.7489952971	-0.5946210107	 1.0633558939	-0.080757
C	 0.6262763231	-2.1064931335	 1.0769494849	-0.023845
C	 1.2582569171	-2.7436801443	 2.3162318574	-0.047793
C	-0.0205178725	-2.709792077	 3.0651683999	-0.055517
C	-0.7255488303	-2.6188740815	 1.653625224	-0.072645
C	-0.5350837182	-4.1418959718	 1.6124756958	-0.159679
N	 0.5417412151	-4.0259031404	 2.6535566632	-0.157194
H	 0.9418460877	 1.6737098904	-0.2976935013	 0.103346
H	-0.7588483675	 1.6068018087	-0.8335905697	 0.127066
H	-0.3741887741	 1.8051939348	 0.897755826	 0.102714
H	 1.7912236889	-0.2939750193	 0.8571110469	 0.084378
H	 0.4826067177	-0.1796664111	 2.051155543	 0.086599
H	 0.9086525275	-2.5063541636	 0.0957472774	 0.074167
H	 2.2739350189	-2.6606748508	 2.6818406413	 0.096004
H	-0.2865439318	-2.4509384517	 4.0812634521	 0.095922
H	-1.6544650401	-2.1189501464	 1.3900295298	 0.084111
H	-1.3670419673	-4.7023493511	 2.0462477824	 0.107521
H	-0.2282338497	-4.6023032082	 0.665491356	 0.09701
79.2508	101.5909	124.9937	223.0467	260.5606	334.0553	372.2123	448.9475	577.8673	755.5221	757.591	789.2079	811.973	830.5105	926.7807	940.586	956.8684	974.6451	995.794	1000.8929	1029.0099	1055.9591	1083.6653	1125.4857	1150.0267	1160.6703	1169.7836	1178.7492	1190.7683	1200.5613	1223.4039	1233.9978	1256.8026	1278.6604	1299.6728	1321.5499	1373.4174	1424.7351	1480.8706	1485.8489	1503.028	1510.822	1525.6289	2943.4897	2968.8131	2971.523	3010.4379	3029.5181	3041.6338	3102.0836	3112.7432	3148.2882	3192.607	3208.5315
COCC1C2C3C1CN23	COC[C@H]1[C@H]2[C@H]3[C@@H]1CN23	
InChI=1S/C7H11NO/c1-9-3-5-4-2-8-6(4)7(5)8/h4-7H,2-3H2,1H3	InChI=1S/C7H11NO/c1-9-3-5-4-2-8-6(4)7(5)8/h4-7H,2-3H2,1H3/t4-,5-,6-,7+,8?/m1/s1
