16
gdb 18310	3.68729	2.07985	1.43648	2.5131	71.68	-0.2365	-0.016	0.2205	857.2162	0.131418	-346.605054	-346.598411	-346.597467	-346.635969	25.797	
O	-0.1260147008	-0.0092486164	-0.0690607381	-0.294923
C	-0.0592442187	 1.187970815	-0.0380175098	 0.366412
C	-1.264640304	 2.1728476193	 0.0624687636	-0.352724
C	-0.6367951073	 3.416094971	 0.664335833	-0.224622
C	 0.6867804472	 3.3700778361	 0.5133644221	 0.278723
C	 1.9837845644	 3.6854374833	 1.2222032748	-0.31077
C	 2.3068377448	 2.1490804501	 1.0598164947	-0.239408
C	 1.1958775365	 2.0759950499	-0.0493294786	-0.153254
H	-1.6868115381	 2.3167720173	-0.9424866545	 0.132368
H	-2.0628915407	 1.7402961598	 0.6750489618	 0.130468
H	-1.1965557113	 4.1291903877	 1.2585534413	 0.099449
H	 2.6736901179	 4.2931074279	 0.6273175751	 0.115912
H	 1.9260886271	 4.0997186039	 2.2315638286	 0.113974
H	 3.3219068541	 1.8903695871	 0.7533034512	 0.111614
H	 2.0365486836	 1.5775126002	 1.9499229846	 0.123276
H	 1.6230006351	 2.1052023179	-1.0587004999	 0.103504
83.8033	209.4093	247.2986	323.1772	441.1523	532.01	612.9839	635.2445	710.291	750.4942	784.6105	810.3157	879.3773	904.3325	932.6135	960.5402	986.9499	1037.9915	1053.7956	1102.9338	1130.0901	1159.3674	1174.6172	1202.2422	1230.084	1248.239	1267.4847	1277.3476	1315.7459	1452.8362	1475.8187	1487.9694	1720.8511	1856.951	3011.1511	3039.5032	3048.8908	3074.7703	3075.7553	3104.6085	3137.5057	3194.8921
O=C1CC=C2CCC12	O=C1C[CH][C]2CC[C@@H]12	
InChI=1S/C7H8O/c8-7-4-2-5-1-3-6(5)7/h2,6H,1,3-4H2	InChI=1S/C7H8O/c8-7-4-2-5-1-3-6(5)7/h2,6H,1,3-4H2/t6-/m1/s1
