16
gdb 115090	2.27721	1.65665	1.19147	2.6931	66.21	-0.2408	-0.0373	0.2035	1064.7623	0.123663	-475.033359	-475.024891	-475.023947	-475.067134	29.865	
C	 0.5168803918	 1.0197245342	 0.4514391299	-0.245148
O	 0.5164011844	-0.3376100661	 0.0208775679	-0.238682
C	 0.4050663086	-0.5058198676	-1.3514957992	 0.103632
O	 1.5978187995	-0.0796079754	-2.0304021004	-0.238838
C	 2.6518225933	-0.9464917905	-1.9838260204	 0.132236
N	 2.6724308928	-2.1664716255	-1.6675777106	-0.260306
C	 1.4203317916	-2.8284252501	-1.3156744093	-0.25057
C	 0.1788349314	-2.0036440263	-1.5840837323	 0.363008
O	-0.8821660784	-2.4377097634	-1.9531362567	-0.303923
H	 1.3817155903	 1.5625938342	 0.055379727	 0.133233
H	-0.4038651659	 1.5298170897	 0.1378702566	 0.122456
H	 0.5658009495	 1.0008808369	 1.5411214439	 0.141292
H	-0.4045432633	 0.091304321	-1.7863208051	 0.105898
H	 3.561420477	-0.4366664387	-2.2940413063	 0.134127
H	 1.3433961048	-3.7796424145	-1.8504062564	 0.14537
H	 1.4427018526	-3.0695189179	-0.2429794384	 0.156215
75.5471	101.402	122.488	166.623	190.7927	312.1943	393.8163	441.1977	479.7567	540.0384	614.7994	620.8246	768.5355	891.1343	938.0877	961.2094	972.1048	1007.5159	1043.3434	1094.5064	1143.0072	1177.8426	1210.2419	1227.0768	1256.0779	1319.7286	1352.3316	1377.1876	1404.5962	1439.7879	1476.7311	1485.279	1507.9806	1750.1431	1847.8535	3011.7389	3017.3624	3058.1369	3083.565	3089.2737	3141.7383	3168.2854
COC1OC=NCC1=O	CO[C@H]1OC=NCC1=O	
InChI=1S/C5H7NO3/c1-8-5-4(7)2-6-3-9-5/h3,5H,2H2,1H3	InChI=1S/C5H7NO3/c1-8-5-4(7)2-6-3-9-5/h3,5H,2H2,1H3/t5-/m0/s1
