17
gdb 116001	2.03409	1.56524	0.93665	4.6721	73.21	-0.249	-0.0721	0.1769	1209.8154	0.135135	-458.971282	-458.962599	-458.961654	-459.005316	31.049	
O	 0.0331321053	 1.432286109	-0.2583041062	-0.419285
C	 0.0801255185	 0.0298016727	-0.1084584682	-0.06767
C	-1.313391894	-0.5261874045	 0.2001220674	-0.001276
O	-2.2160679007	-0.0995405045	-0.8410844899	-0.295795
C	-2.7976094003	-1.2212653602	-1.4959208057	-0.114795
C	-2.2517874542	-2.4187101325	-0.7822036924	-0.193272
C	-1.4169704597	-2.0308184468	 0.1875135583	 0.220025
C	-0.7051292513	-2.9218118341	 1.1070579828	 0.070729
O	 0.064213523	-2.5411223812	 1.9615517703	-0.26208
H	-0.6704782928	 1.6074390755	-0.8948513209	 0.289814
H	 0.4706095345	-0.4651118395	-1.0133967234	 0.076772
H	 0.7534089207	-0.1947401877	 0.7229046688	 0.135038
H	-1.6544779219	-0.0969161909	 1.1522944685	 0.10694
H	-3.8959205811	-1.1684291328	-1.4322554475	 0.123687
H	-2.5385867548	-1.2238050081	-2.5666148348	 0.121868
H	-2.5141185456	-3.4398499909	-1.0335190014	 0.12855
H	-0.9248772456	-4.0027489134	 0.9678865443	 0.08075
76.04	114.5286	117.6571	155.7679	208.0574	283.3358	333.7425	454.8288	458.8852	487.8723	555.1434	707.5736	778.8751	817.0499	834.4399	949.3182	956.5742	1024.9624	1032.7971	1042.0147	1076.0155	1088.4481	1106.4804	1193.3781	1214.106	1224.6434	1272.1801	1324.1398	1370.0726	1379.0216	1390.3899	1421.0118	1429.1142	1503.6277	1509.8072	1687.2218	1783.0066	2895.1065	2965.0463	2977.5751	2994.5395	3017.753	3105.4354	3210.1351	3789.4941
OCC1OCC=C1C=O	OC[C@H]1OCC=C1C=O	
InChI=1S/C6H8O3/c7-3-5-1-2-9-6(5)4-8/h1,3,6,8H,2,4H2	InChI=1S/C6H8O3/c7-3-5-1-2-9-6(5)4-8/h1,3,6,8H,2,4H2/t6-/m1/s1
