18
gdb 18052	3.5027	2.21533	1.63026	0.1328	67.32	-0.2302	0.0815	0.3117	828.3186	0.156332	-384.923517	-384.916955	-384.916011	-384.954	26.32	
C	-0.0335210888	 1.5699441635	-0.0848829546	-0.272833
C	 1.5165372596	 1.5166877378	 0.0540136385	-0.238906
C	 1.3839979132	 0.1184297254	 0.6941114185	 0.084879
O	 1.2859075322	 0.2677885657	 2.104009941	-0.27186
C	 0.4191999553	-0.7035747337	 2.6725893657	-0.081483
C	-0.992826874	-0.5203119884	 2.1352566247	-0.082106
O	-1.0290998827	-0.688067692	 0.7244704081	-0.267006
C	-0.0217784005	 0.0171441078	 0.043275264	 0.141358
H	-0.4943992041	 2.0536424239	 0.7781190647	 0.114872
H	-0.4583089853	 1.9887889077	-0.9988014095	 0.099649
H	 2.0241140145	 1.4754057374	-0.9129280493	 0.104059
H	 1.9945191787	 2.2686126165	 0.6832883832	 0.114155
H	 2.1221730524	-0.6576832236	 0.4475665227	 0.061033
H	 0.7760610001	-1.7226029696	 2.4506264322	 0.093345
H	 0.4446806888	-0.5533051957	 3.7561762393	 0.108385
H	-1.6722121784	-1.2711442412	 2.5504049016	 0.107336
H	-1.361898568	 0.4763863061	 2.4220562827	 0.097834
H	 0.0464929469	-0.4411359876	-0.9477067035	 0.087289
161.515	179.4445	316.9143	374.7067	395.4625	453.6106	513.9547	643.0558	694.5665	742.8796	836.8153	883.1568	903.9094	918.7479	930.0931	957.5084	1011.4112	1050.4923	1094.2869	1116.4054	1127.9733	1155.5452	1176.282	1199.3517	1242.9967	1252.8854	1266.2104	1283.0776	1293.9349	1312.8464	1355.3658	1379.304	1408.2323	1419.3034	1469.7237	1487.0724	1488.6583	1496.1663	2976.0189	2992.1507	2999.4264	3066.971	3074.4696	3080.3114	3083.4183	3086.2895	3127.5516	3141.3556
C1CC2OCCOC12	C1C[C@H]2OCCO[C@@H]12	
InChI=1S/C6H10O2/c1-2-6-5(1)7-3-4-8-6/h5-6H,1-4H2	InChI=1S/C6H10O2/c1-2-6-5(1)7-3-4-8-6/h5-6H,1-4H2/t5-,6+
