16
gdb 36998	3.37248	2.46411	2.15589	1.9145	75.71	-0.208	-0.0351	0.1729	721.6077	0.127427	-363.503502	-363.498308	-363.497363	-363.532525	23.757	
C	 0.0363598969	 1.4793808666	 0.0324112426	-0.102839
C	 1.3517078211	 1.7761115219	-0.1318125699	 0.002281
C	 2.3116493875	 1.8111312066	 1.0276476085	-0.124742
C	 2.121217022	 0.3025778532	 1.5400799224	-0.057232
C	 3.1128818561	 0.672670572	 0.461762632	-0.078821
C	 2.1231988518	 0.5734118291	-0.7285779338	-0.056785
N	 1.2181937531	-0.5876200943	-0.528491381	-0.117441
C	-0.0552618176	 0.0292521076	-0.0368448815	-0.07559
C	 1.045161977	-0.5572444563	 0.925879917	-0.05214
H	-0.661658261	 2.056553091	 0.6294725579	 0.104326
H	 2.6010860072	 2.5830761452	 1.7304656759	 0.098109
H	 2.4467234591	 0.1006826985	 2.5534835752	 0.092583
H	 4.1799648623	 0.4890516208	 0.4635170673	 0.091118
H	 2.5192490722	 0.6534712183	-1.7401260869	 0.081317
H	-0.9606388398	-0.5507129596	-0.1893462217	 0.095247
H	 0.8024250622	-1.5013801307	 1.4033018561	 0.100609
411.004	447.0822	535.3916	593.3279	628.0172	678.7539	709.8391	744.4558	759.8116	789.8731	797.8634	829.5048	859.1201	878.9973	895.5634	933.3822	957.7764	980.7739	1004.7236	1026.6907	1035.1935	1058.6435	1072.2922	1089.7627	1105.2726	1166.1003	1169.7475	1235.0156	1245.4299	1259.4271	1291.0504	1309.1745	1335.2036	1353.0224	1553.0103	3118.1868	3154.4192	3165.2389	3182.9241	3183.8465	3188.3426	3200.5569
C1=C2C3C4C3C2N2C1C42	[CH]1[C]2[C@H]3[C@@H]4[C@H]3[C@H]2N2[C@H]1[C@H]42	
InChI=1S/C8H7N/c1-2-4-5-6(4)8-3(1)9(8)7(2)5/h1,3-8H	InChI=1S/C8H7N/c1-2-4-5-6(4)8-3(1)9(8)7(2)5/h1,3-8H/t3-,4-,5+,6-,7+,8-,9?/m1/s1
