18
gdb 85447	2.61006	1.48991	1.11443	3.6516	73.21	-0.2574	0.0248	0.2822	1119.629	0.147271	-439.089879	-439.081603	-439.080659	-439.12299	31.436	
C	 0.0258764705	 1.7369857379	 0.0366929022	-0.398598
C	 0.0871749343	 0.213938906	 0.0683929875	 0.0448
O	 0.8078685717	-0.2651071093	-1.0876553012	-0.251549
C	 2.0446433354	-0.7503259542	-0.75557453	 0.414855
N	 2.8804517695	-1.2079774735	-1.5812383043	-0.540542
C	 2.247246216	-0.6470434749	 0.7416417621	-0.394308
C	 0.8489534643	-0.3738071842	 1.2549498508	 0.394317
C	 0.4711198315	-0.1798303426	 2.6538865422	-0.254248
O	 0.1962114466	-1.4153684686	 1.9846159706	-0.268352
H	 1.024281418	 2.1748630502	 0.1350601591	 0.125104
H	-0.4030058097	 2.0735878235	-0.9106628092	 0.137047
H	-0.5991461786	 2.1136612206	 0.8518444468	 0.123661
H	-0.9172642113	-0.2174828905	 0.0272708436	 0.111706
H	 2.5083418124	-1.1608273611	-2.5314335932	 0.222706
H	 2.6719277596	-1.561481604	 1.156344849	 0.155297
H	 2.9322139219	 0.1787050657	 0.9624814376	 0.139221
H	 1.2356771195	-0.2247486081	 3.4286893775	 0.121198
H	-0.4031385916	 0.419543617	 2.906237359	 0.117684
76.0194	91.7332	216.2509	238.8514	289.9614	330.599	368.8396	482.0627	489.8701	526.5339	537.4595	675.6062	772.2891	816.4817	843.9558	893.7851	905.7014	942.6921	956.3881	991.6792	1035.6198	1080.1132	1103.6721	1119.7497	1134.0741	1158.2948	1186.3903	1242.2826	1257.044	1287.7363	1341.2251	1377.8171	1407.935	1437.743	1456.647	1488.4126	1494.9813	1538.4846	1782.2683	3042.2058	3058.5614	3072.4175	3078.7395	3116.8824	3125.1176	3137.6928	3163.0084	3472.7173
CC1OC(=N)CC11CO1	C[C@H]1O[C]([NH])C[C@]21CO2	
InChI=1S/C6H9NO2/c1-4-6(3-8-6)2-5(7)9-4/h4,7H,2-3H2,1H3	InChI=1S/C6H9NO2/c1-4-6(3-8-6)2-5(7)9-4/h4,7H,2-3H2,1H3/t4-,6-/m1/s1
