17
gdb 108599	2.55153	1.47532	1.20499	1.0525	63.36	-0.2327	0.0581	0.2908	1066.0194	0.135103	-496.052154	-496.043645	-496.042701	-496.085485	31.508	
O	 0.7072987469	 0.0409179154	-0.4435320968	-0.408824
C	-0.3352294257	 0.3621145153	 0.4631366869	-0.176474
C	-1.6294924305	-0.3342822058	 0.1079864471	 0.311538
O	-2.7177500953	-0.015766179	 0.9567841982	-0.286208
C	-3.1881353875	-1.2546971007	 1.4484267762	 0.004296
O	-2.9921633367	-2.2005415631	 0.4072007792	-0.269722
C	-1.7877057534	-1.7969460854	-0.2244936836	-0.060327
C	-2.0258509066	-0.7596287413	-1.3040413437	 0.053646
O	-3.2987801267	-0.5554550337	-1.8042113995	-0.429157
H	 0.594484634	 0.5834490751	-1.2298052388	 0.294734
H	-0.0009847845	 0.0337018384	 1.4541453735	 0.116784
H	-0.5124311007	 1.4454065022	 0.5206967171	 0.111661
H	-2.6243267261	-1.5585744465	 2.3459086939	 0.100169
H	-4.2560510673	-1.1778295587	 1.6682918085	 0.125907
H	-0.9910195825	-2.5325694312	-0.2471962855	 0.114857
H	-1.2578022777	-0.6742536905	-2.0667897147	 0.102573
H	-3.8947604198	-1.0799282304	-1.2525268278	 0.294546
66.1417	156.1065	181.5585	214.8235	224.0338	300.5724	312.896	370.0907	424.7575	573.4739	623.8278	686.1501	725.163	759.349	816.38	885.3334	961.7535	1007.9779	1033.5729	1054.2767	1067.449	1087.1044	1115.1052	1136.9775	1176.084	1213.4895	1219.512	1226.7139	1250.3674	1301.814	1369.8288	1388.896	1402.2201	1421.8046	1456.5427	1501.8132	1536.0625	2967.9397	3005.6124	3061.3545	3102.7005	3159.1444	3170.4162	3757.3302	3828.9194
OCC12OCOC1C2O	OC[C@]12OCO[C@H]1[C@H]2O	
InChI=1S/C5H8O4/c6-1-5-3(7)4(5)8-2-9-5/h3-4,6-7H,1-2H2	InChI=1S/C5H8O4/c6-1-5-3(7)4(5)8-2-9-5/h3-4,6-7H,1-2H2/t3-,4+,5-/m1/s1
