17
gdb 36248	4.37454	1.09254	1.03184	5.6017	75.52	-0.2543	0.0361	0.2905	1168.7317	0.137592	-380.81387	-380.806569	-380.805625	-380.846274	28.104	
N	 0.0281690843	-1.1783696966	 0.230412952	-0.303911
C	-0.0078804973	-0.0262228949	 0.1524224063	 0.266688
C	-0.0480445715	 1.4298571217	 0.035233675	-0.371167
C	 1.3533562899	 2.0562661722	 0.0408250384	 0.078923
C	 1.5454409371	 3.5787577418	-0.1096704719	-0.117354
C	 0.7263159449	 4.1784300269	 1.0642560432	-0.253615
C	 1.69286799	 3.4222803979	 1.9737715254	-0.034766
C	 2.7284856903	 3.3659853861	 0.9172445473	-0.04598
N	 2.0785349379	 2.0986990396	 1.3516539664	-0.144807
H	-0.5570249718	 1.6892281348	-0.9014385168	 0.152741
H	-0.6558794766	 1.8268429786	 0.8530094659	 0.156225
H	 1.9965949091	 1.5135579149	-0.6576763488	 0.105879
H	 1.5775029879	 4.0662536935	-1.0821472581	 0.081223
H	 0.8967897017	 5.2546042507	 1.1474713081	 0.116199
H	-0.348895649	 3.9794743956	 1.1165878441	 0.098147
H	 1.8110080624	 3.4824322483	 3.0470114284	 0.107817
H	 3.7967235106	 3.5326920889	 0.897329585	 0.107759
53.1105	128.7097	210.4712	286.3378	385.5637	457.4748	492.6722	584.4129	704.3227	719.2435	785.4404	830.5161	848.8171	881.2597	916.989	943.549	967.3458	984.5373	990.3835	1014.2997	1051.4135	1062.523	1104.7671	1121.8901	1142.4859	1167.1965	1207.3145	1228.2105	1236.7774	1270.5656	1289.4238	1312.7342	1345.362	1405.2379	1455.9377	1508.9259	2364.6579	3042.4315	3049.0325	3070.7805	3100.8093	3108.1884	3135.5906	3207.0291	3221.0152
N#CCC1C2CC3C2N13	N#CC[C@H]1[C@H]2C[C@@H]3[C@H]2N13	
InChI=1S/C7H8N2/c8-2-1-5-4-3-6-7(4)9(5)6/h4-7H,1,3H2	InChI=1S/C7H8N2/c8-2-1-5-4-3-6-7(4)9(5)6/h4-7H,1,3H2/t4-,5+,6-,7+,9?/m1/s1
