14
gdb 6428	3.65538	1.52191	1.308	2.9844	63.98	-0.246	-0.0274	0.2185	935.575	0.103479	-382.505928	-382.497952	-382.497008	-382.538673	29.729	
O	 0.12010578	 1.5182683182	-0.2469459023	-0.456201
C	 0.0113623194	 0.1272679381	-0.0098847752	 0.230228
C	 0.1892216547	-0.3113507995	 1.496149206	-0.407678
C	-1.2441347973	-0.8598615938	 1.4549296742	 0.428027
O	-1.8971954254	-1.5209059887	 2.2067452643	-0.285344
C	-1.4959633755	-0.2870564545	 0.054666081	-0.389175
C	 0.8199146236	-0.6494033064	-0.9412481613	 0.299286
C	 1.5176727126	-1.2694897632	-1.6991136662	-0.49104
H	 1.053093335	 1.7295409022	-0.3633850108	 0.287799
H	 0.9755913762	-1.0337127602	 1.7239502751	 0.138764
H	 0.2849676998	 0.5613218126	 2.1496222344	 0.14163
H	-2.1373551381	 0.5994750044	 0.0712847754	 0.152012
H	-1.8567202378	-0.9855166843	-0.7020090224	 0.144226
H	 2.1230134025	-1.821559015	-2.3754489721	 0.207464
34.4375	173.4831	179.8729	295.2657	335.1966	383.2782	415.7127	449.7174	487.1989	578.4668	624.9317	626.2334	657.4228	675.8175	729.4923	858.939	917.6753	949.1475	1003.5058	1079.6932	1113.9253	1122.4793	1190.9382	1233.9839	1260.4409	1364.9446	1408.653	1427.155	1901.8579	2231.6529	3062.63	3069.9797	3132.5194	3138.1778	3499.1011	3807.9792
OC1(CC(=O)C1)C#C	OC1(CC(=O)C1)C#C	
InChI=1S/C6H6O2/c1-2-6(8)3-5(7)4-6/h1,8H,3-4H2	InChI=1S/C6H6O2/c1-2-6(8)3-5(7)4-6/h1,8H,3-4H2
