19
gdb 100437	5.75731	0.48012	0.45301	1.4656	100.95	-0.2269	-0.0003	0.2266	2406.7682	0.156109	-385.850539	-385.839308	-385.838364	-385.888762	38.054	
C	-0.0009371461	 1.4821569337	 0.0193987051	-0.517824
C	 0.0095930881	 0.0303473123	 0.002726522	 0.235637
C	 0.0181555576	-1.1799829362	-0.0103027266	-0.202414
C	 0.0275054144	-2.5402416822	-0.0245159475	-0.217738
C	 0.0334596474	-3.7515398373	-0.0376861382	 0.309601
C	 0.0343847154	-5.2094107406	-0.0670712551	-0.18705
C	-1.3948152523	-5.7856453959	-0.0084566776	-0.383175
C	 0.7974063704	-5.7138688357	-1.3057457043	-0.069228
O	 0.887067362	-7.1253953242	-1.2039179654	-0.417687
H	 1.0122890641	 1.8880338219	-0.0800579608	 0.154551
H	-0.6025673618	 1.8849864239	-0.8034180227	 0.15447
H	-0.4213199976	 1.8649633247	 0.956409426	 0.155182
H	 0.5885494312	-5.5765582362	 0.8084102619	 0.118263
H	-1.9869027229	-5.4280521949	-0.856667963	 0.12064
H	-1.350727436	-6.8758345839	-0.046173561	 0.136617
H	-1.898658587	-5.478270591	 0.9111068585	 0.122884
H	 0.2561746064	-5.4045450531	-2.213146979	 0.096799
H	 1.7925585609	-5.2472075107	-1.3328275695	 0.099819
H	 1.3170647559	-7.4590161046	-1.9962589526	 0.290654
24.9879	55.9878	63.7823	122.4044	152.765	187.4803	218.0149	232.8662	282.2707	321.9708	344.4592	376.2481	469.6297	493.2348	562.8851	587.0281	655.4125	837.6761	931.1243	938.8429	1042.506	1048.4019	1048.9788	1079.4229	1108.1464	1157.1524	1234.3047	1258.0846	1278.2768	1329.7347	1349.4962	1396.9308	1413.5161	1450.8267	1472.8405	1473.045	1492.8343	1499.8223	1520.9335	2276.3501	2385.55	2980.8911	3006.0606	3022.5128	3024.7747	3047.6727	3083.8222	3084.0332	3119.4166	3141.2934	3837.331
CC#CC#CC(C)CO	CC#CC#C[C@@H](C)CO	
InChI=1S/C8H10O/c1-3-4-5-6-8(2)7-9/h8-9H,7H2,1-2H3	InChI=1S/C8H10O/c1-3-4-5-6-8(2)7-9/h8-9H,7H2,1-2H3/t8-/m1/s1
