19
gdb 93563	3.40809	1.09387	0.87164	1.7738	79.13	-0.2253	-0.0551	0.1702	1352.3359	0.158959	-419.251624	-419.242287	-419.241343	-419.286338	33.656	
C	-0.1126193987	 1.5350283378	-0.0123307228	-0.389987
C	 0.0741108223	 0.0221060017	-0.0022486372	 0.056636
C	 0.8867583764	-0.5380161641	-1.2108176897	-0.19556
N	 1.6574635125	-1.5996751732	-0.5605320382	-0.337377
C	 1.6514100422	-1.3092346621	 0.7862001396	 0.261437
N	 0.8038211473	-0.4393964643	 1.1999645374	-0.312898
C	 2.6302761713	-2.0198837757	 1.6765870721	 0.335678
C	 2.4771806434	-1.8226018186	 3.1628887196	-0.477563
O	 3.4947864433	-2.7048286523	 1.1708959792	-0.311425
H	 0.8573487111	 2.0428563268	-0.017582385	 0.11786
H	-0.672194027	 1.8529066934	-0.898512036	 0.112904
H	-0.66086702	 1.8584598105	 0.8763140787	 0.129335
H	-0.9164987448	-0.4555715062	 0.0225070835	 0.091614
H	 0.2502601946	-0.9285376051	-2.0088666759	 0.114184
H	 1.5422122272	 0.2355547999	-1.6397220436	 0.099965
H	 2.5168724932	-1.9525157352	-0.9549193521	 0.254906
H	 1.5524786378	-2.3041657705	 3.499832665	 0.153897
H	 3.3309709761	-2.2604220779	 3.6808128564	 0.136338
H	 2.3724506816	-0.7605138749	 3.3972407991	 0.160056
58.8357	92.5774	117.612	159.5969	176.3113	238.0684	329.8704	358.2995	421.5937	480.8843	539.4074	584.509	620.3549	686.2527	721.1713	845.2656	899.3539	938.1581	956.0399	987.3403	1041.0265	1051.2125	1094.5694	1126.4653	1145.5972	1156.5467	1213.7821	1289.1419	1293.94	1336.3023	1370.3345	1388.338	1406.6623	1455.8647	1460.4926	1479.6846	1488.801	1498.2669	1526.8671	1675.6394	1788.9992	2983.2392	2993.9496	3036.0365	3049.8069	3085.3376	3105.1866	3117.2195	3121.4495	3162.597	3620.2438
CC1CNC(=N1)C(C)=O	C[C@H]1CN[C]([N]1)C(=O)C	
InChI=1S/C6H10N2O/c1-4-3-7-6(8-4)5(2)9/h4H,3H2,1-2H3,(H,7,8)	InChI=1S/C6H10N2O/c1-4-3-7-6(8-4)5(2)9/h4H,3H2,1-2H3,(H,7,8)/t4-/m0/s1
