21
gdb 51630	4.02572	0.96857	0.93081	2.7871	82.66	-0.2467	-0.0187	0.2279	1331.5009	0.184115	-387.092144	-387.084071	-387.083127	-387.125674	31.257	
O	-0.6957824165	 0.9559183581	 0.6800058709	-0.242209
C	 0.044522722	 1.0732950269	-0.2626938094	 0.165088
C	 1.3683258568	 1.8012426942	-0.2444034936	-0.305954
C	 1.3642489339	 2.9900729039	-1.2204294664	 0.029715
C	 0.4165437529	 4.1756642996	-0.8175761591	-0.230336
C	 1.4433015633	 5.325759721	-0.8112215524	-0.007917
C	 2.264249736	 5.0346455408	-2.1017633985	-0.229076
C	 2.6955640458	 3.7729739889	-1.2989269993	-0.026015
C	 2.6369876264	 4.6912954355	-0.0416753809	-0.223887
H	-0.2268406597	 0.6440425032	-1.2570890315	 0.068752
H	 1.5764100465	 2.1151766507	 0.7819314735	 0.119697
H	 2.1460379466	 1.0880321762	-0.5545949896	 0.111435
H	 1.1039422133	 2.6111023379	-2.2163698179	 0.071019
H	-0.3877510363	 4.334474909	-1.5416952971	 0.09753
H	-0.04332278	 4.0218174273	 0.1636267782	 0.110928
H	 1.0724152514	 6.323599429	-0.5757697129	 0.060832
H	 1.7205003638	 4.8878301325	-3.0405489744	 0.086342
H	 3.0852800885	 5.7402132953	-2.2479143884	 0.097146
H	 3.5877654896	 3.1998655639	-1.556573321	 0.056669
H	 3.4988300532	 5.3594716171	 0.0202555795	 0.09786
H	 2.4455310025	 4.2406504487	 0.9362063103	 0.092381
49.7541	77.611	161.7876	226.3341	321.8278	419.101	432.4874	515.7726	539.2791	642.0008	780.1088	827.926	832.7211	851.6297	861.9648	881.8084	923.7702	947.2082	968.6218	984.8595	1026.3773	1029.9929	1052.2278	1063.5867	1082.8472	1100.559	1121.8586	1148.2881	1177.4499	1222.3345	1224.2991	1245.5159	1252.4519	1266.5368	1288.3921	1295.2928	1319.9755	1345.0267	1388.5413	1429.2334	1466.233	1489.8211	1498.2542	1527.4843	1833.0571	2844.5626	3010.3886	3023.0735	3046.2607	3051.2041	3058.7652	3093.5858	3100.1349	3103.8909	3109.946	3113.5082	3119.7451
O=CCC1CC2CC1C2	O=CC[C@H]1C[C@@H]2C[C@H]1C2	
InChI=1S/C8H12O/c9-2-1-7-3-6-4-8(7)5-6/h2,6-8H,1,3-5H2	InChI=1S/C8H12O/c9-2-1-7-3-6-4-8(7)5-6/h2,6-8H,1,3-5H2/t6-,7-,8+/m0/s1
