23
gdb 114079	3.30716	1.12926	1.01999	1.5236	85.39	-0.2393	0.0892	0.3285	1315.4022	0.206137	-388.289567	-388.280647	-388.279702	-388.322814	35.232	
C	 0.0124313189	 1.5302214949	-0.0236585128	-0.384337
C	-0.019795608	 0.0017412666	 0.0673858186	-0.19206
C	-1.4306868841	-0.5870119951	 0.0228268373	 0.045195
C	-2.1667491482	-0.4473873619	-1.3528024968	-0.272675
C	-2.370398494	-1.9534976941	-1.6498667223	 0.42241
C	-2.8778446218	-2.3824263616	-2.997212381	-0.495095
C	-2.9007738352	-2.502594453	-0.3003495911	-0.278172
C	-1.453106049	-2.1341419372	 0.0716732478	 0.058982
O	-1.0504054223	-2.4953260856	-1.2861552004	-0.331453
H	 1.0391590929	 1.907483357	 0.0146256286	 0.111455
H	-0.4363197384	 1.8874487637	-0.9567623339	 0.11632
H	-0.5413106065	 1.9883342149	 0.8038990732	 0.109971
H	 0.5635725293	-0.4388891866	-0.7493453012	 0.110141
H	 0.4666550637	-0.3128235156	 1.0007099655	 0.087238
H	-2.0285561584	-0.1672526636	 0.840996293	 0.061643
H	-3.1084446329	 0.1057203492	-1.2959283034	 0.093217
H	-1.5382654782	 0.017479799	-2.117804189	 0.10132
H	-2.2187504655	-2.0130042633	-3.7899452276	 0.127418
H	-2.9252305578	-3.4725564744	-3.0686560232	 0.125466
H	-3.8801818055	-1.9779567162	-3.1728738712	 0.120297
H	-3.7296725047	-1.9906750176	 0.1966538107	 0.088195
H	-3.0568220985	-3.5819025255	-0.335090047	 0.103424
H	-0.8836655559	-2.640480184	 0.8522267564	 0.071098
100.8221	137.0209	171.374	205.2241	244.3135	295.66	324.0761	382.0911	435.05	459.2733	570.128	620.5428	725.2188	785.9899	806.5228	825.7771	841.3837	884.5452	908.0642	929.6158	953.9012	962.4385	997.5332	1022.8241	1050.5664	1063.5778	1072.6822	1130.6427	1156.4506	1190.6742	1210.7781	1218.7814	1233.6867	1262.7741	1279.1744	1291.5713	1301.9627	1344.011	1359.7869	1391.0121	1413.4744	1414.9985	1477.1564	1481.2495	1490.9793	1494.1278	1498.6604	1500.3777	1508.4494	3015.0904	3027.7037	3029.5364	3036.3357	3054.7838	3060.0174	3064.6432	3095.1579	3100.9603	3102.876	3106.5344	3113.1352	3115.5508	3134.2296
CCC1CC2(C)CC1O2	CC[C@H]1C[C@]2(C)C[C@H]1O2	
InChI=1S/C8H14O/c1-3-6-4-8(2)5-7(6)9-8/h6-7H,3-5H2,1-2H3	InChI=1S/C8H14O/c1-3-6-4-8(2)5-7(6)9-8/h6-7H,3-5H2,1-2H3/t6-,7+,8+/m0/s1
