16
gdb 23158	2.12912	1.34908	0.87215	4.5062	74.95	-0.2478	-0.0193	0.2284	1286.7372	0.122576	-433.998886	-433.989864	-433.98892	-434.032973	32.206	
C	-0.0743280065	 1.5066463114	 0.1447170187	-0.335744
N	 0.0017416807	 0.0607543272	 0.1223032247	-0.07384
C	-1.233844232	-0.7261873393	 0.3712833087	-0.265283
C	-0.4170363071	-1.6098672259	 1.2834101502	 0.408102
N	-0.5095871583	-2.7213077903	 1.8703442185	-0.219574
O	-1.7551749856	-3.3126382607	 1.6429150302	-0.380572
C	 0.7284315169	-0.6091643818	 1.2312205879	-0.214669
C	 2.0750263514	-1.0805095619	 0.9058966442	 0.317726
N	 3.1425202928	-1.4438917849	 0.6557827927	-0.323734
H	 0.9274529391	 1.928607408	 0.0206001606	 0.14204
H	-0.6885320912	 1.8495172846	-0.6930509892	 0.13652
H	-0.5088529237	 1.9068582727	 1.0795051418	 0.101158
H	-2.0235661749	-0.1773517676	 0.9092657051	 0.119913
H	-1.6680194456	-1.1923937052	-0.5184745605	 0.144655
H	-1.6768845099	-4.1495252416	 2.1147481579	 0.317125
H	 0.7799662639	-0.0064093847	 2.1540224084	 0.126177
83.0467	101.8767	153.8952	178.2474	222.8707	281.4836	329.3753	339.4933	387.351	440.9891	494.5807	541.9837	572.7528	726.6964	821.6575	867.797	970.8801	991.6062	1017.222	1048.6133	1114.2566	1148.4336	1162.1911	1186.3025	1210.9881	1271.467	1306.0572	1349.5629	1417.1127	1453.1509	1484.8889	1496.4838	1500.0209	1814.7064	2364.1629	2937.6463	2958.8487	2980.7037	3072.8295	3075.4055	3115.4877	3811.4541
CN1CC(=NO)C1C#N	CN1CC(=NO)[C@H]1C#N	
InChI=1S/C5H7N3O/c1-8-3-4(7-9)5(8)2-6/h5,9H,3H2,1H3	InChI=1S/C5H7N3O/c1-8-3-4(7-9)5(8)2-6/h5,9H,3H2,1H3/t5-/m1/s1
