15
gdb 26591	2.37504	1.89467	1.06119	4.5953	72.14	-0.2222	-0.0394	0.1828	1057.8213	0.113231	-454.02504	-454.016812	-454.015868	-454.057763	30.429	
C	-0.013427207	 1.5440056059	 0.0240519756	-0.523776
C	-0.0062504124	 0.0392176231	 0.0088144126	 0.039903
C	-1.162378246	-0.7088269748	 0.0394070443	 0.325358
N	-2.4022314878	-0.1555688108	 0.1082174272	-0.561803
N	-1.1761344055	-2.0939064227	 0.0321157143	-0.340635
C	-0.0285827229	-2.6618899517	-0.004195161	 0.142889
O	 1.1572988793	-2.0724446598	-0.0350765838	-0.202091
C	 1.2549678963	-0.635526416	-0.0310085065	 0.374423
O	 2.3673884657	-0.1834873722	-0.0619561799	-0.350314
H	 1.0130188003	 1.912628978	 0.0190235004	 0.164398
H	-0.5241515071	 1.9625445399	-0.8540384803	 0.120338
H	-0.5147439829	 1.939854797	 0.9164960506	 0.127227
H	-2.528354153	 0.8217144905	-0.0882054441	 0.267668
H	-3.1833655066	-0.7716092226	-0.0432997569	 0.269366
H	 0.0515849096	-3.7459728437	-0.0140950024	 0.147049
104.114	131.6712	175.775	260.9937	281.2152	299.9154	363.2758	480.8352	506.6338	520.8842	522.4676	558.9591	668.3712	723.7346	787.4331	857.9402	892.9378	977.2458	1006.4786	1023.491	1059.9718	1185.7073	1243.8603	1322.2115	1386.3867	1407.3342	1448.1379	1495.6994	1498.7228	1598.337	1641.385	1685.9854	1847.2044	3006.7145	3052.4383	3143.3792	3178.1203	3614.5453	3741.964
CC1=C(N)N=COC1=O	Cc1c(N)ncoc1=O	
InChI=1S/C5H6N2O2/c1-3-4(6)7-2-9-5(3)8/h2H,6H2,1H3	InChI=1S/C5H6N2O2/c1-3-4(6)7-2-9-5(3)8/h2H,6H2,1H3
