15
gdb 20903	3.5513	1.90366	1.35957	3.5604	63.56	-0.223	0.0025	0.2255	896.4762	0.119617	-395.976376	-395.96892	-395.967976	-396.008745	26.858	
C	 0.0861967323	 1.5577189059	 0.0156585523	-0.381642
C	-0.0175977936	 0.0346390738	-0.0676316737	-0.151768
N	 0.6526081884	-0.5137502143	-1.2384599782	-0.092682
C	 0.1211939484	-0.9283550882	-2.4227459839	 0.063844
N	 0.9945043545	-1.3493127932	-3.2720001509	-0.14454
O	 2.241402933	-1.1954307475	-2.5903153182	-0.24843
C	 2.0276494472	-0.679399899	-1.341106729	 0.494099
N	 2.871871243	-0.3995074517	-0.4389967657	-0.61494
H	 1.1354587146	 1.8583561286	 0.0565654067	 0.161698
H	-0.3856924111	 2.0351654704	-0.8485055651	 0.121479
H	-0.4126940279	 1.9152406184	 0.9212564958	 0.125095
H	 0.4496000238	-0.4235192077	 0.8087485525	 0.151085
H	-1.0611847875	-0.2917067836	-0.1043030104	 0.118775
H	-0.9382876133	-0.9141796325	-2.6329930164	 0.163321
H	 3.8171338084	-0.6196467296	-0.7415108558	 0.234606
53.9793	110.2639	212.9971	220.9719	297.3325	394.3466	478.2312	595.9359	652.5701	732.8813	752.5928	762.8083	793.7128	876.9421	890.7195	936.3762	965.539	1037.0729	1097.623	1121.1592	1218.9347	1233.0163	1279.5585	1379.3048	1391.3616	1410.8183	1444.2115	1477.258	1489.7262	1507.8747	1653.0465	1771.4474	3045.6064	3058.2968	3102.4137	3119.5526	3140.0183	3257.7013	3541.4772
CCN1C=NOC1=N	CCN1C=NO[C@@H]1[NH]	
InChI=1S/C4H7N3O/c1-2-7-3-6-8-4(7)5/h3,5H,2H2,1H3	InChI=1S/C4H8N3O/c1-2-7-3-6-8-4(7)5/h3-5H,2H2,1H3/t4-/m1/s1
