16
gdb 57857	2.29161	1.2895	0.92504	2.2594	65.56	-0.2873	-0.0673	0.22	1238.0291	0.121025	-475.037986	-475.028155	-475.027211	-475.073377	34.515	
C	-0.0841378245	 1.6284783329	 0.2972421691	-0.419264
C	-0.0343677382	 0.1268632501	-0.0413776348	 0.040182
O	 0.8264052829	-0.5816526905	 0.8215226973	-0.420461
C	-1.4339144273	-0.470744839	 0.0423455318	 0.356884
O	-1.8739316999	-0.8958929486	 1.0858763323	-0.33126
C	-2.3270870309	-0.6098597315	-1.2168187989	-0.081176
O	-3.5715417001	-1.1356211915	-0.8813530177	-0.406878
C	-2.4550054247	 0.6781554376	-1.9242181101	 0.276504
N	-2.5388533436	 1.6853657359	-2.4839837399	-0.317602
H	 0.9394214384	 2.010007648	 0.3000710903	 0.143086
H	-0.6729969069	 2.1939482583	-0.4289274392	 0.158994
H	-0.5143189857	 1.774295005	 1.293096303	 0.130865
H	 0.356453698	-0.0043935455	-1.0571474053	 0.112543
H	 0.3386970677	-0.7349952729	 1.6415089701	 0.295705
H	-1.7817041041	-1.2936015992	-1.891371234	 0.153609
H	-3.5426087211	-1.2655952091	 0.0824454059	 0.308269
45.6633	65.9632	127.988	209.4589	219.383	250.8885	267.2618	315.9379	354.0985	384.115	424.9991	447.8335	477.2995	594.9507	632.7645	747.857	850.5885	899.2524	966.3673	1033.712	1047.8706	1082.0974	1139.9654	1155.9195	1237.2891	1306.9521	1326.5687	1342.3824	1401.8488	1422.4194	1438.1712	1490.7672	1497.1008	1803.6667	2356.8291	2960.6224	3046.4896	3053.6133	3127.0089	3141.9948	3656.5785	3771.4174
CC(O)C(=O)C(O)C#N	C[C@@H](O)C(=O)[C@@H](O)C#N	
InChI=1S/C5H7NO3/c1-3(7)5(9)4(8)2-6/h3-4,7-8H,1H3	InChI=1S/C5H7NO3/c1-3(7)5(9)4(8)2-6/h3-4,7-8H,1H3/t3-,4+/m1/s1
