20
gdb 16902	3.74727	1.79682	1.41582	1.2328	74.41	-0.2437	0.0828	0.3265	949.03	0.179063	-349.005457	-348.998033	-348.997089	-349.03685	29.486	
C	 0.0722455363	 1.531208737	 0.071733842	-0.403685
C	 0.0183157792	 0.01245384	 0.0071186541	 0.153404
C	 0.6481558066	-0.5544959924	-1.2749204671	-0.228708
C	 0.9730970295	-2.0425999212	-1.1580877775	-0.032493
C	 2.2218972593	-2.4766969955	-0.4241839975	-0.281408
C	 0.8727855479	-2.7143397525	 0.1960952257	-0.028431
C	 0.4360178525	-1.8631082405	 1.3713969677	-0.100899
O	 0.6900966708	-0.4856522333	 1.1619220961	-0.258609
H	 1.1125538361	 1.8714020497	 0.082731578	 0.123168
H	-0.4261868735	 1.9717110041	-0.7974044099	 0.112155
H	-0.4174578533	 1.8962692093	 0.9783771959	 0.119904
H	-1.0348028581	-0.3171533466	 0.0543364142	 0.059363
H	-0.0456139631	-0.3886248159	-2.106663206	 0.096009
H	 1.5579938128	 0.0124840937	-1.5097212106	 0.099167
H	 0.6958155715	-2.6452727999	-2.0169487202	 0.081121
H	 2.7764610558	-3.3288168643	-0.8016199553	 0.104185
H	 2.8335831755	-1.6909206762	 0.0083895207	 0.117958
H	 0.5054770706	-3.7363344924	 0.2223462714	 0.080382
H	-0.640542724	-2.019183837	 1.561493786	 0.083371
H	 0.9790775973	-2.137130516	 2.2827331722	 0.104047
96.3614	204.364	235.2373	308.0955	335.617	362.1234	440.4694	483.8913	530.8236	698.697	770.9361	786.119	824.6522	854.8291	897.6944	919.0752	943.6323	1007.2287	1036.0831	1071.6423	1079.0641	1106.2789	1115.3953	1131.821	1147.6712	1162.5971	1168.8242	1224.3879	1259.1111	1295.1189	1321.4276	1365.4342	1381.7993	1390.1774	1403.7095	1411.8945	1423.1646	1478.6758	1483.3908	1492.3685	1496.3292	1501.5558	2940.9697	2950.4158	3021.576	3040.3706	3058.9125	3065.9124	3112.7316	3120.607	3126.7888	3143.6168	3155.0337	3214.9737
CC1CC2CC2CO1	C[C@H]1C[C@H]2C[C@H]2CO1	
InChI=1S/C7H12O/c1-5-2-6-3-7(6)4-8-5/h5-7H,2-4H2,1H3	InChI=1S/C7H12O/c1-5-2-6-3-7(6)4-8-5/h5-7H,2-4H2,1H3/t5-,6-,7-/m0/s1
