12
gdb 11686	5.51033	1.48606	1.35123	3.3901	60.55	-0.2782	-0.0452	0.2329	864.0529	0.083823	-377.508584	-377.502019	-377.501075	-377.539439	24.174	
O	 0.066727961	 0.033712895	-0.0079802181	-0.270234
C	-0.0096133643	 1.216319741	 0.0383056845	 0.419622
C	-1.1407691096	 2.2502446533	 0.1602847398	-0.426698
C	-0.0161363454	 3.2917534389	 0.0991706813	 0.174394
C	 1.0157589064	 3.024691848	 1.1226611998	-0.266228
N	 1.0598753419	 2.2054469961	-0.1199853285	-0.180712
C	-0.0530503391	 4.4795468056	-0.6966666721	 0.229388
N	-0.1174942261	 5.4518786792	-1.3190998868	-0.320688
H	-1.7828987391	 2.2445103439	-0.7231634299	 0.171771
H	-1.7553380721	 2.2300533089	 1.0625488003	 0.152592
H	 1.85367205	 3.7090621835	 1.1942264426	 0.167575
H	 0.7212362265	 2.5506261964	 2.0557920472	 0.149217
104.5241	169.2605	243.6355	367.8118	459.2429	507.5549	555.5836	572.5422	607.5621	662.8574	763.2073	831.4654	918.4809	965.7709	1006.7586	1023.5956	1098.6773	1132.4427	1165.0733	1216.2426	1246.2736	1355.1955	1452.6018	1503.2328	1939.0098	2359.4862	3081.5325	3120.0512	3141.0371	3223.3617
O=C1CC2(CN12)C#N	O=C1C[C@]2(CN12)C#N	
InChI=1S/C5H4N2O/c6-2-5-1-4(8)7(5)3-5/h1,3H2	InChI=1S/C5H4N2O/c6-2-5-1-4(8)7(5)3-5/h1,3H2/t5-,7?/m1/s1
