18
gdb 108845	2.43303	1.31452	0.90246	2.0396	77.65	-0.2408	-0.0204	0.2204	1289.0083	0.147243	-439.112736	-439.10372	-439.102776	-439.146721	32.988	
C	-0.0572970798	 1.5610288579	-0.0634583412	-0.391518
C	 0.0196272329	 0.0381857275	 0.015879515	 0.062854
O	 0.7872510251	-0.469648792	-1.0950925439	-0.255717
C	 1.8323701494	-1.2218361435	-0.6301311795	 0.335353
N	 2.6949604407	-1.8141084575	-1.3460353854	-0.558609
C	 1.781190447	-1.2250340906	 0.8411673094	 0.257286
C	 2.7892655305	-1.950997841	 1.6628888361	-0.182522
O	 2.4847040804	-1.7646499021	 3.0338090598	-0.422024
C	 0.7296777747	-0.5008127392	 1.2258126439	-0.218375
H	 0.9417886397	 1.9985620701	 0.0133229187	 0.130468
H	-0.5059189117	 1.8684825797	-1.01173635	 0.132444
H	-0.6735803957	 1.9496371379	 0.7533073141	 0.122465
H	-0.9931449938	-0.3819859353	-0.0697195472	 0.103656
H	 2.5123405479	-1.6570154845	-2.3380873807	 0.221136
H	 2.7796364157	-3.0147211578	 1.3765726549	 0.119045
H	 3.7926835855	-1.5756136048	 1.4062516513	 0.11888
H	 3.134585162	-2.2488450801	 3.5504878808	 0.293238
H	 0.4143922096	-0.3088862847	 2.2416267339	 0.131939
79.6015	122.9865	145.5884	176.1728	231.2631	241.8788	313.0668	352.6401	364.8794	493.3351	556.5674	622.2702	710.9482	746.9034	829.3234	857.7035	880.5387	882.5032	941.8214	1031.5029	1040.4949	1044.4796	1092.5923	1103.6987	1133.0253	1188.7981	1208.6642	1240.8222	1259.9504	1330.8063	1352.7369	1391.3945	1403.1157	1471.1339	1486.1506	1495.1336	1501.1023	1719.3239	1753.3002	2978.0635	2997.0233	3001.3075	3043.4342	3119.0058	3128.7412	3243.1467	3481.4859	3841.751
CC1OC(=N)C(CO)=C1	C[C@H]1OC(=C(CO)[CH]1)[NH]	
InChI=1S/C6H9NO2/c1-4-2-5(3-8)6(7)9-4/h2,4,7-8H,3H2,1H3	InChI=1S/C6H9NO2/c1-4-2-5(3-8)6(7)9-4/h2,4,7-8H,3H2,1H3/t4-/m1/s1
