17
gdb 97088	3.13446	1.15875	0.99714	4.0354	72.68	-0.2263	-0.0448	0.1815	1230.1318	0.135529	-455.163407	-455.154449	-455.153505	-455.198272	31.065	
C	 0.3234627514	 1.2416579714	 0.1795327479	-0.329941
N	-0.0835148693	-0.1079038964	-0.1641884743	-0.362968
C	 0.360844162	-0.6517940989	-1.20444287	 0.500295
N	 0.0067924999	-1.9298762847	-1.6521073974	-0.35248
C	 0.9701805432	-2.3721585406	-2.6323187713	-0.101232
C	 1.4696811549	-1.0141572587	-3.1745915427	-0.106354
O	 1.2539388985	-0.1053611619	-2.1004706347	-0.249198
C	 2.0887686515	-3.2340202647	-2.052992256	 0.154989
O	 2.1093171556	-3.6242785452	-0.9165936853	-0.231541
H	 0.9757630469	 1.7197683545	-0.5608918135	 0.117326
H	-0.5675596716	 1.8667997464	 0.3105172251	 0.12007
H	 0.8459645054	 1.2315068418	 1.1436912602	 0.121376
H	-0.1994216479	-2.5734377626	-0.9000029664	 0.264859
H	 0.5099057089	-2.9558712609	-3.442593908	 0.114533
H	 2.5320567749	-1.0130026689	-3.4353755117	 0.126094
H	 0.8872965863	-0.7015917748	-4.0481619537	 0.12848
H	 2.8888664495	-3.5032228858	-2.7809603984	 0.085692
55.4632	63.2277	110.9255	163.6043	201.0672	230.902	280.5523	344.6115	508.0014	553.6507	680.6961	706.2791	727.7932	749.0118	844.0002	891.7783	937.6712	993.3082	1056.8984	1087.3111	1105.7627	1138.2729	1147.0983	1168.3122	1232.4621	1241.1164	1281.3459	1352.4695	1390.7756	1419.2488	1423.2283	1447.0673	1495.6692	1502.2427	1522.0492	1825.7627	1840.7857	2868.8503	3005.4022	3011.0659	3042.5165	3067.2886	3077.9254	3092.5476	3604.2069
CN=C1NC(CO1)C=O	CN=C1N[C@@H](CO1)C=O	
InChI=1S/C5H8N2O2/c1-6-5-7-4(2-8)3-9-5/h2,4H,3H2,1H3,(H,6,7)	InChI=1S/C5H8N2O2/c1-6-5-7-4(2-8)3-9-5/h2,4H,3H2,1H3,(H,6,7)/t4-/m1/s1
