18
gdb 87330	1.87938	1.464	0.96059	3.1057	81.9	-0.2515	0.0168	0.2682	1278.2875	0.144364	-401.89618	-401.886402	-401.885458	-401.931174	35.373	
C	-0.016351582	 1.5126341721	 0.0810563348	-0.407808
C	 0.1018766476	 0.0058737653	 0.0463463401	-0.057333
C	 1.4462443953	-0.6722271396	-0.0264532216	-0.344874
C	 0.6210076393	-0.7570342754	 1.2492727674	 0.202986
O	 1.0236698529	 0.0608570552	 2.3300107704	-0.220999
C	 2.0543978343	-0.4025035176	 3.0792775968	 0.114957
N	 2.487216744	 0.297814157	 4.0334676162	-0.438865
C	 0.0074743725	-2.0023812496	 1.6243446779	 0.319672
C	-0.4972405325	-3.0468903397	 1.9418441936	-0.466741
H	 0.7867322767	 1.9611831227	 0.6687491505	 0.142174
H	 0.0294212779	 1.9176804294	-0.93520179	 0.120465
H	-0.9676906109	 1.8204325414	 0.5259935247	 0.130156
H	-0.7040097026	-0.5055217792	-0.4712183197	 0.108055
H	 1.5608679808	-1.5726015318	-0.6183121203	 0.129303
H	 2.3250264348	-0.0380163867	 0.0301563178	 0.131184
H	 2.4168304145	-1.3870095676	 2.7621500736	 0.103901
H	 3.2529156866	-0.1859381977	 4.4982122328	 0.231138
H	-0.9514064192	-3.9642922781	 2.224940325	 0.202629
68.9882	93.9548	136.0286	143.4388	158.4405	190.6216	279.3753	343.8765	405.2061	472.4964	505.5018	550.9501	579.8406	599.141	684.2942	754.635	807.9435	822.0303	899.42	925.1778	953.9237	1007.605	1044.1597	1061.443	1072.7166	1100.2461	1137.051	1194.2029	1248.8537	1269.8489	1284.2794	1401.3756	1419.033	1422.8482	1474.4957	1492.3437	1501.2832	1746.149	2232.9837	3042.3053	3057.9807	3103.4103	3132.8462	3136.1639	3160.8771	3230.7171	3500.7369	3517.4326
CC1CC1(OC=N)C#C	C[C@H]1C[C@]1(O[CH][NH])C#C	
InChI=1S/C7H9NO/c1-3-7(9-5-8)4-6(7)2/h1,5-6,8H,4H2,2H3	InChI=1S/C7H9NO/c1-3-7(9-5-8)4-6(7)2/h1,5-6,8H,4H2,2H3/t6-,7+/m0/s1
