17
gdb 69401	4.21178	1.13042	0.99172	3.4112	74.56	-0.2436	-0.0344	0.2093	1194.3834	0.134403	-421.825891	-421.817654	-421.81671	-421.859009	30.744	
C	-0.145415289	 1.5406406384	 0.016664484	-0.494962
C	 0.1221712322	 0.0635946243	-0.0182798051	 0.386714
O	-0.6889824116	-0.7552381111	 0.8684511416	-0.290555
C	 0.7285096114	-0.7374211939	 1.064731516	-0.065133
C	 1.4555842773	-1.9361534828	 0.4486621233	-0.152721
C	 0.9026144131	-3.2655980284	 0.9540847666	 0.151707
O	 1.5841744767	-4.2172851636	 1.2334775907	-0.250976
C	 1.1757381058	-1.7557543232	-1.0379492111	-0.101341
C	 0.458974121	-0.6582089392	-1.2876621329	-0.128544
H	 0.6940018742	 2.0966441026	-0.4134646967	 0.130071
H	-1.0429575252	 1.7845727806	-0.5619388406	 0.13379
H	-0.3023103522	 1.8776464186	 1.0439099564	 0.136047
H	 1.0654837667	-0.3158269475	 2.0081911902	 0.104728
H	 2.5294506626	-1.9235258068	 0.6643517132	 0.104416
H	-0.2038845725	-3.2884008779	 1.0299398322	 0.106281
H	 1.5052520929	-2.4839175389	-1.7698585035	 0.120499
H	 0.1445586465	-0.3135452912	-2.2654621444	 0.109979
65.3252	114.5585	187.9159	211.0935	265.1479	337.4722	402.4223	416.3908	514.6833	553.8129	626.806	726.1703	758.0503	834.3887	842.4174	916.9586	922.8724	926.7236	968.5868	1017.9136	1044.8205	1072.1956	1091.1591	1098.1481	1135.8878	1229.521	1248.8555	1276.7611	1297.5457	1357.4359	1404.7907	1411.1509	1439.4658	1483.5335	1494.3518	1657.3176	1825.2843	2929.3412	3038.2762	3059.1351	3100.7137	3128.264	3147.6342	3195.4124	3219.2653
CC12OC1C(C=O)C=C2	C[C@]12O[C@H]1[C@@H](C=O)C=C2	
InChI=1S/C7H8O2/c1-7-3-2-5(4-8)6(7)9-7/h2-6H,1H3	InChI=1S/C7H8O2/c1-7-3-2-5(4-8)6(7)9-7/h2-6H,1H3/t5-,6+,7-/m1/s1
