26
gdb 60390	3.23735	0.69596	0.67077	1.2815	93.68	-0.2196	0.0786	0.2982	1873.3437	0.238856	-369.591548	-369.580424	-369.57948	-369.628399	41.011	
C	-0.1571997287	 1.5558593591	 0.3168104414	-0.38904
C	 0.0041468014	 0.0647358639	-0.0083288263	 0.042282
C	 1.1181370598	-0.5545930673	 0.8480644618	-0.380943
C	-1.3393001095	-0.6697841697	 0.1512726796	-0.162411
C	-1.3455410572	-2.1257428368	-0.3391815716	-0.231678
C	-2.7293867718	-2.7458219806	-0.3201833918	 0.02914
C	-2.9240981862	-4.222132978	-0.2351034198	-0.266252
N	-3.3446107122	-3.3585698327	 0.8621472365	-0.077726
C	-2.6071044118	-3.4539780293	 2.1117387931	-0.312193
H	 0.7818893213	 2.0991206259	 0.1679102121	 0.108192
H	-0.9197036554	 2.0225904871	-0.3156465996	 0.109125
H	-0.4596378855	 1.6982737164	 1.3613978963	 0.111315
H	 0.304127727	-0.0186796698	-1.0636973358	 0.069018
H	 2.0568313343	-0.0038990342	 0.7262207675	 0.109865
H	 0.8532540541	-0.5246064361	 1.9121470392	 0.110357
H	 1.3139655949	-1.5976940347	 0.5825172341	 0.112334
H	-1.6445813541	-0.6360702601	 1.2064368071	 0.095859
H	-2.1097487022	-0.114902155	-0.4011039404	 0.090648
H	-0.9780549239	-2.1569303572	-1.3746106581	 0.098143
H	-0.647311883	-2.7333332536	 0.2443435134	 0.099078
H	-3.4557778858	-2.1821547724	-0.9074520092	 0.083957
H	-3.7161403249	-4.7209434143	-0.788595026	 0.109617
H	-2.0266905762	-4.8246702032	-0.0900785648	 0.099254
H	-1.5342080519	-3.6782604852	 2.0027201463	 0.098464
H	-2.7069627612	-2.5161866308	 2.6682385266	 0.121449
H	-3.0513730212	-4.2517071612	 2.7162398184	 0.122149
44.3052	59.1781	113.3196	127.3855	194.0991	222.4083	252.6814	253.6252	294.483	300.6089	372.2458	411.4174	420.7905	481.1642	525.1204	734.2263	771.2031	793.2508	835.4382	916.0849	930.2372	944.0621	965.2019	978.4889	1035.6406	1047.2794	1061.4437	1097.9926	1114.3538	1133.0285	1150.231	1166.8485	1193.4671	1198.1061	1204.9387	1244.8932	1278.6489	1319.1801	1340.91	1349.3004	1371.5591	1387.3805	1402.6342	1424.2899	1425.8623	1447.5812	1474.5733	1485.4812	1488.4992	1492.2792	1498.3497	1504.5277	1506.2594	1511.4585	1513.8637	2973.2145	2990.9811	3006.059	3015.0625	3023.0888	3028.2561	3042.5022	3061.3632	3075.9533	3078.6713	3087.1918	3092.877	3094.9719	3096.0682	3098.3636	3104.883	3164.3177
CC(C)CCC1CN1C	CC(C)CC[C@H]1CN1C	
InChI=1S/C8H17N/c1-7(2)4-5-8-6-9(8)3/h7-8H,4-6H2,1-3H3	InChI=1S/C8H17N/c1-7(2)4-5-8-6-9(8)3/h7-8H,4-6H2,1-3H3/t8-,9?/m0/s1
