20
gdb 126147	3.73795	1.00618	0.84501	3.1337	80.26	-0.2529	0.0167	0.2696	1401.8815	0.172735	-399.369489	-399.360397	-399.359453	-399.40442	33.139	
C	 0.0549801092	 1.5452241424	-0.1155251843	-0.396062
C	 0.0568497467	 0.0176239906	-0.0171173681	-0.166158
C	 0.6543011103	-0.5315780034	 1.300825653	-0.088126
C	-0.1754073368	-0.159376543	 2.537387358	-0.425427
C	 0.8625548753	-2.0151488267	 1.1809288685	 0.387984
N	 1.6429066554	-2.6210587201	 0.2976587232	-0.322737
C	 1.4797486021	-3.9397586239	 0.5880862134	 0.021226
N	 0.6548948109	-4.2018827545	 1.5876500895	-0.221762
N	 0.269535957	-2.9534031874	 1.9530189562	-0.248362
H	 1.0662855313	 1.9497196045	 0.0051449249	 0.118692
H	-0.3141906188	 1.8656038407	-1.0944181509	 0.11929
H	-0.5835895396	 2.0116393992	 0.6412955254	 0.116176
H	-0.9655116687	-0.3671272077	-0.1293302317	 0.095996
H	 0.6380617006	-0.4033497845	-0.8428394425	 0.131427
H	 1.6545025455	-0.091237245	 1.4104260669	 0.108192
H	 0.2717153056	-0.5535622284	 3.4559579965	 0.120917
H	-0.2404080026	 0.9249479882	 2.6484010232	 0.132071
H	-1.2009985111	-0.5405679517	 2.4593275606	 0.117485
H	 1.983624725	-4.728854004	 0.0497929178	 0.123287
H	-0.375146197	-2.8358017453	 2.7163076903	 0.275891
27.4593	87.3199	136.0825	204.3998	236.8489	282.4962	287.222	349.5203	403.7516	472.8844	575.783	678.553	698.6376	770.7603	787.8047	847.0302	913.0404	966.8133	983.1521	989.6663	1022.3368	1047.5383	1093.0121	1124.8263	1141.6485	1181.7188	1218.3094	1282.0968	1286.2386	1309.0117	1310.6782	1346.7331	1371.9992	1409.7036	1415.8592	1422.708	1487.2127	1492.3769	1496.1382	1506.4844	1509.99	1514.5068	1579.1727	3014.5312	3026.2818	3032.1216	3034.7696	3082.0508	3092.9649	3102.8586	3108.7748	3125.9587	3258.3644	3673.9062
CCC(C)C1=NC=NN1	CC[C@@H](C)c1ncn[nH]1	
InChI=1S/C6H11N3/c1-3-5(2)6-7-4-8-9-6/h4-5H,3H2,1-2H3,(H,7,8,9)	InChI=1S/C6H11N3/c1-3-5(2)6-7-4-8-9-6/h4-5H,3H2,1-2H3,(H,7,8,9)/t5-/m1/s1
