15
gdb 42226	4.15698	1.11914	1.02448	3.5504	75.04	-0.2439	-0.0576	0.1863	1156.7638	0.110948	-420.548223	-420.540251	-420.539307	-420.581415	29.466	
O	 0.1535030518	-0.1829979324	-0.0503363458	-0.310605
C	 0.0176501352	 1.0235425261	-0.0008369585	 0.260114
C	 1.1629343988	 1.9021131384	 0.1956874054	 0.241
C	 2.104484807	 2.6378216647	 0.342983677	-0.412014
C	-1.28729953	 1.7315955263	-0.0950722472	-0.166932
C	-2.6003970828	 1.1269597283	-0.5727642686	-0.174494
C	-2.7663042962	-0.3051328247	-0.058081358	-0.085428
O	-2.5069649743	 0.1327313961	 1.3109855513	-0.266113
C	-2.4433482144	 1.4724551285	 0.8779481761	 0.099453
H	 2.9479282585	 3.2703999506	 0.4782873171	 0.213352
H	-1.2049596581	 2.7901439718	-0.3249847963	 0.110912
H	-3.1791886652	 1.5959217539	-1.35685069	 0.110204
H	-3.7996475497	-0.6561742828	-0.1421046503	 0.112328
H	-2.0566382239	-1.0601618191	-0.3920353412	 0.148543
H	-2.8433072267	 2.2471543542	 1.5220679892	 0.11968
43.6838	135.4009	162.0419	234.7006	260.287	349.4892	436.4465	500.4614	622.7366	645.258	693.4159	711.9323	784.4139	802.2787	821.0757	890.615	912.2291	960.8136	984.4253	1006.8074	1055.2782	1070.2387	1094.0567	1114.2385	1163.7153	1170.5126	1261.3649	1304.997	1366.7148	1430.3316	1497.3509	1747.9798	2209.7187	3055.6226	3156.2176	3159.2283	3182.4475	3206.9865	3495.0665
O=C(C#C)C1C2COC12	O=C(C#C)[C@H]1[C@H]2CO[C@@H]12	
InChI=1S/C7H6O2/c1-2-5(8)6-4-3-9-7(4)6/h1,4,6-7H,3H2	InChI=1S/C7H6O2/c1-2-5(8)6-4-3-9-7(4)6/h1,4,6-7H,3H2/t4-,6-,7-/m1/s1
