23
gdb 62649	2.50389	1.56383	1.42612	0.2279	89.84	-0.2732	0.0859	0.3591	1099.3547	0.204582	-351.096291	-351.087326	-351.086382	-351.128902	36.054	
C	-0.1273251088	 1.5613903818	-0.0051245654	-0.461195
C	-0.0645295546	 0.0343650619	-0.0019053074	 0.270796
C	-1.426020533	-0.5606376428	-0.3597859813	-0.461198
C	 1.1789031235	-0.616730756	-0.6593885361	-0.070749
C	 2.1125232705	-0.2733766984	 0.5520347416	-0.093143
C	 2.6224167527	-1.7210884133	 0.6627708276	-0.292025
C	 1.1375386367	-1.8665384475	 0.2857896736	-0.093127
C	 0.7089301926	-0.6358124094	 1.1757449356	 0.345485
C	 0.3463429762	-0.6581320689	 2.6368419831	-0.531202
H	 0.8324349748	 2.018120941	 0.2521687431	 0.1112
H	-0.4197083425	 1.936684421	-0.9929888631	 0.11024
H	-0.8729691769	 1.9254476606	 0.711790103	 0.109616
H	-1.745762063	-0.229774547	-1.3550265513	 0.110239
H	-1.4149897682	-1.654171469	-0.3617555365	 0.111197
H	-2.1956546429	-0.235985542	 0.350673494	 0.109618
H	 1.4762065279	-0.622943276	-1.7109083681	 0.057425
H	 2.6674532184	 0.6536721281	 0.7014590488	 0.066168
H	 3.3520482637	-2.0421537801	-0.0878542572	 0.088033
H	 2.9218645852	-2.0704065501	 1.656445653	 0.088324
H	 0.565221742	-2.7814494826	 0.1274019828	 0.066164
H	 1.0897597475	-1.2096421003	 3.2232386716	 0.120119
H	 0.286786337	 0.3570667297	 3.0454389464	 0.119005
H	-0.6258898488	-1.1382490207	 2.7961411023	 0.119007
178.9438	188.4385	197.4597	204.3228	239.6916	245.6429	308.2605	327.7361	360.7104	504.4841	532.1771	603.6098	634.7116	736.2824	814.2789	821.9326	859.2562	885.322	902.6304	918.7742	946.3635	956.5759	978.75	1006.3185	1020.4963	1057.5625	1082.9507	1130.2853	1148.4044	1150.5259	1153.9762	1162.5386	1180.2404	1208.3189	1233.088	1248.0052	1268.2283	1314.0965	1360.7628	1401.8979	1407.6826	1419.6126	1480.4849	1485.1895	1490.9157	1491.3047	1505.4449	1507.8024	1515.855	3021.2425	3022.0442	3026.6857	3034.7812	3076.4136	3079.6453	3081.2928	3086.5812	3087.3325	3091.0792	3094.3366	3101.8679	3108.6217	3110.9687
CC1(C)C2C3CC2C13C	CC1(C)[C@H]2[C@@H]3C[C@H]2[C@]13C	
InChI=1S/C9H14/c1-8(2)7-5-4-6(7)9(5,8)3/h5-7H,4H2,1-3H3	InChI=1S/C9H14/c1-8(2)7-5-4-6(7)9(5,8)3/h5-7H,4H2,1-3H3/t5-,6+,7-,9+
