19
gdb 87598	3.28848	1.36443	1.26072	1.6702	82.51	-0.2119	0.0044	0.2164	1085.7987	0.160395	-382.012266	-382.004512	-382.003568	-382.044225	31.006	
C	-0.1946135732	 1.4161482782	-0.0873258973	-0.313681
N	 0.0536044628	-0.0137007567	 0.0301128179	-0.118749
C	 1.4153773842	-0.4855264379	-0.1539239155	-0.313322
C	 0.7734521772	-0.5209337032	 1.2005404345	 0.381059
C	 1.2703776637	 0.3211274613	 2.3353097354	-0.165267
C	 1.1880349096	-0.3305862325	 3.4995835691	-0.068867
C	 0.5642359331	-1.6759092718	 3.3060220777	-0.098457
N	-0.8377265904	-1.5713770517	 2.7986755522	-0.336799
C	 0.2808275786	-1.7920856481	 1.8531221942	-0.141736
H	 0.6650685329	 2.0502475819	 0.1817199266	 0.097144
H	-0.4642754271	 1.6397765459	-1.1245728149	 0.12233
H	-1.0384519844	 1.6872955965	 0.5536595458	 0.135679
H	 1.5344400439	-1.4026748569	-0.7278210168	 0.110754
H	 2.2037709269	 0.2521494698	-0.3068062108	 0.102893
H	 1.6281930379	 1.3347924479	 2.2066060398	 0.101495
H	 1.4861213086	 0.0584383782	 4.4653055013	 0.101342
H	 0.8380803848	-2.5232814709	 3.9246999936	 0.089552
H	-1.2996653811	-2.4684111998	 2.9451117976	 0.226577
H	 0.3373227719	-2.7304767803	 1.3127566097	 0.088051
115.7899	157.132	223.6154	248.1045	333.2745	397.9844	416.8975	479.7843	535.0087	608.4361	729.1978	760.2253	800.5148	840.7838	845.4904	863.9409	909.1015	920.0646	924.5672	947.9759	971.7041	1048.9984	1064.9693	1100.9282	1111.6343	1128.6111	1149.7735	1162.6268	1164.0857	1199.7723	1251.8026	1262.0571	1336.614	1345.8886	1393.8958	1433.8185	1447.4745	1490.2969	1499.0529	1506.8118	1653.7411	2974.4294	3068.9854	3073.8013	3110.2647	3158.9325	3167.3382	3176.6107	3199.9704	3223.1771	3469.4272
CN1CC11C=CC2NC12	CN1C[C@]21C=C[C@H]1N[C@@H]21	
InChI=1S/C7H10N2/c1-9-4-7(9)3-2-5-6(7)8-5/h2-3,5-6,8H,4H2,1H3	InChI=1S/C7H10N2/c1-9-4-7(9)3-2-5-6(7)8-5/h2-3,5-6,8H,4H2,1H3/t5-,6-,7-,9?/m1/s1
