17
gdb 32376	4.60382	0.89374	0.78522	1.3275	88.38	-0.2129	-0.0178	0.1952	1456.4292	0.135063	-384.695935	-384.687207	-384.686263	-384.729814	32.292	
C	 0.0999614088	 1.5649206953	 0.1293221821	-0.366637
C	-0.1329137949	 0.0610049857	-0.0909524925	-0.306427
C	 0.644013683	-0.4960121344	-1.2478553451	 0.283958
C	 0.1482710104	-0.9768431434	-2.4235109985	-0.126811
O	 1.1385902706	-1.3876350754	-3.2525049422	-0.176161
C	 2.3205090229	-1.1670797572	-2.594776961	 0.245386
C	 2.0655504575	-0.6221800781	-1.3658238787	-0.406254
C	 3.5148312275	-1.5158682823	-3.2485433364	 0.251774
C	 4.5458219079	-1.8100346132	-3.7979157464	-0.420054
H	 1.1564100445	 1.777617272	 0.3210784978	 0.121354
H	-0.1987948485	 2.1394395418	-0.7527396737	 0.122652
H	-0.4770447816	 1.9269116006	 0.9858497333	 0.114068
H	 0.1345581371	-0.481911993	 0.8243671335	 0.11174
H	-1.2005479477	-0.1238103009	-0.25446862	 0.104846
H	-0.854927026	-1.0909782306	-2.8022090424	 0.135209
H	 2.8105768251	-0.350129688	-0.634396103	 0.116955
H	 5.4541376535	-2.069710269	-4.2825190469	 0.194402
56.7633	104.0099	139.0346	194.0446	215.1194	326.4507	386.6006	466.8363	529.0484	536.1192	546.4919	643.3406	684.0276	686.4789	700.7047	768.5458	790.6022	838.9034	954.2613	958.9959	1011.3653	1066.8448	1091.3724	1164.4891	1175.1591	1221.6661	1283.0979	1295.462	1361.2372	1403.903	1412.1387	1485.1004	1496.6138	1505.9169	1538.8307	1636.5271	2231.0304	3025.6334	3037.7656	3063.7251	3109.2232	3112.8508	3257.536	3268.4968	3503.5389
CCC1=COC(=C1)C#C	CCc1coc(c1)C#C	
InChI=1S/C8H8O/c1-3-7-5-8(4-2)9-6-7/h2,5-6H,3H2,1H3	InChI=1S/C8H8O/c1-3-7-5-8(4-2)9-6-7/h2,5-6H,3H2,1H3
