18
gdb 110477	4.78194	1.28889	1.24524	0.8974	74.22	-0.2292	0.0724	0.3016	1050.7168	0.148537	-401.838826	-401.831738	-401.830793	-401.870496	27.914	
C	-0.1369993763	 1.3462145007	-0.1282698954	-0.238658
O	 0.3366742356	 0.0317250728	 0.0758250798	-0.256245
C	 0.8198097303	-0.5783013722	-1.0943864307	 0.145385
C	 1.1726371682	-2.0531302067	-0.80914961	-0.110903
C	 1.4700323912	-2.6630754335	-2.1875332994	-0.057879
C	 0.1344608968	-3.286608982	-2.3357311837	-0.059964
C	-0.3269633686	-2.4770695458	-1.0954316796	-0.067982
C	-0.2907230146	-1.1955444712	-1.9831658906	-0.038516
N	 0.41661912	-2.0050463786	-3.0549181157	-0.161125
H	 0.651041315	 1.9994348471	-0.5333760707	 0.108468
H	-0.9960004907	 1.3783527409	-0.8138026328	 0.109331
H	-0.449309338	 1.7310917581	 0.8453859742	 0.12852
H	 1.5736227616	 0.048793419	-1.5944637207	 0.068799
H	 1.7448627546	-2.3581948884	 0.0638554303	 0.080068
H	 2.4186935732	-2.8997110531	-2.6519399118	 0.097769
H	-0.200688107	-4.1856128889	-2.8380844047	 0.096216
H	-1.0554832131	-2.7289399093	-0.3319464579	 0.081201
H	-1.152008188	-0.6423784388	-2.3544937105	 0.075514
94.8905	155.3648	179.4021	272.756	402.6558	492.4819	535.0013	734.8714	754.2485	792.8244	804.3792	835.7823	864.2994	893.5963	926.5603	948.6562	954.0174	974.1008	986.1229	1008.287	1041.6142	1054.1646	1078.2622	1143.0504	1152.8871	1166.3084	1176.1342	1183.6626	1205.1494	1218.799	1229.3577	1257.1784	1267.7713	1282.4915	1326.8098	1379.2018	1480.9051	1487.2423	1507.9696	2980.3977	2992.0645	3032.0226	3116.3825	3125.8029	3148.2944	3170.2155	3185.8432	3199.9843
COC1C2C3C4C2C1N34	CO[C@H]1[C@@H]2[C@H]3[C@H]4[C@@H]2[C@@H]1N34	
InChI=1S/C7H9NO/c1-9-7-3-2-4-5(3)8(4)6(2)7/h2-7H,1H3	InChI=1S/C7H9NO/c1-9-7-3-2-4-5(3)8(4)6(2)7/h2-7H,1H3/t2-,3+,4-,5+,6+,7+,8?/m1/s1
