17
gdb 54864	3.25736	1.44674	1.13046	0.7296	72.51	-0.2409	-0.0227	0.2182	1076.743	0.135883	-418.004661	-417.996534	-417.99559	-418.038355	29.792	
C	 0.9519652657	 0.8293366454	 0.3657970822	-0.469915
C	-0.4270317993	 0.4826205335	-0.1470307044	 0.371209
O	-1.4448571884	 0.8546307051	 0.3869468165	-0.292906
C	-0.4784252832	-0.3667040796	-1.4305899403	-0.101498
N	 0.41923439	-1.5408817697	-1.3433620034	-0.221097
C	-0.2781779552	-2.5588598457	-1.6574016203	 0.039641
N	-1.6368891866	-2.3866690287	-2.0472785712	-0.133589
C	-2.4562016327	-1.930498889	-0.8825437296	-0.233384
C	-1.8473211925	-0.9376442085	-1.7916605359	-0.022746
H	 1.5010021482	-0.090623969	 0.5871633534	 0.164588
H	 1.5248495655	 1.3509796648	-0.4093560732	 0.13949
H	 0.8707800895	 1.4562320027	 1.2543034383	 0.137329
H	-0.1094575928	 0.2846347793	-2.2375570838	 0.112752
H	 0.1256099937	-3.5674007386	-1.6615878199	 0.132786
H	-3.5139763967	-2.1562191975	-0.9647445995	 0.132223
H	-2.0277165448	-2.0594538419	 0.1064437526	 0.135135
H	-2.4721012104	-0.4131941027	-2.5047556616	 0.109982
33.8287	118.9583	130.0561	181.9399	317.2369	356.8788	393.1091	525.5785	537.9765	602.4603	709.9672	783.8692	797.6919	834.4553	870.4225	933.1876	958.8581	984.1312	1014.1804	1020.5347	1040.0141	1069.704	1094.1683	1115.0403	1163.6673	1196.2157	1251.1227	1267.4866	1313.8247	1333.6122	1379.7622	1383.1805	1459.7237	1467.9392	1499.729	1668.6549	1814.8953	2993.942	3044.0417	3109.2595	3126.6379	3158.064	3181.0986	3187.6797	3220.745
CC(=O)C1N=CN2CC12	CC(=O)[C@H]1N=CN2C[C@@H]12	
InChI=1S/C6H8N2O/c1-4(9)6-5-2-8(5)3-7-6/h3,5-6H,2H2,1H3	InChI=1S/C6H8N2O/c1-4(9)6-5-2-8(5)3-7-6/h3,5-6H,2H2,1H3/t5-,6+,8?/m0/s1
