19
gdb 28450	3.06491	1.32923	0.93877	2.9641	88.84	-0.2046	-0.007	0.1975	1264.7685	0.1602	-382.147153	-382.138161	-382.137216	-382.180739	34.014	
C	-0.0201970302	 1.5231805248	 0.0127431592	-0.497074
C	-0.0033736757	 0.0162864332	 0.0089242961	 0.280143
C	-0.0869763467	-0.7102697839	-1.1772791872	-0.100396
N	-0.0751899668	-2.044305056	-1.2335121886	-0.318297
C	 0.0240119793	-2.7423692443	-0.1040299333	 0.279186
C	 0.0471262294	-4.2446093484	-0.2122774428	-0.501193
C	 0.1115970289	-2.1096107041	 1.1568485527	 0.245281
N	 0.273290675	-2.8625725613	 2.3215393326	-0.592436
C	 0.0937613826	-0.7163425266	 1.1908230824	-0.232469
H	 0.9030999545	 1.9336517003	 0.4373078162	 0.130636
H	-0.1246000232	 1.9171698166	-1.001712127	 0.126777
H	-0.8507535241	 1.9145806765	 0.6110896119	 0.128335
H	-0.1676643149	-0.1903333293	-2.129595632	 0.090603
H	 0.9496411519	-4.6676656526	 0.2459251427	 0.130469
H	-0.815305011	-4.7063234866	 0.2894073965	 0.115667
H	 0.0175098321	-4.5284151822	-1.2647713382	 0.142665
H	-0.1359497962	-3.7849071061	 2.2948668828	 0.248733
H	 0.0280888829	-2.3766251591	 3.1724220079	 0.244627
H	 0.1589272822	-0.202616041	 2.1477623181	 0.078742
61.6617	131.7271	175.5038	216.6204	282.6061	294.7372	315.4288	356.0909	464.2205	468.1861	488.3861	564.7827	586.2539	643.7057	731.1642	761.2643	768.4268	894.4483	921.4297	963.3818	1019.4838	1024.4331	1056.0886	1064.2642	1103.4527	1190.0968	1248.3467	1283.3004	1318.1896	1337.1863	1401.1153	1413.9902	1449.432	1480.8797	1484.9669	1486.4034	1498.3324	1520.9039	1602.8734	1641.8013	1660.0369	3005.8455	3028.9228	3058.4759	3081.2715	3113.3939	3143.8352	3144.6946	3147.0992	3561.0962	3659.5935
CC1=CN=C(C)C(N)=C1	Cc1cnc(C)c(N)c1	
InChI=1S/C7H10N2/c1-5-3-7(8)6(2)9-4-5/h3-4H,8H2,1-2H3	InChI=1S/C7H10N2/c1-5-3-7(8)6(2)9-4-5/h3-4H,8H2,1-2H3
