17
gdb 127033	6.4763	0.8316	0.74453	3.1872	72.07	-0.2104	0.0393	0.2497	1508.6523	0.137285	-451.354658	-451.345685	-451.344741	-451.388679	32.345	
C	 0.015959128	 1.4608604748	-0.0570775019	-0.392076
C	 0.005857112	-0.0553128503	-0.019373912	-0.033452
O	 0.698783608	-0.5212250352	-1.1843392334	-0.259249
C	 0.7894773662	-1.8444719098	-1.3163341708	 0.445488
N	 0.2787449919	-2.7113860434	-0.461373199	-0.330689
N	 0.6352242666	-3.9053513562	-1.0599465676	-0.275104
C	 1.3248130841	-3.6630248939	-2.1931118722	 0.432195
N	 1.8853944859	-4.6494017847	-2.9790175956	-0.597942
N	 1.4351829787	-2.3635265978	-2.40013298	-0.39259
H	 1.0408153833	 1.8423987633	-0.053569598	 0.130104
H	-0.4848543113	 1.8301007378	-0.9564163335	 0.129553
H	-0.5054889577	 1.8586826713	 0.8186087316	 0.117295
H	 0.5049479276	-0.4436578238	 0.8763699384	 0.11504
H	-1.0146673739	-0.4561962755	-0.0225725399	 0.114824
H	 0.4694538971	-4.7726007292	-0.5802389574	 0.270535
H	 1.3186549739	-5.4776281247	-3.0976521494	 0.255088
H	 2.1943991395	-4.2780167027	-3.8668711594	 0.270978
60.878	96.2741	148.5794	228.1071	258.2137	270.0619	311.3659	348.8232	351.1089	425.32	525.8659	646.3153	719.6043	741.6171	779.7176	794.9738	813.4996	924.3565	1020.0671	1063.0169	1088.2061	1111.2297	1143.2132	1173.5407	1185.3441	1291.8097	1320.9424	1383.7266	1411.0466	1436.2424	1484.2396	1497.9831	1510.353	1532.9401	1596.1137	1612.9435	1664.9117	3029.5984	3046.2994	3065.6771	3120.8432	3124.8592	3559.7124	3658.854	3682.5985
CCOC1=NNC(N)=N1	CCOc1n[nH]c(N)n1	
InChI=1S/C4H8N4O/c1-2-9-4-6-3(5)7-8-4/h2H2,1H3,(H3,5,6,7,8)	InChI=1S/C4H8N4O/c1-2-9-4-6-3(5)7-8-4/h2H2,1H3,(H3,5,6,7,8)
