20
gdb 53550	4.13793	0.82704	0.77683	1.8976	87.74	-0.2225	0.0549	0.2775	1552.3542	0.170728	-365.910883	-365.901719	-365.900775	-365.94745	33.153	
C	 0.022447904	 1.4916086727	 0.0375344917	-0.496553
C	 0.0230172304	 0.0354965011	 0.0123038218	 0.06759
C	 0.0398765601	-1.1684407295	-0.0089029038	 0.055001
C	 0.0078856361	-2.6276681049	-0.0330925306	-0.4913
C	-1.4089929219	-3.1830947024	-0.0007706161	 0.324393
C	-2.5682058144	-2.9680328372	-1.00038826	-0.193638
N	-3.2149789379	-3.9009431078	 0.0401595036	-0.146046
C	-1.8768681707	-4.657815546	-0.0128522608	-0.220327
C	-2.5067228853	-3.0045434287	 1.0727206781	-0.193647
H	 1.0431944554	 1.8899277496	 0.0346515165	 0.148009
H	-0.4958409282	 1.9060021101	-0.834335575	 0.146852
H	-0.4788671845	 1.8753562196	 0.9330374525	 0.146847
H	 0.5166549677	-3.0006271982	-0.9326753671	 0.12703
H	 0.5685485182	-3.0308202315	 0.8214974706	 0.127029
H	-3.0290006118	-1.9782064327	-1.0473398458	 0.104792
H	-2.4824191814	-3.4174032726	-1.9941780558	 0.096521
H	-1.7391661444	-5.2363393343	-0.9311692398	 0.098073
H	-1.6856146148	-5.2681404978	 0.8747764471	 0.098074
H	-2.3626668935	-3.4885010336	 2.0432590278	 0.096523
H	-2.962911183	-2.0174685559	 1.181681455	 0.104778
10.648	52.6436	71.3459	204.9125	222.9987	295.0234	322.3428	382.5306	440.6259	585.0617	586.8587	671.2719	755.0943	771.281	807.4711	882.1048	893.6902	939.6188	977.2568	1005.2758	1023.4219	1024.8566	1053.3069	1054.0548	1129.967	1147.6469	1163.8715	1168.3226	1170.3591	1199.1139	1201.2164	1258.178	1269.3451	1320.0969	1343.0571	1415.548	1464.8183	1478.9625	1479.6171	1511.7712	1512.7609	1567.4115	2372.3465	3006.2668	3026.2144	3036.3128	3041.9979	3047.0737	3055.7984	3086.3456	3086.4758	3108.403	3117.1484	3120.6961
CC#CCC12CN(C1)C2	CC#CC[C@@]12CN(C1)C2	
InChI=1S/C8H11N/c1-2-3-4-8-5-9(6-8)7-8/h4-7H2,1H3	InChI=1S/C8H11N/c1-2-3-4-8-5-9(6-8)7-8/h4-7H2,1H3
