16
gdb 123617	4.12817	1.54579	1.22665	1.7805	74.09	-0.2176	0.0172	0.2348	976.6393	0.129173	-396.913763	-396.907452	-396.906508	-396.944307	25.655	
C	 0.0757781032	 1.4894174356	-0.0317909577	-0.233544
C	 1.334994457	 0.6861123401	 0.0031357094	-0.187625
N	-0.0076704051	 0.0291552245	-0.0074022554	-0.095364
C	-0.2150789738	-0.6181626297	-1.3439618199	-0.302897
C	 1.032999039	-0.303497	-2.1263994464	 0.186784
C	 1.9044845085	 0.3972743375	-1.327544054	 0.395807
N	 3.0195082554	 0.6262858468	-2.0504812331	-0.345489
N	 2.9252650435	 0.1065774323	-3.3012363031	-0.226113
C	 1.7134124434	-0.4533752971	-3.3507595384	-0.162089
H	-0.2834321497	 1.97681521	 0.8712774768	 0.119458
H	-0.1455794264	 2.0133955993	-0.9596425861	 0.118402
H	 1.9252870974	 0.5986408103	 0.9104655093	 0.105463
H	-0.3570631334	-1.6929159755	-1.1821411728	 0.122164
H	-1.1380052939	-0.2324027149	-1.7913946771	 0.119853
H	 3.8601615838	 1.1138859068	-1.7926110816	 0.273316
H	 1.4011525411	-0.9442390759	-4.2608709299	 0.111874
151.4709	236.393	349.4837	418.3674	436.5891	502.4867	592.4312	679.6819	702.6893	710.823	745.1828	801.3488	837.9404	882.9989	955.8585	980.6279	1019.2144	1025.7137	1069.4076	1096.7923	1116.9845	1146.0492	1155.3487	1208.9589	1233.4394	1255.4757	1271.7286	1317.5333	1353.5337	1409.3374	1445.4139	1489.9005	1503.8815	1557.0128	1595.3306	3030.9135	3063.9258	3093.83	3150.8442	3183.2894	3244.582	3677.7912
C1C2N1CC1=C2NN=C1	C1[C@H]2N1Cc1c2[nH]nc1	
InChI=1S/C6H7N3/c1-4-2-9-3-5(9)6(4)8-7-1/h1,5H,2-3H2,(H,7,8)	InChI=1S/C6H7N3/c1-4-2-9-3-5(9)6(4)8-7-1/h1,5H,2-3H2,(H,7,8)/t5-,9?/m1/s1
