21
gdb 56808	2.25961	1.31803	0.97896	1.2597	84.58	-0.251	0.0488	0.2997	1292.6122	0.179791	-387.042715	-387.032372	-387.031428	-387.07786	38.551	
C	-0.8930285308	 1.0764861256	-0.1737178731	-0.398655
C	 0.0262765327	-0.1257966368	 0.1195408811	-0.166627
C	-0.7113742273	-1.2157549134	 0.7683386984	 0.325781
C	-1.3023087223	-2.1293230654	 1.2834367186	-0.483546
C	 0.7048313329	-0.6333902646	-1.1521388541	-0.060397
C	 2.1450420914	-0.2881702015	-1.5044520712	-0.058311
C	 3.0199864505	 0.6020108482	-0.6482606853	-0.410986
C	 1.7870259179	-1.683867238	-1.0572908992	 0.076549
O	 2.2242187561	-2.0774587741	 0.2109304093	-0.425286
H	-0.3149800421	 1.8869776747	-0.6269571925	 0.121694
H	-1.6906216197	 0.793575755	-0.867197555	 0.125416
H	-1.3568287887	 1.4479066052	 0.7439193633	 0.124096
H	 0.7983309791	 0.2041366259	 0.8222841187	 0.116587
H	-1.8376234118	-2.9218127494	 1.7453049973	 0.1986
H	 0.0170969542	-0.7336878746	-1.988329946	 0.085331
H	 2.324213878	-0.1872826902	-2.5718554616	 0.085549
H	 2.9874546775	 0.3055576686	 0.4016279273	 0.139614
H	 4.0634961697	 0.5235325334	-0.9707554	 0.118896
H	 2.727431732	 1.6547590408	-0.7275814538	 0.111395
H	 1.793972544	-2.4788524573	-1.8028145749	 0.08178
H	 1.4655354166	-2.4545152821	 0.6742244926	 0.292519
53.2457	106.8615	148.0479	177.7785	199.0772	224.0208	239.6725	268.1303	306.1417	415.1954	453.7267	490.7135	528.7741	572.7505	621.9244	641.2693	648.477	764.9079	799.2428	838.8454	887.5268	966.3087	989.7454	1008.9965	1067.487	1084.5715	1109.5729	1113.3378	1151.5688	1177.9273	1190.7741	1254.7805	1282.2926	1326.0608	1331.313	1371.5725	1389.6728	1408.3261	1417.3483	1450.1489	1491.7934	1495.0099	1499.2269	1507.207	2222.9916	3035.7794	3041.7144	3055.2751	3091.0498	3095.3437	3116.658	3121.3886	3125.1492	3132.1324	3144.8963	3501.9657	3763.5384
CC(C#C)C1C(C)C1O	C[C@@H](C#C)[C@H]1[C@@H](C)[C@H]1O	
InChI=1S/C8H12O/c1-4-5(2)7-6(3)8(7)9/h1,5-9H,2-3H3	InChI=1S/C8H12O/c1-4-5(2)7-6(3)8(7)9/h1,5-9H,2-3H3/t5-,6+,7-,8+/m0/s1
