17
gdb 125907	4.45994	1.2711	1.03941	2.8557	74.03	-0.2006	0.0411	0.2418	1132.5555	0.139006	-418.023758	-418.016298	-418.015354	-418.056059	28.673	
C	-0.5064866012	 1.4518682619	 0.0138290224	-0.396233
C	 0.1550635388	 0.0887558927	 0.0257818902	 0.123004
C	 1.0137238025	-0.2471699399	-1.2504849542	-0.403954
C	 2.2834320306	-0.7439100753	-0.6191558592	 0.124981
C	 2.1813139028	-0.5246948038	 0.7257393994	 0.485852
N	 3.3182645048	-0.9097795861	 1.3254429571	-0.346448
N	 4.2084994834	-1.3945316065	 0.3977479536	-0.243508
C	 3.5762539629	-1.2852377296	-0.7725277385	-0.148778
O	 1.0514789088	 0.0204260082	 1.2036263859	-0.295827
H	 0.2403443254	 2.239877066	-0.1228066588	 0.13088
H	-1.2248149892	 1.5097714757	-0.8103194793	 0.124912
H	-1.0405770544	 1.6361072307	 0.949871511	 0.131353
H	-0.5904635935	-0.6974115099	 0.1872051617	 0.099777
H	 0.4936043074	-0.9815412803	-1.8737401233	 0.117885
H	 1.1603971287	 0.6513308511	-1.8640616233	 0.113087
H	 3.5715978792	-0.895337683	 2.2974305113	 0.275001
H	 4.0860735328	-1.607819382	-1.6689490559	 0.108015
47.8995	214.6131	245.3427	265.8674	318.5236	432.2673	442.4505	470.8069	594.7827	664.1561	707.7548	734.1418	773.2201	824.5896	882.6564	888.2664	938.9706	972.7593	1048.4893	1055.5891	1098.1381	1125.1956	1179.8672	1212.128	1234.8326	1268.1704	1319.1518	1347.0352	1375.1983	1411.0503	1415.0479	1455.7839	1484.2236	1495.778	1506.3274	1593.7251	1636.4665	3015.2233	3041.3463	3042.299	3068.3665	3114.858	3123.1241	3239.2322	3690.7755
CC1CC2=C(NN=C2)O1	C[C@H]1Cc2c([nH]nc2)O1	
InChI=1S/C6H8N2O/c1-4-2-5-3-7-8-6(5)9-4/h3-4H,2H2,1H3,(H,7,8)	InChI=1S/C6H8N2O/c1-4-2-5-3-7-8-6(5)9-4/h3-4H,2H2,1H3,(H,7,8)/t4-/m0/s1
