20
gdb 111337	2.50913	1.52921	1.14866	1.7251	79.84	-0.2371	0.0713	0.3085	1145.0332	0.170315	-403.072746	-403.064169	-403.063225	-403.10602	32.703	
C	 0.2646546836	 1.3236109971	 0.2196456693	-0.24027
O	-0.2403103277	 0.060144936	-0.1556551079	-0.2411
C	 0.4876230504	-0.540561664	-1.1943224624	 0.031146
C	 1.8544902091	-1.165237816	-0.8783611471	-0.074219
C	 1.7079657606	-2.2877033936	 0.0698365993	-0.23972
N	 1.3926381271	-2.5414860971	-1.3504472354	-0.166455
C	 0.0404025863	-1.9540493316	-1.5527591765	 0.3553
C	-1.2414176775	-2.6438023466	-1.2205504571	-0.317583
C	-0.8551884527	-2.3808222152	-2.6646021055	-0.351891
H	 1.2897343369	 1.2541489571	 0.6128359068	 0.112
H	 0.2659726838	 2.0272985329	-0.6276176061	 0.105326
H	-0.3873121013	 1.7152651912	 1.0037558515	 0.129304
H	 0.5361168898	 0.12854152	-2.0670155054	 0.072931
H	 2.8180690964	-0.7689130692	-1.1799786985	 0.093224
H	 2.6167472031	-2.78307199	 0.3970045103	 0.118532
H	 0.8965778311	-2.27433185	 0.792490319	 0.129078
H	-1.1796976967	-3.6658381793	-0.8612142545	 0.118713
H	-2.0293616422	-2.046604553	-0.7754044323	 0.127598
H	-1.3923068114	-1.6153821754	-3.2156269127	 0.113832
H	-0.527154129	-3.2273888234	-3.2578900349	 0.124252
79.3997	132.0924	156.8674	202.5585	249.5374	272.8111	302.2422	448.5054	505.4652	555.5517	616.2169	758.8281	769.7888	792.4584	806.9901	907.1671	922.0118	948.6342	978.5257	991.003	1028.5693	1047.6826	1049.7875	1072.4178	1074.4744	1113.3418	1141.6904	1167.9641	1182.1196	1187.9026	1197.1446	1226.4343	1251.1119	1270.4552	1344.0077	1372.5939	1404.0997	1453.4655	1480.5647	1487.9315	1492.0534	1504.2246	1509.1434	2975.2451	2987.9261	3026.1221	3116.6954	3117.8345	3128.3862	3133.6671	3168.2313	3209.1304	3213.121	3227.326
COC1C2CN2C11CC1	CO[C@H]1[C@H]2CN2C21CC2	
InChI=1S/C7H11NO/c1-9-6-5-4-8(5)7(6)2-3-7/h5-6H,2-4H2,1H3	InChI=1S/C7H11NO/c1-9-6-5-4-8(5)7(6)2-3-7/h5-6H,2-4H2,1H3/t5-,6+,8?/m1/s1
