17
gdb 111088	3.90003	1.08588	1.07019	5.3561	68.14	-0.2609	0.0139	0.2749	1163.7375	0.137212	-458.965695	-458.958051	-458.957107	-458.99823	29.152	
O	-0.1281895484	 1.4122851668	-0.233910447	-0.418127
C	 0.0166976564	 0.0502538506	 0.1416827692	-0.135424
C	-1.3597074705	-0.5803240452	 0.0396317629	 0.030779
C	-2.0138475957	-0.7177692103	-1.3606380845	 0.100627
C	-1.1640083322	-1.9823635189	-1.6041203739	-0.255807
C	-1.4392646989	-2.152091505	-0.0669209885	-0.217184
C	-2.9569053937	-2.2828879515	-0.1252645285	 0.45363
O	-3.7281771237	-3.0140300123	 0.4163328719	-0.350694
O	-3.3130895217	-1.293506633	-1.0145531873	-0.246697
H	 0.7074102826	 1.8620399196	-0.0771925762	 0.292928
H	 0.7516976038	-0.4616629084	-0.4960692727	 0.092025
H	 0.3694774673	-0.0458985806	 1.1803704811	 0.10017
H	-2.0192369905	-0.1216192216	 0.7818728205	 0.103777
H	-2.1495317831	 0.0994215465	-2.0630682393	 0.109046
H	-1.5791843724	-2.7308079524	-2.2817987339	 0.123613
H	-0.1196847288	-1.7867968462	-1.8425253755	 0.119336
H	-0.9114383004	-2.843619608	 0.5844829117	 0.098001
72.775	155.5086	173.6751	250.6599	325.8659	379.818	477.6139	519.4113	529.967	648.5835	762.0952	797.9253	833.158	862.719	874.3941	929.8709	949.0537	998.8699	1015.988	1060.6176	1066.9274	1095.0201	1115.723	1121.7151	1152.4272	1185.8701	1224.1165	1239.5475	1263.325	1267.0396	1282.9411	1319.4702	1390.8771	1463.6983	1500.3395	1531.9722	1914.0267	2980.9578	3010.4307	3076.9345	3088.2946	3155.702	3161.2368	3172.2637	3829.6192
OCC1C2CC1C(=O)O2	OC[C@H]1[C@H]2C[C@@H]1C(=O)O2	
InChI=1S/C6H8O3/c7-2-4-3-1-5(4)9-6(3)8/h3-5,7H,1-2H2	InChI=1S/C6H8O3/c7-2-4-3-1-5(4)9-6(3)8/h3-5,7H,1-2H2/t3-,4+,5+/m0/s1
