17
gdb 106941	3.8589	1.13692	1.01493	0.8736	68.92	-0.2448	-0.027	0.2178	1171.1474	0.135254	-458.960574	-458.952312	-458.951368	-458.993789	30.939	
O	-0.0292422328	 1.4245263932	 0.4101746046	-0.412435
C	-0.0181441387	 0.1068119196	-0.1046184602	-0.138315
C	-1.3711405864	-0.5416134543	 0.0005109965	 0.42454
C	-1.8769966285	-1.2311758663	 1.2174454675	-0.345905
C	-1.6549403208	-2.0226899668	-0.0860034187	-0.254086
C	-2.8555765528	-2.1375029357	-0.9636673432	 0.393713
O	-3.3364175826	-3.1318472887	-1.4420295081	-0.316148
C	-3.3499822256	-0.7013712803	-1.2147628419	-0.207829
O	-2.3374160679	 0.1786672722	-0.7491220951	-0.315368
H	-0.7233013646	 1.8991716739	-0.0612210021	 0.296171
H	 0.3052438082	 0.0879516671	-1.1569939993	 0.098397
H	 0.7109704055	-0.4585796107	 0.4836619061	 0.112683
H	-1.1710718608	-1.4460254872	 2.0116157304	 0.137418
H	-2.8934283079	-1.0469025873	 1.5479309584	 0.131644
H	-0.9022308789	-2.799393675	-0.1209460598	 0.119559
H	-3.5176576083	-0.5412760635	-2.2845915785	 0.143613
H	-4.302039697	-0.5319783302	-0.6922608966	 0.132349
76.32	106.8358	134.7084	217.0249	341.9862	355.8649	413.5855	416.8344	462.6272	549.2996	634.5626	672.7009	727.0397	781.9427	884.3998	909.3114	923.7144	963.1378	1007.1498	1019.6703	1044.6936	1070.8293	1077.0013	1094.2302	1149.6329	1204.4805	1205.591	1223.2139	1285.0015	1344.3247	1380.8253	1390.6632	1443.5448	1484.7885	1488.884	1495.2984	1846.1901	2987.4975	3012.5169	3079.4417	3085.737	3137.4056	3204.6903	3228.6249	3805.9566
OCC12CC1C(=O)CO2	OC[C@]12C[C@H]1C(=O)CO2	
InChI=1S/C6H8O3/c7-3-6-1-4(6)5(8)2-9-6/h4,7H,1-3H2	InChI=1S/C6H8O3/c7-3-6-1-4(6)5(8)2-9-6/h4,7H,1-3H2/t4-,6+/m0/s1
