19
gdb 79204	2.36397	1.91857	1.40364	0.8316	74.78	-0.2381	0.0745	0.3126	979.9714	0.160565	-422.968544	-422.960967	-422.960023	-422.999971	31.354	
O	 0.1352270991	 1.4423922594	-0.3021312949	-0.419718
C	-0.0575454452	 0.0813949908	-0.0350482875	-0.005714
C	-0.4906342175	-0.5688987278	 1.2753379823	-0.151393
C	-1.4491493299	 0.0931959152	 2.2847998613	-0.048112
C	-2.7676883964	-0.7025410935	 1.97591318	-0.211295
C	-2.6496658595	 0.0879072594	 0.6255777725	-0.092106
C	-2.1139486562	 1.2570285758	 1.4952565944	-0.241285
C	-1.3941171573	-0.5923299697	 0.0426861297	 0.370764
O	-1.5953171021	-1.7823283743	-0.6626854347	-0.469154
H	 0.9394731094	 1.7168246696	 0.152222726	 0.287535
H	 0.6551335174	-0.5609542601	-0.5579753108	 0.092926
H	 0.0517298714	-1.4556568195	 1.586456246	 0.092703
H	-1.0779511067	 0.2281379723	 3.301346124	 0.057292
H	-2.7080335862	-1.7924168117	 1.9249881629	 0.102367
H	-3.6167185442	-0.3867592887	 2.5887734065	 0.088295
H	-3.4917476958	 0.2095877092	-0.05747182	 0.054631
H	-2.9221206926	 1.7106380187	 2.0744883525	 0.089127
H	-1.4924364118	 2.0179723899	 1.0351927777	 0.120236
H	-1.857115446	-1.5525290849	-1.5612158878	 0.282901
171.7242	234.7119	252.6075	277.6256	314.0307	335.0714	425.8352	526.6903	552.2486	584.81	684.6113	703.6982	740.0481	833.3523	843.3603	864.3936	888.7984	918.2689	977.7093	1001.8618	1018.4477	1026.409	1047.5481	1071.489	1091.7142	1104.8867	1108.6711	1149.5275	1216.1153	1221.0124	1235.9047	1241.3304	1255.7168	1275.6098	1300.5044	1318.8735	1328.5918	1366.5444	1473.0157	1490.5564	1528.027	3054.2271	3073.2734	3075.143	3101.7734	3106.3382	3120.0739	3167.7661	3190.379	3792.1516	3796.8901
OC1C2C3CC(C3)C12O	O[C@H]1[C@H]2[C@@H]3C[C@@H](C3)[C@@]12O	
InChI=1S/C7H10O2/c8-6-5-3-1-4(2-3)7(5,6)9/h3-6,8-9H,1-2H2	InChI=1S/C7H10O2/c8-6-5-3-1-4(2-3)7(5,6)9/h3-6,8-9H,1-2H2/t3-,4+,5-,6+,7+/m1/s1
