19
gdb 10959	5.18323	1.29299	1.16312	1.9205	72.33	-0.2031	0.0783	0.2814	1081.1803	0.164445	-365.008695	-365.000448	-364.999504	-365.041028	31.474	
C	 0.0457306395	 1.5571542199	-0.0088022681	-0.377285
C	-0.1605881737	 0.0444805117	-0.0480286287	-0.122801
N	 0.6248702	-0.5684897924	-1.1081705751	-0.068626
C	 2.1058808756	-0.685567024	-0.937182589	-0.247549
C	 1.999176517	-2.1899708339	-1.2172575649	 0.372847
O	 2.8311851506	-2.8880019495	-2.0704462354	-0.461059
C	 1.0988748909	-2.8451775601	-0.2007209283	-0.360176
C	 0.505648591	-2.0082363913	-1.3260275398	-0.065896
H	 1.0890758613	 1.808559825	 0.2112246751	 0.115994
H	-0.2111223924	 2.0047045518	-0.9731535498	 0.124425
H	-0.5760392879	 2.0133984464	 0.7676690693	 0.110438
H	 0.0591331661	-0.3839003248	 0.9484540399	 0.072744
H	-1.2140392977	-0.1802307512	-0.255920956	 0.101159
H	 2.6531527673	-0.1340929943	-1.708114949	 0.112247
H	 2.4887111249	-0.4055902632	 0.0542315969	 0.088863
H	 3.5207771459	-3.3070542549	-1.5442058036	 0.286601
H	 0.9805870364	-3.9150528701	-0.3443438766	 0.113671
H	 1.0712019747	-2.5141685795	 0.8342069357	 0.105168
H	-0.2093199095	-2.4112020155	-2.0350123025	 0.099234
99.1554	135.3239	183.9516	245.7693	271.5192	340.5837	370.3975	408.0491	429.4132	512.8442	610.7181	691.5956	804.5481	821.5375	853.2369	925.8243	946.0666	971.1018	987.5427	1011.8321	1040.9516	1074.1811	1083.1604	1114.5723	1136.3022	1197.2626	1208.9618	1226.1354	1277.3968	1284.3528	1312.0146	1330.8132	1389.582	1410.9704	1417.7588	1483.3195	1488.1057	1491.078	1506.0602	1514.8805	2920.3285	3001.7982	3035.8179	3042.6006	3073.8565	3102.3309	3109.6374	3117.5589	3170.0642	3203.1774	3796.9283
CCN1CC2(O)CC12	CCN1C[C@@]2(O)C[C@@H]12	
InChI=1S/C6H11NO/c1-2-7-4-6(8)3-5(6)7/h5,8H,2-4H2,1H3	InChI=1S/C6H11NO/c1-2-7-4-6(8)3-5(6)7/h5,8H,2-4H2,1H3/t5-,6+/m1/s1
