16
gdb 81986	2.55099	1.44087	1.33041	2.9871	68.51	-0.2739	0.0201	0.294	1023.5766	0.123038	-437.856415	-437.848053	-437.847109	-437.889219	31.303	
C	-0.0500129112	 1.5662839276	-0.0269995505	-0.452561
C	 0.001136529	 0.0391958265	-0.0066048586	 0.0585
C	-1.3084830954	-0.5517639671	 0.228728533	 0.235917
N	-2.342471998	-1.0370351106	 0.4115463077	-0.335433
C	 0.7334539539	-0.6584880923	-1.1805037881	 0.003432
O	 2.0846159576	-0.1972489135	-1.151115467	-0.260832
C	 1.7150310802	-1.2953712085	-0.2936864371	-0.013795
C	 1.1134500914	-0.6421395978	 0.9561647682	 0.083896
O	 1.9398877989	 0.2031018007	 1.6854461946	-0.416595
H	 0.918640692	 1.9630983745	-0.3368082858	 0.133164
H	-0.8108410717	 1.9219633322	-0.7270053266	 0.138502
H	-0.2846107629	 1.9528724308	 0.9676570933	 0.148917
H	 0.324044749	-0.9787506086	-2.1306366801	 0.130694
H	 2.2791177134	-2.2144749	-0.395029142	 0.123382
H	 0.6517102043	-1.3472079908	 1.6488287013	 0.123935
H	 2.4911578695	 0.6765186069	 1.0490130578	 0.298878
110.0326	152.9352	170.4451	192.0795	240.2657	275.8939	405.5655	476.9978	492.9849	511.4255	566.575	620.4424	668.8346	783.8394	847.4599	864.1702	884.8019	914.3314	944.3341	1006.9548	1056.273	1120.9186	1125.9574	1163.0692	1183.9691	1227.1583	1246.0675	1276.291	1307.6515	1374.4755	1409.657	1437.8953	1484.5455	1498.2313	2347.158	3054.5665	3114.5027	3128.53	3141.1088	3193.8357	3208.5629	3776.6631
CC1(C#N)C2OC2C1O	C[C@@]1(C#N)[C@H]2O[C@H]2[C@H]1O	
InChI=1S/C6H7NO2/c1-6(2-7)4(8)3-5(6)9-3/h3-5,8H,1H3	InChI=1S/C6H7NO2/c1-6(2-7)4(8)3-5(6)9-3/h3-5,8H,1H3/t3-,4+,5-,6-/m0/s1
