16
gdb 19364	4.41951	1.66337	1.49476	3.2199	63.61	-0.2471	0.0445	0.2917	888.5621	0.128516	-383.645648	-383.638442	-383.637498	-383.677172	27.459	
C	-0.1928537976	 1.5191512805	-0.0868418892	-0.379158
C	 0.0513136048	 0.0098254499	 0.0546384823	-0.315156
C	 0.8331976051	-0.547221491	-1.0905851625	 0.4264
O	 0.2105438054	-0.7200799517	-2.3654171857	-0.259238
C	 0.8718028759	-1.8411485211	-1.7752857916	-0.120385
C	 2.4250219333	-1.6768026347	-2.0225878824	-0.010253
O	 2.6352893121	-0.4732009883	-2.7567035681	-0.209896
C	 2.396760262	-0.3775497311	-1.3543221879	-0.064834
H	 0.7513117444	 2.0714650909	-0.136287616	 0.121379
H	-0.7539876194	 1.7339129835	-1.00059712	 0.140031
H	-0.7622343155	 1.9026095899	 0.7645285484	 0.116062
H	 0.5929199657	-0.1983760205	 0.986385719	 0.105312
H	-0.903780517	-0.5233973276	 0.1152781626	 0.115881
H	 0.3113810398	-2.756419081	-1.6272121966	 0.110223
H	 3.1802753462	-2.4514853163	-2.0625320281	 0.112921
H	 3.1275197148	 0.1291925286	-0.735454554	 0.110711
84.0614	143.3691	205.1059	307.4466	342.7203	427.1794	484.7115	604.0807	691.129	747.9842	767.8217	814.0286	825.9036	854.4064	883.4744	930.3975	956.4368	983.0378	1003.7096	1022.2813	1059.5658	1103.5197	1163.91	1195.2336	1230.0721	1249.3901	1308.5049	1340.8124	1368.5752	1409.9878	1464.7322	1475.9531	1498.2712	1509.9666	3026.8461	3040.9766	3071.252	3110.352	3121.7622	3185.9609	3191.5885	3205.4426
CCC12OC1C1OC21	CC[C@]12O[C@H]1[C@H]1O[C@@H]21	
InChI=1S/C6H8O2/c1-2-6-4-3(7-4)5(6)8-6/h3-5H,2H2,1H3	InChI=1S/C6H8O2/c1-2-6-4-3(7-4)5(6)8-6/h3-5H,2H2,1H3/t3-,4+,5-,6+/m0/s1
