19
gdb 103090	2.27364	1.29153	1.03426	1.7145	78.66	-0.2494	0.0319	0.2812	1237.9529	0.155962	-422.976777	-422.966654	-422.96571	-423.01147	37.549	
C	-0.1678366428	 1.5001680413	 0.0075833334	-0.409512
C	-0.0383016778	-0.003235669	 0.0600010994	-0.080874
C	 1.3094906281	-0.7096826684	-0.1873718182	-0.304674
C	 2.5099914838	 0.0499706468	-0.3496728039	 0.29416
C	 3.5277199435	 0.6941427724	-0.3986608921	-0.431306
C	 0.657988113	-0.6976689501	 1.1947089967	 0.359261
O	 1.2712536611	 0.0633703798	 2.1992190723	-0.47568
C	 0.1060259995	-1.977546286	 1.7796297053	-0.100935
O	 1.1093987586	-2.7311806879	 2.427364041	-0.419713
H	 0.6681361187	 1.9912833525	 0.5086035808	 0.127486
H	-0.2024526949	 1.8563942369	-1.0267067942	 0.123025
H	-1.0886551397	 1.8177298316	 0.5073084592	 0.123672
H	-0.8813667957	-0.545757458	-0.3616581122	 0.093191
H	 1.2765118601	-1.6493979822	-0.7302982781	 0.12116
H	 4.4230676928	 1.2577776899	-0.4918999576	 0.203083
H	 2.1302419289	 0.3633273028	 1.8701133897	 0.292338
H	-0.713513328	-1.7204472139	 2.4714631018	 0.094624
H	-0.3134411342	-2.60554608	 0.9873175062	 0.10467
H	 1.5601674547	-2.1087671985	 3.0111044007	 0.286023
89.7789	114.0699	139.8951	148.4117	172.8317	232.5755	285.297	333.7908	352.9679	399.6195	412.8461	471.092	564.273	583.1322	600.5738	633.308	666.3651	714.2326	820.9792	856.0827	943.6407	987.7256	1018.9617	1026.0096	1074.0884	1094.4983	1125.4065	1136.7858	1195.623	1220.0552	1311.1785	1340.5901	1367.3117	1376.8322	1417.8185	1429.0967	1460.4958	1488.9799	1497.9043	1501.5483	2219.9654	2968.4508	3043.7388	3079.1338	3103.0385	3127.5259	3142.4222	3153.8767	3500.5362	3726.3391	3787.5781
CC1C(C#C)C1(O)CO	C[C@H]1[C@@H](C#C)[C@]1(O)CO	
InChI=1S/C7H10O2/c1-3-6-5(2)7(6,9)4-8/h1,5-6,8-9H,4H2,2H3	InChI=1S/C7H10O2/c1-3-6-5(2)7(6,9)4-8/h1,5-6,8-9H,4H2,2H3/t5-,6+,7-/m0/s1
