13
gdb 43620	6.38271	0.65065	0.64122	3.8992	82.41	-0.2627	-0.0454	0.2173	1661.3614	0.087467	-419.392668	-419.384502	-419.383558	-419.42627	29.397	
O	 0.1623034426	 0.2937183552	-0.7123691701	-0.303013
C	-0.0165227215	 1.3026089846	-0.1153399079	 0.455054
C	-1.1970777387	 2.1618747909	 0.3342475646	-0.421204
C	-0.0954742811	 3.0465367168	 0.9726916491	-0.115002
O	 0.9326910415	 2.1222311903	 0.4495861521	-0.232568
C	 0.0559754288	 4.3957999106	 0.4841239361	 0.528461
C	 0.1668430862	 5.5354917003	 0.0931391393	-0.327116
C	 0.2911862783	 6.8145136447	-0.3506604289	 0.312655
C	 0.4012912542	 7.9503843323	-0.7442281038	-0.551214
H	-1.755714337	 2.6230337442	-0.4802560447	 0.161191
H	-1.8792267509	 1.6733124131	 1.0307285839	 0.154394
H	-0.0752188166	 3.0167578453	 2.0656406178	 0.135835
H	 0.5001957943	 8.9494125517	-1.0910517074	 0.202526
58.0497	90.2737	145.0094	235.5345	270.2807	423.0458	439.3254	516.605	530.6864	541.8949	573.7752	604.7573	623.1817	692.9439	773.0883	885.5786	905.7081	971.751	1020.222	1107.403	1129.0302	1200.7966	1223.6142	1271.4575	1367.0932	1452.5815	1951.0369	2185.421	2362.9561	3074.7252	3100.4915	3163.3138	3501.806
O=C1CC(O1)C#CC#C	O=C1C[C@@H](O1)C#CC#C	
InChI=1S/C7H4O2/c1-2-3-4-6-5-7(8)9-6/h1,6H,5H2	InChI=1S/C7H4O2/c1-2-3-4-6-5-7(8)9-6/h1,6H,5H2/t6-/m0/s1
