21
gdb 72903	2.62136	1.79175	1.41042	1.7176	80.5	-0.2534	0.0881	0.3415	1013.2206	0.184107	-387.081218	-387.073563	-387.072619	-387.112821	31.547	
C	-0.3743386059	 1.4341981791	 0.1415431428	-0.469157
C	 0.0806150191	-0.0085233826	-0.0437141119	 0.358773
C	-1.045574083	-1.0522050206	 0.2580775759	-0.26471
C	-0.3519624631	-1.4145848265	 1.6005807948	-0.220649
C	 0.9049622275	-0.6138075958	 1.1533403513	-0.081336
C	 2.0063936888	-1.4206258564	 0.5006442376	 0.023284
O	 1.5222395271	-2.4285911857	-0.4042375233	-0.258623
C	 2.0068645895	-1.1976929584	-0.9560427554	 0.051896
C	 0.9109236796	-0.2208596066	-1.3346087547	-0.319488
H	 0.4778606256	 2.123764985	 0.1529737622	 0.109196
H	-1.0435113226	 1.7421132043	-0.6707154247	 0.114644
H	-0.9198074843	 1.5613659854	 1.0832452912	 0.112682
H	-2.0559217037	-0.6391867058	 0.3317053686	 0.085396
H	-1.0509344675	-1.8835691213	-0.4478145224	 0.111806
H	-0.8412197268	-0.9697187397	 2.4705186376	 0.096017
H	-0.196142414	-2.4777369144	 1.7921049764	 0.10711
H	 1.321341846	 0.0933081041	 1.8776216498	 0.060103
H	 2.9007545242	-1.6991019008	 1.0537919974	 0.089206
H	 2.9022465698	-1.2894516426	-1.5675525823	 0.089631
H	 0.2986629026	-0.5931317496	-2.1637378488	 0.109089
H	 1.3698522811	 0.719226679	-1.6667365224	 0.095128
129.4117	214.7691	252.5115	264.6881	327.1833	354.1718	401.2508	467.3619	624.0274	634.6778	687.3887	750.371	800.6162	832.5232	864.0064	882.2781	891.3862	935.827	937.9569	953.4688	984.621	1000.6128	1028.5847	1057.6507	1094.0483	1119.4579	1146.511	1170.2795	1192.4986	1223.6307	1245.938	1255.0245	1268.2904	1276.1468	1282.5751	1318.1873	1339.1835	1351.4956	1411.175	1428.628	1469.0771	1477.2478	1490.1442	1495.8035	1497.972	3017.0174	3026.7721	3054.645	3055.1419	3069.8891	3070.3301	3083.3363	3089.0379	3114.2618	3129.363	3131.1825	3142.2127
CC12CCC1C1OC1C2	C[C@]12CC[C@H]1[C@H]1O[C@H]1C2	
InChI=1S/C8H12O/c1-8-3-2-5(8)7-6(4-8)9-7/h5-7H,2-4H2,1H3	InChI=1S/C8H12O/c1-8-3-2-5(8)7-6(4-8)9-7/h5-7H,2-4H2,1H3/t5-,6-,7+,8+/m0/s1
