16
gdb 60747	3.25912	1.02341	0.9539	4.4977	68.46	-0.2593	-0.0506	0.2087	1268.6671	0.121786	-475.015785	-475.006688	-475.005744	-475.050758	31.673	
O	-0.4179962505	 1.1083064397	 0.2141335053	-0.40773
C	 0.0749828814	-0.1621957346	-0.0352334301	-0.033602
C	 0.9416423543	-0.1798576962	-1.2911382102	 0.137198
O	 1.1930388802	 0.8419706928	-1.8786508968	-0.249989
C	 0.9429800517	-0.7002844535	 1.129032833	 0.31247
O	 1.5294594509	 0.0168853563	 1.896889373	-0.304476
N	 1.0711218371	-2.0922752485	 1.0961888119	-0.093653
C	 0.027516747	-3.0043243148	 1.5601882054	-0.235264
C	 1.3139007748	-2.8463731401	 2.3083815448	-0.216953
H	 0.0706000035	 1.7047841711	-0.3749422541	 0.300561
H	-0.7460656727	-0.8782960281	-0.1992646667	 0.111773
H	 1.3303905218	-1.1651600841	-1.6081924845	 0.117972
H	-0.8648973563	-2.5650237726	 1.9989818921	 0.142716
H	-0.1436510647	-3.8808360936	 0.9421899049	 0.134316
H	 2.0742762023	-3.6177029822	 2.2366733853	 0.134476
H	 1.3006164693	-2.2844314416	 3.2375700069	 0.150187
44.0779	82.2131	106.0225	168.5185	199.578	274.9919	307.6917	323.3394	404.9156	434.9985	599.192	706.251	758.974	785.5958	819.6613	882.2522	925.4212	957.4319	1022.6313	1049.4313	1106.9564	1127.4833	1136.2821	1171.8588	1179.4275	1188.5723	1220.9258	1328.3088	1369.9782	1391.0252	1427.7129	1493.5797	1519.3091	1800.2241	1829.7784	2969.0437	2993.1325	3111.1434	3125.0081	3199.4048	3218.6699	3696.9318
OC(C=O)C(=O)N1CC1	O[C@@H](C=O)C(=O)N1CC1	
InChI=1S/C5H7NO3/c7-3-4(8)5(9)6-1-2-6/h3-4,8H,1-2H2	InChI=1S/C5H7NO3/c7-3-4(8)5(9)6-1-2-6/h3-4,8H,1-2H2/t4-/m0/s1
