17
gdb 62609	3.04374	1.842	1.62103	2.4057	70.43	-0.2403	-0.0072	0.2331	886.4178	0.136306	-417.961761	-417.954404	-417.953459	-417.993005	29.521	
C	-0.117361019	 1.4665718364	 0.0901019158	-0.445585
C	 0.0135856838	-0.0523338909	-0.0055144685	 0.427645
O	-1.2352907555	-0.687963524	 0.0839256053	-0.47086
C	 0.8173955191	-0.4877129424	-1.2217956249	-0.082421
C	 2.0613881539	-0.5909666188	-0.4167013183	-0.046278
C	 1.2275209545	-0.5882914602	 0.8951955369	-0.141336
N	 0.9482833743	-1.9922693124	 1.2075176543	-0.18851
C	 1.0360815786	-2.5793823347	 0.0832813443	 0.052044
N	 1.5218921353	-1.8126126253	-1.0328968332	-0.16825
H	 0.8507264129	 1.9669684012	-0.0025477562	 0.123889
H	-0.7815333738	 1.8402640686	-0.6949316276	 0.129624
H	-0.5486697028	 1.743896577	 1.0590277737	 0.114693
H	-1.5954885377	-0.5458746308	 0.9662979354	 0.283819
H	 0.6532080034	-0.1875833589	-2.249764981	 0.105918
H	 3.0778192922	-0.2725332517	-0.6156148509	 0.10301
H	 1.5180834736	 0.0084918252	 1.7575207135	 0.072529
H	 0.7884729774	-3.6217177484	-0.0842917386	 0.130071
171.7204	195.2411	240.1358	253.8312	345.5641	355.343	472.8064	519.1971	602.7024	613.4696	739.4913	769.8099	828.7354	842.5143	888.4154	892.5188	942.3332	958.8843	964.3251	967.1369	1003.8503	1008.7944	1066.9023	1101.9106	1144.4349	1165.2634	1196.1593	1227.4187	1237.4073	1278.9691	1298.2045	1336.2119	1377.1153	1407.0454	1486.7987	1496.6208	1663.6368	3030.2698	3098.0221	3117.6968	3136.4461	3180.1633	3193.4179	3208.5371	3805.756
CC1(O)C2C3C1N=CN23	C[C@@]1(O)[C@H]2[C@H]3[C@@H]1[N][CH]N23	
InChI=1S/C6H8N2O/c1-6(9)4-3-5(6)8(3)2-7-4/h2-5,9H,1H3	InChI=1S/C6H8N2O/c1-6(9)4-3-5(6)8(3)2-7-4/h2-5,9H,1H3/t3-,4+,5-,6+,8?/m1/s1
