16
gdb 61735	2.67077	0.74487	0.60062	2.0361	79.7	-0.2766	-0.0737	0.2029	1766.3488	0.120758	-437.854421	-437.844227	-437.843283	-437.891741	33.502	
C	-0.2300228149	 1.7502156507	 0.3140317773	-0.395301
C	-0.1374977286	 0.2651589772	-0.0410087898	-0.077024
O	 0.4315978124	 0.1887901698	-1.355035488	-0.17861
C	 0.3089987721	-0.9941768664	-2.0008792547	 0.131448
N	 0.837202744	-1.1412165113	-3.1349617033	-0.431633
C	 0.6563229335	-0.4821823316	 0.934899918	 0.184331
C	 1.3003677266	-1.09424986	 1.7530148916	-0.030995
C	 2.0971717373	-1.8305983947	 2.7035704304	 0.023729
O	 1.8097164662	-1.9681356751	 3.8696170626	-0.223252
H	 0.7666350561	 2.1962573283	 0.3219003693	 0.151062
H	-0.8409647887	 2.2607218705	-0.4335881414	 0.141413
H	-0.6832980326	 1.8736670065	 1.2999307681	 0.141053
H	-1.1498488186	-0.1649194245	-0.0618904134	 0.124844
H	-0.2752161584	-1.7408313759	-1.446476271	 0.095348
H	 0.6399141185	-2.0726725206	-3.4948974739	 0.234242
H	 3.0179099651	-2.2730392827	 2.2735162082	 0.109344
42.5093	50.9834	78.9924	109.9441	123.3449	194.6091	237.8435	241.5962	283.3256	414.8168	471.1577	547.4677	619.7	646.3177	795.918	822.5578	912.7814	998.2606	1020.9091	1040.5797	1071.4758	1113.8203	1121.4793	1173.9095	1285.2196	1328.0559	1353.1396	1405.0727	1420.2272	1428.9021	1481.7492	1494.3641	1750.2667	1770.6942	2325.1013	2929.555	2998.0336	3030.8316	3060.0039	3144.3823	3146.712	3520.0134
CC(OC=N)C#CC=O	C[C@@H](O[CH][NH])C#CC=O	
InChI=1S/C6H7NO2/c1-6(9-5-7)3-2-4-8/h4-7H,1H3	InChI=1S/C6H7NO2/c1-6(9-5-7)3-2-4-8/h4-7H,1H3/t6-/m1/s1
