15
gdb 44940	2.76025	1.87833	1.60608	3.466	63.74	-0.2621	-0.0181	0.244	870.5176	0.115176	-457.807467	-457.801103	-457.800159	-457.838175	25.473	
O	-0.0443289893	 0.004593385	-0.0115728157	-0.335882
C	-0.0117975982	 1.1979530093	-0.0096021383	 0.44214
O	-1.1150599337	 1.9987261311	-0.0173992489	-0.229763
C	-0.6158690946	 3.3514126746	 0.162507543	 0.12739
O	 0.629639481	 3.3516149302	-0.494798937	-0.24107
C	 1.203818674	 2.144898132	 0.0100466431	-0.091199
C	 1.7014581865	 2.3740411141	 1.4490103056	-0.274729
C	 0.6697646029	 3.154924783	 2.2307633382	-0.074355
C	-0.4303962315	 3.620342747	 1.6413073374	-0.047203
H	-1.2974963209	 4.0333551398	-0.3444886928	 0.112296
H	 1.9874299766	 1.8034875074	-0.6655939817	 0.120825
H	 1.9055842348	 1.4104561594	 1.9304899152	 0.1418
H	 2.6526464487	 2.9212219672	 1.425819651	 0.129746
H	 0.8576712471	 3.3239629816	 3.2869807148	 0.110616
H	-1.2042880933	 4.1582716485	 2.1765005562	 0.10939
130.5993	233.8034	299.8772	440.9379	485.3033	493.0222	543.8039	658.755	690.4931	729.8248	802.9276	809.7135	875.7645	900.0322	924.2105	945.1442	979.1032	1000.2256	1017.7468	1071.7633	1081.95	1158.2091	1189.1074	1208.9989	1285.603	1307.805	1342.7119	1354.1703	1385.9653	1403.4334	1461.2751	1706.1933	1901.7862	3028.8197	3068.8098	3128.7163	3134.7502	3171.3661	3203.7249
O=C1OC2OC1CC=C2	O=C1O[C@@H]2O[C@H]1CC=C2	
InChI=1S/C6H6O3/c7-6-4-2-1-3-5(8-4)9-6/h1,3-5H,2H2	InChI=1S/C6H6O3/c7-6-4-2-1-3-5(8-4)9-6/h1,3-5H,2H2/t4-,5-/m0/s1
