21
gdb 64186	2.15923	1.50564	1.33817	3.5924	78.5	-0.2369	-0.026	0.2109	1121.3145	0.178896	-424.223996	-424.213957	-424.213012	-424.258503	37.259	
C	-0.2041048247	 1.5160041774	-0.0041977401	-0.447499
C	-0.0227930062	-0.0016895811	-0.0191039172	 0.221036
C	-1.3343725895	-0.6990399897	-0.3758001803	-0.474981
C	 1.2339850047	-0.4388181889	-0.8126512658	-0.106019
O	 1.9900329525	-0.6452945399	 0.3963543548	-0.303744
C	 0.8120100916	-0.5614068043	 1.2115751801	 0.289915
C	 1.017691538	 0.2934294518	 2.4549937154	-0.465584
C	 0.331489654	-1.9469526532	 1.633874718	 0.119932
O	 0.7775874355	-2.9839700758	 1.2213626465	-0.249613
H	 0.7405178461	 2.0390172091	 0.1667071725	 0.12907
H	-0.5956020984	 1.848873165	-0.9720720021	 0.119234
H	-0.9159319974	 1.8316834833	 0.7660336252	 0.117638
H	-1.6800544357	-0.3638133177	-1.3599966029	 0.120381
H	-1.2266557999	-1.7862434841	-0.4163934166	 0.138648
H	-2.1250264539	-0.459666417	 0.3443379595	 0.118315
H	 1.1116130017	-1.3724054038	-1.375689713	 0.109411
H	 1.6921638734	 0.31979493	-1.4574209322	 0.100546
H	 1.337525495	 1.3023231901	 2.1924557093	 0.132341
H	 0.0978244967	 0.3593328521	 3.0454825696	 0.122111
H	 1.7943240317	-0.154110335	 3.0844676904	 0.139665
H	-0.5033965152	-1.9277614982	 2.3748931189	 0.069196
73.0894	87.1197	175.2917	216.0305	242.4326	253.8312	277.6965	283.2436	325.0777	348.9356	369.1319	409.8962	451.6564	605.4255	617.5091	758.2079	849.6637	867.0807	904.3775	934.3574	963.7369	978.1233	1000.9606	1032.2725	1039.5053	1138.0055	1151.843	1177.8169	1208.3333	1212.248	1267.6766	1278.132	1353.6296	1397.3785	1407.9074	1417.6136	1428.3914	1476.1792	1484.4314	1490.0495	1498.9468	1505.5247	1514.9326	1527.3586	1835.9078	2842.5127	3017.0945	3028.1567	3033.4017	3040.8169	3067.1078	3089.1275	3095.039	3104.6578	3113.9429	3115.2536	3142.3248
CC1(C)COC1(C)C=O	CC1(C)CO[C@]1(C)C=O	
InChI=1S/C7H12O2/c1-6(2)5-9-7(6,3)4-8/h4H,5H2,1-3H3	InChI=1S/C7H12O2/c1-6(2)5-9-7(6,3)4-8/h4H,5H2,1-3H3/t7-/m1/s1
