21
gdb 34655	3.06166	1.13601	0.89842	1.021	94.31	-0.2202	-0.016	0.2043	1342.7478	0.183584	-349.946315	-349.93751	-349.936566	-349.979623	34.497	
C	 0.0256069051	-1.2388564251	-0.1800322977	-0.441419
C	-0.0242715127	-0.0372540254	-0.0919786053	 0.240417
C	-0.0241091361	 1.3832198153	 0.0163297207	 0.13752
C	-1.184791406	 2.0617807602	 0.0082599146	-0.129599
C	-1.3229940332	 3.5582063124	 0.1169996963	-0.250357
C	-0.7282994605	 4.1752327373	 1.4001917355	-0.17796
C	 0.8044274405	 4.2373660357	 1.4318444882	-0.179392
C	 1.5339098109	 2.8868565975	 1.4177392959	-0.179649
C	 1.3383503592	 2.0559107293	 0.1357647702	-0.297003
H	 0.0509853526	-2.2971308474	-0.2593500094	 0.191223
H	-2.103089367	 1.4886058795	-0.0831386166	 0.09245
H	-0.8500454451	 4.0400063135	-0.7526688542	 0.10853
H	-2.385212602	 3.815353418	 0.0603617822	 0.099534
H	-1.1153801931	 5.1967428532	 1.4990442415	 0.092331
H	-1.0972719724	 3.6177030922	 2.2702901072	 0.098426
H	 1.1509029922	 4.8335885076	 0.5751135784	 0.090459
H	 1.1124449586	 4.7908238034	 2.3274112623	 0.092518
H	 2.607128877	 3.0785606253	 1.5372399255	 0.093003
H	 1.2282290164	 2.2873381488	 2.284420445	 0.100552
H	 2.1094607378	 1.2833027493	 0.0873703075	 0.110184
H	 1.4974832978	 2.7042614194	-0.7379981079	 0.108234
72.601	138.5283	177.6283	213.6825	298.1096	319.7055	342.1728	414.2465	469.6043	530.583	560.3959	572.0138	614.0478	629.6364	722.2934	790.2235	830.1798	861.9593	878.8251	905.1735	961.3669	979.8461	1022.7126	1070.9102	1089.3844	1105.571	1131.6822	1183.03	1240.4534	1247.0383	1287.4947	1304.0575	1343.3642	1358.7927	1370.1198	1386.7225	1393.5409	1394.8525	1476.9157	1478.887	1481.6584	1487.9113	1495.2269	1686.1781	2212.7984	2989.9819	3002.4658	3007.7066	3019.4105	3021.4045	3050.233	3059.3936	3065.2876	3071.7469	3093.4536	3166.7644	3504.1692
C#CC1=CCCCCC1	C#CC1=CCCCCC1	
InChI=1S/C9H12/c1-2-9-7-5-3-4-6-8-9/h1,7H,3-6,8H2	InChI=1S/C9H12/c1-2-9-7-5-3-4-6-8-9/h1,7H,3-6,8H2
