21
gdb 77557	2.28883	1.43945	1.30621	2.6287	78.36	-0.2341	0.0657	0.2998	1128.012	0.17999	-424.196664	-424.186991	-424.186047	-424.230086	37.761	
C	-0.0837856212	 1.5767299158	-0.0608697067	-0.441088
C	-0.0004928887	 0.0520850629	-0.055005929	 0.291775
C	-1.3692922896	-0.5696519295	 0.2284941532	-0.441586
C	 0.6865155888	-0.6257525352	-1.2539246652	-0.180661
C	 2.1410813271	-0.2212237087	-1.3573667666	-0.332086
C	 1.760713217	-1.2281155303	-0.3291903928	 0.418501
O	 2.3871182015	-2.4608520517	-0.3303787862	-0.462115
C	 1.1229606258	-0.5706292392	 0.884086862	-0.026225
O	 1.9894504066	 0.2887074713	 1.590316885	-0.425442
H	 0.8909963127	 2.0419057236	-0.2193698472	 0.126654
H	-0.7601426912	 1.9220600893	-0.8506741685	 0.112298
H	-0.4755839445	 1.9510814657	 0.8929016533	 0.098732
H	-2.0970323307	-0.2863148581	-0.5404008489	 0.115172
H	-1.3151510456	-1.6640141487	 0.2420726134	 0.104491
H	-1.7625203885	-0.2394166936	 1.1972330321	 0.106409
H	 0.164112814	-1.0857885406	-2.0852182523	 0.08232
H	 2.6628466661	-0.6590459311	-2.2024040871	 0.117894
H	 2.4853615579	 0.7696344688	-1.0785881374	 0.120376
H	 1.7846097648	-3.1069829287	 0.0541042832	 0.280577
H	 0.6790442709	-1.3209576307	 1.5572495503	 0.051127
H	 1.508789017	 0.6588688489	 2.3377220054	 0.282875
107.6515	202.9059	215.0198	233.022	240.7259	253.3508	271.9253	314.2435	336.722	342.5749	396.565	472.3348	497.9036	569.0473	595.181	725.7366	782.4431	840.4848	877.1377	934.1196	951.9544	967.5388	981.8009	999.759	1018.9554	1043.3369	1089.8121	1127.3531	1150.6968	1185.8795	1202.4552	1220.983	1246.7899	1267.5521	1316.8998	1338.2205	1399.3741	1407.9648	1427.3252	1441.204	1481.4971	1486.3505	1501.9317	1505.372	1510.987	2972.8017	3018.014	3026.9408	3081.689	3086.8735	3088.509	3124.9255	3129.1198	3175.2362	3212.431	3795.2576	3813.3784
CC1(C)C2CC2(O)C1O	CC1(C)[C@H]2C[C@@]2(O)[C@H]1O	
InChI=1S/C7H12O2/c1-6(2)4-3-7(4,9)5(6)8/h4-5,8-9H,3H2,1-2H3	InChI=1S/C7H12O2/c1-6(2)4-3-7(4,9)5(6)8/h4-5,8-9H,3H2,1-2H3/t4-,5+,7+/m1/s1
