18
gdb 23587	3.4338	1.40612	1.33959	1.2211	78.39	-0.2298	0.02	0.2498	1016.9552	0.150651	-401.91832	-401.911439	-401.910495	-401.949417	28.576	
O	-0.1254827073	 1.3432850841	 0.0099789824	-0.400049
N	 0.0270308021	-0.0627764254	 0.0045880666	-0.311466
C	-1.096877299	-0.6515914252	 0.0109608129	 0.495004
C	-1.3052870561	-2.1224878078	 0.0079872751	-0.138526
C	-2.6130893321	-2.3365473619	 0.7705445522	-0.063725
C	-3.0911511859	-0.9577442316	 1.2289627826	-0.225474
C	-2.534736472	-0.1508811373	 0.0229358554	-0.153357
C	-3.1086675262	-0.9504114944	-1.1797632595	-0.225474
C	-2.6240578758	-2.3319598597	-0.7367462771	-0.063725
H	 0.7903600447	 1.6401835067	 0.0042194591	 0.303506
H	-0.495916751	-2.8372443744	-0.0000804998	 0.096944
H	-2.7803877064	-3.2380047186	 1.3449456021	 0.089276
H	-4.1811741985	-0.8895271176	 1.3083699094	 0.097985
H	-2.646413247	-0.6462597087	 2.1787591652	 0.108681
H	-2.6762934308	 0.9249780958	 0.0272389643	 0.094459
H	-4.1997267509	-0.8817542745	-1.242895515	 0.097985
H	-2.6777740512	-0.6331353544	-2.1340139715	 0.108681
H	-2.7997393166	-3.229910425	-1.3141294745	 0.089276
119.5731	215.0375	297.8959	392.8278	410.0368	459.9293	465.0332	670.0141	670.32	723.2383	723.7597	804.5965	836.944	855.5481	902.6542	904.7682	932.4655	935.5285	951.1579	969.8547	991.7317	1029.8376	1067.5767	1069.6117	1077.2292	1147.1856	1151.4697	1197.1448	1209.536	1253.1231	1277.8406	1289.263	1304.963	1324.1631	1378.4069	1415.2285	1486.0102	1504.06	1784.3192	3044.6548	3048.918	3094.8479	3097.2512	3179.8668	3198.7707	3207.0747	3233.505	3823.2505
ON=C1C2C3CC1CC23	ON=C1[C@H]2[C@H]3C[C@@H]1C[C@@H]23	
InChI=1S/C7H9NO/c9-8-7-3-1-4-5(2-3)6(4)7/h3-6,9H,1-2H2	InChI=1S/C7H9NO/c9-8-7-3-1-4-5(2-3)6(4)7/h3-6,9H,1-2H2/t3-,4+,5-,6+
