20
gdb 26348	2.45363	1.3789	0.97717	1.7852	81.13	-0.1937	0.033	0.2267	1256.6625	0.171247	-403.178013	-403.168719	-403.167775	-403.211797	35.379	
C	 0.1078593416	 1.2196418098	-0.4878167529	-0.384324
C	 0.0609707814	-0.1717610756	 0.1757524075	-0.096467
C	 0.6560251494	-0.1269416176	 1.5894282371	-0.393657
C	-1.3365381002	-0.7327975516	 0.1594353919	 0.225258
C	-2.1898774917	-0.9263601239	 1.2026046226	-0.1087
O	-3.3793910522	-1.4238079959	 0.7882286562	-0.156043
C	-3.2926166898	-1.5700431123	-0.5693233792	-0.078087
C	-2.0706563739	-1.1613129561	-1.0100937266	 0.098341
N	-1.598854351	-1.0731927057	-2.3313286896	-0.606426
H	 1.1379977249	 1.587623277	-0.5456726901	 0.103887
H	-0.3070881115	 1.1883580913	-1.4986364347	 0.133952
H	-0.479146546	 1.9381060287	 0.094219146	 0.116549
H	 0.6974614507	-0.8405918684	-0.4253469002	 0.067273
H	 0.0859841438	 0.5533012503	 2.232419651	 0.117627
H	 0.6538162091	-1.1161027675	 2.0572493131	 0.116166
H	 1.6880518702	 0.2359919201	 1.5614239559	 0.110149
H	-2.0955505559	-0.7676764195	 2.2639204617	 0.128829
H	-4.1671937412	-1.9599793735	-1.0623102652	 0.119206
H	-2.1525015126	-1.6192829672	-2.9793342987	 0.242327
H	-0.6291074851	-1.3544585424	-2.413751476	 0.244142
68.1701	151.9205	175.223	226.5054	245.9064	272.6326	292.266	295.0243	368.9124	448.6142	508.0495	597.9206	607.5172	660.1898	698.8213	722.5965	771.9813	792.9391	879.2262	899.5603	932.5751	969.8239	1079.8022	1094.3008	1102.414	1122.068	1156.2054	1209.7368	1220.5658	1265.1077	1329.0321	1334.8813	1364.2854	1397.3463	1418.9836	1434.6505	1489.073	1492.8086	1503.3065	1515.1772	1584.2574	1645.5219	1677.3005	2968.8973	3029.5257	3033.3342	3095.5148	3100.9697	3108.3255	3118.9804	3273.2782	3278.7102	3524.3247	3613.6095
CC(C)C1=COC=C1N	CC(C)c1cocc1N	
InChI=1S/C7H11NO/c1-5(2)6-3-9-4-7(6)8/h3-5H,8H2,1-2H3	InChI=1S/C7H11NO/c1-5(2)6-3-9-4-7(6)8/h3-5H,8H2,1-2H3
