16
gdb 57749	3.13386	0.73671	0.62259	5.4966	84.	-0.2944	-0.1043	0.1901	1755.4037	0.121504	-400.74492	-400.734867	-400.733923	-400.782257	33.999	
C	-0.0601419266	 1.5816758847	 0.0605114655	-0.380943
C	-0.0368558182	 0.0405760231	 0.0248863863	-0.14531
C	 0.7805932309	-0.5516448561	 1.1937208619	-0.381995
C	-1.386337024	-0.5114153675	 0.0124668421	 0.103481
C	-2.5039875281	-0.9720973643	 0.0148908834	 0.03099
C	-3.8282614177	-1.5137293342	 0.0125749224	 0.192606
O	-4.1070026913	-2.6913068031	-0.0113553264	-0.251835
C	-4.8946084978	-0.4917527783	 0.0439891674	 0.223438
N	-5.7346085971	 0.3024911217	 0.0687064649	-0.319499
H	 0.9621550226	 1.9681862741	 0.016796779	 0.125839
H	-0.6213848724	 1.9892726351	-0.7837775311	 0.135947
H	-0.5240736859	 1.9396974924	 0.9841423761	 0.135754
H	 0.4405249455	-0.2759486744	-0.9134574456	 0.129943
H	 0.3412454405	-0.2682203939	 2.1543893111	 0.135913
H	 0.8152340557	-1.6422985243	 1.1403071026	 0.13819
H	 1.803925384	-0.1674815449	 1.1567205405	 0.127481
12.5023	59.74	96.2704	155.1556	223.0417	226.8402	239.1147	269.8	310.034	353.6073	477.6883	514.8155	573.1059	593.9435	682.4052	772.9513	833.3534	933.8333	945.1213	967.3566	1102.9044	1116.7506	1172.9044	1231.8487	1306.5783	1343.4264	1399.3426	1422.2786	1485.8502	1489.0163	1499.3129	1510.163	1743.405	2326.0929	2339.6269	3010.7392	3044.8551	3047.5663	3118.9656	3123.5702	3127.8958	3130.4824
CC(C)C#CC(=O)C#N	CC(C)C#CC(=O)C#N	
InChI=1S/C7H7NO/c1-6(2)3-4-7(9)5-8/h6H,1-2H3	InChI=1S/C7H7NO/c1-6(2)3-4-7(9)5-8/h6H,1-2H3
