16
gdb 11819	3.96809	1.6743	1.30935	4.8554	68.17	-0.2394	0.025	0.2643	946.9506	0.130842	-379.907657	-379.899799	-379.898855	-379.940082	27.956	
C	-0.0345839977	 1.4149401419	 0.1019654794	-0.342184
N	-0.0106600299	-0.0208386959	 0.0366796566	-0.094791
C	-1.0811496014	-1.0212313768	 0.0542844714	-0.254532
C	 0.0415769793	-2.0800242268	 0.0371394867	 0.179343
C	 0.1239160301	-3.3817875806	 0.7330943148	-0.295144
N	 0.1465750679	-3.3059296158	-0.7395759158	-0.34699
C	 1.0372492261	-0.9187200517	 0.0073753837	 0.388516
O	 2.2299693393	-0.77000319	-0.0057518222	-0.375156
H	 1.0017481616	 1.7613247729	 0.0876997505	 0.163868
H	-0.5640878421	 1.8502072608	-0.7545056598	 0.128904
H	-0.5135124356	 1.7713664184	 1.0228048732	 0.127352
H	-1.7043200746	-0.9981544932	 0.9565495838	 0.112884
H	-1.7225140442	-1.0046353528	-0.8362140559	 0.111149
H	 1.0637612542	-3.684330762	 1.1854814997	 0.142059
H	-0.7705784979	-3.7486505273	 1.2305365719	 0.117728
H	-0.7631216152	-3.5558401911	-1.121114758	 0.236995
86.3712	134.7207	163.4743	217.7784	240.6163	254.0395	366.5777	509.0344	548.6843	722.2887	784.468	808.1288	862.0019	931.7797	945.6274	980.2149	999.5829	1041.4457	1094.7359	1124.0316	1132.2044	1169.0536	1223.4775	1245.3068	1264.0521	1298.4695	1413.0957	1432.1431	1448.7239	1481.7908	1509.3075	1512.4378	1531.0832	1885.7602	3009.3795	3014.5322	3055.4811	3061.834	3108.4751	3127.5468	3199.2291	3494.125
CN1CC2(CN2)C1=O	CN1C[C@]2(CN2)C1=O	
InChI=1S/C5H8N2O/c1-7-3-5(2-6-5)4(7)8/h6H,2-3H2,1H3	InChI=1S/C5H8N2O/c1-7-3-5(2-6-5)4(7)8/h6H,2-3H2,1H3/t5-/m1/s1
