16
gdb 10436	3.15094	1.71817	1.37995	1.5957	60.8	-0.2632	-0.0478	0.2154	917.0839	0.129366	-420.853038	-420.84497	-420.844026	-420.886211	28.407	
O	 0.139687519	 1.304370007	-0.2674117071	-0.42613
C	 0.0512205567	-0.0761591743	 0.0120151569	-0.14059
C	-1.3996162155	-0.5520703305	 0.1011637106	 0.151809
C	-2.1791634017	-0.5212890891	-1.2472392525	-0.10981
O	-2.2167983216	-1.9581630705	-1.3208622239	-0.263747
C	-1.6125768536	-2.0840958936	-0.0229739545	-0.126639
C	-2.1451530579	 0.1066126052	 1.2311748041	 0.112827
O	-1.7196613748	 1.0259475448	 1.8908478051	-0.268422
H	-0.2196228221	 1.7528151319	 0.508719553	 0.298403
H	 0.5517504844	-0.5995082224	-0.8097268325	 0.115565
H	 0.5768541513	-0.3413953744	 0.942707411	 0.099572
H	-3.1863660796	-0.0866628754	-1.2041849117	 0.107363
H	-1.6230166284	-0.0609338251	-2.0701818441	 0.133097
H	-0.6893220446	-2.6757254783	-0.043527532	 0.115451
H	-2.300477573	-2.5228740932	 0.7125282445	 0.105165
H	-3.1614535287	-0.3046133821	 1.4257248333	 0.096086
56.935	99.31	130.044	208.8865	279.2767	326.2076	355.5869	468.2462	486.4425	554.7956	782.2319	844.9703	905.1921	915.8527	937.1078	986.4253	1017.8797	1050.5525	1086.3655	1113.2486	1145.8839	1153.2428	1164.2223	1248.003	1305.5676	1326.0102	1370.5844	1385.2609	1428.0252	1440.6328	1498.4318	1510.3818	1534.433	1804.496	2881.939	2985.2652	3002.0197	3015.7208	3053.4137	3070.6563	3078.7137	3776.6825
OCC1(COC1)C=O	OCC1(COC1)C=O	
InChI=1S/C5H8O3/c6-1-5(2-7)3-8-4-5/h1,7H,2-4H2	InChI=1S/C5H8O3/c6-1-5(2-7)3-8-4-5/h1,7H,2-4H2
