16
gdb 9242	5.87388	0.81721	0.73836	1.6971	84.06	-0.2432	-0.0192	0.224	1504.1596	0.126802	-346.536764	-346.527328	-346.526384	-346.571368	32.905	
C	 0.0300333763	 1.4085425137	 0.0495968659	-0.232047
O	-0.0780087826	 0.003785878	-0.0279983648	-0.240849
C	 0.6208051451	-0.5716878148	-1.1259472458	-0.087699
C	 2.1253625962	-0.7202125199	-0.8407666868	-0.392777
C	 0.0103139291	-1.8674819768	-1.4172568112	 0.421484
C	-0.4666490087	-2.9458439395	-1.6867917593	-0.231885
C	-1.0052005043	-4.1606220716	-1.9799346349	 0.294201
C	-1.4821047774	-5.2380318373	-2.2438792796	-0.564596
H	 1.0568522206	 1.746096122	 0.2518717441	 0.108585
H	-0.3186007786	 1.8938960738	-0.8752685025	 0.108506
H	-0.6082069876	 1.727730505	 0.8766012721	 0.134613
H	 0.4910357786	 0.072188734	-2.0135072468	 0.099175
H	 2.5794884901	 0.2584059768	-0.6632221358	 0.120804
H	 2.2750413986	-1.3467155081	 0.0416256709	 0.139399
H	 2.6300537323	-1.1831518727	-1.6929537034	 0.131094
H	-1.9021478877	-6.1862660828	-2.4708489722	 0.191995
55.5649	81.1807	108.5961	195.4263	228.5654	237.3136	256.0692	362.3555	377.9839	479.2916	499.3295	539.3757	552.5199	595.007	609.2432	743.1969	853.9996	997.0379	1060.6547	1097.7119	1133.7773	1179.8046	1191.8122	1216.5764	1340.0393	1369.4287	1398.4296	1475.2242	1482.3792	1489.8629	1498.8865	1510.2813	2183.2722	2366.7551	2948.4456	2979.2518	3028.9457	3050.081	3119.4413	3124.2775	3137.1065	3505.3339
COC(C)C#CC#C	CO[C@@H](C)C#CC#C	
InChI=1S/C7H8O/c1-4-5-6-7(2)8-3/h1,7H,2-3H3	InChI=1S/C7H8O/c1-4-5-6-7(2)8-3/h1,7H,2-3H3/t7-/m0/s1
