13
gdb 129918	3.39543	1.69019	1.1301	5.3043	68.37	-0.2051	-0.0379	0.1672	972.4026	0.09083	-448.898876	-448.891474	-448.89053	-448.930646	27.536	
N	 0.0169498785	 1.4468059505	 0.1703034145	-0.611728
C	 0.0250898957	 0.0492298245	 0.0459860045	 0.082994
C	-1.0626797769	-0.8158816155	 0.0096283149	-0.115901
N	-0.648201128	-2.1443533356	-0.0242534503	-0.396131
C	 0.7155471759	-2.1173304988	-0.0172132382	 0.324116
C	 1.153350854	-0.8110205783	 0.0296920552	 0.347224
O	 2.4845363684	-0.8141138398	 0.0292377015	-0.268537
N	 2.848788496	-2.2566305305	-0.0228857863	-0.048865
N	 1.7874464513	-2.9412417023	-0.046988269	-0.219259
H	 0.797893972	 1.879544107	-0.3063523721	 0.255455
H	-0.8443604085	 1.8643783238	-0.1575509014	 0.246095
H	-2.1143976883	-0.5758994607	 0.0147440326	 0.125949
H	-1.2478202698	-2.9481247942	-0.0525050758	 0.278586
140.1144	158.928	197.908	263.4264	267.5314	435.3234	477.0831	570.4989	596.0492	622.9737	634.0824	696.5394	714.7858	748.2837	769.1831	830.8758	986.7801	1075.5031	1102.3043	1180.6075	1275.7207	1324.201	1367.99	1401.3122	1492.2289	1524.8878	1591.6769	1631.9064	1659.8202	3257.7819	3537.5068	3627.6892	3708.0557
NC1=CNC2=C1ON=N2	Nc1c[nH]c2c1onn2	
InChI=1S/C4H4N4O/c5-2-1-6-4-3(2)9-8-7-4/h1,6H,5H2	InChI=1S/C4H4N4O/c5-2-1-6-4-3(2)9-8-7-4/h1,6H,5H2
