21
gdb 89815	2.85531	1.23965	1.0068	1.4593	86.97	-0.2237	0.0203	0.2439	1268.7604	0.182298	-387.096369	-387.087307	-387.086363	-387.130092	35.095	
C	-0.2154697542	 1.5361796382	 0.109587228	-0.492381
C	-0.1439319362	 0.0434703795	 0.0573764432	 0.27074
C	-0.2252650863	-0.7560110673	-1.0114617348	-0.242995
C	-0.0851625795	-2.1950475136	-0.671683849	 0.354065
C	-0.736908858	-3.2805525608	-1.4961981485	-0.313777
C	 0.7600284427	-3.1213317061	-1.5275529703	-0.314704
C	-0.0702668785	-2.2361843083	 0.8617891974	-0.340755
C	 0.152662173	-0.7670822997	 1.308041238	 0.036913
O	 1.4698631892	-0.4978993164	 1.7991176284	-0.435508
H	 0.6762424552	 1.9449622566	 0.5985114787	 0.135149
H	-0.3004116659	 1.9771976446	-0.8873692073	 0.117934
H	-1.0764172948	 1.8704690142	 0.7031882026	 0.12482
H	-0.3696493777	-0.4170661802	-2.033542633	 0.089467
H	-1.1500400274	-4.1328261588	-0.9659102925	 0.111832
H	-1.3030818547	-2.9863954223	-2.3741844519	 0.110515
H	 1.2154677389	-2.7176628736	-2.4261446587	 0.110074
H	 1.3643196289	-3.8638175332	-1.016172759	 0.113169
H	-1.0355319837	-2.5940128173	 1.235831138	 0.105124
H	 0.7054405991	-2.8841438785	 1.2791545149	 0.103901
H	-0.4966699361	-0.4984293166	 2.1483815607	 0.081284
H	 2.076286326	-0.6222461603	 1.059835795	 0.275131
56.2203	132.8431	176.8152	225.5531	247.5566	300.8593	333.765	352.297	411.258	461.0433	495.6457	595.6637	634.4329	778.549	791.2064	844.0495	856.396	869.9115	932.7307	937.1472	950.3046	983.5468	1005.3608	1035.7999	1054.8367	1058.5932	1068.2575	1079.1658	1161.5071	1185.547	1192.1487	1236.7988	1268.2867	1295.0182	1311.9908	1334.558	1384.7943	1407.2137	1429.2988	1464.5576	1475.9987	1481.7859	1492.405	1498.3264	1713.0373	3019.1088	3039.7884	3055.5276	3071.1231	3096.0881	3110.8266	3121.2196	3125.1761	3169.2034	3200.0892	3215.8503	3792.3983
CC1=CC2(CC2)CC1O	CC1=CC2(CC2)C[C@H]1O	
InChI=1S/C8H12O/c1-6-4-8(2-3-8)5-7(6)9/h4,7,9H,2-3,5H2,1H3	InChI=1S/C8H12O/c1-6-4-8(2-3-8)5-7(6)9/h4,7,9H,2-3,5H2,1H3/t7-/m1/s1
