17
gdb 24109	6.36776	0.74957	0.71085	2.2625	80.06	-0.2174	0.0144	0.2318	1536.2577	0.137761	-380.918889	-380.910603	-380.909658	-380.953015	30.093	
N	-0.0214423734	-1.1528563366	-0.0033059539	-0.296724
C	-0.0357767273	 0.0025240545	 0.0033914505	 0.257172
C	-0.0125497742	 1.4619571698	 0.0114204498	-0.330967
C	 1.4340479897	 2.0161924297	-0.0023431496	-0.18226
N	 1.4583114991	 3.4599822456	 0.0056955775	 0.039083
C	 1.3931020429	 4.2655321191	-1.1089791742	-0.105989
C	 1.3249973492	 5.5731298349	-0.6920433701	-0.162896
C	 1.3423855059	 5.5649162841	 0.7308297358	-0.162905
C	 1.4204194352	 4.252600155	 1.1308547686	-0.105976
H	-0.5580705704	 1.837331161	-0.8604891205	 0.165262
H	-0.5374292707	 1.8273245421	 0.9000929869	 0.165271
H	 1.9775577022	 1.6448422834	 0.8702992071	 0.143593
H	 1.9569305491	 1.6549485887	-0.8916759727	 0.143591
H	 1.4125064774	 3.8335509649	-2.0974778087	 0.117392
H	 1.2847827412	 6.439205974	-1.3344784485	 0.099477
H	 1.3179949688	 6.4235118999	 1.3840111594	 0.099478
H	 1.4638295552	 3.8092283698	 2.1135298426	 0.117399
59.4309	68.387	83.8759	174.9518	344.5431	346.542	403.6276	501.4501	623.0576	633.4561	680.3698	738.8642	742.9629	774.9113	803.9984	857.381	883.7581	956.6464	987.9357	1013.7181	1042.2895	1082.0947	1099.9113	1115.2144	1189.4783	1289.658	1302.5192	1313.7785	1320.9247	1398.2329	1424.7799	1431.7823	1466.6871	1490.1355	1532.1987	1566.1269	2363.5239	3055.8048	3069.9458	3094.9198	3121.9437	3240.1512	3248.6326	3259.8299	3269.7384
N#CCCN1C=CC=C1	N#CCCn1cccc1	
InChI=1S/C7H8N2/c8-4-3-7-9-5-1-2-6-9/h1-2,5-6H,3,7H2	InChI=1S/C7H8N2/c8-4-3-7-9-5-1-2-6-9/h1-2,5-6H,3,7H2
