18
gdb 114931	4.2708	0.89748	0.81873	5.3499	81.65	-0.261	-0.0392	0.2218	1415.7463	0.147692	-401.971321	-401.962544	-401.961599	-402.005433	31.801	
C	-0.069687723	 1.4133988014	 0.1427701394	-0.240825
O	 0.1626893951	 0.0363067368	-0.0475061073	-0.243335
C	 0.731959664	-0.617889999	 1.0721061622	 0.117369
C	-0.3350195586	-0.952815926	 2.155231455	-0.278425
C	-0.6739155317	-2.3935672549	 1.8954820363	-0.145761
C	 0.1868085066	-2.9618383667	 1.0410569288	 0.216181
C	 1.2528463014	-1.9870515396	 0.5784706302	-0.334142
C	 0.1575978976	-4.3185093284	 0.6191916317	 0.193997
N	 0.1628929005	-5.4194785862	 0.2583258436	-0.336167
H	 0.8590037437	 1.9481369034	 0.3967084786	 0.107803
H	-0.45825494	 1.8061065934	-0.7996168941	 0.13439
H	-0.8076846655	 1.6146948343	 0.933728796	 0.106097
H	 1.5424693262	 0.0004943121	 1.482680513	 0.069252
H	 0.0622490217	-0.8261841084	 3.1716383654	 0.121505
H	-1.2065406242	-0.2941021574	 2.0780303601	 0.124785
H	-1.5055527116	-2.9060944897	 2.3638367937	 0.121326
H	 1.3757080373	-1.969958409	-0.5075475262	 0.141674
H	 2.2253582006	-2.2378188759	 1.0173647836	 0.124275
50.4464	112.5485	154.6788	168.1846	207.3679	290.4558	361.892	372.8338	438.0696	561.0981	565.393	572.8882	768.085	798.3698	859.4272	885.2207	904.3125	951.8198	985.2064	1045.4071	1054.9336	1133.9542	1153.7039	1183.6364	1187.4258	1196.2677	1247.1554	1263.8122	1287.5954	1322.79	1350.48	1391.3195	1458.1853	1472.1158	1479.9972	1491.1763	1510.4006	1678.9507	2337.9738	2975.3409	2998.8026	3021.1765	3024.4417	3047.1221	3072.8626	3102.9432	3118.9973	3211.8615
COC1CC=C(C1)C#N	CO[C@H]1CC=C(C1)C#N	
InChI=1S/C7H9NO/c1-9-7-3-2-6(4-7)5-8/h2,7H,3-4H2,1H3	InChI=1S/C7H9NO/c1-9-7-3-2-6(4-7)5-8/h2,7H,3-4H2,1H3/t7-/m0/s1
