18
gdb 45745	3.00115	1.3778	0.99842	3.2235	78.72	-0.2305	-0.0041	0.2264	1177.2894	0.149395	-398.136191	-398.128008	-398.127064	-398.169664	30.746	
N	-0.2676178173	 1.2548138488	-0.00597354	-0.535709
C	-0.0703238832	 0.000950915	 0.009192839	 0.37112
N	 1.1188475324	-0.7288198439	-0.0366816458	-0.343842
C	 0.813332482	-2.0843359806	-0.0027604305	 0.052877
N	-0.425142452	-2.3788374635	 0.052058673	-0.243563
C	-1.1508249239	-1.0894717145	 0.0791604188	-0.073041
C	-2.0418077196	-0.9728029779	 1.2964889338	 0.052939
C	-3.2256454565	-0.0432460289	 1.269129382	-0.253127
C	-3.437709615	-1.5367863323	 1.2594998838	-0.27543
H	 0.6071753738	 1.7800721635	-0.0566391181	 0.204778
H	 2.0437673325	-0.3333456328	-0.0562839353	 0.256341
H	 1.6185558109	-2.8123399864	-0.0280899104	 0.133237
H	-1.7770072956	-1.0246234176	-0.8197441289	 0.111312
H	-1.5060774014	-1.0570879921	 2.2376028778	 0.081923
H	-3.4584325977	 0.508684448	 2.1724536975	 0.110915
H	-3.4091302724	 0.5102235236	 0.3553316207	 0.123235
H	-3.7693061334	-2.0020783778	 0.3372768331	 0.115143
H	-3.8186925436	-2.0127771906	 2.1559142797	 0.110892
59.1009	78.5474	155.2526	221.398	297.3814	352.778	390.01	489.2634	555.0786	644.2282	679.8855	764.5172	824.0602	853.5378	871.5142	879.2586	903.8952	932.8607	947.8337	990.6998	1031.418	1059.4486	1073.1899	1080.0421	1089.8362	1129.4446	1180.1808	1192.2521	1228.7297	1249.7102	1278.4325	1298.248	1352.3377	1408.2198	1414.282	1472.764	1507.716	1683.0837	1759.9016	3030.2354	3134.7681	3142.3833	3149.0289	3187.1837	3213.6012	3229.7937	3449.862	3659.8458
N=C1NC=NC1C1CC1	[NH][C]1NC=N[C@H]1C1CC1	
InChI=1S/C6H9N3/c7-6-5(4-1-2-4)8-3-9-6/h3-5H,1-2H2,(H2,7,8,9)	InChI=1S/C6H9N3/c7-6-5(4-1-2-4)8-3-9-6/h3-5H,1-2H2,(H2,7,8,9)/t5-/m0/s1
