13
gdb 9139	4.61095	0.84964	0.74837	2.5524	63.46	-0.2851	-0.0165	0.2686	1418.6226	0.093374	-398.554942	-398.545953	-398.545009	-398.590531	29.852	
O	 0.4375768881	 0.740191721	-0.8584965788	-0.393914
C	 0.0265143604	 0.094314641	 0.333491138	-0.199477
C	-1.3549297796	-0.3898977664	 0.29163177	 0.077814
C	-2.504733248	-0.744053788	 0.2422667897	 0.059887
C	-3.8865036069	-1.2257320272	 0.1714353507	-0.175878
O	-4.042106069	-2.4024024441	-0.5981933206	-0.381851
C	-4.4331540667	-1.4023771468	 1.541157661	 0.279398
N	-4.8651238444	-1.5617092086	 2.6003349467	-0.314743
H	-0.1698095171	 1.4689561908	-1.024118361	 0.292582
H	 0.7093150769	-0.7514715128	 0.4685293399	 0.151724
H	 0.1478870665	 0.7429696602	 1.2152825255	 0.132464
H	-4.5093937552	-0.4744695565	-0.3299729861	 0.170737
H	-3.4253375349	-3.0626291726	-0.259719705	 0.301257
16.2555	76.1536	121.7935	159.1069	226.1496	271.5307	317.7126	343.6498	382.5807	477.3086	540.0734	580.639	623.3245	796.0601	913.8914	981.2151	1040.4523	1062.7556	1151.6211	1215.4925	1263.6602	1309.5258	1364.3021	1411.4411	1417.7537	1484.0673	2359.2635	2362.3323	2985.9159	3043.7504	3070.727	3799.2259	3816.5345
OCC#CC(O)C#N	OCC#C[C@@H](O)C#N	
InChI=1S/C5H5NO2/c6-4-5(8)2-1-3-7/h5,7-8H,3H2	InChI=1S/C5H5NO2/c6-4-5(8)2-1-3-7/h5,7-8H,3H2/t5-/m1/s1
