17
gdb 35428	3.42764	1.43487	1.39005	1.6381	72.97	-0.2556	0.0351	0.2907	989.9546	0.136247	-421.757504	-421.750177	-421.749233	-421.789047	29.481	
C	 0.4623634564	-0.8577838808	 0.7542356418	-0.437551
C	 0.1975613682	 0.2295230122	 0.3160788741	 0.361721
C	-0.16742303	 1.5241727579	-0.2944495261	-0.039791
O	-1.0829578136	 2.2388066253	 0.5196139906	-0.268401
C	-0.4599021843	 3.2136824543	 1.3626367198	 0.115477
C	 0.2082482364	 4.2865561502	 0.4610229212	-0.231155
C	 1.3539630496	 3.2452288417	 0.3453463895	 0.115467
C	 0.9704930108	 2.76847065	 1.773061011	-0.283947
O	 0.9851905575	 2.274804488	-0.640336329	-0.2684
H	 0.7026526118	-1.8130214327	 1.1523408808	 0.199379
H	-0.691396126	 1.3206399445	-1.2350078426	 0.12234
H	-1.2009110468	 3.4888679151	 2.113538354	 0.084169
H	-0.3122621849	 4.5585789374	-0.458645393	 0.107477
H	 0.5067781149	 5.1762595234	 1.0209287963	 0.101515
H	 2.3734059129	 3.5510227699	 0.1089135449	 0.084172
H	 1.3828594961	 3.4400839744	 2.5291515975	 0.108339
H	 1.146595201	 1.7315416193	 2.0549288591	 0.129189
119.5897	146.408	265.0136	315.5576	408.2081	456.3701	466.7518	534.5507	568.5609	646.9016	664.903	705.9525	798.8232	837.7685	837.7717	866.7754	917.3073	935.4236	947.395	995.782	996.8739	1022.8944	1069.8847	1134.9082	1156.3697	1171.9217	1189.6252	1234.7263	1264.2775	1280.7457	1326.3799	1356.5973	1379.9213	1383.5069	1460.7221	1494.6028	2230.679	3046.4057	3067.7945	3083.1477	3110.2231	3113.5646	3138.0644	3156.838	3499.1364
C#CC1OC2CC(C2)O1	C#C[C@H]1O[C@@H]2C[C@@H](C2)O1	
InChI=1S/C7H8O2/c1-2-7-8-5-3-6(4-5)9-7/h1,5-7H,3-4H2	InChI=1S/C7H8O2/c1-2-7-8-5-3-6(4-5)9-7/h1,5-7H,3-4H2/t5-,6+,7-
