19
gdb 51472	3.45041	0.99929	0.96932	3.4263	75.84	-0.2441	-0.0176	0.2264	1284.1269	0.159706	-423.02294	-423.014643	-423.013699	-423.056801	30.609	
O	-0.4324310923	 0.1752475047	-0.0576109124	-0.241345
C	 0.0051701409	 1.2933517135	 0.0293209677	 0.165482
C	 1.4244398552	 1.7008768846	-0.3020061717	-0.31596
C	 1.4542132481	 2.8804804835	-1.2623341751	-0.034196
C	 1.2981011153	 4.3296920645	-0.8467150712	-0.077215
C	 1.5777708993	 4.6992413304	 0.5994109122	-0.100235
O	 2.8178504246	 4.0816285459	 0.9389547072	-0.251857
C	 3.601517784	 3.9343841554	-0.2450698407	-0.096057
C	 2.6180720915	 3.8374863945	-1.3964538261	-0.096026
H	-0.6409783545	 2.1351799755	 0.374267749	 0.07025
H	 1.9168031849	 1.9764865023	 0.6384375145	 0.148665
H	 1.9429159099	 0.8330504857	-0.7213031794	 0.11746
H	 0.9777410229	 2.6603817937	-2.215140954	 0.098797
H	 0.6458647915	 4.9780857599	-1.4200705771	 0.094799
H	 1.6394869279	 5.7948546722	 0.6954250855	 0.100274
H	 0.8325204616	 4.3382884769	 1.3172570961	 0.11001
H	 4.2631964334	 4.802225991	-0.3938323022	 0.099056
H	 4.229207402	 3.0472013001	-0.1061418543	 0.112712
H	 2.9634200639	 4.1100537356	-2.386932328	 0.095385
60.0503	73.1483	145.9205	217.049	240.2472	272.6161	444.7866	467.1673	519.6378	692.9361	722.3169	769.8085	799.7406	834.8982	894.2629	919.2208	973.3547	981.1723	1001.2389	1014.8337	1071.2857	1078.7892	1101.7789	1116.7535	1126.5574	1131.3341	1198.1739	1223.946	1241.1451	1255.3691	1293.4206	1328.616	1358.3548	1362.5111	1391.1896	1428.5877	1446.8313	1468.9471	1513.796	1524.8777	1835.4874	2851.6609	2978.2972	2984.0882	3040.5605	3056.7207	3062.4426	3095.8466	3131.872	3174.637	3184.528
O=CCC1C2COCC12	O=CC[C@H]1[C@H]2COC[C@@H]12	
InChI=1S/C7H10O2/c8-2-1-5-6-3-9-4-7(5)6/h2,5-7H,1,3-4H2	InChI=1S/C7H10O2/c8-2-1-5-6-3-9-4-7(5)6/h2,5-7H,1,3-4H2/t5-,6+,7-
