17
gdb 62489	2.12673	1.76385	1.29264	3.6236	68.39	-0.2426	-0.0546	0.1879	1030.4545	0.133504	-459.009484	-459.000497	-458.999553	-459.04342	33.04	
C	 0.1568957054	 1.5028857295	 0.0632388738	-0.434909
C	-0.1568055631	-0.0140045954	 0.012211299	 0.196661
O	-1.5355780995	-0.2347194581	-0.0276197376	-0.465526
C	 0.5631680429	-0.650212327	-1.1745421113	 0.34667
O	 0.0083216402	-0.9061433858	-2.2145711811	-0.327513
C	 1.9968346738	-0.9850338592	-0.7805474901	-0.33804
C	 1.9683170657	-1.0956562597	 0.7628369798	-0.333319
C	 0.553842825	-0.6788386035	 1.207388223	 0.36305
O	 0.0868194693	-0.8459272237	 2.2989458624	-0.298377
H	 1.2272824195	 1.7162440335	 0.1467197062	 0.119732
H	-0.2274689441	 1.9795151364	-0.8428578687	 0.138197
H	-0.3534688735	 1.9238864731	 0.9329583439	 0.15624
H	-1.7332211425	-0.4927582685	-0.9410318581	 0.293611
H	 2.3164717711	-1.8963154837	-1.2903089845	 0.145389
H	 2.655971333	-0.1794751	-1.1228093557	 0.144434
H	 2.1528320056	-2.112576778	 1.1191464796	 0.150263
H	 2.7071405814	-0.45377259	 1.2521235493	 0.143439
56.921	84.4828	185.1978	217.0938	227.2256	282.3444	319.603	382.6428	431.7356	517.5907	539.1364	573.2628	604.8836	651.0187	671.5938	798.8589	859.2846	929.3293	969.8463	993.3417	1047.4036	1063.1005	1082.4019	1131.6598	1173.2621	1235.7178	1252.1246	1297.0045	1311.9878	1390.6341	1392.2903	1445.3822	1463.4804	1483.0241	1487.7074	1826.062	1875.1436	3039.0405	3054.3358	3067.2633	3104.4097	3116.1441	3121.045	3132.2579	3713.3806
CC1(O)C(=O)CCC1=O	CC1(O)C(=O)CCC1=O	
InChI=1S/C6H8O3/c1-6(9)4(7)2-3-5(6)8/h9H,2-3H2,1H3	InChI=1S/C6H8O3/c1-6(9)4(7)2-3-5(6)8/h9H,2-3H2,1H3
