20
gdb 65343	3.01142	0.96533	0.93763	4.4284	85.19	-0.2641	0.0391	0.3032	1376.4374	0.170425	-366.007438	-365.99813	-365.997186	-366.041873	34.676	
C	-0.099342996	 1.5549013162	-0.0651912596	-0.457708
C	 0.0129425932	 0.0396257072	 0.0049023593	 0.147508
C	 1.3553651622	-0.6387357269	-0.2481777679	-0.331041
C	 0.7807010684	-0.6550746864	 1.1384875123	-0.0325
C	 1.3904758323	 0.1145882637	 2.2654458481	 0.005356
C	 0.6874376662	 0.1871272245	 3.6003715929	-0.267232
C	 1.9447119818	-0.6309722549	 3.4576005624	-0.274136
C	-1.1554712544	-0.6593481109	-0.4704321356	 0.237383
N	-2.099666615	-1.2142241537	-0.8453442908	-0.351424
H	 0.8229169762	 2.0297173561	 0.2753967832	 0.123552
H	-0.2859765889	 1.878854285	-1.0932609273	 0.137702
H	-0.9203750434	 1.9177159268	 0.5599561862	 0.14007
H	 1.366188802	-1.5564080287	-0.8241313397	 0.135992
H	 2.1886376783	 0.0286470168	-0.4442062363	 0.122932
H	 0.3417720466	-1.6006508564	 1.4454855503	 0.106039
H	 1.9455588765	 0.999728858	 1.9710884572	 0.085281
H	 0.7346599521	 1.1172396012	 4.1554434789	 0.116459
H	-0.2533197566	-0.3436480846	 3.7022535784	 0.12118
H	 1.8509726016	-1.7118425876	 3.4650147399	 0.117887
H	 2.8577115569	-0.2621934556	 3.911293768	 0.116699
60.3534	101.241	129.4821	174.9595	214.0377	265.7481	307.3777	332.7236	406.775	457.7111	576.5335	586.018	679.3973	752.3138	805.4941	828.0939	854.3237	906.15	923.9388	946.9157	969.4976	986.1559	1061.8842	1070.2944	1076.0608	1086.2528	1107.5658	1116.3027	1134.4777	1198.604	1217.0948	1234.5456	1271.7757	1299.7011	1333.8566	1419.025	1451.1736	1471.399	1486.2196	1488.4939	1502.2052	1509.1685	2344.461	3047.5305	3113.0933	3130.3984	3132.9456	3134.9658	3136.873	3144.2928	3156.2608	3211.7988	3226.7605	3227.2139
CC1(CC1C1CC1)C#N	C[C@]1(C[C@H]1C1CC1)C#N	
InChI=1S/C8H11N/c1-8(5-9)4-7(8)6-2-3-6/h6-7H,2-4H2,1H3	InChI=1S/C8H11N/c1-8(5-9)4-7(8)6-2-3-6/h6-7H,2-4H2,1H3/t7-,8-/m0/s1
