19
gdb 112134	3.24168	1.01749	0.80439	4.7653	76.5	-0.2303	-0.0861	0.1442	1416.0613	0.157988	-423.07332	-423.0643	-423.063356	-423.107561	33.234	
C	-0.0310096571	 1.6047391529	 0.1252836095	-0.390235
C	 0.016564142	 0.0759402226	 0.0437509729	-0.183458
C	-1.3599842808	-0.5861573463	-0.061228095	 0.006477
C	-2.1504409648	-0.2460775334	-1.3481970534	-0.343126
C	-3.1495250013	-1.3804863013	-1.5145680419	 0.315018
O	-4.1704080764	-1.3926549601	-2.1459804989	-0.278471
C	-2.6119630538	-2.5857444081	-0.6779406615	 0.312372
O	-3.1678413586	-3.6451118118	-0.5773976136	-0.278778
C	-1.3070126952	-2.1322215792	-0.0458850535	-0.352597
H	 0.974615637	 2.0221704544	 0.2303171084	 0.120161
H	-0.4785386342	 2.0445217231	-0.7717619603	 0.122644
H	-0.6201715725	 1.936335555	 0.9874555104	 0.119481
H	 0.6228918597	-0.2313044836	-0.8198034701	 0.096753
H	 0.5285791922	-0.319702863	 0.9302124599	 0.102119
H	-1.9647566059	-0.2626816533	 0.797428778	 0.089777
H	-2.6468383755	 0.7260747921	-1.344270542	 0.138214
H	-1.4779433991	-0.2655787522	-2.2193994607	 0.13358
H	-0.4865280289	-2.4860990047	-0.6884702552	 0.133902
H	-1.1573620968	-2.5739356031	 0.941760367	 0.136166
71.6495	93.0632	115.4026	186.8929	240.5775	309.7217	341.4147	366.6088	405.7057	493.2758	536.0925	599.9132	653.8586	706.816	778.9938	835.8618	890.3766	896.404	950.1279	1010.3622	1047.9735	1052.2272	1102.212	1129.3666	1157.9224	1170.0291	1227.1571	1244.2693	1277.2701	1302.5167	1330.0464	1366.2041	1391.9472	1414.5788	1439.7942	1452.3752	1486.0414	1500.4363	1507.066	1843.0215	1862.9459	3001.7613	3008.1637	3009.7992	3020.8121	3035.3346	3048.4554	3101.7088	3109.0343	3109.6706	3115.6143
CCC1CC(=O)C(=O)C1	CCC1CC(=O)C(=O)C1	
InChI=1S/C7H10O2/c1-2-5-3-6(8)7(9)4-5/h5H,2-4H2,1H3	InChI=1S/C7H10O2/c1-2-5-3-6(8)7(9)4-5/h5H,2-4H2,1H3
