23
gdb 39510	2.16708	1.65005	1.12488	1.8614	84.28	-0.2525	0.0768	0.3293	1177.4356	0.208917	-388.286507	-388.278249	-388.277305	-388.319077	33.313	
C	 0.0195476822	 1.547722027	-0.2415217436	-0.182203
C	 1.1402741665	 2.4336766642	 0.3314076322	-0.183214
C	 2.5879396767	 2.1695870791	-0.1435678759	-0.206545
C	 2.7432573749	 1.9193894697	-1.6498715377	-0.229762
C	 2.4323346593	 0.5387433527	-2.2032058528	 0.078312
O	 3.211684238	-0.5757084473	-1.756872559	-0.267042
C	 1.7944429983	-0.62002336	-1.5433406359	 0.062092
C	 1.3149508127	-0.7013645718	-0.1082104616	-0.234547
C	 0.016614882	 0.0711621039	 0.1817422433	-0.193747
H	-0.9395775578	 1.9846637153	 0.062956013	 0.091742
H	 0.0326338916	 1.6120671876	-1.3359869052	 0.098891
H	 0.8915392524	 3.47070864	 0.0705037514	 0.094649
H	 1.1149047525	 2.3902926418	 1.428443526	 0.091753
H	 3.1806277436	 3.0554981784	 0.1130510479	 0.091499
H	 3.0512942266	 1.3474102075	 0.4066984072	 0.114356
H	 2.1247418802	 2.6379325665	-2.2053784322	 0.098743
H	 3.7784760536	 2.1361883156	-1.9446628531	 0.110525
H	 2.3263140193	 0.5594871939	-3.2922784145	 0.079982
H	 1.2798099687	-1.3084977219	-2.2198025145	 0.081882
H	 1.1605131169	-1.759556902	 0.1360289329	 0.09681
H	 2.1154045869	-0.3587190359	 0.5483731236	 0.116598
H	-0.1884557284	-0.0008002902	 1.2575954677	 0.095515
H	-0.8242917566	-0.427880974	-0.3174605394	 0.093709
86.4274	186.6988	233.5487	243.7718	292.0274	314.8686	372.9868	429.732	473.4423	517.6597	636.2824	738.3898	759.3642	782.1825	798.9837	828.1971	849.0795	887.3076	931.8881	979.5739	999.4405	1036.6889	1048.1023	1087.5096	1094.6377	1112.7591	1138.9585	1175.677	1183.3849	1201.5361	1237.6253	1278.0197	1301.566	1307.0287	1323.7653	1349.8512	1374.3507	1384.5599	1392.2038	1395.5007	1402.4501	1418.5687	1471.4148	1475.5877	1487.2329	1488.5027	1493.723	1501.968	1520.8446	3008.6119	3010.9175	3013.1494	3027.4007	3035.6793	3037.3592	3043.4841	3045.0011	3049.2009	3051.466	3066.5343	3067.7692	3095.5039	3125.912
C1CCCC2OC2CC1	C1CCC[C@H]2O[C@H]2CC1	
InChI=1S/C8H14O/c1-2-4-6-8-7(9-8)5-3-1/h7-8H,1-6H2	InChI=1S/C8H14O/c1-2-4-6-8-7(9-8)5-3-1/h7-8H,1-6H2/t7-,8+
