19
gdb 127124	3.94443	1.10398	0.88035	1.9097	80.45	-0.189	0.028	0.2171	1343.2911	0.15979	-415.420589	-415.410847	-415.409903	-415.456047	33.963	
C	 0.0323208138	 1.4078724305	-0.0004047875	-0.334304
N	-0.2064584594	-0.0233788489	-0.0322066909	-0.153797
C	 0.1012201918	-0.7585794674	 1.1789318805	-0.323824
C	-0.0542257161	-0.6823934974	-1.2280802677	 0.456001
N	 0.148643183	-1.9969262771	-1.3051485137	-0.336073
N	 0.1576739269	-2.1857454075	-2.6599233898	-0.245984
C	-0.0101155455	-1.0221165755	-3.3114866851	 0.374419
C	-0.0359055756	-0.8925607594	-4.7966854669	-0.493406
N	-0.1466723229	-0.0408480256	-2.4351058431	-0.394311
H	 1.0995592154	 1.6567172653	 0.1226926299	 0.104119
H	-0.3191720624	 1.8533708442	-0.930271245	 0.159152
H	-0.5175784083	 1.8461983658	 0.8387207228	 0.114629
H	-0.3386202109	-0.2356473751	 2.0334519095	 0.11375
H	-0.3233851464	-1.7616337846	 1.1172767982	 0.150773
H	 1.1849725986	-0.8585260797	 1.35336122	 0.107364
H	 0.2997955442	-3.1093103819	-3.0318933778	 0.270286
H	-0.9976859908	-0.4922348389	-5.1307873931	 0.15442
H	 0.7421046119	-0.2014321765	-5.1336463544	 0.154156
H	 0.1241460027	-1.8582452902	-5.2835644059	 0.122631
37.8235	79.1284	120.0726	166.8658	177.2278	206.0748	245.6125	338.6107	368.7783	377.1477	471.7383	534.7342	599.2727	682.3613	727.5665	775.8559	954.0669	1000.2908	1037.6038	1057.8513	1081.186	1087.846	1131.7241	1155.4588	1179.8312	1245.7979	1292.6764	1297.1484	1397.2373	1422.6235	1442.8939	1453.3578	1468.3183	1470.8526	1483.9233	1491.9821	1501.9344	1508.2785	1527.5053	1587.0903	1620.7537	2966.2153	2975.4025	3046.0599	3068.0354	3074.7355	3110.3933	3123.4767	3138.0457	3156.7119	3673.7407
CN(C)C1=NNC(C)=N1	CN(C)c1n[nH]c(C)n1	
InChI=1S/C5H10N4/c1-4-6-5(8-7-4)9(2)3/h1-3H3,(H,6,7,8)	InChI=1S/C5H10N4/c1-4-6-5(8-7-4)9(2)3/h1-3H3,(H,6,7,8)
