16
gdb 10647	2.92054	1.68828	1.31418	4.4028	66.08	-0.2379	0.0253	0.2632	955.476	0.130744	-379.905639	-379.897244	-379.896299	-379.938207	30.924	
N	-0.274938898	 1.3761315197	 0.1251130946	-0.528742
C	-0.1600068733	-0.0545150066	 0.0847065159	 0.009709
C	-0.6861301372	-0.9917435721	 1.1434426505	-0.339575
C	-1.4093027416	-0.8768058887	-0.2024934557	 0.119337
C	-2.7772168848	-0.176854934	-0.2966999692	-0.161288
O	-3.0666675957	 0.6577249205	 0.8124066692	-0.408651
C	-1.2777703434	-1.9763185145	-1.1205125411	 0.233409
N	-1.1917677681	-2.8577574253	-1.8659858312	-0.344317
H	-1.1038375701	 1.6520698769	 0.6431852039	 0.251549
H	 0.5326039914	 1.775445314	 0.5926698018	 0.235086
H	 0.7341939833	-0.3843706523	-0.4354420375	 0.121247
H	-0.1600511562	-1.9160434697	 1.3528024287	 0.134556
H	-1.1912058062	-0.5421035422	 1.9911079698	 0.110747
H	-2.7805806677	 0.4766946928	-1.1738842612	 0.148725
H	-3.5585553746	-0.9336654869	-0.4386460685	 0.122946
H	-3.3367137778	 0.0998373884	 1.5486081099	 0.295263
103.4175	153.0408	167.1962	199.3074	271.	299.138	364.2511	395.461	465.0851	475.1764	555.955	576.2463	683.9043	798.1077	854.6148	877.9224	929.0182	1007.733	1029.854	1057.0929	1077.6717	1086.9943	1150.4533	1218.5548	1226.8159	1285.7805	1299.8906	1397.0772	1409.7635	1433.7113	1482.2658	1499.8408	1663.0666	2344.2171	3028.2284	3094.9994	3136.4703	3160.5012	3231.5512	3495.4806	3579.7464	3823.5126
NC1CC1(CO)C#N	N[C@H]1C[C@]1(CO)C#N	
InChI=1S/C5H8N2O/c6-2-5(3-8)1-4(5)7/h4,8H,1,3,7H2	InChI=1S/C5H8N2O/c6-2-5(3-8)1-4(5)7/h4,8H,1,3,7H2/t4-,5+/m0/s1
