21
gdb 56266	5.46778	0.5786	0.54018	3.5145	80.83	-0.2303	0.0351	0.2654	2023.7623	0.18131	-420.41184	-420.401287	-420.400343	-420.44979	36.535	
N	 0.2313821684	 1.0949195405	-0.3781985942	-0.522409
C	 0.1323891917	-0.1673349834	 0.1330396794	 0.409169
O	 1.0543944975	-0.7044761933	 0.7155740874	-0.359101
C	-1.2313551898	-0.8327437571	-0.0525523954	-0.312162
C	-1.1161394286	-2.3525640217	-0.1886393448	-0.165833
C	-2.4742957799	-3.0511345225	-0.1487526215	-0.148302
N	-2.3233272829	-4.4872282187	-0.3509840457	-0.058572
C	-2.085020083	-5.285325867	 0.8470748398	-0.217535
C	-3.4004513172	-5.3312183258	 0.1505281614	-0.221662
H	 1.0994309412	 1.5913425116	-0.2617050077	 0.259434
H	-0.5156458757	 1.5334027705	-0.8860039833	 0.256259
H	-1.8289322466	-0.5819604416	 0.8353368991	 0.126698
H	-1.7594132172	-0.3986373126	-0.9104258049	 0.09529
H	-0.612133365	-2.6089543334	-1.1268536344	 0.112284
H	-0.4761549976	-2.7230156801	 0.6176950062	 0.12934
H	-2.9829938534	-2.8204418803	 0.8077511557	 0.073267
H	-3.1207358739	-2.66983589	-0.9501568317	 0.096313
H	-1.3731636936	-6.0990436775	 0.7434736647	 0.117542
H	-2.0499350584	-4.7687288582	 1.805540096	 0.109314
H	-4.2410419168	-4.8475721347	 0.6467260639	 0.105585
H	-3.668462669	-6.1791301346	-0.4735964199	 0.115079
29.6233	48.6203	70.1952	91.376	111.0903	134.2825	236.9018	284.3273	390.9152	404.7004	484.6636	532.9705	607.4354	684.2949	759.1519	768.0101	826.6884	868.1959	877.8475	906.1646	1015.2829	1032.2626	1062.0023	1066.2329	1082.4747	1113.4189	1115.9779	1123.594	1163.2415	1176.2652	1229.6677	1249.6679	1300.9832	1314.9726	1326.3202	1333.1173	1398.2139	1412.4699	1466.2557	1486.3822	1493.5281	1506.6295	1523.4606	1615.7685	1797.3756	2911.4949	3013.7924	3031.4871	3050.0289	3055.5339	3089.6212	3095.0458	3103.7726	3173.9918	3188.7562	3605.0259	3744.1059
NC(=O)CCCN1CC1	NC(=O)CCCN1CC1	
InChI=1S/C6H12N2O/c7-6(9)2-1-3-8-4-5-8/h1-5H2,(H2,7,9)	InChI=1S/C6H12N2O/c7-6(9)2-1-3-8-4-5-8/h1-5H2,(H2,7,9)
