20
gdb 117688	4.12936	0.74589	0.72974	4.3403	75.78	-0.2737	0.0235	0.2972	1586.9292	0.167874	-440.29672	-440.285933	-440.284989	-440.332704	38.619	
C	 0.0701284207	 1.6459683136	 0.0346544947	-0.408971
C	-0.0095910963	 0.1177570964	 0.0150810831	 0.320786
O	 0.6892711998	-0.3146222085	 1.1790142961	-0.446909
C	-1.4596822047	-0.4046027967	 0.0209062294	-0.200033
C	-2.284791242	 0.0216078692	 1.2311136213	-0.093514
O	-3.5032612505	-0.7068050451	 1.1754955784	-0.422337
C	 0.6924662066	-0.4465627149	-1.2557825338	-0.380071
C	 2.1091058066	-0.1012621124	-1.3369835666	 0.279179
N	 3.2286022473	 0.1743128905	-1.4125609703	-0.313247
H	 1.1109894526	 1.9703838743	-0.0374790259	 0.151207
H	-0.4918322975	 2.0760551338	-0.7994215668	 0.116688
H	-0.3387079713	 2.034182391	 0.9696338317	 0.133114
H	 0.6483351735	-1.2767097342	 1.2237810674	 0.282567
H	-1.9749197241	-0.0916565226	-0.8946748701	 0.108159
H	-1.4423777171	-1.5030498581	 0.0053650488	 0.098718
H	-1.7222908382	-0.1956286151	 2.1501433373	 0.101634
H	-2.4716062702	 1.1053306316	 1.2048224028	 0.092191
H	-4.0400049144	-0.4505356735	 1.9310633445	 0.288339
H	 0.5997774022	-1.5395784246	-1.2672699483	 0.140139
H	 0.187886737	-0.0804931546	-2.1568818038	 0.152361
63.2494	87.5395	111.605	115.8188	199.4011	236.9109	267.1025	309.6903	314.7367	330.7979	355.62	397.5626	410.3062	422.054	474.4689	668.2091	787.6865	800.5443	879.0902	918.9612	960.4243	975.8842	1018.2125	1043.7375	1070.2376	1124.7362	1162.2266	1180.9596	1221.4971	1249.9933	1257.9975	1310.9415	1332.1689	1349.9381	1391.4602	1426.1839	1458.2062	1462.0213	1483.0039	1489.626	1507.8877	1535.1323	2363.8133	2988.2384	3016.6781	3023.3809	3036.7687	3052.7658	3069.5821	3081.3228	3128.6345	3135.7005	3796.6724	3830.6512
CC(O)(CCO)CC#N	C[C@@](O)(CCO)CC#N	
InChI=1S/C6H11NO2/c1-6(9,2-4-7)3-5-8/h8-9H,2-3,5H2,1H3	InChI=1S/C6H11NO2/c1-6(9,2-4-7)3-5-8/h8-9H,2-3,5H2,1H3/t6-/m0/s1
