21
gdb 104250	2.16265	1.30083	1.08209	2.0126	84.42	-0.2491	0.021	0.2701	1262.5585	0.179734	-387.041271	-387.031192	-387.030248	-387.076444	37.251	
C	-0.1808870353	 1.6008560035	 0.0592986129	-0.400658
C	-0.0885286551	 0.0717183272	 0.114356464	-0.226277
C	 0.7460937913	-0.4735734151	 1.2801018693	 0.26852
C	 2.2006010092	-0.0169058757	 1.2409568108	-0.469122
C	 0.032164474	-0.3614132377	 2.6519455359	-0.106616
O	-0.2603231081	-1.7733023831	 2.6809938064	-0.283942
C	 0.5637110336	-2.0175765892	 1.5169223809	-0.098933
C	-0.0781925354	-2.8364590739	 0.5039472644	 0.333889
C	-0.5889515025	-3.5242353616	-0.3398155247	-0.443993
H	 0.790546695	 2.0657877514	-0.1333844006	 0.119353
H	-0.8576435131	 1.9136222643	-0.7414319652	 0.118376
H	-0.5687259492	 2.0164334803	 0.9961498529	 0.116746
H	-1.0976997063	-0.3495495444	 0.1839002767	 0.113791
H	 0.3297149282	-0.3065429662	-0.8265365173	 0.102617
H	 2.2819218303	 1.0701208947	 1.3369393801	 0.123394
H	 2.7776566372	-0.4631239915	 2.0573401919	 0.118102
H	 2.6761244864	-0.3042071176	 0.2961615737	 0.121688
H	 0.682273246	-0.0625162667	 3.4852555637	 0.094542
H	-0.8828716749	 0.241450285	 2.6792820601	 0.104437
H	 1.5103335623	-2.494076077	 1.8122457996	 0.094214
H	-1.0460341537	-4.1330080367	-1.0805299957	 0.199872
43.0592	110.6319	125.9607	174.3473	204.3621	224.985	261.3229	319.6278	350.3935	363.213	421.6423	527.3469	565.678	622.0686	656.5348	672.2262	784.6344	805.357	872.9773	922.9791	972.9577	980.5038	1019.6705	1021.3529	1035.421	1072.8104	1075.4596	1160.7927	1174.5044	1210.7367	1237.588	1282.1867	1318.809	1362.4011	1371.2583	1373.0871	1410.7169	1416.2146	1479.3889	1493.5862	1496.0933	1504.571	1510.5937	1526.1822	2231.4524	2986.4751	3006.4114	3028.3137	3032.7563	3035.6242	3057.041	3067.0107	3096.2118	3100.4944	3103.2064	3111.5587	3501.4188
CCC1(C)COC1C#C	CC[C@@]1(C)CO[C@H]1C#C	
InChI=1S/C8H12O/c1-4-7-8(3,5-2)6-9-7/h1,7H,5-6H2,2-3H3	InChI=1S/C8H12O/c1-4-7-8(3,5-2)6-9-7/h1,7H,5-6H2,2-3H3/t7-,8-/m0/s1
