16
gdb 66919	2.68879	1.7798	1.30269	3.7725	68.8	-0.2175	0.005	0.2226	978.3791	0.122875	-437.824701	-437.816618	-437.815674	-437.856893	30.96	
C	-0.0381759421	 1.5679551867	 0.100772293	-0.520938
C	 0.0668275745	 0.0757887515	 0.0981697183	 0.154654
N	-1.1924007932	-0.7694999949	 0.1097360562	-0.358195
C	-0.3471447293	-1.8052265503	 0.7496318641	-0.09671
C	 0.7591052699	-0.8886597109	 1.1491955619	-0.194476
C	 0.9548667657	-1.8734058512	-0.054613602	 0.256363
O	 1.7801826231	-2.9641669108	-0.0627505077	-0.449637
C	 0.9145637675	-0.6810887383	-0.9602914701	 0.395966
O	 1.5070781518	-0.3323786014	-1.9414209613	-0.349419
H	 0.9539804675	 2.0224984955	 0.0273086159	 0.142777
H	-0.6229236196	 1.8949237847	-0.7648407178	 0.148872
H	-0.5247472245	 1.9396750618	 1.0083847011	 0.120764
H	-1.7967625513	-0.3881244211	 0.840293836	 0.215712
H	-0.730613294	-2.697200957	 1.2307378653	 0.109949
H	 1.4191123763	-0.7628286827	 1.99635899	 0.123144
H	 1.3451381478	-3.6814130616	-0.5375666829	 0.301174
137.917	177.7699	209.9923	223.5956	259.9268	270.8057	355.3293	465.6044	512.4247	567.4405	650.2622	693.5602	731.3416	780.4276	818.6413	844.0603	882.4014	922.2424	947.7902	960.1391	1000.3847	1053.6298	1087.5202	1112.1611	1152.79	1216.4677	1264.8967	1286.6541	1340.9886	1391.4052	1417.6673	1453.9438	1482.0412	1488.3495	1883.7243	3038.0665	3107.2725	3118.3968	3189.7842	3216.4653	3424.5548	3796.8955
CC12NC3C1C3(O)C2=O	C[C@]12N[C@@H]3[C@H]1[C@]3(O)C2=O	
InChI=1S/C6H7NO2/c1-5-2-3(7-5)6(2,9)4(5)8/h2-3,7,9H,1H3	InChI=1S/C6H7NO2/c1-5-2-3(7-5)6(2,9)4(5)8/h2-3,7,9H,1H3/t2-,3-,5+,6-/m1/s1
