23
gdb 90662	4.05889	1.03012	1.01064	0.0894	90.42	-0.2396	0.0919	0.3314	1335.5107	0.206454	-351.11952	-351.110864	-351.10992	-351.152817	34.189	
C	-0.1399062622	 1.4536361038	 0.0021302898	-0.408203
C	 0.0074563068	-0.0604006842	 0.0833113368	 0.033919
C	 1.0900212314	-0.6564626024	-0.8815022668	-0.256473
C	 1.8882279015	-1.1488863237	 0.3295885769	-0.121334
C	 0.8311953782	-0.5645306603	 1.2814638602	-0.144491
C	 1.0488622341	-2.0401992681	 1.1973573691	 0.389194
C	 0.1166590088	-3.1895141248	 0.773358177	-0.300775
C	 0.9638986631	-4.14172193	 1.6691520463	-0.205424
C	 1.6618476774	-2.9064522091	 2.3101791428	-0.311174
H	 0.833564193	 1.9480602622	 0.0988670705	 0.113231
H	-0.5775400821	 1.7563429548	-0.955647737	 0.110825
H	-0.7865618822	 1.8330313268	 0.8014928241	 0.110703
H	-0.9802591752	-0.5304345283	-0.0019085636	 0.063835
H	 0.7587830438	-1.4235559994	-1.5902096852	 0.090002
H	 1.604582704	 0.1300806645	-1.4402726974	 0.098209
H	 2.9695350586	-1.1407497511	 0.4179537567	 0.07613
H	 0.9680212338	-0.023607491	 2.2129831325	 0.072154
H	-0.9079176661	-3.0636931086	 1.138466569	 0.098208
H	 0.0752199128	-3.4299030759	-0.2924946873	 0.097505
H	 0.4115347951	-4.7965213545	 2.346421356	 0.09617
H	 1.6562059666	-4.7534930155	 1.0856582776	 0.102961
H	 2.7535448734	-2.933050698	 2.3734543378	 0.096862
H	 1.2660102055	-2.6653127572	 3.3022653741	 0.097967
70.3132	111.807	183.2656	213.0428	263.1746	281.9114	366.0751	410.6643	455.8865	585.0386	698.8852	713.83	791.6356	823.071	841.6058	858.4075	872.0973	897.0001	935.6718	940.3827	955.3862	982.0486	996.0215	1004.074	1055.9159	1059.7663	1097.4984	1119.7544	1140.1071	1153.6252	1201.9077	1204.3615	1228.344	1238.4129	1247.5094	1253.1958	1257.5643	1279.7402	1287.6691	1293.6749	1362.4522	1408.2828	1431.2273	1476.0004	1481.4149	1488.3332	1493.8618	1500.4666	1506.2411	3017.1314	3020.9801	3036.6131	3039.8053	3044.5478	3064.7156	3084.9824	3086.4813	3090.7809	3091.3319	3094.404	3119.6958	3149.4807	3163.3214
CC1CC2C1C21CCC1	C[C@H]1C[C@H]2[C@@H]1C12CCC1	
InChI=1S/C9H14/c1-6-5-7-8(6)9(7)3-2-4-9/h6-8H,2-5H2,1H3	InChI=1S/C9H14/c1-6-5-7-8(6)9(7)3-2-4-9/h6-8H,2-5H2,1H3/t6-,7-,8+/m0/s1
