18
gdb 18700	3.176	2.1829	1.42725	1.4147	73.95	-0.227	0.0196	0.2466	901.8835	0.154635	-347.796228	-347.788915	-347.787971	-347.827505	28.422	
C	-0.0744249848	 1.5174507905	 0.0494608573	-0.479692
C	 0.0079286278	 0.0184940045	-0.0081204669	 0.311096
C	-0.0377012983	-0.6879025185	-1.1392424591	-0.173921
C	 0.0852026409	-2.1908190882	-1.1327329606	-0.12101
O	 0.8688586102	-2.6805617495	-0.0497363776	-0.25955
C	 0.5193390424	-2.1666146671	 1.2023972333	 0.101425
C	 1.4740485196	-1.179324788	 1.8174851413	-0.308107
C	 0.1229994661	-0.720423614	 1.2809336527	-0.144283
H	 0.820430166	 1.9422826847	 0.5212603242	 0.127897
H	-0.1768992127	 1.9538363677	-0.9478713211	 0.11959
H	-0.9296352075	 1.8440913661	 0.6550112198	 0.121821
H	-0.1554929209	-0.1999424888	-2.1033213491	 0.083812
H	-0.9147314003	-2.6595101666	-1.1276621286	 0.098324
H	 0.5936988811	-2.5384674305	-2.0378347286	 0.113769
H	 0.0201732839	-2.8869405372	 1.8485375478	 0.086174
H	 1.6241988524	-1.192187747	 2.8917501546	 0.108875
H	 2.3501651198	-0.940029037	 1.2255211381	 0.122813
H	-0.6145130958	-0.4507058912	 2.0333625025	 0.090968
128.9336	178.5917	206.3604	258.3696	322.9537	405.7654	449.2074	555.0183	585.3149	704.9454	767.9208	804.9766	827.2118	832.6839	918.1466	977.4101	1004.8136	1038.919	1045.4675	1054.0124	1059.6957	1084.4418	1107.3856	1126.2235	1176.1153	1195.931	1232.7014	1269.3767	1314.2013	1365.2077	1403.7114	1410.6106	1420.9775	1472.7916	1477.1611	1490.7302	1495.7122	1734.1419	2948.2481	3016.8693	3064.4954	3068.8569	3109.645	3110.1756	3130.0626	3135.0668	3160.2744	3229.0958
CC1=CCOC2CC12	CC1=CCO[C@H]2C[C@@H]12	
InChI=1S/C7H10O/c1-5-2-3-8-7-4-6(5)7/h2,6-7H,3-4H2,1H3	InChI=1S/C7H10O/c1-5-2-3-8-7-4-6(5)7/h2,6-7H,3-4H2,1H3/t6-,7-/m0/s1
