18
gdb 54276	2.52905	1.55386	1.27125	4.8767	67.14	-0.2663	0.0161	0.2824	1040.3221	0.149623	-476.266282	-476.258315	-476.257371	-476.298809	30.883	
O	 0.113179038	 1.5592642721	-0.2392161894	-0.488949
C	-0.0290272797	 0.2034909691	 0.0587020781	 0.294594
C	 0.5737503207	-0.1870083776	 1.4528825307	-0.266846
C	-0.4523322564	-1.1553448179	 2.086212502	-0.170525
N	-1.3545139878	-1.4778224473	 0.9591484013	-0.333005
H	-0.249036178	-2.1137267895	-0.3165261803	 0.315359
H	-2.2356478089	-1.8796322711	 1.2584520737	 0.23797
C	-1.5069311742	-0.2201754286	 0.2168137308	-0.239685
C	 0.6384806692	-0.6218203254	-1.0593776117	 0.382309
O	 1.3289495391	-0.0830345625	-1.8922194472	-0.366542
O	 0.4155003359	-1.9326297733	-1.0372649039	-0.376118
H	 0.7094487121	 1.5853953019	-1.0071237902	 0.294407
H	 1.5650662839	-0.6358545653	 1.3597196201	 0.125246
H	 0.6766661117	 0.7328929372	 2.030275439	 0.129357
H	-0.0024262478	-2.0697080977	 2.4811684624	 0.117225
H	-0.9903074078	-0.6608021199	 2.9071868041	 0.108038
H	-2.038779019	 0.5658013864	 0.7736016688	 0.11293
H	-2.016419651	-0.3839097107	-0.7364539282	 0.124234
89.2945	127.7277	211.7178	280.5754	329.758	369.7908	393.2193	445.9259	508.9492	557.6549	618.0178	677.6277	762.9599	771.0555	821.4264	880.3032	917.4063	938.1959	979.7053	995.6327	1028.9604	1072.5557	1121.1795	1135.3611	1169.7079	1204.8125	1232.202	1251.1804	1273.0619	1292.587	1312.6394	1391.3186	1420.2692	1447.4639	1491.2193	1504.2184	1511.724	1531.8887	1837.9768	2997.2115	3002.3228	3077.525	3089.4232	3096.4149	3131.0386	3174.8432	3544.3168	3656.6093
OC1(CC[NH2+]C1)C([O-])=O	O[C@]1(CCNC1)C(=O)O	
InChI=1S/C5H9NO3/c7-4(8)5(9)1-2-6-3-5/h6,9H,1-3H2,(H,7,8)	InChI=1S/C5H9NO3/c7-4(8)5(9)1-2-6-3-5/h6,9H,1-3H2,(H,7,8)/t5-/m0/s1
