17
gdb 30326	2.97989	1.59651	1.13619	1.9919	74.21	-0.2187	0.0201	0.2388	1052.6912	0.139725	-418.047578	-418.040198	-418.039253	-418.079599	28.689	
O	-0.1774577931	 1.5192680391	-0.1700486234	-0.428834
C	 0.0917144418	 0.1279329832	 0.0126167846	-0.018377
C	-1.1952024088	-0.7660877168	 0.1597465485	-0.235813
C	-1.3917340059	-1.6011207509	-1.1523690892	-0.350284
C	-0.0613512625	-1.4232132499	-1.8202534741	 0.27668
C	 0.7266834562	-0.5227057211	-1.167674067	 0.274847
N	 1.886204812	-0.4431519287	-1.9032993224	-0.378363
C	 1.726377268	-1.3111888671	-2.9540972968	-0.010642
N	 0.5574774934	-1.9219922687	-2.9383192025	-0.342257
H	-0.6228643758	 1.6135915427	-1.0200221825	 0.275297
H	 0.6910615443	 0.0989476555	 0.9282541525	 0.089887
H	-1.0605912012	-1.444275911	 1.0071943906	 0.111949
H	-2.0504069776	-0.1263943051	 0.3921309976	 0.109413
H	-1.6265587707	-2.646454184	-0.9283677829	 0.116679
H	-2.2166029117	-1.2228139718	-1.7682643305	 0.111245
H	 2.6931747507	 0.1292418874	-1.7204415819	 0.269627
H	 2.5006993709	-1.454518723	-3.6938367507	 0.128946
81.8275	142.2356	238.0202	316.7178	355.4448	428.8224	477.2691	517.2889	616.8149	670.4355	696.7413	717.2917	769.7014	803.0369	825.3367	907.4434	961.3492	974.8521	1010.2599	1055.7312	1088.0927	1119.3472	1161.5485	1210.8617	1236.5043	1260.7144	1269.8201	1291.8532	1324.3784	1374.0687	1382.3251	1431.2383	1454.1876	1479.3497	1504.3732	1517.3918	1621.2977	3032.6971	3052.1619	3064.1992	3073.3469	3111.2311	3245.6853	3667.1127	3791.644
OC1CCC2=C1NC=N2	O[C@H]1CCc2c1[nH]cn2	
InChI=1S/C6H8N2O/c9-5-2-1-4-6(5)8-3-7-4/h3,5,9H,1-2H2,(H,7,8)	InChI=1S/C6H8N2O/c9-5-2-1-4-6(5)8-3-7-4/h3,5,9H,1-2H2,(H,7,8)/t5-/m0/s1
