15
gdb 20381	4.75132	2.03325	1.46929	4.6739	66.33	-0.2358	0.0024	0.2382	817.394	0.123179	-358.850146	-358.844081	-358.843137	-358.88037	23.369	
C	 0.0906751489	 1.4493287987	-0.2924912869	-0.198324
C	 1.4543202091	 2.0114756356	 0.2518839456	-0.350926
C	 2.1392911604	 0.7387583707	 0.6261840597	 0.346564
C	 1.3208918614	-0.3565512655	 0.6298583157	 0.297999
C	-0.0871630811	-0.0126521566	 0.2478148757	-0.3373
N	 2.0202373811	-1.4501372733	 1.024953117	-0.28961
N	 3.2505422102	-1.0816712206	 1.2659054332	-0.127496
N	 3.3313388788	 0.2601729544	 1.0320049908	-0.326205
H	-0.7478624709	 2.0957573709	-0.0239383825	 0.108205
H	 0.1382221605	 1.4209187161	-1.3846734358	 0.118614
H	 1.98029814	 2.6052839683	-0.5023073369	 0.118608
H	 1.3073325993	 2.6610233782	 1.1241520912	 0.123279
H	-0.7581560232	-0.043563306	 1.1148493571	 0.118883
H	-0.5163218851	-0.6744057227	-0.5097849044	 0.121788
H	 4.2186131506	 0.7185930217	 1.1602842807	 0.275921
123.1503	233.9997	253.9815	428.0584	552.4856	570.7586	682.0023	711.9297	720.2562	733.6521	832.468	896.7744	906.059	988.0767	1007.6968	1034.3744	1059.3141	1145.2306	1163.0068	1199.2701	1216.5724	1250.4008	1288.6807	1301.0605	1333.5991	1369.4588	1396.3226	1483.0076	1491.83	1506.8853	1523.791	1613.4839	3025.1451	3033.1517	3059.6998	3072.7331	3083.4305	3113.45	3664.1531
C1CC2=C(C1)N=NN2	C1Cc2c(C1)nn[nH]2	
InChI=1S/C5H7N3/c1-2-4-5(3-1)7-8-6-4/h1-3H2,(H,6,7,8)	InChI=1S/C5H7N3/c1-2-4-5(3-1)7-8-6-4/h1-3H2,(H,6,7,8)
