18
gdb 54715	4.67326	1.16724	1.05583	3.2522	77.1	-0.2372	0.0276	0.2648	1153.9374	0.148269	-401.905014	-401.897002	-401.896058	-401.939281	30.14	
N	 0.0604459521	 1.3489403633	 0.3776881311	-0.53206
C	 0.0522365764	 0.196561066	-0.3565005619	 0.403416
O	 1.0125483707	-0.1471555248	-1.0233260846	-0.372684
C	-1.2339812741	-0.6028837613	-0.2700655966	-0.145508
C	-1.8185100381	-1.1941366938	-1.5767885802	-0.034238
C	-0.8000366543	-2.387690227	-1.6134808566	-0.019268
C	-1.9248721143	-3.4320825213	-1.7587615353	-0.280522
C	-2.5100759585	-2.3710243717	-0.8080039725	-0.052239
C	-1.132039259	-2.1389457648	-0.0998419505	-0.034257
H	 0.8886279254	 1.921304136	 0.359067395	 0.257947
H	-0.723026453	 1.6445542424	 0.9314631943	 0.257333
H	-1.974406617	-0.122283945	 0.3815366244	 0.051758
H	-2.2187993538	-0.6563883537	-2.4375246638	 0.073313
H	 0.1900177391	-2.362985576	-2.0578562611	 0.104825
H	-2.3923290006	-3.5209486009	-2.7450321051	 0.091505
H	-1.7364640628	-4.4236317266	-1.3339348603	 0.091502
H	-3.4889669404	-2.3289931766	-0.3261362166	 0.065866
H	-0.7368583977	-2.6960345341	 0.7509086905	 0.073309
14.6751	92.1356	167.8589	185.4545	361.7267	378.0204	405.1287	587.6992	631.7183	722.3346	763.5629	794.427	844.3517	851.9537	859.7384	912.9073	917.1075	924.2615	968.4312	969.5596	1014.7338	1029.1289	1062.4853	1082.2502	1125.1453	1130.9018	1144.1004	1159.1046	1168.8798	1188.293	1219.3873	1236.56	1270.7358	1295.2204	1307.6772	1425.9791	1509.1967	1613.9558	1783.3452	3023.2395	3034.4269	3087.7611	3090.323	3099.8339	3106.7222	3171.4769	3604.1392	3744.4102
NC(=O)C1C2C3CC2C13	NC(=O)[C@H]1[C@H]2[C@@H]3C[C@H]2[C@H]13	
InChI=1S/C7H9NO/c8-7(9)6-4-2-1-3(4)5(2)6/h2-6H,1H2,(H2,8,9)	InChI=1S/C7H9NO/c8-7(9)6-4-2-1-3(4)5(2)6/h2-6H,1H2,(H2,8,9)/t2-,3+,4-,5+,6-
