14
gdb 5718	4.92758	2.04078	1.47536	2.0987	62.88	-0.2061	0.02	0.2261	797.6458	0.110086	-382.554776	-382.548852	-382.547908	-382.58489	22.949	
C	 0.0418071993	 1.3711618985	-0.1858434816	-0.092144
C	 1.4627968188	 1.9026443805	 0.1898697894	-0.384418
C	 2.1193680825	 0.6291934463	 0.634163884	 0.166334
C	 3.2750959901	 0.0306234237	 1.0094560541	-0.142656
O	 3.0325571458	-1.2666292868	 1.3513661214	-0.160347
C	 1.6839934283	-1.5098843355	 1.1934793007	-0.161256
C	 1.1085078182	-0.3633535858	 0.7582881684	 0.293768
O	-0.1352737295	 0.0698877918	 0.4348479827	-0.283258
H	-0.7690398342	 2.0138955908	 0.1627895579	 0.12132
H	-0.0498185914	 1.2435388891	-1.2708709473	 0.117268
H	 1.9401895918	 2.3872009637	-0.6659524095	 0.124409
H	 1.4109430085	 2.6396440602	 0.9992781133	 0.126946
H	 4.3019447427	 0.3464588627	 1.089798666	 0.137129
H	 1.3470975792	-2.5029878292	 1.4281703004	 0.136905
113.9519	241.3087	323.2557	463.817	589.5643	627.0379	660.2572	695.5327	716.9581	753.6265	761.7257	847.1542	929.2568	939.9261	999.1283	1038.3652	1075.1271	1126.0523	1154.0179	1203.8258	1236.7383	1251.3463	1290.4774	1311.6085	1382.5306	1429.5257	1490.2959	1514.5562	1613.1738	1692.5098	3034.6357	3039.1538	3088.5411	3112.8778	3273.8456	3300.5149
C1CC2=COC=C2O1	C1Cc2cocc2O1	
InChI=1S/C6H6O2/c1-2-8-6-4-7-3-5(1)6/h3-4H,1-2H2	InChI=1S/C6H6O2/c1-2-8-6-4-7-3-5(1)6/h3-4H,1-2H2
