18
gdb 56012	3.91806	0.99584	0.91436	2.59	74.25	-0.2516	0.0135	0.2651	1316.5235	0.148583	-439.145799	-439.13712	-439.136175	-439.180213	31.926	
N	-0.4025046351	 1.2759189342	-0.0358395918	-0.560432
C	-0.039932549	-0.0437728523	-0.0699175314	 0.489132
O	 1.088890826	-0.447465192	-0.2381110466	-0.40725
O	-1.1218987931	-0.8252680207	 0.1512802855	-0.280068
C	-0.8563941063	-2.2572887499	 0.21251006	 0.110313
C	-2.1053453594	-2.9513243094	 0.7904465225	-0.24558
C	-2.8380514825	-3.591068217	-0.4164024896	-0.253643
C	-1.7991894619	-3.5497805439	-1.5096738879	-0.05385
C	-0.7222622229	-2.8437603767	-1.1698397987	-0.085268
H	 0.2695916521	 1.9255673406	-0.4063985844	 0.2662
H	-1.3773058132	 1.5086997907	-0.1220220188	 0.261769
H	 0.0393172499	-2.3858050007	 0.8233227959	 0.103158
H	-1.7877622148	-3.7301501298	 1.4890750762	 0.11107
H	-2.7205039076	-2.2415810401	 1.3469602142	 0.112612
H	-3.1758588778	-4.6106255852	-0.1990214347	 0.10734
H	-3.7347970012	-3.0292667501	-0.710049435	 0.112449
H	-1.9473433973	-4.0366650605	-2.4680133948	 0.097455
H	 0.1456634741	-2.6475987073	-1.7857196708	 0.114591
52.7642	60.4797	104.1976	197.4587	278.868	343.7797	358.8668	421.8913	498.8742	540.3927	649.4933	715.4832	757.47	784.5654	801.8148	817.056	896.8241	922.6168	927.7277	989.1022	998.4728	1035.8232	1062.9877	1078.0734	1115.4007	1129.7278	1181.8301	1230.5206	1286.9242	1313.3303	1330.9383	1340.7396	1377.6648	1406.6882	1472.7797	1492.7409	1610.5746	1684.4783	1821.6564	3021.3908	3054.8086	3069.882	3093.7019	3120.6546	3185.5998	3230.1697	3612.0755	3741.1295
NC(=O)OC1CCC=C1	NC(=O)O[C@H]1CCC=C1	
InChI=1S/C6H9NO2/c7-6(8)9-5-3-1-2-4-5/h1,3,5H,2,4H2,(H2,7,8)	InChI=1S/C6H9NO2/c7-6(8)9-5-3-1-2-4-5/h1,3,5H,2,4H2,(H2,7,8)/t5-/m1/s1
