14
gdb 28725	5.7335	0.87388	0.78918	2.4986	67.06	-0.2469	-0.0231	0.2238	1379.8833	0.09985	-473.875749	-473.867558	-473.866614	-473.909716	28.189	
C	 0.1324434832	 1.5932710557	-0.0834318136	-0.487725
C	 0.0447907869	 0.1150197067	 0.0154175602	 0.396231
N	-0.4277844185	-0.7301362527	-0.8443061452	-0.288049
C	-0.2486169028	-1.9801030319	-0.2603336535	-0.224719
C	 0.329545434	-1.8026427829	 0.9486293705	 0.357907
O	 0.7533686298	-2.6195696323	 1.935646425	-0.210757
C	-0.1982300423	-3.3939628003	 2.5672493199	 0.166187
O	 0.0995606221	-4.1958767327	 3.3878047043	-0.236281
O	 0.5251874561	-0.4716908961	 1.1534146416	-0.185606
H	 1.1727349442	 1.9303726723	-0.0305204643	 0.152484
H	-0.2960450476	 1.905497639	-1.0359561591	 0.162272
H	-0.413956692	 2.0775122672	 0.732348399	 0.150125
H	-0.52798931	-2.8978012916	-0.751072232	 0.137941
H	-1.2130331131	-3.1650594002	 2.1995380474	 0.109992
44.7367	112.3287	128.1757	155.4479	239.7663	291.3733	408.2068	457.337	502.1623	675.2223	692.214	705.0535	832.2559	839.8081	965.0059	991.7057	1037.007	1050.0449	1066.755	1088.6332	1149.8499	1235.1232	1278.5272	1362.8047	1399.7987	1415.5446	1474.6154	1480.7509	1625.2704	1646.8318	1894.0206	3002.3703	3046.1652	3101.6486	3159.485	3273.1829
CC1=NC=C(OC=O)O1	Cc1ncc(OC=O)o1	
InChI=1S/C5H5NO3/c1-4-6-2-5(9-4)8-3-7/h2-3H,1H3	InChI=1S/C5H5NO3/c1-4-6-2-5(9-4)8-3-7/h2-3H,1H3
