12
gdb 21467	7.93077	1.18923	1.05472	2.6	58.91	-0.258	-0.0277	0.2303	1022.8925	0.084158	-414.631029	-414.624376	-414.623431	-414.662769	23.342	
N	-0.017813829	 1.2933392666	 0.3204156634	-0.418368
C	-0.0773931771	 0.0991510239	-0.0636405414	 0.108042
O	-1.0570459598	-0.7104291169	 0.4362490305	-0.210518
C	-0.9572641655	-2.0459332233	 0.1980575618	 0.19983
C	 0.1174716655	-2.8817821393	 0.2233475988	-0.024926
O	-0.2872712582	-4.1337661694	-0.0485145287	-0.157375
N	-1.6626506617	-4.1439392328	-0.2426782423	-0.117096
C	-2.0517772372	-2.9028834982	-0.0985244943	-0.041921
H	 0.7335238231	 1.7823044135	-0.1616926898	 0.242341
H	 0.5618876123	-0.4138063308	-0.792161771	 0.106588
H	 1.1681197946	-2.7451282391	 0.420201915	 0.16079
H	-3.094970037	-2.643310774	-0.2026524218	 0.152613
62.2801	111.3483	176.2006	363.5246	433.0984	483.7662	613.9702	671.9128	790.2311	811.3559	833.2839	902.0051	904.8744	924.8875	1013.3596	1049.0066	1059.8665	1145.3175	1204.0627	1261.6879	1303.898	1402.8802	1412.5019	1485.6402	1653.6277	1753.8346	3052.921	3257.2323	3277.1633	3525.3496
N=COC1=CON=C1	[NH][CH]Oc1conc1	
InChI=1S/C4H4N2O2/c5-3-7-4-1-6-8-2-4/h1-3,5H	InChI=1S/C4H4N2O2/c5-3-7-4-1-6-8-2-4/h1-3,5H
