17
gdb 33407	2.41517	1.31526	0.93817	2.0804	73.8	-0.2618	0.0404	0.3022	1241.4804	0.133428	-421.735273	-421.726371	-421.725427	-421.769642	32.174	
C	 0.1255335466	-1.3630814249	 0.174771269	-0.452735
C	 0.0257883132	-0.1661278231	 0.1420609567	 0.332127
C	-0.1214983759	 1.2848933413	 0.0766290995	-0.26114
C	 1.1889558187	 2.0427907353	 0.2817612364	 0.092362
C	 2.3590182958	 1.4785549265	 0.9591157291	-0.192689
O	 2.3151682913	 1.597975207	-0.4675519467	-0.232459
C	-0.7336114888	 1.7001963205	-1.2588732198	 0.094273
C	-2.1788651433	 1.8630569063	-1.4249777072	-0.176532
O	-1.3193641501	 3.0004185986	-1.2836096475	-0.240549
H	 0.2161022487	-2.4208500692	 0.2068745011	 0.201381
H	-0.8116147352	 1.6162184836	 0.8651697202	 0.115082
H	 1.0491876589	 3.1241639162	 0.2886372375	 0.114493
H	 3.0585750335	 2.1448382665	 1.4613222509	 0.117034
H	 2.3156650955	 0.4596924007	 1.336849899	 0.128019
H	-0.1243165338	 1.4552674655	-2.1280791561	 0.120929
H	-2.6289240412	 1.7376024909	-2.4079506799	 0.122459
H	-2.8401784639	 1.6699922281	-0.5813466721	 0.117944
69.6869	74.3732	134.4976	157.8597	180.4341	315.713	352.0142	373.2265	480.477	507.0082	638.3646	650.7092	655.4728	782.4213	853.313	865.2656	889.9763	934.6326	973.5911	980.8263	1069.6899	1097.2639	1113.3907	1135.9744	1157.8886	1165.5795	1173.8665	1177.9391	1258.3015	1283.7367	1290.0937	1326.1453	1422.1584	1431.9212	1521.7918	1530.1583	2239.3541	3016.3965	3087.9552	3092.7631	3113.2531	3126.3923	3176.7697	3187.076	3502.3766
C#CC(C1CO1)C1CO1	C#C[C@@H]([C@H]1CO1)[C@H]1CO1	
InChI=1S/C7H8O2/c1-2-5(6-3-8-6)7-4-9-7/h1,5-7H,3-4H2	InChI=1S/C7H8O2/c1-2-5(6-3-8-6)7-4-9-7/h1,5-7H,3-4H2/t6-,7-/m1/s1
