25
gdb 59664	2.34689	1.3272	0.95935	0.1424	92.98	-0.2599	0.0848	0.3446	1357.8655	0.228348	-352.340959	-352.331083	-352.330139	-352.375284	38.484	
C	-0.0046446657	 1.4880855042	-0.3933168645	-0.38965
C	 0.0577807308	 0.0273676607	 0.0776570908	 0.014934
C	 0.7071818859	-0.0553709854	 1.4677479855	-0.396244
C	-1.3332540812	-0.6088881741	 0.0592094305	-0.009471
C	-2.1201599812	-0.6501262241	-1.2867120177	-0.241264
C	-2.61764894	-2.0786165141	-0.9319310555	-0.300734
C	-1.5165287381	-2.1427136978	 0.1334451925	 0.363098
C	-0.4277302171	-3.1793132995	 0.1590366109	-0.31992
C	-1.4156203525	-3.0736292346	 1.3015231071	-0.333767
H	 0.9939170868	 1.937432749	-0.4128885881	 0.10728
H	-0.4293060076	 1.571719157	-1.3983848071	 0.114382
H	-0.6250595196	 2.0899347166	 0.281831185	 0.109613
H	 0.6875145437	-0.5298066401	-0.6309079654	 0.067438
H	 0.1105054888	 0.4922776531	 2.2071614623	 0.110452
H	 0.804039565	-1.0864211475	 1.8202387324	 0.11585
H	 1.7093258722	 0.3867636328	 1.4599304052	 0.108758
H	-1.9519292837	-0.1301386501	 0.8317508988	 0.061824
H	-2.8761750986	 0.1207923669	-1.4516643722	 0.093396
H	-1.4396890083	-0.6623935049	-2.1438813164	 0.099028
H	-3.6213781368	-2.0706060811	-0.4938057444	 0.097736
H	-2.5908232457	-2.8297360588	-1.7263003547	 0.094401
H	-0.5175364482	-4.0245217968	-0.5168235013	 0.105895
H	 0.5955304319	-2.8656489272	 0.3368463177	 0.112231
H	-1.0600127833	-2.6764909975	 2.247254124	 0.10888
H	-2.1672395876	-3.8508561268	 1.4027398246	 0.105853
82.3567	104.702	150.8503	211.9958	224.7386	252.444	269.4497	315.4562	331.1372	402.4968	428.7546	484.4417	560.5341	707.1446	769.6932	783.584	862.8475	877.3298	896.3525	915.8074	926.4263	938.648	953.8443	969.3604	981.0144	1007.1049	1047.9555	1069.6242	1076.0869	1106.163	1151.1721	1179.8129	1187.2257	1194.4861	1205.9084	1235.6522	1256.1913	1278.012	1279.518	1311.2524	1346.4988	1372.1098	1392.0746	1397.3829	1419.6835	1463.5008	1479.1222	1488.2357	1490.6355	1497.1287	1502.6454	1508.6257	1510.9912	2992.9	3006.7148	3023.3374	3028.4979	3041.1007	3051.4366	3085.9617	3088.7286	3092.4378	3102.5213	3104.4282	3110.5932	3119.2667	3123.5802	3195.6814	3209.8162
CC(C)C1CCC11CC1	CC(C)[C@H]1CCC21CC2	
InChI=1S/C9H16/c1-7(2)8-3-4-9(8)5-6-9/h7-8H,3-6H2,1-2H3	InChI=1S/C9H16/c1-7(2)8-3-4-9(8)5-6-9/h7-8H,3-6H2,1-2H3/t8-/m1/s1
