22
gdb 115219	3.8544	0.96307	0.82467	3.0526	83.79	-0.2235	-0.0111	0.2124	1443.6408	0.195011	-404.375611	-404.366413	-404.365469	-404.409938	34.582	
C	 0.0002066119	 1.5612563041	-0.1034092221	-0.394044
C	-0.0146586244	 0.0374367615	 0.0193447273	-0.110211
N	 0.6836029493	-0.4610147288	 1.2050054	-0.066971
C	-0.0167931379	-0.1555672301	 2.4491280261	-0.155239
C	 0.8444162147	-0.5182317564	 3.6710470451	-0.300467
C	 1.3217110964	-1.9597577952	 3.606106875	 0.386177
O	 1.2638120734	-2.7185799675	 4.545053931	-0.308169
C	 1.8767416857	-2.3575325765	 2.2480680985	-0.301929
C	 0.954430471	-1.8922841919	 1.1095803703	-0.153263
H	 1.024898352	 1.9393211558	-0.0423638344	 0.124795
H	-0.4236080368	 1.8604681793	-1.0669529101	 0.11662
H	-0.5913499925	 2.0508243559	 0.6755036646	 0.121376
H	-1.0590174152	-0.3305768651	-0.0205287728	 0.078346
H	 0.493181459	-0.3869060265	-0.8539903274	 0.099989
H	-0.2485752322	 0.911563121	 2.4810205089	 0.107528
H	-0.9835870127	-0.6958544262	 2.509276446	 0.083814
H	 1.7322883772	 0.127488541	 3.6734029966	 0.12397
H	 0.3002652246	-0.361642334	 4.6052533716	 0.117202
H	 2.8505711717	-1.8651355929	 2.1283275488	 0.123685
H	 2.0293342155	-3.4389744908	 2.2245566312	 0.117147
H	 0.0196964029	-2.4882754732	 1.132569941	 0.085081
H	 1.4344777665	-2.0943313536	 0.1467667247	 0.104562
61.1237	84.4338	151.5888	174.2458	240.5949	273.2456	360.6098	376.5456	434.0002	449.6403	494.7671	513.8027	696.1698	757.2004	780.0501	784.2639	812.4564	939.7579	946.0638	985.7525	1007.8431	1029.5285	1085.2536	1102.1843	1132.8718	1153.3527	1164.3941	1184.5743	1240.435	1241.9431	1270.6692	1310.6719	1324.9153	1334.3217	1355.5708	1378.5944	1396.1192	1412.109	1433.3475	1450.9356	1462.6036	1487.4425	1493.3455	1501.8558	1505.3937	1522.3225	1822.4134	2895.2657	2899.0064	2913.6516	3029.6205	3035.1065	3042.1365	3050.7358	3066.5478	3090.5594	3110.9704	3112.5716	3113.8111	3118.6021
CCN1CCC(=O)CC1	CCN1CCC(=O)CC1	
InChI=1S/C7H13NO/c1-2-8-5-3-7(9)4-6-8/h2-6H2,1H3	InChI=1S/C7H13NO/c1-2-8-5-3-7(9)4-6-8/h2-6H2,1H3
