12
gdb 16723	6.66772	1.53067	1.37304	4.9159	61.28	-0.2727	-0.0623	0.2104	848.3851	0.085198	-377.518204	-377.512153	-377.511208	-377.548441	22.712	
N	 0.0821784208	-1.086738118	 0.0742887495	-0.312172
C	 0.0046690551	 0.0654640772	 0.0436177823	 0.284836
C	-0.083413248	 1.4944882625	 0.0059315129	 0.303735
N	-1.1703577533	 2.1625266545	-0.0042762417	-0.288437
C	-0.7766417398	 3.5479554575	 0.0046052885	-0.02595
C	 0.0205406109	 3.9990865779	 1.214619608	-0.3162
C	 0.7507776714	 3.5358294059	-0.005001197	 0.057053
O	 1.1039664166	 2.1587365904	-0.0359184699	-0.235607
H	-1.4127302139	 4.2393886375	-0.5323811219	 0.121942
H	 0.0413741916	 5.0668500656	 1.4003833603	 0.137644
H	 0.0144831777	 3.3711333714	 2.0990502287	 0.142457
H	 1.4208470107	 4.1544583177	-0.5860086696	 0.130698
131.3981	178.7069	350.5035	389.533	519.1102	552.6097	587.3548	707.1291	743.8842	755.0133	821.9606	915.8802	940.4516	979.2055	1026.424	1043.8457	1081.9142	1124.3417	1134.0124	1183.9594	1251.0861	1333.5356	1365.8389	1460.4539	1661.9621	2371.8345	3138.2244	3199.5487	3213.5524	3234.1594
N#CC1=NC2CC2O1	N#CC1=N[C@H]2C[C@H]2O1	
InChI=1S/C5H4N2O/c6-2-5-7-3-1-4(3)8-5/h3-4H,1H2	InChI=1S/C5H4N2O/c6-2-5-7-3-1-4(3)8-5/h3-4H,1H2/t3-,4+/m0/s1
