18
gdb 27245	3.21072	1.49509	1.04743	1.7724	79.92	-0.1839	0.0308	0.2147	1133.2922	0.15016	-401.977843	-401.970046	-401.969102	-402.010131	30.05	
C	 0.1037790199	 1.4950225555	-0.08898147	-0.489813
C	-0.0750788525	 0.0227549778	 0.0149516983	 0.193395
C	-1.1525855134	-0.8000242417	 0.0640658564	 0.177706
C	-2.6544235424	-0.8420573577	 0.0832548432	-0.359177
C	-2.916318195	-2.3504638049	-0.2129969343	-0.165178
N	-1.7041433636	-3.0559687879	 0.2746429582	-0.411268
C	-0.6543720696	-2.1351915446	 0.1652107484	 0.241407
C	 0.6989475798	-2.0629642693	 0.1683326935	-0.17386
O	 1.0643379478	-0.7313037472	 0.0718667287	-0.20304
H	 0.7037594193	 1.7655838184	-0.9652976112	 0.136259
H	-0.8695885899	 1.9834916864	-0.1759096303	 0.128097
H	 0.6122445548	 1.9031882753	 0.7923938055	 0.137249
H	-3.050034343	-0.5715456813	 1.0701759106	 0.118912
H	-3.1450645811	-0.1996851319	-0.6530019073	 0.112098
H	-3.8091927769	-2.7298982393	 0.2916573625	 0.1068
H	-3.0513788609	-2.4905949135	-1.2961142266	 0.098462
H	-1.552391087	-3.9579907136	-0.1558704508	 0.232557
H	 1.5095087236	-2.7686995506	 0.210117795	 0.119394
101.7446	150.9797	189.6805	246.1042	269.4212	355.0225	508.5893	552.8344	582.9597	600.1663	644.6899	674.0395	697.3008	765.7813	818.1559	875.6646	936.7515	946.6875	1033.2219	1058.7712	1069.1217	1080.213	1116.034	1148.9913	1194.4159	1228.6521	1251.6316	1298.7612	1309.4228	1331.8364	1405.0634	1415.0378	1446.6684	1472.7856	1487.7271	1491.85	1518.4856	1644.8724	1716.0034	2985.3199	3026.7082	3027.8923	3077.606	3080.105	3088.7892	3124.3938	3289.0683	3576.7528
CC1=C2CCNC2=CO1	Cc1c2CCNc2co1	
InChI=1S/C7H9NO/c1-5-6-2-3-8-7(6)4-9-5/h4,8H,2-3H2,1H3	InChI=1S/C7H9NO/c1-5-6-2-3-8-7(6)4-9-5/h4,8H,2-3H2,1H3
