17
gdb 72014	2.55486	1.94527	1.46441	3.7719	71.57	-0.2344	-0.006	0.2284	924.5624	0.137163	-421.806547	-421.79951	-421.798566	-421.837712	28.647	
O	-0.012325251	 1.4207531877	-0.1019420414	-0.478512
C	 0.0279971844	 0.0377044249	-0.0971263847	 0.418493
C	 0.4373407845	-0.838931746	-1.2924256762	-0.30581
C	-0.3479749174	-1.9270171423	-0.5119222845	-0.050435
C	 0.5666220417	-2.1488244076	 0.7201476091	-0.225126
C	 0.41374821	-0.7115178342	 1.2668528364	-0.236253
C	-1.1021395604	-0.7028782022	 1.5491402199	 0.43909
O	-1.7923447633	-0.5173095101	 2.5068686114	-0.325935
C	-1.3095701117	-0.7913363696	 0.046083222	-0.199658
H	 0.8549905736	 1.7591851914	 0.1454478939	 0.287436
H	-0.0820193865	-0.5115083336	-2.1963656025	 0.112618
H	 1.4958421131	-1.0185205683	-1.5086695589	 0.091077
H	-0.7586352812	-2.7994990202	-1.0150529737	 0.081056
H	 0.2036423201	-2.9054842529	 1.4223648297	 0.113069
H	 1.5895791734	-2.4046068233	 0.4302304263	 0.10338
H	 1.1431253439	-0.3140841667	 1.9704884152	 0.079821
H	-2.2273169333	-0.5579085471	-0.4872817322	 0.095691
129.9035	201.9545	274.2422	348.9725	380.1287	448.6908	501.8689	544.0157	613.0446	649.0865	727.5641	785.8109	825.1139	847.8448	882.2929	917.9412	943.401	971.5663	987.661	1025.7301	1051.9578	1075.3697	1079.273	1130.9552	1132.1769	1160.6986	1174.9723	1199.9344	1226.0706	1248.7809	1287.151	1294.4686	1310.2231	1363.8524	1496.7467	1519.6319	1897.6273	3043.3923	3051.2183	3096.9086	3113.009	3138.0376	3141.2046	3162.9196	3804.3541
OC12CC3CC1C(=O)C23	O[C@@]12C[C@H]3C[C@@H]1C(=O)[C@@H]23	
InChI=1S/C7H8O2/c8-6-4-1-3-2-7(4,9)5(3)6/h3-5,9H,1-2H2	InChI=1S/C7H8O2/c8-6-4-1-3-2-7(4,9)5(3)6/h3-5,9H,1-2H2/t3-,4-,5+,7+/m1/s1
