16
gdb 11306	5.00921	1.34315	1.20735	3.8842	61.52	-0.243	-0.0337	0.2092	1007.0763	0.129072	-420.882246	-420.874247	-420.873303	-420.915621	27.96	
C	 0.5159740356	 1.4976550878	 0.1438121813	-0.399637
C	-0.1436495992	 0.1251899553	 0.058218158	 0.119531
C	 0.2504320902	-0.6818681313	-1.1824332685	-0.114
O	 1.4365607398	-1.3564420527	-0.7641805021	-0.262944
C	 1.3504431049	-1.5426367613	 0.6345153254	 0.120606
O	 0.3007650168	-0.7345646001	 1.1201610443	-0.281709
C	 1.001725751	-3.0029036349	 0.9378743631	 0.15638
O	 1.685072907	-3.7317979753	 1.6032881946	-0.230896
H	 1.5935389498	 1.422187507	-0.0317499917	 0.133239
H	 0.0908557641	 2.1743258906	-0.6048300198	 0.118775
H	 0.3544822284	 1.9329714344	 1.1332205995	 0.133634
H	-1.2294976277	 0.2130022883	 0.15940942	 0.096361
H	-0.5332741622	-1.3969055922	-1.465403868	 0.107592
H	 0.5021433074	-0.0648573309	-2.0483994136	 0.122708
H	 2.3172594315	-1.290516637	 1.0900890541	 0.101574
H	 0.0474292926	-3.3340323877	 0.4698845534	 0.078785
45.8843	72.443	145.419	241.3256	282.5712	342.9601	364.2527	404.94	473.0207	741.0214	767.6409	827.6439	900.8757	940.5833	961.2257	999.3955	1030.6036	1075.778	1086.4028	1103.4915	1151.5418	1173.1723	1237.7512	1306.6465	1324.4101	1336.014	1374.07	1389.8325	1409.1943	1413.2523	1489.0189	1495.6944	1518.4808	1848.4894	2884.8715	3015.7489	3028.9856	3040.0148	3068.6239	3103.7506	3112.7268	3126.4467
CC1COC(O1)C=O	C[C@H]1CO[C@@H](O1)C=O	
InChI=1S/C5H8O3/c1-4-3-7-5(2-6)8-4/h2,4-5H,3H2,1H3	InChI=1S/C5H8O3/c1-4-3-7-5(2-6)8-4/h2,4-5H,3H2,1H3/t4-,5-/m0/s1
