22
gdb 83267	1.85638	1.76381	1.50501	2.4365	81.82	-0.2123	0.0651	0.2774	1084.6614	0.194038	-404.330734	-404.321324	-404.32038	-404.364246	36.152	
C	 0.2035870477	 1.5557692766	 0.0058691979	-0.329003
N	 0.1826653114	 0.0949560445	 0.0109903227	-0.124096
C	 1.2881066583	-0.7416519177	-0.4312551407	-0.083735
C	 2.6903412211	-0.1495633163	-0.5107322025	-0.236448
C	 2.9477424137	 0.4950623563	 0.8709223462	-0.277319
C	 1.9630602824	-0.1912811666	 1.8483753367	 0.078304
O	 1.421902948	 0.673065599	 2.8446026945	-0.438663
C	 0.8317641201	-0.7595038873	 0.9974967576	 0.328296
C	-0.0307395432	-1.8269658568	 1.6281984452	-0.476006
H	 1.0767009001	 1.9801193766	-0.5060043018	 0.10585
H	-0.6867368323	 1.9152081119	-0.5220581003	 0.114862
H	 0.1833789487	 1.9439344809	 1.0269151693	 0.142387
H	 1.0269622892	-1.5294477233	-1.1361806915	 0.078308
H	 3.4006526173	-0.9607177235	-0.7065743151	 0.103142
H	 2.8025887837	 0.5670545259	-1.3328688112	 0.104436
H	 3.9873912837	 0.377881227	 1.190690699	 0.092716
H	 2.7351362245	 1.5666025551	 0.8597603494	 0.111935
H	 2.462035365	-1.0437909651	 2.3382097183	 0.064677
H	 2.1398984303	 0.956234346	 3.4192344643	 0.283061
H	-0.5377631711	-1.4299197209	 2.5142493488	 0.129381
H	-0.7913540156	-2.1677246464	 0.9224241374	 0.122564
H	 0.570325407	-2.6876609159	 1.9442073958	 0.105352
101.694	136.6198	188.5814	217.1982	227.6829	256.8762	267.2343	299.2937	345.9829	426.0711	487.0489	552.215	575.652	689.1156	712.6407	752.2316	822.8073	879.5008	906.6784	951.8837	995.1497	1015.151	1050.3661	1078.122	1084.7066	1117.0706	1149.0329	1156.723	1166.5672	1200.4616	1226.9417	1243.6491	1250.2261	1294.4395	1331.017	1333.1628	1354.3343	1401.291	1418.834	1436.1562	1469.4105	1481.9659	1488.6067	1496.6307	1499.3164	1508.061	1526.3722	2957.1081	3014.4251	3029.4286	3032.8256	3060.3905	3062.8934	3065.0583	3090.861	3109.1982	3114.3053	3120.2889	3126.3348	3818.8358
CN1C2CCC(O)C12C	CN1[C@H]2CC[C@@H](O)[C@@]12C	
InChI=1S/C7H13NO/c1-7-5(8(7)2)3-4-6(7)9/h5-6,9H,3-4H2,1-2H3	InChI=1S/C7H13NO/c1-7-5(8(7)2)3-4-6(7)9/h5-6,9H,3-4H2,1-2H3/t5-,6+,7-,8?/m0/s1
