25
gdb 113708	2.72171	1.05816	0.96945	1.1523	89.78	-0.2439	0.0809	0.3247	1421.1239	0.226187	-389.472922	-389.462015	-389.461071	-389.508305	41.291	
C	-0.0737452554	 1.2718609374	-0.7080294078	-0.231944
O	-0.0823992884	 0.2394947211	 0.257310421	-0.230981
C	-1.3008121836	-0.4367503339	 0.3146950939	 0.107978
C	-1.5859657271	-1.5559144513	-0.6611011037	-0.352086
C	-1.3207920904	-1.8545485013	 0.8044111371	-0.040616
C	-0.1088348241	-2.632625357	 1.3387030015	 0.26012
C	 1.0918281336	-2.6474596959	 0.3752713017	-0.426094
C	 0.3177846994	-1.9953379165	 2.677154271	-0.399825
C	-0.5571955275	-4.08752476	 1.5843436011	-0.402231
H	 0.9089944087	 1.7472054473	-0.6650326802	 0.126212
H	-0.2437874638	 0.8811613373	-1.721417691	 0.110081
H	-0.844903682	 2.0278229333	-0.4950803318	 0.106363
H	-2.1347929378	 0.2063722569	 0.6035276465	 0.080147
H	-2.588468681	-1.678416832	-1.0572392692	 0.105524
H	-0.7920304198	-1.7845777157	-1.363202719	 0.119025
H	-2.216834581	-2.0793915777	 1.3804081094	 0.080403
H	 1.4188019445	-1.6363247528	 0.1286178302	 0.132273
H	 1.930141883	-3.1780208023	 0.8398870406	 0.102001
H	 0.8515246044	-3.1719537897	-0.5555484057	 0.104005
H	-0.5196253298	-1.9643325425	 3.3835818641	 0.099935
H	 1.1251615701	-2.5708539299	 3.1437849773	 0.100306
H	 0.6673099564	-0.9710088205	 2.5223937112	 0.130645
H	-0.9075040504	-4.5540343381	 0.6572997531	 0.110025
H	 0.2723081899	-4.6891236865	 1.9718175989	 0.105059
H	-1.3731244477	-4.13566059	 2.3142239798	 0.103676
62.6247	102.2477	140.3611	196.9002	216.4228	239.9436	265.2881	278.923	303.2793	311.0249	339.6609	386.2222	393.6459	443.0743	505.0053	631.0344	694.5912	790.5315	837.1976	867.2372	931.763	935.7315	963.0216	989.3356	1001.0644	1024.4142	1055.1602	1060.2592	1092.3039	1112.975	1140.6608	1177.84	1185.2004	1220.1759	1228.9814	1243.4359	1263.3005	1299.2265	1379.9828	1393.6295	1395.788	1406.5081	1430.9481	1473.0032	1479.6691	1485.0799	1487.1803	1489.642	1497.4758	1505.064	1505.6229	1511.9272	1527.8161	2982.983	3020.5745	3025.9292	3034.9537	3036.3797	3073.102	3085.6285	3089.3771	3091.8042	3096.8621	3115.1927	3117.1242	3118.163	3132.8376	3142.9224	3221.1676
COC1CC1C(C)(C)C	CO[C@H]1C[C@H]1C(C)(C)C	
InChI=1S/C8H16O/c1-8(2,3)6-5-7(6)9-4/h6-7H,5H2,1-4H3	InChI=1S/C8H16O/c1-8(2,3)6-5-7(6)9-4/h6-7H,5H2,1-4H3/t6-,7+/m1/s1
