14
gdb 31302	2.42876	1.49985	0.93461	3.991	74.86	-0.219	-0.0385	0.1805	1174.4759	0.102354	-432.907799	-432.899564	-432.89862	-432.941401	28.652	
C	-0.0524576163	 1.5059734172	 0.0975275732	-0.329983
N	 0.1568392398	 0.0739869282	-0.0409980823	-0.399718
C	 0.6647606999	-0.6781681706	 0.965981322	 0.280807
C	 0.6953679127	-2.0532135731	 1.1046858306	 0.150586
O	 1.3751655941	-2.3257376938	 2.2867754014	-0.173862
C	 1.6902924066	-1.1220788076	 2.7662174937	 0.087613
N	 1.3070885727	-0.1092085538	 2.0514354784	-0.312351
C	 0.1952754423	-3.0928657627	 0.3180403552	 0.200442
N	-0.2476868904	-3.9111000144	-0.3781773031	-0.362086
H	 0.8341596763	 1.9601504082	 0.5417488295	 0.165596
H	-0.2078111708	 1.9343532111	-0.8948510377	 0.134324
H	-0.9171574597	 1.7518594581	 0.7288081966	 0.129135
H	-0.4272345001	-0.4138408684	-0.7015574083	 0.263463
H	 2.2307199729	-1.0956050183	 3.7001808606	 0.166035
81.7238	102.9105	121.1593	162.6047	241.0078	305.4167	411.9423	480.4611	523.874	557.6414	628.4271	630.9603	751.1278	762.942	871.8833	956.4673	1034.4446	1104.174	1150.1685	1180.1085	1205.3879	1237.5303	1326.7826	1432.2472	1459.2482	1476.2126	1489.5201	1517.9969	1557.1787	1678.7494	2314.2376	3012.8248	3103.8275	3150.8151	3272.5526	3633.7215
CNC1=C(OC=N1)C#N	CNc1c(ocn1)C#N	
InChI=1S/C5H5N3O/c1-7-5-4(2-6)9-3-8-5/h3,7H,1H3	InChI=1S/C5H5N3O/c1-7-5-4(2-6)9-3-8-5/h3,7H,1H3
