21
gdb 93863	2.00208	1.69666	1.40864	1.6365	78.3	-0.2401	0.0713	0.3113	1081.5217	0.182135	-424.216266	-424.207247	-424.206302	-424.249741	34.734	
C	 0.3507187957	 1.7589015534	 0.088144243	-0.391157
C	 0.1793905553	 0.2426210516	 0.0853583457	 0.06766
O	 0.866779076	-0.2887968523	-1.061563136	-0.278575
C	 1.7997589102	-1.2778483536	-0.6602920409	-0.096739
C	 2.1370549619	-0.9804324877	 0.8040926294	 0.019802
O	 3.0848905349	 0.072247355	 0.9547965059	-0.435535
C	 0.791724763	-0.481045691	 1.290343518	 0.362346
C	 0.5618055725	-0.0741801105	 2.7144136201	-0.325429
C	-0.0462763426	-1.3529224154	 2.1936075497	-0.334217
H	 1.4018437526	 2.0148746488	 0.2386842055	 0.135891
H	 0.0165620053	 2.1698205542	-0.869008539	 0.116634
H	-0.2442961796	 2.21974314	 0.8833824859	 0.1037
H	-0.8875950896	-0.0076430773	-0.0069141412	 0.068856
H	 1.372048418	-2.2904441858	-0.7456742197	 0.088703
H	 2.6730854288	-1.2210902928	-1.3216365915	 0.091019
H	 2.4694042163	-1.8810090621	 1.3399408491	 0.062719
H	 3.8758725713	-0.16321126	 0.4590120677	 0.282172
H	 1.4016349599	-0.1376172951	 3.3973333151	 0.122959
H	-0.0996738782	 0.7645271769	 2.903322124	 0.115468
H	-1.1171748197	-1.3739236931	 2.0176322279	 0.113048
H	 0.3679981282	-2.2970585032	 2.5326473015	 0.110674
68.3137	133.458	200.4534	229.5353	251.4971	273.2894	286.006	350.4648	399.0181	437.7841	534.6252	555.0051	734.7158	770.9814	796.6811	863.4782	874.7058	917.8046	938.8189	948.8838	977.0184	1008.7893	1034.3675	1059.0528	1079.6168	1091.3168	1113.6189	1122.3838	1141.115	1188.2167	1198.371	1232.9034	1290.6604	1303.447	1324.7919	1361.163	1374.3486	1385.4653	1400.7519	1437.1355	1469.9818	1486.6062	1496.0144	1507.495	1509.6314	2965.7355	2988.021	3002.5668	3041.0791	3045.9958	3108.834	3123.0328	3136.0649	3137.3895	3203.5884	3222.0479	3813.7416
CC1OCC(O)C11CC1	C[C@H]1OC[C@@H](O)C21CC2	
InChI=1S/C7H12O2/c1-5-7(2-3-7)6(8)4-9-5/h5-6,8H,2-4H2,1H3	InChI=1S/C7H12O2/c1-5-7(2-3-7)6(8)4-9-5/h5-6,8H,2-4H2,1H3/t5-,6-/m1/s1
