16
gdb 70225	3.65092	1.33195	1.13475	5.2855	64.94	-0.2568	0.043	0.2998	1055.567	0.125355	-475.044965	-475.037283	-475.036339	-475.076995	29.819	
O	-0.0031973788	 1.390210406	-0.433346988	-0.459977
C	-0.0288970488	 0.0581317944	-0.0192693037	 0.346585
C	-0.4888660741	-1.0194107911	-0.9826019448	-0.384656
C	-1.3711555814	-0.5602891103	 0.1575059758	 0.087577
O	-1.6444354408	-1.3921761351	 1.2609118515	-0.23751
C	-0.6393729353	-1.9833078543	 1.9636465792	 0.454326
O	-0.88898916	-2.8358309821	 2.7759282546	-0.381516
N	 0.6385395118	-1.5750498599	 1.6534986103	-0.374993
C	 0.9797274086	-0.2930953756	 1.0553956022	-0.232975
H	 0.7101448269	 1.4929041004	-1.0737121767	 0.288687
H	-0.7847411753	-0.70435688	-1.9769558274	 0.126651
H	-0.0274201957	-1.9981250948	-0.9149010871	 0.139063
H	-2.2469828159	 0.0307034043	-0.0788367869	 0.130367
H	 1.3205937742	-1.9953976735	 2.2658807378	 0.261463
H	 1.9929927292	-0.3626902404	 0.6403401073	 0.110858
H	 0.9774488955	 0.5260145618	 1.7895720857	 0.12605
101.4185	170.1713	241.6735	297.4579	349.369	366.4633	401.9254	466.6601	505.6231	572.728	599.46	691.753	765.5911	781.4181	801.4716	910.1049	921.9563	935.6782	1013.6968	1039.8612	1060.1708	1101.0274	1117.5933	1187.0806	1227.284	1245.9966	1280.1223	1315.9297	1349.5836	1405.8539	1415.1285	1479.0802	1490.528	1528.692	1851.6674	2995.5583	3040.5827	3139.84	3200.135	3236.3444	3631.6994	3790.2393
OC12CC1OC(=O)NC2	O[C@]12C[C@H]1OC(=O)NC2	
InChI=1S/C5H7NO3/c7-4-6-2-5(8)1-3(5)9-4/h3,8H,1-2H2,(H,6,7)	InChI=1S/C5H7NO3/c7-4-6-2-5(8)1-3(5)9-4/h3,8H,1-2H2,(H,6,7)/t3-,5+/m1/s1
