17
gdb 45150	2.92437	1.52996	1.17265	3.3915	73.25	-0.2389	-0.0302	0.2087	1054.6554	0.136206	-417.939835	-417.932322	-417.931378	-417.972302	28.963	
O	 0.3097310977	 0.0644151866	-0.5808160486	-0.278612
C	 0.1403098029	 1.1636972498	-0.1507271292	 0.408544
C	-1.0530730468	 1.9402446257	 0.4407785327	-0.307783
N	-0.2148686347	 3.1789982732	 0.5223745541	-0.125447
C	 0.470924222	 3.3209805932	 1.8505805512	-0.265207
C	 1.7281201414	 2.6349810602	 1.3023974508	 0.341482
C	 3.1445645092	 2.9728734898	 1.5565881274	-0.304833
N	 2.5956869907	 1.6574337031	 1.9383574939	-0.346115
C	 0.9986212269	 2.4342717059	-0.0309417663	-0.204421
H	-1.890301216	 2.0471213494	-0.2577183096	 0.141045
H	-1.4424508652	 1.5697132726	 1.3961129134	 0.128807
H	 0.5980800388	 4.3689358197	 2.1388575942	 0.118287
H	-0.0351039824	 2.7920767782	 2.6682366298	 0.105211
H	 3.867580109	 2.9457784982	 0.7457176843	 0.128714
H	 3.3572199186	 3.7033940652	 2.3339696936	 0.117981
H	 2.4141532201	 1.6184372493	 2.9387373298	 0.235342
H	 1.4797525679	 2.79957706	-0.9420920913	 0.107004
62.5681	105.2215	244.1404	319.0431	369.195	403.4688	428.4962	509.6244	560.9895	668.444	756.4234	815.7769	855.3712	878.1706	909.6123	921.4268	939.6883	966.0535	978.7486	1028.2033	1044.2324	1081.1984	1100.0649	1134.7233	1154.8092	1175.9161	1194.2435	1227.1548	1253.3911	1261.285	1279.3641	1293.5177	1413.8857	1452.5101	1498.2822	1512.8942	1905.8359	3019.651	3034.8384	3076.9877	3081.2738	3084.4998	3101.8305	3188.7978	3495.5931
O=C1CN2CC3(CN3)C12	O=C1CN2C[C@]3(CN3)[C@@H]12	
InChI=1S/C6H8N2O/c9-4-1-8-3-6(2-7-6)5(4)8/h5,7H,1-3H2	InChI=1S/C6H8N2O/c9-4-1-8-3-6(2-7-6)5(4)8/h5,7H,1-3H2/t5-,6-/m1/s1
