17
gdb 57820	3.7922	0.58022	0.53414	4.7461	75.57	-0.2742	-0.0041	0.2701	2021.1941	0.132466	-458.945212	-458.934772	-458.933828	-458.98335	34.983	
C	 0.1099299693	 1.197509836	-0.3069730723	-0.38941
C	-0.1330484868	-0.2642257824	 0.0947186526	-0.023662
O	 0.4836886413	-0.5824689322	 1.3380014297	-0.408586
C	-1.5644684523	-0.5905757719	 0.0952850474	 0.077608
C	-2.7435429437	-0.8363447261	 0.1216453726	 0.062153
C	-4.1623099166	-1.1623841811	 0.14603944	-0.249436
O	-4.4601126574	-2.4076181277	-0.5132515836	-0.166676
C	-4.2714116471	-3.5322151565	 0.2097079593	 0.183828
O	-4.45573953	-4.6207164414	-0.2413283923	-0.265764
H	 1.1836470489	 1.4006367249	-0.2976407914	 0.131672
H	-0.284937211	 1.3980732353	-1.3069174295	 0.130818
H	-0.383603475	 1.8763551334	 0.396303083	 0.117909
H	 0.3661451446	-0.9166476035	-0.6317659904	 0.130089
H	 0.0220936854	-0.0909043836	 2.0266863808	 0.283362
H	-4.5327579237	-1.1896554723	 1.1794278321	 0.142578
H	-4.7477933353	-0.4127750137	-0.3926459451	 0.159412
H	-3.9452280205	-3.3295330572	 1.2482529172	 0.084106
18.1403	35.7648	95.7711	112.7075	150.6429	210.67	254.1751	279.3918	315.7289	349.0514	388.9378	482.8313	548.268	568.2808	677.8721	740.9335	898.3971	983.7099	1011.2963	1031.0335	1044.2094	1066.9422	1100.581	1147.3571	1175.0575	1284.6569	1296.5601	1333.8325	1389.2828	1400.4112	1415.9148	1433.36	1483.6255	1488.6621	1491.4928	1873.4883	2358.6776	2953.1375	3024.4411	3039.3655	3045.317	3095.9656	3115.4416	3131.2947	3803.2055
CC(O)C#CCOC=O	C[C@@H](O)C#CCOC=O	
InChI=1S/C6H8O3/c1-6(8)3-2-4-9-5-7/h5-6,8H,4H2,1H3	InChI=1S/C6H8O3/c1-6(8)3-2-4-9-5-7/h5-6,8H,4H2,1H3/t6-/m1/s1
