19
gdb 47406	2.65868	1.53162	1.18232	1.8569	75.3	-0.2394	-0.0267	0.2127	1093.1416	0.15997	-423.035974	-423.027901	-423.026957	-423.068975	30.579	
O	-0.3644081576	 0.1055379272	 0.4515202088	-0.31781
C	-0.1885494759	 1.274114858	 0.2214468062	 0.302385
C	-1.2658405068	 2.3276678472	-0.049776387	-0.183109
O	-0.5695566658	 3.50921696	-0.396454722	-0.252001
C	 0.7090919792	 3.4563517231	 0.2428035974	-0.170053
C	 1.1490573368	 1.9968466809	 0.1483238861	 0.239321
C	 2.3076288083	 1.4945485255	 1.0453244382	-0.284783
C	 3.2584557007	 1.5198095682	-0.1809528442	-0.207878
C	 2.0180438013	 1.6261280829	-1.1066811255	-0.265188
H	-1.9313519121	 2.0371244732	-0.8678192569	 0.139553
H	-1.8751423487	 2.455085994	 0.8612228165	 0.119512
H	 1.3641142713	 4.1603899384	-0.2762971902	 0.116208
H	 0.6280941289	 3.7673816782	 1.2983858418	 0.092977
H	 2.5675857321	 2.1240707411	 1.90069525	 0.101023
H	 2.1004893043	 0.4801676738	 1.3973999864	 0.12613
H	 3.8747349064	 2.4223454507	-0.2095582719	 0.105521
H	 3.9079499275	 0.6539710201	-0.3242533254	 0.10671
H	 1.7256660309	 0.6577197301	-1.5203215752	 0.120699
H	 2.0366734392	 2.3665413772	-1.909848523	 0.110783
78.3459	101.1026	189.3324	191.3176	263.9639	352.7753	393.5545	553.184	568.3249	636.0218	667.5053	727.4568	785.755	857.8285	874.7656	927.5325	946.182	951.3211	960.7091	992.9989	1052.7555	1065.7863	1095.8312	1127.8237	1196.3355	1199.6603	1215.8471	1229.9574	1259.6009	1261.131	1275.8603	1282.0653	1294.954	1324.0385	1387.3399	1470.7677	1474.8228	1481.0453	1501.1291	1514.7172	1848.8084	2959.904	2969.8008	3053.8505	3060.7851	3065.8218	3087.9111	3095.2376	3103.1248	3114.531	3127.3004
O=C1COCC11CCC1	O=C1COCC21CCC2	
InChI=1S/C7H10O2/c8-6-4-9-5-7(6)2-1-3-7/h1-5H2	InChI=1S/C7H10O2/c8-6-4-9-5-7(6)2-1-3-7/h1-5H2
