15
gdb 18360	3.51669	2.25109	1.69672	2.5997	60.85	-0.2571	0.0077	0.2648	771.5351	0.120459	-399.765417	-399.758933	-399.757989	-399.795896	25.197	
O	 0.1578364451	 1.4450434427	 0.0057199199	-0.432203
C	 0.0880754777	 0.0345615052	-0.0462223863	 0.085836
C	 0.5123775584	-0.6185830142	 1.3235966367	-0.197467
N	-0.708359501	-0.551605229	 2.1940082827	-0.314502
C	-1.6370457375	-0.5577361817	 1.3363917204	 0.412602
O	-2.9347686016	-0.133719046	 1.2995018914	-0.272668
C	-2.7127352044	 0.242475181	-0.1274169899	-0.132626
C	-1.3595684327	-0.5177987599	-0.1244838339	-0.156555
H	-0.1561714716	 1.7269847118	 0.8733421804	 0.29517
H	 0.7183530765	-0.271662995	-0.8844671273	 0.092605
H	 0.8571720798	-1.6522066577	 1.1920536071	 0.112518
H	 1.3228975824	-0.0501086469	 1.7880772759	 0.122041
H	-3.5051544882	-0.1609292687	-0.7579874182	 0.133161
H	-2.6386654507	 1.3279692187	-0.2131020182	 0.140808
H	-1.4094649619	-1.4780604203	-0.6422048707	 0.11128
134.961	220.359	273.8251	371.2892	386.6752	474.7746	515.6467	688.8547	716.0325	760.6958	810.0663	822.3873	900.038	947.7326	968.6062	978.2616	998.5398	1070.4828	1113.5203	1142.8372	1147.6699	1189.3986	1211.9253	1245.651	1281.5115	1292.0383	1335.3699	1367.2674	1428.5175	1487.0948	1499.3007	1756.374	3028.3508	3082.8279	3086.6507	3096.9992	3098.7245	3156.686	3787.3582
OC1CN=C2OCC12	O[C@H]1C[N][C]2OC[C@@H]12	
InChI=1S/C5H7NO2/c7-4-1-6-5-3(4)2-8-5/h3-4,7H,1-2H2	InChI=1S/C5H7NO2/c7-4-1-6-5-3(4)2-8-5/h3-4,7H,1-2H2/t3-,4-/m0/s1
