17
gdb 35010	2.81701	1.30743	1.08329	0.7408	87.84	-0.2352	0.0219	0.2571	1155.0479	0.134154	-347.460899	-347.452407	-347.451463	-347.49369	33.089	
C	 0.0476320186	-1.1905810265	-0.0068803025	-0.44774
C	 0.0528378366	 0.0122221915	 0.0281088498	 0.337607
C	 0.0648875381	 1.4458605557	 0.0697001224	-0.266068
C	 0.4904281537	 2.2460383757	 1.2793678793	-0.114623
C	 1.5973133887	 1.5253404174	 2.0521193927	-0.237909
C	 2.4822349855	 1.5263885467	 0.7640088294	-0.294597
C	 1.3602807164	 2.2653519828	 0.0080111292	 0.18667
C	 1.5453495266	 3.2849785321	-0.965454858	 0.161305
C	 1.7218644526	 4.1476905287	-1.7866664255	-0.39609
H	 0.0355179428	-2.2516857104	-0.0427632243	 0.19762
H	-0.7365263503	 1.9212525926	-0.48942202	 0.124812
H	-0.1475759129	 3.0349480293	 1.6592493482	 0.103536
H	 2.023142133	 2.1409842296	 2.8461614239	 0.109614
H	 1.3272501707	 0.5482482698	 2.4604305319	 0.11651
H	 3.3747730171	 2.1441583327	 0.8699355039	 0.11729
H	 2.7596468116	 0.5534721233	 0.3517401367	 0.115653
H	 1.8738057913	 4.9072279691	-2.512595817	 0.18641
103.388	137.0201	166.5396	184.8992	299.569	351.8334	455.1004	496.6312	521.5	555.8333	573.9148	594.5137	619.1869	648.687	655.3788	752.0909	791.4214	812.1587	872.0158	937.2329	951.7416	979.6886	1034.4443	1058.3112	1085.1847	1137.8519	1200.2274	1215.5699	1238.5732	1244.5902	1286.4988	1326.984	1422.0985	1474.2845	1497.1686	2228.1112	2233.0289	3067.8957	3074.4284	3118.1524	3137.546	3150.0325	3188.1412	3503.4256	3504.0069
C#CC1C2CCC12C#C	C#C[C@H]1[C@H]2CC[C@@]12C#C	
InChI=1S/C9H8/c1-3-7-8-5-6-9(7,8)4-2/h1-2,7-8H,5-6H2	InChI=1S/C9H8/c1-3-7-8-5-6-9(7,8)4-2/h1-2,7-8H,5-6H2/t7-,8+,9-/m0/s1
