20
gdb 110556	3.08144	1.27233	1.06569	3.0246	79.88	-0.2272	0.0692	0.2963	1193.081	0.170294	-403.042189	-403.033588	-403.032644	-403.075572	32.848	
C	-0.078699899	 1.5573239665	-0.3082139765	-0.530454
C	-0.037502395	 0.058270041	-0.1349589289	 0.308079
C	 0.3715913374	-0.978572828	-1.1777462487	-0.218429
N	 0.0506347431	-1.8969889681	-0.0099361648	-0.162252
C	 0.6315417252	-0.8413092409	 0.9681067811	-0.089468
C	-0.6203099315	-0.9585926098	 1.8503557129	 0.031992
C	-1.0166974834	 0.122031601	 2.8327251103	-0.133707
O	-2.3693416235	-0.1213351202	 3.1990656793	-0.419285
C	-1.1160297025	-0.9557436069	 0.3971394595	-0.055696
H	 0.913499241	 1.9374116163	-0.5776017296	 0.121852
H	-0.7658395812	 1.8274380732	-1.118209674	 0.124101
H	-0.4042822171	 2.0838823925	 0.5924533159	 0.125239
H	-0.2847238283	-1.1270785362	-2.0430026483	 0.095003
H	 1.4229437724	-1.0146790207	-1.4863733791	 0.093199
H	 1.6883678314	-0.8779618689	 1.2449176846	 0.075058
H	-0.7174203684	-1.9447360361	 2.317643806	 0.091518
H	-0.3509249266	 0.0723898902	 3.7100589149	 0.087667
H	-0.9010971691	 1.1234040962	 2.3954383439	 0.086204
H	-2.6211364578	 0.5238365269	 3.8662051662	 0.287266
H	-2.1201997269	-1.1262244881	 0.0044511151	 0.082115
62.4282	137.7605	167.7895	211.681	264.9751	295.1184	316.1718	384.4017	470.4209	533.4726	634.8788	707.2914	762.688	844.1074	854.3647	859.6587	900.3122	934.7535	938.9658	1012.2834	1023.149	1057.6016	1064.1765	1078.4977	1106.7465	1125.0784	1151.2978	1157.5994	1189.795	1210.4037	1219.8451	1250.7041	1254.0725	1268.2308	1281.4945	1348.064	1394.2207	1408.0743	1466.1319	1485.2904	1490.1249	1519.7752	1521.1129	2967.6045	3016.1326	3022.2072	3030.2071	3058.2592	3079.0195	3080.2694	3088.1711	3100.3154	3114.2281	3828.93
CC12CN3C1C(CO)C23	C[C@@]12CN3[C@@H]1[C@@H](CO)[C@@H]23	
InChI=1S/C7H11NO/c1-7-3-8-5(7)4(2-9)6(7)8/h4-6,9H,2-3H2,1H3	InChI=1S/C7H11NO/c1-7-3-8-5(7)4(2-9)6(7)8/h4-6,9H,2-3H2,1H3/t4-,5-,6+,7-
