18
gdb 22842	2.90062	1.29937	0.96711	1.4173	78.1	-0.2398	0.0009	0.2408	1210.0817	0.148124	-439.03505	-439.026691	-439.025747	-439.068392	31.606	
O	-0.2547750841	 1.5250224028	 0.2482357804	-0.39524
N	 0.0677121454	 0.1796506647	 0.0242653693	-0.17375
C	-0.9545908638	-0.5874369579	-0.0024482011	 0.367716
C	-2.3896431003	-0.1289953387	 0.1101710236	-0.179936
O	-2.9908599585	-0.1180606304	-1.1768257518	-0.235918
C	-3.5787630073	-1.3322237983	-1.5825434007	-0.124429
C	-2.6888887735	-2.540346912	-1.721290062	-0.06325
C	-1.5110606067	-2.826126189	-1.167851086	-0.058194
C	-0.6625860022	-2.0521181597	-0.1892531477	-0.336458
H	 0.6114126963	 1.9441180813	 0.2205119098	 0.307758
H	-2.9479833152	-0.783172825	 0.7974583492	 0.094453
H	-2.4302596156	 0.8929632865	 0.4851415802	 0.140001
H	-4.4141689459	-1.5940867985	-0.9042800256	 0.098466
H	-4.0318363522	-1.1153278156	-2.5568744751	 0.120162
H	-3.1333907107	-3.306169697	-2.3563203712	 0.090214
H	-1.0879266036	-3.8009390118	-1.4044695578	 0.094042
H	 0.3953387879	-2.1543495301	-0.4516596789	 0.129461
H	-0.768089	-2.5517065713	 0.7896279654	 0.124904
65.582	83.9164	229.7045	287.6156	301.854	329.0799	389.8677	399.8996	408.041	490.8471	570.6016	665.1205	677.8873	792.4334	833.0123	888.7981	920.0493	937.0753	973.9866	1002.0861	1025.5136	1033.6873	1059.2073	1164.7694	1211.9064	1246.8141	1269.6993	1291.5768	1326.4804	1357.1081	1388.4764	1410.217	1418.9129	1432.5026	1458.9075	1476.068	1493.9385	1726.2658	1744.3396	2917.9346	2961.7182	2989.6185	3055.45	3072.8313	3122.9398	3140.6999	3147.7889	3825.9213
ON=C1COCC=CC1	ON=C1COCC=CC1	
InChI=1S/C6H9NO2/c8-7-6-3-1-2-4-9-5-6/h1-2,8H,3-5H2	InChI=1S/C6H9NO2/c8-7-6-3-1-2-4-9-5-6/h1-2,8H,3-5H2
