19
gdb 114558	2.70174	1.55775	1.21338	0.7048	71.42	-0.2505	0.0814	0.3319	1079.4947	0.159245	-460.13529	-460.127073	-460.126129	-460.167907	32.011	
C	 0.0636971563	 1.2972319644	 0.0723574918	-0.248013
O	-0.0607885597	-0.1047237543	-0.0977613903	-0.262186
C	 0.6679664126	-0.6125588304	-1.1735525168	 0.18301
O	 2.0836125669	-0.5779515278	-0.9769693373	-0.297362
C	 2.4072568071	-1.9919880229	-0.9745971839	 0.091186
C	 1.3234899451	-2.607180423	-0.064704764	-0.29906
C	 0.4315098213	-2.1286950901	-1.2672875632	 0.353512
O	-0.8633847396	-2.5510761516	-1.5121559046	-0.488188
C	 1.6102586447	-2.5315016216	-2.1915412033	-0.278054
H	 1.0980659994	 1.5759279667	 0.3038163019	 0.133632
H	-0.2569207839	 1.8380155636	-0.8303803768	 0.109773
H	-0.5837586884	 1.5787430837	 0.905360198	 0.127887
H	 0.4148599091	-0.0582507588	-2.0909270942	 0.068555
H	 3.4768792552	-2.1263614678	-0.8377702623	 0.087621
H	 1.3714792796	-3.6955122894	-0.0085633129	 0.103846
H	 1.1664586488	-2.1511909802	 0.9126656676	 0.111099
H	-1.4392407835	-2.0373338812	-0.9318120752	 0.288178
H	 1.7284033467	-2.0084583708	-3.1432997346	 0.103257
H	 1.6872351824	-3.6123679487	-2.3192367699	 0.111306
97.0253	161.244	171.233	226.2781	303.4957	362.5358	383.8696	438.2711	496.1607	527.8875	566.5202	645.4103	694.66	824.3942	870.1205	908.4894	938.0679	954.0143	968.8939	988.343	1021.5644	1040.8722	1056.656	1112.704	1143.727	1155.5612	1181.2284	1191.0892	1225.5191	1233.9344	1237.6873	1260.5756	1309.4941	1367.0018	1390.0631	1407.9425	1470.0579	1479.7806	1485.2828	1510.7034	1515.2622	2983.3761	2996.8586	3069.538	3071.3969	3087.485	3127.348	3140.8124	3159.7891	3160.456	3779.9009
COC1OC2CC1(O)C2	CO[C@H]1O[C@H]2C[C@]1(O)C2	
InChI=1S/C6H10O3/c1-8-5-6(7)2-4(3-6)9-5/h4-5,7H,2-3H2,1H3	InChI=1S/C6H10O3/c1-8-5-6(7)2-4(3-6)9-5/h4-5,7H,2-3H2,1H3/t4-,5-,6-/m0/s1
