22
gdb 100089	2.44443	1.03301	0.98147	6.3316	78.31	-0.2448	0.0308	0.2756	1373.0342	0.193081	-441.534137	-441.523876	-441.522932	-441.569199	38.565	
C	 0.1479345428	 1.5557834505	 0.2899800261	-0.41343
C	-0.0681314577	 0.045146865	 0.1388986816	-0.174852
C	-1.5345234713	-0.4339305425	 0.0189719208	 0.209192
C	-2.3728924411	 0.0062305037	 1.2310089572	-0.416266
N	-2.1029751313	 0.0887970278	-1.2538442995	-0.543831
H	-1.3132654099	-1.1241709511	-2.2588190949	 0.313724
H	-3.1116573578	-0.0416447742	-1.2631378885	 0.238884
H	-1.9393516014	 1.0871641797	-1.3369151121	 0.240629
C	-1.5664908622	-1.9790366017	-0.0764805434	-0.338248
C	-0.7731344847	-2.6230015989	-1.222795985	 0.389888
O	-0.8115551112	-1.9721766479	-2.3934385055	-0.375887
O	-0.1852755459	-3.6644698525	-1.0890091835	-0.333741
H	 1.2179909816	 1.7728658794	 0.3562416892	 0.129731
H	-0.2326406281	 2.1235952975	-0.5669984494	 0.113641
H	-0.3233126487	 1.9551930017	 1.1926979392	 0.124247
H	 0.4807177527	-0.3064286373	-0.7411608673	 0.124892
H	 0.3734409228	-0.4657495663	 1.0020916763	 0.111165
H	-2.4473332271	 1.0959990766	 1.2912170253	 0.116063
H	-3.3905091687	-0.3941194914	 1.1609632441	 0.111968
H	-1.9384010126	-0.355790958	 2.1686339619	 0.125262
H	-1.2006719008	-2.4244284842	 0.8507604915	 0.13069
H	-2.6108624696	-2.3022634357	-0.1897189839	 0.116278
69.9039	90.1112	120.5292	206.941	225.3345	256.6469	289.7297	303.9987	349.9032	379.441	389.1792	414.6931	450.6901	543.2889	596.1006	687.6977	753.2558	782.6667	872.2089	882.5066	936.6942	947.4763	962.5873	991.9156	1013.6197	1020.5657	1074.3403	1093.6378	1152.827	1193.1697	1247.9723	1271.7251	1319.3641	1328.861	1355.6063	1387.7565	1411.4505	1417.9227	1462.3601	1480.228	1492.16	1497.7072	1499.4767	1502.6378	1511.0278	1647.9328	1856.166	3020.6855	3029.1796	3034.8095	3042.829	3078.5285	3095.2551	3099.6519	3107.3782	3116.5592	3117.1429	3208.4289	3489.2424	3571.2714
CCC(C)([NH3+])CC([O-])=O	CC[C@@](C)(N)CC(=O)O	
InChI=1S/C6H13NO2/c1-3-6(2,7)4-5(8)9/h3-4,7H2,1-2H3,(H,8,9)	InChI=1S/C6H13NO2/c1-3-6(2,7)4-5(8)9/h3-4,7H2,1-2H3,(H,8,9)/t6-/m1/s1
