20
gdb 87559	2.7072	1.43454	1.20397	1.9015	79.17	-0.2292	0.0795	0.3087	1124.6106	0.169483	-403.073768	-403.065119	-403.064175	-403.10665	33.425	
C	 0.0131753766	 1.6308303926	-0.109448622	-0.408661
C	 0.0441969684	 0.1129637893	-0.0024781912	-0.110124
C	 1.0627016668	-0.6392144544	-0.8895401902	 0.020633
O	 2.3747904638	-0.2447666839	-0.475088466	-0.246056
C	 1.7021891567	-1.2725160146	 0.2741430908	-0.081189
C	 0.7512568442	-0.5600116065	 1.2179545352	 0.361162
C	 0.9793142762	-0.0518640052	 2.5905714119	-0.313859
N	 0.1253213523	-1.2194176528	 2.3475786557	-0.143512
C	-1.3058471895	-1.0415447372	 2.5464136518	-0.317119
H	 1.0261336115	 2.0339817773	-0.030471427	 0.13696
H	-0.4115672944	 1.9488779198	-1.0681194092	 0.114293
H	-0.5954428544	 2.0747807691	 0.6852699618	 0.113996
H	-0.9561228213	-0.3163348764	-0.1329336638	 0.08277
H	 0.9453394981	-0.9889682684	-1.9088163818	 0.103218
H	 2.1995278683	-2.2276885916	 0.3923866326	 0.109707
H	 1.9151091617	-0.2413310801	 3.1100242628	 0.117755
H	 0.4901850932	 0.8847747399	 2.8581889532	 0.10729
H	-1.67280018	-0.0342038469	 2.2907833785	 0.103542
H	-1.852811994	-1.7704408427	 1.9392560061	 0.123
H	-1.5422946343	-1.2325769373	 3.5976891911	 0.126194
108.787	164.6276	195.417	221.4069	235.648	244.2298	317.0681	390.5977	438.3336	530.7807	569.9414	602.0843	745.0175	808.8017	849.6931	856.3202	861.8582	894.074	932.4796	973.226	1036.0655	1043.5291	1062.2519	1079.6801	1109.2392	1113.5286	1148.8448	1158.9287	1192.0423	1206.0529	1228.1962	1230.3591	1265.5424	1347.5307	1375.0968	1405.1452	1426.9634	1449.261	1491.5568	1492.4575	1497.509	1503.0234	1516.1582	2971.9518	3032.5041	3045.0939	3067.0111	3085.8396	3093.9886	3102.3142	3122.5723	3174.0444	3180.8289	3198.9513
CC1C2OC2C11CN1C	C[C@H]1[C@H]2O[C@H]2[C@]21CN2C	
InChI=1S/C7H11NO/c1-4-5-6(9-5)7(4)3-8(7)2/h4-6H,3H2,1-2H3	InChI=1S/C7H11NO/c1-4-5-6(9-5)7(4)3-8(7)2/h4-6H,3H2,1-2H3/t4-,5+,6+,7+,8?/m0/s1
