24
gdb 58423	1.95093	1.32426	1.22576	1.6746	85.64	-0.2122	0.0702	0.2825	1266.0824	0.213745	-405.521564	-405.510095	-405.509151	-405.557626	42.123	
C	 0.4983173857	 0.4845713371	-1.3134304573	-0.417407
C	-0.0750042002	 0.2868034849	 0.0925015331	 0.078477
O	-0.1458901205	 1.5261435997	 0.8015189009	-0.442173
C	-1.4270939315	-0.4279252717	 0.1012007847	 0.313686
C	-2.5522304723	 0.315426932	-0.6023635539	-0.472391
C	-1.4898395347	-1.9290067487	 0.145709857	-0.039204
C	-0.2847997323	-2.8479675887	 0.1142580607	-0.425005
N	-1.8792624714	-1.1286120591	 1.3103559383	-0.142432
C	-1.0868674273	-1.1290346088	 2.5322690463	-0.318934
H	 1.4711832919	 0.9797066063	-1.2494193366	 0.12318
H	 0.6262013036	-0.473582445	-1.8269893865	 0.12033
H	-0.157726458	 1.1085836084	-1.9302835837	 0.113111
H	 0.6435429114	-0.2962744733	 0.6714529553	 0.080789
H	-0.6935550204	 2.1299310313	 0.2889888065	 0.279031
H	-2.3685460962	 0.4247611321	-1.6763806139	 0.113035
H	-3.4895295716	-0.2277480882	-0.46634325	 0.13129
H	-2.6968254441	 1.3148473154	-0.1745317771	 0.106916
H	-2.352573726	-2.3794989225	-0.3491373498	 0.077677
H	 0.6157506174	-2.4177087581	 0.5548119019	 0.123567
H	-0.5034145599	-3.7780145438	 0.6510041768	 0.123774
H	-0.0503349099	-3.1173702971	-0.9213246396	 0.122397
H	-0.0274575389	-1.3992923618	 2.4210009032	 0.097775
H	-1.1287709515	-0.1301984105	 2.9746221709	 0.137599
H	-1.5351337234	-1.8386386101	 3.2357224228	 0.114911
49.7791	114.7552	154.9398	167.3338	176.7076	209.3246	229.9099	255.9562	269.8705	292.3115	295.8046	300.1356	390.2312	457.0154	517.3153	527.7174	565.8523	696.8248	751.0132	777.9185	891.4786	934.0142	1003.1748	1006.5902	1041.6858	1070.6333	1083.1176	1112.7952	1123.7455	1146.5461	1155.2586	1174.7237	1184.8427	1283.0891	1285.6619	1327.4832	1379.7209	1398.237	1406.3772	1407.7304	1421.2815	1439.4267	1456.7347	1481.9675	1484.4778	1489.9861	1497.2514	1499.1253	1501.9256	1506.8352	1513.0861	2998.9654	3025.8603	3034.6748	3036.4085	3065.6622	3073.4889	3085.8553	3089.6605	3089.9439	3108.4102	3113.7719	3117.5408	3127.3038	3134.1713	3811.8292
CC(O)C1(C)C(C)N1C	C[C@@H](O)[C@@]1(C)[C@@H](C)N1C	
InChI=1S/C7H15NO/c1-5-7(3,6(2)9)8(5)4/h5-6,9H,1-4H3	InChI=1S/C7H15NO/c1-5-7(3,6(2)9)8(5)4/h5-6,9H,1-4H3/t5-,6-,7-,8?/m1/s1
