16
gdb 16998	4.00455	2.28704	1.97364	2.0441	68.31	-0.2288	0.0026	0.2314	740.2982	0.131793	-346.559232	-346.553159	-346.552215	-346.588951	25.019	
C	-0.0381806415	 1.5725543776	 0.1452577833	-0.289268
C	 1.5373911973	 1.6227515028	 0.1542821084	-0.291433
C	 1.5295418943	 0.1231655617	-0.1989081427	 0.281049
O	 0.8066632516	-0.5645408218	 0.8430981564	-0.298139
C	 0.0574520049	 0.0698422543	-0.1912607145	 0.304571
C	-0.4096820345	-0.8295639019	-1.320235791	-0.36371
C	 0.9238624891	-1.3035070111	-1.9028068168	-0.057295
C	 1.9917460545	-0.7472409371	-1.3101833763	-0.173597
H	-0.5527225309	 1.8127555819	 1.0784229843	 0.110847
H	-0.4645371578	 2.165191715	-0.6675888333	 0.108101
H	 1.9382766442	 2.249318012	-0.6451982006	 0.111161
H	 2.0230760379	 1.8808674543	 1.0976663803	 0.111699
H	-1.0285295856	-1.6679680257	-0.9800937412	 0.1265
H	-1.0010102838	-0.2766048205	-2.0606366328	 0.116229
H	 0.9721333196	-2.0614412249	-2.6783892026	 0.10054
H	 3.0262313308	-0.9388618065	-1.5671442607	 0.102745
213.0304	242.3388	319.1953	428.108	494.8023	546.6563	667.403	684.037	739.2657	757.7165	769.5558	845.2404	869.218	910.0098	921.5876	938.0004	950.6837	965.6687	1052.7288	1103.8649	1127.0527	1157.6391	1186.6026	1216.2683	1225.2925	1245.7525	1269.2365	1319.804	1368.5362	1396.7366	1460.5431	1464.459	1484.271	1628.3089	3032.1028	3064.0403	3067.5852	3072.5204	3116.0505	3133.9106	3181.0188	3213.5951
C1CC23OC12CC=C3	C1C[C@@]23O[C@@]12CC=C3	
InChI=1S/C7H8O/c1-2-6-4-5-7(6,3-1)8-6/h1-2H,3-5H2	InChI=1S/C7H8O/c1-2-6-4-5-7(6,3-1)8-6/h1-2H,3-5H2/t6-,7+/m1/s1
