16
gdb 27099	2.72726	1.35515	1.07122	3.5048	72.94	-0.2354	0.006	0.2413	1146.6861	0.125002	-434.100609	-434.091979	-434.091035	-434.135167	30.437	
C	-0.5305852878	 1.3293232413	-0.177043683	-0.491484
C	-0.0062424176	-0.0589498586	-0.0516242042	 0.224985
C	 0.5133363875	-0.8665081333	-1.0099890838	 0.31678
N	 0.7473367515	-0.7109114641	-2.3683181602	-0.407249
C	-0.0761540269	-1.2462432809	-3.3455286978	 0.059917
N	-1.174566102	-1.8206840235	-3.074777681	-0.43524
O	 0.8539395606	-2.0680520312	-0.4153636028	-0.160658
C	 0.5104505843	-1.8991415834	 0.872980877	 0.079812
N	 0.0038517066	-0.7445018937	 1.1613241431	-0.316625
H	 0.0109203375	 2.0128542324	 0.4852532466	 0.13613
H	-0.4352368132	 1.6863048007	-1.2050539167	 0.125678
H	-1.5869363502	 1.3698685049	 0.1075287875	 0.145451
H	 1.6680992281	-0.4246661956	-2.6631941151	 0.255408
H	 0.3407632308	-1.0858649803	-4.3476415406	 0.0934
H	-1.6409522715	-2.1144309721	-3.9296153996	 0.22604
H	 0.6890580022	-2.7308494626	 1.5374023906	 0.147654
26.8104	108.4803	131.5123	168.6836	241.9631	280.2508	340.9393	383.4797	477.7954	605.1773	648.5131	685.9012	701.2528	809.1148	846.3306	866.354	957.5259	979.0718	1050.9323	1068.4627	1076.288	1084.8541	1172.3694	1214.1799	1267.5538	1308.5583	1364.1691	1410.1329	1422.2885	1477.3779	1486.8138	1506.0394	1554.1344	1701.117	1739.8476	3040.6244	3042.8992	3097.25	3129.1722	3266.3728	3519.7258	3609.3154
CC1=C(NC=N)OC=N1	Cc1c(NC=N)ocn1	
InChI=1S/C5H7N3O/c1-4-5(7-2-6)9-3-8-4/h2-3H,1H3,(H2,6,7)	InChI=1S/C5H7N3O/c1-4-5(7-2-6)9-3-8-4/h2-3H,1H3,(H2,6,7)
