14
gdb 27338	3.36675	1.43708	1.00882	5.0855	68.76	-0.2105	-0.0192	0.1913	1088.476	0.102701	-470.065983	-470.058178	-470.057234	-470.097994	30.093	
N	 0.0302528153	 1.3290663611	 0.1215613097	-0.560085
C	-0.0238514023	-0.0256914211	 0.0490797574	 0.493355
N	-1.1501584311	-0.6581837103	 0.0466715092	-0.395255
C	-1.1425388794	-2.0400541287	 0.0272018453	 0.366005
O	-2.1592915489	-2.7118619547	-0.0163621691	-0.379352
C	 0.1892941877	-2.7136419359	 0.0414193764	 0.139873
N	 0.1435909625	-4.0899932915	 0.10878575	-0.583029
C	 1.2908187375	-1.9451586688	 0.0138116209	-0.064576
O	 1.2053819913	-0.5659309952	 0.0115018597	-0.210247
H	 0.8885179152	 1.7878068926	-0.1333744092	 0.27091
H	-0.8362725599	 1.8114551119	-0.0475114618	 0.281615
H	-0.7832550373	-4.4285076705	-0.1220727774	 0.267222
H	 0.898413618	-4.6031906691	-0.3191973866	 0.247149
H	 2.3199056915	-2.2743975099	-0.0018712246	 0.126416
103.0854	189.4997	311.5742	319.3849	351.2126	365.2678	374.1319	423.0031	483.1195	491.5072	553.2769	595.6108	634.9051	747.5238	751.5213	796.6902	809.5619	818.1984	934.4548	1074.481	1137.0374	1208.358	1277.1997	1320.2991	1418.5736	1441.4111	1594.2853	1605.991	1669.1205	1722.8045	1769.1022	3234.7715	3535.7096	3612.8221	3663.7392	3741.3792
NC1=NC(=O)C(N)=CO1	Nc1nc(=O)c(N)co1	
InChI=1S/C4H5N3O2/c5-2-1-9-4(6)7-3(2)8/h1H,5H2,(H2,6,7,8)	InChI=1S/C4H5N3O2/c5-2-1-9-4(6)7-3(2)8/h1H,5H2,(H2,6,7,8)
