15
gdb 132561	3.06192	1.35927	0.94695	2.5412	71.59	-0.2262	-0.0266	0.1996	1145.5279	0.112188	-461.983773	-461.975922	-461.974978	-462.016084	29.716	
C	 0.0260978641	 1.4904719612	 0.0117677052	-0.522823
C	 0.0322673956	-0.0164717752	 0.0213378712	 0.216927
N	-0.0198858869	-0.644738316	-1.1612445786	-0.360427
C	-0.0155670782	-1.955947867	-1.1751267772	 0.319899
F	-0.0686652493	-2.5342494728	-2.3764972392	-0.080547
C	 0.0396227355	-2.7648901191	-0.0455001996	-0.267713
C	 0.0938587656	-2.1254906417	 1.183156665	-0.136193
C	 0.0904926381	-0.7322456717	 1.2247285688	 0.304444
O	 0.1445411684	-0.1283980156	 2.4462309287	-0.439042
H	 0.9329945925	 1.9061931926	 0.4709499415	 0.133097
H	-0.0234476208	 1.8424364373	-1.018875668	 0.158441
H	-0.83707533	 1.8994825245	 0.5537748364	 0.133067
H	 0.0395269767	-3.8435818309	-0.1368311566	 0.118251
H	 0.1388103117	-2.6829727934	 2.1117323687	 0.121621
H	 0.1358964271	 0.8270227178	 2.3313926937	 0.300998
122.9222	145.1112	217.629	290.816	308.0977	349.8816	384.3921	473.7596	486.5986	516.2211	584.2677	623.074	728.3096	768.413	787.8203	854.3397	964.6637	965.9743	1013.804	1052.9086	1118.6398	1169.1598	1246.6713	1283.458	1333.387	1370.3977	1396.7325	1453.5924	1485.3743	1488.0362	1509.7219	1632.4747	1652.7326	3010.2634	3057.3103	3148.2474	3199.391	3218.3353	3831.9045
CC1=NC(F)=CC=C1O	Cc1nc(F)ccc1O	
InChI=1S/C6H6FNO/c1-4-5(9)2-3-6(7)8-4/h2-3,9H,1H3	InChI=1S/C6H6FNO/c1-4-5(9)2-3-6(7)8-4/h2-3,9H,1H3
