17
gdb 45995	4.58748	1.03288	0.88116	4.6681	81.59	-0.2222	-0.0135	0.2086	1290.3915	0.137388	-418.000828	-417.993058	-417.992114	-418.033528	29.245	
N	-0.103339616	 1.179946578	 0.3323177692	-0.56252
C	-0.1098459605	-0.0685661472	 0.1195183921	 0.43819
O	 1.0303083562	-0.8523704467	 0.0517755839	-0.253648
C	 0.666069392	-2.2035046085	-0.2085093793	-0.164216
C	-0.8413849895	-2.1908141264	-0.2729618212	 0.330901
C	-1.2688762179	-0.9319029814	-0.0853673706	-0.320043
N	-1.5376837038	-3.339398511	-0.595874107	-0.132695
C	-1.6269661309	-4.4710482022	 0.3246512494	-0.235104
C	-2.8269133458	-3.6410510987	-0.0019341709	-0.224088
H	 0.8539992789	 1.5163018731	 0.4427320509	 0.217951
H	 1.1121826237	-2.5368978781	-1.1544702325	 0.133692
H	 1.0513267418	-2.8486420436	 0.592830307	 0.120668
H	-2.281461145	-0.5601299068	-0.0895416775	 0.11928
H	-1.4987554189	-5.4513020039	-0.1236121241	 0.133111
H	-1.1979887602	-4.3518319393	 1.3166021049	 0.131424
H	-3.1916917531	-2.9683015504	 0.7704736399	 0.133593
H	-3.5809207708	-4.0198398469	-0.6848146841	 0.133504
85.8037	125.6464	177.0149	198.0037	270.2567	409.4624	469.9123	537.1581	557.7833	693.4687	697.9494	813.9361	842.6335	861.7361	875.7987	892.3594	926.3424	950.863	1029.9455	1038.5514	1045.8989	1089.8438	1117.5145	1138.3649	1153.5996	1172.604	1188.728	1195.1845	1248.2478	1328.1471	1381.4081	1402.5501	1489.7031	1503.7749	1517.1977	1684.4034	1760.2466	3010.9421	3044.584	3110.7692	3114.3251	3197.7497	3211.0564	3261.5732	3483.4187
N=C1OCC(=C1)N1CC1	[NH]C1=C[C](CO1)N1CC1	
InChI=1S/C6H8N2O/c7-6-3-5(4-9-6)8-1-2-8/h3,7H,1-2,4H2	InChI=1S/C6H8N2O/c7-6-3-5(4-9-6)8-1-2-8/h3,7H,1-2,4H2
