22
gdb 102799	1.83275	1.28912	0.88732	3.943	79.87	-0.246	0.0357	0.2817	1398.5762	0.192397	-441.514455	-441.503451	-441.502507	-441.551778	39.092	
C	 0.033865828	 1.523262153	 0.0768223658	-0.402946
C	-0.0717248989	-0.0089067174	 0.0600555934	 0.046834
C	 0.4754943381	-0.5975090736	 1.3674516791	-0.390867
C	-1.5252295671	-0.4845477314	-0.1948788243	 0.028096
C	-2.1463649412	 0.0824310365	-1.4724296036	-0.108863
O	-1.3651344515	-0.3858392452	-2.5686414554	-0.427894
N	-1.6068789305	-1.9406304799	-0.2652244121	-0.272038
C	-2.2338050099	-2.7065517141	 0.663353539	 0.152322
O	-2.7289160419	-2.3000480323	 1.6949527001	-0.332867
H	 1.047728474	 1.8290549523	 0.3531222071	 0.113937
H	-0.1847019149	 1.9648643215	-0.8991421734	 0.117715
H	-0.6522668391	 1.9611260201	 0.8121104031	 0.114404
H	 0.5401531601	-0.3804645664	-0.7716404806	 0.083582
H	 0.4480201346	-1.6896410326	 1.3617478564	 0.119148
H	 1.5141466772	-0.2877908847	 1.5211217146	 0.105662
H	-0.1087902907	-0.2558940608	 2.2291883741	 0.123604
H	-2.1510641174	-0.1892346945	 0.6536311634	 0.11543
H	-3.1839158229	-0.2734047504	-1.5471021715	 0.098984
H	-2.167258559	 1.1794367064	-1.4356334191	 0.098793
H	-1.7930221397	-0.1183026063	-3.3866570296	 0.294063
H	-1.2947752572	-2.3677284682	-1.1241297833	 0.252489
H	-2.2389112802	-3.7771069922	 0.3747976769	 0.070413
25.5453	47.5461	103.9577	161.6176	192.3621	222.6917	236.0828	262.9442	267.5101	307.9126	372.6619	396.7823	429.9131	479.3344	585.7179	636.1111	745.7632	852.0114	907.0362	927.1696	940.6133	964.0387	987.5411	1031.6258	1074.5815	1110.4179	1152.9688	1154.8094	1190.4915	1202.9182	1237.5841	1267.6711	1317.315	1337.6489	1355.6201	1392.1826	1401.1223	1423.5034	1429.1402	1449.646	1485.4466	1494.1521	1502.9321	1510.6697	1521.4212	1527.1973	1798.8924	2928.6589	2998.1348	3026.3168	3029.5451	3036.9664	3038.9758	3076.9959	3093.3783	3102.2326	3111.3677	3121.7163	3626.8502	3838.66
CC(C)C(CO)NC=O	CC(C)[C@@H](CO)NC=O	
InChI=1S/C6H13NO2/c1-5(2)6(3-8)7-4-9/h4-6,8H,3H2,1-2H3,(H,7,9)	InChI=1S/C6H13NO2/c1-5(2)6(3-8)7-4-9/h4-6,8H,3H2,1-2H3,(H,7,9)/t6-/m1/s1
