20
gdb 90734	3.09415	1.3433	1.06139	3.7887	78.86	-0.2344	0.0342	0.2686	1176.5544	0.173211	-403.193171	-403.184989	-403.184045	-403.226073	31.633	
C	-0.6272559729	 1.1146814275	-0.1837671142	-0.413221
C	 0.2865906439	-0.0997302111	-0.1289447982	 0.044691
C	 1.7001019653	 0.0169722235	-0.7757028889	-0.24632
C	 2.3063743819	-0.6398922357	 0.4914999186	-0.141071
C	 0.9607990463	-0.4426347956	 1.2396316041	-0.026095
C	 0.6083843107	-1.7970247761	 1.8766165547	-0.191636
N	 1.454918083	-2.7198843125	 1.1393072996	-0.302313
C	 2.4569594098	-2.1590643011	 0.3885024093	 0.398005
O	 3.2927148329	-2.7697719785	-0.2426386475	-0.388521
H	-0.1216841909	 2.0059819405	 0.2056397269	 0.113171
H	-0.9365566755	 1.3312939725	-1.2121897867	 0.119227
H	-1.5348345752	 0.9600519053	 0.4110020147	 0.113437
H	-0.2421211393	-0.9785983356	-0.5153386264	 0.077055
H	 1.8726675609	-0.4997798184	-1.7225615951	 0.116672
H	 2.015059241	 1.0591541452	-0.8823012433	 0.100006
H	 3.2258266436	-0.2065119809	 0.8897434388	 0.093337
H	 0.9198622778	 0.3814861312	 1.9539849236	 0.071478
H	 0.8323121976	-1.8160241467	 2.9526183467	 0.104613
H	-0.4541259983	-2.0418392805	 1.7534744689	 0.108636
H	 1.4117732973	-3.7207174131	 1.2487826342	 0.24885
71.4969	131.3396	196.6615	228.9961	282.924	300.0984	419.9557	457.6808	525.7061	587.2191	685.6697	730.4946	746.3687	799.5583	812.2166	877.3068	900.0523	935.6276	985.5623	996.4315	1007.7769	1064.1463	1089.3406	1118.0974	1126.6794	1183.538	1195.9858	1221.5991	1243.932	1254.2695	1262.4844	1268.8515	1297.6149	1315.9839	1359.9566	1382.9816	1411.3113	1448.4158	1489.5298	1496.2177	1496.8125	1530.2262	1822.0902	2997.0515	3022.0435	3035.5606	3038.9854	3056.2774	3087.068	3089.5354	3093.0737	3098.2675	3113.3347	3640.5683
CC1CC2C1CNC2=O	C[C@H]1C[C@H]2[C@@H]1CNC2=O	
InChI=1S/C7H11NO/c1-4-2-5-6(4)3-8-7(5)9/h4-6H,2-3H2,1H3,(H,8,9)	InChI=1S/C7H11NO/c1-4-2-5-6(4)3-8-7(5)9/h4-6H,2-3H2,1H3,(H,8,9)/t4-,5-,6+/m0/s1
