15
gdb 124206	5.09015	0.99274	0.83506	7.0146	73.45	-0.2311	-0.027	0.2042	1311.4137	0.111895	-450.107712	-450.099188	-450.098244	-450.142132	30.187	
C	-0.012052085	 1.4819724588	-0.0830249347	-0.490281
C	-0.0142406503	-0.0059336488	 0.2001777886	 0.353538
N	-0.0450902608	-0.5779973694	 1.3322417113	-0.463244
N	 0.023524344	-0.7576169408	-0.9809961911	-0.419324
C	 0.0341851905	-2.1162496801	-1.1512172675	 0.525224
C	 0.0711584934	-2.827187122	-2.3318278139	-0.236522
N	 0.0669328104	-4.1436525184	-1.9838510286	-0.091866
N	 0.0321079729	-4.3083088407	-0.7460947135	-0.030865
O	 0.0085075065	-2.9506212692	-0.1353721891	-0.198256
H	 0.8881202645	 1.775892072	-0.6347371016	 0.145844
H	-0.8807477253	 1.7686186733	-0.6865889884	 0.145837
H	-0.0417468028	 2.043615128	 0.8510514899	 0.145
H	-0.0698019559	 0.1139201352	 2.0782376197	 0.224849
H	 0.0464222211	-0.2351506882	-1.8412927023	 0.265328
H	 0.0990471868	-2.4914425996	-3.3538701889	 0.124739
35.2916	77.8283	125.826	150.7951	306.7507	333.6033	357.3947	472.851	505.8769	557.1788	577.1533	673.9082	731.5387	742.3272	793.2181	852.5142	941.0078	970.8087	1000.005	1065.0223	1066.1039	1116.0985	1145.0626	1310.8087	1324.8613	1397.3887	1415.0707	1479.211	1481.9128	1482.9864	1535.0431	1627.283	1741.8376	3034.6442	3093.6645	3147.7143	3285.2303	3510.7772	3649.806
CC(=N)NC1=CN=NO1	CC(=N)Nc1cnno1	
InChI=1S/C4H6N4O/c1-3(5)7-4-2-6-8-9-4/h2H,1H3,(H2,5,7)	InChI=1S/C4H6N4O/c1-3(5)7-4-2-6-8-9-4/h2H,1H3,(H2,5,7)
