17
gdb 82128	3.42268	1.17034	1.00629	2.1299	72.82	-0.2516	0.0572	0.3088	1182.07	0.13415	-421.744476	-421.73598	-421.735035	-421.778037	32.106	
O	 0.2141540318	 1.3643904915	-0.0490667048	-0.423343
C	 0.0525098744	-0.0232686551	-0.0322024855	 0.116237
C	 0.344388181	-0.7137106012	 1.3101488488	-0.021082
O	-0.5825810777	-0.1163378733	 2.2361336242	-0.26248
C	-1.0380763176	-1.2058177522	 1.4132756728	 0.000933
C	-1.4228606418	-0.6215038644	 0.0514434648	-0.067015
C	-2.6120244492	 0.3431592765	 0.0013064858	-0.362038
C	-2.8503222819	 0.8792735612	-1.333287784	 0.308888
C	-3.0429255553	 1.2909731388	-2.4456623954	-0.449131
H	-0.0945075722	 1.6842604733	 0.8082595245	 0.292655
H	 0.6102370617	-0.430039749	-0.8778787831	 0.098529
H	 1.2714691972	-1.0971263019	 1.7201083222	 0.110537
H	-1.4296167734	-2.0752299113	 1.9285776341	 0.109699
H	-1.5434025778	-1.4118735212	-0.6948961474	 0.091885
H	-3.5114721469	-0.1826307421	 0.3489019867	 0.129701
H	-2.4457945349	 1.161451525	 0.7102027204	 0.131715
H	-3.2107168976	 1.6734528556	-3.4216768142	 0.194311
55.9991	93.6577	162.7328	225.6757	260.2671	339.0504	411.6845	469.2846	481.7794	591.4108	617.6566	641.3849	652.8044	720.4404	785.4591	852.1763	865.1237	899.5933	943.5113	964.7318	970.1622	1018.3067	1058.7098	1105.994	1120.0035	1168.2907	1218.2447	1236.2023	1239.6346	1264.3341	1303.5529	1310.5947	1366.918	1388.171	1439.4561	1471.4018	2241.2226	3021.1094	3064.2883	3078.4575	3102.5701	3182.2535	3197.2297	3507.9219	3775.7093
OC1C2OC2C1CC#C	O[C@H]1[C@H]2O[C@H]2[C@H]1CC#C	
InChI=1S/C7H8O2/c1-2-3-4-5(8)7-6(4)9-7/h1,4-8H,3H2	InChI=1S/C7H8O2/c1-2-3-4-5(8)7-6(4)9-7/h1,4-8H,3H2/t4-,5+,6-,7+/m0/s1
