21
gdb 116186	2.2994	1.39656	1.08691	3.8286	74.11	-0.245	0.0594	0.3044	1199.8374	0.181821	-461.36477	-461.355324	-461.354379	-461.398719	36.169	
C	-0.6080968744	 1.4586774489	-0.0438392379	-0.459881
C	-0.0316754544	 0.0448970383	-0.0026796886	 0.341753
O	-1.0578059165	-0.9103195851	-0.3008915034	-0.474893
C	 1.1787421253	-0.1846195079	-0.9300101172	-0.263189
C	 1.7843932412	-1.4530118235	-0.3325516202	-0.068751
O	 1.6007669577	-1.3284892594	 1.0776185257	-0.29733
C	 0.5341600301	-0.406143152	 1.3625252061	 0.102634
C	 1.1280937287	 0.6881966457	 2.2520409808	-0.072837
O	 1.7987464158	 0.1136454137	 3.3527670645	-0.426029
H	 0.1390761934	 2.2169251464	 0.2055702858	 0.126079
H	-0.9799740518	 1.6823339407	-1.050638368	 0.107094
H	-1.4480387631	 1.5499738604	 0.6507333127	 0.132183
H	-1.4068266977	-0.7039513486	-1.1751078268	 0.275326
H	 0.880495534	-0.295897569	-1.9766922282	 0.092936
H	 1.8796150665	 0.6541372953	-0.8599575257	 0.106369
H	 1.2572764395	-2.3426301411	-0.7012058439	 0.105645
H	 2.8537192689	-1.5693040914	-0.53180782	 0.104485
H	-0.2479141521	-0.9393215052	 1.9148642835	 0.097507
H	 1.8086139327	 1.3220042086	 1.657556534	 0.075234
H	 0.3372850682	 1.3303791839	 2.6536654045	 0.105199
H	 2.3329489383	-0.5995757187	 2.9796564024	 0.290467
66.169	144.5438	185.7728	195.0094	249.2424	284.7682	313.6817	346.603	353.1007	386.2367	484.5194	497.5303	535.468	595.2862	663.6413	773.9719	834.7515	909.8251	937.2956	943.3353	989.502	1006.5749	1029.2535	1071.4605	1079.1694	1109.3428	1137.2252	1180.4684	1195.7972	1204.6601	1233.2685	1240.6685	1308.9197	1323.6766	1344.4079	1379.5824	1390.9735	1398.0451	1407.3192	1447.2166	1475.6454	1492.3828	1494.7475	1506.4395	1516.0805	2952.2263	3017.9839	3031.3448	3047.6693	3048.6718	3074.7447	3082.5631	3096.4898	3101.2755	3121.9097	3771.4782	3800.0711
CC1(O)CCOC1CO	C[C@@]1(O)CCO[C@H]1CO	
InChI=1S/C6H12O3/c1-6(8)2-3-9-5(6)4-7/h5,7-8H,2-4H2,1H3	InChI=1S/C6H12O3/c1-6(8)2-3-9-5(6)4-7/h5,7-8H,2-4H2,1H3/t5-,6+/m0/s1
