20
gdb 55784	3.73238	0.89715	0.88211	3.6847	82.04	-0.2293	0.0155	0.2448	1411.3379	0.171804	-403.206799	-403.197531	-403.196587	-403.241883	34.03	
N	 0.8391689688	-0.1598298595	 0.4067825363	-0.508108
C	-0.1693266943	 0.1717751276	-0.4474238003	 0.388098
O	-0.114076127	 1.1202278825	-1.2036817933	-0.360441
C	-1.4151093771	-0.727720213	-0.3442075309	-0.411403
C	-1.1413518441	-2.1703948437	-0.043280823	 0.326543
C	-1.4354809082	-2.830837457	 1.0817173499	-0.184245
C	-1.0589382699	-4.2912103656	 1.0154520211	-0.243099
C	-0.1548911945	-4.3593582127	-0.2429893855	-0.205783
C	-0.5040578688	-3.0948911523	-1.065045649	-0.295786
H	 1.6663499414	 0.412570236	 0.4242509621	 0.25926
H	 0.7641422707	-0.9538498438	 1.0191274692	 0.255153
H	-2.0564123259	-0.2932318039	 0.4322138728	 0.126314
H	-1.9406735717	-0.6103387631	-1.2968730144	 0.132273
H	-1.9452492728	-2.3941036411	 1.9351531228	 0.088245
H	-0.5504464742	-4.6479088041	 1.9183814203	 0.101747
H	-1.9585429491	-4.9141326062	 0.9071960564	 0.108471
H	 0.8954994895	-4.3145324568	 0.0630615353	 0.10248
H	-0.2841059788	-5.2845517909	-0.8096644065	 0.10045
H	-1.2230578824	-3.3112216938	-1.8683950793	 0.108464
H	 0.3714399984	-2.6507640085	-1.5515853341	 0.111369
42.1119	71.4905	99.1418	159.6333	223.8922	270.1879	315.8942	383.1168	473.4925	514.1501	574.3484	618.2367	669.0508	734.065	806.6419	834.7748	873.4394	879.8418	903.217	918.7584	938.1813	986.7406	1037.4063	1064.4476	1096.576	1151.6743	1159.0726	1193.1173	1231.0307	1243.3245	1290.9509	1309.689	1319.5006	1330.1548	1344.7957	1371.0479	1462.6958	1483.1064	1487.5802	1506.2931	1603.9615	1707.4791	1806.1893	3005.1841	3006.6387	3039.5534	3042.7893	3055.4156	3064.4838	3091.2022	3102.8519	3178.2615	3598.7865	3737.4064
NC(=O)CC1=CCCC1	NC(=O)CC1=CCCC1	
InChI=1S/C7H11NO/c8-7(9)5-6-3-1-2-4-6/h3H,1-2,4-5H2,(H2,8,9)	InChI=1S/C7H11NO/c8-7(9)5-6-3-1-2-4-6/h3H,1-2,4-5H2,(H2,8,9)
