20
gdb 86056	2.25638	1.53653	0.9695	5.4437	85.58	-0.2112	-0.0074	0.2038	1247.3696	0.170599	-403.215439	-403.205685	-403.204741	-403.250062	36.018	
C	-0.1532393624	 1.5368744373	 0.0232156129	-0.394266
C	 0.0501555327	 0.0214319246	-0.0321266465	-0.089745
C	 0.882201578	-0.4943760712	-1.2242072927	-0.337349
C	 1.9693196914	-1.3288234591	-0.5886559708	 0.282178
N	 2.8446015563	-2.0143116071	-1.375657057	-0.577437
C	 1.9238492111	-1.3221743127	 0.7696873674	 0.109193
C	 2.8479614131	-2.0106414974	 1.725544826	-0.5363
C	 0.8080268661	-0.4948429318	 1.2101022965	 0.337888
O	 0.5000726543	-0.2266768722	 2.3570723347	-0.382909
H	 0.8067019555	 2.0627278536	-0.0345104775	 0.111468
H	-0.7832642548	 1.8901715674	-0.7992916818	 0.106112
H	-0.6262756961	 1.8077323093	 0.9706351652	 0.141043
H	-0.9335093277	-0.4635339252	-0.0256931382	 0.097323
H	 0.2959278331	-1.09079817	-1.9335662613	 0.115973
H	 1.3231182416	 0.3307245605	-1.8003588879	 0.110546
H	 2.9437254447	-1.7423204301	-2.3398709409	 0.258291
H	 3.6713622873	-2.4042297767	-0.9519275255	 0.262019
H	 3.901363767	-1.7569457403	 1.546413846	 0.10946
H	 2.5947509249	-1.7013705782	 2.7432263703	 0.154717
H	 2.7626221738	-3.1035735407	 1.6749830611	 0.121796
61.7514	88.0155	134.0626	221.609	233.6522	238.3907	286.0275	320.0153	364.173	388.256	441.9431	547.2874	563.7505	590.6536	607.243	686.3915	757.901	870.9333	909.679	929.5861	993.0671	1019.645	1057.5426	1074.0674	1113.0917	1126.8387	1197.2955	1217.178	1267.2776	1280.8705	1326.501	1344.4734	1388.4504	1402.2254	1424.7359	1483.0009	1490.3089	1495.6214	1495.8855	1501.9725	1644.8537	1693.4942	1781.6436	3007.9301	3014.8488	3030.4331	3033.1684	3053.796	3055.191	3096.7901	3114.8565	3122.5589	3590.6707	3702.747
CC1CC(N)=C(C)C1=O	C[C@H]1CC(=C(C)C1=O)N	
InChI=1S/C7H11NO/c1-4-3-6(8)5(2)7(4)9/h4H,3,8H2,1-2H3	InChI=1S/C7H11NO/c1-4-3-6(8)5(2)7(4)9/h4H,3,8H2,1-2H3/t4-/m0/s1
