16
gdb 112071	2.20889	1.55933	0.99942	1.9881	70.76	-0.2539	0.0023	0.2562	1148.0501	0.124013	-437.851982	-437.843524	-437.84258	-437.885838	30.923	
O	-0.0255501477	 1.4730975463	-0.0723472366	-0.42308
C	 0.0686114758	 0.0670535459	-0.1248595072	-0.063004
C	-1.3132692293	-0.5629137919	 0.0819057718	-0.026435
N	-2.2154628256	-0.0880819834	-0.9839358723	-0.285044
C	-2.6898923728	-1.1200589507	-1.5420175438	 0.12532
O	-2.3480578781	-2.3505842811	-1.0997193898	-0.219961
C	-1.3995871871	-2.1282661027	-0.0086478316	-0.102437
C	-0.1566418954	-2.8328794225	-0.2834795249	 0.350126
C	 0.8714659221	-3.423045873	-0.4779911059	-0.458344
H	-0.7422210774	 1.7146115996	-0.6728369274	 0.295459
H	 0.4863043228	-0.2840274199	-1.0807228621	 0.0971
H	 0.7529456224	-0.2428856409	 0.6708158464	 0.113712
H	-1.6996053965	-0.2175482212	 1.0464564536	 0.104123
H	-3.3788716724	-1.1253633355	-2.3795796058	 0.151117
H	-1.860273962	-2.5442772259	 0.892249183	 0.12997
H	 1.7815871813	-3.9415006031	-0.6562319875	 0.211377
44.3683	123.1246	131.3131	204.5085	241.5962	340.9339	396.508	468.1832	489.1763	546.5026	594.4603	631.6711	682.962	793.7648	811.3254	859.9651	894.3242	964.5191	966.3575	1052.2685	1068.473	1091.2947	1116.0807	1133.7722	1219.1027	1269.9885	1302.2039	1325.3273	1339.3785	1364.021	1389.0552	1438.6965	1502.6144	1709.9813	2239.7881	2992.2309	3049.1962	3066.4566	3086.5696	3215.4187	3500.4277	3777.3731
OCC1N=COC1C#C	OC[C@H]1N=CO[C@H]1C#C	
InChI=1S/C6H7NO2/c1-2-6-5(3-8)7-4-9-6/h1,4-6,8H,3H2	InChI=1S/C6H7NO2/c1-2-6-5(3-8)7-4-9-6/h1,4-6,8H,3H2/t5-,6+/m1/s1
