13
gdb 21860	3.41782	2.34528	1.39087	2.4955	66.15	-0.2039	-0.0386	0.1653	813.7676	0.098238	-394.788955	-394.782547	-394.781603	-394.819391	24.873	
O	-0.097416144	 1.3168306848	 0.2184829962	-0.394536
C	 0.015909801	-0.0102600485	 0.0546231718	 0.393152
C	 1.1851776153	-0.6935077805	-0.0572007607	-0.274343
C	 1.1597164269	-2.1121645858	-0.228736896	 0.014145
N	 0.0663815007	-2.8090919728	-0.2863047044	-0.201852
N	-1.080568315	-2.103285114	-0.1723286043	-0.306616
C	-1.2623210977	-0.7289888181	-0.0009969531	 0.328399
N	-2.3857441809	-0.1201761986	 0.1007090003	-0.544532
H	 0.7836201954	 1.7089435739	 0.2443125164	 0.303865
H	 2.1383148625	-0.1746005967	-0.0177863009	 0.097689
H	 2.0825340608	-2.6737748895	-0.3196845938	 0.122934
H	-1.910537826	-2.6753436137	-0.2212178147	 0.262141
H	-3.1700311188	-0.7721845806	 0.0409834731	 0.199553
124.8464	242.7947	333.6421	417.8725	474.149	487.1796	538.6236	563.1656	595.0182	650.186	760.6921	762.6578	804.4756	849.3272	910.0162	917.9828	1055.9467	1085.008	1170.5352	1196.1546	1317.8533	1331.2788	1394.4472	1439.467	1485.3465	1605.6974	1660.3193	1707.5268	3169.1391	3199.0222	3454.5976	3616.0802	3800.4825
OC1=CC=NNC1=N	OC1=C(NN=CC1)[NH]	
InChI=1S/C4H5N3O/c5-4-3(8)1-2-6-7-4/h1-2H,(H2,5,7)(H,6,8)	InChI=1S/C4H6N3O/c5-4-3(8)1-2-6-7-4/h2,5,7-8H,1H2
