17
gdb 46597	2.83161	1.78001	1.39086	3.7873	71.94	-0.2362	0.0128	0.249	952.5882	0.138878	-417.989715	-417.982562	-417.981618	-418.021145	28.426	
O	-0.0999376448	-0.0608968727	 0.1221203007	-0.371536
C	-0.0438258698	 1.1430239256	 0.0179360666	 0.344172
N	-1.1239156132	 1.9819214633	-0.2346441792	-0.33339
C	-0.9034364082	 3.4082583166	 0.0098893136	-0.260417
C	 0.6081367463	 3.463316117	 0.1275719263	 0.228304
C	 1.5579201239	 3.8568059409	 1.2763235474	-0.269489
C	 2.1250295962	 2.3864630561	 1.2711391332	-0.279396
C	 1.1372109854	 2.0635572273	 0.1397065155	 0.125409
N	 1.4209843747	 2.9807130713	-0.9867066525	-0.385216
H	-2.0345658069	 1.5860506949	-0.4070736389	 0.253264
H	-1.3096810548	 4.0209634107	-0.8046289868	 0.118363
H	-1.374805885	 3.7404765802	 0.9448104164	 0.118866
H	 2.2606559351	 4.6598746854	 1.0457944084	 0.116108
H	 1.0235370497	 4.0922224898	 2.1992527426	 0.110066
H	 3.1779220534	 2.2664287015	 1.011126726	 0.119644
H	 1.9106470016	 1.8451844802	 2.1937715396	 0.122456
H	 0.8128468964	 2.7349422819	-1.765999089	 0.242793
111.5048	190.4334	238.4133	308.7005	379.4547	453.6099	486.5886	579.9246	602.5285	678.2042	721.9189	758.7042	765.6885	788.3186	843.392	927.288	950.5683	985.6816	1024.8806	1031.3588	1086.1597	1113.8879	1122.3331	1165.536	1198.687	1224.0727	1235.586	1252.3132	1308.7848	1352.0787	1359.6864	1372.7673	1436.2435	1466.0682	1484.8851	1525.0114	1823.1128	3007.8337	3041.3883	3069.9267	3082.7849	3124.5418	3145.0095	3495.0163	3639.5049
O=C1NCC23CCC12N3	O=C1NC[C@@]23CC[C@@]12N3	
InChI=1S/C6H8N2O/c9-4-6-2-1-5(6,8-6)3-7-4/h8H,1-3H2,(H,7,9)	InChI=1S/C6H8N2O/c9-4-6-2-1-5(6,8-6)3-7-4/h8H,1-3H2,(H,7,9)/t5-,6+/m0/s1
