18
gdb 111126	3.59828	1.33057	1.22263	2.2497	70.91	-0.2317	0.073	0.3047	1075.7482	0.148425	-438.989804	-438.982391	-438.981446	-439.021788	29.196	
C	 0.1447076301	 1.3245271012	 0.1559823484	-0.243934
O	-0.2618980777	 0.0316660133	-0.234687722	-0.256474
C	 0.4929000103	-0.4829693224	-1.2913155999	 0.167066
C	 1.8051010338	-1.2227187216	-0.8696364662	 0.010711
O	 0.9551432274	-2.3201137463	-0.3875046469	-0.300787
C	 0.1305444236	-1.9620226453	-1.5515229315	 0.016749
C	 1.0648214367	-2.3855332024	-2.7074929513	-0.050331
N	 1.7214817477	-1.2612106466	-3.4201314962	-0.336246
C	 2.3347378607	-1.8242665119	-2.1901576035	-0.050403
H	 1.170502185	 1.3334386958	 0.5541426802	 0.105302
H	 0.0945221308	 2.0373301324	-0.6818161757	 0.106606
H	-0.5384886644	 1.6525333995	 0.9426534612	 0.129359
H	 0.5392925899	 0.2101858651	-2.1343068787	 0.09879
H	 2.510003373	-0.8496671959	-0.1278447584	 0.080276
H	-0.8900852638	-2.3387863484	-1.507389811	 0.084751
H	 0.9745878047	-3.3581840448	-3.1749549167	 0.103139
H	 2.2168448983	-1.6388178484	-4.2267437981	 0.232926
H	 3.2886056838	-2.3356254533	-2.2351176036	 0.102501
88.727	177.2328	180.2073	308.7728	360.195	380.9523	450.9047	581.1503	606.7956	687.1279	786.8022	837.7595	861.0325	864.4382	888.653	898.7381	913.1432	948.524	972.9371	1021.0736	1054.0591	1070.5431	1104.9508	1132.1381	1163.3804	1183.1254	1185.1633	1193.8557	1223.9107	1241.7652	1252.9388	1293.1237	1299.9308	1333.7914	1376.8827	1413.4209	1482.3166	1488.7583	1508.5857	2976.373	3023.5836	3084.127	3118.7184	3133.8024	3140.7674	3184.1817	3195.3531	3476.3826
COC1C2OC1C1NC21	CO[C@H]1[C@H]2O[C@@H]1[C@H]1N[C@@H]21	
InChI=1S/C6H9NO2/c1-8-6-4-2-3(7-2)5(6)9-4/h2-7H,1H3	InChI=1S/C6H9NO2/c1-8-6-4-2-3(7-2)5(6)9-4/h2-7H,1H3/t2-,3+,4+,5-,6+
