23
gdb 107055	3.79032	1.07871	0.966	1.2911	85.43	-0.2239	0.0862	0.3102	1350.7606	0.205782	-388.2941	-388.28478	-388.283836	-388.327894	36.002	
C	-0.0138622864	 1.52293453	 0.2628819223	-0.374018
C	-0.041221197	 0.0489746703	-0.1597229137	-0.262164
C	-1.4109848638	-0.5664882364	-0.0514788836	 0.473824
C	-1.9591547552	-1.1142291584	 1.2461101925	-0.364325
C	-1.722352007	-2.0309790483	 0.0513894173	-0.138333
C	-2.9007773838	-2.2839355265	-0.8806953961	 0.001477
C	-3.9753306075	-3.2408952576	-0.363323864	-0.399789
C	-3.4281215001	-0.8492953863	-1.1284389518	-0.107773
O	-2.3379536903	 0.0432547788	-0.9283437689	-0.30293
H	 0.9900695649	 1.9443262179	 0.1538523502	 0.105526
H	-0.7013659874	 2.1105104872	-0.3512080227	 0.134847
H	-0.3177945139	 1.6369974438	 1.3086747513	 0.113537
H	 0.3017614515	-0.0455466564	-1.1975565215	 0.101007
H	 0.6511223355	-0.5337371181	 0.4588862263	 0.094083
H	-1.2683468088	-1.2053499642	 2.0778695547	 0.109294
H	-2.9750593154	-0.8729755915	 1.5411052466	 0.112099
H	-0.9369760705	-2.776719677	 0.111627412	 0.083163
H	-2.4953502687	-2.6794911469	-1.820931667	 0.07695
H	-4.366761958	-2.9043880162	 0.6026811309	 0.116979
H	-4.8164758683	-3.3090519223	-1.062253139	 0.113437
H	-3.5747521314	-4.2503975333	-0.2281872699	 0.116286
H	-3.8084781811	-0.6969999105	-2.1428668937	 0.106635
H	-4.2463985472	-0.6204526282	-0.4283902823	 0.090187
82.2575	114.8712	181.5298	189.309	228.1849	243.98	295.0966	370.2352	381.2798	420.9019	510.8132	618.8467	646.5528	711.7833	783.0408	806.2837	870.042	902.138	928.9049	951.773	959.3918	974.449	1003.4505	1036.5263	1042.2804	1058.0159	1082.3483	1105.4928	1126.2425	1143.5151	1172.5779	1229.058	1236.9026	1267.1736	1310.2264	1330.5342	1349.3963	1362.5532	1398.7696	1407.2842	1410.4626	1418.8285	1474.5292	1485.3849	1495.2331	1496.6842	1500.3759	1510.0271	1528.4497	2982.7478	3019.2998	3027.4452	3029.503	3038.9569	3066.1094	3077.8927	3095.2349	3103.5823	3105.2172	3122.371	3128.4734	3164.7521	3212.1573
CCC12CC1C(C)CO2	CC[C@]12C[C@H]1[C@@H](C)CO2	
InChI=1S/C8H14O/c1-3-8-4-7(8)6(2)5-9-8/h6-7H,3-5H2,1-2H3	InChI=1S/C8H14O/c1-3-8-4-7(8)6(2)5-9-8/h6-7H,3-5H2,1-2H3/t6-,7-,8-/m0/s1
