21
gdb 68239	2.67901	1.82079	1.59687	1.2772	80.71	-0.249	0.0797	0.3287	955.4799	0.186772	-387.037655	-387.030955	-387.030011	-387.068108	30.05	
O	-0.1480482581	 1.3915179806	 0.0047900643	-0.49593
C	 0.0520516971	 0.0055941187	 0.0013491536	 0.425145
C	 0.9875981143	-0.6906794672	-1.037091403	-0.281772
C	 0.9574874916	-1.8501468331	 0.0092553871	-0.033661
C	 0.9462618365	-0.7018984202	 1.0682717851	-0.281732
C	-0.4626291488	-2.5588504817	-0.0224546422	-0.019165
C	-1.3599682749	-1.8452168419	-1.0819298899	-0.219055
C	-1.3717620912	-0.6939924752	-0.030342642	-0.049698
C	-1.401080608	-1.8564220174	 1.0084981839	-0.219063
H	 0.7162629137	 1.8161224144	 0.022841288	 0.272475
H	 0.6662457947	-0.8497466276	-2.0637696543	 0.095617
H	 1.9724964761	-0.2130168787	-1.052182658	 0.077337
H	 1.7801484964	-2.5645205998	 0.0215902464	 0.065009
H	 1.9296977564	-0.2246210802	 1.1271112458	 0.077344
H	 0.58487741	-0.8718137243	 2.07978457	 0.095614
H	-0.3820333089	-3.647584496	-0.0267086843	 0.05599
H	-0.9993984543	-1.6725196668	-2.0936168974	 0.092125
H	-2.3416562209	-2.3210805006	-1.1452972383	 0.09018
H	-2.1561224586	 0.063492876	-0.0417063828	 0.070925
H	-2.3844046474	-2.3327225475	 1.028108419	 0.090184
H	-1.0806104557	-1.6946571214	 2.0353719088	 0.09213
201.9148	312.5802	343.0495	410.843	451.2765	503.1857	516.633	586.217	600.558	632.6217	757.8073	793.546	823.1692	842.4949	858.1521	873.9955	894.5644	919.4857	930.5056	992.0849	999.8833	1028.5499	1034.4704	1038.9838	1061.9487	1081.6005	1102.7743	1119.187	1124.5657	1132.5409	1153.7619	1202.5261	1231.1462	1232.9743	1240.6025	1252.6803	1262.4995	1306.8314	1314.9306	1349.5504	1373.6069	1483.5543	1526.7204	1546.5608	1584.8523	3049.2025	3062.8111	3070.746	3075.1563	3087.4971	3108.3942	3113.6169	3128.9054	3133.147	3157.2665	3158.058	3806.8202
OC12CC(C1)C1CC2C1	O[C@@]12C[C@@H](C1)[C@@H]1C[C@H]2C1	
InChI=1S/C8H12O/c9-8-3-6(4-8)5-1-7(8)2-5/h5-7,9H,1-4H2	InChI=1S/C8H12O/c9-8-3-6(4-8)5-1-7(8)2-5/h5-7,9H,1-4H2/t5-,6-,7+,8-
