21
gdb 68386	2.53937	1.91147	1.41993	1.4327	81.	-0.2288	0.0873	0.3161	1001.1525	0.18428	-387.064441	-387.057003	-387.056058	-387.095589	31.653	
C	-0.0720087418	 1.520833255	 0.0430768765	-0.48491
C	 0.0301515013	 0.0064348281	 0.0242251438	 0.31385
C	 0.8810902518	-0.7173715385	-1.0763713958	-0.270512
C	 1.1183161139	-1.8169859645	-0.0038235449	 0.12517
C	 0.9630095936	-0.6988050976	 1.0568762179	-0.288409
O	 0.050966236	-2.7589775661	 0.0683417689	-0.27587
C	-1.2314118906	-2.1935037905	-0.0432151712	 0.108573
C	-1.8948658213	-1.4989210492	 1.1257998157	-0.343262
C	-1.3302428997	-0.6944969302	-0.0287431635	-0.087699
H	 0.9218941628	 1.9813393545	 0.0363945879	 0.108166
H	-0.6197911602	 1.8935079443	-0.8302311152	 0.113216
H	-0.5997162169	 1.8694360473	 0.9382442469	 0.118579
H	 0.382828617	-1.0059769845	-2.005360341	 0.095366
H	 1.8108284791	-0.1857580292	-1.298633356	 0.094083
H	 2.0332176254	-2.4098901323	-0.0338611319	 0.07442
H	 1.8934079667	-0.1350327851	 1.1730432967	 0.096044
H	 0.5852946856	-0.9707342227	 2.0438067278	 0.098322
H	-1.8590280775	-2.777197093	-0.7096021323	 0.094236
H	-2.9746993337	-1.5788089409	 1.1974948858	 0.107952
H	-1.386322265	-1.4928561962	 2.0817550574	 0.120091
H	-2.0414146166	-0.2280263289	-0.7061190034	 0.082593
208.7037	223.3744	252.7889	293.5349	348.9421	430.4086	449.6143	486.8795	501.5358	618.607	659.7458	752.5311	812.0548	825.3893	828.0552	864.5442	896.0038	920.7036	956.955	971.2308	1002.6635	1007.3504	1022.817	1047.7083	1059.79	1073.131	1121.6533	1140.6052	1158.7027	1186.9191	1206.126	1223.2049	1233.7985	1255.0914	1270.2935	1283.2655	1350.0957	1382.5924	1407.4804	1410.5586	1462.9961	1484.2122	1491.4155	1493.21	1509.4473	3020.9524	3052.2844	3061.9041	3086.7759	3092.4963	3105.393	3114.6016	3119.5687	3130.3129	3138.3871	3151.5487	3228.4364
CC12CC(C1)OC1CC21	C[C@@]12C[C@@H](C1)O[C@H]1C[C@@H]21	
InChI=1S/C8H12O/c1-8-3-5(4-8)9-7-2-6(7)8/h5-7H,2-4H2,1H3	InChI=1S/C8H12O/c1-8-3-5(4-8)9-7-2-6(7)8/h5-7H,2-4H2,1H3/t5-,6-,7+,8+/m1/s1
