17
gdb 115183	2.59055	1.33953	1.052	2.6134	63.67	-0.2735	0.0014	0.2749	1143.8003	0.136021	-496.132887	-496.124243	-496.123298	-496.166436	31.661	
O	 0.0689447229	 1.2573220971	-0.4218224712	-0.426493
C	 0.035920644	-0.1526003076	-0.2515956113	-0.08609
C	-1.3858145441	-0.5148804279	 0.1739293179	-0.063496
C	-2.4203969374	-0.1700873726	-0.9146354667	-0.096984
O	-2.4879498546	-1.3309573395	-1.7840962345	-0.218737
C	-1.974930523	-2.4024166679	-1.1529100377	 0.415901
O	-1.8143795783	-3.4797485563	-1.6580206113	-0.361985
C	-1.5957023108	-2.0298557906	 0.2806126053	-0.01474
O	-0.4874349168	-2.7672949149	 0.7213258773	-0.432804
H	 0.9515741166	 1.5060343852	-0.7104836705	 0.292852
H	 0.2965026722	-0.6748884985	-1.1858233751	 0.100807
H	 0.7399177573	-0.4901286785	 0.5186517551	 0.117198
H	-1.6161144938	 0.0122021863	 1.1027257591	 0.099947
H	-3.4182005164	 0.0068510213	-0.5006272433	 0.120644
H	-2.1214494491	 0.6842995824	-1.5213587402	 0.149655
H	-2.4797359032	-2.2289912258	 0.9117345919	 0.105353
H	-0.4846068655	-3.5789677821	 0.1926403554	 0.298973
78.8183	122.0485	167.5019	205.4264	261.3681	269.2456	297.135	402.7678	432.4745	505.1584	536.9028	634.7082	709.5157	762.8687	822.9094	879.6741	930.1137	1000.8607	1017.7277	1074.6641	1082.5785	1146.7753	1157.2881	1193.7631	1202.1406	1232.1571	1242.9646	1269.9541	1309.1668	1352.4543	1375.1767	1402.3506	1421.6944	1461.4612	1517.5629	1520.375	1869.409	2950.8328	2982.2203	3046.9289	3056.9034	3090.2471	3144.1687	3729.21	3836.8468
OCC1COC(=O)C1O	OC[C@H]1COC(=O)[C@H]1O	
InChI=1S/C5H8O4/c6-1-3-2-9-5(8)4(3)7/h3-4,6-7H,1-2H2	InChI=1S/C5H8O4/c6-1-3-2-9-5(8)4(3)7/h3-4,6-7H,1-2H2/t3-,4-/m0/s1
