18
gdb 47106	2.66867	1.69474	1.18007	3.8268	70.8	-0.2439	0.0292	0.2731	1037.0733	0.151588	-439.136183	-439.128811	-439.127867	-439.168503	28.232	
O	-0.0777218015	-0.0526591732	-0.0030574473	-0.384491
C	-0.056609136	 1.158524258	 0.0345919604	 0.39751
N	-1.148757517	 1.9830833127	 0.064298789	-0.302766
C	-0.8653819144	 3.4056453501	 0.0284957737	-0.199199
C	 0.6380724625	 3.4674079038	 0.3740272996	-0.025678
C	 0.9481705225	 3.6148252146	 1.8759015099	-0.092501
O	 2.1643131917	 2.9228230391	 2.0762276349	-0.244628
C	 2.1200545632	 1.7397202059	 1.2837724685	-0.091833
C	 1.1871924646	 2.0532493446	 0.0857928251	-0.161672
H	-2.0762857947	 1.5979563753	-0.0198901517	 0.252672
H	-1.0672510125	 3.8357682818	-0.9614758989	 0.110852
H	-1.4770834088	 3.951649394	 0.7568993397	 0.114574
H	 1.1488909243	 4.2455351991	-0.1950516465	 0.086942
H	 1.0904336023	 4.6498063487	 2.1975365644	 0.112169
H	 0.1322839955	 3.1724373994	 2.47443924	 0.091741
H	 3.1433744687	 1.5065211543	 0.980161806	 0.113236
H	 1.7289644393	 0.8892672183	 1.8593434628	 0.11671
H	 1.7124579803	 1.9694292733	-0.8683569095	 0.106363
65.5957	144.1585	212.7285	253.2494	328.6557	456.2048	531.9042	565.745	633.5501	657.2977	730.4577	778.3277	824.2632	870.674	949.3563	952.7203	991.5603	1015.1164	1026.7834	1074.2305	1091.249	1116.3444	1135.5824	1204.2506	1227.7527	1239.2465	1259.5355	1266.1497	1279.9391	1309.2351	1326.7777	1359.2617	1371.8941	1404.394	1452.3455	1510.3217	1529.2626	1535.0811	1825.8082	2952.3233	3009.2844	3013.4489	3046.4057	3080.4049	3088.4927	3096.8887	3105.8752	3639.4769
O=C1NCC2COCC12	O=C1NC[C@H]2COC[C@@H]12	
InChI=1S/C6H9NO2/c8-6-5-3-9-2-4(5)1-7-6/h4-5H,1-3H2,(H,7,8)	InChI=1S/C6H9NO2/c8-6-5-3-9-2-4(5)1-7-6/h4-5H,1-3H2,(H,7,8)/t4-,5+/m0/s1
