18
gdb 68195	3.4581	1.29311	1.17556	4.627	76.17	-0.2656	0.0152	0.2809	1099.7127	0.148324	-401.948203	-401.940426	-401.939482	-401.98028	30.568	
C	-0.1036834637	 1.5023195609	-0.0092541571	-0.492435
C	 0.0903140528	 0.014044808	 0.0249736616	 0.442461
C	 1.0482245902	-0.7914324022	-0.8936113957	-0.277211
C	 0.7059896591	-1.9149676362	 0.1308307957	-0.075556
C	 0.6861706096	-0.7920752343	 1.2115687692	-0.277969
C	-0.8125393399	-2.0470571134	-0.1128647534	-0.029763
O	-1.1842858964	-0.6589560773	-0.1853442443	-0.311299
C	-1.1677721917	-2.7551146485	-1.3504970823	 0.288255
N	-1.4389504737	-3.3329645703	-2.3135748879	-0.328172
H	 0.848880704	 2.0141402449	 0.1522384096	 0.122862
H	-0.50734502	 1.8129967913	-0.9774302953	 0.137792
H	-0.8050132227	 1.8159583736	 0.7697331971	 0.133608
H	 0.7538386798	-0.9272253102	-1.9363818617	 0.125065
H	 2.0868704144	-0.4668708559	-0.8173232158	 0.109243
H	 1.2758643777	-2.8368745177	 0.2272432412	 0.09541
H	 1.6904579225	-0.4704250545	 1.4910435711	 0.109934
H	 0.0560329722	-0.92448436	 2.0947718302	 0.105159
H	-1.3316988439	-2.5325529382	 0.7222771278	 0.122616
115.13	149.3223	206.3066	281.8835	307.1071	360.2681	466.8277	481.5763	526.3546	566.5447	646.2761	693.0247	818.7465	855.2102	858.9474	891.4656	896.191	944.1644	985.1201	989.8969	1015.9768	1031.8876	1051.7643	1106.4769	1110.2313	1190.5156	1192.0432	1216.8509	1234.5277	1281.5203	1292.8851	1341.1942	1366.6227	1420.5491	1475.8393	1480.647	1492.4674	1513.0744	2359.2194	3036.9281	3044.6417	3066.9008	3077.9362	3116.6354	3122.7722	3136.8031	3143.0633	3146.1886
CC12CC(C1)C(O2)C#N	C[C@@]12C[C@@H](C1)[C@@H](O2)C#N	
InChI=1S/C7H9NO/c1-7-2-5(3-7)6(4-8)9-7/h5-6H,2-3H2,1H3	InChI=1S/C7H9NO/c1-7-2-5(3-7)6(4-8)9-7/h5-6H,2-3H2,1H3/t5-,6-,7+/m0/s1
