22
gdb 10338	2.06887	1.60868	1.10942	2.5182	78.66	-0.2378	-0.0077	0.2301	1215.1369	0.197317	-350.24052	-350.230009	-350.229065	-350.2765	36.872	
C	-0.0096388883	 1.3935435353	 0.2311906206	-0.393983
C	 0.095706103	-0.1175191068	 0.0044465852	-0.180594
C	 0.7036170524	-0.5171045545	-1.3657329099	-0.061952
C	 2.2024645241	-0.1974643378	-1.467248837	-0.171443
C	 2.7772630144	-0.4081678031	-2.8716773754	-0.394982
C	 0.4442481043	-2.0162442942	-1.5551800876	 0.392039
C	-0.8424850352	-2.4010899513	-2.2638511032	-0.481302
O	 1.216354071	-2.8513072007	-1.1405459029	-0.317803
H	 0.9701889575	 1.8797066857	 0.2274559279	 0.124929
H	-0.6203012841	 1.8681629856	-0.5449459737	 0.114638
H	-0.4769225698	 1.6059044112	 1.1979384652	 0.11673
H	 0.6993140332	-0.579070326	 0.7950992128	 0.115553
H	-0.9070677799	-0.554402012	 0.0959282218	 0.095919
H	 0.1554911485	 0.0279470968	-2.1475622	 0.066812
H	 2.372404587	 0.8394275951	-1.1589259108	 0.090774
H	 2.7325065029	-0.8375998325	-0.7542210947	 0.118966
H	 2.6748074191	-1.4505920725	-3.1889251046	 0.127783
H	 2.2693163435	 0.2227606132	-3.6103487527	 0.107312
H	 3.8423012289	-0.1586977935	-2.9010635209	 0.114091
H	-1.6960379456	-1.836175707	-1.8750486613	 0.134068
H	-0.7543156129	-2.1461122884	-3.3271988092	 0.142778
H	-1.022565014	-3.4723744826	-2.1655456095	 0.139666
47.6861	73.3266	100.5272	141.0034	171.2091	198.7878	201.3079	259.719	287.9258	332.0598	404.5085	447.6503	591.734	595.7159	728.2374	767.5881	846.1569	880.8232	919.1732	959.5222	1013.0248	1031.0313	1035.5189	1054.6022	1121.169	1125.0669	1159.9016	1198.9301	1272.1429	1290.5691	1331.6505	1355.2525	1369.2356	1377.2766	1395.026	1410.1301	1414.7224	1462.4956	1474.9255	1477.6473	1487.9472	1498.2827	1500.3374	1506.1969	1507.7182	1806.0513	3004.6876	3020.9074	3030.7032	3034.1029	3034.1677	3046.1107	3060.3203	3081.0225	3095.749	3100.1997	3101.1386	3108.8066	3112.1116	3150.4802
CCC(CC)C(C)=O	CCC(CC)C(=O)C	
InChI=1S/C7H14O/c1-4-7(5-2)6(3)8/h7H,4-5H2,1-3H3	InChI=1S/C7H14O/c1-4-7(5-2)6(3)8/h7H,4-5H2,1-3H3
