21
gdb 107050	3.85205	1.08448	0.9679	2.5388	77.96	-0.235	0.0831	0.3182	1291.1041	0.182732	-424.215483	-424.206505	-424.205561	-424.249068	34.455	
C	 0.0602338845	 1.5391875746	-0.0337098799	-0.400592
C	 0.072691656	 0.0130562298	 0.0617082282	-0.000427
C	 0.8053152675	-0.6664410691	-1.1211759332	-0.109718
O	 1.3443798537	-1.8929280235	-0.6335401286	-0.312432
C	 1.5421184901	-1.7711690061	 0.762005832	 0.428303
C	 1.62169188	-3.1272780241	 1.4024243612	-0.141274
O	 2.7249667086	-3.8778377269	 0.9235706547	-0.418272
C	 2.3187507772	-0.5738696717	 1.2447635653	-0.357594
C	 0.7951276023	-0.5745994501	 1.2698711483	-0.134712
H	 1.0788010511	 1.9411732525	-0.0154899862	 0.118942
H	-0.4182726214	 1.8750050133	-0.9603125765	 0.115635
H	-0.4893431952	 1.9826515494	 0.8022204475	 0.118859
H	-0.9624741887	-0.3501993527	 0.091869324	 0.080165
H	 0.1468483366	-0.8975275972	-1.9633227824	 0.110425
H	 1.6108896562	-0.0165352436	-1.4942750817	 0.094998
H	 1.7553609977	-3.0217866611	 2.4834808585	 0.104796
H	 0.6735170141	-3.6608148623	 1.2276634894	 0.08885
H	 2.664869134	-3.8606492645	-0.0382809454	 0.292268
H	 2.8266387243	-0.6684631194	 2.198440552	 0.117981
H	 2.8419307799	 0.0459878961	 0.5242899686	 0.115307
H	 0.2846313016	-0.5814396634	 2.2268141341	 0.088493
76.9163	111.18	179.9732	212.6479	231.2863	294.7192	355.7111	381.906	402.0308	424.1918	512.6291	619.1096	691.8749	713.0627	808.8989	885.9507	901.4369	927.3293	949.9966	963.8907	987.8331	1024.6811	1036.1663	1046.0105	1072.138	1080.4941	1104.8651	1140.3678	1171.7426	1183.1961	1234.5015	1265.6247	1283.3576	1335.7293	1348.2449	1377.7579	1391.4468	1401.1148	1414.4866	1445.1211	1487.7845	1494.1861	1495.8938	1500.4585	1528.9579	2976.5147	2991.8959	3022.5409	3031.11	3082.1142	3083.1276	3097.3174	3105.6507	3132.9562	3167.2645	3217.4167	3805.2379
CC1COC2(CO)CC12	C[C@H]1CO[C@@]2(CO)C[C@@H]12	
InChI=1S/C7H12O2/c1-5-3-9-7(4-8)2-6(5)7/h5-6,8H,2-4H2,1H3	InChI=1S/C7H12O2/c1-5-3-9-7(4-8)2-6(5)7/h5-6,8H,2-4H2,1H3/t5-,6-,7+/m0/s1
