16
gdb 16416	3.53919	2.29603	1.8696	2.2451	64.08	-0.2433	-0.0053	0.238	753.9291	0.132777	-383.718241	-383.712015	-383.711071	-383.748286	25.418	
O	 0.0509193826	 1.3983205391	-0.0467723928	-0.440717
C	 0.0496069885	-0.0236646223	-0.0424642144	 0.118507
C	 0.760890729	-0.5599305307	 1.1892022526	-0.119919
C	 0.0479916094	-1.2330772993	 2.0937423292	-0.052387
C	-1.4144374033	-1.4394856331	 1.7623862232	 0.043087
C	-1.5281452434	-2.0287143841	 0.3328411573	-0.251974
C	-1.3996163131	-0.5391810331	-0.0417573105	 0.050416
O	-1.9602240893	-0.1740010282	 1.256935655	-0.308062
H	-0.4795906582	 1.6508456007	 0.7211013306	 0.284797
H	 0.5664790474	-0.3257366593	-0.9611279195	 0.089157
H	 1.8121056732	-0.3208130088	 1.3148538436	 0.103315
H	 0.4690710301	-1.6348157706	 3.0095020011	 0.098633
H	-2.0150220779	-1.8506789146	 2.5752100749	 0.081293
H	-0.7586601255	-2.7293005156	 0.0057936122	 0.10625
H	-2.5269851215	-2.4111052385	 0.1138088206	 0.112472
H	-1.9756772581	-0.1295328613	-0.8750413633	 0.085134
147.8854	271.3609	378.3246	401.1175	468.4156	489.816	550.2144	620.0943	734.6102	743.8331	829.513	855.9211	890.7109	928.1635	957.474	961.7359	970.4524	984.425	1050.6192	1071.4065	1107.8843	1116.8627	1161.2129	1203.7063	1249.5082	1262.3979	1304.6961	1310.1815	1330.136	1358.7327	1388.4463	1429.2314	1487.9278	1685.6992	3045.11	3073.4286	3088.8582	3103.4236	3140.2459	3171.7849	3194.7091	3762.2581
OC1C=CC2CC1O2	O[C@H]1C=C[C@@H]2C[C@H]1O2	
InChI=1S/C6H8O2/c7-5-2-1-4-3-6(5)8-4/h1-2,4-7H,3H2	InChI=1S/C6H8O2/c7-5-2-1-4-3-6(5)8-4/h1-2,4-7H,3H2/t4-,5+,6-/m1/s1
