15
gdb 48708	4.90568	1.04513	0.99696	4.0473	68.	-0.2656	-0.0501	0.2154	1169.9053	0.110054	-457.696413	-457.688655	-457.687711	-457.729064	28.642	
O	 0.061084646	 0.1306069546	-0.6621488528	-0.248573
C	 0.1620737257	 1.0378554175	 0.1226914174	 0.054556
C	 1.3101217383	 1.9724251129	 0.1879035552	 0.316035
C	 1.6702163415	 3.0061973691	 1.273965287	-0.411739
C	 2.1064625199	 3.9459908379	 0.1233086321	 0.456015
C	 1.9299572729	 5.3926641287	 0.0048360895	-0.265867
O	 3.2305224251	 4.7908645524	 0.1065316719	-0.254767
C	 1.8032681303	 2.8749293097	-0.9065164021	-0.121057
O	 2.5020038412	 1.6961391408	-0.5392411833	-0.247775
H	-0.6305479501	 1.2616397943	 0.8714056292	 0.080383
H	 0.8151889593	 3.3858430482	 1.8386698765	 0.124065
H	 2.4610013062	 2.6817255097	 1.9522346712	 0.137489
H	 1.6983919346	 5.8388164942	-0.9614419538	 0.126053
H	 1.6091469197	 5.9654206873	 0.8735699953	 0.125254
H	 1.4707508894	 2.9620760627	-1.9349095732	 0.129928
77.1827	113.5303	197.9365	267.3656	293.9182	351.6652	402.8247	441.4432	536.3331	646.8767	758.5266	808.2293	833.9845	852.1659	891.1231	929.5007	962.7496	985.8343	1035.7391	1063.8991	1116.6567	1125.0481	1149.3402	1162.3299	1200.8522	1231.8499	1240.474	1395.949	1429.4981	1439.2581	1467.3772	1537.3398	1819.8148	2881.9895	3074.1714	3084.253	3137.7348	3172.9509	3190.3903
O=CC12CC3(CO3)C1O2	O=C[C@]12C[C@]3(CO3)[C@H]1O2	
InChI=1S/C6H6O3/c7-2-5-1-6(3-8-6)4(5)9-5/h2,4H,1,3H2	InChI=1S/C6H6O3/c7-2-5-1-6(3-8-6)4(5)9-5/h2,4H,1,3H2/t4-,5+,6-/m0/s1
