18
gdb 9305	6.14142	0.86066	0.81506	2.7728	74.35	-0.2427	-0.0595	0.1832	1423.737	0.152398	-381.142295	-381.132911	-381.131966	-381.177096	32.988	
C	 0.3414682195	 1.4590249238	 0.078585304	-0.376932
C	 0.1121680505	-0.0520672613	 0.0026723492	-0.162299
C	-1.3811886522	-0.4253788992	 0.0075393449	-0.163449
N	-1.5757533746	-1.853578703	-0.1680185126	-0.264344
C	-1.6750859675	-2.6029415982	 0.8657658214	 0.265229
N	-1.6789303441	-2.2880223923	 2.1987822091	-0.556863
C	-1.8569900453	-4.0668082258	 0.5930206371	 0.14243
O	-1.9179812184	-4.8990068185	 1.466545961	-0.270893
H	 1.4091278788	 1.697888898	 0.0645903688	 0.117267
H	-0.1256457652	 1.9725170731	-0.7688107957	 0.12026
H	-0.0821659094	 1.8839074388	 0.9956245101	 0.112092
H	 0.5641440105	-0.4601164077	-0.9080426144	 0.115545
H	 0.6138940482	-0.5508883461	 0.8418835172	 0.09121
H	-1.8571782397	-0.0382949113	 0.924582373	 0.082588
H	-1.8689528918	 0.0820610419	-0.8333741154	 0.108097
H	-1.265362144	-1.4305302907	 2.5193454073	 0.262263
H	-1.6293622805	-3.0817588471	 2.8208063173	 0.269591
H	-1.9209354747	-4.3027705942	-0.4851871823	 0.108208
47.6019	76.6486	88.4404	198.7111	238.6238	252.4655	300.32	322.751	361.1232	403.6608	525.5193	551.6592	643.928	680.4444	756.9558	886.6797	891.0743	925.6755	1008.7242	1031.4364	1045.1274	1109.4953	1138.9894	1194.2841	1270.7634	1314.8033	1319.7613	1361.6069	1374.5921	1378.2603	1413.6375	1490.3205	1500.3485	1504.8685	1525.3586	1613.1899	1724.8766	1805.6229	2958.0856	2978.4431	3022.9571	3031.1894	3044.2539	3069.4332	3099.4949	3105.8582	3585.1396	3721.9073
CCCN=C(N)C=O	CCCN=C(N)C=O	
InChI=1S/C5H10N2O/c1-2-3-7-5(6)4-8/h4H,2-3H2,1H3,(H2,6,7)	InChI=1S/C5H10N2O/c1-2-3-7-5(6)4-8/h4H,2-3H2,1H3,(H2,6,7)
