17
gdb 86635	3.40829	1.06908	0.90799	2.1072	72.92	-0.2515	-0.0604	0.1911	1262.6067	0.135046	-458.980971	-458.97225	-458.971306	-459.014533	32.169	
O	-0.250279945	 1.4271456688	 0.09048358	-0.444058
C	-0.029803268	 0.0189228364	 0.0452909571	 0.042213
C	 0.5887240513	-0.4978523053	 1.3635893556	-0.332019
C	-0.628939993	-0.7840658636	 2.2176006927	 0.255772
C	-0.5661085368	-0.9950854741	 3.6655071522	 0.070598
O	 0.4602806828	-0.9729603897	 4.3093013019	-0.271728
C	-1.7466487858	-0.8283187105	 1.4805191525	-0.209618
C	-1.455526261	-0.6099050055	 0.0098459957	 0.124439
O	-2.3982950353	 0.1611127434	-0.6899141051	-0.436874
H	 0.5838780536	 1.878616273	-0.0627710593	 0.296735
H	 0.5584863556	-0.2475303653	-0.840271353	 0.076233
H	 1.1742090273	-1.4107886675	 1.1964673189	 0.119781
H	 1.2633762205	 0.2316776707	 1.8216295439	 0.120741
H	-1.5495713241	-1.1784369568	 4.1522879528	 0.071354
H	-2.7468299548	-1.0278654018	 1.8496786865	 0.118421
H	-1.4109490687	-1.5868767556	-0.4929661152	 0.102566
H	-2.1365284188	 1.0812378135	-0.5474948371	 0.295445
88.7968	114.0241	169.6428	179.9123	228.7616	303.7854	370.8693	411.2741	429.7694	449.6445	503.7828	592.0534	723.7059	767.2492	833.6154	877.9574	891.2083	892.5375	999.0463	1031.3979	1037.9535	1086.2612	1107.1842	1160.509	1184.6409	1219.1322	1265.6781	1277.9625	1311.4489	1325.9559	1370.2175	1413.3717	1421.8071	1446.3483	1472.3231	1679.8667	1783.2152	2886.2841	3003.1609	3030.1862	3045.7397	3086.3845	3200.697	3754.4613	3848.4669
OC1CC(C=O)=CC1O	O[C@H]1CC(=C[C@H]1O)C=O	
InChI=1S/C6H8O3/c7-3-4-1-5(8)6(9)2-4/h1,3,5-6,8-9H,2H2	InChI=1S/C6H8O3/c7-3-4-1-5(8)6(9)2-4/h1,3,5-6,8-9H,2H2/t5-,6+/m1/s1
