14
gdb 5727	4.95547	2.2207	1.57017	4.9028	62.18	-0.2027	0.0402	0.2429	763.4547	0.111194	-378.751479	-378.745556	-378.744612	-378.781634	22.355	
C	 0.0594931005	 1.3577498209	-0.175743652	-0.099756
C	 1.4873782562	 1.8637430612	 0.1907968211	-0.206437
N	 2.0950547533	 0.5989367003	 0.5403355099	-0.043842
C	 3.2976638522	 0.0567359861	 0.9783555689	-0.164851
C	 2.9730130193	-1.216439805	 1.3646258348	-0.085093
N	 1.6118561852	-1.4795345551	 1.213709683	-0.388096
C	 1.1573300961	-0.3609949788	 0.7365265135	 0.487556
O	-0.0928255491	 0.0637046157	 0.4467790486	-0.267009
H	-0.7346958271	 2.0084839985	 0.1920001467	 0.135337
H	-0.0430076349	 1.236604919	-1.259537497	 0.130275
H	 1.9746787455	 2.3513580825	-0.6575588744	 0.133201
H	 1.4830630723	 2.5576234771	 1.0403398198	 0.131347
H	 4.2295708757	 0.5933488877	 0.934361848	 0.127139
H	 3.6400646948	-1.97951194	 1.7355147891	 0.110229
140.9183	150.6567	297.6635	468.7887	613.0249	647.5629	678.3482	729.5447	748.0552	780.1406	836.1865	875.4532	943.3453	949.3046	1029.9877	1087.3053	1132.7925	1139.9232	1180.9619	1217.5316	1251.9969	1295.5625	1304.7764	1377.9776	1402.5897	1487.2476	1516.5365	1520.988	1539.8024	1629.4235	3027.2187	3047.9054	3089.6613	3129.5862	3251.4252	3288.2996
C1CN2C=CN=C2O1	C1Cn2ccnc2O1	
InChI=1S/C5H6N2O/c1-2-7-3-4-8-5(7)6-1/h1-2H,3-4H2	InChI=1S/C5H6N2O/c1-2-7-3-4-8-5(7)6-1/h1-2H,3-4H2
