18
gdb 79098	2.43565	2.072	1.53332	3.8427	74.09	-0.2384	-0.009	0.2294	924.4683	0.148857	-401.931638	-401.924377	-401.923433	-401.963103	29.128	
C	 0.0642926097	 1.6072655549	-0.0531082642	-0.419663
C	 0.0773284066	 0.0879115802	-0.0649881333	 0.038504
C	 0.6703823046	-0.7229308929	-1.2163282724	-0.108401
C	 2.1941392728	-0.883285439	-1.0991060256	-0.055356
C	 3.0305564682	 0.0453171752	-0.2465725391	-0.35847
C	 2.2023860375	 0.1388153566	 1.0493241421	 0.393357
O	 2.4297187635	 0.8351284017	 1.9964413907	-0.314139
N	 1.0078062374	-0.6739947199	 0.9089532286	-0.189171
C	 1.2804684432	-1.6453706432	-0.192286455	-0.042658
H	 1.0128507272	 2.0499770036	-0.365249461	 0.127225
H	-0.7113631131	 1.9595378646	-0.7411016271	 0.119733
H	-0.1724795372	 1.9800977608	 0.9480390471	 0.147085
H	-0.9304563374	-0.2771975124	 0.1557618596	 0.101708
H	 0.1657319269	-0.9804341383	-2.1404503091	 0.09356
H	 2.6485293359	-1.4097126382	-1.9309104496	 0.098443
H	 4.0205171303	-0.3815071086	-0.0473988828	 0.132448
H	 3.1878476417	 1.0548830679	-0.6378018462	 0.134019
H	 1.2218592324	-2.7129414631	-0.0284131527	 0.101778
119.7597	176.8872	214.6759	262.5986	388.994	459.7677	542.4459	583.3396	610.5516	673.0071	737.5289	754.8831	783.7227	818.3216	844.7159	890.7029	962.7441	982.5523	1011.5139	1013.5173	1041.2526	1054.3106	1083.1295	1090.248	1100.3689	1134.8582	1157.0101	1187.0155	1232.4965	1277.4371	1287.1808	1321.8105	1384.4588	1405.0598	1413.2374	1461.8497	1487.5077	1494.5725	1864.5333	3042.8502	3045.2765	3052.7648	3088.8012	3110.7294	3128.0064	3174.6556	3181.7951	3205.1388
CC1C2C3CC(=O)N1C23	C[C@H]1[C@H]2[C@H]3CC(=O)N1[C@@H]23	
InChI=1S/C7H9NO/c1-3-6-4-2-5(9)8(3)7(4)6/h3-4,6-7H,2H2,1H3	InChI=1S/C7H9NO/c1-3-6-4-2-5(9)8(3)7(4)6/h3-4,6-7H,2H2,1H3/t3-,4+,6-,7+/m0/s1
