23
gdb 122146	3.27639	0.67582	0.58723	2.7904	79.68	-0.2494	0.0648	0.3142	1937.8172	0.203786	-462.548446	-462.537259	-462.536315	-462.585677	39.505	
C	 0.0799252355	 1.5153495683	-0.070027294	-0.385966
C	 0.0302552075	-0.0028982294	-0.0556356199	-0.028769
O	 0.7023518108	-0.4877940939	-1.2011918427	-0.249717
C	 0.7119241906	-1.8967362551	-1.2919428292	-0.070553
C	 1.4894497724	-2.312257878	-2.5405994106	-0.061909
C	 2.9363347913	-1.8052082879	-2.4583840537	-0.075139
O	 3.7127761617	-2.1159455579	-3.6224789319	-0.423214
C	 1.4299657583	-3.8368951379	-2.7371532462	-0.054249
O	 1.9487433523	-4.2573647168	-3.9814036691	-0.437176
H	 1.1160060999	 1.865811895	-0.0603004584	 0.126044
H	-0.405827686	 1.9067859218	-0.9683296804	 0.127347
H	-0.4321304987	 1.9218576732	 0.8071035142	 0.116941
H	 0.5054192875	-0.3982408076	 0.8582559458	 0.086978
H	-1.0146246199	-0.3567506217	-0.0523326064	 0.087674
H	 1.1735383067	-2.334935519	-0.3886314924	 0.08627
H	-0.3192649371	-2.2848885933	-1.3443739718	 0.09105
H	 1.0040022286	-1.8431440322	-3.4079957699	 0.082466
H	 2.9454582603	-0.7278184561	-2.2610447803	 0.118294
H	 3.454253121	-2.3006911204	-1.6284102665	 0.111108
H	 3.3747856722	-1.5818261347	-4.3494720265	 0.290788
H	 1.9528696505	-4.3268646284	-1.8954262334	 0.078266
H	 0.3871848979	-4.1747957862	-2.7031002418	 0.099541
H	 2.8104970269	-3.8256477018	-4.0692181449	 0.283925
52.2135	74.0393	91.2724	123.4884	143.4563	178.7268	241.166	247.7932	270.5453	314.7025	329.6994	390.9344	415.7287	483.8763	598.1349	636.7103	821.7792	847.4389	896.568	907.2479	938.3648	1030.9969	1043.9273	1082.4228	1096.3128	1106.1666	1119.0422	1156.4797	1168.3298	1185.8458	1199.2827	1246.6517	1276.6513	1296.593	1301.3287	1353.325	1386.4341	1393.5712	1400.9502	1408.7163	1422.5867	1449.9381	1477.1849	1483.7353	1499.3505	1502.8624	1511.8541	1518.388	1537.4555	2933.7127	2942.6074	2957.6669	2973.6196	2980.3147	3017.6747	3034.706	3045.1881	3048.4825	3082.1711	3119.87	3121.3473	3722.7742	3811.4286
CCOCC(CO)CO	CCOCC(CO)CO	
InChI=1S/C6H14O3/c1-2-9-5-6(3-7)4-8/h6-8H,2-5H2,1H3	InChI=1S/C6H14O3/c1-2-9-5-6(3-7)4-8/h6-8H,2-5H2,1H3
