16
gdb 11604	6.35953	0.92981	0.84031	2.034	62.79	-0.2479	0.0559	0.3038	1310.2496	0.130605	-417.072168	-417.063696	-417.062752	-417.106454	29.945	
N	-0.1151668669	 1.3003296797	 0.2965288893	-0.565455
C	-0.0030656876	-0.024570563	-0.1097773988	 0.456418
O	 0.9337845747	-0.4315786417	-0.771966893	-0.391312
N	-1.0333695163	-0.8282277531	 0.325959721	-0.341184
C	-0.9850583111	-2.2671119825	 0.1487093954	-0.174874
C	-2.3319548366	-2.7996181038	-0.2683184039	 0.089432
C	-2.8429361449	-4.0819211749	 0.2257511812	-0.178088
O	-3.3250590585	-2.8501435706	 0.7662647502	-0.245121
H	 0.5076871146	 1.9092328778	-0.2123278229	 0.260864
H	-1.0436805152	 1.6763593571	 0.41906903	 0.24728
H	-1.6392203382	-0.4855446383	 1.0548336326	 0.248577
H	-0.2318597043	-2.4617765068	-0.6190762773	 0.152303
H	-0.6667410186	-2.774094861	 1.0702500658	 0.104952
H	-2.7072154836	-2.4216921001	-1.2199706194	 0.099886
H	-3.558436694	-4.6439827154	-0.3721038212	 0.119396
H	-2.2313264533	-4.6803058533	 0.8999478013	 0.116926
37.2231	64.9204	99.1838	233.4027	258.2671	359.7358	379.9863	439.1656	475.2345	544.3961	569.4466	656.8566	775.5253	796.4768	864.1424	909.0613	955.7977	1019.8672	1092.0479	1101.7429	1132.6064	1157.8376	1166.8474	1175.4316	1264.8528	1292.7215	1318.3809	1366.8805	1454.6653	1484.3269	1528.5211	1543.4127	1627.9112	1801.7903	3009.7333	3085.6354	3106.6603	3116.4218	3172.3696	3572.7518	3629.552	3687.285
NC(=O)NCC1CO1	NC(=O)NC[C@H]1CO1	
InChI=1S/C4H8N2O2/c5-4(7)6-1-3-2-8-3/h3H,1-2H2,(H3,5,6,7)	InChI=1S/C4H8N2O2/c5-4(7)6-1-3-2-8-3/h3H,1-2H2,(H3,5,6,7)/t3-/m0/s1
