20
gdb 73614	2.30561	1.62188	1.26886	3.7884	79.77	-0.2446	0.0109	0.2554	1092.1641	0.171569	-403.171585	-403.163032	-403.162088	-403.2045	32.544	
C	-0.1619291499	 1.624561909	 0.0772431138	-0.472797
C	 0.0221371601	 0.1272917651	 0.07608818	 0.292865
C	-1.0957017494	-0.7614122913	-0.4664444876	-0.261499
C	-0.7839662921	-2.1882669609	 0.04459711	-0.239389
C	 0.0403267778	-2.0002899414	 1.3412592144	-0.222992
C	 0.7115411062	-0.6465173228	 1.1831278322	-0.070455
N	 1.377850872	-0.3797975677	-0.0705536558	-0.088449
C	 1.9394481083	-1.2583865936	-0.9639791308	 0.139831
O	 2.608269194	-2.2220118361	-0.6668482715	-0.310695
H	 0.6923706453	 2.1212165191	 0.5435825527	 0.131623
H	-0.258665258	 2.0078825618	-0.9447296818	 0.125266
H	-1.0703504343	 1.9005702546	 0.6230285373	 0.122284
H	-2.0435440585	-0.3949992499	-0.0534033096	 0.106681
H	-1.1874899339	-0.7124852723	-1.5566750609	 0.106407
H	-1.6941481578	-2.7675801091	 0.2163494544	 0.102687
H	-0.1960429981	-2.7405074055	-0.6924272778	 0.12997
H	-0.6088935121	-1.9605857806	 2.2237591558	 0.103153
H	 0.7606415432	-2.8082171565	 1.4920736352	 0.133173
H	 1.124325372	-0.1449885086	 2.0547117595	 0.096489
H	 1.7740125851	-0.9393210435	-2.0126950596	 0.075846
114.3513	141.692	194.7685	213.6207	235.6319	241.9885	309.963	392.2806	439.6115	568.6901	594.6906	686.4824	717.3022	817.5192	871.3496	879.7534	902.3939	925.9001	966.328	996.9052	1033.71	1036.8258	1057.8941	1080.9802	1132.0026	1171.5068	1193.2013	1237.0248	1247.2624	1263.9578	1305.6097	1334.2087	1343.4837	1355.7748	1414.9055	1418.4006	1456.9368	1479.0079	1485.3984	1489.1095	1501.5949	1509.1963	1784.2841	2930.0472	3031.476	3036.1889	3042.8794	3068.5553	3077.0844	3095.0531	3101.1033	3115.5157	3123.498	3145.2082
CC12CCCC1N2C=O	C[C@]12CCC[C@H]1N2C=O	
InChI=1S/C7H11NO/c1-7-4-2-3-6(7)8(7)5-9/h5-6H,2-4H2,1H3	InChI=1S/C7H11NO/c1-7-4-2-3-6(7)8(7)5-9/h5-6H,2-4H2,1H3/t6-,7+,8?/m1/s1
