18
gdb 35401	2.93491	1.57165	1.29997	4.2495	78.41	-0.252	0.0291	0.2811	1010.8546	0.149663	-364.772457	-364.765273	-364.764329	-364.804011	28.944	
N	-0.2825398068	-1.1968517135	-0.2993727731	-0.342536
C	-0.1675268928	-0.0544688293	-0.1571169192	 0.285239
C	-0.0209170046	 1.3783997266	 0.0287025977	-0.168302
C	-0.2524969525	 1.9817745293	 1.4665234745	-0.275073
C	 1.1396640041	 2.6780911201	 1.3905406129	-0.016567
C	 2.3792655639	 1.9622641386	 1.9754825122	-0.058879
C	 2.2960153482	 0.4716260468	 1.8400978739	-0.292569
C	 2.6278767132	 1.2767541633	 0.6158068277	-0.053858
C	 1.4184783987	 2.0160054087	 0.0139357149	-0.03506
H	-0.6585473852	 1.8788811241	-0.7052610668	 0.125338
H	-1.1004835425	 2.6680035108	 1.4985162237	 0.114539
H	-0.3723849746	 1.2455436538	 2.2625224905	 0.125754
H	 1.1490147326	 3.7624696538	 1.4927418456	 0.077656
H	 3.0924738507	 2.4317241601	 2.6421661509	 0.090513
H	 3.1446579852	-0.0640946041	 2.2540702542	 0.119353
H	 1.3637895208	-0.0739477129	 1.9370165658	 0.129294
H	 3.55912739	 1.124281173	 0.0844069941	 0.092911
H	 1.6530365317	 2.6140205108	-0.8658790394	 0.082246
112.1139	142.3086	255.5172	306.2774	367.464	475.8565	534.6377	583.0826	672.228	714.3294	737.9549	739.4414	833.3879	868.9055	892.475	911.6521	928.2252	966.1861	992.7655	1028.2163	1030.6414	1059.7438	1065.1057	1090.2953	1093.366	1106.3902	1161.8457	1185.7108	1204.8587	1216.7268	1256.7048	1284.7312	1301.3271	1311.01	1338.2447	1365.2129	1477.5169	1506.639	2347.2573	3069.7246	3079.9836	3111.5575	3120.2616	3133.2307	3137.5654	3178.2718	3187.6367	3210.0071
N#CC1CC2C3CC3C12	N#C[C@H]1C[C@H]2[C@H]3C[C@H]3[C@@H]12	
InChI=1S/C8H9N/c9-3-4-1-6-5-2-7(5)8(4)6/h4-8H,1-2H2	InChI=1S/C8H9N/c9-3-4-1-6-5-2-7(5)8(4)6/h4-8H,1-2H2/t4-,5-,6+,7-,8+/m1/s1
