20
gdb 82924	2.49685	1.80988	1.40887	1.3918	77.91	-0.2177	0.0749	0.2926	1002.5794	0.171541	-403.109353	-403.101126	-403.100182	-403.14158	32.736	
C	-0.2298918591	 1.4572120466	-0.1976002585	-0.313345
N	 0.0563111877	 0.0602409331	 0.1001350552	-0.097536
C	 1.3930882921	-0.5046003771	-0.0321557315	-0.021414
C	 2.6075852507	 0.425247006	-0.1332295465	-0.264908
C	 2.6712090012	 1.1380834583	 1.2131387982	-0.069272
C	 2.9447255718	 0.2892170624	 2.4447031353	-0.363518
C	 1.5330081779	 0.6775272853	 2.0854111349	 0.405896
O	 0.8476737916	 1.616919624	 2.8618780985	-0.475884
C	 0.7465027573	-0.3498229389	 1.3144842771	-0.131517
H	 0.5558242197	 2.1733859195	 0.0738578256	 0.118409
H	-0.4252794604	 1.5479920264	-1.2711912841	 0.11439
H	-1.1391225486	 1.7447913956	 0.3379078329	 0.126347
H	 1.4356351157	-1.4620489066	-0.5451638156	 0.086596
H	 3.5132669751	-0.1587447158	-0.3324995855	 0.102323
H	 2.5025487347	 1.1365409424	-0.9608693648	 0.106031
H	 2.9764100237	 2.1776705686	 1.2558095577	 0.093486
H	 3.2659450749	-0.7409672127	 2.3208059225	 0.109074
H	 3.3806073668	 0.809656116	 3.2906782013	 0.113406
H	 0.5424568581	 1.1763478847	 3.6625140899	 0.281931
H	 0.294723239	-1.1811740579	 1.8548269273	 0.079504
129.5956	168.8186	175.7258	261.8472	278.8238	334.9771	372.0632	433.4033	474.5976	526.6717	585.4096	716.0044	743.5553	779.1811	819.9118	852.7778	895.3862	925.8354	950.8301	977.7504	1009.6184	1029.764	1048.2503	1064.8501	1087.4477	1113.3158	1132.8244	1155.5898	1177.5356	1219.8895	1230.4966	1259.0545	1301.6813	1316.3478	1332.3146	1351.3443	1393.8116	1408.3574	1453.8474	1479.5646	1489.3063	1492.325	1502.7126	3015.1902	3032.8599	3064.961	3077.8468	3105.0854	3106.7693	3120.6048	3136.5251	3174.1887	3214.5352	3795.9061
CN1C2CC3CC3(O)C12	CN1[C@H]2C[C@@H]3C[C@]3(O)[C@@H]12	
InChI=1S/C7H11NO/c1-8-5-2-4-3-7(4,9)6(5)8/h4-6,9H,2-3H2,1H3	InChI=1S/C7H11NO/c1-8-5-2-4-3-7(4,9)6(5)8/h4-6,9H,2-3H2,1H3/t4-,5+,6+,7-,8?/m1/s1
