13
gdb 44928	3.23494	1.51628	1.49354	2.6417	56.82	-0.2653	-0.0503	0.2151	893.8104	0.090353	-493.746359	-493.739983	-493.739039	-493.777363	24.588	
O	 0.022876514	 0.0190122315	 0.0328320219	-0.292791
C	-0.0253328326	 1.2132090653	 0.0293425357	 0.441681
C	-1.2562498419	 2.1445861002	 0.0240413072	-0.363434
C	-0.5347994544	 3.5116639258	 0.022883002	-0.10134
O	 0.6243081565	 3.2502687942	-0.8021904963	-0.236707
C	 1.1495767752	 2.2245175975	-0.0024699302	 0.054791
O	 1.2085545673	 2.7894626192	 1.3287904533	-0.239499
C	 0.1382592905	 3.6509979967	 1.3946413306	 0.469553
O	-0.1541589283	 4.29039868	 2.3548626013	-0.322197
H	-1.8268802714	 2.0033562386	-0.8972323604	 0.158189
H	-1.910349351	 1.9659785039	 0.8798112068	 0.162697
H	-1.0810783101	 4.382761951	-0.3243881733	 0.133802
H	 2.1304501561	 1.8840483661	-0.3207483787	 0.135254
108.4451	192.3597	309.4333	416.8422	462.8039	544.5862	564.2159	603.1455	720.5147	742.2122	760.7924	840.8285	847.3645	921.7653	945.5344	958.9376	984.3757	1075.5262	1095.9378	1143.4666	1167.9262	1229.5797	1245.9507	1291.2577	1298.1226	1340.2107	1448.4473	1890.8578	1921.9528	3079.5937	3135.4267	3184.4453	3187.6906
O=C1CC2OC1OC2=O	O=C1C[C@@H]2O[C@H]1OC2=O	
InChI=1S/C5H4O4/c6-2-1-3-4(7)9-5(2)8-3/h3,5H,1H2	InChI=1S/C5H4O4/c6-2-1-3-4(7)9-5(2)8-3/h3,5H,1H2/t3-,5-/m0/s1
