17
gdb 74115	2.40585	1.77027	1.12918	2.7265	75.72	-0.2401	-0.0495	0.1906	1070.972	0.136535	-421.846726	-421.838934	-421.83799	-421.879233	29.175	
C	 0.2102434693	 1.3976076477	 0.0944261661	-0.498568
C	-0.0144466256	-0.0707472333	-0.0290695496	 0.328387
C	-0.0268633005	-0.825003829	-1.1414503006	-0.291786
C	-0.1878756372	-2.2646135201	-0.8309957805	 0.389954
O	-0.2372831813	-3.1840431755	-1.6157492788	-0.338387
C	-0.2519617518	-2.3740863599	 0.6929150638	-0.209798
C	 1.109567464	-2.5201938045	 1.4254568412	-0.08301
O	 1.0608398738	-1.1555001483	 1.8983806086	-0.292746
C	-0.1975816939	-0.928789086	 1.2054882855	 0.024195
H	 1.0723706495	 1.584061227	 0.7461674521	 0.158315
H	 0.3906734881	 1.8718657531	-0.8726715166	 0.134882
H	-0.6511333462	 1.8843747102	 0.5686429627	 0.139005
H	 0.0997451117	-0.4696570484	-2.1574160789	 0.114324
H	-1.0450926526	-3.0371994869	 1.0340431417	 0.105307
H	 1.1049104195	-3.2318965676	 2.2574331941	 0.116824
H	 1.979169271	-2.7122173747	 0.7867186956	 0.117526
H	-0.9696078476	-0.5577097238	 1.8888809936	 0.085575
99.072	143.7653	176.5209	229.1314	241.9314	316.0389	447.9393	563.0928	577.17	595.4587	722.3668	790.9077	843.8182	865.3354	906.562	948.7078	959.626	995.3895	1009.8716	1024.7956	1052.2796	1063.6275	1154.8644	1164.7851	1190.7088	1218.1214	1261.2908	1275.9212	1302.9301	1345.4587	1348.9662	1405.8218	1475.2284	1480.0644	1520.0605	1675.0499	1811.4095	3025.9293	3030.4337	3046.4948	3078.2917	3079.7379	3126.5991	3132.8139	3207.3638
CC1=CC(=O)C2COC12	CC1=CC(=O)[C@H]2CO[C@@H]12	
InChI=1S/C7H8O2/c1-4-2-6(8)5-3-9-7(4)5/h2,5,7H,3H2,1H3	InChI=1S/C7H8O2/c1-4-2-6(8)5-3-9-7(4)5/h2,5,7H,3H2,1H3/t5-,7+/m1/s1
