18
gdb 127151	4.36068	0.93918	0.92627	2.2751	74.19	-0.2286	-0.0265	0.2022	1338.5156	0.147697	-435.250693	-435.241939	-435.240995	-435.285505	31.009	
C	-0.7104957021	 1.4836029114	 0.5635622106	-0.323941
N	-0.0634456638	 0.2776940426	 0.0653398478	-0.052573
C	 0.89531011	-0.2555954855	 1.0204970755	-0.315629
C	-1.0221462421	-0.7342857503	-0.350529306	-0.260846
C	-1.8093981973	-0.3211399751	-1.5548296202	 0.419669
N	-3.101828501	-0.3401727593	-1.7095560978	-0.309204
C	-3.2347832984	 0.0943015012	-3.0053160877	 0.0336
N	-2.1173316003	 0.3705092974	-3.6179447374	-0.110339
O	-1.1506499447	 0.0905764679	-2.6454644959	-0.18151
H	 0.0499428061	 2.2369738385	 0.7877141608	 0.125903
H	-1.3789878036	 1.8959092113	-0.1974840677	 0.133424
H	-1.3038652496	 1.3082555586	 1.4808414467	 0.098106
H	 0.4321172861	-0.5819011222	 1.9712606956	 0.09636
H	 1.4185396541	-1.1125868604	 0.5849611324	 0.122632
H	 1.6381656676	 0.5122217247	 1.2553228495	 0.12571
H	-0.467284952	-1.6455933257	-0.6044594582	 0.133997
H	-1.7547740929	-1.0039451413	 0.4311363264	 0.117415
H	-4.188177676	 0.2103578461	-3.4999083747	 0.147226
27.5978	76.3966	118.3923	239.1322	251.1299	289.9	330.6647	364.843	370.9125	472.0746	657.9835	699.209	792.2792	862.5789	919.0108	930.854	980.6983	990.2498	1028.8966	1065.4901	1069.2084	1122.9656	1167.0506	1189.2684	1205.9889	1253.301	1292.6428	1306.9741	1344.5248	1389.665	1446.8598	1470.595	1480.2246	1485.901	1496.8751	1500.8471	1512.4457	1516.7998	1619.4342	2926.2797	2934.7863	2953.4244	3052.0139	3064.5529	3072.4989	3109.988	3116.2646	3261.6068
CN(C)CC1=NC=NO1	CN(C)Cc1ncno1	
InChI=1S/C5H9N3O/c1-8(2)3-5-6-4-7-9-5/h4H,3H2,1-2H3	InChI=1S/C5H9N3O/c1-8(2)3-5-6-4-7-9-5/h4H,3H2,1-2H3
