23
gdb 118002	3.37765	0.76928	0.65607	1.7016	88.81	-0.2539	0.0531	0.3069	1774.6446	0.20182	-388.26404	-388.252471	-388.251527	-388.301275	41.7	
C	-0.1570302788	 1.5863508776	 0.023509211	-0.382777
C	-0.0692670391	 0.0584823994	 0.0000639257	-0.165049
C	 0.7353936316	-0.4758000778	-1.1906038932	-0.194578
C	 0.7823823919	-2.0088265494	-1.2457771763	 0.132268
O	-0.5270917058	-2.5620860644	-1.2461525171	-0.421665
C	 1.6089870316	-2.5501477374	-2.4463190498	-0.202673
C	 3.0814624226	-2.0867191188	-2.431456985	-0.398211
C	 1.5435885616	-4.0102935853	-2.4990066884	 0.344055
C	 1.537605122	-5.2114874532	-2.5411232386	-0.465165
H	 0.8371677832	 2.0439797205	 0.0817357268	 0.111347
H	-0.6426432469	 1.9704708979	-0.8809090696	 0.110989
H	-0.7347387582	 1.937774612	 0.8840789194	 0.113142
H	 0.3916035068	-0.2980547197	 0.9307168669	 0.095351
H	-1.0727044211	-0.3779083459	-0.0257845796	 0.110407
H	 0.2989552775	-0.1010532566	-2.1300753523	 0.080415
H	 1.7547616389	-0.0753817686	-1.146649463	 0.099608
H	 1.2391800313	-2.3898818141	-0.3237069457	 0.095337
H	-0.957661402	-2.3043890716	-2.0693123046	 0.27644
H	 1.1388823805	-2.1546576839	-3.3609986543	 0.091444
H	 3.6333826301	-2.5614536619	-3.2460395285	 0.130077
H	 3.160620853	-1.0038731336	-2.552168183	 0.119849
H	 3.564452111	-2.3692055588	-1.4907425243	 0.127837
H	 1.5106017384	-6.2723225763	-2.5755434665	 0.191552
41.2967	75.7872	95.6568	113.9125	174.8214	200.2806	233.9522	246.5581	273.6057	276.8608	334.9705	387.2211	410.9393	458.2845	559.4678	592.1013	627.9251	633.9733	747.9359	831.3282	857.337	899.5766	909.8759	980.6947	1042.3839	1044.4048	1071.16	1098.3433	1108.5715	1140.5803	1146.3179	1242.3179	1246.8354	1290.4068	1318.9801	1325.8383	1354.054	1366.8221	1392.2484	1407.2861	1413.0376	1420.3475	1478.3877	1493.77	1494.4581	1499.3385	1500.8177	1511.6887	2235.8382	2975.1274	2987.1065	3024.5326	3027.5835	3039.2887	3045.493	3058.5444	3075.5166	3097.3173	3101.7308	3119.4218	3128.9026	3505.5	3794.0855
CCCC(O)C(C)C#C	CCC[C@@H](O)[C@@H](C)C#C	
InChI=1S/C8H14O/c1-4-6-8(9)7(3)5-2/h2,7-9H,4,6H2,1,3H3	InChI=1S/C8H14O/c1-4-6-8(9)7(3)5-2/h2,7-9H,4,6H2,1,3H3/t7-,8+/m0/s1
