15
gdb 47337	3.2533	1.18443	0.88764	4.6135	76.2	-0.263	-0.0833	0.1797	1219.8861	0.115121	-416.871902	-416.864179	-416.863235	-416.904437	28.573	
O	-0.0040625254	-0.0429593447	-0.1792116578	-0.364916
C	-0.0221159551	 1.1646353035	-0.0244132239	 0.412514
N	-1.1723347928	 1.8764601428	 0.2055891631	-0.337742
C	-1.2339350381	 3.3252116553	 0.0592578445	-0.178523
C	-0.0326352542	 3.9757500498	 0.7469160406	-0.294437
C	 1.2447464091	 3.2634285174	 0.3502381817	 0.153303
C	 1.2283199989	 1.9731344514	-0.0213592383	-0.232518
C	 2.4680360494	 3.9965589607	 0.4261357713	 0.230885
N	 3.4398850213	 4.6227810066	 0.4960643243	-0.319431
H	-2.0199147526	 1.3410972166	 0.0847433292	 0.255057
H	-1.2484364778	 3.6172129488	-1.0018688143	 0.120358
H	-2.1629500826	 3.6830562572	 0.510356907	 0.127199
H	 0.0216057967	 5.0340489445	 0.4780447517	 0.139368
H	-0.1400561688	 3.9282982697	 1.8384055646	 0.145601
H	 2.1296028221	 1.4343269305	-0.2859354438	 0.143281
109.9252	137.3251	151.0322	236.7976	340.2437	410.4756	436.9423	466.8228	556.6061	582.5074	590.7513	669.9189	741.7612	794.18	887.6065	933.6035	942.7747	1001.3137	1078.2987	1109.1732	1145.8176	1228.0842	1260.5681	1295.4276	1352.4395	1373.207	1402.2981	1464.3133	1475.9573	1516.1219	1671.2133	1784.0702	2336.2374	2988.8759	3032.2071	3092.1569	3098.7435	3222.9884	3613.3482
O=C1NCCC(=C1)C#N	O=C1NCCC(=C1)C#N	
InChI=1S/C6H6N2O/c7-4-5-1-2-8-6(9)3-5/h3H,1-2H2,(H,8,9)	InChI=1S/C6H6N2O/c7-4-5-1-2-8-6(9)3-5/h3H,1-2H2,(H,8,9)
