22
gdb 97461	8.35344	0.47527	0.46516	2.945	88.87	-0.2448	0.0281	0.2728	2403.7329	0.192344	-404.330505	-404.319951	-404.319007	-404.368228	36.635	
C	-0.0355383709	 1.3483184975	-0.1422739476	-0.313838
N	 0.0059968969	-0.0628796326	 0.1761600401	-0.20599
C	-1.0444829043	-0.7280044095	-0.0139439679	 0.133392
O	-1.0856872742	-2.0466343262	 0.2557976834	-0.205843
C	-2.3329773548	-2.6985272804	 0.005190148	-0.066334
C	-2.167379661	-4.1738883562	 0.3442021526	-0.22516
C	-3.4441862614	-4.9564049049	 0.1270657352	 0.028352
C	-3.7974005216	-5.4793484962	-1.2454944732	-0.256849
C	-3.3939355773	-6.4361239687	-0.1510890143	-0.276097
H	 0.7284401587	 1.5797102588	-0.8936010267	 0.126347
H	-1.0104121155	 1.6946607478	-0.5245637105	 0.09318
H	 0.2103964871	 1.9355234796	 0.7501093318	 0.126376
H	-1.9879483592	-0.3111985071	-0.4033188033	 0.068855
H	-3.1219828956	-2.2465596833	 0.6232774234	 0.10359
H	-2.6184632635	-2.5751174374	-1.0483530196	 0.108877
H	-1.3626481139	-4.5874982591	-0.2749535784	 0.109607
H	-1.8360210252	-4.2583359686	 1.3861160265	 0.114888
H	-4.2836032894	-4.6215671546	 0.7324506506	 0.083141
H	-4.8354344716	-5.4599678213	-1.5582425399	 0.112469
H	-3.0892826718	-5.3064953967	-2.0498289083	 0.112485
H	-2.4173521542	-6.9037556622	-0.2216780034	 0.114901
H	-4.1570913575	-7.0690067887	 0.2878134216	 0.113652
22.0577	51.4819	83.773	110.4804	125.125	208.405	210.4452	275.6099	309.3629	362.7942	395.3564	492.6168	609.669	776.9248	785.8028	829.464	842.596	919.4557	964.8276	983.7488	1023.4451	1044.0836	1063.4226	1066.8141	1081.8372	1110.6651	1141.3763	1142.0881	1155.4817	1190.9013	1200.2977	1228.0937	1247.5201	1258.0416	1305.1739	1317.96	1392.8646	1416.2831	1436.6413	1450.6159	1470.3716	1480.3301	1490.1112	1505.2407	1508.9564	1519.823	1780.7016	2961.9311	2977.5652	2998.7036	3033.3222	3036.2599	3055.2412	3074.4345	3076.8289	3129.0901	3130.1903	3135.7661	3207.8017	3223.1075
CN=COCCC1CC1	CN=COCCC1CC1	
InChI=1S/C7H13NO/c1-8-6-9-5-4-7-2-3-7/h6-7H,2-5H2,1H3	InChI=1S/C7H13NO/c1-8-6-9-5-4-7-2-3-7/h6-7H,2-5H2,1H3
