16
gdb 15935	3.47213	1.96119	1.54546	1.9067	65.54	-0.2298	-0.0342	0.1956	842.8642	0.131528	-379.870533	-379.8634	-379.862456	-379.902101	26.668	
O	-0.7555807481	 1.18388477	 0.7311633744	-0.264461
C	 0.1750735538	 0.8989595418	 0.0161311162	 0.100489
C	 1.4161902265	 1.7289962299	-0.1217853213	 0.227319
C	 1.7069448282	 2.770730146	 0.9885567942	-0.229383
N	 1.9281004391	 3.846723755	-0.0215304004	-0.314796
C	 1.5337819954	 2.9496951146	-1.1240345688	-0.058117
C	 2.7456582619	 2.2160560009	-1.7425947717	-0.148304
N	 2.5335771736	 1.068108365	-0.8154522249	-0.38015
H	 0.1689274291	-0.0032374562	-0.6338907637	 0.083877
H	 0.823924401	 2.9153350233	 1.6191472913	 0.12928
H	 2.5787837362	 2.568664039	 1.6211600784	 0.100574
H	 1.2953968639	 4.6284965025	 0.0986329309	 0.227978
H	 0.7287826181	 3.2877358468	-1.7782260542	 0.08673
H	 2.6412479759	 1.9192840482	-2.7923721413	 0.105415
H	 3.6781877737	 2.7737133031	-1.6111572715	 0.110956
H	 3.3246810917	 0.8246408602	-0.2290411676	 0.222594
97.7714	112.2922	231.1505	255.8077	357.0821	415.9379	513.9028	612.5102	688.3435	728.9651	771.5753	834.3298	862.0076	937.5098	955.622	996.3638	1008.3788	1047.3673	1054.7967	1099.6727	1133.1777	1146.5726	1181.9164	1188.9764	1253.0948	1289.7936	1320.9736	1347.191	1378.3767	1394.8752	1399.6913	1502.9768	1503.8783	1807.1564	2900.2219	3027.7135	3028.7831	3083.3822	3086.7613	3102.7518	3527.5043	3546.9952
O=CC12CNC1CN2	O=C[C@]12CN[C@H]1CN2	
InChI=1S/C5H8N2O/c8-3-5-2-6-4(5)1-7-5/h3-4,6-7H,1-2H2	InChI=1S/C5H8N2O/c8-3-5-2-6-4(5)1-7-5/h3-4,6-7H,1-2H2/t4-,5+/m0/s1
