13
gdb 133200	3.1753	1.44798	1.00063	4.4251	64.39	-0.2627	-0.0827	0.18	1077.2554	0.089375	-494.075926	-494.068474	-494.067529	-494.108191	27.214	
C	-0.0332940733	 1.5415768612	 0.0050773417	-0.48513
C	-0.0091718823	 0.0449689147	-0.0278940873	 0.199652
N	-0.0434738458	-0.587119717	-1.1660379595	-0.191732
N	-0.0189765109	-1.9170800863	-1.1180280522	-0.271973
C	 0.0402762318	-2.7363115591	 0.0269208658	 0.466609
O	 0.0563807273	-3.937230177	-0.0781509515	-0.359495
N	 0.0758743402	-2.030855388	 1.2308798389	-0.366591
C	 0.0518423071	-0.7560256893	 1.1703220898	 0.313935
F	 0.0852445406	-0.0764565277	 2.307914074	-0.044912
H	 0.8606188873	 1.9384139333	 0.4974583925	 0.150253
H	-0.0803259128	 1.9265433731	-1.01443287	 0.151849
H	-0.8982923823	 1.9085241388	 0.567325531	 0.150253
H	-0.0463968169	-2.3879993367	-2.0123955931	 0.287283
89.8454	151.7656	213.858	273.2484	313.0072	387.9187	443.0244	506.5091	546.0507	585.9031	690.8435	727.0167	762.6268	791.4536	803.0422	973.8379	1014.1107	1062.2172	1161.9418	1215.676	1287.7809	1405.8423	1417.3357	1439.0852	1475.6825	1480.621	1587.0916	1692.9593	1835.659	3043.3959	3098.6954	3149.753	3603.4768
CC1=NNC(=O)N=C1F	Cc1n[nH]c(=O)nc1F	
InChI=1S/C4H4FN3O/c1-2-3(5)6-4(9)8-7-2/h1H3,(H,6,8,9)	InChI=1S/C4H4FN3O/c1-2-3(5)6-4(9)8-7-2/h1H3,(H,6,8,9)
