20
gdb 91041	2.19555	1.77049	1.49632	2.5645	77.36	-0.2202	0.0639	0.2841	1016.8556	0.170752	-403.071679	-403.063428	-403.062483	-403.103792	33.142	
C	-0.3332456043	 1.5687112576	-0.0777271849	-0.425707
C	 0.0026024314	 0.0838966046	-0.0288159674	-0.032847
C	 1.0253422087	-0.5461730631	-1.0431876587	-0.284142
C	 1.7582582214	-1.2464005763	 0.1371733118	-0.014479
N	 3.0188938416	-0.6414011141	 0.7471208985	-0.145025
C	 2.9571812307	 0.8251821413	 0.6359897683	-0.251951
C	 2.1138129236	 0.1836012703	 1.6601678737	-0.113504
C	 0.8416510735	-0.5272300977	 1.1383630816	 0.397808
O	 0.1716715278	-1.2757210656	 2.1116540622	-0.481226
H	 0.5556167903	 2.2009029924	-0.0021511134	 0.119813
H	-0.8457882804	 1.8228941473	-1.0118342358	 0.119554
H	-1.0020753525	 1.8446855636	 0.7459628466	 0.110964
H	-0.9260789265	-0.4954488793	-0.0640025923	 0.085303
H	 0.574847409	-1.248951273	-1.747290905	 0.105953
H	 1.6230640782	 0.1628809817	-1.6203336558	 0.108935
H	 1.8395898313	-2.3316236292	 0.1083962766	 0.092142
H	 3.8732969485	 1.2948989538	 0.9847744752	 0.122191
H	 2.5359711465	 1.2976248929	-0.2428688702	 0.114481
H	 2.3265134556	 0.2648144208	 2.7232947151	 0.092906
H	-0.2233150543	-0.6659592381	 2.7454095636	 0.27883
164.6727	192.5907	209.7167	222.7329	240.3845	333.6253	370.7335	412.449	479.3962	549.4104	611.3558	639.3475	715.3047	744.1459	767.6282	853.687	892.5741	923.3951	947.3034	976.6967	999.1132	1028.1193	1046.0496	1097.6304	1112.9335	1122.7875	1137.9729	1153.1309	1170.9038	1187.2378	1215.0267	1225.349	1254.3043	1277.2343	1296.3632	1339.2424	1366.8055	1400.3662	1410.7391	1479.4006	1496.4081	1497.8479	1524.8578	3030.7017	3048.2935	3070.8342	3088.0454	3113.8638	3115.7965	3125.8625	3129.8723	3139.6782	3211.7777	3789.842
CC1CC2N3CC3C12O	C[C@H]1C[C@H]2N3C[C@H]3[C@@]12O	
InChI=1S/C7H11NO/c1-4-2-5-7(4,9)6-3-8(5)6/h4-6,9H,2-3H2,1H3	InChI=1S/C7H11NO/c1-4-2-5-7(4,9)6-3-8(5)6/h4-6,9H,2-3H2,1H3/t4-,5+,6-,7+,8?/m0/s1
