20
gdb 119126	2.50325	1.23256	0.91559	4.0713	76.9	-0.2392	0.0346	0.2737	1319.531	0.170386	-440.301356	-440.291714	-440.29077	-440.336013	35.639	
C	-0.2764862268	 1.4500035199	-0.1226281459	-0.230943
O	-0.1026281996	 0.0550467202	 0.0053963211	-0.243205
C	-1.3121328081	-0.6707182188	-0.1894218559	-0.182571
C	-1.0759428296	-2.1490045877	 0.0036139311	 0.23918
C	-1.1060973405	-2.7025071139	 1.4221487437	-0.278059
C	-2.2488782785	-2.9731418549	 0.4987523363	-0.296867
C	-0.1401284543	-2.8812393088	-0.9331370672	 0.338735
N	 0.6655261361	-2.0811476368	-1.6934249307	-0.54714
O	-0.1214591256	-4.0981246141	-1.0049384783	-0.37683
H	 0.6977189466	 1.917237382	 0.0381102614	 0.132409
H	-0.6473800642	 1.7262238238	-1.121582932	 0.111291
H	-0.9848643405	 1.8350056793	 0.6262164001	 0.113254
H	-2.068043984	-0.323164777	 0.5318821037	 0.094314
H	-1.7042709611	-0.4691735219	-1.199808837	 0.1027
H	-0.4282375163	-3.5206758042	 1.633506074	 0.136823
H	-1.2348419785	-1.9857566042	 2.2257727676	 0.114542
H	-3.1880974208	-2.4563920499	 0.6637287931	 0.108801
H	-2.3231436884	-3.9670898174	 0.0755622265	 0.146578
H	 0.833220673	-1.1349756746	-1.380425125	 0.265024
H	 1.389268081	-2.553749541	-2.2123611165	 0.251963
69.6828	93.6976	127.0885	176.3454	237.0108	250.5505	286.5418	325.8749	363.1453	399.4348	466.2726	526.8207	608.5105	640.5378	718.6225	773.4792	794.2217	868.0862	936.2546	956.831	966.3358	1006.0146	1056.0749	1073.1606	1097.2636	1136.3812	1141.3414	1185.2907	1202.143	1220.6612	1241.1611	1291.0575	1325.0946	1393.0707	1426.8467	1452.4024	1479.918	1484.6954	1486.5123	1501.2921	1519.8474	1623.2882	1781.8568	2965.2629	2981.2413	3002.0198	3028.8397	3119.9939	3138.7543	3141.1575	3229.0703	3242.9754	3543.8837	3686.8164
COCC1(CC1)C(N)=O	COCC1(CC1)C(=O)N	
InChI=1S/C6H11NO2/c1-9-4-6(2-3-6)5(7)8/h2-4H2,1H3,(H2,7,8)	InChI=1S/C6H11NO2/c1-9-4-6(2-3-6)5(7)8/h2-4H2,1H3,(H2,7,8)
