18
gdb 108283	2.78191	1.40979	1.09232	3.6117	73.53	-0.2589	0.0043	0.2632	1147.7129	0.147118	-439.059737	-439.051387	-439.050443	-439.092943	31.214	
C	-0.0032686758	 1.5844361065	 0.0171733115	-0.386122
C	 0.1055759169	 0.059996954	-0.1208332028	-0.284791
C	 0.6686324707	-0.5884169645	 1.1130922156	 0.406311
C	 2.1418869825	-0.4500448464	 1.5353258521	-0.126792
O	 2.2217025585	-1.8626863063	 1.8526406171	-0.285565
C	 0.8588004734	-2.0899920226	 1.437167665	-0.095218
C	-0.1312688728	-1.8248835273	 2.5561894842	 0.437025
N	-0.6954164244	-2.519744107	 3.4310462466	-0.547195
O	-0.2175641526	-0.4654936454	 2.281349086	-0.302883
H	 0.9789139454	 2.0418204223	 0.1776781084	 0.121822
H	-0.4324178622	 2.0256054319	-0.8863752052	 0.122238
H	-0.6414091777	 1.8504572385	 0.8642617253	 0.142247
H	-0.8818714637	-0.370471961	-0.3227792563	 0.115772
H	 0.7472644076	-0.200960424	-0.9709532198	 0.112402
H	 2.8300399089	-0.1909664314	 0.7215970634	 0.110742
H	 2.3233570219	 0.1925447779	 2.40233836	 0.122162
H	 0.7334390447	-2.9515311748	 0.7815447568	 0.10711
H	-1.2928669511	-1.9519948503	 4.0353095621	 0.230734
78.9669	118.5378	162.1103	216.5431	240.6819	334.146	354.2269	403.2088	449.5175	632.1993	658.2867	735.8136	786.4101	833.0526	866.2582	874.3102	952.4814	979.92	985.2531	999.4579	1013.7612	1021.3897	1034.2941	1126.1462	1138.356	1174.4155	1197.5198	1256.6386	1268.1016	1297.4628	1315.9129	1356.2872	1396.347	1411.9417	1476.3641	1499.5035	1503.4086	1508.3998	1826.2408	3026.0745	3035.4925	3041.563	3072.4455	3089.8549	3110.1713	3123.1663	3124.5964	3470.1725
CCC12COC1C(=N)O2	CC[C@]12CO[C@H]1[C]([NH])O2	
InChI=1S/C6H9NO2/c1-2-6-3-8-4(6)5(7)9-6/h4,7H,2-3H2,1H3	InChI=1S/C6H9NO2/c1-2-6-3-8-4(6)5(7)9-6/h4,7H,2-3H2,1H3/t4-,6-/m0/s1
