16
gdb 79273	2.64709	1.71311	1.34586	1.3683	68.35	-0.2589	-0.0442	0.2147	963.9147	0.124028	-437.827936	-437.820278	-437.819334	-437.860378	28.834	
O	 0.0164205072	 1.5331395006	-0.2907632328	-0.434617
C	 0.0384462424	 0.1348349835	-0.2102061115	 0.093158
C	-1.2920594869	-0.5736374136	-0.1011128195	-0.067769
C	-1.8304029073	-0.7918278354	-1.4748932188	-0.032995
C	-0.8605224973	-0.2034372305	-2.4826282926	-0.279811
C	 0.2163854081	-0.7120178655	-1.4916646887	 0.206858
C	 1.567828205	-1.1205898465	-1.9665048395	 0.03499
O	 2.561018082	-0.4699612129	-1.7429212901	-0.253703
N	-0.8085208721	-1.7498224756	-0.9229815069	-0.202478
H	 0.9296449051	 1.8386770517	-0.3258494411	 0.29622
H	 0.7262338502	-0.2258465445	 0.5646892644	 0.094675
H	-1.8896727012	-0.7306824194	 0.7887913069	 0.103963
H	-2.8545372483	-1.1051847201	-1.6410512112	 0.105709
H	-0.8545331252	-0.782914711	-3.4092951309	 0.116067
H	-0.8754699862	 0.8687076318	-2.6897332949	 0.127042
H	 1.6063597346	-2.0602692724	-2.5592630428	 0.092691
69.7579	126.8813	217.6394	271.2355	311.007	334.7906	423.9227	482.8842	593.0701	716.6553	735.922	786.5897	811.4738	827.8801	872.7438	959.482	971.7287	1009.5958	1027.8896	1041.4688	1056.5962	1099.3092	1118.0646	1149.8532	1175.736	1210.7513	1249.4309	1274.1363	1328.7022	1344.1481	1373.4532	1414.7794	1444.9646	1482.6554	1805.6235	2900.409	3036.7896	3066.049	3127.0657	3183.2478	3196.6805	3810.7823
OC1C2C3CC1(C=O)N23	O[C@H]1[C@H]2[C@H]3C[C@]1(C=O)N23	
InChI=1S/C6H7NO2/c8-2-6-1-3-4(5(6)9)7(3)6/h2-5,9H,1H2	InChI=1S/C6H7NO2/c8-2-6-1-3-4(5(6)9)7(3)6/h2-5,9H,1H2/t3-,4-,5+,6-,7?/m1/s1
