22
gdb 63530	2.82097	1.40529	1.24934	1.464	86.18	-0.2273	0.0846	0.3119	1140.0145	0.193411	-367.15973	-367.1508	-367.149856	-367.192648	35.319	
C	-0.0693881285	 1.5276032788	-0.0319409754	-0.453732
C	-0.029417942	 0.0121259059	 0.0207310032	 0.281313
C	-1.247580947	-0.6778745237	-0.5650588435	-0.457491
C	 1.3210678831	-0.6669771865	-0.161895051	-0.412017
C	 0.667126838	-0.6435944277	 1.1829376859	 0.352162
C	 1.2295587941	-0.0679363003	 2.4900842246	-0.346028
C	 0.6707664401	-1.3300257731	 3.1459503658	-0.022009
C	-0.7653150693	-1.4952393029	 2.8549654954	-0.235112
N	 0.207250305	-1.9122872995	 1.8191296992	-0.164939
H	 0.8201213869	 1.9744315307	 0.4227077599	 0.113677
H	-0.1226446138	 1.8792998342	-1.0692068125	 0.115798
H	-0.9472914902	 1.9209794471	 0.4947423599	 0.111044
H	-1.3386716213	-0.460798824	-1.635864986	 0.112049
H	-1.1891670243	-1.7617349734	-0.4393625752	 0.135058
H	-2.1691051337	-0.3338090739	-0.0802005285	 0.108469
H	 1.3426350243	-1.6223896662	-0.6767043547	 0.117186
H	 2.1977356742	-0.0452148463	-0.3196438327	 0.103481
H	 2.3211913951	-0.0239952524	 2.4957340668	 0.112726
H	 0.8328278396	 0.8854180568	 2.8537794212	 0.102343
H	 1.1922299168	-1.9417061958	 3.8745221046	 0.095754
H	-1.2805962597	-2.3352693283	 3.3105171748	 0.11787
H	-1.3861366376	-0.6212179595	 2.6707245983	 0.112397
127.3206	151.2709	167.9516	209.1638	232.0367	296.0958	356.9092	379.1003	412.1621	440.0607	508.9529	564.6449	719.3611	763.6502	770.0064	814.3245	889.0516	903.8236	921.7202	933.8887	972.7281	988.7994	1001.8263	1028.3602	1044.6918	1056.8104	1081.2943	1109.0194	1122.19	1153.2566	1172.7935	1180.5848	1206.7288	1239.7558	1266.2068	1296.5761	1358.1308	1404.6632	1409.3385	1423.2129	1481.5471	1483.9604	1484.5893	1491.4652	1501.0984	1502.8716	1516.9346	3018.1298	3023.5882	3044.6527	3075.5868	3078.4223	3098.6496	3102.6548	3105.7097	3116.6894	3120.3717	3166.5758	3199.5095	3205.931
CC1(C)CC11CC2CN12	CC1(C)C[C@]21C[C@H]1CN21	
InChI=1S/C8H13N/c1-7(2)5-8(7)3-6-4-9(6)8/h6H,3-5H2,1-2H3	InChI=1S/C8H13N/c1-7(2)5-8(7)3-6-4-9(6)8/h6H,3-5H2,1-2H3/t6-,8-,9?/m0/s1
