17
gdb 81082	2.80645	1.45722	1.18845	1.2876	68.12	-0.2415	0.0532	0.2946	1063.0427	0.134498	-458.85859	-458.850539	-458.849595	-458.892127	30.254	
O	 0.608111585	 1.2060417328	-0.012747779	-0.430645
C	 0.2006340004	-0.128126272	 0.0509667964	 0.102532
C	-0.2450574522	-0.6790837812	 1.4245279216	 0.014567
C	-1.5228050199	 0.1881908394	 1.3672898186	-0.279054
C	-1.316971601	-0.4988408698	-0.0084114619	 0.399374
O	-0.9616650172	-1.752945082	 0.6891302627	-0.346662
C	-2.1751189679	-0.5702304098	-1.2221093327	-0.119058
C	-3.408156476	 0.2121970116	-1.3630307137	-0.168181
O	-2.1953584543	 0.6455961529	-1.9860398553	-0.239805
H	 0.3907887338	 1.5383517975	-0.8906780571	 0.299438
H	 0.8371074423	-0.817836895	-0.5155951469	 0.083886
H	 0.3558328209	-0.9762048757	 2.2826103497	 0.100915
H	-2.3647641032	-0.1914352769	 1.9474643245	 0.105319
H	-1.3973074881	 1.2694796438	 1.4185406981	 0.119393
H	-2.0523569755	-1.4795731025	-1.8110455855	 0.111087
H	-4.1855181722	-0.128031666	-2.0450979467	 0.123871
H	-3.7484093851	 0.8239162431	-0.5295628829	 0.123025
32.5696	106.9846	185.8767	254.5191	314.2855	342.6868	389.8347	470.7874	574.9325	592.6425	653.9355	755.3714	842.2484	852.765	894.2006	920.1658	937.0656	946.6456	981.1853	1032.7438	1071.0654	1087.9148	1121.6624	1133.4834	1157.0542	1164.4706	1170.5678	1202.5472	1221.4712	1251.6494	1272.0089	1284.3071	1333.4451	1397.	1442.7554	1487.9189	1525.0137	3049.3366	3084.716	3090.4366	3113.4689	3135.774	3166.7972	3181.1384	3810.24
OC1C2CC1(O2)C1CO1	O[C@H]1[C@H]2C[C@@]1(O2)[C@H]1CO1	
InChI=1S/C6H8O3/c7-5-3-1-6(5,9-3)4-2-8-4/h3-5,7H,1-2H2	InChI=1S/C6H8O3/c7-5-3-1-6(5,9-3)4-2-8-4/h3-5,7H,1-2H2/t3-,4-,5+,6-/m1/s1
