14
gdb 128403	6.50132	0.81443	0.73639	6.5966	71.57	-0.2433	-0.0544	0.1889	1455.3131	0.10054	-466.135451	-466.127036	-466.126092	-466.169997	28.419	
C	-0.0876690175	 1.5022399412	-0.0256665433	-0.317317
N	 0.0817225759	 0.0584833313	-0.0128773522	-0.27718
C	 0.7022948335	-0.6071269205	-0.9971981094	 0.129489
N	 1.195158413	 0.0064702341	-2.0215396377	-0.353876
C	 1.7069409051	-0.7523243133	-3.0325102764	 0.48176
N	 1.3898886059	-1.9828854704	-3.3653462393	-0.186109
O	 2.1632335013	-2.2556797337	-4.447209391	-0.154107
N	 2.935444793	-1.1314993416	-4.7425420674	 0.044767
N	 2.6615017699	-0.2382502863	-3.9081359648	-0.218921
H	 0.8800428675	 2.0122262856	 0.0188555029	 0.154051
H	-0.5893738512	 1.8147322405	-0.945182773	 0.159859
H	-0.6914564001	 1.7933289848	 0.8348899609	 0.132296
H	-0.2139959868	-0.4610054266	 0.7948420695	 0.266532
H	 0.7574914205	-1.6908254252	-0.8572318389	 0.138754
56.0117	58.4	112.8807	130.8999	232.1129	285.0461	396.6257	475.1514	485.6252	601.7864	660.0692	702.025	789.741	877.9374	952.7706	982.3844	1011.9977	1058.0824	1106.6579	1157.6815	1184.7595	1247.2965	1314.0828	1384.7062	1455.4886	1474.0906	1505.7041	1516.297	1552.5603	1589.0532	1707.4129	3045.6062	3087.655	3108.4882	3147.6621	3677.4041
CNC=NC1=NON=N1	CNC=Nc1nonn1	
InChI=1S/C3H5N5O/c1-4-2-5-3-6-8-9-7-3/h2H,1H3,(H,4,5,7)	InChI=1S/C3H5N5O/c1-4-2-5-3-6-8-9-7-3/h2H,1H3,(H,4,5,7)
