23
gdb 122995	4.6017	0.60587	0.58296	1.7074	83.55	-0.2575	0.079	0.3365	2016.8792	0.202617	-425.406193	-425.395258	-425.394313	-425.443459	38.528	
C	-0.108491139	 1.4880469841	 0.2500824114	-0.382705
C	-0.4028700259	 0.0448103461	 0.6661218297	-0.183777
C	-1.3325980596	-0.6626388922	-0.3097734559	-0.023439
O	-1.5530264349	-1.9827379639	 0.1441370406	-0.254311
C	-2.4027129873	-2.7301148908	-0.6981327766	-0.120807
C	-2.4958193069	-4.1430972586	-0.159454383	 0.405369
C	-1.1983310083	-4.9123735289	-0.0960106947	-0.462045
C	-3.6209717967	-4.4897129297	 0.7190480496	-0.217486
O	-3.629761407	-4.8610968165	-0.6638703962	-0.282149
H	 0.5599612439	 1.9745337493	 0.9660586778	 0.118203
H	 0.3718051342	 1.5303717952	-0.7337265971	 0.117043
H	-1.026542212	 2.0835348554	 0.1959486739	 0.117063
H	 0.5285747375	-0.5286024442	 0.7369171365	 0.106207
H	-0.8606040375	 0.0212649774	 1.6616962047	 0.107006
H	-2.2915733111	-0.1210374689	-0.3876472222	 0.084364
H	-0.890700935	-0.6764175865	-1.3215305781	 0.084567
H	-3.4103767096	-2.288405627	-0.7471259053	 0.093076
H	-2.004184198	-2.7542286374	-1.7275887087	 0.088844
H	-0.476339078	-4.3769167609	 0.5262565635	 0.138916
H	-1.3576731525	-5.9119240742	 0.3152425663	 0.122019
H	-0.7688239897	-5.0178286584	-1.0985510817	 0.121473
H	-3.5184649091	-5.3156608828	 1.4214973069	 0.111846
H	-4.3438642077	-3.7262477165	 1.0036336685	 0.110725
45.1303	53.4861	92.8937	116.2178	150.2139	188.806	216.5885	235.8632	307.542	358.2039	366.2279	403.0991	448.9063	536.5297	744.8215	765.1855	841.6847	900.3133	908.7955	925.9079	942.0575	988.152	1017.5769	1053.674	1063.0042	1119.1589	1134.8972	1154.0127	1158.9925	1166.2512	1191.8775	1234.7658	1269.6184	1296.328	1314.3601	1332.4571	1387.0115	1402.5	1414.623	1422.7509	1454.501	1480.3987	1492.1806	1497.8613	1501.5038	1506.3141	1514.4201	1530.6568	1536.9273	2943.2082	2956.1436	2971.1307	2998.5548	3032.801	3039.1558	3039.6799	3071.9827	3081.8797	3100.7208	3107.9771	3109.2345	3132.4984	3168.1549
CCCOCC1(C)CO1	CCCOC[C@@]1(C)CO1	
InChI=1S/C7H14O2/c1-3-4-8-5-7(2)6-9-7/h3-6H2,1-2H3	InChI=1S/C7H14O2/c1-3-4-8-5-7(2)6-9-7/h3-6H2,1-2H3/t7-/m0/s1
