23
gdb 116148	2.26923	1.28264	0.87155	2.5981	82.37	-0.253	0.0814	0.3344	1387.7626	0.206725	-425.448178	-425.438867	-425.437923	-425.481982	36.101	
C	-0.0272418935	 1.477097453	 0.2046965085	-0.404114
C	 0.0251890256	-0.0362999315	 0.0617044406	 0.151188
C	 0.6967430344	-0.5024640597	-1.2357842171	-0.18866
C	 0.8310851134	-2.0312621765	-1.262283964	-0.226216
C	 1.5074179302	-2.5329662166	 0.0217864527	-0.204316
C	 0.7959205699	-1.9654439809	 1.250434284	 0.113195
C	 1.4864001726	-2.2815154205	 2.5726783298	-0.068332
O	 0.8037253108	-1.6982480994	 3.6628974902	-0.428156
O	 0.7370719433	-0.5399847166	 1.1910786861	-0.292002
H	 0.9832213833	 1.8974870497	 0.1922708982	 0.123389
H	-0.5978106026	 1.920681989	-0.6167472093	 0.115465
H	-0.5035334945	 1.7574244016	 1.1483202524	 0.119683
H	-1.0028179093	-0.4409296006	 0.0883043724	 0.063439
H	 0.1182068207	-0.1486412302	-2.0967418634	 0.093516
H	 1.6897807689	-0.0384411917	-1.2976093103	 0.098854
H	-0.1672246361	-2.4820897928	-1.3454581807	 0.096999
H	 1.3934356506	-2.3532619009	-2.1449997576	 0.09672
H	 1.5008240106	-3.628245378	 0.0627584431	 0.096378
H	 2.5565570084	-2.2107665612	 0.0411478897	 0.100538
H	-0.2352230175	-2.358950433	 1.2925537666	 0.067366
H	 1.4993964324	-3.3643304642	 2.7357711404	 0.103031
H	 2.531843799	-1.9346937638	 2.5184025726	 0.085368
H	 0.6284605492	-0.7884162452	 3.3923844548	 0.286668
103.4884	132.8244	160.3002	193.1901	228.7991	273.7304	313.9502	380.6092	439.3599	452.0341	480.5131	489.8358	503.7464	570.0788	794.2724	847.2517	858.4434	900.4425	909.9048	958.8346	971.7119	1008.9855	1052.592	1074.3186	1094.4545	1108.7058	1119.3516	1163.4174	1168.9105	1206.6996	1226.8086	1244.1758	1289.2452	1308.7757	1339.1304	1350.9308	1373.6989	1380.2902	1389.8758	1401.0122	1405.2846	1421.8887	1446.1966	1471.0719	1479.0962	1486.2704	1495.8163	1499.9485	1500.9326	2938.3455	2949.2141	2970.8291	3016.7674	3022.7902	3024.7477	3041.4824	3066.7003	3069.2071	3074.4673	3078.6298	3115.504	3118.57	3783.5017
CC1CCCC(CO)O1	C[C@H]1CCC[C@@H](CO)O1	
InChI=1S/C7H14O2/c1-6-3-2-4-7(5-8)9-6/h6-8H,2-5H2,1H3	InChI=1S/C7H14O2/c1-6-3-2-4-7(5-8)9-6/h6-8H,2-5H2,1H3/t6-,7-/m0/s1
