17
gdb 19723	3.99356	2.33249	2.13319	2.9809	65.89	-0.2315	0.0771	0.3086	718.5437	0.146412	-363.839395	-363.833784	-363.83284	-363.868755	23.887	
C	-0.0250958931	 1.5503363015	 0.0098052079	-0.215272
C	 1.4960269354	 1.9171018746	-0.0029070647	-0.215273
C	 2.1399244412	 0.5054788192	 0.0058333154	 0.063108
O	 1.208851594	-0.2563611694	-0.7676968719	-0.24349
C	 0.0452640052	 0.0004260221	 0.0233563287	 0.063108
C	 0.4988086336	-0.3997691116	 1.4323412744	-0.049072
N	 1.5193501986	-1.467617616	 1.4377463234	-0.333906
C	 1.9409290891	-0.0520604831	 1.4202740475	-0.049071
H	-0.5533301111	 1.9549705756	 0.8776894192	 0.095712
H	-0.5300756601	 1.9051770368	-0.8911315626	 0.106375
H	 1.7695183295	 2.4596598608	-0.9103408448	 0.106375
H	 1.7954663716	 2.5212868028	 0.8580694966	 0.095712
H	 3.134724487	 0.4200189123	-0.430777868	 0.082142
H	-0.8080570213	-0.5306502786	-0.3977867024	 0.082142
H	-0.1433467843	-0.236803073	 2.2905872459	 0.090974
H	 1.6098713432	-1.8099280822	 2.3922427777	 0.229464
H	 2.4517547015	 0.3888976784	 2.2688734677	 0.090974
224.2082	321.314	368.6712	485.5206	614.1761	619.314	767.505	789.0366	826.985	836.9261	869.8107	874.9619	900.0501	902.7715	947.0564	961.701	971.6123	1018.8234	1024.0714	1034.1748	1091.6641	1127.5946	1128.3312	1162.2266	1217.7803	1228.2039	1236.4542	1257.4668	1280.0164	1305.705	1322.1478	1353.7072	1355.8865	1409.4671	1482.3072	1503.3269	3058.7977	3068.7956	3101.6387	3118.9883	3122.8815	3127.7582	3171.4708	3182.237	3493.7009
C1CC2OC1C1NC21	C1C[C@@H]2O[C@H]1[C@H]1N[C@@H]21	
InChI=1S/C6H9NO/c1-2-4-6-5(7-6)3(1)8-4/h3-7H,1-2H2	InChI=1S/C6H9NO/c1-2-4-6-5(7-6)3(1)8-4/h3-7H,1-2H2/t3-,4+,5-,6+
