18
gdb 130092	4.63006	1.23175	0.9963	2.2837	80.25	-0.1899	0.0413	0.2312	1179.7931	0.152119	-398.166219	-398.158647	-398.157703	-398.198145	29.505	
N	-0.1006874536	 1.3203992695	 0.1603090816	-0.588223
C	 0.0403535031	-0.063467474	 0.0373009856	 0.392957
N	-1.0385739752	-0.8520961037	-0.0108049024	-0.380197
N	-0.5085006459	-2.094243269	-0.0756156351	 0.05239
C	-1.1566730681	-3.3867266418	-0.0119912751	-0.164274
C	 0.0193017053	-4.3271404839	-0.3818785371	-0.215119
C	 1.320888662	-3.5347958832	-0.042800412	-0.356108
C	 0.8395504661	-2.1163463279	-0.0570966923	 0.444627
C	 1.2558035302	-0.8009932651	 0.012040728	-0.484987
H	 0.5722008179	 1.8391810258	-0.3878190761	 0.242307
H	-1.0419110607	 1.6145330952	-0.0681782799	 0.247287
H	-1.5463591116	-3.5779537001	 0.9965196662	 0.117632
H	-1.9924877064	-3.4459970052	-0.7143712458	 0.125128
H	-0.0390470852	-5.2824225646	 0.1431384361	 0.111077
H	-0.0095696228	-4.5362357917	-1.4546754729	 0.120387
H	 1.7077318706	-3.8069032268	 0.9471701826	 0.122369
H	 2.1203748155	-3.7333173112	-0.7619751696	 0.120307
H	 2.2625213887	-0.4178761323	 0.0445102483	 0.09244
114.7298	169.9525	208.1371	250.0381	300.5539	347.3046	511.4411	533.9619	630.8748	664.2629	688.9189	737.9246	746.3161	775.4164	821.1233	876.082	900.8223	920.7433	1001.2149	1014.3715	1092.3379	1113.7708	1123.5047	1169.7775	1189.0802	1224.8203	1239.9238	1300.2281	1318.4343	1332.2645	1361.2593	1445.4308	1484.119	1500.0141	1512.4148	1516.5804	1540.954	1599.6905	1645.4429	3017.9988	3030.2088	3065.6184	3083.6748	3087.7774	3121.3239	3264.3027	3540.9642	3636.5641
NC1=NN2CCCC2=C1	Nc1nn2CCCc2c1	
InChI=1S/C6H9N3/c7-6-4-5-2-1-3-9(5)8-6/h4H,1-3H2,(H2,7,8)	InChI=1S/C6H9N3/c7-6-4-5-2-1-3-9(5)8-6/h4H,1-3H2,(H2,7,8)
