18
gdb 108969	4.05632	1.23981	1.10253	2.3773	76.17	-0.2062	0.012	0.2182	1122.3295	0.149114	-401.897951	-401.890404	-401.889459	-401.93018	29.373	
O	-0.0004231572	 1.4105994449	-0.0438182945	-0.411549
C	-0.0162158711	 0.0023581479	 0.0967975771	-0.192825
C	-1.4253826267	-0.4821821452	 0.1082640297	 0.329145
C	-2.5560844189	 0.2207351355	 0.0128948533	-0.181704
C	-3.7007305783	-0.7305504962	 0.0079924754	-0.070602
C	-3.6668732524	-1.9366867923	-0.8973909576	-0.039046
C	-2.2764849413	-2.2900223987	-1.3956741757	-0.245464
C	-1.7935004034	-1.9476033652	 0.0539990725	-0.123519
N	-3.2454505186	-2.0337325237	 0.547925526	-0.138498
H	 0.9094970639	 1.7097769996	 0.0375978261	 0.290775
H	 0.5355884264	-0.4913648282	-0.7240659379	 0.097183
H	 0.4816200062	-0.315579249	 1.0305600754	 0.100749
H	-2.6447448758	 1.2939147966	-0.0739138272	 0.117056
H	-4.6823897678	-0.413697894	 0.3478160167	 0.090037
H	-4.5887347011	-2.3880161881	-1.253659054	 0.090988
H	-2.2084473925	-3.3628475178	-1.5884830092	 0.113266
H	-1.8444372081	-1.7339095643	-2.2333425123	 0.09967
H	-1.1154680534	-2.6502908418	 0.5396154862	 0.074338
75.6944	166.7033	186.1807	237.8353	336.3323	398.8637	470.0462	554.4109	645.788	743.085	752.9195	784.1214	814.4967	840.4413	861.7418	908.4344	928.5385	977.5308	1004.3726	1030.0928	1038.3522	1064.6773	1077.7076	1098.4614	1141.2717	1163.613	1175.9103	1212.5409	1221.5314	1248.3098	1259.457	1277.2863	1336.6341	1346.0592	1372.5417	1467.3711	1486.4693	1506.6016	1709.4989	2934.2646	2946.5414	3049.105	3100.4782	3114.9067	3145.9435	3158.8784	3244.2819	3837.1287
OCC1=CC2C3CC1N23	OCC1=C[C@H]2[C@H]3C[C@@H]1N23	
InChI=1S/C7H9NO/c9-3-4-1-6-7-2-5(4)8(6)7/h1,5-7,9H,2-3H2	InChI=1S/C7H9NO/c9-3-4-1-6-7-2-5(4)8(6)7/h1,5-7,9H,2-3H2/t5-,6-,7+,8?/m0/s1
