17
gdb 43096	3.12942	1.92315	1.65514	1.5272	69.99	-0.2372	-0.0091	0.2281	852.1368	0.139684	-421.836153	-421.830231	-421.829287	-421.866211	25.493	
O	 0.0017091525	 0.0193909669	-0.0066864585	-0.340553
C	-0.015877428	 1.216891677	 0.0074489283	 0.451473
C	-1.1777397934	 2.2232175556	 0.0526651296	-0.184561
C	-0.8019467623	 2.7598045388	 1.4637073021	-0.216435
C	 0.5063609836	 3.3913568626	 0.9451279975	 0.061772
O	-0.0619379137	 4.3531568756	 0.0444185067	-0.257931
C	-0.6020650666	 3.3965808757	-0.8789050673	 0.061772
C	 0.7240405079	 2.8161124384	-1.411773397	-0.216435
C	 1.1159180994	 2.2576854102	-0.0136382881	-0.184561
H	-2.1854371277	 1.8596229901	-0.1263216243	 0.088982
H	-1.4755129148	 3.5230136817	 1.8554344465	 0.117767
H	-0.6793026602	 1.9546548727	 2.194765569	 0.117379
H	 1.185649924	 3.8701726822	 1.6470219265	 0.0886
H	-1.295363951	 3.8716549885	-1.569552805	 0.0886
H	 0.6248367989	 2.025161798	-2.1616462488	 0.11738
H	 1.3747715521	 3.6077894501	-1.7851719255	 0.117767
H	 2.1339202294	 1.9197211159	 0.1570747682	 0.088982
168.1903	329.1469	437.9829	470.1968	511.9681	586.1585	652.9356	744.6056	751.3883	759.3294	828.8556	830.696	878.2338	900.7339	916.1189	921.9574	942.5119	949.8019	992.0044	1016.3696	1042.5257	1088.8489	1116.1516	1119.0402	1135.6721	1192.408	1195.5748	1228.872	1254.0442	1254.6808	1281.7894	1287.4907	1312.1922	1338.865	1488.0903	1488.1913	1881.9021	3062.2974	3062.3943	3130.623	3131.2839	3146.8472	3149.2265	3166.9324	3168.9164
O=C1C2CC3OC2CC13	O=C1[C@H]2C[C@@H]3O[C@H]2C[C@H]13	
InChI=1S/C7H8O2/c8-7-3-1-5-4(7)2-6(3)9-5/h3-6H,1-2H2	InChI=1S/C7H8O2/c8-7-3-1-5-4(7)2-6(3)9-5/h3-6H,1-2H2/t3-,4-,5-,6-/m0/s1
