20
gdb 6982	2.56102	2.12752	1.67552	0.6014	69.91	-0.2604	0.0704	0.3308	898.9104	0.176449	-386.157443	-386.148607	-386.147663	-386.19046	33.603	
C	-0.4119943781	 1.5227242795	 0.03236391	-0.454852
C	 0.0479057388	 0.0689998955	 0.0407533009	 0.390888
O	-1.0777320376	-0.8174305409	 0.115453278	-0.48853
C	 0.9602860773	-0.3237844719	-1.1381591497	-0.234746
C	 1.6664944881	-1.6276167236	-0.690128797	-0.196976
C	 1.4917227704	-1.6888600349	 0.8547336558	-0.234077
C	 0.9045877048	-0.3262355764	 1.2589448579	 0.117097
O	 1.9123481754	 0.6731513191	 1.3959791062	-0.449508
H	 0.4390557448	 2.2022684755	 0.1059809247	 0.137118
H	-0.9550163883	 1.7478565863	-0.893782087	 0.096418
H	-1.0855112141	 1.7103353379	 0.8738788155	 0.117232
H	-1.6101835356	-0.6749060524	-0.6737395653	 0.274751
H	 0.3858305847	-0.4416577548	-2.0635459037	 0.077194
H	 1.6902988923	 0.4730588082	-1.3041838587	 0.110221
H	 1.2154206218	-2.5051378312	-1.1591855695	 0.100896
H	 2.7201304255	-1.6213158634	-0.9803811416	 0.097299
H	 0.7908217283	-2.4794101137	 1.1328726729	 0.114153
H	 2.4311724524	-1.8848717457	 1.3828554349	 0.077861
H	 0.2853477491	-0.3843023046	 2.1642633395	 0.064815
H	 2.5400388697	 0.3672424414	 2.0571045861	 0.282746
52.2939	150.0089	228.6749	240.4736	256.7327	274.0693	311.2417	351.3099	391.3473	441.3606	499.7568	602.4971	724.7715	732.8083	807.2089	860.7531	888.8088	904.3686	938.0987	983.4863	1016.7771	1036.9313	1077.0529	1103.3619	1137.2489	1153.5371	1196.6467	1226.2439	1257.1815	1262.3083	1300.7477	1320.7273	1335.1265	1358.9835	1370.6448	1402.4489	1432.2707	1473.6112	1473.9662	1489.5669	1500.1401	1506.9372	3013.1512	3029.4691	3043.8556	3046.1435	3068.5118	3085.1423	3097.0928	3098.3868	3115.2149	3138.1532	3814.4947	3829.9267
CC1(O)CCCC1O	C[C@@]1(O)CCC[C@H]1O	
InChI=1S/C6H12O2/c1-6(8)4-2-3-5(6)7/h5,7-8H,2-4H2,1H3	InChI=1S/C6H12O2/c1-6(8)4-2-3-5(6)7/h5,7-8H,2-4H2,1H3/t5-,6-/m1/s1
