21
gdb 65130	3.31499	1.27047	1.1761	1.2447	82.35	-0.2351	0.0743	0.3094	1153.419	0.182522	-387.012119	-387.003716	-387.002772	-387.045446	33.095	
O	 0.3987426585	 0.4064847296	-1.2439561615	-0.471335
C	 0.0685516011	 0.0403189599	 0.0764184816	 0.376326
C	 1.1378105234	-0.5366104793	 0.9657175183	-0.342954
C	 0.6015680523	 0.8608403349	 1.2250652269	-0.320679
C	-1.3099535244	-0.5814322644	 0.0849734857	 0.017995
C	-2.3656979567	-0.2465230175	 1.1877252749	-0.063096
C	-2.5675047586	 1.1425857777	 0.507854882	-0.221245
C	-2.5013541869	 0.1099934756	-0.6530136174	-0.037992
C	-3.4387454986	-0.7918529514	 0.2008930485	-0.229743
H	 1.3450806112	 0.573726996	-1.2928674992	 0.278399
H	 0.8670458324	-1.3295291557	 1.6559635737	 0.11615
H	 2.1415814147	-0.6306921012	 0.5604821402	 0.102328
H	 1.2437374131	 1.7015105123	 0.9800451034	 0.105434
H	-0.0197819663	 1.0168260399	 2.0998496809	 0.120048
H	-1.2281980958	-1.650158054	-0.145409671	 0.066212
H	-2.2910979439	-0.4586111733	 2.2564747113	 0.064003
H	-3.5373957033	 1.6202630854	 0.6735264705	 0.083834
H	-1.754198628	 1.8642328042	 0.5784419952	 0.106026
H	-2.5676947812	 0.3106390281	-1.7217998549	 0.076945
H	-3.417468129	-1.865523943	-0.0069206632	 0.086346
H	-4.459893224	-0.430441394	 0.3478587642	 0.086998
53.1169	109.1062	161.0478	200.3633	310.5009	331.0053	430.8697	479.3255	504.4678	574.7352	759.5198	779.2108	781.5801	812.268	859.6126	888.8123	902.8595	906.611	917.4859	942.6548	970.6566	1006.2488	1015.8068	1030.1968	1054.4866	1064.3751	1068.1518	1088.4668	1112.7075	1125.3391	1145.4222	1185.8949	1188.5563	1198.4556	1216.6316	1243.0955	1248.5344	1268.9608	1289.9699	1390.09	1434.2939	1460.0343	1497.2995	1500.2003	1538.1506	3032.552	3047.0837	3059.8447	3085.8571	3112.8778	3114.8502	3119.958	3125.6111	3141.3001	3195.7037	3215.5926	3819.6815
OC1(CC1)C1C2CC1C2	OC1(CC1)[C@H]1[C@H]2C[C@@H]1C2	
InChI=1S/C8H12O/c9-8(1-2-8)7-5-3-6(7)4-5/h5-7,9H,1-4H2	InChI=1S/C8H12O/c9-8(1-2-8)7-5-3-6(7)4-5/h5-7,9H,1-4H2/t5-,6+,7-
