15
gdb 129855	5.36094	1.24981	1.01624	3.8944	75.85	-0.1793	0.0248	0.2041	1094.9056	0.117113	-413.01241	-413.005159	-413.004215	-413.043658	28.551	
N	 0.1167376333	 1.392386585	 0.1287689105	-0.603956
C	-0.0105323855	 0.0024426112	 0.0220690442	 0.354995
C	-1.1366552496	-0.7978351143	-0.0009255646	-0.417577
C	-0.6346606781	-2.1350102894	-0.0002761934	 0.413864
C	 0.7576937901	-2.1012261094	 0.0127612558	 0.227514
N	 1.1419293757	-0.7654820144	-0.0051860679	-0.452509
C	 1.1861530716	-3.4398001909	-0.0226288625	-0.137526
N	 0.1315003598	-4.2584472702	-0.0447859654	-0.235779
N	-0.9663072778	-3.4517126354	-0.0373966808	-0.362001
H	 0.6517065682	 1.7996120043	-0.6314604665	 0.248502
H	-0.7869971992	 1.8445004519	 0.172380573	 0.252205
H	-2.1561367757	-0.4507358825	-0.0513470392	 0.089902
H	 2.0314222583	-0.4069749368	 0.2968675431	 0.257764
H	 2.1820428877	-3.8559672735	-0.0199825406	 0.100798
H	-1.8740897289	-3.8790943255	-0.0680102258	 0.263805
154.9285	209.1026	295.546	319.022	324.0661	378.4864	417.0972	515.9085	564.8984	641.7617	661.518	698.5808	741.6819	773.7106	785.9197	842.8743	846.2046	974.6597	1006.0006	1081.9817	1123.3815	1179.1314	1198.8305	1243.1274	1293.9237	1354.6289	1408.0855	1459.1401	1497.9125	1545.6819	1597.6372	1613.7162	1655.2767	3249.0918	3255.5911	3510.0421	3619.3973	3672.4221	3695.7221
NC1=CC2=C(N1)C=NN2	Nc1cc2c([nH]1)cn[nH]2	
InChI=1S/C5H6N4/c6-5-1-3-4(8-5)2-7-9-3/h1-2,8H,6H2,(H,7,9)	InChI=1S/C5H6N4/c6-5-1-3-4(8-5)2-7-9-3/h1-2,8H,6H2,(H,7,9)
