13
gdb 25070	6.06167	0.90957	0.79476	1.131	64.32	-0.2321	0.0046	0.2367	1304.013	0.089903	-452.812431	-452.804653	-452.803709	-452.845555	27.69	
O	-0.3890093245	 0.2022143187	-1.0201902946	-0.387556
C	-0.2264239389	 1.2538172722	-0.4713412398	 0.483895
N	-1.0694235566	 1.9807902573	 0.3388570587	-0.371109
C	-0.4501593385	 3.1579698804	 0.7565550065	-0.17743
C	 0.768937602	 3.1539605255	 0.2043527107	 0.356357
C	 1.9235901658	 4.0978431268	 0.2430123467	-0.457008
C	 1.6313619647	 5.2683354561	 1.067797807	 0.278909
N	 1.3842040778	 6.1863269929	 1.7229918845	-0.301135
O	 0.9386715197	 2.0114921175	-0.5483004027	-0.247714
H	-1.9945870436	 1.6652009395	 0.5702183125	 0.284312
H	-0.9243612509	 3.8805495251	 1.3974849781	 0.178573
H	 2.8165334284	 3.5949509987	 0.6372544169	 0.179963
H	 2.1819122046	 4.4293273592	-0.7714299747	 0.179943
50.3883	110.1424	177.5246	251.9218	282.5388	383.8653	438.0225	452.9159	544.8877	601.4987	715.4946	746.7178	776.0815	780.6359	914.5946	962.052	964.3499	982.2712	1082.4036	1131.8606	1214.1183	1235.1078	1331.4138	1382.3784	1405.9859	1464.8123	1724.5913	1910.5551	2374.3456	3024.1671	3051.3259	3295.3872	3698.6685
O=C1NC=C(CC#N)O1	O=c1[nH]cc(CC#N)o1	
InChI=1S/C5H4N2O2/c6-2-1-4-3-7-5(8)9-4/h3H,1H2,(H,7,8)	InChI=1S/C5H4N2O2/c6-2-1-4-3-7-5(8)9-4/h3H,1H2,(H,7,8)
