20
gdb 95920	2.10749	1.56056	1.26556	3.8007	78.52	-0.2593	0.0339	0.2933	1119.513	0.170826	-403.177008	-403.167773	-403.166829	-403.211659	34.457	
C	 0.264074721	 1.6086719521	-0.2617926182	-0.409745
C	 0.0131624087	 0.1324974025	 0.0247454633	 0.124204
O	 0.4434426177	-0.6237498178	-1.1094304694	-0.272172
C	 1.3416851788	-1.6566580427	-0.7235349281	-0.085493
C	 1.9790280715	-1.1677848783	 0.5732785137	-0.248358
C	 0.7857852424	-0.4612232216	 1.2661233899	 0.071084
C	 1.207976508	 0.5592462943	 2.3372712409	-0.44771
C	-0.0653061049	-1.4790221908	 1.902069527	 0.275155
N	-0.7321578992	-2.2762369065	 2.4087952364	-0.351057
H	 1.3317944819	 1.8220305576	-0.368774892	 0.118842
H	-0.2233605502	 1.8662371756	-1.2057424442	 0.136084
H	-0.1502586747	 2.2482586615	 0.5228764045	 0.119162
H	-1.0636884986	-0.0255564955	 0.1653402456	 0.099726
H	 0.8031248722	-2.6021445378	-0.5608097698	 0.115446
H	 2.0599014835	-1.8044493865	-1.5349709392	 0.113332
H	 2.4089440315	-1.9666016901	 1.1805852689	 0.123812
H	 2.7571003928	-0.4260503434	 0.3670728731	 0.112608
H	 1.8681943522	 1.3146289904	 1.9062283699	 0.128797
H	 0.3401226749	 1.0615187956	 2.773104021	 0.138595
H	 1.7439592406	 0.0560013914	 3.1463193065	 0.137689
20.881	151.959	155.6578	237.132	249.8128	270.0276	292.8157	333.145	367.2009	440.525	511.9681	563.8808	619.058	652.0521	727.8043	819.3467	872.9918	903.2665	929.2731	985.5185	1020.8997	1035.8008	1075.5568	1113.8344	1119.5177	1156.5892	1175.0723	1201.3697	1239.6003	1254.5052	1321.764	1343.1741	1386.6663	1395.9313	1406.8906	1417.3219	1478.4358	1485.2453	1490.1744	1498.0532	1506.5369	1526.8303	2349.0375	2997.5183	3020.572	3043.1722	3050.9249	3058.8449	3087.1422	3118.0232	3121.4982	3123.8149	3124.2451	3135.1902
CC1OCCC1(C)C#N	C[C@H]1OCC[C@]1(C)C#N	
InChI=1S/C7H11NO/c1-6-7(2,5-8)3-4-9-6/h6H,3-4H2,1-2H3	InChI=1S/C7H11NO/c1-6-7(2,5-8)3-4-9-6/h6H,3-4H2,1-2H3/t6-,7-/m1/s1
