18
gdb 76061	2.69366	1.25157	1.11241	3.9989	77.64	-0.2662	0.025	0.2912	1169.56	0.147182	-401.934592	-401.925781	-401.924837	-401.968431	32.51	
O	-0.0486830314	 1.3926445002	-0.0862805142	-0.404384
C	-0.0053185546	 0.0091499069	-0.0169497858	 0.039958
C	-0.4754114048	-0.6996185464	 1.2623719755	-0.335096
C	-0.8804097764	 0.0967715494	 2.3809744946	 0.299513
N	-1.1972159872	 0.7490702719	 3.2834822388	-0.346493
C	-1.3142311222	-0.6955321123	-0.0115802499	 0.323829
C	-2.6655763287	-0.0150802389	-0.2482409392	-0.286698
C	-2.9373802596	-1.0675336371	-1.3664747252	-0.208718
C	-1.7153115767	-1.8994814404	-0.8704612338	-0.304156
H	 0.5794588786	 1.7621194614	 0.5445149134	 0.303183
H	 0.8329104683	-0.4659257656	-0.529047077	 0.100439
H	 0.0268348973	-1.6270591878	 1.5215663049	 0.129201
H	-3.3411073389	-0.1073961653	 0.6062313865	 0.120612
H	-2.6168380578	 1.0327785283	-0.5471875229	 0.129351
H	-3.9060128004	-1.5691693217	-1.3370188357	 0.10751
H	-2.7852602966	-0.6601994499	-2.3682080029	 0.11345
H	-0.9927299158	-2.2237399078	-1.6243405997	 0.106488
H	-2.0076755729	-2.765762315	-0.2699776277	 0.112011
69.7578	107.3887	126.1609	195.3313	224.0645	265.9082	350.18	392.7395	454.4478	515.9508	628.8892	657.668	718.4863	781.5342	808.2598	848.9709	871.6791	935.4063	945.5405	956.3131	1029.0378	1073.652	1088.9285	1131.8559	1140.1286	1193.2148	1219.4119	1223.9219	1252.1114	1264.1872	1275.5737	1297.6718	1321.4587	1361.252	1460.263	1475.3019	1483.2079	1505.125	2346.6622	3052.4145	3070.8899	3075.5521	3090.9758	3099.9782	3123.4854	3137.5645	3155.7382	3801.2414
OC1C(C#N)C11CCC1	O[C@H]1[C@@H](C#N)C21CCC2	
InChI=1S/C7H9NO/c8-4-5-6(9)7(5)2-1-3-7/h5-6,9H,1-3H2	InChI=1S/C7H9NO/c8-4-5-6(9)7(5)2-1-3-7/h5-6,9H,1-3H2/t5-,6+/m1/s1
