19
gdb 49989	3.25787	1.11089	1.02773	3.6988	82.02	-0.2412	-0.0136	0.2275	1230.0196	0.158787	-385.856812	-385.848744	-385.8478	-385.889674	31.302	
O	-0.0105786697	-0.0134092514	-0.3251740578	-0.274483
C	 0.0712745721	 1.1325095581	 0.0465770273	 0.164989
C	 1.3081272027	 1.9363624893	 0.0546788302	-0.160403
C	 1.1846489582	 3.4516426772	-0.1252128278	-0.380363
C	 1.5499066244	 2.9149274926	 1.2038214809	 0.366173
C	 0.7566603581	 3.0920846965	 2.5213225526	-0.323379
C	 2.0968200444	 3.2998865032	 3.2433943502	-0.036865
C	 2.9946480278	 2.1137226043	 3.0412502414	-0.277502
C	 2.8638999641	 3.1167224577	 1.926003468	-0.126408
H	-0.8267108993	 1.6782431907	 0.4247315151	 0.060514
H	 2.1775279015	 1.441424367	-0.3654759794	 0.104345
H	 1.9481589634	 3.931151214	-0.7286970603	 0.127064
H	 0.1838555753	 3.851970485	-0.2637168698	 0.121802
H	 0.1320964284	 3.988956821	 2.5033816296	 0.111149
H	 0.1539326464	 2.2463085667	 2.8679020926	 0.107472
H	 2.2731665942	 4.0266612175	 4.0260017442	 0.093297
H	 3.9354243068	 2.1459681078	 3.5814883012	 0.115101
H	 2.5761404467	 1.1161152635	 2.9299728086	 0.116329
H	 3.7099638546	 3.6720192493	 1.5385969933	 0.09117
75.7029	130.3213	170.6271	221.666	342.204	357.5327	416.6107	456.1032	486.4809	572.1186	746.9015	778.575	813.3674	853.0067	876.9305	900.1726	922.5139	959.0615	974.3207	992.5513	1020.3422	1044.1644	1057.7855	1066.6505	1072.5184	1087.3873	1099.7977	1149.4552	1173.9669	1198.4529	1214.0666	1252.4809	1284.6732	1292.9579	1343.5193	1403.1468	1445.546	1480.3546	1484.7297	1497.0497	1813.3854	2838.0231	3045.192	3100.2818	3110.5837	3119.3427	3172.3811	3179.1714	3191.709	3205.3319	3208.3792
O=CC1CC11CC2CC12	O=C[C@H]1C[C@]21C[C@H]1C[C@@H]21	
InChI=1S/C8H10O/c9-4-6-3-8(6)2-5-1-7(5)8/h4-7H,1-3H2	InChI=1S/C8H10O/c9-4-6-3-8(6)2-5-1-7(5)8/h4-7H,1-3H2/t5-,6-,7-,8+/m1/s1
