17
gdb 53062	5.36966	0.82736	0.8027	2.0232	88.91	-0.2152	-0.0271	0.1881	1480.661	0.135645	-384.62454	-384.616306	-384.615362	-384.659673	30.208	
C	-0.0726629718	 1.4226923977	-0.0066258264	-0.51404
C	-0.0078411013	-0.0292599785	 0.0042720649	 0.327342
C	 0.0608648517	-1.2359248946	 0.018613465	-0.32477
C	 0.0756413799	-2.6378307632	 0.0286719511	 0.32165
C	 1.0617521273	-3.5485312869	 0.1223364647	-0.237206
C	 0.2764649278	-4.86484552	 0.044380357	 0.026229
C	-0.6784101649	-4.5948006142	-1.1593881265	-0.219165
C	-1.1625514743	-3.5760089824	-0.0878540407	-0.055007
O	-0.8641916161	-4.5824794757	 0.9262765638	-0.281946
H	 0.5782484292	 1.8452976921	-0.7806365886	 0.151745
H	-1.0919392576	 1.7749686688	-0.1995336183	 0.151198
H	 0.2458980015	 1.8400955823	 0.9555779695	 0.154027
H	 2.1284123238	-3.4155108975	 0.2181622632	 0.115355
H	 0.7756364114	-5.8139324367	 0.2316019081	 0.084782
H	-0.256485024	-4.2204608148	-2.0940908323	 0.102792
H	-1.3933769791	-5.4050830729	-1.3197026739	 0.110016
H	-2.1618574835	-3.1473200938	-0.0392314107	 0.086997
10.4158	90.8409	96.2851	247.4226	293.9306	423.38	438.6224	492.4406	518.4525	599.9245	651.429	779.9525	795.6245	841.2107	845.477	896.6452	897.1064	932.7304	951.6152	1026.8814	1047.9719	1053.1165	1071.4405	1096.9462	1158.7073	1204.6506	1220.6109	1239.9532	1261.9403	1287.3159	1301.2054	1412.5404	1474.4788	1475.0227	1484.9867	1645.9832	2341.888	3022.8664	3064.9302	3081.284	3086.8621	3137.8709	3140.8598	3145.2804	3252.2876
CC#CC1=CC2CC1O2	CC#CC1=C[C@@H]2C[C@H]1O2	
InChI=1S/C8H8O/c1-2-3-6-4-7-5-8(6)9-7/h4,7-8H,5H2,1H3	InChI=1S/C8H8O/c1-2-3-6-4-7-5-8(6)9-7/h4,7-8H,5H2,1H3/t7-,8-/m1/s1
