17
gdb 60692	5.08939	0.78388	0.72775	2.1193	74.64	-0.2497	-0.0696	0.1801	1509.4052	0.134891	-455.129901	-455.120763	-455.119818	-455.164918	32.118	
N	 0.0896631666	 1.034809318	 0.5537248573	-0.555908
C	-0.1196105998	-0.1882482984	-0.0108719648	 0.278009
C	 1.140348599	-0.9485899555	-0.3000912364	 0.139549
O	 2.2368666184	-0.5395658778	-0.0027435308	-0.267747
N	-1.2172776166	-0.760375898	-0.3476380876	-0.276241
C	-2.4482246647	-0.0632380365	-0.0961650404	-0.029747
C	-3.7420589823	-0.8107579107	-0.4731716842	-0.089533
O	-4.2920895421	-0.6196005488	 0.8498755819	-0.269679
C	-3.0469559072	-0.1046355871	 1.34434561	-0.083649
H	 1.0376037796	 1.2346323291	 0.836295402	 0.274549
H	-0.6540754062	 1.5344960019	 1.007230881	 0.268308
H	 0.9604303535	-1.9154195824	-0.8046030216	 0.112929
H	-2.4218219731	 0.9600217133	-0.4978670755	 0.085743
H	-4.3753260354	-0.3641923117	-1.247239549	 0.103623
H	-3.5641901068	-1.8688280469	-0.7006286114	 0.109934
H	-2.5316722354	-0.8152445847	 2.004626714	 0.104368
H	-3.1736543074	 0.8528097761	 1.8658236055	 0.095494
49.7532	72.728	107.4698	143.9052	218.6377	273.6838	309.7663	362.272	390.9581	492.9372	541.3621	655.2618	697.7311	743.0861	868.2856	890.8894	928.1082	991.3539	1020.2277	1036.0909	1038.9338	1082.1821	1131.8805	1160.4607	1166.1745	1180.0798	1250.4373	1303.3574	1340.2588	1369.1395	1381.8993	1395.047	1503.7454	1530.2923	1609.9978	1718.8579	1806.634	2982.4131	2991.8437	3000.1682	3025.7235	3048.5209	3078.8471	3590.1282	3728.7714
NC(C=O)=NC1COC1	NC(=NC1COC1)C=O	
InChI=1S/C5H8N2O2/c6-5(1-8)7-4-2-9-3-4/h1,4H,2-3H2,(H2,6,7)	InChI=1S/C5H8N2O2/c6-5(1-8)7-4-2-9-3-4/h1,4H,2-3H2,(H2,6,7)
