21
gdb 113391	2.35452	1.14464	1.02985	1.723	74.65	-0.251	0.062	0.313	1295.817	0.180558	-461.322597	-461.312188	-461.311244	-461.358199	37.682	
C	 0.0430882725	-0.3982636139	 2.0568723918	-0.260004
O	-0.8620600984	-1.4340791305	 1.694117513	-0.312529
C	-1.7868915587	-1.1190021467	 0.6748333177	 0.389767
C	-3.1285008543	-0.6859088416	 1.2278050925	-0.12656
O	-3.048005563	 0.453043164	 2.0745386881	-0.415591
C	-1.2953819739	-0.5965714066	-0.6497888365	-0.366038
C	-1.7668252042	-2.0321521864	-0.5222959201	-0.082454
C	-0.7553685267	-3.1631649811	-0.5328635707	-0.076513
O	-1.0229360616	-4.1289040587	 0.4685983037	-0.42682
H	 0.5355139083	-0.7225986267	 2.9772839425	 0.126133
H	 0.8098123223	-0.2401638507	 1.2872798391	 0.113722
H	-0.4793482946	 0.5478403941	 2.2304543954	 0.128594
H	-3.7946294242	-0.4166752028	 0.4014558818	 0.108347
H	-3.5847885632	-1.5340072469	 1.7596217157	 0.100326
H	-2.7009772859	 0.1515322754	 2.9194880987	 0.290104
H	-1.9148941417	 0.1235554918	-1.1734156148	 0.120307
H	-0.2293457168	-0.4418355291	-0.7774941538	 0.117546
H	-2.736913197	-2.2814779513	-0.9446404069	 0.090626
H	-0.7913351505	-3.6918191962	-1.4910242906	 0.107918
H	 0.2599652248	-2.7528572279	-0.426670228	 0.082418
H	-0.9287100434	-3.6590097783	 1.3062305014	 0.290701
73.1248	90.2493	103.8457	140.6983	169.0475	194.8472	258.1507	301.6195	335.3449	376.7166	405.9483	445.4213	492.7059	527.0551	622.8384	728.4069	827.0916	898.6229	925.4199	933.9234	968.422	1024.304	1050.4066	1068.1668	1077.9767	1089.6964	1100.1094	1148.4614	1181.6441	1199.5381	1220.9272	1223.1886	1278.8474	1307.0858	1379.0642	1394.7019	1409.1165	1422.2894	1438.795	1474.549	1480.6737	1489.0105	1494.8233	1501.4011	1517.5272	2990.6419	2996.2035	3012.7845	3072.4153	3077.1772	3081.7417	3121.6573	3133.3438	3142.5304	3218.1589	3786.3479	3831.1521
COC1(CO)CC1CO	CO[C@@]1(CO)C[C@H]1CO	
InChI=1S/C6H12O3/c1-9-6(4-8)2-5(6)3-7/h5,7-8H,2-4H2,1H3	InChI=1S/C6H12O3/c1-9-6(4-8)2-5(6)3-7/h5,7-8H,2-4H2,1H3/t5-,6+/m0/s1
