17
gdb 20277	5.29777	2.14545	2.05828	1.4525	70.73	-0.224	0.0976	0.3216	722.9554	0.145326	-326.636249	-326.630887	-326.629943	-326.665229	23.543	
C	 0.0002174525	 1.5191352854	 0.0382680128	-0.2994
C	 1.330592061	 0.7937948808	-0.0009428774	-0.077534
C	 0.0373907874	 0.0156819893	-0.0103686291	 0.002682
N	 0.0052085158	-0.6654925402	-1.3199750105	-0.140625
C	 0.6268374498	 0.296697523	-2.3419812219	-0.026325
C	 1.2428392013	-0.914000842	-3.0628084815	-0.246385
C	 1.4551732503	-1.130484805	-1.5601848678	-0.012279
C	 1.8432899778	 0.3864191601	-1.3732671468	-0.031219
H	-0.2850279548	 1.9550058668	 0.9908944405	 0.10973
H	-0.3355704974	 2.0920150041	-0.8185274895	 0.1152
H	 2.0052233305	 0.8289744599	 0.84607833	 0.086953
H	-0.3262587378	-0.5727196908	 0.8231759616	 0.091898
H	 0.0461128125	 1.1075032326	-2.7838150607	 0.080263
H	 0.5367955219	-1.5865394048	-3.551120314	 0.107965
H	 2.1316215232	-0.7244738018	-3.6667877144	 0.094952
H	 1.8622894065	-1.9970401363	-1.0348728633	 0.078089
H	 2.8039564098	 0.7693784489	-1.7254189081	 0.066036
317.3818	323.0364	435.6761	523.119	675.955	690.9452	746.1701	793.4423	807.2209	813.0841	853.8878	891.1287	923.7682	927.6074	954.093	985.9091	1007.5065	1035.9421	1040.127	1060.8342	1079.8676	1092.2737	1101.3662	1127.8018	1135.7941	1160.4615	1174.2984	1192.4685	1222.5292	1230.5922	1272.2439	1306.0498	1323.133	1360.6166	1486.0799	1497.9959	3076.2825	3085.7203	3092.728	3103.795	3132.4929	3149.4981	3178.6804	3187.5093	3213.6721
C1C2C1N1C3CC1C23	C1[C@H]2[C@@H]1N1[C@@H]3C[C@H]1[C@H]23	
InChI=1S/C7H9N/c1-3-4(1)8-5-2-6(8)7(3)5/h3-7H,1-2H2	InChI=1S/C7H9N/c1-3-4(1)8-5-2-6(8)7(3)5/h3-7H,1-2H2/t3-,4+,5-,6+,7-/m0/s1
