23
gdb 105107	2.74246	1.16096	1.0209	1.0788	86.2	-0.2282	0.0822	0.3104	1324.6566	0.205084	-388.251671	-388.242138	-388.241194	-388.286561	36.093	
C	 0.1181487407	 1.3573316164	-0.0132414875	-0.250791
O	-0.105933551	 0.0025210883	-0.3160271045	-0.290266
C	-1.3845553968	-0.5425053919	-0.0957986481	 0.429611
C	-2.400263891	 0.1082793468	 0.8096412927	-0.339913
C	-2.6153097546	 0.0887002703	-0.6961503563	-0.329033
C	-1.2805970954	-2.0469386331	-0.0930901368	 0.007883
C	-0.5621664086	-2.7574447843	-1.2784216657	-0.233646
C	 0.060377232	-3.7463829181	-0.2563303009	-0.212446
C	-0.2703300984	-2.7330332836	 0.8722133531	-0.232711
H	 1.1421550648	 1.5768526467	-0.3258265459	 0.127892
H	-0.5575883332	 2.0339674785	-0.5567922545	 0.107837
H	 0.0303158175	 1.5640782309	 1.0624322427	 0.111511
H	-3.0065701613	-0.5364894539	 1.4370727187	 0.113475
H	-2.1743521396	 1.0682158733	 1.2579975896	 0.113251
H	-2.5091445013	 1.0332855879	-1.2183112533	 0.113513
H	-3.3741386433	-0.5644493845	-1.1136086322	 0.113165
H	-2.2835042029	-2.4633045091	 0.0465361293	 0.060694
H	-1.1866771616	-3.1676766161	-2.0759832729	 0.087411
H	 0.1926214445	-2.1020099149	-1.7183034133	 0.11635
H	-0.5296385227	-4.6635130757	-0.1657701751	 0.095394
H	 1.1081426094	-4.0229394601	-0.3953434351	 0.093575
H	 0.5723657135	-2.0685930329	 1.0765935511	 0.110423
H	-0.6555796207	-3.1233465108	 1.8176656849	 0.086821
47.1743	81.7603	112.7272	189.0512	214.5316	245.2843	300.7919	353.6617	361.6354	515.9324	537.0573	589.0236	713.1544	757.7325	780.5417	809.5628	883.8331	895.2906	927.4686	939.9322	947.4158	958.2777	964.3081	1029.1862	1050.4177	1055.6762	1068.8582	1108.1371	1149.0537	1176.9784	1184.8534	1203.9662	1213.1989	1239.4249	1256.6022	1258.0391	1263.4635	1285.5007	1292.8519	1313.8203	1408.1871	1456.4758	1476.6314	1482.7386	1487.6417	1491.0628	1499.5028	1510.1356	1513.1571	2986.5267	3037.9015	3049.856	3052.0369	3060.8185	3066.7121	3098.0226	3110.5025	3119.2241	3128.4574	3132.1023	3139.0101	3211.6992	3227.0054
COC1(CC1)C1CCC1	COC1(CC1)C1CCC1	
InChI=1S/C8H14O/c1-9-8(5-6-8)7-3-2-4-7/h7H,2-6H2,1H3	InChI=1S/C8H14O/c1-9-8(5-6-8)7-3-2-4-7/h7H,2-6H2,1H3
