21
gdb 96145	2.49774	1.64626	1.24214	1.4129	77.49	-0.2396	0.0763	0.3159	1073.3651	0.184932	-424.211783	-424.20398	-424.203035	-424.243548	32.113	
O	-0.0907036203	 1.4475584628	 0.08690659	-0.440947
C	-0.009802268	 0.0274151192	-0.0049998422	 0.124203
C	 0.8819284402	-0.5291715228	 1.1208504922	-0.25167
C	 0.8372397961	-2.0477772634	 1.323317544	-0.080529
O	-0.3535218029	-2.5470410385	 1.9081579897	-0.265509
C	-1.5901041202	-2.2299710921	 1.292705871	 0.135946
C	-1.5593951089	-2.0161718785	-0.2468818849	-0.278918
C	-1.4513196975	-0.4861194302	 0.0060522405	 0.001384
C	-2.0300956348	-0.7413111092	 1.4268387419	-0.244345
H	 0.8042322932	 1.7938731654	 0.1645559574	 0.278804
H	 0.4331883891	-0.2593357691	-0.9753942333	 0.06033
H	 1.9232081889	-0.2521755174	 0.904743739	 0.086952
H	 0.6124975136	-0.0327702923	 2.0595768393	 0.116563
H	 1.0503883385	-2.5579714609	 0.3708308463	 0.091029
H	 1.6270515352	-2.341164359	 2.0216363622	 0.108534
H	-2.2885176711	-2.979194216	 1.6733455098	 0.07747
H	-0.7771964979	-2.510883517	-0.8283090286	 0.098887
H	-2.5262082687	-2.2781822564	-0.6839511652	 0.103218
H	-2.0361590162	 0.157778902	-0.6546699348	 0.076072
H	-3.1203781535	-0.6560123558	 1.4383020877	 0.096727
H	-1.6251201049	-0.1736882808	 2.2664985083	 0.105797
137.1475	236.9854	268.8283	286.8651	326.8253	342.9465	389.9684	426.6253	462.3229	539.9635	581.8247	754.5936	775.7247	806.7436	860.5746	885.5135	917.3362	929.2253	943.838	994.0776	1031.218	1048.4758	1062.8979	1089.8642	1094.5487	1130.0501	1157.9061	1165.0257	1200.8488	1239.8297	1251.1312	1259.4244	1275.3013	1295.7912	1298.9336	1343.8923	1349.6566	1385.6571	1402.9525	1419.3613	1433.132	1460.9709	1480.5292	1497.207	1515.5083	2936.957	2983.6344	3014.4299	3060.484	3060.843	3072.9027	3077.7269	3078.673	3085.1449	3112.5381	3123.5724	3810.7188
OC1CCOC2CC1C2	O[C@H]1CCO[C@@H]2C[C@H]1C2	
InChI=1S/C7H12O2/c8-7-1-2-9-6-3-5(7)4-6/h5-8H,1-4H2	InChI=1S/C7H12O2/c8-7-1-2-9-6-3-5(7)4-6/h5-8H,1-4H2/t5-,6+,7-/m0/s1
