20
gdb 55698	2.7822	1.18075	0.99878	4.1086	74.88	-0.2336	0.0355	0.269	1253.3013	0.170501	-440.315024	-440.305678	-440.304733	-440.349707	35.63	
N	-1.6066526512	-0.007839031	-1.9802837244	-0.50631
C	-2.4913124483	-0.3851719484	-1.012102543	 0.367706
O	-3.698331668	-0.2930503521	-1.1396847802	-0.367351
C	-1.8471819186	-0.9031030647	 0.2780138648	-0.318969
C	-0.9582967092	-2.1379559602	 0.096232788	 0.387068
O	 0.2079680205	-1.7009067437	-0.5910944302	-0.478522
C	-0.7399519307	-2.9261972236	 1.4207432924	-0.269985
C	-1.8682352571	-3.8995046227	 0.9844147041	-0.213366
C	-1.7178211635	-3.3761952069	-0.4703481628	-0.280627
H	-1.9888139547	 0.224534221	-2.8832134154	 0.250914
H	-0.6503060808	-0.3233040902	-1.9135544248	 0.264685
H	-1.2389395034	-0.1119713303	 0.7318126277	 0.123962
H	-2.6697052739	-1.1336965046	 0.9566927417	 0.125852
H	 0.7343730432	-2.475080205	-0.8146295064	 0.279762
H	 0.240599965	-3.4137335501	 1.4178728303	 0.092402
H	-0.8532208965	-2.3780118597	 2.359472404	 0.104794
H	-1.6958822926	-4.9641746195	 1.1497079903	 0.103249
H	-2.8356674989	-3.6352885831	 1.4172852106	 0.118873
H	-2.6239598892	-3.1867785119	-1.0499985228	 0.12687
H	-1.0476466021	-4.009504843	-1.0622000438	 0.088993
34.9572	83.3116	151.3873	194.4839	289.1138	326.2307	328.6985	381.7278	425.7962	447.5916	485.4424	552.105	588.9312	640.0684	698.5436	765.0359	788.9381	860.5323	885.1895	908.569	929.676	942.9926	981.6178	1036.5672	1073.3306	1076.3964	1128.6697	1167.6622	1198.8305	1214.0888	1244.1752	1248.4921	1270.7156	1305.7976	1315.9465	1366.4911	1398.2297	1460.9767	1471.1428	1485.551	1505.3585	1619.8299	1795.9952	3042.0088	3047.4286	3050.0113	3074.7935	3102.4045	3110.0027	3127.155	3131.2901	3561.2258	3702.3427	3817.6443
NC(=O)CC1(O)CCC1	NC(=O)CC1(O)CCC1	
InChI=1S/C6H11NO2/c7-5(8)4-6(9)2-1-3-6/h9H,1-4H2,(H2,7,8)	InChI=1S/C6H11NO2/c7-5(8)4-6(9)2-1-3-6/h9H,1-4H2,(H2,7,8)
