16
gdb 125903	3.93846	1.35252	1.1301	4.9865	71.28	-0.2117	-0.0355	0.1762	1064.9324	0.125732	-434.033505	-434.026153	-434.025209	-434.065506	28.223	
C	 0.1285826587	 1.4831480824	 0.0793213727	-0.400375
C	-0.0282766616	-0.0330070571	-0.0308691886	 0.040931
C	 0.7266205962	-0.6067599079	-1.3000470634	-0.373115
C	 1.9146160157	-1.2145342296	-0.6391167782	 0.352592
C	 1.7732601723	-1.2394620231	 0.705067876	 0.292478
N	 0.5540743123	-0.7365016984	 1.1703261086	-0.409867
N	 2.8603215862	-1.8613149113	 1.2333394837	-0.21661
N	 3.6504642255	-2.2054295476	 0.3061517854	-0.04447
O	 3.0442409418	-1.8044035628	-0.9805284344	-0.236222
H	 1.1870517716	 1.7631130817	 0.1190031644	 0.13241
H	-0.3255191695	 1.9822977412	-0.7827798294	 0.127282
H	-0.3633260526	 1.863827027	 0.980729491	 0.124276
H	-1.0903044776	-0.2848676236	-0.0908275158	 0.09881
H	 0.1227732992	-1.3591341962	-1.820237735	 0.139372
H	 0.9603247271	 0.1826942008	-2.021412545	 0.132335
H	 0.6277382546	-0.1225045258	 1.973886378	 0.240173
64.6994	203.2469	263.6827	282.7085	344.1402	396.8343	446.4301	500.6687	618.6323	646.882	676.0669	728.0903	742.1876	809.4417	872.0665	914.1328	933.1707	1002.1791	1046.3082	1092.3216	1119.1589	1182.6323	1203.9468	1269.9672	1322.3974	1328.972	1364.1567	1389.4618	1408.114	1429.3404	1483.7649	1489.8243	1496.4603	1503.486	1655.8757	3029.5874	3037.1125	3065.2407	3078.7707	3102.933	3107.9309	3536.9744
CC1CC2=C(N1)N=NO2	C[C@H]1Cc2c(N1)nno2	
InChI=1S/C5H7N3O/c1-3-2-4-5(6-3)7-8-9-4/h3,6H,2H2,1H3	InChI=1S/C5H7N3O/c1-3-2-4-5(6-3)7-8-9-4/h3,6H,2H2,1H3/t3-/m0/s1
