20
gdb 91817	3.26755	1.28194	1.08489	1.8137	80.87	-0.2169	0.0114	0.2283	1175.5459	0.171025	-403.126005	-403.117379	-403.116435	-403.158847	33.752	
C	 0.1118003281	 1.4871752471	-0.0180625289	-0.450424
C	-0.0783415993	-0.019183423	 0.0043641051	 0.304591
C	-0.8690514975	-0.6413498238	 1.1086704873	-0.284523
N	 0.5961004946	-0.7157208561	 1.1098672742	-0.145917
C	 1.1909290314	-2.0303723794	 0.8177873374	-0.160047
C	 1.8469399669	-2.0806210353	-0.5655127411	 0.064296
O	 2.2355107835	-3.4352692684	-0.766013585	-0.428894
C	 0.8663752502	-1.6037304166	-1.6129158143	-0.102516
C	-0.0452082942	-0.6748027707	-1.333414043	-0.134398
H	 1.0624209716	 1.7526897376	-0.49264516	 0.119438
H	-0.6936236618	 1.9720546251	-0.5814503087	 0.113138
H	 0.1141342544	 1.8853578576	 0.9995090445	 0.126107
H	-1.3125147421	-0.0186253951	 1.8829960181	 0.10766
H	-1.4182880296	-1.5536102572	 0.8836061645	 0.110118
H	 1.9364880564	-2.252321943	 1.5882394762	 0.108414
H	 0.4451773476	-2.835494272	 0.8409123938	 0.106949
H	 2.7363118155	-1.4281989216	-0.568157984	 0.082934
H	 2.7727963152	-3.4784010818	-1.5629695549	 0.283808
H	 0.9256608883	-2.0630626096	-2.59683447	 0.087093
H	-0.7495007591	-0.3263020739	-2.0853569311	 0.092174
89.2751	174.1554	200.8569	230.8873	247.2932	313.2012	369.6565	416.7743	429.5843	468.8381	517.5174	597.287	654.1471	733.4673	758.0155	813.7472	907.4904	920.3373	943.5414	982.3586	991.9531	1025.9494	1051.7059	1095.6559	1101.7762	1113.2218	1123.7458	1160.4918	1185.9304	1220.0644	1256.3418	1274.0679	1343.8686	1348.4415	1381.7837	1403.8055	1410.2943	1427.4154	1483.1872	1495.6115	1498.5967	1518.4889	1708.2959	2954.2695	3019.1311	3030.6787	3069.7475	3088.073	3094.5642	3121.5339	3142.276	3165.5967	3174.3878	3821.7903
CC12CN1CC(O)C=C2	C[C@]12CN1C[C@@H](O)C=C2	
InChI=1S/C7H11NO/c1-7-3-2-6(9)4-8(7)5-7/h2-3,6,9H,4-5H2,1H3	InChI=1S/C7H11NO/c1-7-3-2-6(9)4-8(7)5-7/h2-3,6,9H,4-5H2,1H3/t6-,7-,8?/m0/s1
