19
gdb 93626	2.01508	1.63217	1.33763	1.9268	76.48	-0.2508	0.0428	0.2935	1083.1792	0.157418	-422.989232	-422.979694	-422.97875	-423.024388	34.964	
C	-0.7955598957	 1.2604602623	-0.176034239	-0.417606
C	-0.0604953513	-0.0740369757	-0.1194714263	-0.008925
C	 1.1296980006	-0.225448707	-1.0800530414	 0.081788
O	 1.8710335933	 0.9837154502	-1.0638260532	-0.423409
C	 1.8900296078	-1.4069641955	-0.4578976635	-0.090342
O	 1.5372975428	-1.474154432	 0.9233194334	-0.259849
C	 0.583463131	-0.4549653271	 1.2394907955	-0.077504
C	 1.2050659351	 0.6573473683	 1.9653744127	 0.382952
C	 1.6892289839	 1.5448989274	 2.6152889309	-0.497681
H	-0.114348619	 2.0879988724	 0.0246335261	 0.153849
H	-1.2395778205	 1.4112742413	-1.1649675835	 0.112803
H	-1.6036581126	 1.2894342742	 0.5617486117	 0.114011
H	-0.7578125434	-0.8871185787	-0.3555418528	 0.08442
H	 0.7958426309	-0.4605559399	-2.1012931793	 0.065958
H	 2.7090617712	 0.8329807471	-1.5111007409	 0.285086
H	 1.6148509242	-2.3549651441	-0.9402315664	 0.09861
H	 2.9761914244	-1.2772584997	-0.5570419352	 0.093937
H	-0.1641191149	-0.9131337032	 1.8985238291	 0.106274
H	 2.1295648522	 2.3347429699	 3.1719930219	 0.195629
21.7638	99.588	148.758	205.7524	228.9053	240.2101	255.2177	316.3397	394.3425	476.0975	496.5463	576.7407	615.2256	667.1896	698.9953	749.8979	857.6566	868.4606	905.1644	944.5787	977.679	1007.8062	1023.8231	1090.2057	1120.4473	1146.8037	1170.0454	1191.7325	1238.679	1283.1745	1323.4132	1327.4797	1367.4243	1375.5838	1386.9848	1412.1123	1424.7734	1493.5081	1500.7648	1509.0328	2231.6517	2988.4769	3004.7312	3025.537	3035.6221	3040.9097	3046.9936	3104.3597	3150.2198	3503.0305	3828.1916
CC1C(O)COC1C#C	C[C@H]1[C@@H](O)CO[C@H]1C#C	
InChI=1S/C7H10O2/c1-3-7-5(2)6(8)4-9-7/h1,5-8H,4H2,2H3	InChI=1S/C7H10O2/c1-3-7-5(2)6(8)4-9-7/h1,5-8H,4H2,2H3/t5-,6-,7-/m0/s1
