19
gdb 116411	2.80513	1.33257	0.98055	1.6856	72.45	-0.2345	-0.0223	0.2122	1218.9135	0.159064	-460.170606	-460.161806	-460.160862	-460.204335	32.27	
C	-0.1054590853	 1.3687397979	-0.0012824921	-0.244365
O	 0.1554638406	-0.0235390325	 0.0506189122	-0.234012
C	 0.6433887353	-0.5755468832	-1.1364903349	 0.009963
C	 1.2547591091	-1.9514434983	-0.7814894871	-0.117814
O	 1.7457410768	-2.6154115418	-1.9255664139	-0.236107
C	 0.7203163352	-2.9170375505	-2.8517877925	-0.087692
C	 0.0603083612	-1.630691955	-3.3861643564	-0.303983
C	-0.4222160425	-0.7792301067	-2.2218469933	 0.355697
O	-1.5451238048	-0.3428648863	-2.1326820571	-0.305752
H	 0.7966369906	 1.9298212795	-0.2914817822	 0.100202
H	-0.9170428329	 1.6014823292	-0.6973890003	 0.138842
H	-0.3963195657	 1.6705560033	 1.007461288	 0.128649
H	 1.4467576638	 0.0452790313	-1.5738052574	 0.08573
H	 2.0957262258	-1.8112182013	-0.0992834098	 0.124254
H	 0.4873959987	-2.5507695215	-0.2663997722	 0.110705
H	 1.1875121333	-3.4801246834	-3.6636276797	 0.119294
H	-0.04255871	-3.5603500665	-2.3839241548	 0.104691
H	 0.8120462732	-1.0668264321	-3.9522933476	 0.127482
H	-0.7837821622	-1.8500820321	-4.0450270589	 0.124216
86.5019	108.5484	143.2993	181.8812	236.7363	286.5721	338.6519	378.7996	431.4866	471.5719	513.8496	598.6547	703.1149	751.448	864.4843	897.3878	982.7653	989.8321	1033.1359	1059.3948	1099.915	1122.33	1162.7846	1176.3712	1186.4573	1215.6859	1241.2964	1242.752	1296.0672	1309.4358	1336.5485	1344.1958	1394.664	1411.2681	1457.3919	1478.8765	1482.8105	1497.9506	1510.6112	1514.8136	1819.7829	2941.2934	2978.2438	2985.2972	2990.042	3038.9481	3081.3118	3096.8477	3110.4983	3111.5242	3126.8303
COC1COCCC1=O	CO[C@H]1COCCC1=O	
InChI=1S/C6H10O3/c1-8-6-4-9-3-2-5(6)7/h6H,2-4H2,1H3	InChI=1S/C6H10O3/c1-8-6-4-9-3-2-5(6)7/h6H,2-4H2,1H3/t6-/m0/s1
