21
gdb 114834	3.13202	1.33046	1.26642	1.2371	77.49	-0.2392	0.0901	0.3294	1125.1499	0.184599	-424.235117	-424.227234	-424.22629	-424.267479	31.369	
C	 0.0138900358	 1.5925963035	 0.0046981636	-0.382242
C	-0.1309136352	 0.0699015988	-0.067030124	-0.191715
C	 0.6581269162	-0.5426909056	-1.2169867762	 0.14277
O	 2.0705560098	-0.2051575462	-1.1208410655	-0.304233
C	 2.782668446	-1.4500318665	-1.1559854911	 0.080262
C	 2.5051827194	-2.1789605921	 0.1639465455	-0.081902
O	 1.1190570226	-2.5644596604	 0.0279594423	-0.280696
C	 0.7062870122	-2.0820943794	-1.2600499626	 0.057425
C	 1.9528758453	-2.3014182805	-2.1289509907	-0.246864
H	 1.0635736296	 1.8713984203	 0.1282490871	 0.133222
H	-0.3537984524	 2.071756201	-0.9097939047	 0.108703
H	-0.5526515002	 2.0018059618	 0.8465518042	 0.108468
H	 0.194238205	-0.3930108541	 0.8695503395	 0.11256
H	-1.1867119263	-0.201365841	-0.2011069611	 0.089964
H	 0.2753044845	-0.1496148911	-2.1722739554	 0.068143
H	 3.8302700059	-1.2570600647	-1.3852321542	 0.082787
H	 3.1266123931	-3.0729101088	 0.3060878201	 0.097471
H	 2.6279007426	-1.5101681336	 1.0221304092	 0.107581
H	-0.22385592	-2.5765034596	-1.5391037909	 0.081148
H	 1.8911711089	-1.8629054629	-3.1263089376	 0.109417
H	 2.2534741274	-3.3493663289	-2.1827580076	 0.10773
96.4181	147.5344	183.7967	240.8872	318.0802	382.832	455.4465	476.084	506.0207	619.6411	760.3278	804.4606	820.5397	841.9635	862.1116	904.9437	927.0095	938.3983	962.8406	971.3814	978.5633	1014.0671	1062.4687	1066.5912	1074.4027	1121.6046	1143.7561	1162.8271	1199.9162	1225.3706	1265.6312	1284.4803	1293.2974	1305.0375	1314.1914	1325.2584	1368.0344	1379.6443	1406.0049	1411.4021	1480.6416	1482.7995	1498.6783	1511.4124	1516.5138	2974.0545	3015.4841	3024.6152	3035.7435	3074.7762	3080.0881	3083.3526	3103.8476	3123.0823	3126.9911	3131.9348	3142.1584
CCC1OC2COC1C2	CC[C@H]1O[C@H]2CO[C@@H]1C2	
InChI=1S/C7H12O2/c1-2-6-7-3-5(9-6)4-8-7/h5-7H,2-4H2,1H3	InChI=1S/C7H12O2/c1-2-6-7-3-5(9-6)4-8-7/h5-7H,2-4H2,1H3/t5-,6-,7-/m1/s1
