19
gdb 101884	6.04201	0.55265	0.52336	2.8638	73.97	-0.2653	0.0087	0.274	2008.4401	0.158513	-456.333373	-456.323155	-456.322211	-456.369727	35.818	
O	 0.0319757093	 1.4452006473	-0.173144521	-0.425366
C	 0.0887791609	 0.045698559	-0.0035516681	-0.048744
C	-1.3106107168	-0.550676511	 0.1089532413	 0.097662
O	-1.999576594	-0.1727292113	-1.0723167405	-0.450136
C	-1.3087027143	-2.0726474583	 0.2527526654	-0.165649
N	-2.6954372254	-2.5460538823	 0.2166970499	-0.317422
C	-2.8141913625	-3.9950891694	 0.0842710817	-0.262228
C	-4.220866074	-4.4060461601	 0.0621188515	 0.255722
N	-5.3293270943	-4.7297217771	 0.0665299989	-0.289802
H	-0.5990591231	 1.5993752517	-0.8866223061	 0.296144
H	 0.6142765039	-0.4428358506	-0.8412063631	 0.087243
H	 0.6578182885	-0.1455593408	 0.9125705571	 0.103888
H	-1.802420433	-0.1061721847	 0.993018209	 0.070254
H	-2.7767692956	-0.7458320864	-1.1241705528	 0.291022
H	-0.7851177396	-2.5093698565	-0.6064719802	 0.117453
H	-0.7673920814	-2.3772250203	 1.1643944795	 0.096881
H	-3.1842546423	-2.2446103597	 1.0548602098	 0.238934
H	-2.348120489	-4.3012024679	-0.859953641	 0.164271
H	-2.3056202573	-4.5618803915	 0.8838660987	 0.139874
42.954	75.7298	89.7416	135.9793	161.3917	187.3788	285.577	304.4105	385.4797	395.4751	439.87	480.7877	484.755	564.9215	591.7463	802.9565	875.2166	922.4334	943.7356	994.4415	1025.2857	1053.092	1084.326	1132.3173	1141.325	1152.9881	1202.528	1238.0375	1288.8962	1302.4025	1321.351	1370.6398	1381.8597	1411.0528	1431.7392	1453.8412	1485.9703	1493.8118	1497.3467	1505.4236	2370.1703	2941.7855	2955.4599	2965.2936	2969.4466	3056.4336	3057.6168	3073.2709	3510.3467	3746.8287	3793.1505
OCC(O)CNCC#N	OC[C@@H](O)CNCC#N	
InChI=1S/C5H10N2O2/c6-1-2-7-3-5(9)4-8/h5,7-9H,2-4H2	InChI=1S/C5H10N2O2/c6-1-2-7-3-5(9)4-8/h5,7-9H,2-4H2/t5-/m0/s1
