16
gdb 86773	3.9833	0.94183	0.81464	4.3914	69.84	-0.2661	-0.0439	0.2222	1348.8921	0.122791	-437.898807	-437.889781	-437.888837	-437.933449	31.775	
O	 0.208498468	 1.4821574975	 0.1295955713	-0.429348
C	 0.1030442026	 0.0979560202	 0.0638439808	 0.076418
C	-1.2964285912	-0.6263485098	 0.0846801053	-0.314137
C	-0.7747244588	-1.6435316122	-0.9815485444	-0.098337
C	-1.6988865663	-2.083517348	-2.1209285092	-0.35743
C	-1.0647575971	-3.0508637602	-3.0151154077	 0.269962
N	-0.5610005827	-3.8313165416	-3.70175377	-0.300121
C	 0.2754266229	-0.5679103689	-1.3018729131	 0.334203
O	 0.7148820475	-0.1370396404	-2.331192015	-0.299448
H	 0.293638147	 1.8093727293	-0.7751006898	 0.299077
H	 0.7517635226	-0.3577614886	 0.8224123502	 0.118244
H	-1.6182896293	-1.0347902817	 1.0421931287	 0.126765
H	-2.0699809474	 0.0284040693	-0.3250127425	 0.125193
H	-0.3184676864	-2.5107506106	-0.4954524683	 0.128138
H	-2.608227133	-2.5371016701	-1.7108328265	 0.160388
H	-2.0082345485	-1.2119201942	-2.7083331998	 0.160433
50.4917	79.3803	147.1421	160.3532	192.3756	274.9835	316.9722	382.8979	394.1527	453.3223	574.3338	607.5752	713.4315	779.2839	847.8084	897.8995	927.8271	966.2611	1005.4211	1027.8794	1055.6245	1116.8058	1163.4408	1167.1125	1212.9905	1254.7644	1261.7191	1319.2296	1335.9192	1374.9431	1415.4943	1459.6225	1482.4074	1869.4865	2366.7375	3036.4581	3045.5896	3072.2801	3077.0874	3089.8666	3148.9673	3772.5048
OC1CC(CC#N)C1=O	O[C@H]1C[C@@H](CC#N)C1=O	
InChI=1S/C6H7NO2/c7-2-1-4-3-5(8)6(4)9/h4-5,8H,1,3H2	InChI=1S/C6H7NO2/c7-2-1-4-3-5(8)6(4)9/h4-5,8H,1,3H2/t4-,5+/m1/s1
