18
gdb 126658	6.50323	0.70456	0.6464	2.2012	75.42	-0.2211	-0.0153	0.2059	1711.6782	0.149301	-431.435465	-431.426511	-431.425566	-431.47061	31.506	
C	-0.0052598075	 1.5194418393	 0.0217350481	-0.381171
C	-0.0970700129	-0.0008292308	-0.1275809043	-0.188511
C	 0.8641673513	-0.5401161664	-1.1852965099	-0.117604
N	 0.7501527679	-1.9906306981	-1.2922200242	-0.390677
C	 1.3379022664	-2.6557301118	-2.3292767543	 0.505032
N	 1.5762239227	-3.9695655463	-2.328955591	-0.325933
N	 2.0860394793	-4.1185589097	-3.5549991684	-0.067274
N	 2.1730352685	-3.0151395427	-4.2642306081	-0.103807
N	 1.7019446768	-2.0580802237	-3.5003919838	-0.282702
H	 1.0045619279	 1.8312815882	 0.3096443988	 0.119209
H	-0.2528084002	 2.0250181036	-0.9177921966	 0.122988
H	-0.696800078	 1.8821743258	 0.78750062	 0.117838
H	 0.122700767	-0.4775078342	 0.8381216547	 0.093048
H	-1.1182999715	-0.2970380407	-0.3933758568	 0.111935
H	 0.628656096	-0.1165782016	-2.1655550389	 0.142417
H	 1.8952694969	-0.2302240136	-0.9494241079	 0.099342
H	 0.7711011527	-2.499085403	-0.4204722063	 0.248047
H	 2.3876629668	-5.0121449344	-3.9113062311	 0.297824
38.9312	64.7901	98.1491	155.3417	240.0728	278.9035	337.6162	342.1759	461.0436	526.6903	582.4131	717.2534	756.3461	782.9507	795.567	893.4291	914.9137	1018.3472	1042.6915	1062.5204	1111.2069	1144.429	1163.2145	1168.5881	1188.4653	1253.5872	1276.6423	1313.8681	1331.3559	1363.7934	1406.5328	1414.6756	1464.5037	1490.834	1500.5263	1505.3619	1516.0868	1524.3527	1631.7634	2972.5656	3011.3673	3035.1037	3060.8549	3092.3352	3103.7199	3110.5699	3610.0159	3659.1083
CCCNC1=NNN=N1	CCCNc1n[nH]nn1	
InChI=1S/C4H9N5/c1-2-3-5-4-6-8-9-7-4/h2-3H2,1H3,(H2,5,6,7,8,9)	InChI=1S/C4H9N5/c1-2-3-5-4-6-8-9-7-4/h2-3H2,1H3,(H2,5,6,7,8,9)
