15
gdb 25885	4.24679	1.10103	0.87807	4.4054	70.33	-0.212	-0.011	0.201	1242.8984	0.114787	-450.17208	-450.163894	-450.16295	-450.205107	31.021	
N	-0.1411291169	 1.2976989106	 0.2514661626	-0.523375
C	 0.0456147582	-0.0453115461	 0.0452209991	 0.243205
N	 1.2259361885	-0.5338428766	-0.077227838	-0.536487
C	-1.2223754701	-0.8083611118	 0.0208169695	 0.259771
C	-1.4240644823	-2.145903834	 0.0549134606	-0.152497
O	-2.7838311023	-2.3714328817	 0.0073187191	-0.179055
C	-3.3234902658	-1.132685984	-0.0502115021	 0.463161
N	-4.6837286115	-1.0606792671	-0.1763744348	-0.591909
N	-2.4640634561	-0.1626775595	-0.040028622	-0.405711
H	 0.6538617176	 1.885192137	 0.0584952333	 0.253257
H	-1.0585080304	 1.6662787129	 0.0596985011	 0.265008
H	 1.1874161795	-1.543517498	-0.1984312578	 0.20434
H	-0.8001229414	-3.0186138138	 0.1235336458	 0.155185
H	-5.1945192272	-1.8322199625	 0.2260857779	 0.269966
H	-5.0616999497	-0.1535592454	 0.050993446	 0.275142
50.4319	157.7844	181.9533	301.0053	324.2632	383.0367	389.9329	440.3709	498.3	533.1229	568.6692	604.519	647.4099	699.0352	751.0017	773.0914	781.9425	810.895	967.6349	991.7075	1109.2005	1116.0514	1139.0669	1153.7788	1225.284	1277.7841	1431.7508	1437.5036	1597.9953	1607.6433	1638.1959	1691.0877	1708.1271	3304.8963	3505.4309	3583.163	3590.8275	3692.9361	3718.7084
NC(=N)C1=COC(N)=N1	NC(=N)c1coc(N)n1	
InChI=1S/C4H6N4O/c5-3(6)2-1-9-4(7)8-2/h1H,(H3,5,6)(H2,7,8)	InChI=1S/C4H6N4O/c5-3(6)2-1-9-4(7)8-2/h1H,(H3,5,6)(H2,7,8)
