20
gdb 114495	2.78187	1.33412	1.03978	2.3683	80.5	-0.2051	-0.0257	0.1794	1213.0945	0.170237	-403.125583	-403.11686	-403.115916	-403.159428	32.665	
C	 0.1498664708	 1.5384386156	 0.1034867205	-0.380624
C	 0.0177950569	 0.0163783436	 0.0982028916	-0.130092
N	 0.6281818088	-0.5569939657	-1.0893203147	-0.059818
C	 2.0986693536	-0.5845113031	-1.2621949305	-0.184442
C	 2.0166730431	-2.0465412303	-1.7655169327	-0.048106
C	 2.2664033567	-3.0957786733	-0.6530402662	-0.361456
C	 0.7943418487	-2.9362429499	-0.2209036747	 0.406735
O	 0.1525103969	-3.3363818749	 0.7074898027	-0.301919
C	 0.4862402782	-1.9882323658	-1.409477936	-0.123555
H	 1.2017320136	 1.8439468408	 0.1183951265	 0.117702
H	-0.3144752992	 1.970169417	-0.7877927649	 0.123759
H	-0.3302686012	 1.9622956617	 0.9905745954	 0.116421
H	 0.4442869591	-0.3962548004	 1.0305585816	 0.088767
H	-1.0406819403	-0.2692045716	 0.0907224145	 0.112348
H	 2.4590246759	 0.1588875109	-1.9816696723	 0.107503
H	 2.6792680997	-0.4735872256	-0.3328712451	 0.09125
H	 2.3835931874	-2.2647980131	-2.7654433536	 0.083132
H	 2.4366938464	-4.1045223726	-1.046947374	 0.133059
H	 3.0341628829	-2.8818265888	 0.0966841361	 0.12442
H	-0.3554013679	-2.2448207047	-2.0606045943	 0.084917
83.7533	86.3449	97.5073	217.8262	238.1378	326.2804	365.0306	399.9928	433.3601	557.315	587.4651	696.6006	784.5752	804.9887	831.0113	836.4389	898.6163	940.7903	978.7502	1011.1173	1030.1995	1050.4762	1060.4202	1110.1603	1127.2157	1152.7339	1153.907	1202.8479	1211.3733	1236.0024	1245.2318	1264.8982	1306.0512	1310.9486	1335.4626	1392.5222	1411.9206	1434.7913	1488.4593	1492.99	1509.924	1523.3121	1877.2532	2937.4452	2977.9543	3036.8273	3043.3579	3049.0606	3053.3501	3056.9036	3098.56	3104.675	3118.4362	3143.8517
CCN1CC2CC(=O)C12	CCN1C[C@H]2CC(=O)[C@@H]12	
InChI=1S/C7H11NO/c1-2-8-4-5-3-6(9)7(5)8/h5,7H,2-4H2,1H3	InChI=1S/C7H11NO/c1-2-8-4-5-3-6(9)7(5)8/h5,7H,2-4H2,1H3/t5-,7+/m1/s1
