17
gdb 82606	4.04885	1.36154	1.30136	1.8992	66.58	-0.2379	0.0596	0.2975	992.5955	0.137393	-458.906113	-458.899203	-458.898259	-458.937097	28.532	
O	 0.2150912485	 1.4346187776	-0.0289516461	-0.449343
C	 0.0413752566	 0.0523356982	-0.0264901586	 0.178653
C	 0.0998287861	-0.6965430943	 1.3276125163	-0.000622
O	-0.8806416093	 0.0562198808	 2.0878508975	-0.291754
C	-2.029761343	-0.3166099453	 1.303594579	 0.014209
C	-2.0840881067	-1.848470894	 1.5537788947	 0.111803
O	-3.0937648248	-2.5332498512	 0.8460344804	-0.435597
C	-0.8028115449	-1.8275618886	 0.7130663438	-0.078431
C	-1.3568818668	-0.592787898	-0.1036761811	-0.127239
H	-0.1942766963	 1.7476162541	 0.7888865503	 0.28715
H	 0.7099725324	-0.3856049578	-0.7727476352	 0.0928
H	 1.0031573548	-0.8565588956	 1.9131387035	 0.084332
H	-2.866548829	 0.3600551365	 1.4729097306	 0.07975
H	-2.0201497785	-2.1615219092	 2.6043202019	 0.073023
H	-3.9295586882	-2.3782036313	 1.2979631715	 0.287749
H	-0.3442358111	-2.7121982735	 0.2784859755	 0.085948
H	-1.97464551	-0.6617940784	-0.9932084639	 0.087568
181.7255	197.0596	309.2772	322.3099	357.6155	483.9928	496.6057	531.2107	631.1263	722.6577	757.9074	806.1313	812.6851	850.8775	891.967	915.1776	956.3796	963.5596	979.5634	1025.1361	1041.1276	1064.9397	1113.5439	1133.3768	1140.7809	1152.5317	1176.0455	1211.9254	1217.5075	1234.1254	1267.2713	1270.7211	1303.8519	1311.0405	1335.7994	1419.2703	1441.8407	3017.8684	3086.5412	3128.8291	3141.5618	3154.9629	3175.6988	3762.0197	3812.3032
OC1C2OC3C(O)C2C13	O[C@H]1[C@H]2O[C@@H]3[C@@H](O)[C@H]2[C@H]13	
InChI=1S/C6H8O3/c7-3-1-2-4(8)5(1)9-6(2)3/h1-8H	InChI=1S/C6H8O3/c7-3-1-2-4(8)5(1)9-6(2)3/h1-8H/t1-,2-,3-,4+,5+,6+/m1/s1
