21
gdb 73411	2.51658	2.23527	1.54986	0.0988	83.94	-0.2338	0.0897	0.3235	944.6455	0.185201	-349.925275	-349.918254	-349.91731	-349.956099	30.112	
C	 0.0015976832	 1.4635429499	 0.0202304472	-0.485255
C	-0.0068552014	-0.0531024959	-0.0326935075	 0.358351
C	 0.4026868575	-0.6804087361	-1.3783508147	-0.267373
C	-0.2054299065	-2.116546432	-1.3530116732	-0.23314
C	-0.8955308233	-2.2026821105	 0.0141868871	-0.023435
C	 0.0436186578	-2.146940202	 1.2270202069	-0.082741
C	-0.693602884	-0.9915152743	 1.8607510089	-0.105016
C	 0.6352343784	-0.7314060408	 1.1932408655	-0.099431
C	-1.3232940338	-0.7634768176	 0.4405261679	-0.113651
H	 1.0087865843	 1.8612579673	-0.1527922867	 0.109773
H	-0.6574604502	 1.8893444822	-0.7453018999	 0.107641
H	-0.333474429	 1.8262162018	 0.9980508069	 0.114414
H	-0.0015912733	-0.0977789685	-2.2143339926	 0.088734
H	 1.4915955968	-0.6866660914	-1.4968177766	 0.092888
H	-0.9287319872	-2.2490703464	-2.1650435116	 0.091689
H	 0.5522517858	-2.8977016369	-1.4728169628	 0.09465
H	-1.671128965	-2.9660963291	 0.1044056717	 0.05874
H	 0.5616533993	-2.9636351366	 1.7145053484	 0.077884
H	-1.0384877989	-0.8276523778	 2.8706550108	 0.08499
H	 1.5886445368	-0.5024920213	 1.6548588004	 0.073732
H	-2.3054815073	-0.3535076538	 0.2099527137	 0.056555
164.7925	242.4256	268.3132	293.8102	361.5967	462.2777	564.8757	656.6461	678.4254	759.1557	775.9485	800.2515	817.0592	827.1885	852.8767	882.2112	897.2656	921.5227	942.8251	963.4533	995.0093	1018.7541	1029.4538	1033.7839	1041.798	1049.257	1121.873	1126.8363	1169.3551	1180.6673	1187.9308	1206.0309	1220.8264	1254.2047	1266.4847	1280.8718	1314.6866	1344.096	1348.0435	1372.7395	1410.8653	1481.8161	1491.3057	1496.986	1503.3656	3018.3662	3028.3302	3042.2108	3062.2625	3079.8013	3084.5802	3089.6504	3091.7136	3124.4284	3177.3442	3188.6625	3226.5025
CC12CCC3C4C(C14)C23	C[C@@]12CC[C@H]3[C@@H]4[C@@H]([C@H]14)[C@@H]23	
InChI=1S/C9H12/c1-9-3-2-4-5-6(7(4)9)8(5)9/h4-8H,2-3H2,1H3	InChI=1S/C9H12/c1-9-3-2-4-5-6(7(4)9)8(5)9/h4-8H,2-3H2,1H3/t4-,5+,6+,7-,8+,9-/m0/s1
