17
gdb 90648	3.8577	1.10367	1.06941	5.7367	74.74	-0.2399	0.0144	0.2542	1178.534	0.135329	-417.958321	-417.949997	-417.949053	-417.991016	31.616	
C	-0.2773079644	 1.2917150148	-0.0324939534	-0.334404
N	 0.1047999372	-0.0996254487	 0.123613292	-0.130209
C	 1.1221403631	-0.631675477	-0.8418049193	-0.202352
C	 1.9696846211	-1.1529221562	 0.3206038076	-0.155309
C	 1.0036726267	-0.4250774321	 1.2425992928	-0.076897
C	 1.0583997313	-1.9391573426	 1.2694699598	 0.299083
O	-0.0214794346	-2.6828677613	 0.8199605038	-0.469231
C	 1.7347995548	-2.5232303029	 2.4036333976	 0.249464
N	 2.2993332567	-2.9707570103	 3.3080284144	-0.337985
H	 0.5843786442	 1.9793754682	-0.0826943721	 0.10649
H	-0.8592894867	 1.4030087549	-0.9522468757	 0.134374
H	-0.9114323593	 1.5938321386	 0.8066908676	 0.134373
H	 0.7303053008	-1.3618763317	-1.5559602083	 0.125303
H	 1.6327393986	 0.177583492	-1.3751894129	 0.11816
H	 3.0465081486	-1.2489254153	 0.3444438643	 0.123718
H	 1.1349626472	 0.2190968683	 2.1039992301	 0.120841
H	-0.6599206053	-2.0150340187	 0.5118915616	 0.294582
121.2192	140.9508	163.034	230.1415	258.438	314.879	369.4628	459.7121	480.4983	535.3286	563.4902	606.8857	680.3413	727.729	838.0846	868.7612	901.4467	968.9423	976.8151	997.3827	1043.8511	1063.2022	1103.3064	1135.967	1181.0899	1200.8308	1225.114	1249.0788	1270.164	1309.4182	1374.508	1428.0939	1456.1462	1487.043	1502.4589	1504.41	2357.3274	2959.1691	3039.4014	3071.2375	3096.0885	3112.1811	3186.6508	3210.9885	3631.1588
CN1CC2C1C2(O)C#N	CN1C[C@H]2[C@@H]1[C@]2(O)C#N	
InChI=1S/C6H8N2O/c1-8-2-4-5(8)6(4,9)3-7/h4-5,9H,2H2,1H3	InChI=1S/C6H8N2O/c1-8-2-4-5(8)6(4,9)3-7/h4-5,9H,2H2,1H3/t4-,5+,6-/m0/s1
