15
gdb 22570	4.53228	1.06263	0.88423	2.6575	79.41	-0.245	-0.0707	0.1744	1235.4138	0.113722	-453.922667	-453.914948	-453.914004	-453.955103	29.091	
O	-0.0632422229	 1.3579122141	-0.0547064875	-0.38241
N	 0.0414771944	-0.031205406	-0.0805935848	-0.19708
C	-1.1039656757	-0.6077838369	-0.0269642723	 0.327176
C	-1.1037741796	-2.1127808828	 0.0314635123	-0.167257
O	-2.1870805066	-2.6911706009	-0.707426392	-0.261037
C	-3.4263546014	-2.1329931829	-0.5768485262	 0.382236
N	-4.4824085908	-2.7684829923	-0.8915382507	-0.512875
C	-3.5057401479	-0.732250334	-0.1489158752	-0.118463
C	-2.4120972515	 0.0198483109	 0.0542091892	-0.149796
H	 0.8585721791	 1.6358969216	-0.0849694557	 0.314949
H	-0.185038142	-2.5194945367	-0.3916442833	 0.14366
H	-1.180313576	-2.4386950045	 1.0789414809	 0.126673
H	-4.2419444618	-3.7157120278	-1.1921541681	 0.225441
H	-4.5102322699	-0.3338833223	-0.0778092219	 0.134426
H	-2.4724766675	 1.0779357903	 0.2742616251	 0.134357
75.6031	164.7983	221.2703	277.9379	308.2592	395.9626	418.2969	421.7878	530.264	579.2899	615.7533	716.2267	792.2027	800.4204	847.2282	910.6707	917.1083	987.6614	1016.9624	1023.1776	1054.8826	1125.171	1172.5586	1261.061	1288.6323	1331.5219	1387.3959	1418.697	1432.2009	1494.9555	1651.0727	1701.4798	1718.1101	3002.5567	3132.339	3212.2264	3228.5981	3465.7876	3817.9577
ON=C1COC(=N)C=C1	ON=C1COC(=C[CH]1)[NH]	
InChI=1S/C5H6N2O2/c6-5-2-1-4(7-8)3-9-5/h1-2,6,8H,3H2	InChI=1S/C5H6N2O2/c6-5-2-1-4(7-8)3-9-5/h1-2,6,8H,3H2
