20
gdb 99123	3.92821	0.80741	0.71426	1.7955	76.97	-0.2457	0.0147	0.2604	1627.0228	0.16933	-440.29855	-440.288223	-440.287279	-440.33582	36.057	
C	 0.097963375	 1.5867182705	-0.0556061452	-0.400674
C	 0.0826242675	 0.0750611272	 0.004363171	-0.041302
C	 1.3836764437	-0.7087250303	 0.0274397282	-0.314965
C	 0.499464705	-0.6619577748	 1.2401325226	 0.134362
O	 0.9208273955	 0.1393956772	 2.3319389413	-0.244797
C	 1.3367419144	-0.5135407796	 3.4391029126	 0.417978
O	 1.3520332162	-1.7117129869	 3.5602894208	-0.357036
C	 1.7723917203	 0.4790362316	 4.5143674042	-0.275718
N	 2.2118637496	-0.1171324802	 5.7627875665	-0.486063
H	 0.9155308432	 1.9983121889	 0.5409998219	 0.126542
H	 0.2207341521	 1.931861866	-1.0873755082	 0.119175
H	-0.8372491567	 2.0062591301	 0.3303172008	 0.120338
H	-0.7364392418	-0.3887652693	-0.5393220826	 0.09279
H	 1.4636044738	-1.641137915	-0.5201434821	 0.119963
H	 2.299362458	-0.1284360079	 0.0750031968	 0.120115
H	-0.0246933857	-1.5555117641	 1.554655399	 0.121831
H	 2.5738819527	 1.0979446385	 4.0933435566	 0.136994
H	 0.9380991196	 1.1653763202	 4.699857515	 0.138775
H	 1.4603143539	-0.689697615	 6.1376941088	 0.235506
H	 2.9616513939	-0.7751769872	 5.5674730622	 0.236187
23.7059	46.8788	86.4138	110.8767	187.7705	208.8088	213.4074	289.1721	327.2706	376.1878	468.8918	530.1757	581.2659	699.4659	762.2659	827.3434	862.2587	897.0903	919.3317	925.0211	952.7291	996.2829	1035.6102	1070.839	1109.7763	1134.7263	1152.362	1171.9443	1178.1743	1196.483	1214.0765	1241.7376	1363.2481	1381.4335	1388.9007	1413.8149	1422.1312	1456.1599	1484.8548	1493.3133	1505.2845	1678.9627	1822.82	3037.2587	3041.5644	3077.6123	3096.3221	3119.4381	3133.5618	3142.242	3193.9494	3223.1778	3493.0089	3559.8779
CC1CC1OC(=O)CN	C[C@H]1C[C@H]1OC(=O)CN	
InChI=1S/C6H11NO2/c1-4-2-5(4)9-6(8)3-7/h4-5H,2-3,7H2,1H3	InChI=1S/C6H11NO2/c1-4-2-5(4)9-6(8)3-7/h4-5H,2-3,7H2,1H3/t4-,5+/m0/s1
