20
gdb 58826	3.17275	1.33524	1.12814	1.6659	78.24	-0.2192	0.0695	0.2887	1145.8256	0.170053	-403.058299	-403.049697	-403.048753	-403.091314	33.869	
C	 0.0064515832	 1.5048256251	 0.0790803301	-0.416521
C	-0.034590203	-0.0189327968	-0.0314170516	 0.033979
O	 0.7985997167	-0.655176848	 0.9318543509	-0.427248
C	-1.4525999387	-0.5347101654	 0.0449478634	 0.377129
C	-2.1348282417	-1.0145786343	 1.2941859055	-0.367234
C	-2.0139794146	-1.9332142933	 0.1009838302	-0.140988
C	-2.9394378378	-1.5234961918	-1.0575943421	-0.03056
C	-3.7675144576	-0.3267974746	-0.8120012722	-0.253315
N	-2.3375974878	-0.1429233734	-1.1361352775	-0.189426
H	 1.0308383926	 1.8691974731	-0.0371074606	 0.119476
H	-0.6224118918	 1.9562360036	-0.6930419785	 0.144016
H	-0.3731042296	 1.8308546792	 1.0559771004	 0.103654
H	 0.3747835592	-0.3135507452	-1.0053331627	 0.096825
H	 0.6703991085	-0.2000942525	 1.7709616537	 0.280005
H	-1.4296509423	-1.2695402207	 2.0788552367	 0.114835
H	-3.0806919137	-0.6387457527	 1.6681014918	 0.109959
H	-1.4881366141	-2.877389906	 0.1434850346	 0.102624
H	-3.0411714937	-2.1252917988	-1.955295045	 0.099823
H	-4.403805329	 0.000879662	-1.6297527075	 0.122672
H	-4.1559063747	-0.0804227697	 0.1691482205	 0.120298
67.8053	143.2545	201.1815	263.0742	287.574	304.1762	325.8793	439.7862	455.9686	477.5242	542.006	668.4	703.7278	747.9192	802.9444	829.2688	893.3064	914.1213	939.6353	956.6949	974.1446	1014.1352	1045.2567	1051.2221	1063.8483	1067.2823	1089.1317	1108.2052	1123.5341	1141.846	1166.6847	1224.8729	1271.4215	1304.0209	1352.1511	1359.9538	1393.8011	1397.5122	1411.1481	1476.899	1492.4198	1498.3057	1518.9721	3023.8944	3039.558	3100.2766	3120.6719	3127.7432	3134.2035	3157.1641	3202.4635	3207.3556	3213.8618	3806.354
CC(O)C12CC1C1CN21	C[C@@H](O)[C@]12C[C@H]1[C@H]1CN21	
InChI=1S/C7H11NO/c1-4(9)7-2-5(7)6-3-8(6)7/h4-6,9H,2-3H2,1H3	InChI=1S/C7H11NO/c1-4(9)7-2-5(7)6-3-8(6)7/h4-6,9H,2-3H2,1H3/t4-,5+,6-,7-,8?/m1/s1
