25
gdb 120907	3.04311	0.89175	0.80281	0.2068	93.1	-0.2451	0.0832	0.3283	1600.3709	0.228981	-352.334287	-352.324345	-352.323401	-352.369388	37.85	
C	 0.4826647499	 1.4053043389	 0.0166572828	-0.38046
C	 0.2705537765	-0.0975547211	 0.2177359526	-0.159113
C	-1.191545212	-0.5306456979	 0.0493110764	-0.198713
C	-1.392691663	-2.0332149642	 0.2388956911	 0.044731
C	-1.2515172282	-2.7079075948	 1.648890761	-0.263413
C	-2.5932171394	-3.422292941	 1.4245137787	-0.074364
C	-3.7235517841	-2.4472416883	 1.2514661027	 0.019899
C	-3.9386666165	-1.1810938922	 2.0569615227	-0.418511
C	-2.7824902556	-2.6738590184	 0.0926757276	-0.115892
H	 1.5340157831	 1.6830952977	 0.1423882317	 0.109005
H	 0.1735774218	 1.7173115181	-0.9873611147	 0.112353
H	-0.1036864	 1.9876495834	 0.7362815146	 0.112394
H	 0.8956353552	-0.6546195802	-0.4931703991	 0.091298
H	 0.6209698831	-0.3863661393	 1.2174959793	 0.096912
H	-1.8185761393	 0.0354660012	 0.7471636587	 0.093769
H	-1.5370244502	-0.2540343808	-0.9571656674	 0.088519
H	-0.7111770007	-2.5521879743	-0.4462612516	 0.06988
H	-0.4008131656	-3.3896369349	 1.709121068	 0.099146
H	-1.2069383338	-2.0347587607	 2.512017035	 0.091927
H	-2.7696764508	-4.4696176064	 1.6408099288	 0.078704
H	-4.6603905756	-2.9723939108	 1.065916299	 0.081792
H	-3.0048606826	-0.7328734171	 2.401808707	 0.120967
H	-4.4743921463	-0.4246068225	 1.4727595517	 0.114619
H	-4.5403563765	-1.3991813209	 2.946791337	 0.110445
H	-3.1639037395	-3.0624055734	-0.8460253738	 0.074105
69.7288	81.5565	105.7044	174.8086	232.795	242.0391	251.8027	311.3025	327.3299	391.4918	462.6705	591.2255	697.8899	713.2502	741.7321	787.5113	829.0896	859.0535	883.1201	903.5051	951.1081	974.302	993.1154	1007.2215	1028.2536	1050.2345	1061.6777	1068.2218	1099.7844	1121.9295	1136.1664	1150.9081	1199.0246	1218.4503	1240.1862	1260.9424	1270.0335	1292.868	1312.2171	1327.612	1353.889	1379.7813	1399.4005	1412.3823	1414.2537	1447.9794	1478.6253	1490.2291	1492.8208	1499.8969	1502.6978	1506.0876	1510.8627	3006.9471	3014.1083	3021.0429	3027.5803	3030.7392	3040.2563	3042.7515	3070.9278	3084.8834	3094.4088	3098.991	3103.6543	3105.3495	3127.9265	3155.5925	3175.1876
CCCC1CC2C(C)C12	CCC[C@H]1C[C@H]2[C@@H](C)[C@@H]12	
InChI=1S/C9H16/c1-3-4-7-5-8-6(2)9(7)8/h6-9H,3-5H2,1-2H3	InChI=1S/C9H16/c1-3-4-7-5-8-6(2)9(7)8/h6-9H,3-5H2,1-2H3/t6-,7+,8+,9+/m1/s1
