16
gdb 37190	3.5658	1.75814	1.63329	2.6852	66.55	-0.2398	0.055	0.2948	851.4345	0.126448	-437.746935	-437.741043	-437.740099	-437.776847	25.321	
C	 0.0957006017	 1.5118300191	 0.1962222747	-0.16658
O	 1.5089350875	 1.4352163533	-0.1682050338	-0.29671
C	 1.2871510088	 0.2076558523	-0.9066076085	 0.152457
C	 1.5178784854	-1.2091265568	-0.3384822656	-0.12756
N	 0.7748737099	-0.7623900708	 0.8804234778	-0.325538
C	-0.0391980331	 0.0318257496	-0.1501868207	 0.211508
C	-0.7906175183	-1.0610619588	-0.9165469302	-0.089737
O	-0.2565276919	-1.2976848789	-2.2332804843	-0.239457
C	 0.3595958325	-1.9635062104	-1.1189093921	 0.034949
H	-0.0439616199	 1.7821542086	 1.2453495251	 0.120805
H	-0.4463753281	 2.1991937485	-0.465014909	 0.109001
H	 1.3629422412	 0.3591001549	-1.9795937127	 0.109228
H	 2.4662824677	-1.7360044522	-0.2177803749	 0.076181
H	 0.2226940487	-1.5204998725	 1.2857762779	 0.207152
H	-1.8151982955	-1.3721248146	-0.7446932818	 0.111096
H	 0.3059431635	-3.0481938313	-1.121777962	 0.113206
276.2717	301.0109	402.8507	413.0467	467.9558	569.9723	600.7477	730.3841	746.8211	796.1045	823.4561	834.3772	881.9202	898.0843	912.4897	943.2402	955.7315	980.6816	1019.4054	1066.2518	1072.0636	1094.266	1113.0686	1155.8714	1172.4553	1206.0985	1216.0372	1254.3551	1270.2283	1290.3841	1303.6984	1339.7968	1360.1613	1379.0405	1498.6339	3027.018	3098.356	3110.103	3154.0443	3161.3747	3178.6787	3427.8481
C1OC2C3NC12C1OC31	C1O[C@H]2[C@H]3N[C@@]12[C@H]1O[C@@H]31	
InChI=1S/C6H7NO2/c1-6-4(8-1)2(7-6)3-5(6)9-3/h2-5,7H,1H2	InChI=1S/C6H7NO2/c1-6-4(8-1)2(7-6)3-5(6)9-3/h2-5,7H,1H2/t2-,3-,4-,5-,6-/m0/s1
