16
gdb 127539	4.93872	1.24264	1.012	1.5981	72.87	-0.2397	-0.0121	0.2276	1137.2722	0.126645	-434.057691	-434.049971	-434.049026	-434.09098	27.254	
C	-0.0298291581	 1.4116990036	 0.0096827584	-0.31051
N	-0.0386831047	-0.0363502144	 0.0019125954	 0.126343
N	-0.0035038136	-0.7362725494	-1.1417911761	-0.339728
C	 0.0622442077	-1.987690483	-0.7031916002	 0.269038
C	 0.1119043551	-3.3843004703	-1.2222439269	-0.17599
O	 0.1601084597	-4.1818935844	-0.0214445517	-0.287104
C	 0.1238007168	-3.3973217141	 1.1883217129	-0.175984
C	 0.0690947109	-1.9951903043	 0.6849014974	 0.268965
N	 0.0077246704	-0.7485858853	 1.1376133718	-0.339582
H	 0.9952597296	 1.7961529844	 0.0029289918	 0.149211
H	-0.5537003966	 1.7630554585	-0.8792413792	 0.160559
H	-0.5382128864	 1.7528678539	 0.9114351999	 0.160662
H	-0.773227719	-3.6634266247	-1.8094866522	 0.123292
H	 1.0018101356	-3.5935453795	-1.8305848225	 0.12377
H	-0.7554988262	-3.6828429091	 1.7812236561	 0.12329
H	 1.0196641487	-3.6130677321	 1.7855464951	 0.123768
59.6809	66.2211	148.7178	253.8776	267.5721	294.903	519.106	549.334	651.9424	699.5564	733.0514	772.7128	880.7045	891.5477	1001.4627	1015.1218	1038.1645	1066.3778	1069.0751	1145.4408	1164.0975	1201.0814	1212.0628	1312.013	1333.2846	1352.3193	1376.7051	1443.6242	1471.8194	1484.7267	1503.6926	1515.0886	1524.3096	1539.202	1590.39	3004.6957	3010.2038	3033.0694	3035.8518	3050.9634	3132.5872	3174.3212
CN1N=C2COCC2=N1	Cn1nc2COCc2n1	
InChI=1S/C5H7N3O/c1-8-6-4-2-9-3-5(4)7-8/h2-3H2,1H3	InChI=1S/C5H7N3O/c1-8-6-4-2-9-3-5(4)7-8/h2-3H2,1H3
