17
gdb 35995	6.11163	0.53325	0.52011	1.5109	83.32	-0.2508	0.0388	0.2896	2080.901	0.132922	-384.598031	-384.58829	-384.587345	-384.635132	33.917	
C	-0.2058113511	-0.8941652444	 0.8407235055	-0.446729
C	-0.0488788701	 0.1112152257	 0.2036826464	 0.317779
C	 0.1264849661	 1.3373620694	-0.5778752244	-0.490957
C	 1.4885730673	 1.8728173321	-0.5351236966	 0.105949
C	 2.6060706046	 2.316506737	-0.5131599636	 0.060418
C	 3.9555293373	 2.8696554425	-0.4568879525	-0.379896
C	 4.046111375	 4.1186449438	 0.4036946307	 0.10967
C	 5.0437972543	 5.1599814981	 0.1364195876	-0.181363
O	 3.6694932437	 5.3474884817	-0.2105056055	-0.224794
H	-0.3393900918	-1.7832355814	 1.4055391016	 0.199695
H	-0.1591744202	 1.144572014	-1.6212732689	 0.161299
H	-0.5778036453	 2.0996920669	-0.2169934666	 0.162926
H	 4.6460636769	 2.11520127	-0.0556142675	 0.135231
H	 4.3074641286	 3.1164400461	-1.4658346531	 0.135855
H	 3.6820447786	 3.9985843746	 1.4244344871	 0.103653
H	 5.4130254723	 5.780839783	 0.951174468	 0.117397
H	 5.7259521838	 5.0462608708	-0.7056188782	 0.113867
13.5043	54.3769	89.7694	102.5761	245.5362	255.046	320.9628	342.2899	377.6715	383.799	488.6663	569.1784	621.7191	647.9749	784.0813	799.389	861.5492	932.948	938.1773	944.3181	963.9857	1094.7144	1107.9655	1158.1263	1161.7592	1169.3275	1229.869	1247.02	1293.9131	1320.9216	1335.825	1438.7228	1452.0932	1453.4725	1530.625	2247.0624	2379.9626	3008.5662	3016.7403	3032.5799	3058.3799	3082.4061	3111.774	3169.0418	3507.4991
C#CCC#CCC1CO1	C#CCC#CC[C@H]1CO1	
InChI=1S/C8H8O/c1-2-3-4-5-6-8-7-9-8/h1,8H,3,6-7H2	InChI=1S/C8H8O/c1-2-3-4-5-6-8-7-9-8/h1,8H,3,6-7H2/t8-/m0/s1
