24
gdb 11616	4.89351	0.82084	0.74516	0.0479	86.1	-0.2689	0.0868	0.3557	1623.7947	0.222456	-314.270592	-314.260672	-314.259728	-314.305894	36.585	
C	-0.047478961	 1.4654043002	-0.2314856468	-0.387913
C	 0.0301683382	-0.0423914068	 0.0452324146	 0.04321
C	 0.7984223678	-0.3098842786	 1.3475619408	-0.380138
C	-1.3789120325	-0.6627607615	 0.0519260563	-0.155768
C	-1.4187510379	-2.1959367059	 0.1214888945	-0.217446
C	-2.824756006	-2.7531272503	 0.0322075838	 0.039645
C	-3.4723193019	-2.9850531749	-1.3105729473	-0.254561
C	-3.066770124	-4.1594711318	-0.4517141112	-0.277563
H	 0.9508334679	 1.9133589633	-0.2787776704	 0.10677
H	-0.5543575213	 1.6725484145	-1.1799296398	 0.107791
H	-0.6035111812	 1.980440183	 0.5613443475	 0.109924
H	 0.5929746185	-0.5056347399	-0.7790365116	 0.067553
H	 0.2651557771	 0.1132702638	 2.2079014949	 0.108964
H	 0.9357662369	-1.3788867634	 1.5340843427	 0.113369
H	 1.7921940427	 0.1494594312	 1.3171028975	 0.107817
H	-1.9482199761	-0.2461025067	 0.8959698767	 0.085929
H	-1.9094251799	-0.3438978412	-0.8548371572	 0.091407
H	-0.8156929862	-2.6129089265	-0.6974190692	 0.086663
H	-0.9521384113	-2.5448610024	 1.0513484406	 0.096936
H	-3.4908670992	-2.4062416321	 0.8193448449	 0.077708
H	-4.5292314012	-2.7708012377	-1.4254545487	 0.107814
H	-2.8812684806	-2.7809057707	-2.1980666637	 0.10678
H	-2.2053741156	-4.7409901854	-0.7646513309	 0.107352
H	-3.8470070032	-4.7453377601	 0.0218118419	 0.107758
47.3023	68.9296	122.3522	132.6498	220.8702	246.2343	256.0192	303.6896	369.6357	408.4081	435.4615	469.7466	756.3234	774.9769	817.2143	822.6589	843.7069	914.3677	925.4565	927.4923	965.0822	969.901	1001.8326	1047.5746	1056.194	1076.9012	1079.9283	1137.1445	1147.1409	1191.8219	1198.445	1207.1788	1228.1701	1252.0786	1284.2226	1323.999	1347.7187	1369.4325	1389.3772	1400.7303	1416.0768	1422.9623	1468.4003	1477.0097	1488.3075	1491.4362	1498.6173	1504.9851	1508.6329	1510.6553	2989.048	3000.3287	3010.633	3021.2239	3026.6307	3033.7114	3056.9047	3084.8589	3091.3544	3096.1255	3104.8553	3125.643	3127.0078	3131.9008	3202.9861	3218.33
CC(C)CCC1CC1	CC(C)CCC1CC1	
InChI=1S/C8H16/c1-7(2)3-4-8-5-6-8/h7-8H,3-6H2,1-2H3	InChI=1S/C8H16/c1-7(2)3-4-8-5-6-8/h7-8H,3-6H2,1-2H3
