19
gdb 82922	2.51599	1.79754	1.40658	2.1269	74.05	-0.222	0.0742	0.2962	993.0864	0.158823	-422.98919	-422.980937	-422.979993	-423.021645	32.397	
C	-0.1548856792	 1.5232011751	-0.1165302417	-0.403159
C	 0.021845995	 0.0336765104	 0.0779156364	-0.061621
C	 1.3394248792	-0.6771690627	-0.1043452562	 0.087203
O	 2.5247401732	 0.0944374759	-0.1753883893	-0.259129
C	 2.7541627174	 0.6433627873	 1.0996089408	 0.060954
C	 3.0582617384	-0.2907733272	 2.2573834431	-0.38747
C	 1.6656699371	 0.284676893	 2.0575042459	 0.365647
O	 1.1648942046	 1.2477799849	 2.9341801176	-0.473809
C	 0.7287055004	-0.5978384087	 1.2732120949	-0.190966
H	 0.7284450583	 2.0862837145	 0.1862172814	 0.138206
H	-0.348589747	 1.7473998274	-1.1709377918	 0.113921
H	-1.0013326623	 1.894421903	 0.4696595442	 0.11944
H	-0.8258717133	-0.5572968749	-0.2632734822	 0.085443
H	 1.4087586371	-1.5934287767	-0.679598429	 0.097626
H	 3.2014736571	 1.62983115	 1.0743505748	 0.111872
H	 3.2308671461	-1.343029519	 2.0584949577	 0.116914
H	 3.6461324416	 0.140881499	 3.0606944307	 0.116065
H	 0.9013630172	 0.8018489394	 3.7467393609	 0.281283
H	 0.2915555692	-1.4670486008	 1.7568434618	 0.081579
113.7769	137.1062	171.9074	249.9723	279.6561	338.1433	363.5231	443.102	516.6755	563.5277	599.4806	711.1336	752.8561	777.073	826.261	852.8651	888.386	934.6266	952.271	983.7942	1000.2408	1015.714	1060.719	1069.3865	1077.4173	1102.0758	1132.0465	1135.4552	1156.9082	1220.8961	1233.2883	1252.3396	1309.3766	1344.6618	1371.0415	1405.2611	1424.6089	1425.7785	1476.1982	1488.7893	1499.8241	3041.5777	3097.8115	3121.4997	3128.6108	3138.6992	3147.2737	3174.244	3188.8742	3225.6673	3792.9376
CC1C2OC3CC3(O)C12	C[C@H]1[C@H]2O[C@@H]3C[C@]3(O)[C@@H]12	
InChI=1S/C7H10O2/c1-3-5-6(3)9-4-2-7(4,5)8/h3-6,8H,2H2,1H3	InChI=1S/C7H10O2/c1-3-5-6(3)9-4-2-7(4,5)8/h3-6,8H,2H2,1H3/t3-,4-,5+,6-,7-/m1/s1
