17
gdb 50636	2.95438	1.26417	1.02555	1.7972	70.67	-0.2318	-0.0421	0.1897	1163.0203	0.136665	-455.152739	-455.14433	-455.143385	-455.187138	30.479	
N	 0.3625588964	 1.2692298751	 0.6637550702	-0.520823
C	 0.2383897222	 0.0925229568	 0.1832067952	 0.328597
C	 1.379315556	-0.8923633797	-0.0439814538	-0.168535
O	 1.1251657898	-1.8502474855	-1.0556044763	-0.247019
C	-0.0910745167	-2.5327274853	-0.8240879912	-0.088443
C	-1.2636355066	-1.5511397632	-0.9335489386	-0.082169
N	-1.017661114	-0.4110906197	-0.0755404826	-0.304566
C	-1.475947324	-1.1621607799	-2.4069818602	 0.147057
O	-1.8100383458	-1.9528314522	-3.2476913989	-0.238514
H	 1.341904778	 1.4848579576	 0.8435630638	 0.213935
H	 2.2745157689	-0.3445525896	-0.3457532458	 0.131948
H	 1.5910610329	-1.3971368595	 0.9142859442	 0.118784
H	-0.1869773532	-3.3031298741	-1.5913407925	 0.141922
H	-0.0924426417	-3.0047772173	 0.1706034333	 0.103306
H	-2.176468315	-2.0677273039	-0.6102661144	 0.119953
H	-1.756631751	 0.2686445262	 0.04090797	 0.249191
H	-1.3040341161	-0.086038846	-2.6363989125	 0.095377
35.8914	65.2623	109.1455	224.2057	322.9419	383.9784	411.1949	438.4289	477.9502	558.2699	567.5807	629.1902	762.51	811.6117	847.511	866.3511	933.8402	981.4755	1005.4226	1046.5788	1088.2369	1121.0419	1141.5958	1195.6804	1247.5007	1276.0198	1311.9936	1337.6678	1366.5763	1395.3133	1406.065	1435.4427	1469.4101	1479.3795	1494.5687	1719.4161	1835.8414	2881.4672	2964.967	2990.0901	3034.4663	3109.6997	3123.0798	3492.4019	3591.6605
N=C1COCC(N1)C=O	[NH][C]1COC[C@@H](N1)C=O	
InChI=1S/C5H8N2O2/c6-5-3-9-2-4(1-8)7-5/h1,4H,2-3H2,(H2,6,7)	InChI=1S/C5H8N2O2/c6-5-3-9-2-4(1-8)7-5/h1,4H,2-3H2,(H2,6,7)/t4-/m0/s1
