20
gdb 113765	3.89432	0.8369	0.74527	2.4413	78.52	-0.2366	-0.0415	0.1951	1550.2287	0.16825	-440.257884	-440.24798	-440.247036	-440.293512	35.578	
C	-0.3662517752	 1.627423448	-0.8506098423	-0.381761
C	-0.5344108679	 0.122060022	-0.660380254	-0.115076
N	 0.5327131491	-0.5922649033	-1.3567821048	-0.07577
C	 1.7274533439	-0.9552724275	-0.6112367668	-0.267223
C	 0.7766742327	-2.0041925821	-1.0930150796	-0.013089
C	-0.0527091646	-2.8129722592	-0.1042139579	 0.030136
O	-1.2529187219	-3.2452818891	-0.6843478399	-0.438118
C	 0.7585352489	-4.0004634571	 0.3789100161	 0.132388
O	 0.3764494255	-5.1348802063	 0.221036611	-0.258966
H	 0.5784561273	 1.9739643569	-0.4186981436	 0.1168
H	-0.3646828979	 1.8820467271	-1.9138603849	 0.129782
H	-1.1811412712	 2.1695067307	-0.3612461637	 0.113624
H	-0.5663715134	-0.105629976	 0.4186713454	 0.081499
H	-1.4859343455	-0.2138087182	-1.0863558568	 0.124852
H	 2.6813610266	-0.8008917482	-1.1081754578	 0.120961
H	 1.7379318711	-0.750903021	 0.4608517646	 0.104187
H	 1.0250117674	-2.5732083749	-1.9880369068	 0.104118
H	-0.2519086943	-2.1954086391	 0.788748446	 0.093298
H	-1.2421095951	-4.2137060122	-0.6182301707	 0.295104
H	 1.7212208544	-3.7684517306	 0.8760441665	 0.103254
46.2181	82.5169	93.6986	154.7422	193.4638	239.7463	284.7385	330.6693	353.6248	382.79	436.7667	477.4557	570.2143	734.5127	764.4931	814.0624	817.0882	893.8222	915.5148	968.5255	1009.5182	1044.3056	1084.355	1102.6498	1121.8525	1134.0035	1151.7695	1172.5841	1197.1235	1250.3782	1300.6428	1314.6071	1338.6292	1387.1521	1389.8274	1403.5837	1410.7129	1434.6691	1488.54	1489.5105	1504.06	1516.2959	1809.7993	2939.7096	2950.7428	2968.2069	3039.4974	3067.9003	3074.6905	3109.005	3113.8026	3122.2128	3170.6206	3685.713
CCN1CC1C(O)C=O	CCN1C[C@H]1[C@@H](O)C=O	
InChI=1S/C6H11NO2/c1-2-7-3-5(7)6(9)4-8/h4-6,9H,2-3H2,1H3	InChI=1S/C6H11NO2/c1-2-7-3-5(7)6(9)4-8/h4-6,9H,2-3H2,1H3/t5-,6-,7?/m0/s1
