16
gdb 23304	2.96375	1.30397	0.96016	2.1182	78.22	-0.2314	-0.0453	0.1861	1196.5811	0.1235	-437.835437	-437.827393	-437.826449	-437.867966	30.494	
C	-0.0336224904	 1.4934714607	 0.0956694207	-0.499669
C	-0.0123058519	 0.0068492273	-0.0232702446	 0.323349
C	 0.0462097628	-0.7373133753	-1.1452015893	-0.282359
C	 0.0364262112	-2.1669370157	-0.8181809178	 0.413514
N	-0.0079785863	-3.2074466114	-1.5613163651	-0.242786
O	-0.0097092783	-2.8731378267	-2.9183331814	-0.383062
C	 0.0418305074	-2.2822057793	 0.6759996932	-0.061908
O	 1.1961810644	-1.6835112265	 1.2921523893	-0.253691
C	-0.0110857803	-0.9017851739	 1.1786099939	-0.068888
H	 0.8443576121	 1.8538376419	 0.6466454667	 0.144781
H	-0.0475734722	 1.9766492856	-0.8842174609	 0.133648
H	-0.9137121736	 1.8310753854	 0.6575422668	 0.134471
H	 0.1202625022	-0.3635411223	-2.1568271044	 0.12274
H	-0.0464857918	-3.7368451396	-3.3431187745	 0.310915
H	-0.3738852057	-3.1497251072	 1.176143281	 0.109664
H	-0.4717756897	-0.6117696831	 2.1186662463	 0.099283
127.3782	172.0177	180.4694	189.3857	294.0993	336.4591	392.0894	439.2117	496.6735	566.0048	582.073	697.3218	724.9009	827.5755	852.9969	891.6451	895.4752	906.8878	992.6129	1006.9542	1027.7552	1060.0663	1090.3132	1178.2283	1231.9262	1242.6772	1297.9509	1337.8143	1385.584	1410.4404	1421.3585	1475.7854	1482.4819	1662.5482	1729.1491	3020.0059	3067.005	3120.0554	3157.4059	3185.6649	3235.8898	3817.699
CC1=CC(=NO)C2OC12	CC1=CC(=NO)[C@H]2O[C@@H]12	
InChI=1S/C6H7NO2/c1-3-2-4(7-8)6-5(3)9-6/h2,5-6,8H,1H3	InChI=1S/C6H7NO2/c1-3-2-4(7-8)6-5(3)9-6/h2,5-6,8H,1H3/t5-,6+/m0/s1
