16
gdb 20305	5.12228	1.3666	1.34596	2.9081	64.48	-0.2405	0.0732	0.3138	953.0565	0.130646	-383.659199	-383.652352	-383.651407	-383.690804	25.677	
C	-0.223296737	 1.1750689335	-0.4062889921	-0.186958
O	 0.8743372057	 1.5009822198	 0.4471465568	-0.239095
C	 0.58168402	 0.1161034702	 0.2156921656	 0.071794
C	 0.0958829088	-0.648082976	 1.4010967018	-0.058629
C	-0.3834056241	-2.0942225751	 1.3710964098	-0.156414
C	 0.5130944357	-2.9302157061	 0.4640448741	-0.093535
O	 1.7106564833	-2.4261482887	 1.1176841575	-0.283311
C	 0.9058428913	-1.719557598	 2.0678181487	 0.07525
H	-1.2107920605	 1.4026212269	-0.0052574327	 0.108955
H	-0.0873042527	 1.414224801	-1.4604611618	 0.113509
H	 1.3251163551	-0.3947370638	-0.3931647113	 0.110514
H	-0.4752803572	-0.043163387	 2.1018730039	 0.101826
H	-1.3420754984	-2.397989898	 1.7688224374	 0.102498
H	 0.4131826288	-4.0072940642	 0.6375422172	 0.114723
H	 0.5032919299	-2.7278691399	-0.6129088448	 0.109416
H	 1.2228284211	-1.7261180746	 3.1042652901	 0.109456
63.4004	171.2439	174.5575	330.4603	344.0181	497.7471	592.5072	755.3161	789.4556	803.0872	854.174	859.0822	936.3195	962.4872	972.8821	994.3099	1012.0295	1052.2896	1062.552	1077.9183	1102.8373	1119.9667	1155.4567	1163.4116	1173.4095	1212.336	1257.1912	1295.6002	1306.3093	1326.923	1384.0841	1480.6033	1518.3498	1532.2276	3028.7621	3076.6398	3077.1053	3133.3395	3145.9155	3163.2404	3181.3216	3206.2592
C1OC1C1C2COC12	C1O[C@H]1[C@H]1[C@H]2CO[C@@H]12	
InChI=1S/C6H8O2/c1-3-5(4-2-7-4)6(3)8-1/h3-6H,1-2H2	InChI=1S/C6H8O2/c1-3-5(4-2-7-4)6(3)8-1/h3-6H,1-2H2/t3-,4-,5-,6-/m1/s1
