25
gdb 88948	2.76863	0.99306	0.92439	1.0039	89.85	-0.2323	0.0802	0.3125	1479.121	0.225221	-389.483995	-389.472855	-389.47191	-389.52037	41.891	
C	 0.5670167901	 1.5782636807	-0.218855025	-0.395413
C	 0.0844293793	 0.154062827	-0.054697393	-0.032059
C	 1.0792006916	-0.9788001641	 0.1093989006	-0.321865
C	 0.2023811554	-0.5520868235	 1.2667096759	 0.124619
O	 0.7365708149	 0.1898667944	 2.3167581728	-0.289663
C	 1.2196586275	-0.5128319958	 3.4801244066	 0.370134
C	 2.369230007	-1.4671806976	 3.1256111577	-0.407494
C	 1.7229516237	 0.6135627076	 4.3875920687	-0.399633
C	 0.074549069	-1.2736189357	 4.1676517733	-0.412379
H	 1.4198538654	 1.7782231438	 0.4333312443	 0.126539
H	 0.8687287121	 1.7723521085	-1.2538434262	 0.109952
H	-0.2208614603	 2.2935464072	 0.0412544478	 0.114866
H	-0.8116606149	-0.0861273708	-0.6213501351	 0.081047
H	 0.8906651922	-1.9317064965	-0.3746391162	 0.103422
H	 2.1255304469	-0.6990040742	 0.1674846771	 0.11321
H	-0.6156382396	-1.214926647	 1.5441174734	 0.080632
H	 3.1788526962	-0.9258995805	 2.6273983454	 0.114453
H	 2.7725563261	-1.9236376301	 4.0352018057	 0.10993
H	 2.0352667576	-2.2708870085	 2.4646566396	 0.121028
H	 0.9080644893	 1.3038445827	 4.6229877388	 0.11827
H	 2.121835231	 0.211052968	 5.3233448723	 0.107877
H	 2.5135550288	 1.1786925296	 3.8858958068	 0.116592
H	-0.2743908181	-2.1184407	 3.5668147971	 0.114029
H	 0.410115215	-1.6734451011	 5.1294434818	 0.112602
H	-0.7713587964	-0.6040717741	 4.3496561798	 0.119303
26.769	97.5499	132.2667	183.4051	195.4937	225.4358	255.9676	265.3634	287.1348	334.9794	347.0837	385.6511	421.8603	472.8759	511.4068	549.913	743.2133	761.1714	833.657	869.2392	897.1551	908.6455	920.0428	935.4831	955.3629	1006.3602	1030.2178	1039.3355	1048.7932	1078.9893	1110.5143	1150.8531	1180.6791	1197.3099	1221.5201	1246.9451	1252.3198	1276.2237	1377.0736	1393.5865	1394.4875	1413.6847	1418.3515	1423.0752	1470.2519	1480.4343	1483.129	1486.3203	1493.3078	1496.4963	1499.2188	1503.8058	1518.5845	3033.9694	3036.869	3038.8015	3046.0421	3090.3402	3102.7457	3107.9361	3110.7713	3114.927	3118.7128	3121.2098	3121.5409	3121.8952	3127.9684	3141.1042	3216.8886
CC1CC1OC(C)(C)C	C[C@H]1C[C@H]1OC(C)(C)C	
InChI=1S/C8H16O/c1-6-5-7(6)9-8(2,3)4/h6-7H,5H2,1-4H3	InChI=1S/C8H16O/c1-6-5-7(6)9-8(2,3)4/h6-7H,5H2,1-4H3/t6-,7+/m0/s1
