17
gdb 68181	4.23665	1.12396	1.0304	1.0242	84.34	-0.2188	-0.0276	0.1912	1172.215	0.135241	-384.628471	-384.620608	-384.619664	-384.660442	31.72	
O	-0.0935307317	 1.422794935	 0.0239597165	-0.481107
C	-0.016117023	 0.0361489504	 0.0155656305	 0.388132
C	 0.3366480203	-0.8361308844	 1.2805558127	-0.276084
C	-0.3595478003	-1.9293080558	 0.4058544354	-0.137334
C	-1.3331146507	-0.7945991563	-0.0605811632	-0.241768
C	 0.6086564016	-1.9810937431	-0.8013374125	 0.285204
C	 0.8273690432	-0.6780230534	-1.0524387946	-0.316453
C	 1.0888069969	-3.1449699255	-1.424759686	 0.078187
C	 1.4763014719	-4.1701221469	-1.9286343445	-0.359786
H	 0.799541321	 1.7805944987	 0.0714545471	 0.28164
H	 1.3912633427	-0.9809810381	 1.5263094781	 0.094912
H	-0.2444681792	-0.5497127406	 2.1618843884	 0.101689
H	-0.71206815	-2.8716234852	 0.8168875658	 0.079012
H	-2.0581022819	-0.5051820559	 0.7054709254	 0.103585
H	-1.8069993859	-0.8994702581	-1.0383760885	 0.103322
H	 1.4297400584	-0.2091112373	-1.8177378613	 0.112563
H	 1.8254452067	-5.0634905835	-2.3834983495	 0.184285
115.7968	142.5351	239.4253	333.0346	349.9063	392.6725	464.9888	517.4553	532.9973	557.8871	576.1094	631.5108	633.2351	660.3439	782.6832	809.656	839.3951	869.0254	914.5845	949.6611	991.4818	1003.4451	1050.4249	1085.455	1120.9986	1133.5319	1159.7041	1202.9676	1215.9658	1222.7222	1267.7501	1316.3527	1366.1985	1474.0729	1514.2653	1640.8436	2218.2926	3050.5193	3061.853	3122.8869	3131.8523	3155.4181	3233.3745	3503.3339	3807.3698
OC12CC(C1)C(=C2)C#C	O[C@@]12C[C@@H](C1)C(=C2)C#C	
InChI=1S/C8H8O/c1-2-6-3-8(9)4-7(6)5-8/h1,3,7,9H,4-5H2	InChI=1S/C8H8O/c1-2-6-3-8(9)4-7(6)5-8/h1,3,7,9H,4-5H2/t7-,8-
