14
gdb 27134	2.86075	1.34393	1.07352	2.292	66.13	-0.2195	0.0018	0.2213	1104.4735	0.101982	-470.026302	-470.018188	-470.017244	-470.059959	28.963	
O	 0.8657963377	 1.0919232235	-0.3165276545	-0.427175
C	 0.2914109858	-0.1098443987	-0.1421077629	 0.279084
C	-0.370077386	-0.8563364458	-1.065697553	 0.307741
N	-0.6647683657	-0.7006204484	-2.4041467198	-0.411317
C	 0.0418950837	-1.3148334923	-3.4232192514	 0.06778
N	 1.0310517811	-2.0795032491	-3.2054060948	-0.440989
O	-0.7894163723	-2.0068165557	-0.4013664763	-0.15598
C	-0.3448471613	-1.8566897245	 0.8477381873	 0.090033
N	 0.2983919181	-0.7508269745	 1.0768795723	-0.34349
H	 1.269030984	 1.3310517243	 0.5268978246	 0.307689
H	-1.4727599725	-0.1589612483	-2.6669699708	 0.256124
H	-0.3668475577	-1.0490110664	-4.4060901142	 0.092596
H	 1.4182992835	-2.4150107548	-4.0840240596	 0.22464
H	-0.5531240684	-2.6522351592	 1.5463036729	 0.153264
39.1791	106.1275	150.4376	263.6919	307.9341	348.8394	363.1667	382.4979	502.4228	619.1573	640.2895	721.7465	742.6586	809.0539	838.3551	858.9188	956.8245	1047.2373	1060.6951	1081.5895	1161.007	1206.7349	1241.1621	1322.7517	1355.5555	1404.8822	1428.9672	1512.2656	1546.917	1737.7576	1751.9987	3042.937	3270.1073	3519.8363	3614.9742	3806.3977
OC1=C(NC=N)OC=N1	Oc1c(NC=N)ocn1	
InChI=1S/C4H5N3O2/c5-1-6-4-3(8)7-2-9-4/h1-2,8H,(H2,5,6)	InChI=1S/C4H5N3O2/c5-1-6-4-3(8)7-2-9-4/h1-2,8H,(H2,5,6)
