20
gdb 105918	3.23407	1.61952	1.39667	1.3995	81.14	-0.2155	0.0792	0.2947	1011.3912	0.172214	-365.923792	-365.916412	-365.915468	-365.955628	29.985	
C	-0.1383944231	 1.4981478714	-0.0281052968	-0.38196
C	 0.1311667513	-0.0121557774	-0.0408436604	-0.31235
C	 0.7783478569	-0.4866083195	-1.3051437355	 0.402635
C	 0.0709741481	-0.8216823333	-2.6256000915	-0.129785
C	 0.9160114102	-1.8602024577	-1.8964790705	-0.194211
C	 2.1211501388	-1.2661671552	-2.6531086214	-0.00455
C	 1.202137889	-0.4283127982	-3.6070275928	-0.076455
C	 1.8501328534	 0.8228966866	-2.9898637652	-0.189866
N	 2.1320925425	-0.0083330525	-1.7588680742	-0.196164
H	 0.7936442257	 2.0575514952	-0.1546563633	 0.132639
H	-0.8190459238	 1.7873228431	-0.8357164808	 0.11309
H	-0.5881371146	 1.8070667171	 0.9202414223	 0.110555
H	 0.775213159	-0.2741154672	 0.8077831684	 0.108227
H	-0.807179539	-0.5644415854	 0.0970245463	 0.097389
H	-1.0018886611	-0.783869397	-2.7593684937	 0.085998
H	 0.6843922857	-2.8404152344	-1.5021611078	 0.090292
H	 3.070179409	-1.7335852159	-2.9091668276	 0.07583
H	 1.0736699672	-0.6050268084	-4.6749381063	 0.066077
H	 2.798760288	 1.0959812742	-3.4629290038	 0.102728
H	 1.2416023869	 1.7169762944	-2.8247073655	 0.099881
79.0702	145.9497	214.1556	316.0619	348.9255	432.7141	546.2402	635.0996	741.3722	755.9657	767.7074	806.1681	821.6194	852.0138	861.2446	864.8903	897.9153	920.2885	930.1294	962.9591	995.6129	998.6815	1010.6467	1046.7635	1075.6847	1108.9412	1119.4524	1148.8255	1168.4135	1184.5883	1197.4679	1220.0405	1255.2329	1272.998	1280.3847	1308.4825	1349.969	1405.1611	1436.9109	1474.6559	1493.9826	1498.5252	1510.2403	3021.9507	3035.6159	3045.5894	3055.7834	3103.5346	3105.7885	3110.9599	3112.7215	3131.1667	3198.1799	3209.5818
CCC12C3C1C1C3CN21	CC[C@]12[C@@H]3[C@H]1[C@H]1[C@@H]3CN21	
InChI=1S/C8H11N/c1-2-8-5-4-3-9(8)7(4)6(5)8/h4-7H,2-3H2,1H3	InChI=1S/C8H11N/c1-2-8-5-4-3-9(8)7(4)6(5)8/h4-7H,2-3H2,1H3/t4-,5+,6+,7-,8+/m1/s1
