19
gdb 115552	2.68432	1.13858	1.09049	3.3983	77.05	-0.2466	0.0212	0.2678	1238.6551	0.158045	-419.186748	-419.177087	-419.176143	-419.221368	34.712	
C	 0.1673581731	 1.4132947029	 0.0712239688	-0.243636
O	-0.2339718456	 0.097256984	-0.2523233591	-0.243603
C	 0.594336757	-0.5189887209	-1.1927385601	 0.107398
C	 1.8790855252	-1.1903825226	-0.6335826808	-0.202092
N	 1.1891088785	-2.5016214411	-0.6613474556	-0.336375
C	 0.0892265441	-1.974353701	-1.5140592455	 0.127841
C	-1.3116835374	-2.36314113	-1.0515649232	-0.428077
C	 0.278237772	-2.2827714405	-2.9402626933	 0.241034
N	 0.4585354841	-2.5464109278	-4.0521936111	-0.343152
H	 1.163845636	 1.4382842273	 0.5352754761	 0.114747
H	 0.1819727368	 2.0584908677	-0.8201241419	 0.114265
H	-0.5623548112	 1.8041091856	 0.7831853007	 0.137023
H	 0.7402044762	 0.1252588615	-2.0685980302	 0.09025
H	 2.7340924174	-1.0984074559	-1.3146158122	 0.11061
H	 2.1811436889	-0.8767341858	 0.3705734586	 0.113778
H	 1.7140212997	-3.2726267899	-1.0590390634	 0.232692
H	-1.4347530394	-2.069337741	-0.0095452268	 0.146195
H	-2.0758815993	-1.8690646401	-1.6578628001	 0.131897
H	-1.4428493261	-3.4454036424	-1.1393474108	 0.129205
74.1505	103.5914	137.3947	186.8769	194.7925	214.4724	223.522	312.0416	368.203	415.7594	438.848	544.0217	593.3862	637.3948	708.1672	837.6859	902.8724	925.81	955.3938	1005.7975	1034.8	1069.7325	1141.2878	1159.7261	1175.0385	1176.2015	1183.7519	1214.6694	1235.6548	1258.1236	1314.6097	1382.171	1392.2203	1409.579	1480.5728	1482.7546	1485.1452	1489.1101	1505.0975	1508.75	2339.8593	2984.0018	3019.0569	3030.233	3036.8467	3053.0315	3078.8499	3123.6359	3126.3065	3162.2106	3540.7261
COC1CNC1(C)C#N	CO[C@H]1CN[C@]1(C)C#N	
InChI=1S/C6H10N2O/c1-6(4-7)5(9-2)3-8-6/h5,8H,3H2,1-2H3	InChI=1S/C6H10N2O/c1-6(4-7)5(9-2)3-8-6/h5,8H,3H2,1-2H3/t5-,6+/m0/s1
