20
gdb 75881	2.4038	1.54271	1.19653	3.6407	74.63	-0.2521	0.0248	0.2769	1112.4028	0.170909	-440.339733	-440.330538	-440.329594	-440.372988	35.42	
C	 0.4935372983	 1.3262373683	-0.0803577074	-0.421451
C	-0.0756879801	-0.1000921221	-0.0192138785	 0.243428
C	-1.6052947539	-0.0690275623	-0.0187580563	-0.447413
C	 0.4922425361	-0.9546762825	-1.1943341501	-0.2
N	 1.7585329798	-1.4560109825	-0.6718198578	-0.313666
C	 1.8643761694	-1.3633698629	 0.6771021151	 0.379082
O	 2.8273916267	-1.5957785714	 1.381994461	-0.402804
C	 0.513009926	-0.8629818563	 1.1934778921	 0.022192
O	 0.6671714526	-0.1148723638	 2.3678149722	-0.441018
H	 1.5848982581	 1.3217976818	-0.1652504507	 0.120381
H	 0.0873177187	 1.8607560214	-0.9452824355	 0.106443
H	 0.2358746074	 1.8776940606	 0.8257965448	 0.139657
H	-1.9923755401	 0.401413244	-0.9296332683	 0.112218
H	-2.0251476308	-1.0786162532	 0.0443286943	 0.112486
H	-1.9762461866	 0.5044402097	 0.8362594011	 0.134271
H	-0.1881977748	-1.7780094304	-1.4518893852	 0.106721
H	 0.6493879929	-0.3532409288	-2.0953322282	 0.11532
H	 2.5128028608	-1.7987493998	-1.2449418798	 0.256343
H	-0.112101149	-1.7548906218	 1.3835508776	 0.084097
H	 1.5326593085	-0.3746294082	 2.7207105594	 0.293714
93.4618	168.3629	210.3391	230.9596	262.112	266.7101	301.035	341.7189	373.3772	430.1491	466.4149	531.2428	539.8349	565.2167	675.974	716.1531	798.893	895.2829	912.333	942.3598	961.2044	1007.5135	1037.0766	1056.0754	1144.4181	1183.6777	1215.8776	1220.7852	1250.4446	1275.3714	1314.7134	1348.2388	1377.5821	1401.1111	1415.1843	1428.1569	1455.0759	1483.5043	1488.5881	1503.3921	1509.3211	1528.7683	1825.8202	2933.8756	3007.9527	3028.7075	3039.4294	3071.0578	3093.9954	3103.2644	3108.1533	3135.0734	3643.001	3701.8284
CC1(C)CNC(=O)C1O	CC1(C)CNC(=O)[C@H]1O	
InChI=1S/C6H11NO2/c1-6(2)3-7-5(9)4(6)8/h4,8H,3H2,1-2H3,(H,7,9)	InChI=1S/C6H11NO2/c1-6(2)3-7-5(9)4(6)8/h4,8H,3H2,1-2H3,(H,7,9)/t4-/m1/s1
