21
gdb 108050	3.56785	1.311	1.18482	1.4249	81.79	-0.254	0.0705	0.3245	1122.3288	0.184008	-387.045602	-387.037697	-387.036753	-387.077875	31.794	
O	-0.1307231211	 1.4644362468	-0.0380011136	-0.425574
C	 0.0007566401	 0.0476426592	 0.0031684732	-0.199757
C	-1.3849744069	-0.5398793118	 0.0188894222	 0.395513
C	-2.2423232551	-0.3554128599	 1.2999979226	-0.267881
C	-2.7935572448	-1.7958693784	 1.1533915669	-0.031104
C	-3.8806887353	-1.9255925546	 0.056976989	-0.223867
C	-2.7912436799	-1.8603566779	-1.0428684745	-0.031097
C	-2.2396022648	-0.4309567887	-1.2726132071	-0.267908
C	-1.6952156045	-2.0841947126	 0.0639431846	-0.117646
H	 0.7507367586	 1.84878327	-0.0506623525	 0.286747
H	 0.5551182747	-0.3259223323	-0.8744933125	 0.077956
H	 0.5534307851	-0.2744301482	 0.9020697751	 0.077945
H	-1.5987063758	-0.2698883873	 2.1818346735	 0.091946
H	-2.9619550235	 0.4690570638	 1.3143358137	 0.093301
H	-2.9260961546	-2.378590974	 2.0656854803	 0.059763
H	-4.3414972935	-2.918052898	 0.0856218772	 0.095188
H	-4.6762714113	-1.1723389735	 0.0340298309	 0.087205
H	-2.9218947968	-2.4956320953	-1.9196621702	 0.059761
H	-2.9591463416	 0.3912115656	-1.3368467404	 0.093298
H	-1.5941482154	-0.3973276196	-2.156616069	 0.091902
H	-0.9561622035	-2.8829031132	 0.0881517806	 0.054309
84.5563	148.723	241.3303	277.084	303.4904	358.1209	383.8858	417.9358	619.4947	631.4282	709.5071	793.1713	823.2983	840.4698	874.67	908.0072	922.4891	941.3207	944.9814	976.3067	984.5583	1031.6099	1046.683	1058.3009	1084.1263	1103.9711	1141.8411	1155.367	1176.9907	1185.3643	1208.0016	1215.7011	1239.5615	1246.0926	1266.3436	1279.4828	1296.0432	1312.8122	1320.1398	1353.5489	1459.7437	1476.1997	1477.6795	1493.6454	1518.4061	2948.0669	2975.7323	3032.2424	3036.1145	3040.0466	3081.9406	3086.0282	3089.1219	3094.1386	3097.9938	3129.7692	3826.4336
OCC12CC3CC(C1)C23	OC[C@@]12C[C@H]3C[C@@H](C1)[C@@H]23	
InChI=1S/C8H12O/c9-4-8-2-5-1-6(3-8)7(5)8/h5-7,9H,1-4H2	InChI=1S/C8H12O/c9-4-8-2-5-1-6(3-8)7(5)8/h5-7,9H,1-4H2/t5-,6+,7+,8-
