20
gdb 103709	2.88958	1.15953	0.96979	2.9373	81.01	-0.2402	0.0244	0.2646	1284.6206	0.170006	-399.322446	-399.312016	-399.311072	-399.357838	38.148	
C	 0.1381309506	 1.4920131556	-0.3152996299	-0.391166
C	 0.004307821	 0.0655125346	 0.2305738914	-0.202573
C	-1.4201795093	-0.4562159733	 0.1307366431	 0.29926
N	-2.3535455824	 0.2963793056	 0.9395578132	-0.58162
C	-1.867056483	-1.0916177557	-1.1666115787	-0.347136
C	-1.6275655337	-1.9751737039	 0.0554557068	 0.094844
N	-0.4689415801	-2.8310991835	 0.0228474242	-0.55538
C	-2.8027031123	-2.5071551739	 0.7155028488	 0.24543
N	-3.7218298279	-2.9507312356	 1.2638060152	-0.36192
H	 1.1714260003	 1.8415446748	-0.2328854711	 0.116393
H	-0.1483095143	 1.5430347076	-1.3717913541	 0.111856
H	-0.4929687162	 2.1897925264	 0.2436269333	 0.124019
H	 0.6759265464	-0.6101051395	-0.3037224261	 0.115617
H	 0.2966758215	 0.0522435712	 1.2869298336	 0.102857
H	-2.734471723	 1.0765161786	 0.4147720532	 0.234837
H	-3.1363002448	-0.2703863981	 1.2485426752	 0.24808
H	-2.893896894	-0.9498447581	-1.4839198141	 0.12588
H	-1.1426517005	-1.2170497894	-1.9641345921	 0.129183
H	-0.1865627849	-3.093233963	 0.9625504694	 0.246701
H	-0.6756059133	-3.6878437503	-0.4817629311	 0.244837
56.4087	89.859	122.0511	146.4446	204.3609	237.799	251.3649	285.8703	306.7554	406.1149	412.0435	436.884	463.632	586.3278	629.2542	708.4427	717.1573	792.7631	836.5762	840.3741	885.9032	911.228	943.6132	993.9133	1044.6095	1064.6081	1086.3103	1138.3669	1211.742	1251.0415	1274.1594	1289.8208	1315.2024	1361.6137	1386.8895	1406.0168	1465.3041	1486.4824	1498.0778	1512.3957	1658.1233	1660.0872	2328.133	3033.2591	3044.0716	3095.0775	3106.4972	3118.9032	3135.2426	3231.0454	3494.8944	3505.308	3573.062	3582.6082
CCC1(N)CC1(N)C#N	CC[C@@]1(N)C[C@]1(N)C#N	
InChI=1S/C6H11N3/c1-2-5(8)3-6(5,9)4-7/h2-3,8-9H2,1H3	InChI=1S/C6H11N3/c1-2-5(8)3-6(5,9)4-7/h2-3,8-9H2,1H3/t5-,6+/m1/s1
