18
gdb 52589	2.06748	1.06205	0.73122	4.2387	85.22	-0.2643	0.0232	0.2875	1558.4816	0.145893	-364.786387	-364.776361	-364.775417	-364.824154	34.479	
C	 0.1643460095	 1.4037448649	 0.07077339	-0.49958
C	 0.0526800052	-0.045652891	 0.0045814192	 0.103102
C	-0.0465540007	-1.2431332696	-0.0458121265	 0.084633
C	-0.1458203544	-2.7029722427	-0.1256588603	-0.366631
C	-1.5569664209	-3.1304175587	-0.2026200737	 0.294846
N	-2.6548847413	-3.4823955114	-0.2719861979	-0.326461
C	 0.650234493	-3.2818419759	-1.2985272543	 0.045624
C	 2.1210731601	-3.5425761897	-1.1254551491	-0.272139
C	 1.1543074822	-4.6976491126	-1.2276525007	-0.271268
H	 0.8811439261	 1.7798771653	-0.6670081669	 0.153159
H	-0.8010356637	 1.8811111398	-0.1280890055	 0.158326
H	 0.500772694	 1.7305353603	 1.0604919043	 0.153567
H	 0.2596749228	-3.1379373644	 0.7995566892	 0.144427
H	 0.3186390251	-2.9162865181	-2.2642984856	 0.110319
H	 2.7763139718	-3.3362832347	-1.9637586302	 0.122181
H	 2.5620123903	-3.3327582537	-0.1565136806	 0.119894
H	 0.9460782064	-5.2668966775	-0.3276240438	 0.121936
H	 1.1414479244	-5.2881864004	-2.1362558577	 0.124063
9.3837	61.3343	86.3631	108.0503	147.0043	248.792	271.4177	329.2432	356.7822	391.0764	479.4283	526.965	551.2892	756.6801	807.782	836.0085	864.2961	920.9534	965.0018	1004.0019	1052.3217	1053.1807	1063.2628	1084.0238	1136.5271	1146.8927	1180.102	1195.1121	1225.1073	1270.7272	1308.3995	1396.6993	1414.0887	1472.4458	1476.3911	1476.694	1506.4576	2361.9864	2380.9453	3003.8936	3031.8227	3094.5488	3096.0604	3135.5144	3139.5343	3170.9714	3214.9215	3229.2524
CC#CC(C#N)C1CC1	CC#C[C@@H](C#N)C1CC1	
InChI=1S/C8H9N/c1-2-3-8(6-9)7-4-5-7/h7-8H,4-5H2,1H3	InChI=1S/C8H9N/c1-2-3-8(6-9)7-4-5-7/h7-8H,4-5H2,1H3/t8-/m0/s1
