19
gdb 103602	2.67496	1.26414	1.10297	2.2141	71.8	-0.2377	-0.0417	0.196	1173.6303	0.157068	-460.160101	-460.150422	-460.149477	-460.194559	35.591	
C	-0.2338414098	 1.6393279537	 0.0596808217	-0.44443
C	-0.0984519069	 0.1169757916	-0.0626613163	 0.168915
C	-1.446351846	-0.5949055897	 0.1327407848	-0.112091
O	-1.9829322983	-0.3477556246	 1.4161648008	-0.421646
C	 0.7974245227	-0.3558840209	-1.261405412	-0.306895
C	 1.9691167492	-0.6932940156	-0.3000121549	 0.010434
O	 2.9601332472	 0.3186922254	-0.3574936635	-0.424124
C	 0.9723139102	-0.4733770633	 0.8655138073	 0.35886
O	 0.9756325364	-0.758024884	 2.0346107005	-0.328403
H	 0.7444313507	 2.1263226858	 0.0305385719	 0.12995
H	-0.8345386704	 2.0256133138	-0.7714565925	 0.119792
H	-0.7358925451	 1.8967128594	 0.9950759682	 0.141555
H	-2.1775293295	-0.2216297178	-0.5942542205	 0.110219
H	-1.3232336784	-1.6752243791	-0.0520169685	 0.08309
H	-1.3107408949	-0.6106445022	 2.0590575062	 0.296638
H	 0.4068660171	-1.23877922	-1.7733246461	 0.111223
H	 1.0455590762	 0.4130277898	-1.994027772	 0.12347
H	 2.4018994868	-1.7001893199	-0.3763899711	 0.086517
H	 3.5391577029	 0.2084154277	 0.4053791858	 0.296928
56.6588	123.8998	162.5233	187.4263	239.8583	241.4188	264.7178	303.4196	344.1241	395.0174	433.	493.4536	507.2826	648.7472	724.6733	801.0051	843.019	868.8319	932.2729	961.1724	969.6864	1015.6103	1072.7893	1085.7763	1139.5046	1148.6541	1179.4175	1193.7435	1232.6829	1255.1662	1295.9476	1308.055	1375.2397	1394.0961	1398.1	1439.0841	1469.9033	1493.8585	1498.9268	1509.541	1857.6583	2961.3127	3009.8406	3036.1546	3054.0618	3074.6185	3108.0922	3134.385	3139.5526	3759.974	3801.0919
CC1(CO)CC(O)C1=O	C[C@@]1(CO)C[C@@H](O)C1=O	
InChI=1S/C6H10O3/c1-6(3-7)2-4(8)5(6)9/h4,7-8H,2-3H2,1H3	InChI=1S/C6H10O3/c1-6(3-7)2-4(8)5(6)9/h4,7-8H,2-3H2,1H3/t4-,6+/m1/s1
