16
gdb 45416	2.74424	1.76501	1.74308	4.3323	68.1	-0.2315	-0.0208	0.2106	874.4804	0.127228	-437.912709	-437.905971	-437.905027	-437.94366	27.213	
O	-0.0008751898	-0.047460082	-0.1010086952	-0.382029
C	-0.0172889488	 1.1586831251	 0.0063387291	 0.435034
N	-1.1307360415	 1.9449262236	 0.1434376894	-0.303168
C	-0.8931560986	 3.3906286266	 0.0637290033	-0.098229
C	 0.0091297194	 3.713233	 1.2827711337	-0.040524
O	 1.1642879126	 2.8859482603	 1.2155406061	-0.272972
C	 1.2130800368	 2.0896499612	 0.0044127395	-0.073161
C	 1.0787941274	 3.0050966047	-1.1960225246	-0.077026
C	-0.0511384685	 3.7118188042	-1.1619823219	-0.073221
H	-2.0427867307	 1.5461749265	-0.0120928915	 0.254293
H	-1.8399605924	 3.9274568957	 0.1082202848	 0.088765
H	 0.301390993	 4.7707553859	 1.2776705797	 0.103241
H	-0.525827941	 3.4893528077	 2.2132810705	 0.109666
H	 2.131470633	 1.5096930707	 0.0465807812	 0.103948
H	 1.8493067425	 3.0775120291	-1.9535286556	 0.116436
H	-0.3344981435	 4.4856163307	-1.8652913186	 0.108944
106.9535	248.9007	356.6222	383.7184	417.3998	436.5508	455.9057	595.7661	619.0484	674.6346	725.3449	794.1906	842.2631	852.9258	887.1127	940.2333	957.5574	969.8166	1009.117	1048.3131	1060.4296	1083.7543	1129.0085	1221.9673	1230.2765	1257.9911	1274.1318	1316.3587	1345.6188	1363.1015	1387.8488	1426.6101	1513.4149	1669.579	1827.6211	3016.5397	3062.296	3125.9013	3159.39	3194.1074	3217.6625	3640.5824
O=C1NC2COC1C=C2	O=C1N[C@H]2CO[C@@H]1C=C2	
InChI=1S/C6H7NO2/c8-6-5-2-1-4(7-6)3-9-5/h1-2,4-5H,3H2,(H,7,8)	InChI=1S/C6H7NO2/c8-6-5-2-1-4(7-6)3-9-5/h1-2,4-5H,3H2,(H,7,8)/t4-,5-/m1/s1
