17
gdb 112223	2.06769	1.43517	0.94372	3.8872	74.73	-0.2652	0.0021	0.2673	1254.6756	0.133881	-421.824201	-421.815119	-421.814175	-421.858489	32.861	
C	 0.231966754	 1.5664663028	 0.0142695542	-0.390882
C	 0.0867720097	 0.0417950501	 0.0211573872	-0.19633
C	 0.4608762472	-0.5785423775	-1.3068369134	 0.141399
O	 1.8872371825	-0.3823855743	-1.6282012235	-0.250119
C	 2.1434397024	-1.7227825303	-1.6413852823	 0.458994
O	 3.1782105392	-2.274369929	-1.8145113016	-0.313852
C	 0.6665751597	-2.1209790799	-1.3890654068	-0.421425
C	 0.3736411763	-2.9521296356	-0.2445799325	 0.348294
C	 0.1340871922	-3.6417660462	 0.7097645981	-0.447681
H	 1.261331089	 1.8561208981	-0.2146365947	 0.142078
H	-0.4215666197	 2.0255555975	-0.7355352326	 0.117781
H	-0.0313049107	 1.9855555526	 0.9892125148	 0.121543
H	 0.7088596781	-0.4001687541	 0.8068747548	 0.120952
H	-0.9477084937	-0.2465032196	 0.2448496404	 0.115033
H	-0.1405508774	-0.1763516575	-2.127175271	 0.101556
H	 0.2359907548	-2.5471001586	-2.3011294921	 0.144166
H	-0.0707604135	-4.2568552285	 1.5511997713	 0.208493
84.3233	98.0545	114.8171	145.0341	213.542	248.2569	353.4162	380.4362	446.0245	485.4422	573.3121	629.577	659.818	701.4328	743.6272	800.9822	819.6183	893.3302	914.5978	975.79	1050.1279	1089.5636	1105.7099	1132.8695	1147.9414	1188.0298	1279.5646	1290.4468	1327.2928	1351.7867	1409.2171	1415.5546	1473.155	1498.6724	1508.084	1946.1031	2242.0524	3038.4924	3040.0886	3060.191	3070.3981	3085.4018	3109.9642	3123.1523	3501.5761
CCC1OC(=O)C1C#C	CC[C@H]1OC(=O)[C@H]1C#C	
InChI=1S/C7H8O2/c1-3-5-6(4-2)9-7(5)8/h1,5-6H,4H2,2H3	InChI=1S/C7H8O2/c1-3-5-6(4-2)9-7(5)8/h1,5-6H,4H2,2H3/t5-,6+/m0/s1
