18
gdb 40664	3.57941	1.33386	1.1868	2.0427	75.57	-0.2247	0.004	0.2286	1071.9306	0.148841	-401.893601	-401.88624	-401.885295	-401.925621	28.857	
C	 0.6165797432	-0.5598460726	-1.2508484613	-0.177409
O	-0.811832162	-0.4989848876	-1.2130361248	-0.239723
C	-0.0860140943	 0.0017739438	-0.0899141467	 0.08549
C	-0.291051184	-0.7429518422	 1.2166451287	-0.046729
C	-0.1264351229	-2.2480705869	 1.1684920331	-0.105174
C	 0.7082036808	-2.6544835101	 2.1249482733	-0.087896
C	 1.2526570638	-1.4803693744	 2.8665667057	-0.064315
C	 2.0629001115	-0.5374621118	 2.0429504456	-0.240811
N	 0.6362197472	-0.2674850859	 2.2787186137	-0.116574
H	 1.0397130234	-1.5610406865	-1.1925585767	 0.116771
H	 1.0925747598	 0.1077734802	-1.9674904755	 0.117386
H	-0.1121688033	 1.0871369096	 0.0143501677	 0.104462
H	-1.3097462221	-0.4924876129	 1.5507975215	 0.100729
H	-0.6372459434	-2.8689754493	 0.4433905669	 0.117905
H	 0.9838760009	-3.6782673395	 2.3462947643	 0.105573
H	 1.3662193871	-1.5137838333	 3.9468391939	 0.097323
H	 2.7271148617	 0.1775797739	 2.5208973596	 0.116687
H	 2.3862045427	-0.8893682246	 1.067461331	 0.116304
94.7498	138.4916	171.3321	309.3492	347.7595	441.4896	472.9323	593.4886	706.7582	758.2009	768.5393	798.2659	836.2544	858.3111	873.472	918.4734	929.711	966.6431	1000.7306	1023.1499	1051.8283	1084.1621	1091.2133	1105.0045	1121.4441	1133.993	1157.2543	1159.4029	1183.4275	1251.712	1282.228	1304.2516	1332.416	1350.6873	1368.2319	1432.391	1491.5847	1526.7267	1667.2526	2980.5207	3087.0617	3106.3055	3108.8323	3143.5348	3174.9523	3198.823	3202.9506	3227.472
C1OC1C1C=CC2CN12	C1O[C@H]1[C@H]1C=C[C@H]2CN12	
InChI=1S/C7H9NO/c1-2-6(7-4-9-7)8-3-5(1)8/h1-2,5-7H,3-4H2	InChI=1S/C7H9NO/c1-2-6(7-4-9-7)8-3-5(1)8/h1-2,5-7H,3-4H2/t5-,6+,7+,8?/m0/s1
