23
gdb 114627	2.31801	1.24198	0.94572	1.7197	85.73	-0.2275	0.0752	0.3028	1376.2957	0.204378	-388.260988	-388.25116	-388.250216	-388.295876	36.848	
C	-0.0666420599	 1.636310729	-0.3454970563	-0.379041
C	-0.0371468203	 0.1998658631	 0.1881693818	-0.202082
C	-1.3863234458	-0.4856100908	 0.067036505	 0.10845
O	-1.8759477561	-0.5762124719	-1.3078273361	-0.312518
C	-2.138552933	-1.9695806276	-1.1307271943	 0.045204
C	-0.8674764576	-2.7235306433	-0.8934873592	-0.354052
C	-1.5498333822	-2.0021803274	 0.2596785704	 0.264506
C	-1.985438973	-2.6791993334	 1.529886874	-0.296918
C	-0.8518082311	-2.8407360748	 2.5530148558	-0.372878
H	 0.9170084499	 2.1082462518	-0.2647296035	 0.109771
H	-0.3669214494	 1.6456435805	-1.3969166918	 0.138653
H	-0.7808080088	 2.2523658778	 0.2121940911	 0.112236
H	 0.7187564671	-0.3822325505	-0.3499811267	 0.099146
H	 0.2527237843	 0.1945206284	 1.2472536573	 0.09754
H	-2.1359673052	 0.0531746815	 0.666412829	 0.071546
H	-3.0520203116	-2.3735262796	-1.5529806143	 0.100538
H	-0.9664144097	-3.8048305822	-0.8525025278	 0.109685
H	 0.0578603561	-2.3658001114	-1.3355733678	 0.112616
H	-2.8090917587	-2.1097285664	 1.9809255333	 0.098092
H	-2.3970735783	-3.6665106167	 1.2854883718	 0.098507
H	-1.2055301763	-3.3479013369	 3.4560010988	 0.11165
H	-0.0279630752	-3.4276447241	 2.1344441104	 0.120236
H	-0.4462222851	-1.8692540451	 2.8547939291	 0.119114
69.8055	88.8133	122.8248	173.7532	210.4872	213.9964	262.864	311.134	362.199	415.1681	481.2605	510.9741	666.1771	726.2602	774.4648	788.4328	854.0629	879.9318	902.0133	932.808	980.9733	989.6235	1003.3909	1006.5393	1037.2655	1068.1694	1080.1305	1090.547	1111.5849	1140.9253	1158.95	1232.1531	1246.1352	1271.7189	1290.274	1328.9682	1338.9243	1358.6495	1395.2235	1406.7157	1411.5834	1422.6576	1474.8496	1477.1898	1488.3411	1497.4564	1498.4667	1506.54	1509.2354	2986.7004	3014.478	3025.6722	3034.9741	3036.2678	3048.4399	3070.447	3103.1033	3103.676	3107.6937	3113.8012	3120.326	3173.4949	3201.7508
CCC1OC2CC12CC	CC[C@H]1O[C@H]2C[C@@]12CC	
InChI=1S/C8H14O/c1-3-6-8(4-2)5-7(8)9-6/h6-7H,3-5H2,1-2H3	InChI=1S/C8H14O/c1-3-6-8(4-2)5-7(8)9-6/h6-7H,3-5H2,1-2H3/t6-,7+,8+/m1/s1
