16
gdb 13855	3.96984	1.61489	1.26616	1.5721	60.22	-0.2431	-0.0228	0.2204	947.8676	0.129501	-420.889891	-420.881833	-420.880889	-420.924096	27.72	
C	 0.4055732803	 0.4927423684	 0.9301917121	-0.472743
C	-0.1362369376	 0.3232820792	-0.4693991686	 0.339241
O	 0.3753222656	 0.8182601412	-1.4478428947	-0.296561
C	-1.4205863265	-0.4963834416	-0.6386722985	 0.001264
C	-1.3436204868	-1.496555731	-1.8242779804	-0.120479
O	-1.9194232163	-2.6815678132	-1.2941960956	-0.228679
C	-1.6075899572	-2.6532760852	 0.0700149247	 0.019164
O	-1.7419775646	-1.3061439149	 0.488943413	-0.256285
H	 1.2845613057	 1.1376410431	 0.9085687288	 0.139745
H	-0.3628748289	 0.9149034262	 1.5866899252	 0.149381
H	 0.6598562353	-0.4842562927	 1.3538821722	 0.147845
H	-2.2366484986	 0.2247523768	-0.7800947339	 0.119427
H	-1.9251148517	-1.1870739396	-2.6929779228	 0.132164
H	-0.3012765497	-1.6546148415	-2.1316655528	 0.116416
H	-2.3193642306	-3.2747212598	 0.6193379931	 0.126617
H	-0.5740817985	-3.0062508252	 0.2468613682	 0.083483
25.7269	56.07	130.6144	199.8525	272.8438	290.3154	434.1921	476.6754	591.636	676.5983	744.1161	791.0297	931.2464	955.9812	967.3067	1001.8356	1024.2543	1074.1315	1108.7106	1114.4743	1185.1382	1211.5147	1225.015	1256.7215	1298.1843	1335.6427	1360.7858	1381.8868	1430.5018	1451.2296	1465.656	1517.6698	1544.2444	1808.8809	2925.5653	3018.8877	3025.7071	3044.4234	3098.5843	3104.9818	3127.6862	3157.7483
CC(=O)C1COCO1	CC(=O)[C@H]1COCO1	
InChI=1S/C5H8O3/c1-4(6)5-2-7-3-8-5/h5H,2-3H2,1H3	InChI=1S/C5H8O3/c1-4(6)5-2-7-3-8-5/h5H,2-3H2,1H3/t5-/m1/s1
