17
gdb 73474	2.88768	1.84307	1.56303	1.8289	65.68	-0.2236	0.0685	0.2921	895.1751	0.137813	-458.948244	-458.941394	-458.940449	-458.979177	28.071	
O	-0.0123848571	 1.3741250703	 0.0740523114	-0.466237
C	 0.0575033125	-0.0206978836	 0.0305188269	 0.293854
C	 1.158459474	-0.6335503148	-0.8164803051	-0.281637
C	 1.0517510102	-2.1867647634	-0.8301185699	-0.223321
C	-0.1459101533	-2.6132101457	 0.0145700309	 0.167743
O	-1.3254151499	-1.9987223679	-0.4964108786	-0.263512
C	-1.293613902	-0.6999599224	 0.0486435725	 0.015442
C	-0.4093598345	-0.7826965054	 1.2649610611	-0.032299
O	 0.0163802392	-2.125131807	 1.3445264469	-0.264327
H	 0.7297147219	 1.6939728191	 0.6009407918	 0.283414
H	 1.0841351768	-0.2242557678	-1.8287706083	 0.118586
H	 2.1316302915	-0.3181287406	-0.4212733554	 0.098636
H	 0.915879561	-2.5643054749	-1.8475462838	 0.112614
H	 1.9529931524	-2.6510860137	-0.4198802698	 0.110233
H	-0.29767516	-3.693855739	 0.0513129417	 0.096767
H	-2.2242735887	-0.1545364315	-0.0284889069	 0.120816
H	-0.6000895039	-0.3138628718	 2.2214897648	 0.113228
131.3169	272.72	316.1007	354.979	390.9447	396.7099	483.8445	525.247	628.9282	721.6235	731.0145	810.0856	837.0189	867.3458	892.2365	899.4674	926.0957	986.6111	1026.3599	1059.955	1066.0362	1074.2729	1090.2187	1142.3532	1174.6271	1206.282	1247.453	1256.6697	1261.4264	1292.2362	1327.5092	1365.8326	1366.8858	1374.2065	1441.5583	1474.7985	1505.6027	3028.8036	3057.6285	3073.5319	3103.8629	3105.9877	3202.8685	3216.2844	3777.5689
OC12CCC3OC1C2O3	O[C@]12CC[C@@H]3O[C@H]1[C@H]2O3	
InChI=1S/C6H8O3/c7-6-2-1-3-8-4(6)5(6)9-3/h3-5,7H,1-2H2	InChI=1S/C6H8O3/c7-6-2-1-3-8-4(6)5(6)9-3/h3-5,7H,1-2H2/t3-,4+,5-,6-
