19
gdb 110397	5.57597	0.95521	0.94256	1.8193	76.22	-0.2495	0.0712	0.3207	1298.7123	0.158591	-422.932443	-422.92424	-422.923296	-422.965356	31.342	
C	 0.1812871383	 1.3120707918	 0.1930244788	-0.240266
O	-0.3201712078	 0.0761647901	-0.2662205164	-0.255721
C	 0.4660651129	-0.5025512988	-1.2704699344	 0.146856
C	 1.7008390309	-1.3386910536	-0.8653929757	-0.095097
C	 0.8066632542	-2.53718718	-0.3848639205	-0.093713
C	 1.6118308832	-3.5267877722	-1.2504912424	 0.152742
O	 1.0299732893	-4.7265470998	-1.6877529051	-0.44883
C	 1.5341614068	-2.2576745229	-2.1256276798	-0.110026
C	 0.0715967149	-1.9315098861	-1.6420923326	-0.121682
H	 1.1720019909	 1.2080073061	 0.6601812491	 0.107219
H	 0.2619353091	 2.0458933658	-0.6242955602	 0.104693
H	-0.5207031716	 1.691932184	 0.9390183781	 0.127914
H	 0.6169594934	 0.2024192904	-2.1042510518	 0.059457
H	 2.6503964734	-1.0302673623	-0.4269825063	 0.073338
H	 0.3796908499	-2.6656485193	 0.6085801031	 0.082646
H	 2.6073385361	-3.7918855607	-0.8805729039	 0.083064
H	 0.1380578174	-4.5362865505	-1.9985795781	 0.281934
H	 1.9405687712	-2.0660196908	-3.1197272114	 0.073301
H	-0.8645288625	-2.2709915811	-2.0881518907	 0.07217
78.3435	135.3954	171.5927	208.7728	280.125	283.9711	388.5827	446.0071	510.6024	609.5566	731.3093	801.5862	839.694	844.3427	878.3477	891.222	935.4002	952.0085	984.8625	1006.7533	1020.7632	1081.5794	1116.4188	1118.5581	1130.1858	1146.2811	1161.3855	1164.8932	1177.0981	1184.0838	1224.1401	1232.5432	1249.3445	1287.4191	1300.0323	1309.1865	1398.9787	1447.8754	1482.7451	1489.4526	1508.8577	2968.8158	2978.7825	3023.7119	3067.6236	3096.0625	3104.0802	3112.5738	3115.9622	3132.1791	3803.3324
COC1C2C3C(O)C2C13	CO[C@H]1[C@H]2[C@@H]3[C@@H](O)[C@H]2[C@H]13	
InChI=1S/C7H10O2/c1-9-7-4-2-5(7)3(4)6(2)8/h2-8H,1H3	InChI=1S/C7H10O2/c1-9-7-4-2-5(7)3(4)6(2)8/h2-8H,1H3/t2-,3+,4-,5+,6-,7-/m1/s1
