13
gdb 15458	3.69556	1.80211	1.22964	6.3256	67.63	-0.2645	-0.0793	0.1853	913.2859	0.09636	-361.517562	-361.510642	-361.509698	-361.549155	24.808	
O	 0.0068381495	-0.0121927595	 0.0038038007	-0.2948
C	-0.0118203772	 1.1895536655	 0.0104007748	 0.322307
C	-1.2525396069	 2.0935064695	 0.0314359287	-0.329959
C	-0.7195868542	 3.5379788511	 0.031906927	-0.269843
C	 0.7764538888	 3.3887120528	 0.0115628852	-0.139048
C	 1.1786340887	 2.1061062201	-0.0003963631	 0.089419
C	 2.5185164129	 1.634608049	-0.0204071216	 0.227504
N	 3.6052492474	 1.2371361393	-0.0367146511	-0.326134
H	-1.8728622024	 1.8656738481	-0.8396556042	 0.149574
H	-1.8496615593	 1.8565853099	 0.9162120664	 0.149577
H	-1.0573172651	 4.1176416526	-0.8355801878	 0.139704
H	-1.034455078	 4.108659675	 0.9138256496	 0.139699
H	 1.4448193156	 4.2423238866	 0.0072700053	 0.141999
82.5918	145.118	167.3433	295.9277	403.3853	492.8359	515.4839	591.2689	650.81	695.1053	767.3565	799.6265	911.5375	934.3923	1008.2228	1024.417	1041.1916	1155.1564	1202.0645	1232.2871	1270.3164	1317.2284	1323.9124	1447.5441	1473.9284	1664.0411	1836.9367	2350.7338	3037.0306	3062.3642	3073.7607	3115.2235	3208.0538
O=C1CCC=C1C#N	O=C1CCC=C1C#N	
InChI=1S/C6H5NO/c7-4-5-2-1-3-6(5)8/h2H,1,3H2	InChI=1S/C6H5NO/c7-4-5-2-1-3-6(5)8/h2H,1,3H2
