16
gdb 105609	1.77194	1.67689	1.24447	3.4967	66.62	-0.2526	-0.0427	0.21	1082.0671	0.122258	-475.035808	-475.026368	-475.025424	-475.07085	32.437	
O	 0.0878379982	 1.4951309192	 0.4509742059	-0.399361
C	 0.067080453	 0.1262420618	 0.1046493214	-0.143077
C	-1.3578215056	-0.4511335739	-0.0198910423	 0.025704
C	-1.4459992603	-2.0002753448	-0.0446087152	-0.215445
N	-2.1008234679	-1.9263940546	 1.2661997624	-0.323375
C	-2.1144943122	-0.5627192763	 1.3657521398	 0.398303
O	-2.5374769605	 0.2080550836	 2.178493508	-0.340318
C	-2.1925513784	 0.2580851389	-1.0552455991	 0.107814
O	-2.8425245062	-0.288846674	-1.911560426	-0.249827
H	 0.0110201103	 2.0235179611	-0.3481843613	 0.294479
H	 0.6205404571	-0.0698717569	-0.8257342039	 0.107862
H	 0.5853326554	-0.4082373422	 0.908161162	 0.126674
H	-2.0780332075	-2.3864403139	-0.8467712756	 0.144795
H	-0.4819581403	-2.5189322552	-0.0318350398	 0.11363
H	-2.5168768624	-2.6333136352	 1.8540271896	 0.258597
H	-2.1870043826	 1.3643640622	-0.9591409459	 0.093545
66.8437	79.4449	90.6707	162.1586	201.2136	237.9153	249.6654	270.2558	393.3669	434.7627	473.9658	639.0735	691.14	742.8122	796.76	865.7601	933.3012	979.5032	998.1947	1067.0668	1090.0741	1136.3022	1158.6598	1188.9948	1206.9302	1273.2496	1292.8167	1386.3516	1395.3914	1409.6389	1421.3117	1500.9349	1524.7966	1810.3662	1903.7338	2909.5503	2992.8241	3048.5333	3068.9029	3117.2888	3614.6806	3839.9739
OCC1(CNC1=O)C=O	OC[C@]1(CNC1=O)C=O	
InChI=1S/C5H7NO3/c7-2-5(3-8)1-6-4(5)9/h2,8H,1,3H2,(H,6,9)	InChI=1S/C5H7NO3/c7-2-5(3-8)1-6-4(5)9/h2,8H,1,3H2,(H,6,9)/t5-/m0/s1
