17
gdb 40335	4.69474	1.27735	1.23539	1.6985	75.	-0.2242	0.0722	0.2964	1038.8024	0.135651	-384.546887	-384.539933	-384.538989	-384.578667	27.584	
C	 0.4429534383	 1.4536440564	 0.0930816504	-0.171958
O	 1.0744799434	 0.2433548611	-0.327565636	-0.231648
C	-0.2947595239	 0.1793642722	 0.0885783818	-0.117519
C	-0.5482373828	-0.5874489107	 1.3236589968	 0.408621
C	-1.7799973522	-0.6781783551	 2.2839109372	-0.180894
C	-0.843953418	-0.9742530408	 3.446947662	-0.08728
C	-1.41400272	-2.1161739044	 2.6191690935	-0.087137
C	-0.1893249837	-2.0326014501	 1.6601753176	-0.150144
C	 0.3824752118	-0.8883519207	 2.4883585077	-0.151803
H	 0.7957667466	 1.8578144725	 1.040125829	 0.11364
H	 0.2639027458	 2.1834138327	-0.695461976	 0.113407
H	-0.9972732834	 0.009657706	-0.7303802519	 0.09137
H	-2.745141604	-0.1894993384	 2.2791667181	 0.087155
H	-0.9664680154	-0.7560358106	 4.4992253929	 0.087759
H	-2.0521688768	-2.9355259884	 2.9209995495	 0.088132
H	 0.3272986399	-2.7634637346	 1.0530290147	 0.093448
H	 1.4137321148	-0.593966897	 2.6273609427	 0.094851
68.9103	150.1071	163.6664	364.3586	437.0386	600.9964	667.2806	747.3302	757.2895	792.7607	794.8584	841.2107	844.8958	857.7874	896.5794	902.2058	912.4505	948.0356	958.3138	979.6553	1006.3029	1021.1254	1027.0757	1067.0034	1092.9797	1111.4657	1149.5101	1166.5982	1169.8887	1197.8466	1247.2178	1257.9892	1278.1828	1322.3138	1390.6283	1467.7474	1518.8594	3080.2929	3086.1226	3175.6928	3193.6027	3195.223	3207.0397	3210.6038	3216.9601
C1OC1C12C3C4C3C1C24	C1O[C@H]1[C@@]12[C@@H]3[C@H]4[C@@H]3[C@@H]1[C@@H]24	
InChI=1S/C8H8O/c1-2(9-1)8-5-3-4(5)7(8)6(3)8/h2-7H,1H2	InChI=1S/C8H8O/c1-2(9-1)8-5-3-4(5)7(8)6(3)8/h2-7H,1H2/t2-,3-,4+,5-,6+,7-,8+/m1/s1
