25
gdb 123155	7.22452	0.42278	0.414	1.712	91.15	-0.2617	0.0903	0.352	2705.0708	0.227235	-389.482377	-389.471272	-389.470327	-389.520383	39.125	
C	-0.01511116	 1.5757146021	 0.1946946523	-0.379332
C	-0.0097705947	 0.0540635083	 0.0256604066	-0.163035
C	-1.4132830079	-0.5609957306	 0.0501447148	-0.159658
C	-1.4177255776	-2.0829133317	-0.1271464753	-0.180625
C	-2.8216806328	-2.6950108086	-0.0958503112	-0.174497
C	-2.8241535453	-4.2184556091	-0.2811839695	-0.222466
C	-4.2137537541	-4.8043420874	-0.2355019564	 0.100457
C	-4.5028519959	-6.1154431148	 0.3570086631	-0.181594
O	-4.8205623151	-4.9114163058	 1.0574249567	-0.237268
H	 0.9999073886	 1.9849932384	 0.1764188166	 0.109861
H	-0.5840731785	 2.0609949589	-0.6063149417	 0.112537
H	-0.474042493	 1.8667756453	 1.1462815902	 0.113466
H	 0.483230727	-0.2082780536	-0.9199804541	 0.092429
H	 0.5979763978	-0.4010203942	 0.8190934999	 0.093563
H	-1.9053570156	-0.3040874908	 0.9986404924	 0.093192
H	-2.024208116	-0.1013317179	-0.7396303577	 0.090115
H	-0.9292226391	-2.3396224569	-1.0779051466	 0.089421
H	-0.8041772411	-2.5423936307	 0.660460355	 0.093
H	-3.3088645259	-2.4560497919	 0.8577186569	 0.112847
H	-3.4383405249	-2.2331784357	-0.8795684701	 0.091101
H	-2.3622512584	-4.4777407237	-1.2439689158	 0.096886
H	-2.2166837612	-4.689855827	 0.5009970579	 0.100584
H	-4.8976720211	-4.4409894375	-1.006290529	 0.087212
H	-5.3569583479	-6.6954947534	 0.0093883753	 0.111587
H	-3.6882518172	-6.7016118014	 0.7814360898	 0.110215
40.7287	52.5381	78.5052	95.3759	130.3604	150.6776	188.9915	245.125	258.1309	332.5814	407.2242	463.086	499.2867	731.2601	741.4252	779.0881	809.2778	864.0711	894.0553	897.8184	948.9709	987.8552	1008.8359	1032.2039	1057.7802	1062.8481	1071.95	1093.6166	1138.2098	1158.0118	1166.8829	1190.755	1228.1768	1247.266	1281.098	1294.2576	1307.2398	1320.5162	1329.2921	1335.9677	1358.9832	1393.0456	1399.5341	1412.6184	1449.0854	1470.7835	1482.6283	1484.6909	1494.6395	1499.3981	1505.6954	1514.109	1531.3457	2998.97	3002.4717	3009.9359	3014.2563	3017.1706	3022.1187	3028.3101	3033.8973	3048.2842	3056.7804	3070.328	3078.6882	3086.8547	3094.2789	3100.0618	3164.1124
CCCCCCC1CO1	CCCCCC[C@H]1CO1	
InChI=1S/C8H16O/c1-2-3-4-5-6-8-7-9-8/h8H,2-7H2,1H3	InChI=1S/C8H16O/c1-2-3-4-5-6-8-7-9-8/h8H,2-7H2,1H3/t8-/m0/s1
