20
gdb 89442	3.03582	1.61416	1.30488	2.1693	78.37	-0.1962	0.0835	0.2797	1048.6535	0.170917	-403.098155	-403.090199	-403.089255	-403.130134	31.918	
C	 0.0273905393	 1.4621077538	-0.0277213696	-0.324578
N	-0.0249205526	 0.0120947581	 0.0281858	-0.065296
C	-1.3959154826	-0.5313950965	 0.0433349621	-0.17683
C	-1.3112104512	-1.7376263526	 0.9810439209	 0.39278
C	-2.5889244765	-2.4587668411	 1.3167054675	-0.485733
O	-0.2991347333	-2.6388290067	 0.398316472	-0.332724
C	 0.673561729	-2.0741856615	 1.2716382071	 0.073549
C	 0.6379527891	-0.5619167056	 1.1885422756	-0.023704
C	-0.3194254949	-1.3025030159	 2.0968690206	-0.237025
H	 1.068924236	 1.7966670021	-0.0622066504	 0.118938
H	-0.4612329342	 1.8087015888	-0.9440519487	 0.12105
H	-0.4679898225	 1.9599668002	 0.8281751976	 0.088562
H	-2.1215329493	 0.201577696	 0.4382665725	 0.078045
H	-1.7151145577	-0.8324561596	-0.9604412447	 0.11025
H	-3.0645230536	-2.8370203191	 0.4060585381	 0.130051
H	-2.3848400225	-3.308206436	 1.9733368318	 0.131183
H	-3.2917000592	-1.7864585113	 1.8198607827	 0.11969
H	 1.5391058827	-2.6734954223	 1.5310404858	 0.098843
H	 1.4764279031	-0.0080413572	 1.5944766157	 0.092645
H	-0.5001188492	-1.2026170435	 3.1590208936	 0.090304
114.8525	202.0701	225.8232	251.6383	293.8653	358.5552	364.7181	404.5124	539.7946	612.4772	670.3039	699.7818	761.3957	789.2274	825.8447	856.1675	915.0283	923.7988	960.2305	990.5007	1026.845	1037.8399	1054.1441	1067.2614	1084.9649	1122.1861	1160.4075	1163.2149	1200.8973	1221.0759	1224.1972	1253.3467	1296.3461	1316.7646	1376.1593	1408.2012	1412.9421	1462.0335	1481.2275	1485.0413	1492.2359	1498.757	1505.2277	2918.8569	2948.0979	3038.7459	3059.2756	3061.6243	3101.6404	3107.7705	3122.4498	3172.3605	3184.213	3196.9404
CN1CC2(C)OC3C1C23	CN1C[C@@]2(C)O[C@H]3[C@@H]1[C@@H]23	
InChI=1S/C7H11NO/c1-7-3-8(2)5-4(7)6(5)9-7/h4-6H,3H2,1-2H3	InChI=1S/C7H11NO/c1-7-3-8(2)5-4(7)6(5)9-7/h4-6H,3H2,1-2H3/t4-,5+,6-,7-/m1/s1
