19
gdb 39376	2.22015	1.95348	1.30168	1.6489	84.02	-0.2233	-0.02	0.2033	1029.379	0.161428	-385.875294	-385.867813	-385.866869	-385.906877	30.126	
C	-0.106648691	 1.6755499005	 0.0753863365	-0.266029
C	 1.2620856125	 2.0859179168	 0.6580483263	-0.234902
C	 2.4964357104	 1.7637853107	-0.1511726	 0.059908
O	 2.822331536	 0.4021108091	-0.404494896	-0.245176
C	 2.5993131906	 1.2413291518	-1.5439658471	 0.024719
C	 1.553617312	 0.8937445972	-2.5395033987	-0.08005
C	 0.4864136223	 0.086623965	-2.43084276	-0.107431
C	-0.0812509342	-0.487762278	-1.2159305689	-0.076127
C	-0.3266852912	 0.2000696958	-0.0943580842	-0.039431
H	-0.8762000782	 2.0745887761	 0.7464707601	 0.097677
H	-0.2320747256	 2.1767742569	-0.8899262064	 0.11479
H	 1.2569103811	 3.1716847237	 0.8185038696	 0.101441
H	 1.3942032048	 1.633790246	 1.6496373331	 0.114342
H	 3.3612176397	 2.3562501814	 0.1638642584	 0.085342
H	 3.5320566313	 1.5190809949	-2.0424370687	 0.088576
H	 1.7924765267	 1.2679538731	-3.5330665183	 0.088469
H	-0.024841627	-0.1719134914	-3.3581288081	 0.095668
H	-0.3777607421	-1.5339022971	-1.2671414899	 0.09069
H	-0.7537321283	-0.3295383025	 0.7548303722	 0.087524
137.8528	205.9005	240.0824	267.8359	316.1581	378.0075	413.7185	546.4442	619.6686	623.4162	715.1745	746.8417	785.0828	812.2625	828.3907	878.8648	910.231	954.1865	970.4338	991.4839	1004.4131	1024.696	1067.6997	1082.6257	1127.6257	1160.5344	1213.9065	1257.9654	1263.7901	1274.7799	1323.5277	1353.634	1386.3796	1411.3232	1420.1346	1457.3691	1468.3978	1478.578	1486.6986	1688.1554	1705.4532	3017.0274	3031.1762	3049.2675	3055.3589	3067.7684	3080.1552	3117.4095	3133.6701	3149.8669	3157.3154
C1CC2OC2C=CC=C1	C1C[C@H]2O[C@H]2C=CC=C1	
InChI=1S/C8H10O/c1-2-4-6-8-7(9-8)5-3-1/h1-3,5,7-8H,4,6H2/b2-1-,5-3-	InChI=1S/C8H10O/c1-2-4-6-8-7(9-8)5-3-1/h1-3,5,7-8H,4,6H2/b2-1-,5-3-/t7-,8+/m0/s1
