23
gdb 115730	2.47537	1.19705	0.88112	1.0393	86.76	-0.2422	0.0805	0.3226	1408.4368	0.205309	-388.255182	-388.245546	-388.244602	-388.290385	35.723	
C	 0.1737758791	 1.5383658688	 0.3557694654	-0.236383
O	 0.8010439936	 0.3107668016	 0.0658152159	-0.235392
C	 0.7485769855	-0.6026777682	 1.1271068058	 0.157733
C	-0.5940693515	-1.3207098317	 1.4455904289	-0.255875
C	 0.2108167362	-2.6402767746	 1.6016728261	-0.238092
C	 1.4058447203	-1.983335749	 0.8403833675	-0.069467
C	 1.4915498063	-2.3534806945	-0.6199480529	 0.068808
C	 2.7643660726	-2.1263530238	-1.389857772	-0.264013
C	 2.3354923768	-3.5318853171	-1.0434787171	-0.286517
H	 0.6377411348	 2.0374523142	 1.221803553	 0.101562
H	 0.2872531328	 2.1788045872	-0.52241978	 0.124957
H	-0.8992769019	 1.415110691	 0.5668491685	 0.106479
H	 1.1694156346	-0.148485624	 2.0393674417	 0.058232
H	-1.1752226043	-0.9708244563	 2.3019155268	 0.092595
H	-1.238859952	-1.3379449274	 0.5620474604	 0.10745
H	 0.4514999818	-2.8604497001	 2.6448878163	 0.098132
H	-0.2141510677	-3.5375816919	 1.1466271354	 0.101775
H	 2.3888135247	-2.122724622	 1.3021113258	 0.059297
H	 0.5732340133	-2.2039002135	-1.1806605526	 0.080032
H	 2.6917460213	-1.8018622613	-2.4218185779	 0.108719
H	 3.6100889646	-1.7079025803	-0.8541517677	 0.107705
H	 2.8940276645	-4.0588195196	-0.276207727	 0.105892
H	 1.9689450745	-4.1710152974	-1.8393678606	 0.10637
57.7208	88.7263	97.1243	132.5675	202.1179	219.1493	293.3842	317.9136	380.839	444.7532	554.915	689.7408	747.3626	765.323	811.4946	825.6589	892.2476	921.9666	943.3177	946.9077	956.0555	1018.5337	1034.1754	1057.727	1060.7649	1074.0407	1105.5869	1129.9374	1168.3288	1175.1296	1186.4873	1195.3002	1220.7166	1229.8256	1235.1008	1257.2645	1261.0298	1270.8441	1295.7048	1316.9026	1389.2196	1431.4211	1469.9244	1477.9404	1482.6588	1487.2326	1497.1358	1506.3304	1510.7275	2959.3476	2972.2074	3017.9376	3044.8572	3056.4189	3064.5614	3104.9354	3111.7285	3120.5266	3126.3221	3133.6472	3147.378	3204.1948	3220.6838
COC1CCC1C1CC1	CO[C@H]1CC[C@H]1C1CC1	
InChI=1S/C8H14O/c1-9-8-5-4-7(8)6-2-3-6/h6-8H,2-5H2,1H3	InChI=1S/C8H14O/c1-9-8-5-4-7(8)6-2-3-6/h6-8H,2-5H2,1H3/t7-,8-/m0/s1
