12
gdb 131313	5.56248	1.38889	1.11139	2.9078	61.25	-0.2293	-0.0059	0.2234	973.2461	0.080665	-468.824227	-468.818107	-468.817163	-468.854681	23.817	
O	 0.0766329171	 1.2488435201	-0.0978529035	-0.39715
C	 0.0648842485	-0.0852680343	-0.0562739583	 0.427808
N	 0.007340717	-0.7923493413	-1.1842455991	-0.349622
N	 0.0178802567	-2.0577246005	-0.6582094014	 0.012144
C	-0.0132212868	-3.3866831676	-1.0491490102	-0.108619
C	 0.0310317347	-4.0892423044	 0.1048894593	-0.058676
O	 0.0887725703	-3.2333228408	 1.2024272967	-0.215011
C	 0.0783287652	-1.9989310005	 0.6838621436	 0.50964
N	 0.1111437592	-0.7645760732	 1.1363434656	-0.480106
H	 0.120519393	 1.5542089829	 0.8165462957	 0.316034
H	-0.0622240719	-3.7104989851	-2.0733528463	 0.175943
H	 0.0301633271	-5.1403480154	 0.3270540079	 0.167616
147.9317	319.9726	346.8368	357.6886	411.0431	579.2629	583.3326	615.3747	686.8968	733.269	769.878	787.5452	794.387	864.0454	957.7609	1023.9132	1032.4769	1133.611	1180.0987	1219.8824	1269.7098	1399.1432	1440.1772	1470.7736	1583.2375	1610.2798	1647.3321	3302.3266	3326.8711	3812.7139
OC1=NN2C=COC2=N1	Oc1nn2ccoc2n1	
InChI=1S/C4H3N3O2/c8-3-5-4-7(6-3)1-2-9-4/h1-2H,(H,6,8)	InChI=1S/C4H3N3O2/c8-3-5-4-7(6-3)1-2-9-4/h1-2H,(H,6,8)
