18
gdb 34663	3.21748	1.16728	0.90509	5.0932	81.14	-0.2632	-0.0474	0.2157	1265.8602	0.149503	-401.96801	-401.959828	-401.958884	-402.001273	30.621	
N	 0.0655354826	-1.1239442348	-0.4697272242	-0.335804
C	 0.011830233	 0.0115262543	-0.2437019226	 0.219878
C	 0.000527382	 1.4147987586	 0.032470415	 0.141503
C	-1.1694592921	 2.073606476	 0.0104667427	-0.114527
C	-1.3772771029	 3.5504507252	 0.2154933232	-0.266594
C	-0.6273375935	 4.1918220451	 1.394516661	-0.198199
C	 0.895932002	 4.1627219435	 1.2796689775	-0.069665
O	 1.4493492042	 2.8672671817	 1.4242240279	-0.226143
C	 1.3715137839	 2.0428336466	 0.2877465781	-0.183065
H	-2.0609060571	 1.4909419691	-0.2060997909	 0.120073
H	-1.0927074409	 4.0709394369	-0.7128956221	 0.125817
H	-2.4493040095	 3.7340255405	 0.3360593203	 0.117502
H	-0.9425515079	 5.2394751359	 1.4742466049	 0.10305
H	-0.9142055589	 3.6964443208	 2.3285589983	 0.118875
H	 1.216562676	 4.6064741947	 0.321379101	 0.087328
H	 1.335939069	 4.760694687	 2.0839209137	 0.113975
H	 2.1016163068	 1.2445422346	 0.4411098466	 0.135461
H	 1.6782043833	 2.6005055643	-0.6141461604	 0.110534
50.3701	150.5612	171.2622	224.9394	305.8371	351.109	391.4652	424.7327	502.7593	554.2507	585.1051	598.4124	785.2502	821.4584	866.2635	903.9132	928.886	968.0565	1001.4154	1041.8822	1103.3454	1108.5858	1125.2764	1191.998	1215.2856	1274.7163	1289.0958	1335.5935	1365.7546	1373.4209	1393.745	1406.419	1424.6948	1471.0865	1475.1616	1480.6006	1496.3372	1692.7812	2329.7294	2956.31	2962.8224	2989.8173	3032.2487	3074.7239	3077.1844	3083.6001	3099.0251	3166.8259
N#CC1=CCCCOC1	N#CC1=CCCCOC1	
InChI=1S/C7H9NO/c8-5-7-3-1-2-4-9-6-7/h3H,1-2,4,6H2	InChI=1S/C7H9NO/c8-5-7-3-1-2-4-9-6-7/h3H,1-2,4,6H2
