16
gdb 23060	2.38371	1.44805	1.03428	1.8966	70.22	-0.2308	-0.0152	0.2156	1143.3494	0.121544	-474.925768	-474.917054	-474.916109	-474.959157	32.342	
O	-0.0207027669	 1.190534588	 0.2445110319	-0.384405
N	 0.0173094134	-0.2097503496	 0.312874444	-0.267045
C	-1.1033299847	-0.7211833184	 0.0187919003	 0.28026
C	-2.514372697	-0.3196075207	-0.3432820742	-0.164937
O	-2.9072194976	-1.7204986874	-0.2916131842	-0.320878
C	-1.5726218635	-2.1184722572	 0.0523809008	 0.330339
C	-0.8854797518	-3.3804923009	-0.3901621813	-0.3856
C	-1.1566018223	-3.1336235764	 1.0821301445	 0.057248
O	-0.1406967414	-2.8350553476	 1.9805392598	-0.425249
H	 0.8868234231	 1.436086586	 0.4557709403	 0.313286
H	-3.0362060612	 0.2933414788	 0.3996430635	 0.140035
H	-2.6463996099	 0.1114888443	-1.3416183264	 0.137457
H	-1.5045424733	-4.1207573542	-0.8868453992	 0.13443
H	 0.1302530847	-3.2873390124	-0.7621105242	 0.132276
H	-1.9442333517	-3.7268686169	 1.5371202471	 0.123627
H	 0.2572165999	-1.9886475952	 1.7296636873	 0.299158
97.1819	122.4827	144.3765	243.6497	257.6435	292.4	338.2628	369.7385	437.006	464.5177	505.501	561.5224	654.2201	767.7945	830.4698	865.6605	918.4188	965.9285	982.0065	998.5238	1020.8922	1033.9945	1077.4139	1105.0844	1129.9635	1153.0411	1219.454	1307.4856	1331.7375	1364.829	1422.0897	1433.1464	1468.1218	1497.1658	1801.9945	3037.4134	3086.4607	3125.4414	3162.8707	3223.2319	3716.909	3815.665
ON=C1COC11CC1O	ON=C1CO[C@]21C[C@H]2O	
InChI=1S/C5H7NO3/c7-4-1-5(4)3(6-8)2-9-5/h4,7-8H,1-2H2	InChI=1S/C5H7NO3/c7-4-1-5(4)3(6-8)2-9-5/h4,7-8H,1-2H2/t4-,5+/m1/s1
