17
gdb 19866	3.7197	2.27288	2.01326	2.4053	66.25	-0.2197	0.0742	0.2939	745.3287	0.145479	-363.81383	-363.807741	-363.806797	-363.843874	24.672	
C	 0.198881031	 1.2286813963	 0.3795668162	-0.064216
C	 1.4866011036	 1.8808587051	-0.187267566	-0.242949
C	 2.1719289892	 0.7480944814	-0.9648354674	-0.055975
C	 3.1032755138	-0.2309753022	-0.2249450735	-0.060917
N	 2.4194916382	-0.5990862544	 1.0347088785	-0.335219
C	 2.0626534022	-1.3012314019	-0.2238286145	-0.079698
C	 1.0970836759	-0.38690923	-1.0135497248	 0.1225
O	-0.0861903397	 0.0750580112	-0.4236225966	-0.266256
H	 0.347741323	 0.9304656292	 1.420797245	 0.117958
H	-0.6734530226	 1.8878434262	 0.3153947405	 0.09152
H	 1.2372577247	 2.7019672542	-0.8655685058	 0.100275
H	 2.1111167407	 2.2802424895	 0.6152174223	 0.108735
H	 2.5562865745	 1.050662969	-1.9393378871	 0.075358
H	 4.1789707286	-0.3127474415	-0.318505251	 0.091033
H	 3.042890369	-1.2199512326	 1.5493117565	 0.23026
H	 2.1653507176	-2.3771961393	-0.2980840296	 0.088448
H	 0.8695062003	-0.7913620904	-2.0037735327	 0.079142
147.1626	212.535	274.2025	440.5504	578.7467	623.3322	695.6839	737.4622	786.6324	816.9164	854.1751	875.2217	903.5769	910.4977	945.0713	965.8307	992.7122	1019.7257	1066.5107	1081.215	1103.3577	1118.5804	1137.4869	1171.1638	1222.6882	1227.7895	1250.1401	1260.8596	1306.1636	1315.1182	1340.7347	1365.589	1378.6953	1403.1561	1480.1307	1515.8595	3041.2175	3058.1808	3071.5053	3087.7277	3105.8361	3116.0367	3180.407	3195.6277	3476.2905
C1CC2C3NC3C2O1	C1C[C@H]2[C@H]3N[C@H]3[C@H]2O1	
InChI=1S/C6H9NO/c1-2-8-6-3(1)4-5(6)7-4/h3-7H,1-2H2	InChI=1S/C6H9NO/c1-2-8-6-3(1)4-5(6)7-4/h3-7H,1-2H2/t3-,4+,5+,6-/m0/s1
