18
gdb 109290	3.35844	1.07301	0.84993	3.1305	76.21	-0.2446	0.0124	0.257	1330.3373	0.147702	-439.09587	-439.086938	-439.085994	-439.130401	32.207	
O	 0.1060637136	 1.3867082837	 0.127450345	-0.413646
C	-0.0037608319	-0.0215381838	 0.1044047151	-0.160342
C	-1.4423113023	-0.4283338453	-0.0184825652	 0.275617
C	-2.4588842572	 0.4268965098	-0.0360886996	-0.16767
C	-3.8656920406	-0.0692824004	-0.1612119813	-0.12776
O	-4.0758686515	-1.3876307237	 0.3695145789	-0.248185
C	-3.0668920348	-2.2950321804	 0.4250743422	 0.394894
N	-3.2340571858	-3.4412067296	 0.9394017469	-0.517685
C	-1.7266701598	-1.9023281846	-0.1555973653	-0.392002
H	 1.0294570052	 1.6146573203	 0.264654645	 0.293457
H	 0.5620206771	-0.4576616585	-0.7388370187	 0.09897
H	 0.4144152683	-0.4763478925	 1.0199618886	 0.105161
H	-2.2972348756	 1.4962508935	 0.0249516633	 0.119396
H	-4.5594157226	 0.5731830961	 0.3902410127	 0.127905
H	-4.1944037686	-0.0655356759	-1.2122892004	 0.120221
H	-4.1976196709	-3.5381389955	 1.2668836601	 0.215644
H	-1.7159899225	-2.181480411	-1.2204450997	 0.137787
H	-0.9689342603	-2.5240352523	 0.3273589825	 0.138238
48.6031	98.2232	107.0225	198.6676	211.4167	231.5913	363.9146	431.4015	441.581	489.8188	564.9214	597.7639	738.0332	816.6056	816.6511	888.5628	905.2511	951.3231	990.9981	1031.8413	1046.0286	1066.4999	1089.5487	1157.3691	1167.4438	1210.3529	1227.922	1252.1226	1260.9683	1304.5879	1320.5452	1367.5945	1431.3204	1462.8795	1466.1238	1505.6932	1506.1414	1744.5799	1760.03	2939.2547	2955.431	2982.8971	2996.7656	3071.441	3099.677	3211.0292	3461.0358	3844.327
OCC1=CCOC(=N)C1	OCC1=CCO[C]([NH])C1	
InChI=1S/C6H9NO2/c7-6-3-5(4-8)1-2-9-6/h1,7-8H,2-4H2	InChI=1S/C6H9NO2/c7-6-3-5(4-8)1-2-9-6/h1,7-8H,2-4H2
