19
gdb 107304	2.91818	1.21046	1.0136	1.8911	76.8	-0.2366	0.0048	0.2414	1240.5338	0.158258	-423.018608	-423.009838	-423.008894	-423.051991	33.338	
C	-0.0303964652	 1.4635944375	 0.0489458149	-0.486208
C	-0.0605910519	-0.027779883	-0.0435721753	 0.312699
C	 0.0344532508	-0.7758115977	-1.1511436174	-0.191646
C	 0.0566683351	-2.2254335559	-0.8083487745	-0.071054
O	 1.1812482074	-2.6105268646	 0.0265122483	-0.302972
C	-0.0673846825	-2.3232625365	 0.6613748791	 0.372613
C	-0.7155665623	-3.4741784157	 1.3926321392	-0.166013
O	-2.0997919217	-3.2548492688	 1.62302313	-0.408128
C	-0.1756391295	-0.8984537644	 1.1979546698	-0.373739
H	 0.8393874231	 1.8054654023	 0.6242337661	 0.132718
H	 0.0147223015	 1.9278466442	-0.9398121262	 0.12579
H	-0.9172124629	 1.846305778	 0.5698830272	 0.127089
H	 0.1257660658	-0.3968340155	-2.162061914	 0.094353
H	-0.2764288074	-2.9969806741	-1.4975466329	 0.08919
H	-0.5233431245	-4.4020350518	 0.8351523314	 0.100814
H	-0.2664737889	-3.5891680916	 2.385593961	 0.11688
H	-2.5304744988	-3.1890427276	 0.764147243	 0.284861
H	 0.6169422441	-0.6813341362	 1.924751543	 0.119615
H	-1.1344133922	-0.7542436986	 1.7117810075	 0.123142
90.3412	111.5859	179.0507	214.3333	238.9792	325.8748	342.5765	391.7526	425.5067	480.9526	525.4018	569.3563	686.1706	744.9472	821.225	863.263	880.5868	900.6719	948.7456	970.5083	992.0957	1032.29	1058.2325	1073.8862	1095.8795	1165.4894	1179.0994	1191.4958	1240.8184	1278.2293	1318.3714	1344.0188	1362.4983	1413.1031	1416.1044	1442.7281	1459.1454	1478.9608	1486.3626	1503.1587	1695.3669	3005.3844	3018.158	3030.0861	3064.2507	3066.6766	3069.1593	3112.6165	3148.6019	3203.1634	3809.9431
CC1=CC2OC2(CO)C1	CC1=C[C@H]2O[C@@]2(CO)C1	
InChI=1S/C7H10O2/c1-5-2-6-7(3-5,4-8)9-6/h2,6,8H,3-4H2,1H3	InChI=1S/C7H10O2/c1-5-2-6-7(3-5,4-8)9-6/h2,6,8H,3-4H2,1H3/t6-,7-/m1/s1
