20
gdb 22417	3.51823	1.09339	0.96896	0.5051	83.89	-0.238	0.0103	0.2482	1279.6363	0.170324	-403.065056	-403.056214	-403.05527	-403.099191	33.554	
C	-0.0073145988	 1.4887523366	-0.0138977072	-0.483519
C	 0.0204716405	-0.0166107811	-0.0097691943	 0.191093
N	 0.0618570432	-0.7299250226	 1.0521094206	-0.175876
O	 0.077935449	 0.069472085	 2.2076452724	-0.39934
C	-0.0002632095	-0.7563787424	-1.2956528998	 0.335121
C	 1.0422541912	-0.6586307428	-2.4635315177	-0.253877
C	-0.0270553718	-1.6822299749	-2.9368931729	-0.054696
C	 0.0218857519	-2.295114846	-1.5068913614	-0.251159
C	-1.1059855767	-0.6973607254	-2.4066099561	-0.25389
H	 0.8761617889	 1.8875423858	 0.4948291816	 0.146844
H	-0.0410244074	 1.8817948365	-1.0313564939	 0.118078
H	-0.8772368658	 1.8552865296	 0.540427338	 0.146836
H	 0.1088598863	-0.5906300853	 2.907960344	 0.305388
H	 1.0885656474	 0.2905911715	-3.0051340268	 0.088735
H	 2.0408998503	-1.0486488437	-2.2485152576	 0.094685
H	-0.0424608317	-2.2203462888	-3.8844680729	 0.073373
H	 0.9422986808	-2.8085868923	-1.2188419899	 0.094397
H	-0.862900879	-2.8411283436	-1.1710191187	 0.09439
H	-2.077155699	-1.1228889568	-2.1394141647	 0.094681
H	-1.2150588195	 0.249058761	-2.9440986227	 0.088736
55.7504	72.2981	150.9841	152.2681	282.3623	363.4898	397.4318	422.5496	432.0601	535.8843	557.6803	579.0521	726.6235	788.6972	804.8087	878.746	914.2388	939.3649	956.8613	960.8677	975.2496	995.273	1034.1474	1042.2723	1094.9577	1099.8017	1131.5657	1135.658	1140.7872	1160.4505	1167.0876	1232.1855	1236.2712	1248.0004	1339.965	1398.4991	1415.0661	1474.3562	1486.5206	1496.5604	1497.99	1553.8133	1712.8799	3043.5794	3044.7189	3047.8797	3060.1299	3101.988	3110.2922	3114.1931	3115.1402	3124.8918	3138.2421	3821.3532
CC(=NO)C12CC(C1)C2	CC(=NO)[C@@]12C[C@@H](C1)C2	
InChI=1S/C7H11NO/c1-5(8-9)7-2-6(3-7)4-7/h6,9H,2-4H2,1H3	InChI=1S/C7H11NO/c1-5(8-9)7-2-6(3-7)4-7/h6,9H,2-4H2,1H3/t6-,7-
