16
gdb 96792	3.02965	1.42366	1.03846	1.4559	73.69	-0.2522	-0.0232	0.229	1126.577	0.125292	-434.085439	-434.077482	-434.076538	-434.118445	29.283	
C	-0.0723159925	 1.3968640711	-0.0331449882	-0.342209
N	 0.0230162493	-0.053945986	-0.0551988924	-0.298522
C	 0.5931789549	-0.6255265208	 0.9112500277	 0.430461
N	 1.1933311573	-0.0682501915	 2.0498009031	-0.384193
C	 1.7479341874	-1.0108214291	 2.9069247435	 0.43219
O	 2.3853757007	-0.7867835585	 3.9041225134	-0.355725
C	 1.4019989873	-2.3315143278	 2.2734344801	-0.163977
C	-0.0482518035	-2.6260405209	 2.1011250902	-0.243598
N	 0.7305820883	-2.0530975366	 0.9876521031	-0.136813
H	 0.9166765644	 1.8789219608	-0.0026235906	 0.11768
H	-0.5756562382	 1.7382236862	-0.9402203192	 0.137493
H	-0.6527693223	 1.766069316	 0.8259862003	 0.11419
H	 1.236638566	 0.9199485311	 2.2424658254	 0.272428
H	 2.1382027917	-3.1258083862	 2.3102671471	 0.134587
H	-0.3596652612	-3.653908364	 1.9491553921	 0.144942
H	-0.7698703697	-1.9870104538	 2.6024091641	 0.141067
67.3304	122.8306	170.7975	200.9631	261.4101	362.0905	436.1997	512.1675	563.6464	627.3206	651.8831	741.4889	766.2293	812.005	838.307	882.6139	949.2072	1014.3064	1048.8366	1075.9454	1107.8089	1110.9556	1142.5658	1160.4435	1173.6201	1265.007	1317.6703	1351.9938	1361.7052	1438.3362	1493.1159	1504.2621	1511.1653	1795.135	1861.1745	2976.7707	3026.1617	3110.3016	3122.5628	3191.312	3219.0976	3650.129
CN=C1NC(=O)C2CN12	CN=C1NC(=O)[C@H]2CN12	
InChI=1S/C5H7N3O/c1-6-5-7-4(9)3-2-8(3)5/h3H,2H2,1H3,(H,6,7,9)	InChI=1S/C5H7N3O/c1-6-5-7-4(9)3-2-8(3)5/h3H,2H2,1H3,(H,6,7,9)/t3-,8?/m1/s1
