15
gdb 47390	2.55796	1.47303	1.21554	5.5577	65.57	-0.2698	0.0003	0.2701	1039.5628	0.114681	-454.00135	-453.99352	-453.992575	-454.034334	28.484	
O	 0.0097024653	-0.0660680068	 0.1374895226	-0.37287
C	-0.0505782861	 1.1302800711	 0.0456823443	 0.476587
N	-1.2109228665	 1.8479658732	 0.0968193833	-0.362706
C	-1.3696487213	 3.2915964615	 0.0175337871	-0.164551
C	-0.0429531274	 3.9497639862	 0.374874575	-0.239757
C	 1.0775432123	 3.2427723303	-0.3921159984	-0.024311
O	 1.1171545918	 1.8498593065	-0.08468776	-0.244871
C	 0.9493981362	 3.4480569969	-1.8494375984	 0.285192
N	 0.8352312757	 3.6320422951	-2.9840872892	-0.314088
H	-2.0310353193	 1.2649696174	 0.1427977629	 0.267151
H	-1.6812463046	 3.5984376615	-0.990192727	 0.140196
H	-2.1518411548	 3.6074530088	 0.7150254868	 0.126965
H	-0.0589733482	 5.0144526581	 0.1306445977	 0.138721
H	 0.1682325539	 3.8398892303	 1.4426151752	 0.136836
H	 2.055232843	 3.6276128899	-0.087912712	 0.151506
72.3796	95.7627	160.7189	224.9287	322.5673	421.1469	445.6947	489.9188	521.4828	603.861	621.3517	730.1287	755.8179	793.9189	875.3309	925.8479	967.5672	1008.0472	1086.8188	1105.5502	1115.7294	1237.9902	1245.9608	1297.7766	1327.1852	1371.8144	1383.753	1416.7329	1470.7261	1487.3553	1528.71	1864.3334	2359.5574	3014.081	3062.362	3074.2938	3080.1669	3122.9275	3648.9341
O=C1NCCC(O1)C#N	O=C1NCC[C@@H](O1)C#N	
InChI=1S/C5H6N2O2/c6-3-4-1-2-7-5(8)9-4/h4H,1-2H2,(H,7,8)	InChI=1S/C5H6N2O2/c6-3-4-1-2-7-5(8)9-4/h4H,1-2H2,(H,7,8)/t4-/m1/s1
