21
gdb 101455	3.71422	0.95753	0.90291	1.0206	80.32	-0.2322	0.0163	0.2485	1373.7333	0.18152	-424.224637	-424.214977	-424.214032	-424.259519	35.24	
C	 0.0152904757	 1.5745399562	 0.043943507	-0.399467
C	-0.016443951	 0.0432703207	 0.0081044323	 0.021533
C	-1.4527121925	-0.4846973602	-0.0098439361	-0.081928
O	-2.0901792292	-0.0844285706	 1.196847599	-0.42621
C	 0.7686329671	-0.5480012912	-1.1783203702	 0.081552
O	 0.1956303925	-0.1220469512	-2.4233366239	-0.281263
C	 1.2018046623	 0.4047800066	-3.2839190155	-0.115347
C	 2.459088973	 0.4046845694	-2.4603916911	-0.096755
C	 2.2134858782	-0.1344095729	-1.2727030713	-0.096855
H	 1.0318246787	 1.9521357391	 0.1862465117	 0.10648
H	-0.3683000328	 1.9837148851	-0.8960138899	 0.119338
H	-0.6106417981	 1.9401131834	 0.8603179549	 0.129886
H	 0.4532040273	-0.3482175657	 0.9219207508	 0.07658
H	-1.9735155518	-0.0862831004	-0.8923151245	 0.103168
H	-1.4407540852	-1.5834590913	-0.099956544	 0.0779
H	-3.0270940496	-0.2848916927	 1.1206413796	 0.285355
H	 0.6912264108	-1.6489233875	-1.1151294949	 0.074413
H	 1.2974373628	-0.2228007487	-4.185548937	 0.10297
H	 0.9109545643	 1.4114605638	-3.6201015112	 0.106981
H	 3.4062750902	 0.7828171767	-2.8235573374	 0.106272
H	 2.9198290175	-0.2878743186	-0.4666189382	 0.105394
69.2349	83.8105	116.4818	174.0993	202.5524	236.1454	253.5363	297.1734	340.4056	394.4968	469.1772	639.6633	703.7442	772.2239	814.3813	840.0653	896.4751	924.6945	934.7745	958.4772	960.0233	1029.4377	1045.2016	1050.9356	1084.6547	1111.5551	1119.209	1132.4967	1178.6611	1199.8089	1232.8847	1272.5974	1301.4977	1329.4901	1332.4573	1365.5282	1379.5793	1389.0016	1407.3733	1453.7853	1492.2165	1505.4602	1521.3802	1522.1456	1691.3454	2927.8027	2963.8435	2966.0772	2997.2619	3005.625	3025.3912	3045.309	3110.6196	3134.6606	3205.4332	3230.0712	3835.5859
CC(CO)C1OCC=C1	C[C@@H](CO)[C@H]1OCC=C1	
InChI=1S/C7H12O2/c1-6(5-8)7-3-2-4-9-7/h2-3,6-8H,4-5H2,1H3	InChI=1S/C7H12O2/c1-6(5-8)7-3-2-4-9-7/h2-3,6-8H,4-5H2,1H3/t6-,7-/m0/s1
