16
gdb 88225	3.87357	0.71938	0.65631	5.713	78.67	-0.2455	-0.0406	0.205	1668.5645	0.12325	-437.86339	-437.853914	-437.852969	-437.899692	33.151	
N	-0.1768270751	 1.3163277412	-0.0364682611	-0.522196
H	 2.7041963917	-1.8482261517	 0.8691140523	 0.303931
H	-0.8599211397	 0.9811671042	-0.7080452392	 0.235443
H	 0.5326073202	 0.5987127177	 0.0673721863	 0.227281
C	-0.7995322004	 1.6065368587	 1.2247503267	 0.045959
C	-1.4565842542	 0.572878761	 2.0969383811	-0.300786
C	-0.1146118059	 1.1818087888	 2.5192936546	-0.204213
C	 1.0649760262	 0.3808100316	 2.4780583599	 0.095352
C	 2.076030643	-0.2828798045	 2.4554181399	-0.06959
C	 3.2971074899	-1.0569038214	 2.5023911554	 0.344988
O	 4.1199397668	-0.9762512256	 3.3717363158	-0.293862
O	 3.4617427756	-1.9157964626	 1.4635151056	-0.360228
H	-1.2300799151	 2.6039559662	 1.2683673914	 0.113303
H	-2.3230115541	 0.844296516	 2.6900123034	 0.12775
H	-1.4311592006	-0.4578036636	 1.7616863767	 0.124816
H	-0.1440288184	 1.899051584	 3.3333249613	 0.132053
21.2689	70.9408	93.5224	139.4243	166.3797	227.7155	353.1216	402.3988	407.1864	491.2617	557.956	599.7896	624.9195	723.53	761.4378	770.5171	823.9006	838.9156	892.5333	979.1068	1022.4555	1051.3678	1115.7647	1135.5899	1147.2792	1200.891	1246.2555	1279.1235	1316.2322	1379.7742	1417.1734	1477.1514	1652.8914	1845.1308	2319.2722	3135.9786	3137.7863	3160.727	3232.0218	3501.9921	3583.3408	3796.6781
[NH3+]C1CC1C#CC([O-])=O	N[C@H]1C[C@H]1C#CC(=O)O	
InChI=1S/C6H7NO2/c7-5-3-4(5)1-2-6(8)9/h4-5H,3,7H2,(H,8,9)	InChI=1S/C6H7NO2/c7-5-3-4(5)1-2-6(8)9/h4-5H,3,7H2,(H,8,9)/t4-,5+/m1/s1
