21
gdb 92631	3.26727	1.23435	1.06448	1.0695	77.01	-0.2393	0.0694	0.3088	1190.908	0.185414	-424.245986	-424.23803	-424.237086	-424.278566	31.633	
O	-0.0254730216	 1.4449391792	 0.040361226	-0.435643
C	 0.0149370329	 0.0344724221	-0.0907996939	 0.133218
C	-1.405867824	-0.5340538018	-0.0413968192	-0.231245
C	-1.2707622362	-1.9580269143	-0.6145805455	-0.033308
C	-2.4122701882	-2.4193458756	-1.5401681899	-0.235135
C	-1.9048202983	-1.9874758772	-2.9207943821	-0.085005
O	-0.5022653309	-2.2146678255	-2.8859924318	-0.261665
C	-0.0316312131	-1.904880951	-1.5758188407	 0.119282
C	 0.5422406712	-0.476852339	-1.4421789078	-0.271704
H	 0.8781852968	 1.7741593743	 0.0127143647	 0.281646
H	 0.6098293503	-0.407030042	 0.7270004261	 0.062537
H	-1.8411173846	-0.5093687234	 0.9607330336	 0.099986
H	-2.0346461021	 0.0910446088	-0.6882174978	 0.105559
H	-1.1029207166	-2.6744053317	 0.1934135887	 0.072669
H	-2.5176055112	-3.5080789108	-1.5089845639	 0.104118
H	-3.3777415012	-1.9757237589	-1.2815335781	 0.100922
H	-2.3177927352	-2.5681294922	-3.750034435	 0.107346
H	-2.1293197153	-0.9236587464	-3.105623597	 0.088422
H	 0.7210347872	-2.6605360185	-1.3312073687	 0.076031
H	 0.124254447	 0.1544769458	-2.2344958912	 0.113385
H	 1.6324807029	-0.4443630921	-1.5289433466	 0.088582
88.415	115.0389	231.5246	266.0753	302.5121	395.2772	433.1544	474.5649	513.0328	561.6922	635.3104	708.5601	800.3307	852.7025	884.1765	909.4494	922.391	944.8623	985.5328	998.6458	1035.0209	1051.1415	1059.4649	1087.8409	1099.2357	1133.2077	1180.0345	1194.8071	1220.3424	1235.9975	1252.787	1256.1207	1293.4761	1306.3736	1313.5012	1335.4964	1350.9496	1365.9733	1381.316	1399.2093	1435.5682	1485.4983	1487.5811	1501.6909	1522.4025	2951.7335	2965.153	3033.2418	3044.5958	3048.8001	3052.1226	3072.2301	3089.3981	3094.2693	3100.6686	3105.5653	3821.0994
OC1CC2CCOC2C1	O[C@H]1C[C@H]2CCO[C@H]2C1	
InChI=1S/C7H12O2/c8-6-3-5-1-2-9-7(5)4-6/h5-8H,1-4H2	InChI=1S/C7H12O2/c8-6-3-5-1-2-9-7(5)4-6/h5-8H,1-4H2/t5-,6+,7+/m1/s1
