19
gdb 70932	3.51659	1.48364	1.28357	1.1588	75.82	-0.2348	0.0624	0.2972	1041.5987	0.159034	-422.937933	-422.930188	-422.929244	-422.969863	30.842	
C	-0.1563169864	 1.4743996603	-0.0377686765	-0.519678
C	 0.0726958658	-0.0032568913	-0.0303134843	 0.342838
C	 0.5591865301	-0.9582738924	-1.1276525658	-0.308551
C	 0.0142515783	-1.8028197731	 0.0571356423	 0.417195
C	 0.3973798646	-3.2145593174	 0.3930789106	-0.397945
C	 1.8895473686	-2.9054451248	 0.824306137	-0.068603
O	 2.043506565	-1.4738939411	 1.0763623845	-0.291447
C	 0.7398223732	-0.940533313	 1.050666418	 0.065972
O	-1.1519655758	-0.8896360264	 0.1395007325	-0.403598
H	 0.7982675379	 1.9957017615	-0.1595091074	 0.133593
H	-0.8165756869	 1.7603057739	-0.8621699018	 0.134478
H	-0.6111480009	 1.7981148729	 0.9030125374	 0.135022
H	-0.0555559335	-0.9807913951	-2.0285097737	 0.099939
H	 1.6311122916	-0.9942187403	-1.3272281398	 0.110778
H	-0.1837333809	-3.5973462053	 1.2367309671	 0.126116
H	 0.355738252	-3.9344092271	-0.4272380404	 0.115907
H	 2.1587465335	-3.4570255596	 1.7310422758	 0.114767
H	 2.5939182618	-3.1762885066	 0.0318931742	 0.11682
H	 0.2866687818	-0.8465614451	 2.0437745203	 0.076395
109.5797	192.4407	209.7746	226.2078	316.5807	362.7734	462.6576	516.3731	555.2409	624.5363	684.8423	690.7202	731.7048	830.9389	858.349	896.3429	910.7734	924.0019	958.7477	984.6634	1033.9949	1070.498	1079.8082	1099.1608	1138.8862	1151.9073	1160.2732	1189.3044	1215.0507	1249.5225	1270.4201	1278.8678	1318.0212	1377.2435	1385.0878	1412.8265	1476.3211	1486.9803	1488.6054	1494.0205	1516.1956	3039.9882	3042.1595	3051.069	3064.8676	3077.4713	3084.9557	3114.9585	3117.1012	3120.1901	3154.6858
CC12CC3(CCOC13)O2	C[C@@]12C[C@]3(CCO[C@@H]13)O2	
InChI=1S/C7H10O2/c1-6-4-7(9-6)2-3-8-5(6)7/h5H,2-4H2,1H3	InChI=1S/C7H10O2/c1-6-4-7(9-6)2-3-8-5(6)7/h5H,2-4H2,1H3/t5-,6+,7-/m0/s1
