17
gdb 31670	5.73305	0.82621	0.76198	3.6496	79.15	-0.2335	-0.0468	0.1867	1487.4336	0.135525	-421.877557	-421.868928	-421.867984	-421.911602	30.849	
C	 0.160349726	 1.5496332695	-0.1594900821	-0.374313
C	-0.0773786537	 0.0499066014	 0.088936474	-0.292317
C	 0.5554686327	-0.4523341721	 1.3398118178	 0.395424
C	 0.0800817467	-0.9746263591	 2.4989894729	-0.415042
C	 1.2225814999	-1.258550202	 3.3290356616	 0.167968
C	 1.2477784545	-1.8325149105	 4.6743284399	 0.070121
O	 2.2539077202	-2.0446610978	 5.3152089608	-0.276243
C	 2.3123491685	-0.8783241553	 2.5948678778	-0.074657
O	 1.9300176167	-0.3925470088	 1.3993513956	-0.175804
H	 1.2297155215	 1.7671834815	-0.2268928044	 0.134578
H	-0.3110194047	 1.8633047662	-1.0953160967	 0.11849
H	-0.2562781906	 2.1516241501	 0.6535162595	 0.124974
H	-1.1501146743	-0.1576113868	 0.1531017909	 0.119219
H	 0.3023886306	-0.5239977636	-0.7662035386	 0.122838
H	-0.95720909	-1.1443392183	 2.7442916277	 0.121329
H	 0.2436824333	-2.0722598537	 5.0901855621	 0.067738
H	 3.3701026327	-0.9006037806	 2.7971392113	 0.165698
54.9437	92.3496	154.6565	177.2203	223.1605	253.3825	340.4349	375.4563	492.2123	626.1248	654.7227	702.7934	771.0311	783.73	799.864	833.2427	931.686	972.0499	1013.776	1040.7808	1068.2515	1089.1747	1151.3423	1190.1904	1217.3971	1288.4223	1303.4606	1355.9575	1375.0324	1408.9524	1452.611	1474.3256	1496.5964	1506.3776	1571.4159	1639.8029	1790.2707	2880.4007	3027.0743	3044.1353	3082.2137	3116.5505	3124.2157	3253.1699	3287.6857
CCC1=CC(C=O)=CO1	CCc1cc(C=O)co1	
InChI=1S/C7H8O2/c1-2-7-3-6(4-8)5-9-7/h3-5H,2H2,1H3	InChI=1S/C7H8O2/c1-2-7-3-6(4-8)5-9-7/h3-5H,2H2,1H3
