20
gdb 13417	5.5244	1.00072	0.89392	1.3663	71.42	-0.2493	0.0795	0.3288	1310.1675	0.177834	-386.144456	-386.135705	-386.13476	-386.179	31.102	
O	-0.1330536728	 1.47454721	 0.1482062667	-0.423804
C	-0.031439371	 0.0754481587	-0.08083444	-0.077444
C	-1.4182478922	-0.5261209033	 0.1086994035	-0.197634
C	-1.4399047436	-2.0382773023	-0.0448279084	 0.146012
C	-2.8300181927	-2.6984098819	 0.1178657076	-0.243653
C	-2.8409591763	-3.8180101568	-0.9554240384	-0.219664
C	-1.4348188682	-3.7183754125	-1.5814262805	-0.073794
O	-1.0146953384	-2.3829606252	-1.3621540188	-0.258065
H	 0.719252525	 1.8719405158	-0.0514607365	 0.28424
H	 0.3262016726	-0.1440352602	-1.096107373	 0.106895
H	 0.6748523306	-0.3923166652	 0.6257634952	 0.078505
H	-1.7849043853	-0.2613115807	 1.1074949408	 0.104641
H	-2.1060687827	-0.0804954149	-0.6191218892	 0.107989
H	-0.7404113802	-2.4914305787	 0.6814541014	 0.05681
H	-2.9722197091	-3.0838322542	 1.130515247	 0.102129
H	-3.6222722525	-1.9679249408	-0.0693417492	 0.105919
H	-3.0313741178	-4.8085238118	-0.5349185688	 0.101298
H	-3.6105606022	-3.6259529676	-1.7070980729	 0.109333
H	-0.7424030681	-4.4244219242	-1.0929051009	 0.084675
H	-1.4126530651	-3.9079581443	-2.6576139456	 0.105611
34.8239	91.0245	102.8881	154.21	214.8603	257.9857	336.6813	371.2968	502.6511	648.0919	661.7087	791.1581	811.7636	870.2141	918.6087	921.2318	966.3638	997.7443	1032.3844	1053.1596	1073.8405	1112.1352	1127.8711	1152.2195	1206.0966	1225.8367	1237.7824	1254.8004	1267.1071	1290.6509	1314.9473	1317.933	1329.5972	1360.4186	1396.5886	1413.4372	1459.8878	1479.1224	1488.7008	1505.2419	1520.9842	1528.8555	2927.8943	2959.6182	2963.4493	3023.4452	3037.5678	3056.1985	3067.9612	3084.2297	3089.9359	3098.2265	3117.2412	3831.3731
OCCC1CCCO1	OCC[C@H]1CCCO1	
InChI=1S/C6H12O2/c7-4-3-6-2-1-5-8-6/h6-7H,1-5H2	InChI=1S/C6H12O2/c7-4-3-6-2-1-5-8-6/h6-7H,1-5H2/t6-/m1/s1
