13
gdb 45608	3.50233	1.2786	0.94208	4.7451	76.1	-0.2397	-0.1006	0.1391	1144.7563	0.087584	-419.433844	-419.425969	-419.425025	-419.4666	28.828	
O	 0.0116449859	 0.004241907	 0.0048181599	-0.268471
C	-0.0380975266	 1.2015525095	 0.0112048954	 0.332238
C	-1.2813783511	 2.0882153188	 0.0318805749	-0.381989
C	-0.7115418025	 3.4790802669	 0.0304270703	-0.176307
C	 0.6402684975	 3.5316923193	 0.012377056	 0.05873
C	 1.4533552838	 4.6868577463	 0.006433439	 0.242947
C	 2.1796947382	 5.6465092337	 0.0008260016	-0.389355
C	 1.1984908519	 2.1472680764	-0.0012169429	 0.206046
O	 2.3467256302	 1.7934194971	-0.0187461359	-0.276869
H	-1.9186667661	 1.8873623186	-0.8384412396	 0.157256
H	-1.8950376985	 1.8795056196	 0.9172055409	 0.157241
H	-1.3433670117	 4.3601153325	 0.0428282376	 0.133293
H	 2.8212393192	 6.493139414	-0.0040663571	 0.20524
68.685	130.6982	168.7566	267.8899	316.275	383.1786	422.5371	484.7585	532.836	605.3078	632.8274	643.5593	665.5342	731.6029	745.3482	860.1352	940.7099	981.5998	997.749	1059.9559	1146.8387	1246.9296	1291.3663	1317.7962	1437.1132	1639.2291	1827.8697	1866.9047	2233.4926	3033.6006	3063.018	3200.8095	3500.0415
O=C1CC=C(C#C)C1=O	O=C1CC=C(C#C)C1=O	
InChI=1S/C7H4O2/c1-2-5-3-4-6(8)7(5)9/h1,3H,4H2	InChI=1S/C7H4O2/c1-2-5-3-4-6(8)7(5)9/h1,3H,4H2
