17
gdb 10774	2.53698	2.20066	1.32089	2.7848	66.15	-0.2451	0.0243	0.2694	944.7902	0.140712	-401.020452	-401.011437	-401.010493	-401.054121	31.252	
C	-0.0277206873	 1.6092697194	 0.0102930221	-0.392014
C	-0.0149806361	 0.0894364692	-0.0070125759	 0.013854
C	 0.6648790021	-0.5929345566	-1.2427191093	-0.02452
O	 1.1312662944	 0.2793529865	-2.2403679973	-0.429825
C	 1.7243208989	-1.0927808035	-0.2332713866	 0.370715
O	 2.7711909985	-1.688517502	-0.3132541597	-0.390072
N	 1.0351612002	-0.5475117657	 0.812864187	-0.077825
C	 1.2964410104	-0.5441567387	 2.2294043993	-0.349521
H	 0.9491898865	 2.0085624963	-0.2704929641	 0.131351
H	-0.7657523247	 1.9857006203	-0.704101528	 0.132235
H	-0.2965078342	 1.9866524787	 1.0023325888	 0.114507
H	-1.0120699193	-0.311193436	 0.2153236613	 0.079564
H	 0.0590302962	-1.4047041547	-1.6672573386	 0.093559
H	 2.0072974379	-0.0281074306	-2.4999330991	 0.302533
H	 2.2146670518	-1.1114332484	 2.3992031403	 0.16279
H	 1.4364091854	 0.4737299018	 2.611713441	 0.132942
H	 0.4792106992	-1.0159955459	 2.7885839087	 0.129728
84.3993	114.4248	150.2933	161.4987	199.4826	231.0958	250.0226	264.2785	400.3511	480.1561	575.6336	639.3231	753.6219	812.7501	823.0433	924.2616	1008.7191	1059.2861	1069.0052	1120.266	1145.7271	1174.1507	1188.8197	1259.0012	1282.6533	1344.2078	1378.5434	1382.4569	1413.9169	1421.7623	1450.9791	1482.2681	1487.8701	1492.0237	1518.4798	1869.7926	3012.0452	3017.6873	3028.8135	3044.0543	3070.6915	3110.4938	3130.0249	3135.3371	3801.558
CC1C(O)C(=O)N1C	C[C@H]1[C@@H](O)C(=O)N1C	
InChI=1S/C5H9NO2/c1-3-4(7)5(8)6(3)2/h3-4,7H,1-2H3	InChI=1S/C5H9NO2/c1-3-4(7)5(8)6(3)2/h3-4,7H,1-2H3/t3-,4+/m0/s1
