25
gdb 108313	2.7964	1.19287	0.99544	0.1747	92.47	-0.2539	0.0805	0.3344	1357.6448	0.229053	-352.344093	-352.334438	-352.333494	-352.378401	37.524	
C	 0.0103814698	 1.5918194343	 0.1002220213	-0.379672
C	 0.0043215868	 0.0579548877	 0.1214226194	-0.290879
C	-1.3856040686	-0.5357776807	-0.0055585203	 0.419979
C	-2.3801283698	-0.364590266	 1.1722093052	-0.279683
C	-2.7973430496	-1.8588065197	 1.031752469	-0.234353
C	-1.6716179541	-2.0864606553	-0.0202434857	-0.102244
C	-2.0749084654	-1.998169153	-1.5157516847	 0.056076
C	-3.3166718204	-2.7080299635	-2.0351834166	-0.414272
C	-2.0711061636	-0.4423230355	-1.4085831581	-0.312898
H	 1.0273127648	 1.9861073604	 0.1902458385	 0.110002
H	-0.4149940399	 1.977191182	-0.8326390507	 0.116698
H	-0.5801258536	 2.0019333548	 0.9265715998	 0.117533
H	 0.6385748642	-0.3208459935	-0.6919219153	 0.089163
H	 0.462065358	-0.2957972739	 1.055317984	 0.088461
H	-1.8683541271	-0.1649995166	 2.1194837093	 0.092214
H	-3.1667880203	 0.3858634616	 1.0455407252	 0.089198
H	-2.6848248087	-2.4476419593	 1.9448479047	 0.098523
H	-3.8128324168	-2.0184481802	 0.6599987072	 0.097224
H	-0.917635405	-2.8296621466	 0.2503458749	 0.050984
H	-1.2128230695	-2.3131793613	-2.1153057462	 0.068604
H	-4.216251909	-2.4115844716	-1.4854383604	 0.113253
H	-3.4880160761	-2.4701758878	-3.0912352495	 0.112092
H	-3.2185852118	-3.7964786139	-1.9516172224	 0.111447
H	-3.0723570941	 0.0003809718	-1.3751313373	 0.089324
H	-1.4985863303	 0.0793829056	-2.1808483311	 0.093226
63.9705	107.1514	154.5042	208.9449	212.3767	243.3803	300.7379	325.4956	361.2695	384.9525	512.2666	582.5175	621.4599	741.6017	762.7224	790.5734	842.6165	864.9728	891.7712	910.6182	945.1087	953.5166	978.5459	990.3885	1007.169	1041.4646	1059.1167	1102.4874	1124.4813	1130.9497	1160.0912	1192.9523	1210.992	1230.4868	1244.4775	1256.8281	1267.306	1284.2514	1321.4115	1323.0153	1332.4101	1365.1994	1373.2912	1408.8419	1410.0938	1473.4682	1479.6541	1484.2634	1492.5541	1496.9257	1499.6813	1503.7478	1507.9096	3004.9817	3023.8403	3027.4571	3032.4218	3035.2601	3036.6053	3040.1775	3061.8181	3072.9503	3081.78	3087.7394	3090.0824	3095.7338	3099.8277	3102.5993	3112.4997
CCC12CCC1C(C)C2	CC[C@]12CC[C@H]1[C@@H](C)C2	
InChI=1S/C9H16/c1-3-9-5-4-8(9)7(2)6-9/h7-8H,3-6H2,1-2H3	InChI=1S/C9H16/c1-3-9-5-4-8(9)7(2)6-9/h7-8H,3-6H2,1-2H3/t7-,8-,9+/m0/s1
