22
gdb 101367	3.52028	0.98894	0.98113	0.1453	81.59	-0.2288	0.0688	0.2976	1359.5299	0.194042	-404.298865	-404.28948	-404.288536	-404.333234	35.61	
C	-0.174197435	 1.7574600821	-2.2213228966	-0.383316
C	-0.1812363022	 0.2310715617	-2.1048105711	-0.198709
C	 1.2141959475	-0.3724807613	-1.8972432119	 0.109633
O	 1.8491916419	 0.16324149	-0.7336872844	-0.433389
C	 1.1757652867	-1.9004656224	-1.9261995645	 0.064008
C	 2.433476945	-2.7612477674	-1.6277875015	-0.298574
C	 1.5495737211	-3.5195034744	-0.6360847662	-0.011965
C	 1.0505198289	-2.6079152221	 0.4039424144	-0.248343
N	 0.3390777343	-2.6382313129	-0.9005827853	-0.164905
H	 0.2818517643	 2.2194718085	-1.3413224108	 0.120193
H	 0.4006671967	 2.0818604358	-3.0957580203	 0.115639
H	-1.1905226382	 2.1490373825	-2.3245876595	 0.112223
H	-0.8228828603	-0.0890519158	-1.2720647059	 0.10905
H	-0.6230748757	-0.2107639776	-3.0057878934	 0.102359
H	 1.8623513708	-0.0624109807	-2.7301895202	 0.085259
H	 1.1854982918	 0.20943059	-0.037546993	 0.284475
H	 0.7608619586	-2.1833486317	-2.8998752791	 0.083898
H	 2.7681676015	-3.3474504252	-2.4850829539	 0.105564
H	 3.2913396485	-2.2469326651	-1.1871335815	 0.11657
H	 1.4551512428	-4.5983443286	-0.5704406148	 0.093455
H	 0.4423011959	-3.0288193285	 1.1987406404	 0.117084
H	 1.652998555	-1.7516997968	 0.6851770491	 0.119789
56.5653	95.9634	148.4677	200.2229	218.2259	279.5314	292.6434	353.9898	360.5048	435.5712	478.9556	683.6092	699.0569	761.2138	763.3157	781.2166	822.9529	896.7342	931.2717	951.1851	984.1398	1001.3979	1032.7998	1062.2953	1075.398	1087.6963	1110.424	1128.4382	1133.0262	1149.6645	1181.3934	1230.5478	1251.7133	1265.9433	1273.9883	1319.9385	1336.4208	1361.3517	1384.7162	1388.066	1410.2055	1423.4455	1481.3174	1483.5902	1496.0502	1500.2183	1508.0451	3001.8578	3020.6378	3037.2669	3041.5845	3061.4371	3066.9011	3102.9869	3116.5391	3123.1386	3129.2731	3166.4958	3221.4034	3811.458
CCC(O)C1CC2CN12	CC[C@@H](O)[C@H]1C[C@H]2CN12	
InChI=1S/C7H13NO/c1-2-7(9)6-3-5-4-8(5)6/h5-7,9H,2-4H2,1H3	InChI=1S/C7H13NO/c1-2-7(9)6-3-5-4-8(5)6/h5-7,9H,2-4H2,1H3/t5-,6+,7+,8?/m0/s1
