20
gdb 31036	2.52995	1.19476	0.86478	0.6745	84.42	-0.1702	0.0576	0.2278	1394.8055	0.169997	-403.19667	-403.186609	-403.185665	-403.231824	36.617	
C	 0.061273786	 1.568405231	-0.2714380149	-0.355345
C	-0.0205552858	 0.1045637063	 0.1966918026	-0.315118
C	-1.3995724153	-0.4830744943	 0.1221421031	 0.154403
C	-2.2545344417	-0.7250226473	 1.1714572728	 0.281069
O	-2.1459950817	-0.5580933939	 2.5177713914	-0.440058
N	-3.4262861092	-1.2420519823	 0.6948210972	-0.351442
C	-3.3574515739	-1.3488279438	-0.6869392849	 0.314256
C	-4.493766194	-1.8868762863	-1.4889361244	-0.500885
C	-2.1206862998	-0.8853695549	-1.0545290096	-0.319368
H	 1.0874104886	 1.947881297	-0.2161630703	 0.103338
H	-0.279581936	 1.6621843947	-1.3071452204	 0.120795
H	-0.5768816816	 2.2120835391	 0.3425050798	 0.112105
H	 0.6728285571	-0.4999994334	-0.402370902	 0.106476
H	 0.3615003758	 0.0380755429	 1.2265174019	 0.069589
H	-1.2745535259	-0.1946232356	 2.7030449449	 0.303455
H	-4.2001329991	-1.5125525063	 1.2765973826	 0.258223
H	-5.4070795471	-1.2875387148	-1.3767885721	 0.120931
H	-4.2286829452	-1.8847770409	-2.5489351741	 0.134397
H	-4.7491290738	-2.9194203908	-1.215636329	 0.120541
H	-1.7513647672	-0.8379092265	-2.0691010446	 0.082638
48.6418	113.9084	134.4	191.3323	201.3995	210.8985	268.65	285.8379	291.1189	398.8864	410.2862	497.3583	581.5235	635.6357	643.6044	690.436	770.4049	788.5574	797.5962	967.8879	992.2875	1019.7907	1045.9521	1062.7014	1082.6325	1149.8782	1177.062	1204.2816	1257.8591	1297.4791	1347.2063	1370.3358	1407.5424	1419.3859	1420.6051	1478.3619	1481.9426	1494.8761	1499.512	1505.7933	1547.3471	1585.338	1663.569	2989.7333	3006.3659	3030.3998	3031.5327	3045.6948	3100.453	3108.4701	3118.3912	3231.0139	3679.4899	3838.4283
CCC1=C(O)NC(C)=C1	CCc1c(O)[nH]c(C)c1	
InChI=1S/C7H11NO/c1-3-6-4-5(2)8-7(6)9/h4,8-9H,3H2,1-2H3	InChI=1S/C7H11NO/c1-3-6-4-5(2)8-7(6)9/h4,8-9H,3H2,1-2H3
