17
gdb 67449	2.6267	1.75404	1.64335	2.1583	72.4	-0.2171	0.0165	0.2336	916.5073	0.137095	-421.789583	-421.782556	-421.781612	-421.820554	28.811	
O	-0.0728268907	 1.4304960471	 0.0053220694	-0.458793
C	 0.000698066	 0.0539734652	 0.0117715893	 0.28969
C	-1.0666188243	-0.9857294606	 0.0061253309	 0.039397
O	-0.4633986885	-1.7531783155	-1.0205758413	-0.291915
C	 0.6559251631	-0.8075494837	-1.0888326638	 0.032551
C	 1.965976364	-1.5000090686	-0.7490424846	-0.278592
C	 1.9201516183	-2.1012077883	 0.6358858177	-0.083393
C	 0.9663721409	-1.8050626721	 1.5222698436	-0.030701
C	-0.1152964371	-0.8387664599	 1.2223213964	-0.207437
H	 0.5925622444	 1.7736617499	 0.6121372143	 0.290169
H	-2.1468784543	-0.958105271	 0.0797187922	 0.114655
H	 0.6691441853	-0.3094132758	-2.0632852157	 0.089975
H	 2.15464066	-2.2844834357	-1.4934133203	 0.119711
H	 2.8005936053	-0.7881320333	-0.8484788892	 0.105523
H	 2.7023784071	-2.8089882984	 0.8950582168	 0.088745
H	 0.9589995801	-2.2810326856	 2.4985856779	 0.088209
H	-0.6225589096	-0.3696587034	 2.0614482565	 0.092207
184.4149	207.4534	280.1166	331.4581	377.9588	393.741	508.6223	523.4373	606.7016	661.6729	690.2419	767.6914	818.9185	853.2943	889.6618	902.4031	934.9833	978.7632	985.1136	996.3593	1012.4502	1039.4481	1060.4145	1103.8498	1172.5032	1186.7784	1200.7308	1229.0462	1267.2472	1319.5153	1325.7703	1337.757	1373.8664	1419.0894	1461.0615	1501.7383	1706.2055	2990.0366	3037.3617	3065.509	3149.4341	3158.4447	3179.0448	3194.6639	3792.9916
OC12C3OC1CC=CC23	O[C@@]12[C@H]3O[C@@H]1CC=C[C@@H]23	
InChI=1S/C7H8O2/c8-7-4-2-1-3-5(7)9-6(4)7/h1-2,4-6,8H,3H2	InChI=1S/C7H8O2/c8-7-4-2-1-3-5(7)9-6(4)7/h1-2,4-6,8H,3H2/t4-,5-,6+,7-/m1/s1
