20
gdb 91045	2.13531	1.8944	1.53672	2.9825	78.23	-0.2268	0.067	0.2937	1007.1242	0.17053	-403.074064	-403.065864	-403.06492	-403.106152	32.681	
C	-0.2039358738	 1.5711977355	-0.0643145961	-0.417923
C	 0.067545159	 0.0839546088	 0.0240631766	 0.117293
O	 1.1349582494	-0.3900392644	-0.8542561698	-0.312706
C	 1.7485179947	-1.1316404371	 0.2091287486	 0.082587
C	 2.9135510284	-0.4467762677	 0.9704328058	-0.078205
N	 2.6374546584	 1.0040274991	 0.9962285416	-0.320244
C	 1.9391979255	 0.1220650455	 1.9552397587	-0.125082
C	 0.7461485423	-0.5894032817	 1.2543809223	 0.26823
C	-0.0794283686	-1.4767632016	 2.1577462909	-0.495543
H	 0.6960451297	 2.1459251832	 0.1480349159	 0.151697
H	-0.561581164	 1.823818137	-1.0682044546	 0.11887
H	-0.9918235502	 1.8446711502	 0.6474118414	 0.103793
H	-0.8539506822	-0.467770801	-0.219989817	 0.063913
H	 1.8769561281	-2.1968052411	-0.0055661274	 0.071093
H	 3.9221874281	-0.817694394	 1.1084787376	 0.091027
H	 3.4080501474	 1.4386164851	 1.5036399088	 0.23129
H	 2.0387719205	 0.277343843	 3.0237371315	 0.089088
H	-0.7299471508	-0.8809100176	 2.809804156	 0.120651
H	-0.715076762	-2.1523519118	 1.5763639056	 0.12232
H	 0.5596965304	-2.0893288194	 2.8039542734	 0.11785
169.9919	193.3568	215.8398	228.7161	234.4803	287.1876	327.5927	418.801	516.6963	559.6052	663.3694	678.8155	772.1319	806.555	819.9583	859.7469	890.5252	899.9844	918.6802	953.2695	993.8145	1025.7643	1039.5164	1079.6693	1099.4988	1116.6661	1137.969	1171.3397	1175.0248	1205.1067	1241.6288	1259.4716	1301.2028	1326.1564	1341.266	1372.104	1393.4675	1410.3726	1417.2813	1478.4352	1492.4262	1495.7654	1509.4286	2969.3486	3020.6075	3035.6733	3063.9884	3081.1212	3093.6972	3097.9558	3167.4739	3170.4315	3185.89	3469.3554
CC1OC2C3NC3C12C	C[C@H]1O[C@H]2[C@H]3N[C@H]3[C@@]12C	
InChI=1S/C7H11NO/c1-3-7(2)5-4(8-5)6(7)9-3/h3-6,8H,1-2H3	InChI=1S/C7H11NO/c1-3-7(2)5-4(8-5)6(7)9-3/h3-6,8H,1-2H3/t3-,4+,5-,6+,7-/m1/s1
