18
gdb 42361	2.47227	1.24573	0.90539	1.8305	76.68	-0.2644	-0.0373	0.2271	1283.9515	0.146998	-401.970824	-401.961775	-401.960831	-402.006107	32.067	
O	-0.0432005295	 0.4017192157	 1.7467294446	-0.292811
C	 0.0312236595	 1.208452334	 0.8535802109	 0.37658
C	 1.3906268881	 1.9142261415	 0.6035026905	-0.437392
C	 1.6495344159	 2.2832485727	-0.7820610279	 0.268355
N	 1.8343998974	 2.5647127447	-1.8877926014	-0.312529
C	-1.121191804	 1.5792039204	-0.0396558202	-0.076246
C	-1.2760165452	 0.7096848428	-1.3440920123	-0.222452
C	-2.8054041611	 0.6808284949	-1.0855952493	-0.216673
C	-2.5425133514	 1.1270295807	 0.3771655355	-0.23933
H	 1.3938787635	 2.8244111064	 1.2178759702	 0.178729
H	 2.1838147188	 1.2663419601	 0.9849743329	 0.178684
H	-1.0691681837	 2.6394448197	-0.3048344582	 0.093648
H	-0.9092261438	 1.1547567174	-2.2692751749	 0.133019
H	-0.8206223036	-0.2761968661	-1.2175653985	 0.118281
H	-3.3259517849	 1.4499722982	-1.6624696544	 0.109614
H	-3.3169915633	-0.271906499	-1.2360369303	 0.106965
H	-2.4796196939	 0.2833506217	 1.067862611	 0.129488
H	-3.1975141387	 1.8891707043	 0.8041041419	 0.104069
43.9385	53.98	108.8832	124.4645	208.1298	273.3287	340.9003	380.2929	480.7206	560.5843	609.4716	657.9637	746.2285	786.4672	866.7175	902.2706	926.1654	940.5821	959.4396	972.1155	1014.1584	1030.3487	1110.54	1144.8664	1208.2481	1216.8796	1230.6523	1248.2289	1261.333	1277.8355	1280.2432	1286.235	1378.0599	1437.0742	1478.1677	1488.8149	1507.9974	1814.8312	2359.3598	3039.1513	3064.0407	3065.3103	3070.6466	3074.3161	3110.2154	3112.0693	3131.7874	3140.5435
O=C(CC#N)C1CCC1	O=C(CC#N)C1CCC1	
InChI=1S/C7H9NO/c8-5-4-7(9)6-2-1-3-6/h6H,1-4H2	InChI=1S/C7H9NO/c8-5-4-7(9)6-2-1-3-6/h6H,1-4H2
