19
gdb 51653	3.86817	1.03103	1.02658	5.1155	76.74	-0.2382	0.044	0.2823	1233.7163	0.162267	-419.225854	-419.217985	-419.21704	-419.258926	30.375	
O	-0.3664374257	 0.8243894243	 0.3773888044	-0.337024
C	 0.2116083591	 1.7622441214	-0.1362475508	 0.149118
N	 1.5398830532	 1.8258063252	-0.3988913085	-0.266117
C	 2.4665949793	 0.7482288046	-0.0900125931	 0.005738
C	 3.2095559498	 0.2492805523	-1.3624192555	-0.222037
C	 4.4746376586	 1.0846703814	-1.4134129104	-0.024007
N	 4.2202831754	 2.528615549	-1.1814092185	-0.353512
C	 4.7118653982	 1.6730249757	-0.0724535271	-0.024007
C	 3.6026917333	 1.2244337038	 0.8599654177	-0.222036
H	-0.3101852396	 2.6886708046	-0.4504619125	 0.067641
H	 1.9410061774	 2.6466942813	-0.8300440349	 0.256804
H	 1.861487859	-0.0373563536	 0.3617291527	 0.117504
H	 3.4816358726	-0.8070943716	-1.2538018134	 0.10697
H	 2.5820697159	 0.3453847276	-2.2524516943	 0.112837
H	 5.291871316	 0.8024101636	-2.0688103909	 0.088723
H	 4.9931775309	 3.0717710934	-1.55640548	 0.234882
H	 5.712586282	 1.8458405968	 0.3093562482	 0.088721
H	 3.2524152802	 2.0081227305	 1.5369244242	 0.112837
H	 3.9634482845	 0.3880379798	 1.4699212229	 0.106965
43.0676	131.7059	228.0812	229.3178	312.9124	370.1239	421.8271	472.2304	640.7377	660.2724	719.5981	776.6014	794.5666	842.5069	862.8728	893.845	928.6729	955.0228	956.2158	968.9282	1030.0199	1060.7618	1079.3299	1099.4876	1112.8349	1162.5376	1183.3634	1195.2123	1246.4672	1260.6895	1266.1609	1319.5177	1337.9171	1357.1851	1380.1615	1426.1321	1429.0113	1472.965	1484.9332	1524.0057	1796.1656	2927.6346	3042.7214	3046.0081	3099.2828	3100.2248	3129.2515	3162.8359	3173.7267	3509.9105	3601.3565
O=CNC1CC2NC2C1	O=CN[C@H]1C[C@H]2N[C@H]2C1	
InChI=1S/C6H10N2O/c9-3-7-4-1-5-6(2-4)8-5/h3-6,8H,1-2H2,(H,7,9)	InChI=1S/C6H10N2O/c9-3-7-4-1-5-6(2-4)8-5/h3-6,8H,1-2H2,(H,7,9)/t4-,5+,6-
