18
gdb 31234	1.77829	1.76809	0.99937	1.279	74.31	-0.2359	-0.0039	0.232	1209.8015	0.14779	-439.119091	-439.109999	-439.109055	-439.154286	32.235	
C	-0.0716048229	 1.5748305014	 0.0593797639	-0.378047
C	 0.075940315	 0.0423938305	 0.0596698134	-0.292029
C	 0.6725144978	-0.4685837393	-1.2130339304	 0.181487
C	 0.0530305466	-0.7785225835	-2.3847638562	 0.222084
C	-1.3541250798	-0.7246808844	-2.8656297777	-0.180253
O	-1.7957067015	 0.5909264711	-3.2019703838	-0.406819
O	 1.0304662368	-1.1386562887	-3.2887800741	-0.176223
C	 2.1831426109	-1.0288074913	-2.5979851972	 0.058029
N	 2.0468816326	-0.6377144915	-1.3735257937	-0.302794
H	 0.9024072102	 2.0575484664	-0.0651416535	 0.126822
H	-0.7177726684	 1.8895822386	-0.7655270511	 0.133134
H	-0.5094910534	 1.9250760908	 0.9990837243	 0.111625
H	 0.7119549252	-0.2757060733	 0.8915546347	 0.120567
H	-0.9083537834	-0.4154054005	 0.212115066	 0.105511
H	-1.4730947759	-1.4161440912	-3.7115966128	 0.11201
H	-2.0265824885	-1.0558127292	-2.0689902844	 0.129893
H	-1.2030121298	 0.9320566474	-3.8801513878	 0.286117
H	 3.0912632086	-1.2823168931	-3.1227216199	 0.148884
36.3806	53.7233	150.2512	155.9194	208.3061	270.3939	321.5897	354.2785	409.1725	478.3153	627.0451	666.1362	728.4443	784.1801	791.2913	840.7503	921.8433	958.7651	971.8941	1027.989	1034.931	1083.7131	1128.055	1153.207	1198.7002	1244.4032	1283.5684	1303.1475	1344.6121	1365.4029	1390.3744	1405.2387	1421.6875	1478.08	1489.151	1497.2934	1511.3204	1548.2459	1656.1331	3011.5646	3037.2732	3038.5069	3084.0077	3090.293	3112.1058	3120.5218	3271.752	3812.405
CCC1=C(CO)OC=N1	CCc1c(CO)ocn1	
InChI=1S/C6H9NO2/c1-2-5-6(3-8)9-4-7-5/h4,8H,2-3H2,1H3	InChI=1S/C6H9NO2/c1-2-5-6(3-8)9-4-7-5/h4,8H,2-3H2,1H3
