18
gdb 78698	5.42537	1.11926	1.10866	3.269	77.34	-0.2322	0.0743	0.3065	1151.9843	0.1471	-401.818561	-401.811169	-401.810225	-401.850151	29.417	
C	-0.1759646103	 1.5970529041	 0.0748593868	-0.419191
C	-0.0279432009	 0.0931740184	-0.0268797126	 0.062148
C	 0.8611821563	-0.5587970114	-1.0865922579	-0.074946
C	 2.1286597509	-0.217994497	-0.2358178433	-0.157959
N	 1.0525060809	-0.5443399026	 0.8553779182	-0.170762
C	 1.080976467	-1.7651131237	-0.1182224302	-0.146676
C	 2.5846935106	-1.6614576263	-0.2474036946	 0.555288
C	 3.6348988363	-2.4226505873	-0.9084165678	-0.302862
O	 3.5768968543	-2.2726891076	 0.5300840232	-0.280733
H	 0.7711075929	 2.1183255417	-0.0937775973	 0.117726
H	-0.897504533	 1.9622961885	-0.6640048077	 0.119098
H	-0.5426267601	 1.8745540042	 1.0684740973	 0.131767
H	-0.9962629896	-0.3986781893	 0.131765304	 0.073039
H	 0.7785795718	-0.5866580966	-2.1789753703	 0.066998
H	 2.707644136	 0.7034512119	-0.2037710844	 0.094339
H	 0.4273303661	-2.6216112766	 0.0474493442	 0.091503
H	 3.4335263593	-3.4277257395	-1.2759537146	 0.12073
H	 4.4627045014	-1.9073123409	-1.3932110831	 0.120493
137.8959	179.4932	200.0082	269.8805	324.296	370.8657	476.8422	582.2801	602.1239	722.5563	762.3794	811.3196	825.6446	837.9391	861.8365	882.5799	897.0177	997.9411	1031.9509	1042.3152	1061.327	1070.2489	1113.2627	1115.1359	1118.4423	1131.4563	1154.8675	1159.1595	1171.1254	1210.1663	1240.0728	1261.6054	1283.0635	1401.4625	1418.7761	1471.643	1491.8693	1492.8213	1563.5497	3023.3501	3034.8058	3039.8932	3084.9587	3101.6443	3110.3484	3121.4416	3134.3517	3171.378
CC1C2C3N1C2C31CO1	C[C@H]1[C@H]2[C@H]3N1[C@@H]2[C@]13CO1	
InChI=1S/C7H9NO/c1-3-4-5-7(2-9-7)6(4)8(3)5/h3-6H,2H2,1H3	InChI=1S/C7H9NO/c1-3-4-5-7(2-9-7)6(4)8(3)5/h3-6H,2H2,1H3/t3-,4-,5+,6-,7+/m0/s1
