20
gdb 123130	4.57831	0.53527	0.521	5.0565	72.58	-0.2486	0.0207	0.2693	2089.3583	0.170129	-477.442121	-477.431767	-477.430822	-477.479315	35.827	
O	-0.1189188322	 1.3987985832	 0.0147497982	-0.418694
C	-0.1266468682	 0.0170827305	 0.3326274447	-0.07235
C	-1.3597620663	-0.5960799179	-0.3191662716	-0.185954
C	-1.4702611592	-2.0989681124	-0.0784925299	-0.143648
N	-2.6812255777	-2.6440999708	-0.7024647681	-0.320946
H	-4.0840390952	-2.5903349575	 0.6215138915	 0.302538
H	-2.6982986132	-2.4042009417	-1.6869769078	 0.233642
C	-2.8573341191	-4.0828995322	-0.5160449858	-0.310136
C	-3.6446462445	-4.3849518939	 0.770478814	 0.422459
O	-4.3126311372	-3.319764168	 1.2386991298	-0.36245
O	-3.6801003132	-5.4682069405	 1.2858000118	-0.330685
H	 0.6441061937	 1.8023101053	 0.4385030978	 0.289006
H	 0.7823737623	-0.4839314938	-0.0394093249	 0.088139
H	-0.1632674234	-0.1441491797	 1.422346515	 0.0928
H	-2.2537752026	-0.0921199529	 0.063644379	 0.119401
H	-1.3172218151	-0.3906082035	-1.3967786698	 0.106535
H	-0.5628912693	-2.6106748137	-0.4437341185	 0.097669
H	-1.5314002206	-2.3034310778	 0.9979806726	 0.12343
H	-3.4475067065	-4.4858309147	-1.3460362976	 0.14013
H	-1.9180382923	-4.6507969782	-0.4815946905	 0.129114
45.9598	55.5396	73.9588	119.9136	141.4579	152.0521	264.2242	302.27	321.6125	355.1327	470.6824	553.3113	564.8805	663.4853	765.7927	776.7953	859.0674	874.809	902.2753	948.0988	1013.5664	1054.4156	1068.2425	1103.1396	1140.6591	1160.6351	1209.2761	1221.2936	1237.7484	1274.6757	1304.6671	1311.9413	1323.0277	1355.4531	1400.6758	1426.581	1466.1174	1468.7885	1485.7159	1495.0925	1516.9711	1531.1587	1880.6008	2952.7995	2962.2596	2986.3374	3021.1868	3028.0688	3045.0813	3082.4897	3084.3277	3481.8866	3539.4044	3832.5221
OCCC[NH2+]CC([O-])=O	OCCCNCC(=O)O	
InChI=1S/C5H11NO3/c7-3-1-2-6-4-5(8)9/h6-7H,1-4H2,(H,8,9)	InChI=1S/C5H11NO3/c7-3-1-2-6-4-5(8)9/h6-7H,1-4H2,(H,8,9)
