16
gdb 14404	3.43116	2.59537	2.07648	0.2653	63.09	-0.2417	0.0756	0.3173	718.7441	0.131392	-383.693694	-383.687604	-383.68666	-383.723514	24.925	
C	 0.0548450002	 1.5113944492	-0.114575065	-0.521331
C	-0.0390002244	 0.0203996681	-0.0514763157	 0.427529
O	 0.4286545196	-0.7203623929	-1.1846034006	-0.324277
C	-0.2395990748	-1.8683260388	-0.5823273043	 0.028188
C	 0.6793049674	-2.1581036577	 0.618040878	-0.210897
C	 0.3342166772	-0.8120720606	 1.2771703971	-0.005179
O	-1.0883743816	-0.9821624721	 1.5554813897	-0.294402
C	-1.2658666806	-0.8830894472	 0.1436917723	 0.012616
H	 1.1016493804	 1.8321601278	-0.1351802983	 0.132959
H	-0.4390808486	 1.8940972386	-1.0122796615	 0.132796
H	-0.4232237476	 1.9512588427	 0.7656265951	 0.137864
H	-0.5106103896	-2.6472363169	-1.291269713	 0.085682
H	 0.3739884753	-2.9931564727	 1.2514785939	 0.110941
H	 1.7160791811	-2.2661665528	 0.2945881903	 0.111181
H	 0.9074948035	-0.4260536518	 2.1179261456	 0.083699
H	-2.2847362975	-0.740671243	-0.2121291137	 0.092631
208.292	239.8428	269.8563	448.8802	522.7071	527.6993	623.7598	709.0979	764.3584	782.2465	848.7127	863.3271	881.691	923.7909	941.2417	943.2739	972.7004	995.0845	1026.7245	1099.5341	1111.8261	1143.1477	1148.8841	1176.4252	1223.3326	1244.5545	1261.0163	1293.0052	1320.277	1374.9597	1420.1885	1461.3044	1479.0315	1492.7793	3039.5981	3079.9483	3108.8304	3120.8109	3139.0646	3142.4656	3145.2047	3154.9921
CC12OC3CC1OC23	C[C@@]12O[C@H]3C[C@@H]1O[C@@H]23	
InChI=1S/C6H8O2/c1-6-4-2-3(8-6)5(6)7-4/h3-5H,2H2,1H3	InChI=1S/C6H8O2/c1-6-4-2-3(8-6)5(6)7-4/h3-5H,2H2,1H3/t3-,4-,5+,6+/m0/s1
