19
gdb 80621	2.39945	1.84541	1.3724	3.1176	73.93	-0.2398	0.0752	0.315	1003.8521	0.159773	-422.979742	-422.97216	-422.971215	-423.011496	30.376	
C	-0.1047566348	 1.5771998423	-0.0771048489	-0.424349
C	 0.077281902	 0.0641363717	-0.0018477401	-0.073643
C	 1.0131624465	-0.5765018279	-1.0610430591	 0.059881
C	 2.4458915407	-0.3070700512	-0.5433482965	-0.244037
C	 1.9151821345	-1.3083480793	 0.5076291592	-0.021529
O	 1.1356025243	-1.9446595148	-0.556241999	-0.296325
C	 0.8384043099	-0.4968506028	 1.2222274158	 0.494867
C	 0.9564475871	 0.0869985834	 2.5579725963	-0.281747
O	 0.1366332943	-1.0661984771	 2.3159579092	-0.289698
H	 0.8473220075	 2.111214384	 0.0038735355	 0.116349
H	-0.5709567016	 1.8660536938	-1.0253701246	 0.119171
H	-0.7557790581	 1.9346328875	 0.7270303764	 0.126338
H	-0.895990316	-0.4333166594	-0.0582925877	 0.102235
H	 0.7294398644	-0.511152221	-2.1115513313	 0.082433
H	 3.2021235988	-0.7579298477	-1.1860981415	 0.116718
H	 2.7327765437	 0.6999592395	-0.2303438903	 0.099118
H	 2.5346842082	-1.9863860569	 1.0933328373	 0.087576
H	 1.8500156232	-0.0923232972	 3.1562103636	 0.11195
H	 0.4173819652	 1.0009248634	 2.8032061256	 0.114691
123.4745	204.1583	231.157	250.3521	301.9128	357.741	461.9971	521.9304	542.7631	594.698	728.7449	798.0891	831.3776	867.1522	870.9303	889.6261	922.5711	944.7259	966.7327	1015.5474	1023.7318	1057.7717	1093.1936	1109.5084	1116.6565	1134.9974	1164.9489	1188.8856	1205.9825	1227.4014	1244.5815	1277.8849	1289.2995	1323.7322	1360.3465	1410.4562	1439.6088	1486.2987	1495.9031	1503.2959	1538.5814	3033.2238	3064.3163	3070.461	3076.8579	3097.2346	3106.4457	3121.0121	3135.3492	3147.3585	3161.0225
CC1C2CC(O2)C11CO1	C[C@H]1[C@H]2C[C@H](O2)[C@]21CO2	
InChI=1S/C7H10O2/c1-4-5-2-6(9-5)7(4)3-8-7/h4-6H,2-3H2,1H3	InChI=1S/C7H10O2/c1-4-5-2-6(9-5)7(4)3-8-7/h4-6H,2-3H2,1H3/t4-,5+,6-,7+/m0/s1
