16
gdb 124171	6.87762	0.72643	0.66246	3.1155	85.96	-0.241	-0.0231	0.2179	1684.03	0.12278	-400.735616	-400.726385	-400.725441	-400.773025	31.51	
C	 0.0131169778	 1.4746768165	 0.0643483961	-0.511004
C	 0.0099767666	 0.0225495151	 0.0017222674	 0.261595
C	 0.0199778084	-1.1813037591	-0.0529477156	-0.104394
C	-0.007737316	-2.597180285	-0.1085839717	 0.229705
N	 1.0837743122	-3.2938617688	-0.3780033784	-0.212343
O	 0.6863803633	-4.6235232756	-0.3489251244	-0.203329
C	-0.6286117583	-4.7049902905	-0.064525529	 0.427918
C	-1.2176349243	-6.0689951521	 0.0053443605	-0.50017
C	-1.1318540912	-3.4548319476	 0.1001680198	-0.426864
H	 1.0115403844	 1.874294508	-0.1423693949	 0.159342
H	-0.6780827882	 1.9042740468	-0.6691822511	 0.154518
H	-0.2908491365	 1.8290428359	 1.0555180806	 0.154545
H	-0.7227013151	-6.6698188704	 0.7752219535	 0.152786
H	-2.2813188348	-6.0077934849	 0.2419779918	 0.142731
H	-1.1016550631	-6.5945382954	-0.9480640538	 0.152773
H	-2.1425359453	-3.1671573228	 0.3339603893	 0.122189
3.8518	84.665	85.3753	104.1097	216.7261	276.8503	331.4598	354.7891	443.9839	487.7677	539.2763	639.5377	689.2474	729.412	821.5357	937.2059	950.8033	1013.3914	1029.8843	1050.899	1052.6154	1066.0107	1068.3031	1174.8829	1291.5981	1410.8766	1412.5622	1427.2261	1474.0552	1474.3891	1474.4106	1482.2482	1503.7504	1640.0564	2369.5333	3028.5717	3043.5146	3089.0121	3095.1455	3100.6642	3139.8667	3284.1395
CC#CC1=NOC(C)=C1	CC#Cc1noc(C)c1	
InChI=1S/C7H7NO/c1-3-4-7-5-6(2)9-8-7/h5H,1-2H3	InChI=1S/C7H7NO/c1-3-4-7-5-6(2)9-8-7/h5H,1-2H3
