17
gdb 48980	3.34802	1.48591	1.34027	2.8951	71.96	-0.2502	-0.0311	0.2191	988.5643	0.136754	-421.832247	-421.825002	-421.824058	-421.864046	28.442	
O	-0.8503467479	 1.081227768	-0.2430524556	-0.259225
C	 0.302019594	 0.8162444907	-0.0146917236	 0.063695
C	 1.4110332675	 1.8283364835	-0.0456742079	 0.276309
C	 1.6696110652	 2.5495185543	 1.3361339006	-0.253169
C	 3.1524108799	 2.9780766726	 1.1524410906	-0.217313
C	 3.4446769376	 2.426853269	-0.2825790172	 0.004289
O	 2.6833402766	 1.210179614	-0.267295364	-0.281488
C	 2.6519431354	 3.2884390376	-1.2599600261	-0.085211
C	 1.3804786181	 2.9227996157	-1.1036254871	-0.119153
H	 0.6335256861	-0.2068949792	 0.2686743539	 0.095209
H	 0.9773524549	 3.3765913274	 1.498252514	 0.120119
H	 1.5598664162	 1.8373896317	 2.1580876693	 0.112301
H	 3.3040292306	 4.0567674342	 1.2270108074	 0.107928
H	 3.7985115267	 2.4845860593	 1.8815927368	 0.112128
H	 4.4891668387	 2.2243191244	-0.5142369301	 0.085857
H	 3.0565576501	 4.0950848902	-1.8559941397	 0.110815
H	 0.4753976402	 3.3302931266	-1.5297929414	 0.126909
80.2836	177.6083	227.8949	264.1584	379.0447	432.5574	511.7409	595.3578	694.062	713.4116	740.2783	788.3081	828.8949	852.7436	880.7375	892.7124	918.095	945.4898	958.4435	985.7652	1024.1564	1069.3619	1078.4824	1097.8915	1165.9707	1192.1431	1227.6536	1261.0491	1281.9438	1310.3953	1334.4936	1347.6501	1407.541	1482.3446	1498.9453	1641.2509	1832.4201	2897.5405	3066.6448	3077.0513	3117.7555	3134.2785	3136.7571	3223.0005	3253.558
O=CC12CCC(O1)C=C2	O=C[C@@]12CC[C@@H](O1)C=C2	
InChI=1S/C7H8O2/c8-5-7-3-1-6(9-7)2-4-7/h1,3,5-6H,2,4H2	InChI=1S/C7H8O2/c8-5-7-3-1-6(9-7)2-4-7/h1,3,5-6H,2,4H2/t6-,7+/m0/s1
