21
gdb 57809	5.9313	0.48683	0.46321	0.7787	96.07	-0.2457	0.0449	0.2906	2382.6313	0.179127	-349.90752	-349.896302	-349.895358	-349.946227	39.418	
C	 0.0172978413	 1.5383794238	-0.0674324375	-0.372458
C	 0.0042492607	 0.0014305412	 0.0546050993	-0.122398
C	 0.7849778305	-0.4678186555	 1.2983250968	-0.372996
C	-1.3661407983	-0.5133380937	 0.0653935735	 0.151248
C	-2.5023558888	-0.9144882417	 0.092136329	-0.020889
C	-3.8615094592	-1.4419140568	 0.1119727784	-0.346189
C	-3.897475068	-2.985683245	-0.0481402489	-0.337708
C	-5.2553933847	-3.513105878	-0.0284273054	 0.294523
C	-6.3876610901	-3.9161987308	-0.0082214599	-0.440504
H	 1.0471447925	 1.9064147242	-0.1178592348	 0.111018
H	-0.5121858834	 1.866336984	-0.9657437935	 0.122848
H	-0.4693611192	 1.9970851847	 0.7988978088	 0.123253
H	 0.5106660518	-0.4074486963	-0.8312426544	 0.102381
H	 1.8196573938	-0.1126703496	 1.2539717545	 0.110983
H	 0.3261747285	-0.0755111585	 2.2112435571	 0.123051
H	 0.7965247387	-1.5587632362	 1.3674578659	 0.121302
H	-4.3608042336	-1.1734231664	 1.0503696555	 0.138141
H	-4.4569885979	-0.9904144707	-0.6902380144	 0.138362
H	-3.4021451543	-3.2579167082	-0.9871648719	 0.140515
H	-3.3057693728	-3.4406599314	 0.7544309405	 0.140245
H	-7.3819435176	-4.288156849	 0.0076384213	 0.195272
11.0984	52.5091	62.1926	133.5565	161.1119	183.855	229.472	262.8258	304.4749	348.2793	365.6323	453.5809	472.7795	531.2645	551.2476	619.0878	647.3185	717.5491	765.2986	885.1448	931.0636	963.2764	964.4188	1006.143	1034.4635	1068.5885	1120.4326	1150.8139	1193.2527	1208.82	1282.3528	1304.4907	1326.0302	1350.6369	1364.9926	1394.7234	1416.8225	1472.4002	1483.0936	1485.8844	1489.1113	1498.2527	1510.0316	2238.9996	2362.3142	3002.2767	3030.4021	3035.0653	3038.8339	3041.1552	3057.7192	3080.5592	3105.8021	3111.2368	3117.7654	3120.039	3507.122
CC(C)C#CCCC#C	CC(C)C#CCCC#C	
InChI=1S/C9H12/c1-4-5-6-7-8-9(2)3/h1,9H,5-6H2,2-3H3	InChI=1S/C9H12/c1-4-5-6-7-8-9(2)3/h1,9H,5-6H2,2-3H3
