15
gdb 113609	3.5326	0.71025	0.62437	5.3703	82.13	-0.2683	-0.0503	0.218	1689.2786	0.112542	-416.756752	-416.747837	-416.746892	-416.79157	31.35	
O	-0.0711118518	 1.4413125421	-0.3810815809	-0.413397
C	-0.0308966284	 0.2088958962	 0.3131900501	-0.079295
C	-1.3630684945	-0.4988852114	 0.2205851828	-0.018564
N	-1.6472616926	-1.1061011559	-1.0814072946	-0.320582
C	-1.4875078804	-1.9904030359	 0.0994827879	-0.299882
C	-0.3578154206	-2.871918879	 0.1171332978	 0.169331
C	 0.5729917318	-3.6421024469	 0.163738088	 0.075954
C	 1.6275393545	-4.5065092033	 0.2122941767	 0.205647
N	 2.5249579567	-5.2433663633	 0.2558419754	-0.333995
H	-0.2298782757	 1.2300652026	-1.308294121	 0.29385
H	 0.7619519758	-0.4498234138	-0.0665521861	 0.109488
H	 0.1980606099	 0.4462040613	 1.3568375545	 0.120535
H	-2.1848329881	-0.0030605918	 0.7341270298	 0.109892
H	-2.6348251018	-1.0363474223	-1.3131771209	 0.249293
H	-2.3891898848	-2.4254521584	 0.5252640506	 0.131724
59.4921	78.9529	103.336	169.0228	229.5617	273.3503	351.8551	414.5916	444.58	519.873	556.49	579.091	609.8952	711.4013	823.3053	874.5778	908.6304	966.3295	1001.7905	1073.3418	1090.0025	1154.5269	1175.4501	1216.0511	1254.6302	1274.166	1366.9288	1397.4891	1428.744	1458.8855	1495.3584	2264.836	2395.46	3017.1999	3087.0346	3127.9744	3136.8413	3508.7843	3800.3248
OCC1NC1C#CC#N	OC[C@H]1N[C@H]1C#CC#N	
InChI=1S/C6H6N2O/c7-3-1-2-5-6(4-9)8-5/h5-6,8-9H,4H2	InChI=1S/C6H6N2O/c7-3-1-2-5-6(4-9)8-5/h5-6,8-9H,4H2/t5-,6+/m0/s1
