18
gdb 34968	4.24338	1.37056	1.31547	1.7282	81.47	-0.2272	0.0302	0.2574	1012.475	0.149742	-364.715107	-364.708288	-364.707343	-364.74607	28.543	
C	-0.0762514432	-1.2974508336	-0.2072450545	-0.424752
C	-0.0210064911	-0.1025178422	-0.0804224659	 0.315996
C	 0.0054802594	 1.3387319114	 0.072457227	-0.160475
C	-0.2148986534	 2.0357288189	 1.4184679377	-0.059472
C	 1.0974713245	 1.8409198358	 2.3039937771	-0.061926
C	 1.3144371197	 3.3757511166	 2.2123428009	-0.241141
C	 0.6404605143	 3.1985991393	 0.8529581871	 0.013873
N	 1.3546829879	 2.0710035936	 0.0331243056	-0.167219
C	 2.0451241965	 1.3910984014	 1.1761972273	-0.164973
H	-0.1190406344	-2.3523600263	-0.3226938063	 0.196537
H	-0.6309075358	 1.7973902316	-0.6924216958	 0.107041
H	-1.1769082671	 2.1453990607	 1.9190746859	 0.074144
H	 1.0883945008	 1.3068875505	 3.2523717118	 0.071562
H	 0.65473933	 3.9398807835	 2.8781759051	 0.103461
H	 2.3353217979	 3.7628986086	 2.2787950934	 0.100342
H	 0.2719148581	 4.004196655	 0.2205437319	 0.079512
H	 3.0597780742	 1.7799126567	 1.2931805354	 0.098913
H	 2.0941618715	 0.3155463785	 1.0042854361	 0.118576
128.8338	158.9709	349.2522	389.5653	486.6469	507.3804	538.0747	615.9823	657.9023	705.06	716.7948	763.2808	826.8695	837.1297	849.5938	907.7461	916.0216	943.6749	964.9528	972.8298	1005.0946	1019.7831	1064.7608	1075.1234	1100.2562	1130.3662	1163.0797	1197.6928	1208.7134	1216.7171	1245.309	1253.4243	1273.4094	1296.4462	1327.9206	1377.7874	1491.1144	1523.1875	2229.4138	3047.6374	3050.5657	3071.1168	3107.5445	3113.5561	3129.3325	3133.9752	3137.9498	3501.3534
C#CC1C2C3CC2N1C3	C#C[C@H]1[C@H]2[C@@H]3C[C@H]2N1C3	
InChI=1S/C8H9N/c1-2-6-8-5-3-7(8)9(6)4-5/h1,5-8H,3-4H2	InChI=1S/C8H9N/c1-2-6-8-5-3-7(8)9(6)4-5/h1,5-8H,3-4H2/t5-,6+,7-,8-/m1/s1
