22
gdb 103437	2.12577	1.51192	1.4333	2.4045	82.02	-0.2265	0.0814	0.3078	1121.8444	0.192329	-404.296941	-404.287159	-404.286215	-404.331144	36.852	
C	 0.227027352	-1.3101790794	 1.1549551086	-0.245986
O	-0.0904919005	-0.4879923233	 0.0544950918	-0.275422
C	 0.6175447919	-0.7615209123	-1.1344824233	 0.429965
C	 2.0032200436	-0.119957003	-1.118127344	-0.453326
C	 0.6463921283	-2.2230398649	-1.6287952795	-0.140584
N	-0.7595214849	-2.6642754945	-1.7874122105	-0.331479
C	-0.1196606744	-1.8543287351	-2.8503727973	-0.048202
C	-0.2287703765	-0.3846214396	-2.4199884565	-0.052126
C	-1.6178202135	 0.2038052286	-2.2282138992	-0.399448
H	 0.0313551204	-2.3688136971	 0.937569909	 0.118558
H	 1.2741107221	-1.203018502	 1.4763538426	 0.096921
H	-0.4180118998	-0.9966001329	 1.9795149431	 0.124074
H	 2.6163002247	-0.5143405318	-0.3005104869	 0.113699
H	 2.5355849418	-0.3129587586	-2.0547008868	 0.114853
H	 1.9118527851	 0.9622771601	-0.9855672191	 0.124181
H	 1.4489284972	-2.9415383401	-1.5060467127	 0.084931
H	-0.7289067394	-3.6363218974	-2.0942669537	 0.226962
H	-0.0246800923	-2.2432948468	-3.8571401189	 0.088547
H	 0.3763264906	 0.2523321612	-3.0732826418	 0.066788
H	-2.2307474889	-0.4596917249	-1.6166420359	 0.143223
H	-1.565013778	 1.1761073849	-1.7292281648	 0.114954
H	-2.1103435194	 0.3458864589	-3.196853884	 0.098918
72.4855	128.7961	172.4742	191.2273	204.9849	228.5786	263.6686	286.6294	317.0971	356.3639	488.7315	544.9224	568.8289	653.2285	737.0483	817.6038	844.4198	865.521	886.4417	916.2459	947.4585	1013.8001	1017.3764	1062.1209	1084.545	1110.3327	1114.1636	1136.0845	1158.2449	1177.9943	1190.7291	1213.5254	1233.9287	1238.6799	1302.4191	1331.8547	1362.1801	1387.3045	1399.3941	1406.5341	1474.612	1482.3325	1486.0537	1492.3761	1498.272	1499.7249	1505.7224	2984.7725	3033.1476	3036.2919	3043.3434	3054.1602	3099.5982	3100.1507	3111.923	3113.0819	3144.4801	3171.0666	3187.1701	3470.2468
COC1(C)C2NC2C1C	CO[C@@]1(C)[C@H]2N[C@H]2[C@H]1C	
InChI=1S/C7H13NO/c1-4-5-6(8-5)7(4,2)9-3/h4-6,8H,1-3H3	InChI=1S/C7H13NO/c1-4-5-6(8-5)7(4,2)9-3/h4-6,8H,1-3H3/t4-,5+,6+,7-/m1/s1
