15
gdb 46872	2.50484	1.82576	1.28036	5.9108	66.23	-0.2533	-0.0683	0.185	969.8745	0.113598	-457.796634	-457.789383	-457.788439	-457.828583	27.507	
O	 0.1318006932	-0.0425369073	-0.1411179492	-0.289685
C	 0.0357782285	 1.1106111116	 0.1561459181	 0.315635
O	-1.0962341702	 1.5797846217	 0.7442419039	-0.227046
C	-1.3039779693	 2.9931722463	 0.8935243428	-0.104392
C	-0.095942043	 3.7183564017	 1.4374726458	-0.049632
C	 0.835013822	 3.0200439878	 2.3644603507	-0.306211
C	 1.2539245542	 3.2504833185	 0.9107971429	-0.137724
C	 1.1994839689	 2.120621766	-0.0424218202	 0.292813
O	 1.9858518335	 1.9481789958	-0.9392630832	-0.293217
H	-1.6025258586	 3.4163334877	-0.0739807879	 0.130544
H	-2.1550715379	 3.0769526698	 1.5746179835	 0.138953
H	-0.2314137029	 4.789487611	 1.5492766061	 0.116769
H	 1.3664764912	 3.609686291	 3.101489717	 0.138967
H	 0.6026983606	 2.0079836972	 2.6759925109	 0.152875
H	 2.0375982099	 3.9718641211	 0.7129818988	 0.121351
79.3149	155.4915	250.9096	313.0841	342.7609	433.7642	454.2816	499.4042	588.2104	651.592	726.6977	770.7202	815.8125	861.8492	919.3667	954.7424	989.4927	1028.617	1076.0846	1087.2063	1117.9211	1123.5186	1149.3974	1199.6594	1260.1164	1290.0697	1351.1311	1398.4809	1422.5531	1493.9866	1512.9349	1814.9089	1857.7382	3030.3043	3096.0587	3149.3544	3165.5872	3191.9889	3238.6869
O=C1OCC2CC2C1=O	O=C1OC[C@H]2C[C@H]2C1=O	
InChI=1S/C6H6O3/c7-5-4-1-3(4)2-9-6(5)8/h3-4H,1-2H2	InChI=1S/C6H6O3/c7-5-4-1-3(4)2-9-6(5)8/h3-4H,1-2H2/t3-,4-/m1/s1
