23
gdb 122685	5.01133	0.60293	0.55842	2.8338	82.36	-0.2381	0.0773	0.3154	1986.679	0.206063	-425.427557	-425.417347	-425.416402	-425.464459	35.986	
O	-0.0617726634	 1.4896403626	-0.0634971821	-0.421356
C	 0.0351807102	 0.073648085	-0.0882992959	-0.073854
C	-1.3704651978	-0.4961827326	 0.0488103384	-0.171891
C	-1.3946232471	-2.028901608	 0.0414276219	-0.216606
C	-2.8015302092	-2.6236703579	 0.1245599683	 0.011668
C	-2.8561170589	-4.1610133347	 0.0977226069	-0.250815
C	-4.2309680182	-4.4512849338	 0.7090684645	-0.066964
O	-4.5253358343	-3.3631334485	 1.5867995151	-0.264751
C	-3.5514214926	-2.3358362481	 1.4349718396	-0.062795
H	 0.8243360606	 1.8539173911	-0.144534428	 0.285278
H	 0.4884222918	-0.2791720417	-1.0297741386	 0.082861
H	 0.6686629418	-0.2973653326	 0.7345599806	 0.083536
H	-1.8079137118	-0.1089634611	 0.9766037348	 0.112238
H	-1.9843657305	-0.1052751993	-0.7721062441	 0.105692
H	-0.9066732861	-2.3948736156	-0.8718912788	 0.094658
H	-0.7974099284	-2.4119691361	 0.8811886154	 0.094542
H	-3.4028863182	-2.2378921571	-0.7100646334	 0.076742
H	-2.7404476959	-4.5812787849	-0.9047466963	 0.100809
H	-2.0586476827	-4.571681472	 0.7287303371	 0.101582
H	-5.0076414065	-4.5095548898	-0.0678135018	 0.092519
H	-4.2567596207	-5.3880930218	 1.2779674643	 0.099226
H	-2.8503414109	-2.3493322679	 2.2869465384	 0.082905
H	-4.0644080814	-1.3683578551	 1.4390892238	 0.104777
40.9925	64.2938	81.3709	100.2399	138.4247	188.2303	261.4531	269.479	300.9775	420.6886	490.8476	600.1453	677.9566	758.3122	843.2552	854.2053	899.0261	922.7656	963.4487	975.937	1017.4377	1020.3561	1038.716	1076.1997	1087.7338	1124.0317	1132.4197	1176.7031	1190.3193	1214.8839	1226.4082	1243.4067	1264.6406	1289.7847	1304.522	1317.5285	1319.198	1350.5667	1354.1438	1382.9761	1393.8852	1415.6644	1465.0441	1484.2624	1491.9689	1500.8176	1523.3002	1528.857	1535.6968	2955.7048	2956.6039	2980.4179	2991.7961	3003.417	3011.4041	3031.7432	3033.3352	3039.0776	3051.8977	3063.9068	3077.7799	3100.3499	3830.3106
OCCCC1CCOC1	OCCC[C@H]1CCOC1	
InChI=1S/C7H14O2/c8-4-1-2-7-3-5-9-6-7/h7-8H,1-6H2	InChI=1S/C7H14O2/c8-4-1-2-7-3-5-9-6-7/h7-8H,1-6H2/t7-/m0/s1
