22
gdb 117192	3.42126	0.86086	0.74588	2.5427	83.77	-0.2498	-0.0194	0.2304	1614.6159	0.192258	-404.357005	-404.346597	-404.345653	-404.39313	37.622	
C	 0.1902792546	 1.3617007698	-0.661547252	-0.388849
C	-0.0159962476	 0.0553500847	 0.1084447255	-0.161485
C	-1.3156540383	-0.653694189	-0.2732215079	-0.298431
C	-1.5527550503	-1.9478197821	 0.4848649927	 0.322302
O	-0.7938469621	-2.3270005816	 1.3558538468	-0.335417
C	-2.7626894282	-2.77923931	 0.1235568212	 0.23959
C	-3.9361402155	-2.1314043193	-0.579294691	-0.47957
C	-2.4297283956	-4.2203892028	-0.1433395484	-0.249259
N	-3.0971144891	-3.8353255034	 1.0940932722	-0.338907
H	 1.1266528347	 1.8468768519	-0.3700032286	 0.116963
H	 0.2295730389	 1.1876217738	-1.7429043303	 0.112736
H	-0.6237085226	 2.0707069695	-0.4720618788	 0.113469
H	 0.8251354862	-0.6238617255	-0.0672739932	 0.111336
H	-0.0193488281	 0.2465612653	 1.1864744764	 0.115514
H	-2.1821432732	 0.0015609695	-0.1032488816	 0.126998
H	-1.3424452152	-0.876731381	-1.3495059505	 0.122579
H	-3.6546170913	-1.7256914194	-1.5559984418	 0.119127
H	-4.7232542936	-2.8733223169	-0.7308131418	 0.13489
H	-4.3603533062	-1.317727024	 0.0188630622	 0.125675
H	-3.0407713742	-4.7675646685	-0.856954202	 0.118791
H	-1.3836057263	-4.5100475165	-0.1003142778	 0.126421
H	-2.3930932869	-3.7898391945	 1.8322039888	 0.245527
47.299	65.2936	106.6323	129.5326	198.9532	243.1069	268.722	280.913	310.7554	348.3752	376.9237	430.7031	578.3701	584.8257	747.5354	760.0759	827.7122	857.8319	884.6479	906.0031	946.3441	1001.5386	1036.5521	1050.9546	1052.3633	1089.6165	1107.1093	1121.8471	1128.879	1164.1033	1247.186	1283.241	1314.0399	1321.8733	1348.2272	1364.3829	1396.0793	1413.776	1421.908	1445.9086	1486.3607	1488.6699	1495.7318	1499.584	1499.9707	1507.549	1771.1438	3009.8885	3028.0156	3035.9784	3037.6303	3050.8627	3075.8801	3100.0122	3100.9871	3104.1928	3105.6394	3126.1838	3198.7758	3458.1941
CCCC(=O)C1(C)CN1	CCCC(=O)[C@@]1(C)CN1	
InChI=1S/C7H13NO/c1-3-4-6(9)7(2)5-8-7/h8H,3-5H2,1-2H3	InChI=1S/C7H13NO/c1-3-4-6(9)7(2)5-8-7/h8H,3-5H2,1-2H3/t7-/m1/s1
