23
gdb 117153	3.02719	0.74532	0.67478	3.4292	84.12	-0.2388	-0.0082	0.2306	1815.3993	0.201924	-425.436362	-425.424841	-425.423897	-425.474374	39.829	
C	-0.1241642833	 1.321053876	 0.4595318502	-0.395364
C	-0.2789741286	-0.1708801814	 0.1525800389	-0.158911
C	-1.6724944205	-0.5665427261	-0.3963932998	-0.07966
C	-1.9570179235	 0.0217340977	-1.7846111421	-0.393068
C	-1.7327240538	-2.0949142942	-0.4533306241	 0.361787
O	-1.1933889656	-2.7305988878	-1.3246989367	-0.303558
C	-2.5059483397	-2.75262097	 0.683882514	-0.161951
O	-2.3926104135	-4.1397661562	 0.629396657	-0.209884
C	-3.1156797811	-4.7900269154	 1.648261821	-0.225287
H	 0.8642878971	 1.5264369602	 0.8821727462	 0.117938
H	-0.230948208	 1.9375158214	-0.4376768545	 0.123902
H	-0.8724015352	 1.656761435	 1.1864170793	 0.113617
H	 0.4768734969	-0.4913494176	-0.5737720713	 0.119464
H	-0.0811150529	-0.7423527591	 1.0688479556	 0.096723
H	-2.4306862113	-0.212675034	 0.3162988883	 0.069721
H	-1.8831972671	 1.1120429628	-1.7789580831	 0.114132
H	-1.2446777344	-0.3778173999	-2.5110498996	 0.141453
H	-2.9632716475	-0.242036563	-2.1251308136	 0.11541
H	-2.1363604065	-2.3424725122	 1.6431247246	 0.103695
H	-3.5595110422	-2.419807445	 0.6039225638	 0.106559
H	-2.9627770696	-5.8636681224	 1.5183532812	 0.134484
H	-2.7641542074	-4.4985498898	 2.6509412048	 0.104039
H	-4.1941322423	-4.5732633188	 1.5870997197	 0.104757
27.5534	84.4716	86.8917	99.2302	146.8371	193.8679	209.824	233.8078	248.9734	279.6908	301.999	334.0429	377.3159	462.4977	577.8987	697.0877	776.4911	827.4554	865.4303	957.2393	975.4534	992.7103	1010.8328	1039.093	1080.0404	1106.8201	1134.5554	1174.9587	1184.1225	1194.7963	1241.5559	1256.3648	1288.7973	1328.3813	1361.3701	1377.1807	1405.987	1407.2641	1415.0835	1464.757	1484.6341	1488.2008	1491.0206	1492.5141	1499.0874	1506.3046	1509.4097	1514.9629	1827.5786	2920.8571	2940.2978	2969.263	3007.3825	3013.0648	3020.7001	3034.4374	3046.0393	3065.7524	3100.7701	3108.2821	3114.1778	3120.0301	3130.9719
CCC(C)C(=O)COC	CC[C@@H](C)C(=O)COC	
InChI=1S/C7H14O2/c1-4-6(2)7(8)5-9-3/h6H,4-5H2,1-3H3	InChI=1S/C7H14O2/c1-4-6(2)7(8)5-9-3/h6H,4-5H2,1-3H3/t6-/m1/s1
