17
gdb 121083	4.04956	0.8246	0.71641	3.9831	64.92	-0.2802	0.0383	0.3185	1511.6038	0.136114	-496.145627	-496.136887	-496.135943	-496.180264	30.681	
O	 0.1500183682	 1.4001282132	 0.236073671	-0.41394
C	 0.0800145203	 0.0006151695	 0.0294279102	-0.071778
C	-1.3621782636	-0.5179188655	 0.0653336716	-0.229445
C	-1.461297507	-2.0272966589	-0.0719177857	 0.094997
C	-2.890455792	-2.5953485601	-0.0395124604	-0.121287
O	-2.8816720471	-3.5948051121	-1.0600441175	-0.241594
C	-1.8033637132	-3.4169519009	-1.867611946	 0.501711
O	-1.5983292493	-4.0238145377	-2.8683764941	-0.368737
O	-0.9949105056	-2.4466738761	-1.3679135424	-0.259497
H	-0.1807983408	 1.8356178033	-0.5557481509	 0.286318
H	 0.5607543816	-0.298906329	-0.9119061411	 0.119117
H	 0.6548710778	-0.4519786867	 0.8455052052	 0.115371
H	-1.8218291254	-0.2186491939	 1.0153563208	 0.119198
H	-1.9471241185	-0.0532403257	-0.7391841216	 0.105081
H	-0.8298242892	-2.5218563992	 0.677704093	 0.10377
H	-3.1491887108	-3.0619263673	 0.9125165807	 0.136738
H	-3.6407480752	-1.8354293631	-0.286984743	 0.123976
61.2318	94.2221	101.9436	156.3602	189.4555	292.8007	329.8949	352.6999	490.3923	552.8543	682.9484	725.3633	776.9342	789.2457	881.1294	948.3019	985.698	1004.372	1076.2314	1092.9467	1094.8179	1110.5745	1116.6507	1159.9012	1196.2333	1241.8262	1284.514	1321.7464	1374.9216	1382.0731	1407.2494	1423.9614	1424.06	1472.837	1512.5246	1523.485	1929.4941	3013.7674	3019.1133	3027.2618	3042.4029	3059.8961	3083.1042	3118.9214	3820.7446
OCCC1COC(=O)O1	OCC[C@H]1COC(=O)O1	
InChI=1S/C5H8O4/c6-2-1-4-3-8-5(7)9-4/h4,6H,1-3H2	InChI=1S/C5H8O4/c6-2-1-4-3-8-5(7)9-4/h4,6H,1-3H2/t4-/m0/s1
