14
gdb 129486	4.67381	1.11219	0.89936	1.0664	66.93	-0.2202	-0.0364	0.1838	1201.6251	0.102472	-466.222375	-466.214201	-466.213257	-466.25533	29.908	
N	-0.1442074998	 1.3275240672	 0.0224004574	-0.565235
C	 0.0867964011	-0.0008362051	 0.0091479506	 0.525646
O	 1.1574617576	-0.5596278265	 0.0114801159	-0.371253
N	-1.1276762593	-0.7641604851	-0.0087056275	-0.013297
C	-1.2344480698	-2.1258466137	-0.0345496813	-0.15428
C	-2.5919715326	-2.3447753504	-0.0346316778	 0.318977
N	-3.320845036	-3.5222507046	-0.1177227487	-0.589756
N	-3.230599059	-1.1320908507	-0.0098721556	-0.243396
N	-2.3435119903	-0.1836715232	 0.0016428754	-0.155932
H	 0.6471504023	 1.9455162301	 0.0362196564	 0.277975
H	-1.0880260661	 1.6795229607	 0.0192336332	 0.291573
H	-0.3670916293	-2.7598163225	-0.0521670441	 0.165136
H	-2.911496131	-4.3030930528	 0.3750303673	 0.254021
H	-4.2846814378	-3.3823827036	 0.155161279	 0.259821
74.6493	129.0374	193.5632	237.8963	244.1748	343.6451	375.7393	416.3212	536.9581	586.2127	632.0768	650.1995	686.4077	733.3367	763.3575	770.5161	792.2575	1020.4891	1036.4937	1097.976	1104.4713	1133.5609	1276.7553	1302.5258	1340.8743	1412.3398	1482.8283	1596.2818	1621.8561	1659.0257	1850.7573	3313.848	3556.3159	3601.8013	3653.935	3751.7322
NC(=O)N1C=C(N)N=N1	NC(=O)n1cc(N)nn1	
InChI=1S/C3H5N5O/c4-2-1-8(3(5)9)7-6-2/h1H,4H2,(H2,5,9)	InChI=1S/C3H5N5O/c4-2-1-8(3(5)9)7-6-2/h1H,4H2,(H2,5,9)
