14
gdb 46447	3.8034	1.19846	1.07707	2.6798	67.1	-0.2666	-0.0587	0.208	1087.9926	0.100904	-436.702455	-436.695021	-436.694077	-436.734644	27.639	
O	 0.0097811839	-0.0087483402	 0.0615661616	-0.297165
C	-0.0280023172	 1.188581388	-0.0251638194	 0.42497
C	-1.2755094195	 2.0766056523	-0.1093339953	-0.348877
C	-0.8302947772	 3.354202421	-0.8555008869	-0.299544
C	 0.6819169843	 3.4010412487	-0.6493685934	 0.284873
O	 1.0633509875	 3.2423354611	 0.7156845601	-0.265792
C	 1.1782646935	 2.0965405355	-0.1447597135	-0.139781
C	 1.5002706095	 4.2793442709	-1.4500530526	 0.23416
N	 2.1192768822	 4.9937028859	-2.1147091587	-0.31972
H	-2.0839302136	 1.5389987487	-0.6065233148	 0.146751
H	-1.6045989398	 2.3036052807	 0.9095235722	 0.157601
H	-1.0427072187	 3.2829004374	-1.9264089844	 0.14086
H	-1.3033935879	 4.264656596	-0.480193008	 0.140812
H	 2.1766845932	 1.710138804	-0.319601437	 0.140851
97.8285	144.2418	156.2594	280.9032	371.6743	426.2202	484.0584	543.2189	558.5093	585.0643	649.6514	701.2183	801.2106	823.11	887.9489	945.4564	986.4811	1018.6318	1069.1809	1143.3901	1173.9089	1205.8196	1222.5404	1258.8715	1289.0572	1327.1576	1401.6262	1452.1077	1488.7109	1856.3644	2363.6656	3067.0831	3070.5166	3114.0129	3135.2815	3190.6125
O=C1CCC2(OC12)C#N	O=C1CC[C@]2(O[C@@H]12)C#N	
InChI=1S/C6H5NO2/c7-3-6-2-1-4(8)5(6)9-6/h5H,1-2H2	InChI=1S/C6H5NO2/c7-3-6-2-1-4(8)5(6)9-6/h5H,1-2H2/t5-,6-/m0/s1
