18
gdb 87047	2.4795	1.33899	1.0682	1.3418	79.05	-0.2478	0.0337	0.2814	1195.6302	0.145112	-401.862098	-401.852878	-401.851934	-401.896129	34.189	
C	-0.1148775789	 1.5020273495	-0.0570761101	-0.405099
C	-0.0103347551	 0.0048122143	 0.0791749074	-0.027097
N	 1.3026846534	-0.600079118	-0.158069597	-0.362324
C	 0.7212791079	-0.6653134327	 1.2099302203	 0.065824
C	 1.3883167408	 0.1183906582	 2.2190288645	 0.301908
C	 1.9307563761	 0.7644561803	 3.0752711465	-0.422687
C	 0.1899203545	-2.0034482663	 1.6547301041	 0.039486
C	 0.7566461428	-2.7659057421	 2.7735085971	-0.202465
O	-0.4874271879	-2.0685769503	 2.9028839266	-0.227784
H	 0.7723478698	 1.989367299	 0.3514064875	 0.141542
H	-0.2083288896	 1.7811103381	-1.1117484148	 0.122031
H	-0.9954615486	 1.8757995786	 0.4751313851	 0.124955
H	-0.8803375409	-0.5490531969	-0.2741003932	 0.089704
H	 1.2142099763	-1.5106066945	-0.6060813709	 0.233689
H	 2.4105847811	 1.3404706493	 3.8275330209	 0.196209
H	-0.2964790089	-2.5571481064	 0.8472837743	 0.083675
H	 0.6854853319	-3.8525420778	 2.7725155783	 0.116744
H	 1.5830038354	-2.3414511824	 3.3387968334	 0.131689
65.8322	136.3997	151.4548	176.2956	181.9107	238.9463	348.8897	371.0313	383.0787	501.2455	571.3874	597.9624	615.4867	662.3051	665.6136	799.0737	858.5272	880.1144	891.0259	970.1965	996.0825	1032.3062	1047.779	1093.4423	1109.8936	1130.5976	1162.4391	1169.7592	1235.0763	1256.593	1288.7962	1362.1038	1405.0109	1425.534	1450.1528	1487.1367	1493.517	1521.0855	2239.9063	3041.1815	3072.1114	3092.6715	3103.3407	3104.7253	3140.3155	3187.6131	3479.9152	3501.0791
CC1NC1(C#C)C1CO1	C[C@H]1N[C@]1(C#C)[C@H]1CO1	
InChI=1S/C7H9NO/c1-3-7(5(2)8-7)6-4-9-6/h1,5-6,8H,4H2,2H3	InChI=1S/C7H9NO/c1-3-7(5(2)8-7)6-4-9-6/h1,5-6,8H,4H2,2H3/t5-,6-,7+/m1/s1
