18
gdb 97158	4.10098	1.15809	0.96833	1.8204	74.12	-0.2459	0.0231	0.2691	1217.5719	0.147838	-439.073029	-439.064703	-439.063759	-439.106868	30.571	
C	-0.5577600282	 1.4265775999	 0.4177947615	-0.31619
N	-0.288594483	 0.015904687	 0.1737373328	-0.298701
C	 0.7612937299	-0.4875083978	 0.664472196	 0.402973
C	 1.1184202526	-1.9408268378	 0.4351604817	-0.340604
C	 1.6659614344	-2.582394087	 1.7008038194	 0.041075
O	 3.069967541	-2.8482314093	 1.7249428761	-0.244517
C	 2.577606281	-1.7445856705	 2.4909159616	 0.01944
C	 2.8270546166	-0.365062031	 1.9106964721	-0.111497
O	 1.6157997746	 0.248314156	 1.4383634308	-0.257982
H	 0.292994786	 2.0676501369	 0.153744555	 0.117308
H	-1.4239452674	 1.7310184922	-0.1746569855	 0.115128
H	-0.7839150003	 1.6145026943	 1.4757453938	 0.118655
H	 0.2289089418	-2.4442248683	 0.057843605	 0.139423
H	 1.8945983728	-2.0095142956	-0.3369623544	 0.139996
H	 1.0537730143	-3.3317462764	 2.1972612094	 0.111556
H	 2.6514160902	-1.8662833511	 3.5689592407	 0.108402
H	 3.2175298099	 0.3291243082	 2.6571363878	 0.126124
H	 3.5532179339	-0.4458356599	 1.0933106261	 0.129411
40.8045	82.1592	177.5888	210.0488	249.8716	326.7344	403.0664	465.1579	487.629	572.0555	619.7338	755.3814	777.4798	837.0151	845.1039	910.6938	976.8163	1008.4437	1033.5465	1056.354	1064.874	1095.4547	1109.4772	1146.7435	1163.1969	1204.1675	1241.8454	1273.9361	1279.6068	1318.0518	1360.5685	1405.4459	1436.4943	1451.1463	1463.2499	1484.2488	1498.1069	1499.2247	1770.2288	3006.4158	3039.4796	3043.1924	3058.2415	3105.471	3114.3074	3132.3813	3141.8505	3150.2439
CN=C1CC2OC2CO1	CN=C1C[C@H]2O[C@H]2CO1	
InChI=1S/C6H9NO2/c1-7-6-2-4-5(9-4)3-8-6/h4-5H,2-3H2,1H3	InChI=1S/C6H9NO2/c1-7-6-2-4-5(9-4)3-8-6/h4-5H,2-3H2,1H3/t4-,5+/m1/s1
