21
gdb 117046	3.99944	0.76466	0.653	0.6287	82.92	-0.2244	-0.0529	0.1716	1775.2064	0.180571	-420.443096	-420.432103	-420.431159	-420.480545	38.264	
C	-0.1240065668	 1.5392095114	-0.1547743155	-0.406727
C	-0.008434716	 0.0288464602	 0.0200162897	-0.093283
N	-1.311817009	-0.5991991561	-0.0488640974	-0.298394
C	-1.4809471599	-1.9421357785	-0.0618673433	 0.25963
N	-0.4856910638	-2.7569091619	-0.0621536008	-0.542531
C	-2.9620177167	-2.3302145477	-0.0765836169	 0.350691
O	-3.8099545759	-1.4647584816	-0.0267893055	-0.321392
C	-3.3153658032	-3.8041834137	-0.1479970755	-0.301692
C	-4.8213182439	-4.0559559737	-0.172890996	-0.383323
H	 0.8638001513	 2.0042197816	-0.1007983721	 0.126009
H	-0.5669331449	 1.7914919861	-1.1235961336	 0.126109
H	-0.74547671	 1.9833912818	 0.6307906923	 0.121689
H	 0.6295862711	-0.4074196136	-0.7574681801	 0.126039
H	 0.4765042011	-0.2131519438	 0.9765807789	 0.112115
H	-2.153381325	-0.048615131	 0.0213053536	 0.255869
H	-0.8051045604	-3.721066137	-0.0942612809	 0.213057
H	-2.8277254819	-4.2276413172	-1.0361137225	 0.136622
H	-2.8454082759	-4.3067228237	 0.7079896505	 0.137174
H	-5.0292052545	-5.1279756054	-0.2229808522	 0.114322
H	-5.2997828118	-3.6505045925	 0.7219815392	 0.134255
H	-5.2840287839	-3.5718973836	-1.0365858218	 0.133761
36.699	64.5932	81.2509	94.859	120.0734	200.6159	234.3503	259.4698	326.7837	331.7645	394.4682	416.1508	458.793	523.3687	666.7267	690.0795	783.8285	814.4649	819.5123	843.8835	912.2111	992.9408	1030.0243	1080.1259	1084.3028	1136.1757	1166.6248	1174.9177	1192.6908	1272.4364	1287.5206	1304.2768	1368.8613	1393.5818	1416.7163	1417.7236	1456.3732	1493.6409	1494.6614	1497.3509	1500.6595	1526.8643	1553.2142	1691.6162	1786.1971	3005.9648	3024.6214	3036.2898	3051.4251	3053.3367	3053.918	3103.6591	3120.6062	3126.5099	3129.5888	3530.2597	3631.9048
CCNC(=N)C(=O)CC	CCNC(=N)C(=O)CC	
InChI=1S/C6H12N2O/c1-3-5(9)6(7)8-4-2/h3-4H2,1-2H3,(H2,7,8)	InChI=1S/C6H12N2O/c1-3-5(9)6(7)8-4-2/h3-4H2,1-2H3,(H2,7,8)
