18
gdb 70503	2.66435	1.56726	1.13745	5.3196	82.15	-0.2038	-0.0283	0.1756	1088.8651	0.147938	-401.964563	-401.956264	-401.95532	-401.997087	31.919	
C	-0.0721093711	 1.5432042912	 0.0385602262	-0.47717
C	 0.031044846	 0.0355566427	 0.0139566757	 0.226144
C	-0.7864356599	-0.8122707133	 0.9736847335	-0.334416
C	 0.7179058424	-0.7893821976	 1.1084795656	-0.048994
N	 1.4785283604	-1.7988161789	 0.413784021	-0.276107
C	 1.2144590925	-1.742153756	-0.9207311321	-0.088055
C	 0.4335718291	-0.673965974	-1.2506234929	 0.113086
C	 0.088060934	-0.3133862952	-2.6009870528	 0.055738
O	-0.603299061	 0.6330427021	-2.9371525778	-0.319052
H	 0.867848647	 2.0074468699	-0.27819222	 0.118455
H	-0.8527724568	 1.8776470784	-0.6478387368	 0.155917
H	-0.3071779077	 1.9018109416	 1.0458245472	 0.102345
H	-1.3334614724	-0.2786338862	 1.743473236	 0.116642
H	-1.2682948112	-1.711588535	 0.6054942228	 0.111111
H	 1.190062659	-0.353944435	 1.982125968	 0.104051
H	 1.8103134524	-2.6332131218	 0.868438983	 0.256311
H	 1.6241466225	-2.4912223678	-1.5871840128	 0.137974
H	 0.5138690347	-1.0023756952	-3.3688611737	 0.046018
104.5396	180.272	202.4886	239.7503	265.9675	316.7406	334.6826	423.4621	437.403	503.9428	611.1621	643.2194	698.8261	765.8891	838.8599	843.1366	897.3711	915.7549	972.1549	1010.3898	1023.7992	1044.0219	1081.3663	1096.095	1120.8895	1155.8586	1230.5994	1268.4222	1298.055	1376.5795	1389.9141	1419.2126	1434.7653	1451.392	1478.6296	1482.6598	1504.5551	1626.3469	1755.1084	2839.8938	3036.3147	3098.7359	3128.5524	3133.0618	3168.1765	3217.0422	3220.6901	3650.4364
CC12CC1NC=C2C=O	C[C@]12C[C@H]1NC=C2C=O	
InChI=1S/C7H9NO/c1-7-2-6(7)8-3-5(7)4-9/h3-4,6,8H,2H2,1H3	InChI=1S/C7H9NO/c1-7-2-6(7)8-3-5(7)4-9/h3-4,6,8H,2H2,1H3/t6-,7-/m1/s1
