17
gdb 43468	2.57296	1.8139	1.27221	1.2568	74.98	-0.2559	-0.0119	0.244	991.9031	0.139997	-418.053971	-418.04707	-418.046126	-418.085216	27.88	
N	-0.0919918611	 1.3183251146	-0.0354398199	-0.532216
C	-0.0406445932	 0.048073863	-0.0013268173	 0.391944
N	 1.122704582	-0.732834101	 0.0127856924	-0.359086
C	 1.1077533565	-2.125835913	 0.0506196633	 0.406375
O	 2.1260080612	-2.7777164996	 0.0620394953	-0.358327
C	-0.3027630218	-2.6854780845	 0.0742891792	-0.12607
C	-1.146936778	-1.9505217345	-1.011257273	-0.240978
C	-1.2889021348	-0.7970026322	 0.0291077984	-0.060528
C	-1.1340066978	-1.8925769507	 1.1285828142	-0.240979
H	 0.8420922305	 1.7348674481	-0.0523807548	 0.20751
H	 2.0324956909	-0.2914945286	-0.0047082356	 0.251622
H	-0.2648384046	-3.7728164862	 0.1035019612	 0.095276
H	-0.679484552	-1.7295680706	-1.9732878248	 0.117657
H	-2.1024204336	-2.4542324813	-1.1715082981	 0.115727
H	-2.1664353151	-0.1544673042	 0.0170102874	 0.098692
H	-2.0873202489	-2.3865668491	 1.3273822015	 0.115725
H	-0.6550455301	-1.6200382303	 2.0715323306	 0.117655
132.6678	159.5836	318.0775	359.1964	419.4077	449.105	520.291	579.8247	615.9109	708.6689	738.563	760.1222	827.9481	858.7606	881.6926	907.3867	924.0003	930.0527	1010.3084	1020.0952	1083.151	1084.9384	1098.0017	1143.2596	1143.9679	1248.2828	1248.3861	1256.0883	1285.7664	1318.5536	1340.8633	1390.1979	1405.4197	1483.895	1516.545	1744.2815	1825.3166	3068.3595	3071.4259	3128.3147	3128.3286	3137.3177	3145.5292	3439.2172	3594.4369
N=C1NC(=O)C2CC1C2	[NH][C]1NC(=O)[C@@H]2C[C@H]1C2	
InChI=1S/C6H8N2O/c7-5-3-1-4(2-3)6(9)8-5/h3-4H,1-2H2,(H2,7,8,9)	InChI=1S/C6H8N2O/c7-5-3-1-4(2-3)6(9)8-5/h3-4H,1-2H2,(H2,7,8,9)/t3-,4+
