21
gdb 107167	2.60535	1.47316	1.16297	1.4154	82.58	-0.2487	0.0709	0.3196	1143.445	0.182675	-387.04004	-387.031261	-387.030317	-387.0734	34.107	
C	 0.0197093557	 1.5955528232	 0.0641755583	-0.423628
C	 0.1449796293	 0.0864295276	 0.0777678662	-0.000862
C	 1.4176679492	-0.6715958498	-0.1959163104	-0.078968
C	 2.6262567207	-0.024760538	 0.4382095128	-0.103679
C	 3.1920280534	-0.9179137184	 1.5153954085	-0.333317
C	 1.9578226894	-0.1094045024	 1.8213678219	 0.369558
C	 1.9240942109	 0.9065610501	 2.9295922643	-0.196388
O	 3.1597886777	 1.6119239808	 2.936074917	-0.42249
C	 0.7390048626	-0.7471486894	 1.1916130213	-0.177777
H	 0.9170457699	 2.083292665	 0.4512486327	 0.133083
H	-0.1383991446	 1.9570456863	-0.9583204883	 0.112128
H	-0.8335037542	 1.926859166	 0.6671528389	 0.109862
H	-0.7182140479	-0.4140461586	-0.3614630971	 0.07985
H	 1.4611993033	-1.4595978949	-0.940690517	 0.080885
H	 3.1973036061	 0.8040356446	 0.0366993171	 0.0923
H	 3.1303882304	-1.9985160524	 1.4129177528	 0.095599
H	 4.0982012901	-0.5504004751	 1.9856032935	 0.122557
H	 1.0778083065	 1.5946917807	 2.7805053574	 0.08958
H	 1.7582755084	 0.3947928222	 3.8928730326	 0.086184
H	 3.1711863731	 2.1886894128	 3.7049960143	 0.288865
H	 0.19999357	-1.5925110004	 1.6081356932	 0.076657
59.1464	165.2938	176.7345	228.3882	245.9353	250.0661	325.9655	387.3915	461.7372	492.9735	624.2803	649.922	726.6519	757.6604	819.7858	832.8197	895.9198	920.0867	966.2839	984.8441	997.2068	1017.7265	1045.5982	1057.2751	1066.8974	1082.8202	1093.7748	1105.3785	1113.4917	1144.0267	1188.3495	1209.3036	1242.3446	1252.7192	1271.8552	1320.3441	1340.7845	1377.9174	1412.0158	1439.6189	1468.282	1489.0464	1499.0669	1501.4474	1526.3292	2955.6888	2992.9212	3029.2501	3083.1194	3105.5526	3111.4597	3127.77	3150.8974	3164.4386	3181.4005	3211.0351	3835.8325
CC1C2C3CC3(CO)C12	C[C@H]1[C@H]2[C@@H]3C[C@]3(CO)[C@@H]12	
InChI=1S/C8H12O/c1-4-6-5-2-8(5,3-9)7(4)6/h4-7,9H,2-3H2,1H3	InChI=1S/C8H12O/c1-4-6-5-2-8(5,3-9)7(4)6/h4-7,9H,2-3H2,1H3/t4-,5-,6-,7-,8+/m0/s1
