21
gdb 112918	1.9785	1.57406	1.04997	1.3991	74.76	-0.2553	0.0855	0.3408	1230.8206	0.181897	-461.372214	-461.36264	-461.361695	-461.406802	35.485	
C	-0.6356427284	 1.0324006197	 0.3075928345	-0.245025
O	-0.3077805386	-0.3433507817	 0.3764200139	-0.26634
C	 0.886611899	-0.6164187538	 1.0811739118	 0.177836
O	 0.7779787526	-0.3549440559	 2.4507790076	-0.275065
C	 0.3992511972	-1.5574253357	 3.1746935464	 0.143375
C	-0.8382671784	-1.2774087845	 4.012853919	-0.394405
C	 0.2429528274	-2.6513354735	 2.1111196692	-0.277987
C	 1.1150836273	-2.1331240817	 0.9513025046	 0.106452
O	 0.8196892205	-2.6476378436	-0.3203117893	-0.443395
H	 0.1510676535	 1.6028752183	-0.207872997	 0.110843
H	-1.5653415018	 1.1156204522	-0.2593713876	 0.127076
H	-0.7795877157	 1.4544692169	 1.3086765225	 0.12929
H	 1.6968769241	 0.0107251988	 0.6843648098	 0.072153
H	 1.2408829664	-1.7944144834	 3.8396368075	 0.078795
H	-1.6895097831	-1.0358247277	 3.3690486136	 0.122939
H	-1.0963192402	-2.152790565	 4.6181980123	 0.115152
H	-0.6628457146	-0.4340851423	 4.6870037699	 0.12355
H	 0.5514574794	-3.6354123583	 2.4690301332	 0.10663
H	-0.7950583205	-2.7174017429	 1.7689903536	 0.107768
H	 2.1710518113	-2.3466445569	 1.1494777926	 0.092273
H	 0.0583780326	-2.1417809993	-0.6344377081	 0.288085
61.9662	102.435	133.9059	184.7339	218.4254	234.5275	297.6732	333.0074	413.4733	434.4285	452.4797	508.8504	549.5777	613.7815	732.8707	815.2068	878.9651	919.646	930.351	971.5469	1039.4719	1063.4787	1088.8592	1114.0612	1133.6875	1147.2454	1156.953	1183.1626	1203.6526	1218.0341	1259.4727	1304.0641	1336.8852	1359.9348	1377.7129	1389.571	1391.4489	1410.0447	1451.7011	1479.2631	1484.9999	1485.3981	1487.9402	1498.4834	1514.4097	2996.1724	3006.7837	3016.1401	3036.917	3052.7388	3060.5308	3069.6819	3109.6335	3116.1971	3121.2226	3125.5218	3764.0159
COC1OC(C)CC1O	CO[C@H]1O[C@@H](C)C[C@H]1O	
InChI=1S/C6H12O3/c1-4-3-5(7)6(8-2)9-4/h4-7H,3H2,1-2H3	InChI=1S/C6H12O3/c1-4-3-5(7)6(8-2)9-4/h4-7H,3H2,1-2H3/t4-,5+,6-/m0/s1
