15
gdb 55518	1.48793	1.10634	0.78655	0.9173	64.09	-0.1977	-0.0145	0.1832	1471.7898	0.105204	-491.147261	-491.134327	-491.133383	-491.190821	38.814	
N	 0.427377088	 0.1722851241	-0.7076062483	-0.551656
C	-0.5766066358	-0.0633797687	 0.2381636641	 0.386926
N	-0.5140479786	-1.3833076812	 0.72315722	-0.548598
H	 0.4307944243	-1.6535229996	 0.9732532206	 0.246668
H	-1.1454477435	-1.5468067796	 1.4956537962	 0.250175
C	-1.4873010738	 0.8384490356	 0.6353619093	-0.439149
C	-2.7687125303	 0.1010182069	-2.5476253878	-0.029962
O	-1.9739589642	 0.7851860588	-2.9741351949	 0.01595
C	-1.3720062916	-3.1768684747	-1.4890210431	 0.59592
O	-0.8046294847	-2.5107102102	-2.2588928876	-0.309523
O	-1.946179363	-3.8734650171	-0.7589533718	-0.293642
H	 0.4958750129	-0.5752472179	-1.3892966783	 0.254238
H	 0.3282524887	 1.0651399762	-1.1706876561	 0.247901
H	-2.143406243	 0.6415289452	 1.4730470145	 0.086533
H	-1.5791358855	 1.7960101621	 0.1402123932	 0.088218
23.8487	30.0035	38.5822	59.0245	64.8057	73.885	83.6432	91.4999	95.7613	121.65	368.4491	376.0441	466.536	481.4028	586.7583	653.7418	662.4248	690.2995	739.7451	796.1468	818.3098	926.4078	989.7418	1144.7689	1181.8189	1375.8163	1407.1598	1452.9139	1631.9476	1641.8183	1731.6571	2193.8506	2429.4966	3172.1717	3256.439	3522.1486	3529.9581	3631.6834	3636.8393
NC(=[NH2+])CC(=O)C([O-])=O	[NH2]=C(N)[CH2].[C]=O.C(=O)=O	
InChI=1S/C4H6N2O3/c5-3(6)1-2(7)4(8)9/h1H2,(H3,5,6)(H,8,9)	InChI=1S/C2H6N2.CO2.CO/c1-2(3)4;2-1-3;1-2/h1,3-4H2;;
