21
gdb 41333	2.8921	1.83797	1.50458	1.4636	80.8	-0.2267	0.085	0.3117	966.3396	0.186463	-387.082942	-387.076205	-387.075261	-387.113541	29.32	
C	 0.0118411873	 1.5391873857	 0.2250302792	-0.268375
C	 1.5537246353	 1.4810755528	-0.0775257111	-0.339827
C	 1.2624271352	 0.1938538267	-0.8536341981	 0.476756
C	 0.7805138109	 0.2623748984	-2.3150385815	-0.273615
C	 0.0732991988	-1.0984468176	-2.1785726082	-0.044508
C	 1.25172065	-1.9239741118	-1.5789845236	-0.088967
O	 2.0761785769	-0.9686431689	-0.8598062738	-0.334572
C	-0.9631833176	-0.7666239998	-1.0641674057	-0.268338
C	-0.0524693599	 0.0062995846	-0.0756483831	-0.001023
H	-0.2793685594	 1.8563667973	 1.2278264796	 0.101594
H	-0.5307769483	 2.1451786884	-0.5048021717	 0.104648
H	 2.0156463935	 2.3143980881	-0.612045994	 0.098235
H	 2.1232786055	 1.2769972449	 0.8329470788	 0.11451
H	 0.0961122813	 1.0834999722	-2.5399215118	 0.095951
H	 1.619576903	 0.2756393855	-3.0150203228	 0.098704
H	-0.3470691715	-1.5462415904	-3.0807208925	 0.063464
H	 0.9052612301	-2.7085670417	-0.8936769935	 0.095099
H	 1.8634569498	-2.3898938573	-2.3593226688	 0.102813
H	-1.7795875396	-0.1585984834	-1.4697336148	 0.095748
H	-1.4071523472	-1.6611542004	-0.6168582176	 0.093932
H	 0.1224635158	-0.5504751233	 0.8483735951	 0.077769
188.9684	266.9398	307.3552	382.1506	390.331	492.3945	519.3107	587.65	666.8759	746.7943	776.265	803.7525	831.563	861.569	885.6242	900.0558	935.5804	940.3251	946.3335	973.453	986.4173	1009.505	1063.1331	1089.8602	1111.5677	1136.8931	1139.9555	1175.0002	1194.3816	1202.232	1224.8092	1229.4651	1244.3659	1253.9144	1293.0075	1297.6474	1320.1046	1322.4901	1359.2677	1372.5661	1479.7122	1483.7884	1491.8103	1502.6108	1521.2979	3014.0435	3039.0221	3060.7553	3062.2114	3064.2318	3070.509	3071.2063	3090.0315	3103.1379	3113.1071	3120.59	3129.9227
C1CC23CC(CO2)CC13	C1C[C@@]23C[C@@H](CO2)C[C@H]13	
InChI=1S/C8H12O/c1-2-8-4-6(5-9-8)3-7(1)8/h6-7H,1-5H2	InChI=1S/C8H12O/c1-2-8-4-6(5-9-8)3-7(1)8/h6-7H,1-5H2/t6-,7-,8-/m0/s1
