14
gdb 123506	4.02847	1.79295	1.24074	1.8476	79.42	-0.2254	-0.0562	0.1691	920.5527	0.105956	-395.785364	-395.779605	-395.778661	-395.815354	23.462	
C	 0.0231932015	 1.3086002461	 0.0092949136	-0.083664
C	 1.3240821431	 1.7743701703	-0.0006280388	-0.111762
N	 2.1014953526	 0.6519606596	-0.0144345325	 0.010829
N	 3.4458000057	 0.6062276712	-0.0276254782	-0.233404
C	 3.9474917061	-0.6063068044	-0.0393191476	 0.017738
C	 3.1863563876	-1.8040339616	-0.0387809107	-0.130715
C	 1.8177848213	-1.7263865107	-0.0251778127	-0.188357
C	 1.2276055514	-0.4515487327	-0.0122809175	 0.417682
N	-0.0375481131	-0.0513188685	 0.0021553207	-0.343622
H	-0.8760685326	 1.9073293407	 0.0213499037	 0.119196
H	 1.7605376571	 2.7579802399	 0.0007206408	 0.144715
H	 5.0318189807	-0.6417596667	-0.0499536521	 0.129694
H	 3.6973854802	-2.7586790104	-0.0491033526	 0.116152
H	 1.1760069083	-2.5989495527	-0.023947436	 0.135517
223.2795	243.5706	431.7814	443.8076	579.1509	601.8397	635.421	654.759	746.9453	767.999	774.0433	818.8471	893.7609	910.206	928.3678	955.5774	989.9296	1042.695	1083.2845	1140.4182	1178.6721	1223.6978	1303.001	1313.3405	1376.2535	1397.1406	1454.7818	1489.4796	1526.2538	1562.944	1662.4355	3188.7835	3207.5833	3222.0283	3242.3411	3295.045
C1=CN2N=CC=CC2=N1	c1cn2ncccc2n1	
InChI=1S/C6H5N3/c1-2-6-7-4-5-9(6)8-3-1/h1-5H	InChI=1S/C6H5N3/c1-2-6-7-4-5-9(6)8-3-1/h1-5H
