16
gdb 28484	3.05952	1.43274	0.98276	2.3481	77.76	-0.2023	-0.0328	0.1695	1148.7228	0.125717	-434.138737	-434.130671	-434.129726	-434.170988	31.207	
C	 0.0267165502	 1.4896235739	-0.0724187761	-0.498544
C	 0.037119448	-0.0114159414	-0.0165406873	 0.280128
N	 0.0268549578	-0.689596723	-1.1652205581	-0.39059
C	 0.0540899126	-2.0159037283	-1.1125842126	 0.379713
O	 0.0480175221	-2.7066142683	-2.2772685051	-0.426418
C	 0.0889992466	-2.698949217	 0.1017483553	-0.096489
N	 0.0860671154	-2.0375719601	 1.2559275755	-0.29866
C	 0.0636312101	-0.7042125793	 1.2123582164	 0.298175
N	 0.131700348	-0.0263710414	 2.4271638602	-0.57101
H	 0.8637438196	 1.9105049192	 0.4969695187	 0.140892
H	 0.0958429953	 1.8210386806	-1.109285703	 0.141821
H	-0.8951456917	 1.9047641244	 0.3577540326	 0.125454
H	 0.0255205273	-2.0448372808	-2.9813245057	 0.29574
H	 0.1134815405	-3.7836391662	 0.1324786826	 0.119687
H	-0.0672055053	-0.6336485513	 3.210528386	 0.252226
H	-0.3802026167	 0.842557969	 2.4726186806	 0.247876
121.1188	164.1924	221.7162	286.1901	333.0175	348.4126	393.9754	460.4612	487.9555	500.253	517.6408	587.9651	620.0065	670.9777	727.9455	799.7541	816.4175	921.2185	982.0844	1033.8876	1054.4288	1081.7398	1187.5647	1237.693	1293.6569	1323.8869	1372.9411	1403.3835	1467.9678	1481.9039	1483.6186	1509.985	1605.3405	1636.8923	1644.9165	3013.9528	3068.0655	3143.1847	3179.7294	3556.3319	3662.8726	3778.3355
CC1=NC(O)=CN=C1N	Cc1nc(O)cnc1N	
InChI=1S/C5H7N3O/c1-3-5(6)7-2-4(9)8-3/h2H,1H3,(H2,6,7)(H,8,9)	InChI=1S/C5H7N3O/c1-3-5(6)7-2-4(9)8-3/h2H,1H3,(H2,6,7)(H,8,9)
