20
gdb 101297	2.27596	1.03825	0.77684	4.3934	76.71	-0.2504	-0.0293	0.2211	1475.6473	0.168822	-440.261059	-440.25092	-440.249976	-440.296983	36.184	
C	 0.0898643954	 1.4365947051	 1.609690403	-0.418568
C	-0.1537895281	 0.6425523023	 0.3192056711	 0.005802
C	 0.7459906158	-0.6020899334	 0.2252263575	-0.070672
O	 2.1289476175	-0.2938811599	 0.2343461452	-0.418984
C	-1.6129882415	 0.2390645427	 0.2281308234	-0.012443
N	-2.566706335	 1.222409626	-0.2654102318	-0.339328
C	-2.3564262389	-0.0079247729	-1.0588558112	-0.133811
C	-1.7244558818	 0.1809385489	-2.3947367844	 0.172196
O	-1.8107664572	-0.6229078049	-3.2894007309	-0.259674
H	 1.1257949256	 1.7846303952	 1.6685884538	 0.114956
H	-0.5565165391	 2.317882464	 1.6467327952	 0.134654
H	-0.1182399983	 0.8263874043	 2.497972464	 0.109279
H	 0.0855482499	 1.2910332004	-0.5301593534	 0.092359
H	 0.4887063924	-1.3077079144	 1.0333387801	 0.083454
H	 0.561681834	-1.1187714741	-0.722581319	 0.12276
H	 2.3676767213	-0.0132863603	 1.122511638	 0.285737
H	-1.9434230153	-0.4017810049	 1.0478714487	 0.092247
H	-3.4524157388	 1.1689599205	 0.2295042762	 0.243659
H	-3.1106781567	-0.7910782427	-1.0407664511	 0.105651
H	-1.1677643513	 1.1354587381	-2.510604074	 0.090726
46.6488	74.7487	103.8298	156.1441	207.9228	240.8812	257.9236	301.3216	319.1261	360.4629	406.6437	454.5894	525.4009	549.0418	796.1167	857.3186	891.6001	913.1398	922.905	965.2122	994.8887	1040.7958	1069.1387	1074.6782	1103.0224	1133.3654	1147.1928	1198.9192	1226.7433	1237.7536	1258.9125	1292.8954	1352.7368	1365.4794	1391.2881	1405.4316	1421.7313	1423.8635	1469.7184	1496.6216	1499.699	1512.8256	1819.9692	2907.4091	2963.0455	3023.3	3055.8488	3074.6305	3087.6833	3096.0585	3113.9757	3146.1174	3515.0405	3832.5211
CC(CO)C1NC1C=O	C[C@@H](CO)[C@H]1N[C@H]1C=O	
InChI=1S/C6H11NO2/c1-4(2-8)6-5(3-9)7-6/h3-8H,2H2,1H3	InChI=1S/C6H11NO2/c1-4(2-8)6-5(3-9)7-6/h3-8H,2H2,1H3/t4-,5-,6+/m0/s1
