17
gdb 67906	2.45229	1.97692	1.38055	2.9441	73.19	-0.2466	0.0049	0.2515	964.1651	0.13603	-417.947601	-417.940153	-417.939209	-417.979165	29.603	
C	-0.1430702222	 1.4525727969	-0.0139632793	-0.49018
C	 0.0282020183	-0.0357332598	 0.0560823924	 0.43551
O	-1.2512556838	-0.7703837097	 0.0059031354	-0.303093
C	-0.9104831266	-1.5090007347	 1.1338018736	 0.414817
N	-1.5640537105	-2.3716689903	 1.7666886103	-0.550035
C	 0.455464174	-0.8700073655	 1.2700904897	-0.163698
N	 1.6285796146	-1.4813930382	 0.5025299823	-0.144574
C	 1.1081264801	-2.1785146937	-0.6878835811	-0.253281
C	 1.1653119751	-0.7074804209	-0.7333962314	-0.079709
H	 0.8185682101	 1.9520958084	 0.1383605956	 0.136702
H	-0.5275628045	 1.7462300105	-0.9966862984	 0.139089
H	-0.8448428452	 1.7995387317	 0.7489320927	 0.137182
H	-2.4847640824	-2.5226780573	 1.3491417813	 0.229865
H	 0.7670646031	-0.4782552455	 2.2352149137	 0.113403
H	 1.893033815	-2.7110607473	-1.216244613	 0.13098
H	 0.1559319213	-2.6969350792	-0.6504667557	 0.145537
H	 1.8726467036	-0.1610381755	-1.3495372181	 0.101484
132.0741	211.5689	218.1334	268.154	307.1374	382.9568	462.996	534.7142	596.508	650.2737	687.042	724.1072	790.4015	841.5429	873.8511	883.356	910.5263	961.8837	978.1581	993.5086	1005.9342	1049.2585	1105.2916	1122.3675	1125.9833	1153.4325	1194.3664	1230.1933	1259.6303	1277.7447	1296.8584	1384.0825	1418.1793	1483.0723	1489.2031	1496.6229	1814.3724	3039.6362	3108.621	3124.5618	3128.3461	3150.4638	3160.9932	3214.9332	3467.3628
CC12OC(=N)C1N1CC21	C[C@]12O[C]([NH])[C@H]1N1C[C@@H]21	
InChI=1S/C6H8N2O/c1-6-3-2-8(3)4(6)5(7)9-6/h3-4,7H,2H2,1H3	InChI=1S/C6H8N2O/c1-6-3-2-8(3)4(6)5(7)9-6/h3-4,7H,2H2,1H3/t3-,4+,6+,8?/m0/s1
