16
gdb 25565	6.3547	0.69764	0.66276	1.8424	72.4	-0.2439	-0.0317	0.2122	1608.7856	0.124132	-437.926093	-437.917732	-437.916788	-437.961004	28.815	
O	-0.2204777744	 0.0430497373	 0.146060689	-0.230167
C	-0.0583926088	 1.2277333088	 0.0147994946	 0.157227
C	 1.285790242	 1.9168981966	-0.0545408867	-0.271041
C	 1.4088328684	 2.8058990124	-1.3138769776	-0.339235
C	 2.6586332524	 3.6093390576	-1.3402727827	 0.350888
C	 3.7498582878	 3.6672446973	-2.1425974758	-0.194476
N	 4.6312692638	 4.6330387153	-1.6672963729	-0.252296
C	 4.0426902144	 5.1019140824	-0.6190392833	 0.072497
O	 2.8409175667	 4.5392135795	-0.3448936857	-0.182186
H	-0.9305998229	 1.9197191183	-0.0675697334	 0.07334
H	 1.37769222	 2.5566705642	 0.8335584734	 0.138255
H	 2.0767719113	 1.1637830116	-0.0177161251	 0.132547
H	 1.3878572468	 2.1832712755	-2.2136403514	 0.13638
H	 0.5383411974	 3.4733530255	-1.3700885505	 0.128288
H	 3.9653681593	 3.0883226481	-3.0266811977	 0.127785
H	 4.3808462961	 5.8733307897	 0.0547765158	 0.152194
46.3403	63.4043	79.3881	118.5509	274.3124	308.0095	360.3352	513.7982	658.0948	669.6309	735.284	768.2295	836.6402	847.7826	861.0221	940.2536	975.1275	989.563	1068.2922	1086.054	1124.4877	1131.5333	1185.0619	1238.7299	1255.209	1269.8141	1304.0635	1362.4086	1367.4807	1429.5899	1462.2238	1480.3689	1552.931	1640.5652	1839.4586	2847.7823	3020.3266	3031.1662	3086.5619	3115.0956	3264.4386	3278.1576
O=CCCC1=CN=CO1	O=CCCc1cnco1	
InChI=1S/C6H7NO2/c8-3-1-2-6-4-7-5-9-6/h3-5H,1-2H2	InChI=1S/C6H7NO2/c8-3-1-2-6-4-7-5-9-6/h3-5H,1-2H2
