22
gdb 88451	2.50172	1.18383	1.11403	2.1691	82.76	-0.2142	0.0768	0.2909	1258.682	0.192347	-404.291788	-404.281876	-404.280932	-404.326128	37.691	
C	 0.08202841	 1.5215812011	-0.441266413	-0.310676
N	 0.0483548878	 0.1035243545	-0.119433349	-0.090006
C	 1.2975063154	-0.6375342878	-0.2476965097	-0.263874
C	 0.7155496111	-0.3835178892	 1.1022653188	-0.073216
C	 1.3756355319	 0.5080571838	 2.1295172548	 0.312423
C	 2.7908984994	 0.9980551766	 1.8754207043	-0.471167
C	 0.4565455854	 1.4232654643	 2.9373312914	-0.361325
C	 1.0478475137	 0.1992258079	 3.5777177819	 0.053398
O	 0.238187579	-0.9051766048	 3.854261079	-0.413583
H	 1.0180969834	 2.0370466529	-0.1773285835	 0.100528
H	-0.0726654391	 1.6365858161	-1.5193102816	 0.119154
H	-0.739359361	 2.0321799455	 0.0712904599	 0.117974
H	 1.2289446177	-1.6233449415	-0.7022210044	 0.109047
H	 2.1896671478	-0.0790806526	-0.5269401126	 0.101185
H	 0.159940614	-1.1959817889	 1.5605582688	 0.112309
H	 2.8475993106	 1.6829223014	 1.0232786132	 0.12194
H	 3.1751510024	 1.5368951927	 2.7480737025	 0.109798
H	 3.4658383868	 0.1593682239	 1.6749746346	 0.124235
H	 0.8196515586	 2.4029967239	 3.2309684251	 0.108839
H	-0.6018386441	 1.3812487623	 2.7016688756	 0.118919
H	 1.8603556461	 0.3431604755	 4.2903692757	 0.083894
H	-0.4329971271	-0.6338395475	 4.4883076882	 0.290203
63.4484	157.5176	177.3785	209.2057	218.4493	232.1166	248.4997	286.5163	341.469	372.3712	446.3367	460.1974	490.54	576.8431	686.0847	763.1271	803.8213	863.5516	887.9351	924.5423	946.325	1005.3564	1034.2281	1041.9135	1047.7126	1100.6978	1115.6	1121.6314	1137.576	1157.795	1170.1361	1186.6009	1209.8225	1277.5541	1286.4791	1316.7681	1355.8771	1405.8499	1415.163	1427.5856	1450.7097	1478.8677	1485.7608	1492.5719	1495.1019	1505.466	1519.8014	2986.9717	3028.7165	3065.1667	3089.2567	3091.6418	3096.8692	3097.1503	3099.0217	3124.5217	3153.0523	3170.9086	3214.0855	3814.1406
CN1CC1C1(C)CC1O	CN1C[C@H]1[C@@]1(C)C[C@H]1O	
InChI=1S/C7H13NO/c1-7(3-6(7)9)5-4-8(5)2/h5-6,9H,3-4H2,1-2H3	InChI=1S/C7H13NO/c1-7(3-6(7)9)5-4-8(5)2/h5-6,9H,3-4H2,1-2H3/t5-,6+,7+,8?/m0/s1
