14
gdb 16109	4.61495	1.72507	1.50926	1.0948	63.91	-0.2299	0.0264	0.2563	836.8719	0.106299	-382.472927	-382.46607	-382.465126	-382.503781	26.269	
C	 0.0000657819	-1.2383730779	-0.2184323319	-0.377285
C	 0.0322912814	-0.0507668383	-0.0350704223	 0.223747
C	 0.077844119	 1.3638808318	 0.1453184632	 0.215864
C	 0.2433035802	 2.3362458946	-1.0237041649	-0.385179
C	 1.3099419426	 2.2315419812	 0.0393062808	 0.035027
O	 1.2751773546	 3.1135221412	 1.125159748	-0.249554
C	-0.052849106	 3.0917465688	 1.6189949677	 0.004192
O	-0.6290755401	 1.8460015837	 1.2700104721	-0.287515
H	-0.0283344604	-2.289024572	-0.3698030641	 0.193817
H	 0.472915303	 1.8885540762	-1.9838645509	 0.136688
H	-0.3995421088	 3.2082357939	-1.065759793	 0.131971
H	 2.3030403604	 1.8578918811	-0.1713463661	 0.129786
H	-0.0346312679	 3.1909800158	 2.7084074998	 0.129204
H	-0.63502209	 3.9161203599	 1.1768681615	 0.099238
138.9948	159.8067	226.0568	317.2434	448.4514	473.3887	520.9288	577.4971	602.8843	687.3499	731.3673	745.2878	841.2623	860.7893	933.5709	968.35	1007.3277	1023.1286	1071.3486	1078.8914	1154.4159	1160.907	1215.5063	1222.5924	1285.8589	1372.4767	1435.5016	1463.3334	1549.7869	2243.757	2968.8307	3082.4396	3141.8076	3209.9922	3235.7198	3502.8487
C#CC12CC1OCO2	C#C[C@]12C[C@H]1OCO2	
InChI=1S/C6H6O2/c1-2-6-3-5(6)7-4-8-6/h1,5H,3-4H2	InChI=1S/C6H6O2/c1-2-6-3-5(6)7-4-8-6/h1,5H,3-4H2/t5-,6+/m1/s1
