12
gdb 48194	2.67492	0.83015	0.65356	3.219	83.21	-0.27	-0.0732	0.1969	1580.8444	0.074041	-398.299653	-398.290501	-398.289556	-398.334864	31.043	
O	-0.030800807	 0.0135441547	 0.1150059572	-0.209444
C	-0.0096106874	 1.2046222995	 0.0403005179	 0.181189
C	 1.3261676039	 2.016305304	-0.0244127319	-0.434229
C	 1.3465365851	 2.8010016626	-1.2656687653	 0.290139
N	 1.3235328304	 3.3942939597	-2.2563290179	-0.299091
C	 1.4185905933	 2.853341801	 1.163921144	 0.437616
C	 1.4477499726	 3.5089280154	 2.1793331254	-0.257187
C	 1.4881259914	 4.2542568434	 3.3159204043	 0.299023
C	 1.5239133111	 4.9144683466	 4.3254772933	-0.52687
H	-0.9159261434	 1.8400138766	 0.0316509373	 0.130331
H	 2.1364113786	 1.2778115285	-0.0510377557	 0.181346
H	 1.5557679113	 5.4976645979	 5.2129274513	 0.207178
51.2607	78.8497	91.0089	176.8191	208.0464	227.5118	348.5794	422.0865	441.9529	497.1281	516.4169	545.918	557.2136	618.9091	620.2892	784.9553	928.2693	974.7987	1035.3377	1179.6371	1210.3009	1307.2789	1399.7201	1852.6318	2187.1201	2362.0801	2368.6488	2956.7219	3050.4286	3500.2734
O=CC(C#N)C#CC#C	O=C[C@@H](C#N)C#CC#C	
InChI=1S/C7H3NO/c1-2-3-4-7(5-8)6-9/h1,6-7H	InChI=1S/C7H3NO/c1-2-3-4-7(5-8)6-9/h1,6-7H/t7-/m1/s1
