17
gdb 111079	2.4338	1.60448	1.27991	2.9255	67.9	-0.2309	-0.0202	0.2107	1040.201	0.135456	-458.93961	-458.931701	-458.930756	-458.97251	29.551	
C	 0.0404472823	 1.3450876906	 0.2156754879	-0.245986
O	 0.0000166555	 0.0165417517	-0.2750378199	-0.245872
C	-1.2363885064	-0.5966259141	-0.1233777774	 0.140579
C	-1.3279088487	-2.0899417052	-0.5018742531	 0.013838
C	-0.1722342843	-2.7569779041	 0.2614706156	-0.339914
C	-0.436069888	-2.0516312335	 1.6106704816	 0.456614
O	 0.1545827532	-2.124574963	 2.6502818658	-0.322873
C	-1.676787476	-1.2188524985	 1.2437085188	-0.101003
O	-2.4305175541	-2.1973503631	 0.4604297289	-0.297057
H	 1.0373237758	 1.7352669214	 0.0029344743	 0.138993
H	-0.7079322841	 1.978058512	-0.2830563392	 0.11454
H	-0.1331375757	 1.3817960911	 1.3000624788	 0.124045
H	-2.0607654635	-0.0155887797	-0.5560760321	 0.093893
H	-1.5766679452	-2.4327346966	-1.5047300049	 0.094791
H	-0.2979960151	-3.8396282032	 0.3338325439	 0.135413
H	 0.8248275596	-2.5228840078	-0.1173219207	 0.141741
H	-2.2374285154	-0.7138943581	 2.0268568916	 0.09826
65.8214	131.0125	182.8364	188.0254	292.8331	382.0103	441.4481	467.8963	553.7425	629.584	667.7014	787.5706	807.2717	852.8364	871.186	914.0635	954.167	989.7847	1014.5052	1044.4097	1111.0604	1130.7981	1154.9648	1166.6387	1185.5638	1201.5122	1228.9337	1244.8295	1282.9502	1289.5831	1322.3894	1374.9288	1440.4147	1484.6867	1492.1596	1505.6236	1885.2221	2991.0308	3034.2817	3046.7829	3079.9463	3131.5521	3136.2508	3138.3281	3159.1144
COC1C2CC(=O)C1O2	CO[C@H]1[C@H]2CC(=O)[C@@H]1O2	
InChI=1S/C6H8O3/c1-8-6-4-2-3(7)5(6)9-4/h4-6H,2H2,1H3	InChI=1S/C6H8O3/c1-8-6-4-2-3(7)5(6)9-4/h4-6H,2H2,1H3/t4-,5+,6+/m1/s1
