18
gdb 81506	3.52673	1.28287	1.05995	5.238	77.23	-0.2631	0.024	0.2871	1158.0194	0.146091	-401.893831	-401.885219	-401.884275	-401.926651	32.704	
C	-0.1944871758	 1.5542718337	 0.7942142898	-0.437046
C	-0.1268201266	 0.0683059934	 0.4947303529	 0.01496
C	 1.0526841523	-0.4637583196	-0.3683876635	 0.008957
O	 1.9709293399	-0.1688044202	 0.7511920516	-0.293166
C	 0.7995346114	-0.8252520391	 1.3680685399	 0.008954
C	 0.8617030637	-1.9038197944	 0.2282863599	 0.159633
C	-0.3173580817	-2.8087028707	-0.1319893829	-0.491454
C	 2.0982126619	-2.6867321234	 0.2455585318	 0.251231
N	 3.0207641036	-3.3829920683	 0.2351003309	-0.338282
H	 0.7963909226	 1.9506592297	 1.0211815779	 0.145743
H	-0.6036140783	 2.1003521969	-0.0622550172	 0.121948
H	-0.8529705935	 1.744252141	 1.6482843052	 0.121948
H	-1.112345254	-0.3410608914	 0.2658305278	 0.077486
H	 1.3762213939	-0.189867517	-1.3729555219	 0.11088
H	 0.8194047847	-0.9849893195	 2.4464646046	 0.11088
H	-1.2659999756	-2.2721283815	-0.1584128041	 0.13285
H	-0.1536249323	-3.2635731736	-1.113090976	 0.147237
H	-0.4027327358	-3.619772036	 0.5968123132	 0.14724
134.5016	154.2246	162.3522	214.164	250.6748	258.7003	327.1687	352.4534	479.2096	499.3068	562.3011	641.4905	713.8808	748.9806	780.2588	807.1541	876.6226	892.1561	925.1451	1027.8457	1056.6227	1082.6398	1111.268	1111.5752	1131.9215	1149.2507	1191.437	1209.0508	1219.1387	1271.1506	1280.9918	1394.5501	1406.753	1423.9539	1487.9939	1492.4145	1498.9721	1505.9561	2355.6433	3040.8051	3053.6469	3091.6876	3098.3685	3117.8859	3119.361	3124.4964	3142.886	3147.3146
CC1C2OC1C2(C)C#N	C[C@H]1[C@H]2O[C@@H]1[C@]2(C)C#N	
InChI=1S/C7H9NO/c1-4-5-7(2,3-8)6(4)9-5/h4-6H,1-2H3	InChI=1S/C7H9NO/c1-4-5-7(2,3-8)6(4)9-5/h4-6H,1-2H3/t4-,5+,6-,7+
