23
gdb 58960	2.52061	1.40032	1.20099	1.5463	84.64	-0.236	0.0737	0.3097	1192.877	0.205216	-388.269618	-388.260283	-388.259339	-388.303615	35.859	
C	-0.0303164278	 1.5076811241	-0.0056555401	-0.397767
C	 0.0765271399	-0.0225949958	-0.093334396	-0.056006
C	 0.8174741108	-0.470350755	-1.3601993779	-0.405289
C	 0.7000171996	-0.5770498915	 1.1744604132	 0.490784
C	 2.1942731098	-0.3314962853	 1.5258752604	-0.278641
C	 2.340065018	-1.8376876248	 1.9096700527	-0.223833
C	 0.8476250392	-2.0839672505	 1.5672903934	-0.151419
C	-0.1279013475	-1.7363363256	 2.699465413	-0.08739
O	-0.1443748091	-0.3372820832	 2.334909908	-0.338847
H	 0.963098673	 1.9707525333	 0.0173304973	 0.112179
H	-0.5642590246	 1.9110844353	-0.8720142317	 0.107173
H	-0.5657655219	 1.805910069	 0.899326504	 0.136118
H	-0.9427470018	-0.4312512598	-0.1318474179	 0.074979
H	 1.8270041347	-0.0481490192	-1.4074646075	 0.116816
H	 0.9049313883	-1.5605703927	-1.4150918571	 0.112136
H	 0.2817728662	-0.1341143519	-2.2535061066	 0.11491
H	 2.8213782884	-0.0314872585	 0.6826846044	 0.0998
H	 2.3261332969	 0.3868864387	 2.3372413912	 0.108835
H	 3.0245672639	-2.3814112157	 1.254520441	 0.10232
H	 2.6213213262	-2.047237186	 2.9455516769	 0.099392
H	 0.5969012132	-2.9220259688	 0.9170559318	 0.071188
H	-1.1257287668	-2.1842004074	 2.603163579	 0.097405
H	 0.2348519416	-1.8966083388	 3.7233527684	 0.095155
75.2866	83.6466	168.2551	215.5833	247.2646	262.8729	282.1998	338.6986	392.1196	436.6496	465.2246	611.2512	675.8027	738.9636	820.4649	867.4762	887.053	908.6908	928.6872	943.301	964.2437	972.1753	999.853	1008.6418	1046.2785	1068.0348	1104.8676	1148.0781	1155.2359	1170.6179	1184.4146	1192.0347	1229.6445	1236.0275	1266.8551	1307.6955	1323.24	1342.6913	1353.6617	1371.6934	1395.5063	1417.9726	1462.3565	1485.2352	1489.8707	1493.9629	1506.4804	1513.2345	1522.3175	3000.937	3009.1304	3029.8397	3033.7758	3041.8415	3056.0474	3068.9282	3093.5763	3099.642	3100.4211	3102.3064	3111.3805	3120.7663	3128.4317
CC(C)C12CCC1CO2	CC(C)[C@]12CC[C@H]1CO2	
InChI=1S/C8H14O/c1-6(2)8-4-3-7(8)5-9-8/h6-7H,3-5H2,1-2H3	InChI=1S/C8H14O/c1-6(2)8-4-3-7(8)5-9-8/h6-7H,3-5H2,1-2H3/t7-,8+/m0/s1
