18
gdb 95191	2.56508	1.71446	1.12899	4.4722	72.52	-0.2391	0.0034	0.2424	1079.3938	0.149025	-439.102073	-439.0939	-439.092956	-439.135056	30.33	
C	 0.0011903146	 1.4535866435	 0.0048831817	-0.346266
N	 0.0303785369	 0.0089492434	-0.1619660294	-0.10846
C	-1.2617972399	-0.6788938224	-0.1507201432	-0.164485
C	-1.2491347867	-1.9970587349	-0.9279283538	-0.24231
C	-0.0276282123	-2.8363630256	-0.5930143077	 0.032889
O	 1.1055618511	-2.6182839858	-1.432477403	-0.240705
C	 1.1693511542	-2.1552178852	-0.0754356795	-0.065375
C	 1.2071234287	-0.6514953456	 0.0817364542	 0.422373
O	 2.250777588	-0.0937711187	 0.374252847	-0.387219
H	 1.0261566872	 1.8204260786	-0.0079022133	 0.170198
H	-0.5699759034	 1.9132106172	-0.8085567141	 0.123467
H	-0.4629512796	 1.7389627198	 0.959084481	 0.121264
H	-1.5827393584	-0.8581809033	 0.8878159631	 0.110262
H	-1.9989285384	-0.0001692737	-0.59052502	 0.116953
H	-2.1666152251	-2.5489274346	-0.701671428	 0.109776
H	-1.2386546487	-1.8009534603	-2.0048186007	 0.131423
H	-0.1887966209	-3.8802708548	-0.3271656728	 0.100736
H	 1.8941438726	-2.6692792276	 0.5511859982	 0.115475
84.1007	128.3863	137.6473	225.7456	272.6279	349.7308	393.5394	433.0969	463.3825	532.9134	697.9876	711.3262	767.564	816.7136	857.2968	916.5015	939.3305	998.7141	1057.2183	1069.3643	1096.5576	1140.5787	1156.6845	1161.9036	1241.0579	1255.6765	1276.1771	1288.8926	1345.3122	1372.5015	1385.3982	1430.3683	1443.085	1466.4332	1473.5539	1498.1881	1504.0039	1534.6776	1769.0636	2976.8518	3010.1421	3051.0356	3073.1376	3073.9613	3097.3231	3119.3707	3150.2919	3169.1643
CN1CCC2OC2C1=O	CN1CC[C@H]2O[C@H]2C1=O	
InChI=1S/C6H9NO2/c1-7-3-2-4-5(9-4)6(7)8/h4-5H,2-3H2,1H3	InChI=1S/C6H9NO2/c1-7-3-2-4-5(9-4)6(7)8/h4-5H,2-3H2,1H3/t4-,5-/m1/s1
