23
gdb 109925	2.16161	1.29548	1.04817	2.2413	81.6	-0.2369	0.0681	0.305	1299.0585	0.202942	-425.419326	-425.408662	-425.407718	-425.454886	39.571	
C	 0.3724780751	 1.5747174199	-0.2503306873	-0.405605
C	 0.0498753006	 0.1224069387	 0.0474439695	 0.161114
O	 0.6905716482	-0.7898954247	-0.8779215783	-0.346115
C	 1.3137805672	-1.5510266425	 0.1954242053	 0.406118
C	 0.7480248857	-2.967213995	 0.2444274815	-0.424454
C	 2.8293246434	-1.5664349361	 0.0206892443	-0.429706
C	 0.7057313016	-0.5876522111	 1.2607749841	-0.096433
C	 1.6252327724	 0.206285317	 2.1693616522	-0.111506
O	 0.7973431458	 1.0534747339	 2.9587957844	-0.423641
H	 1.4522231643	 1.7447208289	-0.2930288674	 0.110798
H	-0.0482713807	 1.8572901869	-1.2203524907	 0.11905
H	-0.0536628479	 2.2215921487	 0.522200527	 0.127542
H	-1.0399206412	-0.0155021965	 0.0245600866	 0.071377
H	 1.0080251145	-3.5128369662	-0.6684717865	 0.119662
H	 1.1498810194	-3.5199059871	 1.101134835	 0.110308
H	-0.3421596333	-2.9449845308	 0.3292462953	 0.117547
H	 3.23544177	-0.5551478608	-0.0543473427	 0.115611
H	 3.3214146261	-2.083084296	 0.8517495641	 0.111489
H	 3.0826144209	-2.0955681075	-0.9037669694	 0.12287
H	-0.0298420539	-1.0848607989	 1.8986504248	 0.079534
H	 2.2020324431	-0.4869499908	 2.8030711172	 0.087813
H	 2.3496431996	 0.7959237038	 1.5908319714	 0.089556
H	 1.3652985593	 1.6062936461	 3.5035788794	 0.287072
38.9346	110.3938	170.8023	198.423	207.9102	223.1718	257.6876	277.5181	287.0319	323.6565	336.6984	402.4514	405.932	504.3769	543.1901	658.7735	783.4261	836.114	867.1094	920.5238	935.4935	982.7355	996.7788	1003.9279	1036.352	1060.6426	1085.9245	1137.1911	1156.806	1175.752	1186.898	1243.2163	1266.2483	1271.8666	1298.2285	1319.1961	1377.1594	1393.6193	1396.9444	1407.6909	1411.6726	1462.042	1472.4072	1480.9719	1483.3116	1493.375	1495.4444	1506.0162	1527.3809	2969.2781	2998.5307	3014.3063	3029.2456	3037.6813	3040.4661	3073.7236	3098.2132	3105.7916	3110.7016	3112.7289	3120.8047	3122.3839	3828.0391
CC1OC(C)(C)C1CO	C[C@H]1OC(C)(C)[C@H]1CO	
InChI=1S/C7H14O2/c1-5-6(4-8)7(2,3)9-5/h5-6,8H,4H2,1-3H3	InChI=1S/C7H14O2/c1-5-6(4-8)7(2,3)9-5/h5-6,8H,4H2,1-3H3/t5-,6+/m1/s1
