14
gdb 132201	1.90244	1.81713	0.9311	6.5343	68.86	-0.2164	-0.0053	0.2111	1139.4724	0.101842	-478.027095	-478.019459	-478.018514	-478.059089	29.45	
N	 0.1197909673	 1.3934430282	 0.1397197364	-0.588562
C	-0.0096514514	 0.0103528448	 0.0280450013	 0.437604
C	-1.1732225779	-0.686654479	 0.0102434863	-0.342946
C	-1.2102615485	-2.1492459214	-0.0078754442	 0.421384
O	-2.2529156685	-2.7938769056	-0.0195262073	-0.406039
C	 0.1157853295	-2.7882638579	-0.0364607252	-0.449729
C	 1.2214190427	-2.0302726731	-0.0225967504	 0.418208
F	 2.4594765552	-2.5104775566	-0.0246606104	-0.064733
N	 1.1993241445	-0.6602796784	-0.01188494	-0.43893
H	 0.7660466569	 1.8036746606	-0.5243688545	 0.254721
H	-0.7713073855	 1.8686182017	 0.1012750845	 0.265358
H	-2.1204529854	-0.1615040599	-0.0055257822	 0.098818
H	 0.1873897592	-3.8662743666	-0.0733688624	 0.12536
H	 2.048009822	-0.1747153868	 0.235227288	 0.269487
165.5685	186.4467	221.2126	292.9087	316.687	358.4995	420.2036	498.4925	508.9594	568.6543	604.6743	616.17	650.0276	716.663	741.6943	845.4262	862.1863	933.2602	1017.9136	1035.8175	1140.3279	1187.5072	1233.8889	1265.3217	1330.9854	1431.4646	1534.8906	1637.5754	1669.5442	1722.0039	1735.608	3207.5924	3236.5307	3533.861	3634.987	3639.8522
NC1=CC(=O)C=C(F)N1	Nc1cc(=O)cc(F)[nH]1	
InChI=1S/C5H5FN2O/c6-4-1-3(9)2-5(7)8-4/h1-2H,(H3,7,8,9)	InChI=1S/C5H5FN2O/c6-4-1-3(9)2-5(7)8-4/h1-2H,(H3,7,8,9)
