17
gdb 29453	3.20885	1.57536	1.07062	0.5216	80.95	-0.1947	-0.0028	0.192	1100.8539	0.137449	-384.726722	-384.719295	-384.718351	-384.758461	29.011	
C	-0.0171784278	 1.5277164443	-0.0098225715	-0.503798
C	-0.0071094733	 0.0319264401	 0.0446143207	 0.058295
C	-0.0299884341	-0.8249422083	-1.0197163616	-0.112678
O	-0.0114638739	-2.1454622046	-0.6270732388	-0.203528
C	 0.0235749257	-2.1047903448	 0.7181095872	 0.312265
C	 0.0283142757	-0.8302446338	 1.1955884524	 0.180814
C	 0.0670772498	-0.9131556785	 2.6584220606	-0.20895
C	 0.0845103134	-2.2132843974	 3.0200101649	-0.089548
C	 0.0580848354	-3.1298275119	 1.7991626232	-0.416652
H	 0.876829758	 1.9524677606	 0.4610931712	 0.129808
H	-0.0517706837	 1.8857676066	-1.0425677027	 0.124591
H	-0.8844154214	 1.9424787289	 0.5166881398	 0.129734
H	-0.05922632	-0.6628762944	-2.0849490811	 0.130587
H	 0.0797692432	-0.0706249728	 3.3379596506	 0.097501
H	 0.1133776812	-2.5970276001	 4.0308414647	 0.098348
H	-0.8185719889	-3.7907015042	 1.805313541	 0.136607
H	 0.9418251106	-3.7800038397	 1.7592350794	 0.136604
138.7465	155.1785	224.6439	230.2369	322.0273	442.3718	483.8795	589.9206	603.8593	648.7017	659.4502	708.468	739.6976	769.2323	862.19	924.6162	926.5031	941.5941	1005.5387	1022.6927	1063.9182	1110.0772	1120.8434	1136.3636	1194.6727	1220.3713	1260.0334	1333.8041	1389.4039	1419.5198	1437.0469	1472.5847	1482.514	1504.9856	1553.34	1577.1102	1639.8816	3027.6336	3029.3172	3058.0577	3077.5528	3109.3588	3208.9315	3233.6663	3272.5149
CC1=COC2=C1C=CC2	Cc1coc2c1C=CC2	
InChI=1S/C8H8O/c1-6-5-9-8-4-2-3-7(6)8/h2-3,5H,4H2,1H3	InChI=1S/C8H8O/c1-6-5-9-8-4-2-3-7(6)8/h2-3,5H,4H2,1H3
