17
gdb 76530	2.67267	1.20565	1.18497	4.9045	69.36	-0.2631	0.0095	0.2726	1143.7195	0.134854	-458.968338	-458.959571	-458.958627	-459.001869	31.89	
C	-0.0923539472	 1.5277762848	-0.0708932141	-0.422472
C	 0.0571767357	 0.0234493365	-0.0362029616	-0.126629
C	 1.4121465039	-0.6291437894	-0.1473332395	 0.019452
O	 2.567676219	 0.154645869	-0.1462417509	-0.415189
C	 0.6829202533	-0.6522721038	 1.1653163371	 0.084942
C	 1.1373897843	-0.1161000198	 2.5122429652	-0.143752
O	 0.6407847218	-1.3490422667	 3.1403416238	-0.256873
C	 0.2118310316	-1.8519559116	 1.9300809445	 0.429864
O	-0.3287955949	-2.8896769818	 1.7147442505	-0.347752
H	 0.8059963016	 2.02010934	 0.3095929381	 0.133151
H	-0.2583160973	 1.8747725738	-1.0964260917	 0.12454
H	-0.9458344689	 1.8550192207	 0.5309413877	 0.130891
H	-0.7602153987	-0.5418815419	-0.4776850064	 0.113301
H	 1.485998908	-1.5743964919	-0.6841289211	 0.113815
H	 2.6995054893	 0.5001695385	-1.0358899595	 0.297556
H	 2.2146875314	-0.011492518	 2.6500654169	 0.139953
H	 0.6056176873	 0.7545017915	 2.9022289511	 0.125202
109.6408	124.35	153.6402	185.4032	217.9827	233.898	295.8713	320.1535	449.3702	581.079	598.1199	620.7801	703.3915	788.8644	817.3314	877.9326	924.5464	974.7763	1019.6463	1052.7462	1074.3355	1097.0086	1117.2802	1144.6502	1146.4546	1169.4697	1203.8099	1275.8119	1306.6161	1352.0643	1380.2944	1416.4295	1475.6863	1497.8244	1506.4401	1518.2671	1932.8829	3038.6113	3074.2252	3098.7531	3110.9431	3121.2356	3136.9603	3144.7974	3803.9037
CC1C(O)C11COC1=O	C[C@H]1[C@@H](O)[C@]21COC2=O	
InChI=1S/C6H8O3/c1-3-4(7)6(3)2-9-5(6)8/h3-4,7H,2H2,1H3	InChI=1S/C6H8O3/c1-3-4(7)6(3)2-9-5(6)8/h3-4,7H,2H2,1H3/t3-,4+,6+/m0/s1
