20
gdb 89191	2.43973	1.52617	1.21665	3.6429	79.36	-0.2381	0.0339	0.272	1123.8996	0.170828	-403.16965	-403.160784	-403.15984	-403.202883	33.872	
C	-0.1364205784	 1.5754130507	 0.013225519	-0.415507
C	 0.0560526066	 0.0665160772	 0.0413044423	 0.038968
C	 1.1166340617	-0.5685918247	-0.911099002	-0.309346
C	 1.7885744123	-1.3005248133	 0.2992489139	 0.190687
C	 2.0407199445	-2.7866773549	 0.2299844251	-0.499192
C	 0.7847562645	-0.5704206242	 1.2646080815	-0.05073
N	 1.9329213723	 0.1701716048	 1.7889129746	-0.325583
C	 2.8642316793	-0.3892994537	 0.9340355227	 0.382955
O	 4.0365146227	-0.1862962842	 0.7611594965	-0.367766
H	 0.8140203495	 2.0979494354	 0.1637445072	 0.118119
H	-0.5402671862	 1.8993419101	-0.9517963446	 0.122199
H	-0.8328424841	 1.9053713343	 0.7926366991	 0.113919
H	-0.9103081731	-0.4318028139	-0.0895619258	 0.076878
H	 0.6945173132	-1.2558731406	-1.6483096215	 0.105907
H	 1.7693473779	 0.135669161	-1.4337290805	 0.113993
H	 2.866950305	-2.9949231382	-0.4584933212	 0.139383
H	 2.3148849698	-3.1932388042	 1.2089799763	 0.126428
H	 1.1582341318	-3.3261843007	-0.1301426368	 0.115393
H	 0.1872034054	-1.0779159315	 2.0243668447	 0.079121
H	 1.9767999752	 1.0416042807	 2.2997987794	 0.244174
81.1994	167.6374	195.2902	217.3583	236.9199	253.7996	265.1644	371.9975	425.1911	492.0313	562.7281	627.0171	685.7665	740.9883	781.6183	810.6459	884.064	888.4061	906.8984	937.4476	968.5617	1020.1993	1071.8244	1106.3224	1131.4309	1138.6428	1182.0108	1200.2968	1205.9519	1241.975	1275.8798	1326.0258	1341.7779	1361.8742	1368.789	1408.6483	1412.5726	1486.1966	1490.3407	1493.0303	1495.0673	1501.498	1883.5939	3027.3851	3028.9127	3046.2864	3059.5888	3089.9771	3093.246	3097.0603	3100.4918	3101.5036	3111.7476	3584.0592
CC1CC2(C)C1NC2=O	C[C@H]1C[C@]2(C)[C@H]1NC2=O	
InChI=1S/C7H11NO/c1-4-3-7(2)5(4)8-6(7)9/h4-5H,3H2,1-2H3,(H,8,9)	InChI=1S/C7H11NO/c1-4-3-7(2)5(4)8-6(7)9/h4-5H,3H2,1-2H3,(H,8,9)/t4-,5-,7+/m0/s1
