22
gdb 104360	2.16111	1.47302	1.27633	3.5022	81.78	-0.2347	0.0373	0.2721	1163.2781	0.195009	-404.410431	-404.400869	-404.399924	-404.444385	36.21	
C	-0.3226440013	 1.3448566149	 0.0841047385	-0.395988
C	-0.0424929997	-0.1389143736	-0.1765529284	-0.207248
C	 0.9480729749	-0.4522479671	-1.3335522499	 0.172538
C	 2.3018084611	 0.2290762876	-1.1185920209	-0.440189
C	 1.0545750675	-1.98273579	-1.5384883418	-0.254297
C	-0.0591104687	-2.3315189956	-2.5499542629	-0.174776
N	-0.203582349	-1.0873953278	-3.2832953234	-0.308726
C	 0.3112999802	 0.0148362705	-2.6606148904	 0.411831
O	 0.2525858162	 1.1545628211	-3.0769759643	-0.400326
H	 0.5713111636	 1.8655455239	 0.439521525	 0.116627
H	-0.6620111286	 1.849872813	-0.8230559409	 0.148697
H	-1.0936979998	 1.4535395151	 0.8534355587	 0.105174
H	 0.3630984119	-0.6009891176	 0.7333451544	 0.093344
H	-0.9911244	-0.6535666974	-0.3789310681	 0.094616
H	 2.7144215406	-0.0196393181	-0.1346153139	 0.10655
H	 3.0238385116	-0.087415732	-1.8781886565	 0.112545
H	 2.2013314115	 1.314114922	-1.1927346213	 0.142953
H	 2.0276114683	-2.2298191342	-1.9744397132	 0.10622
H	 0.9546606464	-2.5460640447	-0.6072390261	 0.103014
H	 0.2262043444	-3.1552950418	-3.2120555675	 0.112085
H	-0.993889914	-2.6182321628	-2.0477435544	 0.107118
H	-0.7796826171	-0.9834045454	-4.1035349727	 0.248239
90.8146	117.8342	183.7967	187.6718	198.1033	244.3852	284.0557	299.8648	366.8492	401.9558	506.4796	521.1462	606.3296	686.055	709.6867	752.1104	787.2035	828.2419	905.8535	926.1133	965.2632	1015.9221	1035.2903	1037.3603	1072.7101	1084.9546	1173.5426	1183.2428	1207.9276	1237.1855	1248.7945	1273.7097	1316.9646	1341.7825	1366.8089	1377.7278	1408.9086	1416.0643	1448.0518	1480.0048	1488.4307	1494.4961	1497.4234	1505.5676	1514.2669	1539.1997	1809.9282	3000.3367	3009.6909	3033.5483	3041.9374	3044.6677	3050.3512	3066.0537	3096.4307	3103.5858	3105.5624	3128.3372	3133.1257	3639.4401
CCC1(C)CCNC1=O	CC[C@@]1(C)CCNC1=O	
InChI=1S/C7H13NO/c1-3-7(2)4-5-8-6(7)9/h3-5H2,1-2H3,(H,8,9)	InChI=1S/C7H13NO/c1-3-7(2)4-5-8-6(7)9/h3-5H2,1-2H3,(H,8,9)/t7-/m0/s1
