20
gdb 120823	3.87124	0.75426	0.66875	4.5633	79.26	-0.2362	0.0347	0.2709	1700.1467	0.169156	-440.286678	-440.276644	-440.2757	-440.323228	35.277	
C	-0.1614011004	 1.485550238	 0.0572175297	-0.38791
C	-0.2475435439	 0.0130904001	 0.4166339917	-0.035266
O	-1.0857813698	-0.6331598453	-0.5353023126	-0.263518
C	-1.2446716446	-1.9987786546	-0.3152104205	 0.0784
C	-2.2709844205	-2.4639064174	 0.695766887	-0.329951
C	-2.5435281714	-2.5671070276	-0.7950793763	 0.024946
N	-3.4481304233	-1.6548544377	-1.4205514359	-0.281781
C	-4.6190547853	-2.0524414602	-1.9809439877	 0.152741
O	-5.0498184675	-3.1865424861	-1.9656532979	-0.327312
H	 0.4843184118	 2.0108704624	 0.7668718266	 0.121947
H	 0.2507237555	 1.6137462847	-0.9476025219	 0.130437
H	-1.1521466659	 1.9486142749	 0.084391188	 0.125185
H	 0.7511197709	-0.4505349388	 0.4022515573	 0.095558
H	-0.6576861518	-0.124254248	 1.4279880689	 0.098727
H	-0.335663058	-2.5864417123	-0.4460696203	 0.095769
H	-2.0861197266	-3.3747720862	 1.2543596397	 0.121734
H	-2.8127290154	-1.6910531091	 1.2298344869	 0.122455
H	-2.5571926996	-3.5524889513	-1.245240078	 0.128357
H	-3.1327630618	-0.7023041989	-1.5256070728	 0.25844
H	-5.1462370323	-1.2076311664	-2.4679190019	 0.071042
33.8129	66.3012	81.365	114.7366	200.0832	227.8795	244.7533	268.7987	333.3032	423.7444	508.9083	564.4044	580.5814	728.9917	813.3374	819.2344	837.2796	884.5028	943.3056	1005.805	1017.8676	1031.7532	1051.3586	1080.5027	1121.2964	1136.1385	1149.8176	1185.3792	1192.5893	1230.091	1262.9559	1294.9563	1353.1386	1379.8692	1404.4201	1429.1904	1434.3385	1472.9974	1483.5795	1499.7461	1527.7692	1532.3296	1803.8326	2932.3872	2982.3183	3016.1561	3045.5629	3097.6575	3119.7978	3123.1151	3135.82	3188.5122	3230.4677	3621.9978
CCOC1CC1NC=O	CCO[C@H]1C[C@H]1NC=O	
InChI=1S/C6H11NO2/c1-2-9-6-3-5(6)7-4-8/h4-6H,2-3H2,1H3,(H,7,8)	InChI=1S/C6H11NO2/c1-2-9-6-3-5(6)7-4-8/h4-6H,2-3H2,1H3,(H,7,8)/t5-,6+/m1/s1
