16
gdb 51928	7.21535	0.50809	0.50083	2.1123	78.32	-0.2527	0.0076	0.2603	2112.0906	0.122832	-437.84835	-437.838865	-437.837921	-437.885889	31.773	
O	-0.1739615397	 0.5618009803	 0.6975710823	-0.318914
C	 0.0700174343	 1.3195350017	-0.2167773066	 0.161864
N	 1.3117311706	 1.5717649568	-0.712575956	-0.268807
C	 2.5122768021	 0.9917189574	-0.1212198359	-0.295062
C	 3.5195853477	 1.9959838277	 0.2017232832	 0.085952
C	 4.3582567704	 2.8278255309	 0.4376326711	 0.088334
C	 5.3341469871	 3.8367749783	 0.7462688148	-0.117684
C	 6.7819926284	 3.5451864414	 0.7318393187	-0.158123
O	 6.1851714487	 4.2875563445	-0.3220398163	-0.214202
H	-0.7100169037	 1.8892285817	-0.7580241398	 0.083337
H	 1.4195343764	 2.2595476528	-1.4408461249	 0.257597
H	 2.1778568882	 0.4634725535	 0.7777649718	 0.179824
H	 2.9454492666	 0.2382284185	-0.7927914035	 0.144788
H	 4.9885846361	 4.6384864773	 1.3978021288	 0.121286
H	 7.4394680025	 4.1059110417	 1.3949431319	 0.12325
H	 7.1133916242	 2.5416741056	 0.4724756404	 0.12656
15.4675	28.0198	84.4128	116.9261	184.2298	256.7069	270.5139	318.6538	463.8586	504.4851	525.9413	566.4181	713.6629	790.0871	836.0853	906.3902	965.8566	999.8861	1032.3021	1040.4794	1084.7166	1150.0922	1159.4164	1185.7441	1202.937	1259.4989	1283.0359	1372.9106	1406.7468	1426.0524	1480.5527	1518.8127	1520.1049	1804.9086	2366.0574	2948.3935	3015.5746	3083.6474	3087.2012	3118.0702	3181.2775	3640.9364
O=CNCC#CC1CO1	O=CNCC#C[C@H]1CO1	
InChI=1S/C6H7NO2/c8-5-7-3-1-2-6-4-9-6/h5-6H,3-4H2,(H,7,8)	InChI=1S/C6H7NO2/c8-5-7-3-1-2-6-4-9-6/h5-6H,3-4H2,(H,7,8)/t6-/m0/s1
