16
gdb 49780	2.14477	1.63502	0.98136	3.7408	79.47	-0.2172	-0.0064	0.2108	1161.8959	0.123938	-400.744306	-400.735935	-400.734991	-400.778058	30.618	
O	-0.0525497694	-0.0458548471	-0.0326654292	-0.330997
C	 0.0207022142	 1.1624895147	-0.1088860787	 0.144097
N	 1.1895695408	 1.8687625112	-0.0595258645	-0.057984
C	 2.45877344	 1.3023020205	 0.1208934956	 0.015805
C	 3.4246310989	 2.2193243278	 0.1256430172	-0.163947
C	 2.8497532603	 3.5959790107	-0.1151772888	-0.286016
C	 1.3014920034	 3.3494319594	-0.0667487226	-0.154049
C	 0.5670093592	 3.9725146889	-1.1603389814	 0.324139
C	-0.0308845567	 4.5089747445	-2.0536641853	-0.44601
H	-0.8557102096	 1.8235522785	-0.2351812213	 0.089062
H	 2.5104508814	 0.229134532	 0.2254537827	 0.157929
H	 4.4799678306	 2.0173432993	 0.2339269015	 0.113704
H	 3.1454437834	 4.3311564629	 0.6391221889	 0.12534
H	 3.1478914722	 3.998615842	-1.0899037463	 0.13209
H	 0.9074812731	 3.7308572743	 0.8840902035	 0.127623
H	-0.5623072717	 4.9759225701	-2.8461956913	 0.209215
45.6266	98.4902	157.5313	235.3123	255.0252	277.4813	437.3401	467.8162	508.0216	558.5728	633.6489	669.1718	725.6392	736.7394	797.8659	865.1238	926.1147	947.8781	975.5241	1014.1141	1024.0086	1052.1561	1110.8639	1170.6865	1222.9331	1299.0939	1311.1584	1320.3609	1364.193	1423.6738	1439.6818	1494.77	1688.8651	1787.3665	2241.9072	2973.3449	3012.2912	3039.4447	3079.8859	3241.7594	3270.5711	3500.4501
O=CN1C=CCC1C#C	O=CN1C=CC[C@H]1C#C	
InChI=1S/C7H7NO/c1-2-7-4-3-5-8(7)6-9/h1,3,5-7H,4H2	InChI=1S/C7H7NO/c1-2-7-4-3-5-8(7)6-9/h1,3,5-7H,4H2/t7-/m1/s1
