20
gdb 87686	2.59537	1.25937	1.04501	2.4612	81.98	-0.2287	-0.0204	0.2083	1255.6877	0.169312	-403.139384	-403.129895	-403.128951	-403.17388	34.991	
C	 0.0869687001	 1.4474588302	-0.4111745303	-0.395849
C	 0.2098462513	-0.0484791707	-0.2439254952	-0.041617
C	 1.5561014262	-0.7027675884	-0.0916210089	-0.357718
C	 0.6321641481	-0.6121819413	 1.0980355826	 0.222845
N	 0.8195109048	 0.1597641754	 2.3416187799	-0.392621
C	 0.2453481899	-0.9616228144	 3.1667054789	-0.07456
C	-0.9530393176	-0.5864022802	 4.0243179243	-0.381438
C	-0.0325427689	-1.7224601711	 1.85041226	 0.320221
O	-0.5787782508	-2.7479096897	 1.5575915831	-0.319449
H	 0.8047855871	 1.9729952122	 0.2251156409	 0.122367
H	 0.2647739205	 1.7434318026	-1.4505125819	 0.119433
H	-0.9123845555	 1.7913850551	-0.1266017877	 0.125645
H	-0.5450070547	-0.6446809352	-0.7511563804	 0.106188
H	 1.7255200946	-1.6845595873	-0.5217625574	 0.131916
H	 2.4288111906	-0.0555930127	-0.0711802387	 0.117756
H	 1.8001491551	 0.3154451382	 2.5528051733	 0.220863
H	 1.0019672577	-1.4853033551	 3.7665767547	 0.098457
H	-1.701432101	-0.056565532	 3.4285238911	 0.126233
H	-1.4125623136	-1.4872090818	 4.4432816799	 0.129805
H	-0.6510537537	 0.065713446	 4.8494410816	 0.121524
56.6972	118.6151	148.9646	177.2859	200.5544	211.6054	251.0639	344.7128	368.5918	455.13	537.1681	563.025	689.0312	719.8121	768.8441	823.4446	848.593	874.8359	912.1552	934.8527	979.4031	1008.3839	1060.1588	1068.3439	1076.7925	1109.5379	1125.1357	1139.9018	1183.8189	1208.648	1275.233	1291.2722	1335.0961	1365.7815	1400.6946	1409.2268	1425.1784	1471.3734	1484.6347	1486.4396	1495.3932	1500.3613	1892.6179	3017.7563	3035.8899	3039.5227	3100.1435	3110.6198	3112.4164	3118.3092	3120.6288	3142.0998	3208.9851	3514.787
CC1CC11NC(C)C1=O	C[C@H]1C[C@]21N[C@@H](C)C2=O	
InChI=1S/C7H11NO/c1-4-3-7(4)6(9)5(2)8-7/h4-5,8H,3H2,1-2H3	InChI=1S/C7H11NO/c1-4-3-7(4)6(9)5(2)8-7/h4-5,8H,3H2,1-2H3/t4-,5-,7+/m0/s1
