20
gdb 100262	2.05105	1.39741	1.13175	2.2486	70.64	-0.2406	0.0261	0.2666	1181.7157	0.169745	-477.451439	-477.441122	-477.440178	-477.486527	38.351	
C	-0.4610512189	 1.5750542836	-0.1387762035	-0.429349
C	-0.0209845037	 0.1078459292	-0.0616976527	 0.104247
C	 0.8778091591	-0.0804759285	 1.1874964145	-0.107929
O	 1.0935167293	-1.4418405446	 1.543871037	-0.427112
C	-1.2545918195	-0.8313783994	 0.04245384	-0.115287
O	-1.7738096932	-0.9331585025	 1.3669813422	-0.429899
C	 0.7305400063	-0.2667578872	-1.3617998246	 0.369405
N	 1.4595887467	-1.4136790982	-1.2798148405	-0.526117
O	 0.6431783132	 0.3915300312	-2.3824605544	-0.375614
H	 0.3948570174	 2.251619759	-0.050957592	 0.125242
H	-0.9398525319	 1.7767776057	-1.0977848916	 0.147994
H	-1.1575698351	 1.8190327331	 0.6724316424	 0.086304
H	 1.86536821	 0.3532527665	 1.0028006652	 0.121216
H	 0.432068311	 0.4628568263	 2.0298905063	 0.096368
H	 0.2479070025	-1.7573571022	 1.8889434371	 0.301493
H	-2.0270935464	-0.5016439598	-0.6645945951	 0.116195
H	-0.9737562494	-1.8508821404	-0.229996021	 0.12314
H	-2.1612962515	-0.0866282777	 1.6112808983	 0.292605
H	 1.5861646311	-1.8798177417	-0.3916969807	 0.272254
H	 2.0045072728	-1.6826162225	-2.0825517567	 0.254843
48.3859	104.8177	163.9412	183.1506	212.1859	268.7665	285.5867	315.4394	329.197	365.3836	387.078	409.4718	429.3607	535.9452	604.4279	637.9854	682.8001	733.8188	790.361	834.0909	914.6762	956.9367	985.8317	1049.9933	1065.2442	1109.1195	1141.4428	1153.7779	1203.1152	1251.2629	1262.5199	1338.3273	1371.1619	1401.2557	1409.9481	1416.9958	1429.1053	1482.3138	1493.5458	1501.6656	1509.4481	1616.51	1785.7288	3021.8687	3023.4896	3031.7885	3086.1023	3094.2682	3109.4125	3144.0785	3535.9765	3699.4215	3770.3956	3820.5196
CC(CO)(CO)C(N)=O	CC(CO)(CO)C(=O)N	
InChI=1S/C5H11NO3/c1-5(2-7,3-8)4(6)9/h7-8H,2-3H2,1H3,(H2,6,9)	InChI=1S/C5H11NO3/c1-5(2-7,3-8)4(6)9/h7-8H,2-3H2,1H3,(H2,6,9)
