16
gdb 17344	3.56729	2.1774	1.8092	1.377	62.81	-0.2254	0.0762	0.3016	772.4578	0.130779	-383.693067	-383.686544	-383.6856	-383.723218	26.817	
O	-0.0611821972	 1.397456536	 0.0464127839	-0.468072
C	 0.0456707563	 0.009006365	 0.0144617907	 0.380439
C	-0.5606809765	-0.748689266	 1.1620247381	-0.355222
C	 0.9399525545	-0.7940787354	 0.9297290371	 0.019896
O	 1.502515329	-1.8723596106	 0.2233007965	-0.260085
C	 1.155589248	-1.7908021258	-1.1428294235	 0.105839
C	-0.2606705842	-2.0999178198	-1.5450715459	-0.324641
C	 0.1789883371	-0.661005044	-1.3452203284	-0.157781
H	 0.7486529602	 1.7686359409	-0.322504471	 0.282547
H	-0.8750596872	-0.1329974868	 1.9984865407	 0.123787
H	-1.1700922512	-1.6269257738	 0.9882202562	 0.120379
H	 1.6091057901	-0.3595314083	 1.6649105495	 0.103356
H	 1.9850981529	-2.0232694622	-1.8020290264	 0.099943
H	-0.4161308995	-2.418918688	-2.5707468863	 0.114518
H	-0.9245843999	-2.5687833412	-0.8290625664	 0.122964
H	 0.2123532875	 0.0066469199	-2.1980010748	 0.092135
200.1137	254.9777	315.0202	360.5459	390.2453	468.3995	492.8931	610.6293	702.8987	705.2427	780.4751	827.6337	839.833	889.0142	946.9979	978.8324	980.5915	982.9987	1015.7961	1037.6018	1065.0728	1083.7759	1094.0387	1108.0006	1165.6979	1198.5127	1230.7684	1252.8583	1305.1888	1347.7703	1372.2073	1408.9823	1471.802	1487.6721	3135.0291	3140.7321	3163.6569	3167.9278	3181.5035	3223.9737	3232.5939	3786.9517
OC12CC1OC1CC21	O[C@]12C[C@H]1O[C@H]1C[C@@H]21	
InChI=1S/C6H8O2/c7-6-2-5(6)8-4-1-3(4)6/h3-5,7H,1-2H2	InChI=1S/C6H8O2/c7-6-2-5(6)8-4-1-3(4)6/h3-5,7H,1-2H2/t3-,4+,5-,6+/m1/s1
