16
gdb 14289	3.4637	1.85159	1.80842	3.5597	63.56	-0.2357	-0.0075	0.2282	809.8996	0.130993	-383.754563	-383.747571	-383.746627	-383.785764	27.126	
O	-0.0007541194	 1.3253791459	-0.2015670848	-0.413549
C	-0.0353097075	-0.0634173436	-0.0348599131	 0.094725
C	-0.4960193377	-0.6601343892	 1.2749592272	-0.109703
C	-1.1042832099	 0.292550934	 2.282318024	-0.331713
C	-2.2750651921	 0.9840134521	 1.5603146324	 0.403439
O	-2.8734386647	 1.9424183954	 1.9691814065	-0.311684
C	-2.5672751893	 0.237644885	 0.2490994786	-0.322755
C	-1.3936205289	-0.695306119	 0.0308343525	-0.090954
H	 0.7569447907	 1.6726608704	 0.2809843475	 0.293519
H	 0.7343899649	-0.6088074972	-0.580134375	 0.089111
H	-0.0074107308	-1.5601289221	 1.6304366234	 0.089118
H	-1.5070230795	-0.2520335001	 3.1451412122	 0.129645
H	-0.4207319764	 1.0504578548	 2.6772896938	 0.120613
H	-3.5005060154	-0.3253635714	 0.3724185745	 0.125329
H	-2.7254863421	 0.9625300687	-0.5532942796	 0.142679
H	-1.5542427819	-1.6207374837	-0.5092350401	 0.092181
77.7223	202.0198	227.6823	328.9236	447.3755	453.4595	477.7943	550.497	641.9982	693.5467	764.0597	773.8284	784.2485	827.7786	921.9496	996.5067	1019.5407	1028.4806	1045.3682	1088.5573	1106.6762	1148.2793	1167.8388	1209.6706	1224.2956	1268.7841	1280.8554	1296.2133	1342.4296	1367.6995	1437.5463	1446.6862	1466.757	1851.7587	3040.1513	3044.0476	3084.4089	3104.0583	3104.1803	3169.2382	3180.7874	3805.7169
OC1C2CC(=O)CC12	O[C@H]1[C@H]2CC(=O)C[C@@H]12	
InChI=1S/C6H8O2/c7-3-1-4-5(2-3)6(4)8/h4-6,8H,1-2H2	InChI=1S/C6H8O2/c7-3-1-4-5(2-3)6(4)8/h4-6,8H,1-2H2/t4-,5+,6-
