21
gdb 98437	2.67936	1.14734	1.0397	1.6236	78.44	-0.2303	-0.0126	0.2177	1303.0324	0.179585	-424.237803	-424.227578	-424.226634	-424.274432	36.416	
C	 0.0623412868	 1.5763629918	 0.0855547827	-0.382481
C	-0.1221352155	 0.1010361159	-0.2574335956	-0.275059
C	-1.4634891599	-0.4529389586	 0.1826227543	 0.315585
O	-2.3290616038	 0.2287811638	 0.6856332858	-0.32437
C	-1.7051762247	-1.9556682103	-0.012049044	 0.341358
C	-1.6623096831	-2.6550850665	 1.3415777557	-0.436026
C	-2.9100112807	-2.2871460379	-0.9296290284	-0.317981
C	-1.8471753644	-2.8692267605	-1.8800859476	-0.072785
O	-0.7787230012	-2.5517265347	-0.9597299639	-0.31958
H	 1.033693966	 1.9359110428	-0.2650113463	 0.109673
H	-0.7201127444	 2.1843232066	-0.3756827609	 0.130171
H	 0.0025559464	 1.7395202608	 1.1650847809	 0.127358
H	-0.0293152654	-0.0838749556	-1.3351495002	 0.13331
H	 0.6640176934	-0.5266251906	 0.1835124587	 0.129175
H	-2.4069668391	-2.2142023892	 2.0101204748	 0.142704
H	-1.869972545	-3.7219393366	 1.2206042609	 0.119953
H	-0.6739841676	-2.5497303762	 1.8013192073	 0.126102
H	-3.6092102166	-3.0115976132	-0.5089940536	 0.114071
H	-3.4651650961	-1.4220700765	-1.2924517101	 0.125462
H	-1.9098125378	-3.9465449682	-2.0700813301	 0.107839
H	-1.728546757	-2.3477217069	-2.8375850002	 0.105522
19.5672	71.1022	82.5529	176.7555	187.6647	226.5403	246.993	282.8061	301.6015	341.1789	481.6634	499.0061	576.0159	701.3165	778.629	802.3014	817.8523	876.267	905.3029	971.7552	992.0292	994.4835	1019.2454	1040.3842	1071.5234	1116.8079	1146.8802	1164.0509	1198.197	1206.8371	1254.6909	1269.3455	1272.5201	1350.5126	1373.3662	1393.5303	1414.7688	1435.33	1482.8062	1488.6296	1494.2295	1496.8316	1498.2231	1532.9173	1798.2332	3021.7793	3032.7754	3037.7425	3050.2559	3056.6285	3063.429	3086.1553	3109.8538	3120.7666	3125.0979	3127.431	3143.6358
CCC(=O)C1(C)CCO1	CCC(=O)[C@@]1(C)CCO1	
InChI=1S/C7H12O2/c1-3-6(8)7(2)4-5-9-7/h3-5H2,1-2H3	InChI=1S/C7H12O2/c1-3-6(8)7(2)4-5-9-7/h3-5H2,1-2H3/t7-/m1/s1
