19
gdb 63864	2.27274	1.60147	1.26675	1.9158	83.2	-0.2273	0.0427	0.27	1090.7939	0.156646	-385.831085	-385.822005	-385.821061	-385.86408	35.743	
C	-0.108519752	 1.5661856467	 0.0554040059	-0.458339
C	 0.0402951151	 0.0519981257	-0.0047682766	 0.327408
O	-1.2145036352	-0.5659120305	-0.2296562607	-0.467325
C	 1.1571907811	-0.5598520195	-0.9286680454	-0.287273
C	 1.750278099	-1.2894531626	 0.2792249997	-0.1054
C	 2.1538830238	-0.2974857315	 1.3191933573	-0.335892
C	 0.6852899614	-0.6625495789	 1.208822811	 0.18779
C	-0.0389533408	-1.2316687988	 2.2928475621	 0.20109
C	-0.6439409184	-1.7036584925	 3.220257295	-0.415816
H	 0.8396861261	 2.0644173118	 0.2742415713	 0.118251
H	-0.4659873861	 1.9534019718	-0.9073978197	 0.106404
H	-0.8347710811	 1.84005777	 0.8263154777	 0.134969
H	-1.601408554	-0.1657932666	-1.0160153525	 0.275193
H	 0.702291046	-1.2300739992	-1.6597358833	 0.108182
H	 1.8302302189	 0.1389410191	-1.4376438924	 0.090372
H	 2.1056845933	-2.311890362	 0.288776429	 0.101681
H	 2.6399302244	-0.6999102994	 2.2009951602	 0.129537
H	 2.4970428253	 0.6939889434	 1.0333623185	 0.108443
H	-1.187984717	-2.1271349371	 4.0272818228	 0.180723
107.6248	138.8514	199.7321	235.296	273.1977	279.5843	357.0305	375.0107	436.7786	448.227	490.3594	560.7369	567.1881	618.1617	642.3338	649.5405	812.7382	838.4156	853.8829	884.4009	935.1885	966.3375	981.0701	1030.8174	1037.177	1085.1924	1091.092	1140.0864	1187.3175	1215.3849	1229.7728	1256.0957	1277.8334	1354.2493	1390.9873	1406.9256	1468.6055	1485.3488	1492.2063	1497.629	2232.1797	3024.6753	3040.7674	3093.3114	3111.5999	3119.3763	3123.1068	3194.0474	3212.4562	3504.6327	3805.0432
CC1(O)CC2CC12C#C	C[C@@]1(O)C[C@H]2C[C@@]12C#C	
InChI=1S/C8H10O/c1-3-8-5-6(8)4-7(8,2)9/h1,6,9H,4-5H2,2H3	InChI=1S/C8H10O/c1-3-8-5-6(8)4-7(8,2)9/h1,6,9H,4-5H2,2H3/t6-,7+,8+/m0/s1
