25
gdb 58629	2.0954	1.35144	1.1233	0.1217	91.76	-0.2507	0.0868	0.3375	1295.2814	0.228312	-352.336389	-352.326362	-352.325418	-352.370915	39.149	
C	 0.5580700957	-0.4553885871	 1.4825839594	-0.39262
C	-0.0488529464	-0.0267672069	 0.1386184743	-0.02214
C	 0.8719422551	-0.4102051023	-1.0304145787	-0.399028
C	-1.4825017011	-0.5430700431	-0.0507421228	 0.389655
C	-2.5754164755	 0.2975342073	 0.5656004969	-0.332122
C	-2.3804980067	 0.2978926452	-0.931622719	-0.312515
C	-1.635964669	-2.042032149	-0.1064592707	-0.064206
C	-1.8982001947	-2.8724374634	 1.1291976732	-0.258061
C	-2.9574777978	-2.7492630907	 0.0642879729	-0.293317
H	 1.5430072984	 0.0014043424	 1.6265219736	 0.104591
H	-0.079087482	-0.153873232	 2.3202041374	 0.10918
H	 0.6840490576	-1.5413925261	 1.5330681865	 0.120291
H	-0.1193234649	 1.0698848645	 0.1452339399	 0.062842
H	 1.061722052	-1.4886040657	-1.0598700903	 0.114339
H	 0.4368310044	-0.1186107004	-1.9917046802	 0.112655
H	 1.8436051075	 0.0857632489	-0.9349339666	 0.107541
H	-3.4612397851	-0.1817201046	 0.9675761315	 0.108989
H	-2.2714797636	 1.1799682022	 1.1194950817	 0.10575
H	-1.9650821513	 1.1872081006	-1.3949998489	 0.105117
H	-3.1215411158	-0.2159138823	-1.5342812053	 0.109565
H	-0.9808210223	-2.5090853716	-0.837468849	 0.082392
H	-1.3806719879	-3.8186260891	 1.244841904	 0.107328
H	-2.0657754652	-2.3383585361	 2.0582315875	 0.112839
H	-3.8433086013	-2.1676518587	 0.2943818296	 0.112436
H	-3.1533653198	-3.606500472	-0.570543057	 0.108498
66.4936	94.1942	184.0871	198.3489	240.5863	252.8331	265.8758	277.0185	315.6821	389.4363	440.3508	512.4761	538.1648	631.3192	771.6965	794.1329	823.1802	836.7043	893.6386	910.2864	921.5566	934.7431	947.094	956.7108	971.3892	987.115	1053.3594	1060.4778	1080.0349	1082.614	1091.0636	1121.3378	1142.8607	1146.0453	1188.6732	1189.3035	1200.4074	1227.8588	1272.8997	1302.4581	1351.993	1390.7148	1397.4531	1418.3032	1422.9384	1463.3657	1471.8395	1486.722	1493.484	1501.6996	1505.7682	1511.3414	1513.4337	3000.7207	3029.6163	3033.9214	3094.429	3098.6485	3102.1181	3107.3515	3126.0483	3130.4163	3131.1803	3132.1033	3137.5115	3203.0061	3207.3406	3217.0434	3222.4468
CC(C)C1(CC1)C1CC1	CC(C)C1(CC1)C1CC1	
InChI=1S/C9H16/c1-7(2)9(5-6-9)8-3-4-8/h7-8H,3-6H2,1-2H3	InChI=1S/C9H16/c1-7(2)9(5-6-9)8-3-4-8/h7-8H,3-6H2,1-2H3
