16
gdb 67434	2.72684	1.50028	1.24741	3.6124	71.9	-0.2346	-0.0174	0.2172	1023.9903	0.124175	-437.819027	-437.811388	-437.810444	-437.851149	29.341	
O	-0.1931107573	 1.3923702202	-0.0075547025	-0.445942
C	-0.0128259845	 0.0420348201	 0.0145494393	 0.328995
C	 0.0486641155	-1.0192347208	-1.0103218291	-0.162512
N	 1.2571951066	-1.6090380312	-0.4735646059	-0.292451
C	 0.9298239209	-0.9577337171	 0.8322899106	-0.108525
C	-0.3539763082	-1.6617322593	 1.3606470168	-0.300359
C	-1.0687756718	-1.0407464142	 0.1722346702	 0.202714
C	-2.4858467446	-0.996139299	-0.1664306009	 0.03293
O	-3.3487577968	-1.614583545	 0.4173776677	-0.277564
H	 0.5242149108	 1.7918196616	-0.5144974435	 0.301378
H	-0.2502639193	-1.0426315718	-2.0503719319	 0.117696
H	 1.240719782	-2.6288646127	-0.4235911979	 0.219916
H	 1.7645841381	-0.7081059689	 1.4839831615	 0.0905
H	-0.3166722264	-2.7525185237	 1.4483269795	 0.102363
H	-0.7055286134	-1.2260826095	 2.2985492804	 0.126194
H	-2.7346128214	-0.3395916489	-1.0318664243	 0.064665
97.4068	160.8093	235.156	255.2619	320.3019	359.8623	444.3257	484.9115	513.0462	596.6307	651.4167	746.3119	807.0679	834.1461	917.2046	927.4887	958.5734	999.0941	1006.4334	1054.5109	1062.1129	1083.1027	1112.5885	1132.0417	1163.1311	1224.759	1238.6873	1277.4259	1306.3094	1349.8594	1373.9893	1432.3521	1482.937	1509.7274	1787.7438	2861.5616	3050.8117	3118.8288	3141.9796	3207.6418	3437.0682	3781.813
OC12C3NC1CC23C=O	O[C@@]12[C@H]3N[C@@H]1C[C@@]23C=O	
InChI=1S/C6H7NO2/c8-2-5-1-3-6(5,9)4(5)7-3/h2-4,7,9H,1H2	InChI=1S/C6H7NO2/c8-2-5-1-3-6(5,9)4(5)7-3/h2-4,7,9H,1H2/t3-,4+,5+,6-/m1/s1
