16
gdb 44479	3.93217	1.6588	1.52974	3.6696	69.11	-0.2468	0.0161	0.2629	884.3	0.12774	-437.874449	-437.868506	-437.867562	-437.904593	25.06	
N	-0.0781037168	 1.2408644513	-0.1614386465	-0.560929
C	-0.0179695738	-0.0013248281	 0.0253101187	 0.466632
O	 1.1334917182	-0.7582137555	 0.1436290918	-0.25452
C	 0.7199985456	-2.0700402099	 0.4897719288	 0.096216
C	-0.1273477435	-2.8389336983	-0.5891972509	 0.055172
C	-0.9658671082	-3.3993499412	 0.5800682084	-0.259674
C	-0.6732255325	-2.0031620898	 1.1802679928	-0.104196
C	-1.1546563942	-0.9946781625	 0.106989776	-0.022103
O	-0.9674152065	-1.7965208911	-1.0985920869	-0.276929
H	 0.8577413228	 1.6458550795	-0.2282594187	 0.226484
H	 1.5274009057	-2.6111578049	 0.9768048106	 0.10435
H	 0.2863052064	-3.4288471014	-1.4039294929	 0.094466
H	-1.9971967019	-3.6678013667	 0.3492754845	 0.119224
H	-0.4663879951	-4.1935199939	 1.1395830458	 0.111907
H	-0.8040681301	-1.7365356117	 2.2270137395	 0.094959
H	-2.1557257362	-0.5748813457	 0.1508054787	 0.108941
158.6021	329.8604	380.709	469.2201	479.7823	564.1777	690.4448	726.5164	770.4262	808.1773	852.9264	861.8053	871.697	891.8487	911.2011	937.564	949.4592	987.9429	1021.4774	1031.5096	1067.695	1093.859	1101.4016	1104.93	1187.3375	1214.8943	1234.8319	1241.435	1257.4247	1277.6223	1289.6928	1330.9671	1370.5565	1485.0427	1801.0977	3077.3457	3143.5582	3144.8615	3152.1318	3160.7052	3169.4214	3469.3485
N=C1OC2C3CC2C1O3	[NH][C]1O[C@@H]2[C@H]3C[C@@H]2[C@@H]1O3	
InChI=1S/C6H7NO2/c7-6-5-2-1-3(8-5)4(2)9-6/h2-5,7H,1H2	InChI=1S/C6H7NO2/c7-6-5-2-1-3(8-5)4(2)9-6/h2-5,7H,1H2/t2-,3+,4-,5-/m0/s1
