15
gdb 35375	3.90297	1.47482	1.30334	6.1362	67.7	-0.2352	0.0285	0.2638	952.6374	0.114782	-416.754945	-416.748339	-416.747395	-416.786078	26.127	
N	-0.0011109966	-1.1571592486	-0.1491509575	-0.323744
C	-0.0011952632	-0.0070377181	-0.0443924032	 0.316418
C	-0.0190728594	 1.4589914692	 0.0241275795	-0.140168
N	-0.616464177	 1.9484381778	 1.288984608	-0.299834
C	 0.1959422569	 3.089052221	 1.6934228093	-0.052878
C	 1.668810675	 2.8211157064	 1.911015193	 0.11026
O	 2.0409564833	 1.6007150699	 1.2680812781	-0.285319
C	 1.3970392863	 2.0714448166	 0.0523378335	 0.071549
C	 1.2066192647	 3.4874422491	 0.6388930208	-0.190768
H	-0.5501189883	 1.8306169539	-0.8660236817	 0.115778
H	-1.577030877	 2.2323644479	 1.139097406	 0.235831
H	-0.2878706492	 3.8346536254	 2.3122642209	 0.110496
H	 2.267059054	 3.1620139906	 2.7473212586	 0.116321
H	 2.000186808	 1.9022750742	-0.8388288133	 0.108137
H	 1.3922186825	 4.4476190447	 0.1783310782	 0.10792
103.4335	159.1261	296.4857	378.2026	484.9709	530.9327	565.7371	652.3951	705.5235	746.3155	791.1524	822.8981	855.97	891.4686	917.4082	922.5603	1001.4753	1005.973	1012.5534	1041.1035	1056.5747	1066.2488	1107.4385	1128.9981	1209.6077	1242.3267	1257.7368	1270.2026	1333.7792	1343.1385	1399.985	1448.6128	2366.3018	2985.701	3131.5875	3189.2867	3198.2402	3211.8799	3550.2462
N#CC1NC2C3OC1C23	N#C[C@H]1N[C@H]2[C@H]3O[C@@H]1[C@@H]23	
InChI=1S/C6H6N2O/c7-1-2-5-3-4(8-2)6(3)9-5/h2-6,8H	InChI=1S/C6H6N2O/c7-1-2-5-3-4(8-2)6(3)9-5/h2-6,8H/t2-,3-,4-,5+,6+/m1/s1
