16
gdb 35374	3.84405	1.45043	1.28132	5.9811	71.46	-0.2271	0.0346	0.2618	977.3872	0.12761	-396.872776	-396.866063	-396.865119	-396.903934	26.955	
N	-0.0180320849	-1.1559357122	-0.2029194916	-0.331795
C	-0.0067990716	-0.0089021586	-0.0673855918	 0.318185
C	-0.0142740882	 1.4561268914	 0.024060147	-0.113943
N	-0.5919422679	 1.9339548938	 1.3017298464	-0.298458
C	 0.2109645843	 3.0908412457	 1.6817111557	-0.008042
C	 1.6859745894	 2.8680250191	 1.9246907997	-0.01836
N	 2.0694049693	 1.5810160927	 1.3036194755	-0.310687
C	 1.4038308626	 2.0646728106	 0.0374194531	-0.055495
C	 1.2057798269	 3.4905896768	 0.6221400213	-0.1476
H	-0.5600973066	 1.8412130012	-0.8510860879	 0.110507
H	-1.5601281914	 2.2023043201	 1.1732066378	 0.23202
H	-0.2857606085	 3.8407590607	 2.2849854477	 0.104325
H	 2.2247608911	 3.2880909582	 2.766031123	 0.100065
H	 3.0748168787	 1.5894380435	 1.1498438971	 0.226851
H	 1.9676735883	 1.9153125672	-0.8811319255	 0.09646
H	 1.3371382385	 4.4523810299	 0.1425645822	 0.095969
108.4625	156.9855	296.4226	377.2889	476.5615	517.6757	556.9492	633.3804	699.5612	730.1228	783.589	793.9998	843.9291	857.3704	912.205	914.8279	956.9106	998.6341	1002.9155	1033.3212	1048.5615	1059.31	1071.0615	1111.6848	1124.5097	1178.9911	1233.3769	1243.6674	1269.6548	1336.8194	1354.4443	1364.635	1413.331	1457.5673	2364.7794	2985.8261	3141.6355	3177.0449	3185.3833	3200.5219	3492.4518	3548.098
N#CC1NC2C3NC1C23	N#C[C@H]1N[C@H]2[C@H]3N[C@@H]1[C@@H]23	
InChI=1S/C6H7N3/c7-1-2-4-3-5(8-2)6(3)9-4/h2-6,8-9H	InChI=1S/C6H7N3/c7-1-2-4-3-5(8-2)6(3)9-4/h2-6,8-9H/t2-,3+,4+,5-,6+/m1/s1
