18
gdb 6035	2.94474	1.52256	1.42284	4.9284	63.41	-0.2443	0.0234	0.2677	981.2842	0.154385	-418.290159	-418.281242	-418.280298	-418.323271	33.166	
C	-0.0101053625	 1.6363423016	 0.0268404901	-0.434742
C	-0.0661238957	 0.1045107396	 0.0882830758	 0.117655
N	 0.5290903144	-0.4628991868	 1.3117719149	-0.56345
C	-1.5262536672	-0.4143915097	-0.003549617	-0.174516
N	-2.280835137	-0.0689342856	 1.2039909449	-0.524103
H	-3.0955547849	-0.6659880726	 1.2899531818	 0.240619
H	-0.2051206027	-0.5210446289	 2.0157446787	 0.249285
H	-2.6253529135	 0.8839551109	 1.1539919037	 0.237943
C	 0.6654942424	-0.4918605678	-1.1398893348	 0.429635
O	 1.4093916688	-1.5635843354	-0.8473804677	-0.377141
O	 0.5378332102	-0.0579818949	-2.2556936593	-0.359415
H	 1.0212564682	 1.9890086869	 0.1357609129	 0.120838
H	-0.379637698	 1.9932948473	-0.9366371168	 0.148062
H	-0.6017024852	 2.0797076094	 0.8338673352	 0.109794
H	 1.3311222897	-1.6479106018	 0.1331531801	 0.304719
H	 1.2510004482	 0.150936067	 1.6767751664	 0.236783
H	-1.9603597864	-0.041027373	-0.9401017841	 0.120148
H	-1.4941697488	-1.5072896563	-0.0704280446	 0.117885
79.5087	128.199	186.239	244.9162	264.3283	279.8594	334.2051	349.2818	384.6689	401.7762	446.3458	551.2207	654.8751	739.9149	769.935	846.2541	867.9512	908.3033	933.8398	970.7452	979.0835	1071.3161	1082.468	1110.7112	1182.875	1250.2328	1267.8281	1307.1414	1353.8466	1396.0376	1420.3951	1441.2631	1492.3915	1495.0466	1506.4414	1654.4556	1661.663	1857.0817	3019.6975	3037.2042	3075.1859	3099.6799	3136.512	3396.6093	3468.4377	3514.2765	3555.9038	3591.0394
CC(N)(C[NH3+])C([O-])=O	C[C@@](N)(CN)C(=O)O	
InChI=1S/C4H10N2O2/c1-4(6,2-5)3(7)8/h2,5-6H2,1H3,(H,7,8)	InChI=1S/C4H10N2O2/c1-4(6,2-5)3(7)8/h2,5-6H2,1H3,(H,7,8)/t4-/m1/s1
