19
gdb 109695	2.49166	1.19401	1.01531	2.453	67.84	-0.2346	0.0524	0.2871	1248.8097	0.156733	-497.251842	-497.241898	-497.240954	-497.286581	36.341	
C	 0.0592892882	 0.9024524428	 0.4193102011	-0.240786
O	-0.3759357817	 0.0236354409	-0.6130309206	-0.259197
C	-1.5533404987	-0.6547934411	-0.3177219899	-0.047476
C	-1.5660779075	-2.0753255841	-0.8408749581	-0.010174
O	-0.3635687602	-2.5376086952	-1.3917487958	-0.437704
C	-1.5198553843	-1.8311118587	 0.6525103757	 0.337194
O	-0.3058810918	-2.1559604055	 1.2685015438	-0.478768
C	-2.6928449516	-2.1267341002	 1.5513966913	-0.111494
O	-2.7204862452	-3.4874173845	 1.9325322865	-0.417752
H	 0.9806594655	 1.3706702837	 0.0658430197	 0.129631
H	-0.6881689141	 1.6851861565	 0.6078394125	 0.112445
H	 0.2539709443	 0.3513113132	 1.3446947638	 0.141615
H	-2.4622661151	-0.0543526147	-0.3811090695	 0.090774
H	-2.454185269	-2.4867232831	-1.3114713215	 0.110337
H	 0.1463593647	-1.7486942103	-1.6276083308	 0.304722
H	 0.2243363582	-2.5851640032	 0.5772605283	 0.29213
H	-2.6471540985	-1.4640391186	 2.4319370595	 0.092527
H	-3.6324148033	-1.9157701042	 1.0293876123	 0.103857
H	-1.8227553698	-3.6916796037	 2.2217198916	 0.288119
82.2967	118.1159	137.4433	162.3728	187.7052	228.2	277.0248	305.0424	352.1326	367.8111	414.2474	451.1251	580.4925	608.7371	650.7225	677.3073	764.7216	866.1509	875.6343	975.6619	1028.9131	1042.6147	1077.8386	1100.8281	1135.4616	1159.2989	1176.6013	1198.1197	1208.1732	1242.2165	1313.1728	1327.3353	1365.657	1377.9005	1389.468	1432.307	1463.098	1484.0435	1487.1254	1499.1921	1509.342	2965.9422	3008.3508	3068.6469	3087.087	3089.3639	3130.3835	3151.5496	3677.1326	3730.2439	3787.5983
COC1C(O)C1(O)CO	CO[C@H]1[C@@H](O)[C@]1(O)CO	
InChI=1S/C5H10O4/c1-9-4-3(7)5(4,8)2-6/h3-4,6-8H,2H2,1H3	InChI=1S/C5H10O4/c1-9-4-3(7)5(4,8)2-6/h3-4,6-8H,2H2,1H3/t3-,4+,5-/m1/s1
