20
gdb 36232	3.5066	0.97101	0.84564	4.0823	85.67	-0.2517	0.0064	0.2581	1402.4379	0.172991	-366.056898	-366.048345	-366.047401	-366.090644	32.338	
N	-0.1735906039	-1.0921185504	 0.5866918948	-0.317071
C	-0.1198881386	 0.0201826106	 0.2774281918	 0.266587
C	-0.0308949461	 1.4326304853	-0.1074854929	-0.428547
C	 1.3952625837	 1.9548941201	-0.1106177981	 0.327521
C	 1.9518615338	 2.411280695	-1.2339506932	-0.148847
C	 3.3370209945	 2.9978339101	-1.3104012124	-0.240943
C	 3.9082694685	 3.3245807101	 0.076549774	-0.198835
C	 3.6278751512	 2.1835051804	 1.0601659512	-0.201136
C	 2.1185276362	 1.9514137904	 1.216448206	-0.294251
H	-0.4867962784	 1.5532681637	-1.095367752	 0.151639
H	-0.6466649775	 2.0060677774	 0.5994520213	 0.152154
H	 1.3880700846	 2.3669214577	-2.16414588	 0.08234
H	 3.9968431254	 2.2907477108	-1.8352690484	 0.114172
H	 3.3190225993	 3.8974270071	-1.9383801049	 0.105341
H	 4.9831517033	 3.5198101949	 0.0049234833	 0.0961
H	 3.4440500303	 4.2461673156	 0.4510817932	 0.098647
H	 4.0963901678	 1.2631097716	 0.6892197747	 0.106227
H	 4.0757540886	 2.3931960334	 2.0369242182	 0.096811
H	 1.6805770643	 2.7255688256	 1.8654823704	 0.106089
H	 1.934275053	 1.0000393405	 1.7308609228	 0.126001
56.2258	88.2206	156.4448	251.9428	307.8241	311.7349	389.634	397.7028	443.1249	502.8716	553.9131	657.7105	780.8387	819.4611	845.0247	863.5221	900.5445	937.5421	946.8058	967.0729	985.606	1060.0151	1093.0185	1101.2189	1149.3037	1163.2837	1195.7857	1223.6543	1268.7279	1295.0023	1318.0785	1346.9641	1369.535	1374.9765	1384.4805	1404.2297	1453.6331	1472.5653	1478.8413	1491.1986	1500.7827	1740.6004	2358.4718	2991.2235	2998.8227	3018.3247	3021.2172	3028.64	3043.6482	3048.3915	3074.8392	3078.6237	3082.1263	3140.2997
N#CCC1=CCCCC1	N#CCC1=CCCCC1	
InChI=1S/C8H11N/c9-7-6-8-4-2-1-3-5-8/h4H,1-3,5-6H2	InChI=1S/C8H11N/c9-7-6-8-4-2-1-3-5-8/h4H,1-3,5-6H2
