19
gdb 94975	2.68295	1.77417	1.34353	1.6781	74.73	-0.2382	0.055	0.2932	1003.2507	0.1596	-422.927875	-422.920353	-422.919409	-422.959665	30.131	
C	 0.0176084794	 1.5542902997	 0.0643983263	-0.418203
C	 0.0282397514	 0.0286797018	 0.0601524191	-0.172543
C	 0.8542906963	-0.5911173729	-1.1481321088	-0.076968
O	 1.5865221907	-1.7736768711	-0.7085950014	-0.289705
C	 1.1241819231	-2.041272074	 0.5951173035	 0.095649
C	 1.8695232399	-1.8525315938	 1.9657506107	-0.021737
C	 2.2746208788	-0.4390659664	 1.5488496051	-0.27109
C	 0.7873021367	-0.6835027206	 1.145732879	 0.434303
O	 0.5637692955	-1.3070943895	 2.4811108659	-0.378055
H	 1.0340647982	 1.9513215406	 0.1561325944	 0.124863
H	-0.4159682221	 1.9502615028	-0.8598620116	 0.120248
H	-0.5735664898	 1.9388774457	 0.9006076953	 0.131107
H	-0.9961984541	-0.3592832942	 0.0248140262	 0.098532
H	 0.189509892	-0.8693299191	-1.9728670683	 0.114202
H	 1.5863038959	 0.1333438757	-1.522088718	 0.112004
H	 0.335104309	-2.7990159928	 0.6318248916	 0.081831
H	 2.3654707371	-2.5754549438	 2.6135369441	 0.09565
H	 2.4208841033	 0.2625354756	 2.3702100644	 0.104915
H	 3.0073702886	-0.3374453936	 0.7475106225	 0.114997
106.503	188.0651	221.8262	259.7423	323.4461	407.3554	480.3206	538.5412	568.2278	636.9343	687.0481	720.3834	849.8952	864.9843	904.5097	919.686	934.2639	952.4765	959.2381	992.6549	1031.2662	1070.6492	1079.0521	1093.0421	1129.9217	1153.3298	1161.9065	1194.782	1205.2028	1218.141	1253.8056	1279.9875	1314.6527	1344.7906	1369.5538	1398.1399	1414.3361	1482.0311	1495.7704	1500.5364	1513.1556	3032.7101	3036.2252	3043.7824	3063.1703	3080.4056	3082.8846	3102.358	3111.968	3120.5071	3162.154
CC1COC2C3CC12O3	C[C@H]1CO[C@H]2[C@H]3C[C@@]12O3	
InChI=1S/C7H10O2/c1-4-3-8-6-5-2-7(4,6)9-5/h4-6H,2-3H2,1H3	InChI=1S/C7H10O2/c1-4-3-8-6-5-2-7(4,6)9-5/h4-6H,2-3H2,1H3/t4-,5+,6-,7+/m0/s1
