18
gdb 41780	2.93523	1.67485	1.20092	1.6132	73.42	-0.2375	0.0213	0.2589	1030.8863	0.150285	-439.074151	-439.066881	-439.065937	-439.106016	28.35	
C	 0.1240491844	 1.6266198186	 0.2812933048	-0.250896
C	 1.5906586995	 1.4157707095	-0.1856493645	-0.227674
C	 1.1461684591	 0.0590407018	-0.8142909597	 0.040507
N	 2.112147289	-0.99670278	-0.8128833204	-0.266596
C	 2.1969890961	-1.973599877	-0.0222394649	 0.119828
O	 1.4217300732	-2.415329121	 1.0047677619	-0.218936
C	 0.0941359257	-1.9277615969	 1.179588715	 0.018284
O	 0.0063843626	-0.5541809076	 1.3216873879	-0.236552
C	-0.1365944875	 0.1215668318	 0.0792710486	 0.07317
H	-0.0313549638	 1.9857240134	 1.2996194105	 0.117182
H	-0.4611195165	 2.2377139504	-0.4097698708	 0.107552
H	 2.0326114187	 2.1538897377	-0.8567714581	 0.104413
H	 2.2628178709	 1.2467904425	 0.6579796642	 0.119351
H	 0.8428514428	 0.2350365955	-1.853417109	 0.088964
H	 3.0556803728	-2.6407905061	-0.0985418544	 0.12236
H	-0.5225406712	-2.2779280877	 0.3365039531	 0.095112
H	-0.2389535132	-2.3879681489	 2.1117564767	 0.124997
H	-1.0791623125	-0.1857420261	-0.3938502709	 0.068932
105.3695	123.8401	273.845	305.7683	324.7054	407.5344	463.0502	558.2594	639.7641	681.4279	737.5531	794.5755	846.5266	908.8683	931.6098	937.8843	956.4962	973.6533	1018.0281	1069.3977	1096.1184	1115.8433	1131.0963	1175.8478	1197.9157	1224.2762	1249.3897	1259.1633	1281.5487	1286.4693	1323.195	1365.3814	1382.6562	1437.4116	1455.2101	1468.4856	1490.8191	1506.6679	1767.5823	2978.9965	3005.2616	3031.8454	3075.0724	3079.0335	3115.2453	3127.606	3138.6915	3142.3481
C1CC2N=COCOC12	C1C[C@H]2N=COCO[C@@H]12	
InChI=1S/C6H9NO2/c1-2-6-5(1)7-3-8-4-9-6/h3,5-6H,1-2,4H2	InChI=1S/C6H9NO2/c1-2-6-5(1)7-3-8-4-9-6/h3,5-6H,1-2,4H2/t5-,6+/m1/s1
