18
gdb 18391	3.28124	2.31449	1.56651	1.1602	73.06	-0.2353	0.0163	0.2515	845.5822	0.155907	-347.786564	-347.779805	-347.778861	-347.817101	27.237	
C	-0.0605572373	 1.4685166846	 0.0347754345	-0.317645
C	 1.3155436656	 0.8788697759	 0.0692872156	 0.108848
O	 1.9367891387	 0.9431112519	 1.3144044854	-0.238425
C	 2.7766926778	-0.1523827444	 1.6428996857	-0.056778
C	 2.1564313639	-1.5431930912	 1.3797982087	-0.285632
C	 0.6877274402	-1.6245167118	 1.7226318118	-0.046459
C	-0.2351047865	-0.9400559608	 1.045174317	-0.059421
C	 0.1183526397	-0.0367730579	-0.0847221479	-0.09802
H	-0.4280401045	 1.8519550474	 0.9799491917	 0.125991
H	-0.3709578801	 2.023624456	-0.8432069575	 0.109786
H	 1.9769379061	 1.0234581157	-0.7862671589	 0.078962
H	 3.7345952858	-0.08106708	 1.103504867	 0.087363
H	 2.9867798174	-0.0254258171	 2.7094816653	 0.109472
H	 2.2930128935	-1.7980067524	 0.3226036606	 0.115963
H	 2.7353054777	-2.2779340713	 1.9488006059	 0.100692
H	 0.3882608489	-2.2633589197	 2.5493416869	 0.087259
H	-1.2879559229	-1.0363839024	 1.3031899375	 0.08593
H	-0.0559075642	-0.4409815324	-1.0815552393	 0.092112
176.3982	195.0981	271.9143	338.1729	346.6123	441.1968	525.0557	623.6263	713.5324	758.5312	787.1511	813.1567	827.6374	878.1462	912.6602	968.254	989.4952	1017.3369	1040.5774	1061.2769	1093.332	1115.5607	1117.32	1123.2122	1171.6293	1218.6339	1221.0491	1268.9452	1279.6454	1338.5247	1363.7061	1388.8053	1411.4983	1428.9503	1477.9537	1483.2486	1507.384	1708.2202	2977.955	3036.3368	3068.4541	3085.0017	3086.5325	3104.1183	3137.2941	3138.4466	3167.3653	3230.1328
C1C2OCCC=CC12	C1[C@H]2OCCC=C[C@@H]12	
InChI=1S/C7H10O/c1-2-4-8-7-5-6(7)3-1/h1,3,6-7H,2,4-5H2	InChI=1S/C7H10O/c1-2-4-8-7-5-6(7)3-1/h1,3,6-7H,2,4-5H2/t6-,7+/m0/s1
