19
gdb 119032	1.91601	1.44696	0.99738	3.1867	75.3	-0.2497	0.0309	0.2806	1238.2859	0.159042	-419.190772	-419.181198	-419.180254	-419.225848	34.663	
O	-1.6854571585	 1.0837917827	-0.3890105643	-0.417011
C	-1.1978575181	 0.476199345	 0.8097746853	-0.085087
C	-1.932527906	-0.8553441759	 0.9821198047	-0.29385
C	-1.5033579082	-1.957649986	 0.0152896645	 0.323598
C	-0.3895423888	-2.8905495414	 0.4980065846	-0.391019
C	 0.8474740488	-2.1967485229	 0.8610787325	 0.27897
N	 1.8155552523	-1.6394984328	 1.1587824682	-0.324388
C	-2.5118162869	-2.5435452744	-0.9088552372	-0.285593
N	-1.4450267995	-1.6749355901	-1.4248935027	-0.339189
H	-1.0721947849	 1.7777400594	-0.6477718348	 0.294956
H	-0.1140111032	 0.3216357017	 0.7616649672	 0.132388
H	-1.4087282706	 1.1201127633	 1.6764542782	 0.09515
H	-1.7964831373	-1.2007075755	 2.0135180791	 0.108476
H	-3.0017490473	-0.6510610013	 0.8592802832	 0.116088
H	-0.7285091602	-3.4627351441	 1.3703151567	 0.147086
H	-0.1592458828	-3.6055624969	-0.2971669952	 0.160225
H	-2.4415659024	-3.5864117416	-1.2092962712	 0.112842
H	-3.5272489072	-2.1594198187	-0.8539635658	 0.117134
H	-1.7861375393	-0.7301321806	-1.5868405129	 0.249224
46.0523	72.4927	135.3958	166.1977	232.2014	269.7532	317.7633	352.5406	369.8663	392.8192	397.559	521.978	542.4468	730.7436	837.6156	870.4625	892.0688	926.7089	954.9346	968.8965	1000.4486	1009.6291	1039.2549	1078.5862	1107.2685	1150.6978	1196.8447	1225.4423	1270.4626	1277.7756	1292.777	1320.823	1337.9743	1387.668	1407.7213	1448.7892	1451.9599	1470.0336	1515.698	1523.9404	2356.3627	2992.0974	3037.716	3041.7809	3064.6528	3084.1449	3097.3074	3099.9513	3183.1738	3506.0521	3835.9903
OCCC1(CC#N)CN1	OCC[C@@]1(CC#N)CN1	
InChI=1S/C6H10N2O/c7-3-1-6(2-4-9)5-8-6/h8-9H,1-2,4-5H2	InChI=1S/C6H10N2O/c7-3-1-6(2-4-9)5-8-6/h8-9H,1-2,4-5H2/t6-/m0/s1
