12
gdb 132482	3.26707	1.4263	0.99285	1.5403	62.29	-0.2283	-0.0484	0.1799	1049.7688	0.077436	-513.934842	-513.927749	-513.926805	-513.966565	26.664	
O	-0.0654471856	 1.3574542089	 0.0106825779	-0.407281
C	 0.041358543	 0.0106183999	 0.0028964309	 0.278928
C	 1.1928007641	-0.6970956735	-0.0081589009	-0.15047
N	 1.2334378365	-2.0883622533	-0.0159416675	-0.364634
C	 0.1061704209	-2.6573918164	-0.0122716288	 0.402133
F	-0.0105718625	-3.9605524837	-0.0169372075	-0.038229
O	-1.1069075085	-2.0980577946	-0.0010320342	-0.239553
C	-1.2383946976	-0.6936601837	 0.007422842	 0.367249
N	-2.3738887292	-0.1484778732	 0.0176218192	-0.509226
H	 0.8179616087	 1.7442286562	 0.007059558	 0.306335
H	 2.1595694524	-0.2030557801	-0.0116232015	 0.116245
H	-3.1220695821	-0.8412740767	 0.0187011622	 0.238502
114.8347	154.9288	321.7529	363.7315	367.6886	401.3066	425.1079	477.6762	530.4585	608.3362	716.2895	752.631	754.952	785.1831	854.7734	893.5064	984.0106	1028.9954	1179.2098	1220.3601	1268.7945	1307.1616	1377.7897	1469.539	1652.2841	1718.0279	1774.6007	3176.2712	3504.7893	3805.3142
OC1=CN=C(F)OC1=N	OC1=C(OC(=NC1)F)[NH]	
InChI=1S/C4H3FN2O2/c5-4-7-1-2(8)3(6)9-4/h1,6,8H	InChI=1S/C4H4FN2O2/c5-4-7-1-2(8)3(6)9-4/h6,8H,1H2
