21
gdb 63939	2.37438	1.56024	1.4023	2.4437	77.73	-0.2301	0.0622	0.2922	1069.7606	0.181236	-424.207094	-424.198032	-424.197088	-424.24028	35.97	
C	 0.1308120073	 1.5720699898	-0.1120311153	-0.463735
C	 0.0760751878	 0.0602744535	 0.0262825141	 0.328995
O	-1.283111534	-0.391485489	 0.0388235421	-0.497951
C	 0.9438451194	-0.8336889092	-0.912630533	-0.286485
C	 1.4014419966	-1.7074539541	 0.290930073	-0.093599
C	 2.7839729914	-1.3148480352	 0.8586163948	-0.220221
C	 2.1214537164	-0.1830348311	 1.7023751484	-0.287454
C	 0.7140921863	-0.6507196129	 1.2585057113	 0.424537
O	-0.130908367	-0.9211200864	 2.3245424146	-0.486683
H	 1.1600223904	 1.9414032392	-0.1128650566	 0.120768
H	-0.3301039116	 1.891036023	-1.0557350685	 0.104171
H	-0.4113966058	 2.050030707	 0.7096444118	 0.130101
H	-1.6991283232	-0.1367199375	-0.7907230638	 0.280889
H	 0.3469310055	-1.3579115617	-1.6629304553	 0.093917
H	 1.7575803063	-0.3051497345	-1.4190508219	 0.092314
H	 1.1311956721	-2.7627159238	 0.2578136338	 0.06517
H	 3.2282674749	-2.0932809617	 1.4835409747	 0.102864
H	 3.5292128276	-1.0015704297	 0.1214811376	 0.091067
H	 2.2449440646	-0.3040653439	 2.7802123354	 0.117422
H	 2.3929924162	 0.8423314798	 1.43946089	 0.09403
H	-1.0104643011	-1.0497548918	 1.9440509226	 0.289881
66.7705	188.7086	207.6711	211.8322	256.9635	323.7704	350.0998	377.7317	397.9646	456.2304	472.9674	510.6286	602.3943	653.1	740.1235	753.5015	817.4989	856.3975	895.4362	917.8884	950.1814	961.7241	989.2744	1029.9957	1040.0288	1078.6572	1112.6388	1118.3539	1164.7154	1196.0204	1204.9232	1224.2508	1248.3981	1264.4295	1278.2315	1296.7239	1306.2887	1372.0788	1403.6414	1414.3737	1468.9519	1470.1279	1488.2749	1493.5756	1499.2603	3023.8836	3048.267	3052.5598	3067.9321	3090.6984	3097.4525	3101.7695	3115.1407	3119.3642	3127.4529	3757.344	3818.9269
CC1(O)CC2CCC12O	C[C@@]1(O)C[C@H]2CC[C@@]12O	
InChI=1S/C7H12O2/c1-6(8)4-5-2-3-7(5,6)9/h5,8-9H,2-4H2,1H3	InChI=1S/C7H12O2/c1-6(8)4-5-2-3-7(5,6)9/h5,8-9H,2-4H2,1H3/t5-,6-,7+/m1/s1
