19
gdb 88884	3.67108	0.81557	0.74658	2.8116	87.63	-0.2276	-0.0586	0.1691	1562.086	0.15786	-419.214142	-419.204486	-419.203542	-419.249386	35.332	
C	 0.1119110187	 1.5850515933	-0.3149061762	-0.401195
C	-0.0115596142	 0.0913944309	-0.1195948106	-0.005225
C	 1.1909527258	-0.8015614229	-0.1659982104	-0.299634
C	 0.4812619895	-0.5812502409	 1.1621539091	 0.018608
N	 1.156875684	 0.2165259324	 2.1120788888	-0.257257
C	 0.9540931553	 0.0574411049	 3.3683798186	 0.255095
N	 0.1497611153	-0.840373135	 4.0302062495	-0.562634
C	 1.737205776	 0.95617296	 4.2684343222	 0.138317
O	 1.6137205918	 0.9582243002	 5.4714352112	-0.275412
H	 1.0271053809	 1.9643061063	 0.1437289872	 0.13686
H	 0.1294163048	 1.8336298353	-1.3816812735	 0.114157
H	-0.733056234	 2.1150817966	 0.1382985126	 0.113372
H	-0.9301242306	-0.341180144	-0.5086779218	 0.086459
H	 1.1127312338	-1.7813912295	-0.623777085	 0.113172
H	 2.162216264	-0.3279207251	-0.2556174425	 0.124918
H	-0.1188163543	-1.420022016	 1.5154117894	 0.070766
H	-0.6772012062	-1.1826318872	 3.570218484	 0.259157
H	 0.0478493045	-0.6356871264	 5.0150170813	 0.267627
H	 2.4329217451	 1.6210541672	 3.723696526	 0.10285
38.6385	80.3016	139.3509	178.52	209.9701	268.0809	295.7483	350.0875	387.5285	408.7279	461.7019	535.1541	560.1433	650.3258	708.248	756.7264	828.4695	876.0785	896.7235	940.2778	969.7179	1023.5192	1029.3673	1057.2128	1096.9043	1131.2229	1136.0532	1184.7301	1199.1472	1243.1235	1359.9823	1374.8413	1388.6113	1419.5792	1420.4486	1480.6723	1494.654	1501.4318	1615.17	1718.4423	1798.3954	2973.6771	3034.2421	3086.457	3090.0816	3125.1562	3136.3105	3142.2472	3227.7404	3567.741	3694.9895
CC1CC1N=C(N)C=O	C[C@H]1C[C@H]1N=C(N)C=O	
InChI=1S/C6H10N2O/c1-4-2-5(4)8-6(7)3-9/h3-5H,2H2,1H3,(H2,7,8)	InChI=1S/C6H10N2O/c1-4-2-5(4)8-6(7)3-9/h3-5H,2H2,1H3,(H2,7,8)/t4-,5+/m0/s1
