21
gdb 81590	2.95781	1.30899	1.10373	2.0944	85.33	-0.1938	0.0949	0.2887	1195.4244	0.182712	-383.146746	-383.138433	-383.137489	-383.17979	32.441	
C	 1.0287411043	 1.3805449914	-0.3139312499	-0.333731
N	 0.7732245874	-0.0048161016	 0.0844778451	-0.104066
C	-0.6261646635	-0.4842047047	 0.4209814195	-0.069398
C	 0.0812747281	-1.7101032934	 1.0634293533	-0.20895
C	 0.8222735517	-0.4295492106	 1.5400069108	-0.069409
C	-0.5912723547	 0.1666947378	 1.8422520006	 0.11172
N	-0.7764334035	 1.5893123018	 2.0124440555	-0.07604
C	-2.0967796204	 2.0001321154	 2.4845006011	-0.229424
C	-0.9210270014	 2.0444332413	 3.3933184366	-0.229426
H	 0.5382277335	 2.151715122	 0.2842425268	 0.130225
H	 2.1131976214	 1.5386083171	-0.2840832464	 0.108208
H	 0.718753181	 1.4863347098	-1.3601704914	 0.108215
H	-1.4355827974	-0.4760462768	-0.3116601107	 0.076284
H	-0.4722040718	-2.2844719817	 1.8078993115	 0.090018
H	 0.644528416	-2.324707431	 0.3643817834	 0.108817
H	 1.7336154516	-0.3565335253	 2.136755042	 0.076292
H	-1.1593274132	-0.3987693011	 2.6051333988	 0.049444
H	-2.4938016056	 2.9097352047	 2.0438151978	 0.119828
H	-2.834585617	 1.2198687333	 2.6669462641	 0.110785
H	-0.8755118188	 1.2936744964	 4.1811971283	 0.110783
H	-0.4382356277	 2.987191635	 3.6327457428	 0.119824
72.1448	142.8157	173.2389	177.8994	308.5556	316.126	350.1823	473.5738	510.616	625.0278	745.4963	746.9175	792.2355	802.88	881.2858	890.254	903.4709	906.8178	917.8727	1020.4026	1034.1771	1047.0087	1079.936	1081.2392	1108.7562	1117.7833	1120.3346	1140.8497	1156.7824	1174.6842	1187.1345	1201.534	1202.0338	1211.2328	1220.7966	1238.4488	1286.5124	1328.2916	1423.2739	1443.3146	1481.0074	1491.3349	1492.7418	1519.442	1521.4308	2904.1336	3021.5224	3079.8517	3082.1806	3092.6448	3094.3643	3096.8371	3102.9584	3113.555	3173.6942	3178.8427	3192.8582
CN1C2CC1C2N1CC1	CN1[C@H]2C[C@@H]1[C@H]2N1CC1	
InChI=1S/C7H12N2/c1-8-5-4-6(8)7(5)9-2-3-9/h5-7H,2-4H2,1H3	InChI=1S/C7H12N2/c1-8-5-4-6(8)7(5)9-2-3-9/h5-7H,2-4H2,1H3/t5-,6+,7-
