21
gdb 103575	2.28609	1.2696	1.17129	3.4238	79.49	-0.2355	-0.0134	0.2221	1224.3385	0.178922	-424.232748	-424.222564	-424.22162	-424.267687	37.432	
C	 0.0220324572	 1.445643406	-0.0072090299	-0.251696
O	-0.0347439444	 0.0416940245	 0.1249100934	-0.282731
C	-1.3164306888	-0.5558589658	 0.0083391571	 0.385434
C	-2.3047589995	-0.0565082258	 1.0534982921	-0.468145
C	-1.7934800395	-0.5846354877	-1.4873858359	-0.397307
C	-1.1962366314	-1.9976703147	-1.5767063461	 0.395064
O	-0.8652801293	-2.7044274212	-2.4839552129	-0.300103
C	-1.0780576044	-2.1083149653	-0.0502088656	-0.124684
C	 0.1615547571	-2.740368409	 0.5630191866	-0.409573
H	 1.0807517777	 1.712916499	-0.0470316296	 0.132088
H	-0.4619305644	 1.7988197956	-0.9293591635	 0.107139
H	-0.4369647026	 1.9655288937	 0.8445505852	 0.112472
H	-2.556450856	 0.9990247768	 0.911480675	 0.122125
H	-3.2373694026	-0.6255551092	 0.9954791109	 0.118156
H	-1.8900357547	-0.1772088257	 2.0596337017	 0.128131
H	-2.8824963024	-0.5922400244	-1.6013935406	 0.123026
H	-1.3718522894	 0.1623706732	-2.1632661123	 0.129016
H	-1.9864919182	-2.6096269378	 0.3113017266	 0.09717
H	 1.0600597699	-2.1998108087	 0.2613892442	 0.139577
H	 0.1112947812	-2.7374701924	 1.6561779146	 0.115549
H	 0.2507289245	-3.7779842313	 0.227969539	 0.129292
55.5859	124.7603	165.8778	178.128	193.5902	202.7452	242.2983	291.3677	322.3905	364.6904	404.8391	434.2025	533.5139	573.33	631.676	732.0675	741.1462	837.4307	870.3428	906.0842	984.7839	1028.4522	1036.263	1100.1309	1116.1296	1130.5659	1166.126	1170.1103	1182.2718	1198.0004	1232.6124	1260.9775	1282.6944	1342.573	1401.5395	1408.4361	1428.7458	1475.4007	1484.7213	1487.7467	1490.3165	1500.6046	1507.0189	1512.6419	1893.0259	2992.8103	3020.8585	3036.0704	3045.9739	3047.1638	3058.4475	3106.4787	3110.2572	3111.0383	3115.1324	3122.9339	3142.3891
COC1(C)CC(=O)C1C	CO[C@@]1(C)CC(=O)[C@H]1C	
InChI=1S/C7H12O2/c1-5-6(8)4-7(5,2)9-3/h5H,4H2,1-3H3	InChI=1S/C7H12O2/c1-5-6(8)4-7(5,2)9-3/h5H,4H2,1-3H3/t5-,7+/m1/s1
