18
gdb 115997	2.18115	1.58592	0.97904	4.9734	80.14	-0.2135	-0.0288	0.1847	1194.8679	0.147348	-439.097443	-439.088282	-439.087338	-439.132207	32.417	
C	 0.2736189195	 1.0026721121	-0.6734548035	-0.258513
O	 0.017434794	-0.369559474	-0.4151413372	-0.253893
C	-1.3334690412	-0.6673361991	-0.101144232	-0.001342
C	-1.576744518	-2.1595739876	-0.4738289047	-0.193905
N	-1.944463555	-2.806931129	 0.7914193378	-0.284044
C	-1.916011649	-1.9055407759	 1.8020203704	-0.059561
C	-1.6560165513	-0.635177011	 1.3900887618	 0.151864
C	-1.7218669775	 0.5126190075	 2.2530548048	 0.061985
O	-1.5162690616	 1.6730153216	 1.9353398566	-0.317866
H	 1.3428733716	 1.0855544732	-0.8835287659	 0.116335
H	-0.2868750329	 1.3492764231	-1.5561943003	 0.096655
H	 0.0060640836	 1.6342207937	 0.1792814933	 0.15714
H	-1.9917073029	 0.00035816	-0.6735318431	 0.08353
H	-2.3763243942	-2.283479138	-1.2101261194	 0.120978
H	-0.6499957682	-2.5702116337	-0.8844371078	 0.135589
H	-1.8145667512	-3.7929180029	 0.9434642688	 0.257914
H	-2.1242344418	-2.2316448504	 2.8150651105	 0.136763
H	-2.0001973439	 0.2630879306	 3.3041790699	 0.050371
35.7363	112.5951	147.8234	169.822	189.28	276.9807	286.3931	316.4486	391.7634	440.2599	515.2917	590.664	708.7063	806.7783	840.994	927.9698	934.2691	971.859	1016.7123	1025.9381	1068.5508	1130.6181	1171.9353	1189.5505	1213.2255	1236.0557	1255.0541	1290.6168	1327.2724	1350.8895	1381.7601	1433.4467	1473.3062	1480.7077	1487.4429	1513.5023	1522.7793	1647.5054	1751.5202	2844.6538	2980.923	3006.5752	3052.1108	3077.2744	3100.3027	3125.8546	3202.8337	3655.5706
COC1CNC=C1C=O	CO[C@H]1CNC=C1C=O	
InChI=1S/C6H9NO2/c1-9-6-3-7-2-5(6)4-8/h2,4,6-7H,3H2,1H3	InChI=1S/C6H9NO2/c1-9-6-3-7-2-5(6)4-8/h2,4,6-7H,3H2,1H3/t6-/m0/s1
