13
gdb 5504	3.36319	1.89834	1.21545	3.8071	62.65	-0.2165	-0.0476	0.1689	907.8786	0.09623	-398.628791	-398.621685	-398.620741	-398.660163	25.929	
N	 0.0564721977	 1.4065010572	 0.1446316276	-0.605657
C	 0.0264996521	 0.0152978122	 0.0264391234	 0.102954
C	-1.0551254789	-0.8119676315	 0.0071922231	-0.07463
O	-0.6466375125	-2.127425845	-0.02636254	-0.135061
C	 0.6884681286	-2.1311146643	-0.0399266456	-0.051677
C	 1.1854206706	-0.8534930959	-0.0039283973	 0.11595
C	 2.5980645802	-0.491488962	 0.0263546899	 0.061033
O	 3.5153366116	-1.2834251148	-0.0217672435	-0.27954
H	 0.773591419	 1.8464794025	-0.4163218	 0.25349
H	-0.8362004474	 1.8436038924	-0.0413864518	 0.250233
H	-2.1191430146	-0.6507014411	 0.0231700885	 0.133801
H	 1.1778399568	-3.0904851858	-0.0707564304	 0.168822
H	 2.7992660968	 0.6005604563	 0.107030666	 0.060283
141.8148	170.4433	201.9116	241.2828	337.3876	339.3153	541.1198	614.2133	637.5602	648.217	681.363	743.0216	811.5891	827.2181	902.5492	1037.7702	1070.0745	1105.7813	1203.9854	1225.1675	1255.7894	1346.024	1414.3995	1465.325	1557.9396	1638.3929	1669.7347	1784.6954	2870.3643	3282.8778	3288.9848	3547.2381	3636.3876
NC1=COC=C1C=O	Nc1cocc1C=O	
InChI=1S/C5H5NO2/c6-5-3-8-2-4(5)1-7/h1-3H,6H2	InChI=1S/C5H5NO2/c6-5-3-8-2-4(5)1-7/h1-3H,6H2
