19
gdb 107004	2.95229	1.27103	1.05943	1.2559	70.71	-0.2525	0.0614	0.3139	1175.1132	0.157595	-460.1202	-460.110923	-460.109978	-460.154382	34.468	
C	-0.3405656452	 1.4767175941	-0.0583740045	-0.411691
C	-0.076106823	-0.019459034	-0.1153036948	-0.103893
C	 1.1778403172	-0.5438607738	-0.941605882	 0.118728
O	 2.0318918656	 0.3946842459	-1.5316630529	-0.428503
C	 1.6873265083	-1.2082972857	 0.3474572175	-0.111677
O	 1.8652128639	-0.1228113746	 1.2768057941	-0.314875
C	 0.5410411564	-0.6956324689	 1.119006361	 0.403171
C	-0.1197720918	-1.1898697392	 2.3654468191	-0.185745
O	-0.6208500401	-0.1203653382	 3.1539904537	-0.411499
H	 0.5329943623	 2.0154400683	 0.3190168471	 0.114748
H	-0.5746104701	 1.8696531298	-1.0521821497	 0.124138
H	-1.1809004455	 1.6930976661	 0.6079039812	 0.127892
H	-0.9731427778	-0.5613298579	-0.434108682	 0.078004
H	 0.8918544501	-1.2558890986	-1.7191882379	 0.092954
H	 2.4128456457	 0.9056656184	-0.8063909355	 0.291224
H	 2.313104005	-2.0830422995	 0.4893015174	 0.1058
H	-0.9869205877	-1.8069015691	 2.1074778624	 0.116845
H	 0.5882683045	-1.8161104621	 2.9283282805	 0.100567
H	 0.1318203222	 0.4342376992	 3.3874611854	 0.293813
67.6256	97.8552	153.8647	172.8952	230.4488	247.0532	315.4326	363.9136	404.7263	456.2365	489.856	601.8151	640.3073	698.2494	727.4289	779.3377	849.8896	891.8564	953.884	968.9172	1009.1528	1033.4349	1058.8585	1082.4981	1120.7224	1134.0468	1171.5127	1198.4891	1232.4945	1260.1182	1262.9682	1314.4531	1350.5603	1377.1844	1404.2954	1416.0932	1435.3573	1467.1104	1486.178	1487.2398	1504.9831	2997.3209	3042.656	3051.0407	3078.2068	3092.1753	3114.1272	3116.135	3176.9129	3780.9077	3807.2522
CC1C(O)C2OC12CO	C[C@H]1[C@@H](O)[C@H]2O[C@@]12CO	
InChI=1S/C6H10O3/c1-3-4(8)5-6(3,2-7)9-5/h3-5,7-8H,2H2,1H3	InChI=1S/C6H10O3/c1-3-4(8)5-6(3,2-7)9-5/h3-5,7-8H,2H2,1H3/t3-,4+,5+,6-/m0/s1
