17
gdb 36690	5.13988	0.80361	0.76232	2.823	75.15	-0.2534	0.0304	0.2838	1480.9788	0.133307	-421.726648	-421.718053	-421.717109	-421.760857	31.459	
C	-0.0341404532	-1.1694971255	-0.1443134	-0.412485
C	 0.0576564977	 0.0145680067	 0.0315424924	 0.283067
C	 0.1368794233	 1.4503641697	 0.2614116547	-0.213645
O	 1.3450084034	 1.9608115526	-0.2765324922	-0.252466
C	 1.4641536484	 3.3454001664	-0.1273841471	 0.152184
C	 1.839958436	 3.9626216475	 1.2805195636	-0.299054
C	 3.0617982939	 4.583856351	 0.5930341111	 0.029869
O	 3.8467083198	 3.4957884545	 0.1061247111	-0.230933
C	 2.751546261	 3.9388504143	-0.6976258946	-0.015707
H	-0.1070832539	-2.2169329721	-0.3036757555	 0.201593
H	-0.7304598883	 1.9496122613	-0.2041070024	 0.118006
H	 0.0769815891	 1.6556542575	 1.3427123793	 0.124525
H	 0.5837257368	 3.8643155206	-0.5390148327	 0.073079
H	 1.1004806716	 4.6774833076	 1.647345354	 0.10638
H	 2.0940379501	 3.2415503326	 2.0602864527	 0.12073
H	 3.5669825992	 5.5197526516	 0.798287098	 0.108894
H	 2.9676610449	 4.2282206636	-1.7192126123	 0.105963
50.743	92.0121	99.8411	186.8713	261.5908	333.1307	368.963	426.3339	493.6408	610.4941	629.5003	677.5004	735.6743	815.7855	846.7797	872.4818	920.2969	943.1039	978.6821	1015.1836	1032.0908	1034.1297	1041.1701	1074.1677	1131.3722	1187.8697	1209.883	1242.7755	1243.5867	1255.2898	1291.2966	1362.5966	1388.1693	1432.2694	1465.201	1500.0733	2249.5777	2955.019	2976.9432	2982.6639	3071.8034	3133.9779	3186.418	3201.814	3506.0546
C#CCOC1CC2OC12	C#CCO[C@H]1C[C@H]2O[C@@H]12	
InChI=1S/C7H8O2/c1-2-3-8-5-4-6-7(5)9-6/h1,5-7H,3-4H2	InChI=1S/C7H8O2/c1-2-3-8-5-4-6-7(5)9-6/h1,5-7H,3-4H2/t5-,6+,7-/m0/s1
