21
gdb 117988	3.46508	0.73063	0.68906	0.9289	81.16	-0.2534	0.0519	0.3053	1697.486	0.178632	-424.184136	-424.172838	-424.171894	-424.221055	40.309	
C	-0.0588026574	 1.5960298323	-0.1097412415	-0.413343
C	 0.0462218458	 0.0600284345	-0.0110014491	-0.17414
C	 0.6804914332	-0.4883195535	-1.2083499221	 0.329264
C	 1.2008128502	-0.9331979547	-2.196331189	-0.459639
C	 0.789802774	-0.4234551251	 1.2700152784	 0.118987
O	 2.1132063883	 0.0901385188	 1.3427446348	-0.430433
C	-0.0009346775	-0.1444781597	 2.5531124303	-0.204437
C	 0.6402695852	-0.778425647	 3.7819755706	-0.081051
O	-0.1468185035	-0.4230704941	 4.9096579782	-0.423842
H	 0.9356313089	 2.0483670409	-0.1701722837	 0.125213
H	-0.6006030163	 1.8802649708	-1.0146379256	 0.134034
H	-0.5895680437	 2.0157333053	 0.7495279572	 0.120943
H	-0.9723207578	-0.3480525827	 0.0484942834	 0.105541
H	 1.6627163901	-1.3310182731	-3.0655577344	 0.192277
H	 0.9253215844	-1.5064672998	 1.1688471126	 0.098668
H	 2.0564899452	 1.0340132856	 1.5272025466	 0.281649
H	-0.0829669297	 0.9363728096	 2.7255878139	 0.101657
H	-1.0243965167	-0.5242284	 2.4510340923	 0.107284
H	 0.6826860746	-1.8725037969	 3.6527299893	 0.086213
H	 1.675101905	-0.4215290703	 3.87970436	 0.099007
H	 0.2714651876	-0.7901468209	 5.6937650078	 0.28615
47.6324	80.9597	97.7269	111.0838	175.0551	205.8624	242.9216	266.2495	278.8975	300.9715	319.3318	384.1447	394.5248	515.3509	571.189	620.1061	636.8436	670.128	799.8453	804.8667	897.682	960.4237	1000.1712	1020.071	1068.4433	1084.8002	1096.2207	1109.1152	1135.8507	1207.9669	1236.2627	1278.999	1298.4281	1302.9918	1339.9277	1349.5887	1381.8025	1402.5146	1427.291	1458.4021	1486.2149	1493.1712	1507.8342	1531.5044	2236.2746	2966.666	3011.131	3017.6546	3026.2982	3045.169	3047.5423	3076.3954	3117.3348	3125.6812	3505.1414	3805.2833	3830.4579
CC(C#C)C(O)CCO	C[C@@H](C#C)[C@@H](O)CCO	
InChI=1S/C7H12O2/c1-3-6(2)7(9)4-5-8/h1,6-9H,4-5H2,2H3	InChI=1S/C7H12O2/c1-3-6(2)7(9)4-5-8/h1,6-9H,4-5H2,2H3/t6-,7-/m0/s1
