17
gdb 111477	2.70795	1.61021	1.13267	3.4036	68.22	-0.2469	-0.0028	0.2441	1074.9928	0.135868	-458.972419	-458.964392	-458.963448	-459.005363	29.828	
C	 0.0881079608	 1.4968588083	 0.1369122085	-0.246854
O	-0.1515645435	 0.0965286355	 0.1317665702	-0.24224
C	 0.5661109286	-0.6211607203	 1.1089238413	-0.044005
C	 0.0387290326	-2.0232259096	 1.2801746868	-0.090392
C	 0.0683608561	-2.9158048271	 0.0502689577	-0.309323
C	 1.2071174519	-2.932171017	 1.0194357396	 0.083464
O	 2.343335706	-2.1619465305	 0.6614361544	-0.212684
C	 2.044339819	-0.8327670594	 0.6792388835	 0.416708
O	 2.8357656459	 0.0064077394	 0.3624792028	-0.329945
H	 1.1313409987	 1.7328404311	-0.0938175678	 0.148694
H	-0.5645454537	 1.9239930582	-0.6275540069	 0.128179
H	-0.170058666	 1.9358231973	 1.1130614591	 0.104087
H	 0.5619549778	-0.077018835	 2.0666004965	 0.095677
H	-0.674719137	-2.2272871236	 2.0674328015	 0.106477
H	-0.6034263255	-3.7665395722	 0.0495107761	 0.126915
H	 0.2265748231	-2.452439805	-0.9169922059	 0.145619
H	 1.4657672052	-3.7935436701	 1.6206692127	 0.119622
74.3146	124.6399	184.3738	189.5713	263.7501	351.9239	418.9721	461.9029	504.2156	653.7573	690.2736	714.1395	811.3857	824.1544	865.3043	962.8515	965.9547	1021.5884	1041.8836	1062.6904	1066.0424	1097.1317	1140.5604	1148.1441	1179.3487	1184.3819	1200.5267	1225.6017	1298.969	1341.5711	1378.6009	1391.0204	1475.3571	1479.3768	1482.5762	1518.0534	1876.5321	2981.3364	2989.1205	3083.6167	3130.6863	3143.2804	3197.1982	3206.9958	3235.5669
COC1C2CC2OC1=O	CO[C@H]1[C@H]2C[C@H]2OC1=O	
InChI=1S/C6H8O3/c1-8-5-3-2-4(3)9-6(5)7/h3-5H,2H2,1H3	InChI=1S/C6H8O3/c1-8-5-3-2-4(3)9-6(5)7/h3-5H,2H2,1H3/t3-,4+,5-/m0/s1
