23
gdb 120764	3.51378	0.74939	0.66771	1.0051	88.21	-0.2467	0.0856	0.3323	1773.2667	0.204689	-388.248641	-388.238567	-388.237623	-388.284931	36.575	
C	 0.0882463333	 1.3572406114	 0.225126003	-0.22425
O	-0.0059039964	-0.0432764088	 0.2958971118	-0.230503
C	-1.2258759227	-0.5356763697	-0.2245951862	-0.07194
C	-1.2039642989	-2.0386178976	-0.158133208	-0.024128
C	-1.6000313731	-2.7595005446	 1.10762135	-0.301806
C	-2.4746796099	-2.863421501	-0.1185339435	-0.016857
C	-3.8469455173	-2.2637799662	-0.1529691277	 0.025605
C	-4.6612023605	-2.297096966	-1.4246757353	-0.268784
C	-5.0554561948	-3.1631002378	-0.2537866069	-0.277101
H	 1.0584977856	 1.6433219361	 0.6390330181	 0.124604
H	 0.023825767	 1.7223916462	-0.8130330037	 0.100061
H	-0.7052138515	 1.8535550029	 0.8079211213	 0.099014
H	-2.073964335	-0.1266728788	 0.3490297835	 0.078801
H	-1.3537919656	-0.1966331682	-1.2677812792	 0.084424
H	-0.3791177027	-2.4719133866	-0.717173138	 0.08745
H	-1.0235485373	-3.6224999008	 1.4217410435	 0.109261
H	-1.9663807274	-2.1491587358	 1.927815488	 0.110182
H	-2.4125252995	-3.8047952669	-0.6605993837	 0.077249
H	-3.9769544637	-1.3817260308	 0.4670224313	 0.079426
H	-5.2809678195	-1.4406368269	-1.6667531286	 0.10894
H	-4.2225166155	-2.7846141374	-2.2893098151	 0.110114
H	-4.8825002552	-4.2316322121	-0.3321392808	 0.110722
H	-5.9445664593	-2.8994086108	 0.3083314066	 0.109518
45.0087	65.8926	87.1723	111.9112	183.4517	230.7278	255.4924	296.2548	329.6975	409.8365	470.6224	564.0103	735.3454	798.2003	820.8931	829.6219	864.0033	907.6379	920.243	948.1412	978.9036	1002.3573	1039.5071	1056.5156	1063.0527	1074.4069	1076.4659	1126.5439	1140.3526	1154.2555	1176.2984	1195.5021	1199.3235	1210.2881	1222.058	1231.9319	1255.3052	1277.6387	1319.6405	1378.3791	1437.0137	1453.5856	1470.191	1480.5892	1484.6494	1494.3427	1503.4143	1509.5408	1524.2955	2944.667	2963.2423	2978.7768	3001.9411	3109.9846	3120.8378	3126.3074	3127.6065	3132.5606	3145.2856	3148.9543	3205.3712	3211.2028	3221.0468
COCC1CC1C1CC1	COC[C@H]1C[C@H]1C1CC1	
InChI=1S/C8H14O/c1-9-5-7-4-8(7)6-2-3-6/h6-8H,2-5H2,1H3	InChI=1S/C8H14O/c1-9-5-7-4-8(7)6-2-3-6/h6-8H,2-5H2,1H3/t7-,8+/m1/s1
