18
gdb 42840	3.01463	1.8114	1.63673	3.6753	74.1	-0.2379	-0.0004	0.2375	892.016	0.151321	-401.898072	-401.891798	-401.890854	-401.928395	27.011	
O	 0.0007268723	 0.0096025883	 0.0391437512	-0.323471
C	-0.0153811138	 1.1981310948	-0.0142264557	 0.464897
C	-1.068342313	 2.3363455546	 0.0497067447	-0.126591
N	-0.0254671177	 2.9468274008	 0.92822978	-0.31011
C	 1.0090774443	 2.3632569018	 0.0220057257	-0.126591
C	 0.9880054779	 3.0363318533	-1.4181734217	-0.033581
C	-0.0723808957	 4.1749144588	-1.3969493047	-0.234116
C	-1.1031119263	 3.0092431476	-1.3902892433	-0.033581
C	-0.0595626721	 2.2683778858	-2.2878201994	-0.237175
H	-2.0484444422	 2.1797197515	 0.5017075751	 0.089672
H	-0.0379375912	 3.9612452734	 0.978507847	 0.223587
H	 2.0046093112	 2.2322243125	 0.4476621205	 0.089672
H	 1.9888635055	 3.224182348	-1.8090171048	 0.070154
H	-0.0714371846	 4.9222818842	-0.6001269977	 0.087538
H	-0.091952119	 4.7005242789	-2.3540420316	 0.109461
H	-2.1185632112	 3.1709740236	-1.7542468308	 0.070154
H	-0.0779937782	 2.6297519589	-3.318951019	 0.094777
H	-0.0454782863	 1.1766537934	-2.2921724254	 0.125303
173.9453	234.1874	464.4639	472.9209	492.5938	505.1818	543.1406	615.6928	723.5837	775.5004	797.7522	832.8376	861.882	864.3041	901.0667	902.8451	928.6004	992.5293	997.4694	1008.9135	1023.5322	1049.9901	1057.9149	1100.0497	1109.5343	1133.8875	1137.8559	1224.8072	1231.6002	1232.8744	1257.4037	1287.5345	1290.0019	1290.4165	1315.1291	1341.2836	1504.2326	1536.9385	1922.294	3062.8035	3064.3357	3096.1235	3096.739	3110.2513	3112.4903	3115.9791	3118.9887	3508.0304
O=C1C2NC1C1CC2C1	O=C1[C@H]2N[C@@H]1[C@@H]1C[C@H]2C1	
InChI=1S/C7H9NO/c9-7-5-3-1-4(2-3)6(7)8-5/h3-6,8H,1-2H2	InChI=1S/C7H9NO/c9-7-5-3-1-4(2-3)6(7)8-5/h3-6,8H,1-2H2/t3-,4+,5-,6+
