18
gdb 109636	2.12838	1.33363	1.05627	5.6123	74.44	-0.2344	0.0268	0.2612	1214.1658	0.146659	-435.23225	-435.22217	-435.221225	-435.267129	36.049	
C	 0.3565257838	 1.1109426425	-0.2822470455	-0.247491
O	-0.2934763155	 0.0043451467	 0.3247937501	-0.241236
C	 0.4634960008	-0.6040879649	 1.3073972156	 0.065516
C	 0.0089411471	-1.952587794	 1.7412876295	-0.104405
N	-1.1056780222	-2.5449936659	 1.068147759	-0.511794
C	 1.3248234963	-1.8328104428	 0.9108324805	 0.096072
N	 1.2846587437	-2.3652070547	-0.4145483938	-0.567986
C	 2.5607556448	-1.9908810812	 1.6353362657	 0.270501
N	 3.5378159435	-2.0761885933	 2.2511026953	-0.354176
H	 1.3022905304	 0.8171126175	-0.7561449089	 0.121668
H	-0.3230416304	 1.5018748253	-1.0417355207	 0.137815
H	 0.5668873309	 1.8985060457	 0.4546621463	 0.123297
H	 0.8773991143	 0.0673771677	 2.0603765927	 0.106839
H	 0.1450886047	-2.193558225	 2.7913483432	 0.118356
H	-1.5298557329	-3.2801876188	 1.6165282386	 0.24888
H	-1.8040556696	-1.85267256	 0.8249200117	 0.255904
H	 0.3701207171	-2.7941737017	-0.5497714516	 0.248083
H	 1.3965505032	-1.6418526332	-1.1157090778	 0.234155
101.3912	111.5349	141.6548	157.6173	158.736	180.1604	236.4893	301.3612	314.8399	340.2717	477.7361	498.963	572.8934	606.2797	606.7272	710.2401	755.339	838.2477	865.5896	878.895	1008.5998	1050.2456	1095.2162	1110.5198	1156.8946	1180.4292	1210.5607	1252.2687	1266.6864	1289.0173	1322.3706	1367.9171	1455.5247	1484.6551	1487.7396	1508.5373	1642.2677	1659.7277	2337.4046	2999.0572	3055.4047	3098.7982	3132.9374	3150.081	3462.4394	3536.2317	3567.1786	3632.391
COC1C(N)C1(N)C#N	CO[C@H]1[C@@H](N)[C@]1(N)C#N	
InChI=1S/C5H9N3O/c1-9-4-3(7)5(4,8)2-6/h3-4H,7-8H2,1H3	InChI=1S/C5H9N3O/c1-9-4-3(7)5(4,8)2-6/h3-4H,7-8H2,1H3/t3-,4+,5-/m1/s1
