17
gdb 93301	2.23683	1.85321	1.12787	4.1715	68.73	-0.2403	-0.0349	0.2054	1059.5375	0.135067	-458.964573	-458.956283	-458.955339	-458.997554	31.149	
O	 0.1490001179	 1.2628086143	-0.5302054197	-0.430768
C	 0.0327696479	-0.0319640049	 0.0234416919	 0.015207
C	 0.4478649958	-0.132836121	 1.5102862957	-0.265068
C	-0.3062358682	-1.3628242766	 2.0485520062	-0.338862
C	-1.6040048977	-1.3984585698	 1.2405736368	 0.341992
O	-2.6016746445	-2.0226395313	 1.4902104125	-0.313536
C	-1.4157665746	-0.4841760755	 0.0446264326	 0.3456
C	-2.5417436343	 0.3266691269	-0.4573707263	-0.227084
O	-2.0849565292	-0.8203967563	-1.1639575602	-0.276662
H	 1.0779310553	 1.4332211492	-0.712906636	 0.290168
H	 0.6045804727	-0.7610696329	-0.5729586568	 0.087257
H	 1.5313995444	-0.1976512611	 1.638862234	 0.102772
H	 0.1045707239	 0.7775762913	 2.0134224377	 0.121065
H	 0.2391047659	-2.2914164993	 1.8329451988	 0.13797
H	-0.5028273828	-1.3496429969	 3.1226716863	 0.13607
H	-3.5120171993	 0.2176675746	 0.023517526	 0.131906
H	-2.3131624635	 1.2844721794	-0.9168100395	 0.141972
66.8385	156.1722	219.586	234.7314	254.7901	285.3814	317.5829	484.0561	494.6022	528.5165	577.9091	642.1801	681.3595	817.4055	850.7916	900.297	919.0519	979.2413	1007.9004	1046.6651	1068.7238	1101.8646	1136.7026	1156.9832	1171.2814	1208.5007	1234.353	1242.1049	1291.6753	1311.0265	1334.504	1398.6889	1449.1044	1453.1423	1499.0069	1504.8453	1851.2245	2975.328	3033.2889	3051.9241	3099.3848	3101.2771	3113.9663	3204.8743	3828.5756
OC1CCC(=O)C11CO1	O[C@H]1CCC(=O)[C@]21CO2	
InChI=1S/C6H8O3/c7-4-1-2-5(8)6(4)3-9-6/h4,7H,1-3H2	InChI=1S/C6H8O3/c7-4-1-2-5(8)6(4)3-9-6/h4,7H,1-3H2/t4-,6+/m0/s1
