17
gdb 31017	3.43994	1.16548	0.89514	2.1423	72.56	-0.1879	0.044	0.2319	1273.7908	0.136653	-455.187344	-455.178479	-455.177535	-455.220984	32.669	
C	-0.216182332	 1.5026366773	 0.114579026	-0.498613
C	-0.0600952427	 0.0276359374	-0.0344570906	 0.320395
N	-0.1544175867	-0.6552304203	-1.1498316445	-0.348133
C	 0.0569809307	-1.981977796	-0.8162689555	 0.09137
C	 0.0249715229	-3.1308002761	-1.7708191877	-0.199052
O	 0.857840717	-4.2079876112	-1.2924589175	-0.423461
C	 0.288202837	-2.0830116674	 0.5303897588	 0.330958
O	 0.5563628811	-3.1300211172	 1.337254352	-0.440465
N	 0.215278069	-0.808372793	 1.0302574409	-0.348486
H	 0.6883194361	 1.9766153756	 0.5150275061	 0.126403
H	-0.4190817967	 1.9278373368	-0.8693107804	 0.155505
H	-1.0470133975	 1.7646655144	 0.780980378	 0.128436
H	-0.9726877334	-3.5773467281	-1.8592438853	 0.124043
H	 0.325738544	-2.8078004435	-2.7755535242	 0.119549
H	 1.770364725	-3.9048916655	-1.3629002211	 0.290009
H	 0.6627253343	-3.8855504524	 0.7334216487	 0.305492
H	 0.359223782	-0.5523632007	 1.9928916262	 0.26605
84.4475	102.0106	179.4539	199.5134	239.5957	282.2903	343.8211	374.0528	429.9926	488.1122	493.7526	624.9464	660.0843	682.4748	693.9314	735.6768	814.7037	974.8903	984.2387	1009.6503	1038.1082	1060.9473	1164.6082	1178.8847	1226.716	1264.4414	1326.1131	1375.1963	1402.961	1413.0871	1431.2407	1480.5473	1493.8752	1507.0178	1541.6045	1587.7738	1661.4607	3020.7186	3022.2897	3056.3175	3067.7611	3145.1904	3657.7131	3662.3266	3799.0204
CC1=NC(CO)=C(O)N1	Cc1nc(CO)c(O)[nH]1	
InChI=1S/C5H8N2O2/c1-3-6-4(2-8)5(9)7-3/h8-9H,2H2,1H3,(H,6,7)	InChI=1S/C5H8N2O2/c1-3-6-4(2-8)5(9)7-3/h8-9H,2H2,1H3,(H,6,7)
