21
gdb 106230	2.56766	1.36412	1.1943	1.6003	83.33	-0.2214	0.0107	0.2321	1173.9545	0.182643	-387.089069	-387.080242	-387.079298	-387.122283	34.48	
C	 0.0406500034	 1.5164327586	-0.3224053518	-0.378194
C	-0.0097559884	 0.0584564699	 0.1530073204	-0.280818
C	-1.4029342858	-0.5370366652	 0.133222844	 0.274425
C	-2.4533176079	-0.0470710438	 1.0777859724	-0.156084
C	-3.2707789647	-1.0228788321	 1.4896638643	-0.101177
C	-2.8765399056	-2.3705103435	 0.9216583602	-0.281678
C	-1.6933969345	-2.0468477424	 0.0096506249	-0.168587
C	-1.9686293217	-1.1257972275	-1.1506682269	 0.092397
O	-3.2558321817	-0.8737800531	-1.6212101621	-0.431097
H	 1.0666226442	 1.8972276243	-0.313727371	 0.111638
H	-0.3470760669	 1.6097772102	-1.3420595381	 0.123289
H	-0.5582618091	 2.1698758976	 0.3205714623	 0.115636
H	 0.6411937302	-0.5515842227	-0.4853186316	 0.095993
H	 0.4053914396	-0.0149768034	 1.1671691318	 0.096354
H	-2.538559716	 0.9961691561	 1.3625465589	 0.097612
H	-4.1272202343	-0.8897655271	 2.1417796494	 0.097866
H	-2.6056331665	-3.077554368	 1.7154473286	 0.110738
H	-3.7020079404	-2.8300586779	 0.361063042	 0.120116
H	-0.8822369709	-2.762054772	-0.0756742263	 0.081505
H	-1.2760268043	-1.1818837996	-1.9858622956	 0.098531
H	-3.7670184887	-0.5106980383	-0.8857891958	 0.281535
78.3159	150.3091	194.5689	212.0244	228.1742	306.3733	346.1326	358.5091	400.2615	542.0794	574.8032	636.4122	736.3633	749.1797	771.522	788.5459	854.1415	868.1186	932.4036	942.4046	966.627	978.659	995.6011	1036.1556	1061.1231	1072.2449	1097.891	1127.2363	1160.9829	1184.3613	1218.4851	1246.8203	1303.4311	1307.8127	1323.3718	1351.8387	1370.5961	1395.5158	1411.5981	1450.2435	1472.2738	1485.9708	1499.9663	1507.1174	1658.4168	3014.1103	3017.7021	3034.6839	3046.789	3049.2825	3102.3516	3106.4167	3148.4972	3164.5953	3179.7543	3204.2947	3747.4666
CCC12C=CCC1C2O	CC[C@]12C=CC[C@H]1[C@H]2O	
InChI=1S/C8H12O/c1-2-8-5-3-4-6(8)7(8)9/h3,5-7,9H,2,4H2,1H3	InChI=1S/C8H12O/c1-2-8-5-3-4-6(8)7(8)9/h3,5-7,9H,2,4H2,1H3/t6-,7+,8-/m0/s1
