22
gdb 116773	3.80101	0.65938	0.61169	3.0504	83.82	-0.2483	0.0251	0.2734	1915.618	0.191338	-441.481991	-441.47096	-441.470016	-441.519389	38.932	
C	 0.3058005191	 0.617806012	-0.6471179932	-0.396521
C	-0.4995283729	 0.2202323567	 0.5944867492	-0.110033
N	-1.7034442192	-0.5766353999	 0.428255742	-0.230881
C	-2.0892498477	-0.9307273665	-0.7128598077	 0.12539
O	-3.2315069239	-1.6427383727	-0.8480660512	-0.235138
C	-3.556418501	-2.1360787658	-2.1609951185	 0.092196
C	-2.8335150567	-3.4520397052	-2.4297081387	-0.387032
C	-5.0800063803	-2.2762994554	-2.1523853588	-0.061921
O	-5.5223354338	-3.1649584909	-1.147515395	-0.418732
H	 1.1745068116	 1.2101930435	-0.3445802507	 0.116845
H	 0.6760928932	-0.2570959507	-1.192432779	 0.118205
H	-0.2845334536	 1.2268054954	-1.3403702566	 0.118517
H	 0.152702808	-0.3301436472	 1.2856295459	 0.113571
H	-0.7908610608	 1.1276030482	 1.1403750127	 0.113439
H	-1.5969600679	-0.7072751961	-1.6679817017	 0.078558
H	-3.2746358233	-1.3810147951	-2.9094136597	 0.079243
H	-1.7505207665	-3.3316579445	-2.3348524841	 0.117024
H	-3.1692093617	-4.210771904	-1.7194297433	 0.144748
H	-3.0509705489	-3.803342368	-3.4433809485	 0.11941
H	-5.5254275213	-1.2770289112	-2.0325505024	 0.095739
H	-5.4167031938	-2.6846669127	-3.1108379	 0.10946
H	-5.1679969589	-2.8299195797	-0.3150541309	 0.297915
30.7596	60.3231	89.0967	137.4681	167.2482	222.0547	227.1216	234.7431	309.8243	323.698	345.8549	421.0481	444.5915	479.772	554.2298	688.5949	778.8152	829.63	894.8952	920.9143	950.6352	981.0194	1016.4518	1067.0325	1086.1825	1104.1722	1142.1132	1146.7546	1152.3813	1230.0241	1253.8403	1314.32	1344.0097	1362.0708	1377.8375	1390.6289	1398.6442	1415.5674	1426.0203	1434.2735	1483.3806	1485.033	1494.6257	1497.0073	1497.9506	1507.0999	1777.8619	2988.5693	3005.6682	3014.8178	3028.7959	3034.5443	3038.2041	3045.4791	3080.8842	3098.8017	3107.2789	3113.4576	3138.5347	3795.0262
CCN=COC(C)CO	CCN=CO[C@@H](C)CO	
InChI=1S/C6H13NO2/c1-3-7-5-9-6(2)4-8/h5-6,8H,3-4H2,1-2H3	InChI=1S/C6H13NO2/c1-3-7-5-9-6(2)4-8/h5-6,8H,3-4H2,1-2H3/t6-/m0/s1
