13
gdb 7245	4.41397	1.25526	1.00157	9.4088	61.43	-0.2532	-0.0547	0.1985	1084.4478	0.095313	-431.95542	-431.947313	-431.946368	-431.988488	28.301	
O	 2.6200634047	 0.1244444287	 0.5046791178	-0.307661
C	 1.5492731795	-0.2942074303	 0.1749199885	 0.425999
O	 1.2922797733	-1.6061517934	 0.0175363283	-0.378158
C	 0.3292493139	 0.5916368221	-0.1121581861	 0.185437
N	 0.5031853186	 1.846890662	-0.2177480832	-0.444403
N	-0.844042201	-0.1645591459	-0.2901674979	-0.315142
C	-1.9592844652	 0.3015536031	 0.1414047292	 0.123637
N	-3.1390180319	-0.3113107598	-0.0653745173	-0.488921
H	-3.1608902487	-1.193898264	-0.5506361918	 0.277816
H	-3.9726697822	 0.0028332656	 0.3979134177	 0.280668
H	-0.3687352555	 2.3204620223	-0.467906147	 0.214878
H	 0.3541940762	-1.6720158151	-0.2420550844	 0.298564
H	-2.0283730817	 1.2366094048	 0.7090381262	 0.127288
64.4117	117.5112	153.1276	204.1116	257.5342	307.7966	404.7281	440.3561	493.5177	582.4596	619.3315	685.3865	723.3016	811.0128	849.6499	919.7823	994.6708	1033.0392	1154.3799	1188.7623	1288.3509	1340.413	1395.3344	1415.158	1628.5721	1688.6533	1733.5489	1883.5249	3065.2135	3441.0056	3600.3606	3608.8338	3743.8327
[O-]C(=O)C(=N)NC=[NH2+]	O=C(O)C(=[N]=CN)[NH]	
InChI=1S/C3H5N3O2/c4-1-6-2(5)3(7)8/h1H,(H,7,8)(H3,4,5,6)	InChI=1S/C3H5N3O2/c4-1-6-2(5)3(7)8/h1,5H,4H2,(H,7,8)
