21
gdb 93999	2.24031	1.41962	1.14388	4.1868	78.44	-0.2365	-0.011	0.2255	1176.6834	0.181973	-424.251881	-424.242386	-424.241442	-424.286573	35.217	
C	-0.8496103075	 1.1638000851	-0.0502238197	-0.420092
C	-0.024630698	-0.122602673	-0.0918471782	 0.009721
C	 0.9960707009	-0.2166284642	-1.2341507786	 0.115237
O	 1.7699188626	 0.9818351582	-1.2155858109	-0.435146
C	 1.8356078931	-1.4375138506	-0.8427228852	-0.237753
C	 2.0225266272	-1.2933558266	 0.6855905104	-0.233918
C	 0.8150415824	-0.4463183541	 1.1928636692	-0.071401
C	 1.2969234939	 0.8054349649	 1.9016257055	 0.153449
O	 0.8806090123	 1.188098757	 2.9659993378	-0.265085
H	-0.2084892795	 2.0474814875	-0.0167888972	 0.141343
H	-1.4818968818	 1.2442170431	-0.9403588316	 0.109153
H	-1.5006051472	 1.1807075982	 0.8290025588	 0.125895
H	-0.7102260868	-0.967983761	-0.2301789239	 0.081595
H	 0.5024898359	-0.3365475804	-2.2095958329	 0.061268
H	 2.4879504588	 0.8863438389	-1.8488710308	 0.284803
H	 1.2782325354	-2.3498549916	-1.084466671	 0.102985
H	 2.784261096	-1.487673272	-1.3879977882	 0.088401
H	 2.0770735278	-2.2602395277	 1.1904262938	 0.108972
H	 2.9619511652	-0.7729897893	 0.9018684436	 0.107297
H	 0.1973155264	-0.9883471591	 1.9130655497	 0.085384
H	 2.0893498231	 1.3631496166	 1.3557315494	 0.087894
48.5904	73.8141	158.5753	216.5899	237.5968	246.7744	291.0207	335.2886	377.4781	395.5417	430.5223	534.7828	661.8182	709.0944	813.0603	830.853	875.3906	903.5066	943.2562	969.7222	994.9972	1025.4216	1035.5892	1065.0674	1075.7243	1140.8844	1158.6721	1199.6588	1208.3841	1212.0703	1276.4611	1289.0432	1316.1751	1329.3552	1343.0252	1356.3503	1382.1102	1407.1215	1417.3857	1427.2024	1481.739	1491.7476	1497.485	1505.3705	1823.8682	2896.2982	2994.6237	3024.5519	3039.3808	3042.6155	3045.4668	3076.1531	3080.0072	3105.947	3106.094	3129.5751	3822.0535
CC1C(O)CCC1C=O	C[C@H]1[C@@H](O)CC[C@H]1C=O	
InChI=1S/C7H12O2/c1-5-6(4-8)2-3-7(5)9/h4-7,9H,2-3H2,1H3	InChI=1S/C7H12O2/c1-5-6(4-8)2-3-7(5)9/h4-7,9H,2-3H2,1H3/t5-,6+,7+/m1/s1
