19
gdb 73714	2.74023	1.94137	1.35458	0.5391	74.71	-0.2419	0.0732	0.3151	965.1167	0.161419	-422.976771	-422.969702	-422.968758	-423.007749	29.46	
O	-0.0168125501	 1.408340213	 0.1350730733	-0.486784
C	 0.0160249035	 0.0093415388	-0.0095771277	 0.427306
C	 1.0334808878	-0.6133894793	 0.9468758547	-0.161303
O	 1.3970315846	-1.9243805463	 0.5656420987	-0.243951
C	 0.2720551816	-2.6911397057	 0.1670500497	-0.118118
C	-0.6709044843	-1.8793625669	-0.7065652861	-0.014337
C	-1.3876577626	-0.6435398106	-0.0771156897	-0.099536
C	-1.5271133703	-0.0783270481	-1.5193327012	-0.246043
C	-0.0769992938	-0.6344746671	-1.4432092062	-0.130292
H	 0.8671644198	 1.7519004943	-0.0339678214	 0.280054
H	 1.9610968215	-0.0273439355	 0.939581045	 0.093066
H	 0.6343277827	-0.5853652304	 1.975612962	 0.094839
H	 0.6739546523	-3.5486433122	-0.3825245293	 0.108753
H	-0.2678709143	-3.0833916957	 1.0472707412	 0.087186
H	-1.32275915	-2.5131955398	-1.3143338908	 0.071954
H	-2.135968026	-0.6517688928	 0.7179263873	 0.069284
H	-2.210837125	-0.6183401607	-2.1799972878	 0.086324
H	-1.6336840671	 1.0010686688	-1.6097546025	 0.112195
H	 0.6851237597	-0.6336856337	-2.2242461492	 0.069402
198.6449	212.0078	296.3418	341.8906	370.2701	406.315	427.3408	496.9613	580.6874	661.1666	766.2531	772.3312	818.331	847.2379	900.0765	903.7565	963.4866	1009.8137	1015.0191	1021.7928	1058.0932	1070.1977	1082.9912	1097.7682	1140.425	1161.8614	1176.0007	1195.7337	1215.0227	1225.7502	1245.8248	1246.0702	1261.8122	1300.867	1355.5133	1380.3808	1388.4823	1425.4066	1493.9405	1506.4516	1509.387	2948.2753	2959.686	3041.4402	3062.4965	3064.5698	3074.981	3094.1301	3102.1179	3156.9109	3802.3056
OC12COCC3C1CC23	O[C@@]12COC[C@H]3[C@@H]1C[C@@H]23	
InChI=1S/C7H10O2/c8-7-3-9-2-4-5(7)1-6(4)7/h4-6,8H,1-3H2	InChI=1S/C7H10O2/c8-7-3-9-2-4-5(7)1-6(4)7/h4-6,8H,1-3H2/t4-,5-,6+,7-
