14
gdb 131653	3.05829	1.25699	0.89914	2.3914	69.95	-0.2599	-0.0958	0.1641	1200.8228	0.099554	-469.952745	-469.944648	-469.943704	-469.985872	29.349	
O	 0.386971851	 0.759345712	-0.8870900161	-0.398524
C	-0.1121320933	 0.2251497637	 0.315968015	-0.13851
C	-1.4320649723	-0.4833844007	 0.1518318696	 0.284089
C	-2.0500957917	-0.7248240014	-1.0108716458	-0.219854
C	-3.3259747226	-1.412994739	-1.0207984048	 0.430874
N	-3.9667100769	-1.6680406364	-2.0851381524	-0.522938
O	-3.8072013012	-1.7763046503	 0.223057876	-0.291091
N	-3.0734538909	-1.4942260543	 1.4471171822	 0.050383
N	-2.0013344775	-0.9040567254	 1.3718116412	-0.153288
H	-0.1322310863	 1.5384960039	-1.1122986404	 0.295814
H	 0.6332627383	-0.4945684332	 0.6762774479	 0.151917
H	-0.2160854347	 0.9809078786	 1.1093574474	 0.127817
H	-1.6247780598	-0.4281913077	-1.960409655	 0.15044
H	-4.838112962	-2.1587313297	-1.877868985	 0.232871
82.9432	124.9777	161.9674	183.2101	317.4887	343.1695	377.6314	436.4182	519.5326	565.198	600.1524	698.867	730.8208	780.4691	869.9812	904.051	933.7732	972.2824	997.4337	1093.6077	1100.4788	1171.6927	1207.6769	1267.458	1327.2406	1393.7228	1414.6122	1478.7414	1620.1448	1688.9004	1745.8284	2997.8474	3057.7427	3235.2798	3481.8686	3815.8165
OCC1=CC(=N)ON=N1	OCC1=N[N]OC(=C1)[NH]	
InChI=1S/C4H5N3O2/c5-4-1-3(2-8)6-7-9-4/h1,5,8H,2H2	InChI=1S/C4H5N3O2/c5-4-1-3(2-8)6-7-9-4/h1,5,8H,2H2
