19
gdb 110982	2.45425	1.32267	1.2603	1.9416	72.28	-0.2408	0.0757	0.3165	1130.8352	0.157578	-460.094095	-460.084967	-460.084023	-460.12769	34.356	
C	 0.334985035	 1.1017250818	-0.3652698723	-0.249569
O	-0.3764243953	 0.139629731	 0.3910453961	-0.26439
C	 0.4245902257	-0.5085289624	 1.3350924915	 0.139768
C	-0.224332666	-1.7244731934	 2.0424105771	-0.166436
C	-0.0768826842	-2.5147774345	 0.7096902865	-0.309533
C	 1.2711900628	-1.7454057755	 0.8984458183	 0.333678
O	 2.3577076321	-1.6683522175	 0.0493622977	-0.472114
C	 1.2254823042	-2.2025609167	 2.3819891067	 0.066544
O	 2.0297074975	-1.4770314228	 3.2743309929	-0.437035
H	 1.1329099934	 0.6406078171	-0.9615284495	 0.129454
H	-0.3845039637	 1.5820217596	-1.0327663203	 0.121332
H	 0.784702977	 1.868838944	 0.2837452473	 0.105427
H	 0.9441827693	 0.2085943779	 1.9782442646	 0.083372
H	-1.0860679799	-1.7140989956	 2.7053253168	 0.080851
H	-0.0360737962	-3.6053517842	 0.7888222049	 0.081574
H	-0.7061254323	-2.1787029359	-0.1105685137	 0.123178
H	 2.7070624314	-2.5552544147	-0.0918674325	 0.283909
H	 1.3161655576	-3.2864604684	 2.5367497813	 0.063409
H	 1.7635974216	-1.69996992	 4.1716643766	 0.28658
83.8505	158.4007	171.0468	198.8398	239.4389	246.7968	276.3367	357.6796	378.4901	439.5632	478.1543	564.076	658.4338	677.3532	772.6862	852.399	876.8083	942.9514	953.5196	982.5081	1043.6394	1049.1564	1073.1542	1112.6099	1138.5155	1156.7889	1166.4613	1182.9323	1195.101	1214.0652	1233.5889	1245.5647	1273.5317	1332.2356	1358.8933	1407.2998	1442.9394	1481.4619	1488.3772	1510.0956	1518.9817	2986.0274	3008.3239	3050.3969	3061.0344	3065.7081	3116.7994	3149.7102	3173.4214	3801.1746	3821.2854
COC1C2CC1(O)C2O	CO[C@H]1[C@H]2C[C@]1(O)[C@H]2O	
InChI=1S/C6H10O3/c1-9-5-3-2-6(5,8)4(3)7/h3-5,7-8H,2H2,1H3	InChI=1S/C6H10O3/c1-9-5-3-2-6(5,8)4(3)7/h3-5,7-8H,2H2,1H3/t3-,4-,5-,6-/m0/s1
