17
gdb 16353	2.60897	2.27257	1.42407	3.7419	69.72	-0.2432	0.0338	0.277	907.9578	0.141927	-363.877257	-363.869314	-363.868369	-363.909467	29.538	
C	-0.0657572327	 1.5783297344	-0.015885874	-0.396886
C	 0.0450150279	 0.0624140113	 0.0167316272	-0.010058
N	 1.1543128444	-0.5059165529	-0.7758497482	-0.366086
C	 1.7617717951	-1.1598218419	 0.2768334116	 0.407373
O	 2.7140175918	-1.8908298877	 0.3555195297	-0.376608
C	 0.7312814151	-0.5931857115	 1.2363152251	 0.173686
C	 0.9812024185	-0.0647228883	 2.6186092032	-0.31917
C	 0.1489774936	-1.3040839324	 2.4226529189	-0.320225
H	 0.8910825684	 2.0417750895	 0.2403695858	 0.127436
H	-0.3645093142	 1.9283148789	-1.0097034955	 0.118555
H	-0.8233682444	 1.9230602932	 0.6962137135	 0.120104
H	-0.9197226919	-0.4018638719	-0.2243998029	 0.086311
H	 1.2740391153	-0.6082023575	-1.7725109086	 0.246442
H	 1.9852132125	-0.1737040684	 3.0146142511	 0.135612
H	 0.4741438538	 0.8500276749	 2.908006228	 0.118785
H	-0.9219738172	-1.2322179344	 2.5819635372	 0.118355
H	 0.5858839243	-2.2634359954	 2.6792253979	 0.136372
83.0359	171.3412	196.6767	211.9599	236.1838	309.1674	369.1042	500.4233	520.5683	624.4089	728.9219	746.4445	777.78	823.4835	891.9697	924.2292	954.3532	998.9555	1053.5323	1068.7898	1073.2162	1084.2301	1133.9247	1159.3752	1194.4816	1209.1774	1281.9183	1356.7674	1383.4074	1404.2732	1411.2314	1457.4987	1488.874	1492.3203	1501.7739	1889.1261	3022.1787	3034.0684	3098.9201	3119.2583	3129.1157	3131.0639	3210.6143	3224.6196	3616.0271
CC1NC(=O)C11CC1	C[C@H]1NC(=O)C21CC2	
InChI=1S/C6H9NO/c1-4-6(2-3-6)5(8)7-4/h4H,2-3H2,1H3,(H,7,8)	InChI=1S/C6H9NO/c1-4-6(2-3-6)5(8)7-4/h4H,2-3H2,1H3,(H,7,8)/t4-/m1/s1
