15
gdb 50965	1.80435	1.24051	0.80535	2.931	68.15	-0.2729	-0.0592	0.2138	1355.5597	0.110201	-453.975402	-453.966013	-453.965069	-454.011516	31.245	
O	-0.1472894937	 0.8762995977	 1.187332924	-0.211079
C	 0.0806433434	 1.3153198502	 0.0948286379	 0.149995
C	 1.429800767	 1.9079578657	-0.3162485597	-0.280089
N	 1.3164077367	 2.884568311	-1.3791380483	-0.056017
C	 0.7746196548	 4.2021792373	-1.0794538959	-0.309856
C	 1.6168514618	 4.9479734969	-0.1339574459	 0.273776
N	 2.2782263589	 5.5130288383	 0.6258349112	-0.295451
C	 1.7575297839	 2.6363617624	-2.6570276275	 0.166951
O	 1.6903492172	 3.4184948575	-3.5755583891	-0.318662
H	-0.6766041435	 1.3037127978	-0.7237098789	 0.093034
H	 1.9258549284	 2.3259895311	 0.5665088552	 0.167354
H	 2.0507978836	 1.0771208702	-0.6753349792	 0.156308
H	 0.7171707995	 4.7408270518	-2.0298905273	 0.202718
H	-0.2373618685	 4.1276730371	-0.6634843254	 0.164789
H	 2.1813726205	 1.6191241649	-2.7510261413	 0.09623
43.0371	58.6026	70.9869	125.5412	181.9089	291.2902	308.24	352.9518	375.0412	391.66	441.228	593.8366	693.3131	761.7481	874.9549	945.0824	996.7527	1030.9688	1032.6827	1069.699	1207.7696	1220.595	1298.9547	1335.7335	1373.1339	1407.5002	1419.3152	1435.6642	1456.7017	1462.196	1804.6161	1849.2158	2364.8673	2867.4319	2962.7956	3035.1173	3038.6529	3087.5538	3105.2574
O=CCN(CC#N)C=O	O=CCN(CC#N)C=O	
InChI=1S/C5H6N2O2/c6-1-2-7(5-9)3-4-8/h4-5H,2-3H2	InChI=1S/C5H6N2O2/c6-1-2-7(5-9)3-4-8/h4-5H,2-3H2
