15
gdb 133195	3.09402	1.38659	0.96318	2.3151	74.9	-0.2134	-0.0525	0.1609	1145.1613	0.112967	-458.110646	-458.102821	-458.101877	-458.142992	29.622	
C	-0.0325316295	 1.4970827365	-0.0200348503	-0.480615
C	-0.0076232646	-0.0019956565	-0.0141104723	 0.219901
N	-0.0381505154	-0.6425865488	-1.1436956619	-0.236001
N	-0.0147773584	-1.9861061164	-1.1071046607	-0.315081
C	 0.0398330035	-2.8301030245	 0.0146724997	 0.404579
N	 0.0597520058	-4.1123957299	-0.0187582824	-0.562854
C	 0.0729179983	-2.0842767421	 1.2597643012	-0.275345
C	 0.0495599235	-0.7405770103	 1.2240007869	 0.274782
F	 0.0783239407	-0.0171538065	 2.3434178212	-0.063289
H	 0.8586327571	 1.9089924209	 0.4657471527	 0.141829
H	-0.0753073444	 1.8549047853	-1.0494026189	 0.145484
H	-0.8997611067	 1.8800336113	 0.5286988339	 0.141834
H	-0.0409762071	-2.4121173438	-2.021602096	 0.264803
H	 0.0308175533	-4.4672918009	-0.9757814391	 0.197986
H	 0.115757474	-2.6394910042	 2.1869413061	 0.141988
102.7168	160.5034	207.5154	272.1149	314.3607	353.3997	413.015	463.8852	527.2498	556.8904	596.7843	678.8509	728.3379	732.5799	775.0744	784.6624	913.3596	938.2693	1014.1315	1060.8136	1119.7584	1191.0248	1223.1269	1242.6918	1347.3923	1414.4603	1435.2249	1455.3158	1477.1665	1484.2683	1606.2439	1677.1245	1725.4545	3039.4889	3091.9094	3149.3667	3235.2232	3460.8337	3616.2074
CC1=NNC(=N)C=C1F	CC1=NNC(=C[C@@H]1F)[NH]	
InChI=1S/C5H6FN3/c1-3-4(6)2-5(7)9-8-3/h2H,1H3,(H2,7,9)	InChI=1S/C5H7FN3/c1-3-4(6)2-5(7)9-8-3/h2,4,7,9H,1H3/t4-/m0/s1
