22
gdb 60285	4.3643	0.72338	0.64716	2.2901	87.62	-0.2471	0.0296	0.2767	1803.3625	0.192964	-404.353681	-404.343587	-404.342643	-404.3902	36.275	
C	-0.0267808658	 1.6211653698	-0.0617904236	-0.376093
C	-0.083242009	 0.0973057244	 0.0924745973	 0.049021
C	-1.5193330596	-0.4273482399	-0.0232651305	-0.389946
C	 0.82293385	-0.6071979942	-0.930986674	-0.161588
N	 2.216422532	-0.2055067415	-0.7634769437	-0.334832
C	 3.1221292049	-1.0582526927	-0.8661952287	 0.469064
C	 4.6320510876	-1.0454293454	-0.7435652137	-0.373845
C	 4.5015225594	-2.5533847652	-1.0387497649	-0.075951
O	 3.0526539372	-2.4193137464	-1.1437781086	-0.263556
H	 1.004248722	 1.977755987	-0.0058112776	 0.131239
H	-0.4378784359	 1.9284816958	-1.0317310601	 0.102666
H	-0.6121414407	 2.1189786868	 0.7185291916	 0.100924
H	 0.2988846639	-0.1600070072	 1.0902193175	 0.071518
H	-1.9369355007	-0.2114914021	-1.0144169888	 0.109843
H	-1.5670261637	-1.511185893	 0.1285725829	 0.108373
H	-2.1717871189	 0.0445286862	 0.7184963832	 0.109053
H	 0.6951110983	-1.6955072527	-0.8546915346	 0.102778
H	 0.5034360148	-0.3172977403	-1.9429623016	 0.101161
H	 5.1467701503	-0.4536606623	-1.5024032453	 0.138212
H	 5.0105336201	-0.7775709953	 0.2442256117	 0.137665
H	 4.9304636545	-2.9031653866	-1.9809417212	 0.122221
H	 4.7743853791	-3.230470255	-0.2254209272	 0.122075
21.0215	72.5261	110.917	150.3695	205.0989	218.5106	243.2281	282.9284	321.9916	412.4174	426.5108	530.4676	575.3163	759.93	789.8945	834.5648	899.8229	914.3007	930.4873	954.1145	962.4632	971.7836	1003.113	1055.987	1071.17	1118.9552	1153.1715	1159.1762	1170.2518	1198.1637	1200.8536	1240.415	1276.0059	1329.949	1349.3541	1370.7426	1387.6417	1399.9675	1420.6821	1467.9714	1482.5223	1489.2071	1495.6223	1501.8752	1513.3788	1522.0222	1847.1815	2990.8644	3006.9641	3021.5549	3026.8815	3035.727	3062.1767	3084.1407	3087.7811	3089.9103	3098.0615	3114.8113	3125.2737	3143.1382
CC(C)CN=C1CCO1	CC(C)CN=C1CCO1	
InChI=1S/C7H13NO/c1-6(2)5-8-7-3-4-9-7/h6H,3-5H2,1-2H3	InChI=1S/C7H13NO/c1-6(2)5-8-7-3-4-9-7/h6H,3-5H2,1-2H3
