22
gdb 121806	3.10739	0.77726	0.72914	4.702	83.85	-0.2716	0.0289	0.3005	1693.3549	0.190562	-404.36376	-404.352478	-404.351534	-404.401544	39.813	
C	-0.1072411261	 1.4689048215	 0.1773440552	-0.385902
C	 0.002097101	-0.0466946348	-0.0060045751	-0.177909
C	 0.7403533623	-0.4230871224	-1.2844824583	-0.055094
O	 0.7838342796	-1.8421675842	-1.3477867324	-0.2867
C	 1.4229404657	-2.4382621262	-2.4737031049	 0.215323
C	 0.6986217356	-2.119467097	-3.7968506821	-0.418587
C	 2.9220599017	-2.0874091168	-2.553751619	-0.419137
C	 1.3015476245	-3.8931114333	-2.2192550434	 0.28202
N	 1.2285991952	-5.0343859216	-2.0591151259	-0.337964
H	 0.8810583532	 1.938750207	 0.2315969716	 0.117212
H	-0.6511452344	 1.9351762993	-0.6516330051	 0.117132
H	-0.6400890525	 1.7124204252	 1.100687401	 0.122387
H	 0.5271959898	-0.4975071414	 0.8433688785	 0.112428
H	-0.9943820483	-0.5012398786	-0.0338742968	 0.112158
H	 0.2173658977	-0.0042322715	-2.1570400356	 0.09259
H	 1.754630872	 0.0027866862	-1.2714133852	 0.092897
H	 0.8315138234	-1.0678771653	-4.0628220409	 0.126222
H	 1.1068452358	-2.7280739873	-4.607590093	 0.13901
H	-0.3685169177	-2.3323596989	-3.7017868348	 0.143215
H	 3.4045839045	-2.2769906648	-1.592271081	 0.143223
H	 3.4122128874	-2.6957104196	-3.3179627115	 0.139131
H	 3.0558354995	-1.0360781355	-2.8202823712	 0.126345
17.7873	64.5354	104.2715	135.6611	186.327	194.5741	233.8943	245.3642	256.4413	303.767	354.8769	391.5669	396.7084	462.9111	584.5732	597.5279	724.5392	766.4142	864.1763	904.3786	913.0447	921.9692	966.3068	1012.8655	1049.9022	1094.1423	1142.4715	1176.9231	1190.3962	1197.351	1260.0763	1269.1596	1319.9132	1336.8546	1390.1181	1406.1355	1414.2452	1430.961	1477.2468	1483.1657	1491.3778	1496.4805	1501.4577	1501.6597	1507.808	1528.5769	2365.2402	2985.1307	3017.7818	3032.6396	3043.9226	3051.1959	3055.0415	3076.6585	3102.3667	3111.2754	3126.1983	3131.6756	3137.6518	3139.2013
CCCOC(C)(C)C#N	CCCOC(C)(C)C#N	
InChI=1S/C7H13NO/c1-4-5-9-7(2,3)6-8/h4-5H2,1-3H3	InChI=1S/C7H13NO/c1-4-5-9-7(2,3)6-8/h4-5H2,1-3H3
