15
gdb 49600	3.15136	1.50602	1.22355	3.9886	64.27	-0.2505	-0.0295	0.221	991.9014	0.112074	-457.72366	-457.716555	-457.715611	-457.755809	26.748	
O	-0.1353107513	 0.0484276611	-0.0014400548	-0.248657
C	-0.0111363828	 1.2458552848	 0.0098536365	 0.159134
C	 1.3323925427	 1.9599395404	-0.0017927349	-0.146322
C	 1.4878553125	 2.9004879612	-1.206588849	-0.000536
O	 0.513262347	 3.9404915689	-1.2958202118	-0.227249
C	 1.785731226	 4.266661791	-0.7368855707	 0.009356
C	 1.8091725562	 4.2463087867	 0.7806828134	 0.009338
O	 0.5544221328	 3.9048119766	 1.3697074633	-0.227249
C	 1.5252959184	 2.8679400145	 1.2225662645	-0.000458
H	-0.8828591565	 1.9294960132	 0.0301715603	 0.117615
H	 2.1202492027	 1.2004272426	-0.023944477	 0.103008
H	 1.8267343873	 2.4956216006	-2.1570260818	 0.116127
H	 2.3879018536	 4.9801405365	-1.2908694568	 0.109862
H	 2.4285162316	 4.9448898882	 1.334724161	 0.109864
H	 1.8930710797	 2.4376900236	 2.1508453378	 0.116168
67.0569	125.7948	210.8631	316.7526	402.4039	422.0155	508.3965	573.0193	716.0304	766.5356	815.1994	851.2194	868.541	876.7832	917.0763	953.431	954.1066	1019.7684	1046.1571	1079.5302	1090.9383	1098.3411	1120.9089	1240.4166	1250.2803	1267.7419	1270.6433	1307.2188	1342.1116	1399.9231	1416.7364	1424.8954	1825.8454	2946.2192	3075.0118	3143.7547	3146.2424	3161.8189	3174.8785
O=CC1C2OC2C2OC12	O=C[C@H]1[C@H]2O[C@H]2[C@H]2O[C@@H]12	
InChI=1S/C6H6O3/c7-1-2-3-5(8-3)6-4(2)9-6/h1-6H	InChI=1S/C6H6O3/c7-1-2-3-5(8-3)6-4(2)9-6/h1-6H/t2-,3+,4-,5+,6-
