17
gdb 77327	2.46303	1.46126	1.11465	3.5699	73.31	-0.2585	0.0083	0.2668	1115.6064	0.137109	-418.069893	-418.061263	-418.060318	-418.103624	30.902	
C	-0.0677151751	 1.3837924557	 0.1200270373	-0.35759
N	-0.0194296781	-0.0526875631	-0.0514206183	-0.056715
C	-1.1992714222	-0.8886530136	 0.0471948985	-0.148891
C	-0.6866690036	-2.2863609897	-0.4050180743	-0.241308
C	 0.8121888892	-2.2465891621	-0.0839243995	-0.336253
C	 1.166035615	-0.7601712747	-0.0853634996	 0.417399
O	 2.2692653913	-0.2646046253	-0.1016226017	-0.376163
C	-1.7515658412	-0.9033208138	 1.4199677612	 0.281673
N	-2.178248449	-0.9029614981	 2.4939979559	-0.316614
H	 0.9572217429	 1.7508976035	 0.0501549763	 0.172972
H	-0.6773941348	 1.8508789599	-0.6616608784	 0.128212
H	-0.4830615458	 1.6535253416	 1.0984575211	 0.145297
H	-1.9925973642	-0.5223366865	-0.6153772866	 0.131904
H	-1.2277945327	-3.09414725	 0.0879674348	 0.137224
H	-0.8478155506	-2.3743754955	-1.4821746814	 0.128624
H	 1.0319528278	-2.6444354417	 0.9128697381	 0.149103
H	 1.4344987213	-2.7873391265	-0.7980381533	 0.141125
74.4448	106.3253	153.0775	161.0632	210.0624	281.3095	306.2807	454.4059	483.6099	541.4078	592.19	656.206	681.0427	772.8636	829.8197	891.4715	964.103	996.5335	1038.3934	1064.367	1121.9845	1158.397	1174.8189	1213.9689	1255.6799	1285.0186	1304.5602	1338.1222	1363.0241	1413.4763	1448.7904	1470.3822	1493.3966	1496.9206	1517.39	1822.7577	2352.1488	3023.1167	3035.3348	3061.4412	3078.8274	3079.009	3127.4571	3139.2636	3149.6985
CN1C(CCC1=O)C#N	CN1[C@@H](CCC1=O)C#N	
InChI=1S/C6H8N2O/c1-8-5(4-7)2-3-6(8)9/h5H,2-3H2,1H3	InChI=1S/C6H8N2O/c1-8-5(4-7)2-3-6(8)9/h5H,2-3H2,1H3/t5-/m0/s1
