20
gdb 60789	2.37212	1.23587	1.04115	2.4444	79.31	-0.2658	-0.0462	0.2196	1239.7184	0.167333	-403.180187	-403.169519	-403.168575	-403.216078	38.071	
C	 0.0760028777	 1.592255116	 0.1590754589	-0.443351
C	-0.0020697073	 0.0649108965	 0.0394758943	-0.066017
C	-1.4596329115	-0.381062737	 0.0876254104	 0.145306
O	-1.8436875792	-1.4169269908	 0.5658940198	-0.246856
C	 0.6947512943	-0.5228290981	-1.2471888552	 0.068555
C	 0.8102975495	-2.0609080118	-1.1381003706	-0.414218
C	-0.0511026735	-0.1417784092	-2.5480392055	-0.422514
C	 2.0578536046	 0.0305096644	-1.3124730005	 0.278568
N	 3.1294264955	 0.4616201209	-1.3649322847	-0.348883
H	 1.1122762832	 1.9364358643	 0.1374524066	 0.159023
H	-0.4656830659	 2.0919038749	-0.6506888059	 0.128198
H	-0.3692692124	 1.9208962157	 1.1032117305	 0.131122
H	 0.4923754961	-0.3992951542	 0.8991657756	 0.115552
H	-2.1807863979	 0.3417970057	-0.3590164819	 0.084394
H	-0.1814678116	-2.5067525368	-1.0402366255	 0.148198
H	 1.2951946889	-2.4681259254	-2.0291345852	 0.131729
H	 1.4010313302	-2.348051883	-0.2646134115	 0.137839
H	-0.1633003711	 0.9395532089	-2.6534924732	 0.137394
H	 0.4991185922	-0.5089612802	-3.4177696414	 0.142599
H	-1.0438887315	-0.6011816908	-2.5601892748	 0.133362
39.1374	73.9275	153.0962	187.648	208.4195	239.8359	246.1021	256.2336	264.2252	319.6293	359.3308	386.2853	436.3434	512.5413	585.3828	615.7236	681.5051	846.3538	912.3768	934.8757	948.2048	969.925	1023.0831	1069.2136	1094.9253	1144.4772	1176.2684	1209.9914	1235.0888	1306.048	1340.4759	1404.1929	1414.3438	1428.2708	1434.9948	1481.3807	1487.4465	1496.7264	1500.6782	1501.3482	1511.2357	1827.0289	2348.7229	2865.5759	3042.7725	3049.3023	3053.7902	3060.8906	3107.2467	3122.2959	3127.0846	3131.1115	3134.2382	3143.1983
CC(C=O)C(C)(C)C#N	C[C@@H](C=O)C(C)(C)C#N	
InChI=1S/C7H11NO/c1-6(4-9)7(2,3)5-8/h4,6H,1-3H3	InChI=1S/C7H11NO/c1-6(4-9)7(2,3)5-8/h4,6H,1-3H3/t6-/m0/s1
