16
gdb 39707	4.4533	1.54332	1.52092	1.7509	70.06	-0.2385	0.0672	0.3057	891.2833	0.126034	-400.629996	-400.623999	-400.623055	-400.660229	25.021	
O	-0.1274053764	 1.400868046	 0.0068163401	-0.278895
C	 1.2175028648	 0.8818027344	-0.008133966	-0.288559
C	 0.0494302031	 0.0052049263	 0.0012983084	 0.508139
C	-0.4088630387	-1.0012595527	 1.0592286259	-0.199284
C	-1.8981056674	-1.2764448321	 0.763756149	-0.039814
N	-1.6789085146	-2.5580416031	 0.0118324927	-0.180777
C	-1.9131516295	-1.2724049224	-0.7285683427	-0.039816
C	-0.430148157	-0.9956083657	-1.0525433946	-0.199277
C	-0.2023530907	-2.1384144349	-0.0018958985	 0.020505
H	 1.7678515906	 1.0478445781	-0.9332006241	 0.119583
H	 1.7864011886	 1.0429167166	 0.9065237798	 0.119583
H	-0.0415289407	-1.0171601414	 2.0819614619	 0.08288
H	-2.7648046847	-1.1187390148	 1.3927192448	 0.102239
H	-2.7923492714	-1.1113344514	-1.3390605611	 0.102238
H	-0.0835118909	-1.0060196999	-2.0825458537	 0.082882
H	 0.5943861649	-2.876949653	-0.0119021916	 0.088374
141.3204	276.5435	307.5977	469.5335	598.8464	605.6713	768.2763	786.7201	794.0148	807.5257	843.0573	848.3324	887.8984	892.8726	906.2903	925.9108	938.8391	994.9494	1009.5087	1036.4498	1055.9047	1063.4528	1118.1388	1133.7907	1147.4195	1159.7558	1190.0982	1199.5696	1205.6529	1212.6558	1253.0883	1295.9681	1339.8731	1451.606	1541.696	3082.77	3149.3336	3153.8339	3161.5922	3169.5961	3192.7143	3203.9008
O1CC11C2C3N4C3C1C24	O1C[C@]21[C@H]1[C@@H]3N4[C@@H]3[C@@H]2[C@@H]14	
InChI=1S/C7H7NO/c1-7(9-1)2-4-3(7)6-5(2)8(4)6/h2-6H,1H2	InChI=1S/C7H7NO/c1-7(9-1)2-4-3(7)6-5(2)8(4)6/h2-6H,1H2/t2-,3+,4-,5+,6-,7+,8?
