13
gdb 10243	2.64602	1.95081	1.17472	1.7283	61.31	-0.2601	-0.0553	0.2047	950.6814	0.092667	-398.601739	-398.593404	-398.592459	-398.634932	29.493	
N	-0.2639244877	 1.3437049857	 0.0471956584	-0.52651
C	 0.0268776195	 0.0159032145	 0.0094773748	 0.411481
O	 1.1397878004	-0.4519118136	 0.0227115194	-0.327741
C	-1.253245343	-0.8918299276	 0.0344299633	-0.419662
C	-2.2568314602	-0.5172125458	-1.0675248294	 0.150856
O	-2.6858136601	 0.5982451452	-1.2259923476	-0.253357
C	-0.9342685108	-2.3073791426	 0.001139343	 0.345974
C	-0.7325046637	-3.4885695907	-0.0676576407	-0.422581
H	 0.5102134816	 1.9768856329	-0.0799873065	 0.264904
H	-1.1895437517	 1.6507489861	-0.219022659	 0.277476
H	-1.7594769564	-0.6401075075	 0.9781712511	 0.167111
H	-2.5712606845	-1.3597395388	-1.7132323745	 0.126084
H	-0.5260994133	-4.5296676779	-0.1118985523	 0.205965
61.5951	106.8481	139.2898	193.7818	246.6379	358.5168	436.0003	465.2197	509.1176	523.1125	599.766	629.6664	645.0052	666.3724	717.7747	752.2162	994.4489	1021.3271	1063.9418	1139.3169	1185.4943	1274.8596	1319.2507	1407.8855	1624.1339	1807.6931	1831.3605	2251.488	2953.5736	3012.3454	3502.5128	3546.8519	3688.6925
NC(=O)C(C=O)C#C	NC(=O)[C@@H](C=O)C#C	
InChI=1S/C5H5NO2/c1-2-4(3-7)5(6)8/h1,3-4H,(H2,6,8)	InChI=1S/C5H5NO2/c1-2-4(3-7)5(6)8/h1,3-4H,(H2,6,8)/t4-/m1/s1
