25
gdb 89378	2.42614	1.41264	1.12184	0.2303	92.43	-0.2466	0.0813	0.3279	1261.1367	0.228985	-352.375319	-352.36557	-352.364626	-352.408937	38.575	
C	 0.7297488494	 1.472299766	 0.0454004672	-0.398436
C	-0.0538973244	 0.1534578032	-0.0046107733	 0.020794
C	 0.2959989024	-0.7421895521	-1.2290120292	-0.284788
C	 1.1060579952	-1.9295828733	-0.716794987	 0.324677
C	 1.106308965	-3.1762752387	-1.571136779	-0.481994
C	 2.3264573793	-1.5910356248	 0.1129712212	-0.384514
C	 1.0243373025	-1.9386538123	 0.8030041247	 0.324676
C	 0.9337713682	-3.1954252998	 1.6375490895	-0.481994
C	 0.163263254	-0.7569234137	 1.2395023565	-0.284788
H	 1.8115413428	 1.316515344	 0.1026510868	 0.119236
H	 0.5324928818	 2.0757613467	-0.8473792943	 0.110241
H	 0.437496683	 2.0652240229	 0.9189914055	 0.110241
H	-1.1132121062	 0.4252390195	-0.0599498806	 0.071297
H	-0.6217077538	-1.1202690174	-1.6965820399	 0.089054
H	 0.8293637935	-0.1784217944	-2.0048149454	 0.090224
H	 1.5647090446	-2.9806496768	-2.5481727885	 0.114892
H	 1.6695525814	-3.9911033837	-1.1069333413	 0.111936
H	 0.0862178853	-3.5355513396	-1.7542041975	 0.110156
H	 3.1106647421	-2.3419793749	 0.1506555951	 0.09892
H	 2.6997401708	-0.5733032144	 0.139117059	 0.103909
H	 1.5440922341	-4.0050221199	 1.2267760072	 0.111936
H	 1.2846015644	-3.0117249417	 2.6603744148	 0.114892
H	-0.0998340045	-3.5562198424	 1.7058582748	 0.110156
H	 0.6100038928	-0.2027710439	 2.0746790689	 0.090224
H	-0.7990466638	-1.1399545384	 1.601439095	 0.089054
116.2672	146.3645	193.0206	200.589	221.0354	253.6042	272.9153	317.0734	382.7778	397.0333	425.7856	451.4393	518.3126	630.1015	692.7844	713.7966	808.0968	880.3065	894.8613	905.8719	918.7498	947.8817	957.5525	973.8046	1003.4568	1041.8206	1050.2382	1064.4859	1089.6419	1135.3174	1153.1508	1164.0379	1214.3029	1242.7724	1269.2844	1273.5863	1298.7681	1322.2151	1365.4454	1373.8434	1395.4378	1412.349	1416.2022	1424.6347	1482.1737	1483.0641	1489.941	1495.6546	1497.1047	1498.871	1501.1336	1505.5892	1517.4169	3013.9065	3014.7294	3018.7691	3021.6898	3027.4024	3037.3023	3049.4783	3056.028	3072.2284	3073.5842	3092.8014	3098.9397	3101.0685	3105.2416	3121.8327	3205.7923
CC1CC2(C)CC2(C)C1	C[C@H]1C[C@@]2(C)C[C@@]2(C)C1	
InChI=1S/C9H16/c1-7-4-8(2)6-9(8,3)5-7/h7H,4-6H2,1-3H3	InChI=1S/C9H16/c1-7-4-8(2)6-9(8,3)5-7/h7H,4-6H2,1-3H3/t7-,8-,9+
