17
gdb 69205	2.70017	1.56302	1.16611	4.6646	75.16	-0.2357	-0.0469	0.1888	1057.012	0.136374	-421.847713	-421.83998	-421.839036	-421.879664	30.547	
O	-0.0354861974	 1.3739472384	 0.1904387053	-0.468708
C	 0.0286216891	-0.0116253246	-0.0088692059	 0.397431
C	-0.6068143457	-0.5682044663	-1.2433980094	-0.352785
C	-1.3000123271	-0.7205679183	 0.1161144067	-0.190584
C	-1.3607033725	-2.0785080969	 0.7322834387	 0.408716
O	-2.4138447704	-2.5843226993	 1.0717430953	-0.349354
C	-0.0669571616	-2.7743336962	 0.9253826681	-0.178557
C	 1.1090804073	-2.14021966	 0.860557809	-0.039065
C	 1.2646410556	-0.6741200147	 0.572220094	-0.352473
H	 0.5689265516	 1.7934561307	-0.4323673278	 0.284486
H	-1.063704415	 0.1387082416	-1.9260723886	 0.126229
H	-0.1881725755	-1.4585175926	-1.7001969544	 0.125294
H	-2.1784885125	-0.1074018691	 0.2760695188	 0.118339
H	-0.1351260381	-3.8239924994	 1.1920616801	 0.111132
H	 2.0263211061	-2.6862165311	 1.0699071583	 0.110044
H	 2.1250223535	-0.5183094375	-0.0943072544	 0.111268
H	 1.5200921628	-0.1564725148	 1.5080346564	 0.138586
111.0551	171.9597	272.3053	288.7577	343.162	364.3006	411.4544	450.0675	499.2544	515.5211	656.4766	665.2557	729.8642	788.6776	872.6764	892.3127	922.5399	949.6883	975.9572	993.3519	1009.1439	1032.8484	1062.8375	1098.5992	1167.899	1176.5034	1247.4041	1253.3482	1289.7788	1338.7977	1366.3824	1399.3274	1409.9452	1463.4284	1483.1272	1686.4997	1768.1604	3003.414	3029.2096	3135.844	3152.373	3192.966	3196.1332	3231.3516	3791.4208
OC12CC1C(=O)C=CC2	O[C@]12C[C@H]1C(=O)C=CC2	
InChI=1S/C7H8O2/c8-6-2-1-3-7(9)4-5(6)7/h1-2,5,9H,3-4H2	InChI=1S/C7H8O2/c8-6-2-1-3-7(9)4-5(6)7/h1-2,5,9H,3-4H2/t5-,7+/m0/s1
