27
gdb 59640	3.0909	0.92588	0.75588	0.0885	96.12	-0.2956	0.0798	0.3754	1649.3795	0.252384	-353.590691	-353.580114	-353.57917	-353.626317	40.331	
C	-0.0838287488	 1.5889044457	-0.045783418	-0.39037
C	-0.0544523802	 0.0538635395	 0.0051012409	 0.021027
C	-1.4858191104	-0.4992338707	 0.0672582721	-0.392732
C	 0.7424809396	-0.5350086343	-1.1723660641	 0.072306
C	 2.2313328499	-0.0784695097	-1.2285013434	-0.233015
C	 3.04948937	-1.2986802288	-1.7299894135	-0.215589
C	 2.0098540619	-2.3579469081	-2.1549806823	 0.049413
C	 2.5255263446	-3.795157359	-2.1297248918	-0.408286
C	 0.8295326675	-2.0734901538	-1.2128514939	-0.227179
H	 0.9221847772	 2.01818812	-0.039044469	 0.113753
H	-0.5890085753	 1.9380983238	-0.9548401026	 0.108372
H	-0.6276613155	 1.9995430635	 0.8115396196	 0.106378
H	 0.4634560144	-0.2438078113	 0.9301027862	 0.064353
H	-2.0373005635	-0.2601910566	-0.8505568394	 0.108388
H	-1.4999184913	-1.5857920212	 0.1907728861	 0.113369
H	-2.0382337602	-0.0616230644	 0.9056854637	 0.105948
H	 0.2483526124	-0.2089929981	-2.0999953482	 0.059947
H	 2.3551867182	 0.7916669092	-1.8791415851	 0.096555
H	 2.5737799718	 0.2293607477	-0.2341940309	 0.094332
H	 3.7379356011	-1.0440883853	-2.5414276364	 0.091049
H	 3.6630981923	-1.703432957	-0.915840309	 0.091652
H	 1.680221156	-2.1249468442	-3.1780179609	 0.066335
H	 2.8538030069	-4.0744722015	-1.1213101683	 0.109475
H	 1.7501236404	-4.5056798891	-2.4361889089	 0.108822
H	 3.3791446443	-3.9254359772	-2.8040079299	 0.109609
H	 1.0576454854	-2.4638597041	-0.2094174857	 0.085155
H	-0.0981993485	-2.5505673549	-1.5427186374	 0.090933
52.5829	81.3304	127.3729	170.8372	224.5374	235.907	243.6711	292.7856	324.4088	340.6848	410.5164	440.6977	452.69	536.4432	607.6334	778.3858	828.6	849.8382	883.3108	921.589	925.6702	928.4015	958.9691	964.9531	981.7561	1013.0021	1037.6773	1053.1942	1091.4586	1115.3941	1154.1467	1170.9464	1192.5357	1213.9606	1238.6579	1269.1575	1273.7041	1302.3771	1305.5909	1335.5029	1342.5622	1348.0784	1354.8823	1385.9156	1389.1819	1400.7315	1411.4453	1421.0495	1487.5885	1488.0374	1488.7919	1494.7092	1496.9815	1499.3597	1505.1241	1510.3033	1513.8948	2976.6819	2988.7473	2991.4942	3005.9143	3021.2697	3022.1949	3027.4534	3027.817	3043.6442	3070.0446	3078.5717	3084.0401	3087.0404	3090.6407	3091.8763	3093.7367	3105.7312	3107.4373
CC(C)C1CCC(C)C1	CC(C)[C@H]1CC[C@@H](C)C1	
InChI=1S/C9H18/c1-7(2)9-5-4-8(3)6-9/h7-9H,4-6H2,1-3H3	InChI=1S/C9H18/c1-7(2)9-5-4-8(3)6-9/h7-9H,4-6H2,1-3H3/t8-,9+/m1/s1
