16
gdb 28441	3.16545	1.38094	0.96723	0.6705	76.42	-0.2109	-0.0122	0.1987	1169.5533	0.125111	-437.967923	-437.959813	-437.958869	-438.000519	30.993	
C	-0.0172415524	 1.4870960586	 0.0861185658	-0.467439
C	 0.0075362627	-0.0144937479	-0.0143324693	 0.304569
C	-0.1359870721	-0.6849888971	-1.2225627829	-0.168068
C	-0.1042038562	-2.0828593492	-1.2494480052	-0.165018
C	 0.0705256646	-2.7738398117	-0.0656751642	 0.276767
O	 0.1096274507	-4.1316848227	-0.0300005119	-0.444571
C	 0.2063293997	-2.0042569821	 1.103154018	 0.309327
O	 0.3779205521	-2.6968354789	 2.2627496263	-0.447245
N	 0.1780314763	-0.6918708948	 1.1401077533	-0.402914
H	 0.9180100066	 1.8626024701	 0.5148891575	 0.134067
H	-0.1588117775	 1.9501191815	-0.8933420562	 0.118331
H	-0.8261676476	 1.8183438529	 0.7460255615	 0.134069
H	-0.2721987427	-0.1271525316	-2.1418130896	 0.093615
H	-0.2132458566	-2.6358451308	-2.1757292276	 0.113213
H	 0.2384700748	-4.3954572139	 0.8895803195	 0.310078
H	 0.4546159776	-2.0378817823	 2.9655276647	 0.301218
83.2955	138.0741	235.71	296.8015	304.2675	361.5913	395.5943	454.2572	475.7009	508.44	528.4064	596.3127	638.3786	731.7772	776.3822	797.8561	846.0051	954.1593	961.2548	1026.3151	1059.6513	1120.8827	1177.4949	1209.0823	1276.69	1292.9026	1338.6811	1409.41	1425.355	1469.8648	1476.4785	1498.1028	1525.4106	1652.5639	1657.212	3036.013	3091.7772	3123.3823	3188.5726	3203.7854	3780.6833	3792.9749
CC1=CC=C(O)C(O)=N1	Cc1ccc(O)c(O)n1	
InChI=1S/C6H7NO2/c1-4-2-3-5(8)6(9)7-4/h2-3,8H,1H3,(H,7,9)	InChI=1S/C6H7NO2/c1-4-2-3-5(8)6(9)7-4/h2-3,8H,1H3,(H,7,9)
