21
gdb 63087	2.52958	1.39407	1.21031	3.2413	83.	-0.2319	-0.0098	0.2221	1156.7027	0.182469	-387.122069	-387.113192	-387.112248	-387.15524	34.412	
C	-0.1562433935	 1.5202055094	 0.1453849061	-0.465534
C	 0.0069922282	 0.0174963911	 0.0018915268	 0.322378
C	-1.0764302784	-0.7567152042	 0.7379638313	-0.44667
C	 0.5446224476	-0.6286300344	-1.2401521165	-0.092642
C	 1.2757207005	 0.2260094624	-2.2833728103	-0.248964
C	 2.5227234752	 0.8140566832	-1.5854819643	-0.333448
C	 2.6118286073	 0.1480138082	-0.2008425968	 0.405036
O	 3.5611773242	 0.2228668315	 0.5407926369	-0.332218
C	 1.3812885459	-0.6680374887	 0.0334284458	-0.200274
H	 0.592615551	 2.0987713024	-0.3965162881	 0.122164
H	-1.1407714852	 1.8272800844	-0.2268626827	 0.118185
H	-0.0990999205	 1.8121025989	 1.1997369575	 0.126879
H	-2.0682185857	-0.4872611246	 0.3563678885	 0.117932
H	-0.9529713226	-1.8370733618	 0.6194113939	 0.116946
H	-1.0598832111	-0.5313508495	 1.8101048333	 0.122812
H	 0.0488192994	-1.5276827185	-1.5916091349	 0.086308
H	 1.5759840784	-0.4147996339	-3.1172065584	 0.110731
H	 0.625730555	 1.0013335423	-2.7017236422	 0.107106
H	 3.4491933237	 0.5994690392	-2.1256277005	 0.131337
H	 2.4899948595	 1.9014311038	-1.4628838997	 0.132629
H	 1.4877989813	-1.5420872112	 0.6651131942	 0.099308
94.3282	156.7293	183.6312	194.9422	227.8205	261.4919	355.4913	391.4429	435.123	473.2335	555.2888	603.676	667.9114	688.9837	783.6893	826.7214	845.8411	897.1462	946.907	969.0803	981.7235	1001.2398	1028.0545	1032.0509	1062.1151	1107.1318	1147.0335	1161.7331	1197.0954	1202.6947	1245.2647	1266.6485	1304.5914	1325.8077	1327.6153	1408.7953	1414.8498	1432.2236	1458.2613	1481.5197	1490.6011	1499.4397	1506.4368	1513.0357	1823.3239	3024.7854	3033.8152	3047.7277	3061.2188	3080.6521	3085.0554	3088.9353	3102.4207	3106.4942	3140.5303	3159.2988	3185.0222
CC1(C)C2CCC(=O)C12	CC1(C)[C@H]2CCC(=O)[C@@H]12	
InChI=1S/C8H12O/c1-8(2)5-3-4-6(9)7(5)8/h5,7H,3-4H2,1-2H3	InChI=1S/C8H12O/c1-8(2)5-3-4-6(9)7(5)8/h5,7H,3-4H2,1-2H3/t5-,7-/m0/s1
