16
gdb 32484	5.04009	0.91548	0.78159	5.7421	81.92	-0.1996	-0.0515	0.1481	1408.574	0.125128	-434.108739	-434.100229	-434.099285	-434.142174	30.731	
C	 0.1246963282	 1.3957834111	 0.1478663978	-0.328384
N	-0.170151553	 0.0037473341	-0.1226036651	-0.376472
C	 0.5198580253	-0.6524389486	-1.1184640686	 0.343582
C	 1.2155129505	-0.1081598215	-2.1967109417	-0.179728
N	 1.6630071558	-1.1911300517	-2.9052498721	-0.271235
C	 1.2501624204	-2.3198356177	-2.2540217889	 0.258172
C	 1.588312991	-3.6412379952	-2.7705791948	 0.084295
O	 1.2798568238	-4.6980329004	-2.2729250511	-0.26267
N	 0.5556295601	-2.0096544375	-1.1647523437	-0.348219
H	 1.1864767861	 1.5858407699	 0.3737172377	 0.112701
H	-0.1523182988	 2.0139054328	-0.7141597748	 0.12955
H	-0.4763367617	 1.7308181111	 0.9956584554	 0.132179
H	-0.3185299581	-0.5813952114	 0.6861178767	 0.249642
H	 1.4134228411	 0.9039426862	-2.5036494529	 0.134485
H	 2.2078734501	-1.1610116474	-3.7516883362	 0.272263
H	 2.1874231891	-3.5955406637	-3.7127308878	 0.049837
80.426	142.4141	156.5872	171.4257	229.7024	248.3868	379.346	456.5777	482.9637	533.4366	556.2545	665.0184	683.884	718.8646	741.5961	805.3658	991.8814	1006.5385	1032.7822	1094.3259	1120.0846	1157.4749	1179.6907	1243.6137	1303.4677	1374.7328	1435.7617	1459.5196	1464.3644	1484.3242	1488.643	1519.0946	1564.045	1617.984	1800.5018	2828.7351	2973.5433	3054.5758	3123.9167	3285.4912	3613.0891	3654.3291
CNC1=CNC(C=O)=N1	CNc1c[nH]c(C=O)n1	
InChI=1S/C5H7N3O/c1-6-4-2-7-5(3-9)8-4/h2-3,6H,1H3,(H,7,8)	InChI=1S/C5H7N3O/c1-6-4-2-7-5(3-9)8-4/h2-3,6H,1H3,(H,7,8)
