14
gdb 62354	4.10733	1.14459	1.11666	3.3652	70.3	-0.2476	-0.0144	0.2332	1087.751	0.09907	-436.630919	-436.62289	-436.621945	-436.66331	30.564	
O	-0.0450221975	 1.325080312	 0.2703502713	-0.447464
C	-0.0209882385	-0.0589125919	 0.1069699515	 0.199102
C	 1.0744335079	-0.5776757087	-0.6739631577	 0.264675
C	 1.985073976	-0.9966536552	-1.338108733	-0.400203
C	-0.4971372323	-0.8962848266	 1.2640846283	-0.062814
N	-1.5795560007	-0.2419360192	 1.9930492947	-0.34089
C	-2.3716927401	-0.1276288272	 0.8295397478	 0.416995
O	-3.432613607	 0.3864350562	 0.6327291736	-0.33007
C	-1.3374305687	-0.8732769832	-0.0061197903	-0.316377
H	-0.2156850217	 1.7294395171	-0.5881316805	 0.29873
H	 2.796437093	-1.3638867622	-1.9175907788	 0.20394
H	 0.0717827138	-1.706582104	 1.6992810062	 0.128707
H	-1.4174284915	 0.5574281436	 2.5960476161	 0.254048
H	-1.4858882925	-1.6221223208	-0.7703335792	 0.13162
120.3914	124.7752	168.466	272.3368	292.3835	364.915	445.3467	471.7107	534.9883	578.354	614.363	622.291	683.8237	686.5173	753.0581	782.7479	850.113	876.7392	953.7984	999.9429	1027.1872	1068.4789	1121.8187	1132.1395	1232.3195	1250.3224	1296.0498	1335.8186	1388.7529	1907.1042	2233.291	3213.1159	3234.0782	3497.5892	3550.5537	3801.0667
OC1(C#C)C2NC(=O)C12	O[C@@]1(C#C)[C@H]2NC(=O)[C@@H]12	
InChI=1S/C6H5NO2/c1-2-6(9)3-4(6)7-5(3)8/h1,3-4,9H,(H,7,8)	InChI=1S/C6H5NO2/c1-2-6(9)3-4(6)7-5(3)8/h1,3-4,9H,(H,7,8)/t3-,4-,6+/m0/s1
