14
gdb 25304	3.26256	1.39094	0.97518	0.8979	72.21	-0.2326	-0.102	0.1306	1116.1701	0.101331	-436.742131	-436.73456	-436.733616	-436.774961	27.406	
O	-0.9263974245	 1.2342500681	 0.0138022699	-0.229715
C	 0.2153838245	 0.9542271907	-0.2281823221	 0.101906
C	 1.4221623435	 1.9036629928	-0.298828152	 0.339217
O	 2.4941295329	 1.4025504616	-0.561920261	-0.317608
N	 1.2606473007	 3.2603396271	-0.0681526891	-0.10326
C	 0.0945647824	 3.9747718216	 0.2429061659	-0.08227
C	 0.4363974483	 5.2836295374	 0.3780725673	-0.165793
C	 1.8522840369	 5.399184544	 0.1470324862	-0.176187
C	 2.3319251365	 4.1563870912	-0.1223848257	-0.055062
H	 0.5580062754	-0.0777440565	-0.4416532453	 0.130604
H	-0.845480593	 3.4634200741	 0.3314445901	 0.172408
H	-0.2431070125	 6.0872979507	 0.6171263053	 0.114684
H	 2.436463602	 6.3060144097	 0.179848834	 0.115529
H	 3.3160450572	 3.7862493777	-0.3501787435	 0.155546
65.703	118.0412	156.0359	210.318	286.1224	461.1069	554.8245	576.0262	612.1739	644.6905	691.1868	737.6389	777.6052	868.5694	871.2156	892.747	939.6987	1030.7215	1037.5158	1077.3863	1101.3871	1154.8223	1281.6556	1316.0916	1364.0665	1392.2914	1441.8184	1513.048	1604.5845	1772.2257	1834.951	2954.9482	3248.2422	3261.0268	3302.7186	3326.061
O=CC(=O)N1C=CC=C1	O=CC(=O)n1cccc1	
InChI=1S/C6H5NO2/c8-5-6(9)7-3-1-2-4-7/h1-5H	InChI=1S/C6H5NO2/c8-5-6(9)7-3-1-2-4-7/h1-5H
