18
gdb 31072	2.37582	1.34772	0.86933	1.4805	77.24	-0.1612	0.0652	0.2264	1309.2962	0.14611	-439.108566	-439.098671	-439.097727	-439.143613	35.271	
C	 0.0116391339	 1.4175408122	-0.0229033748	-0.239186
O	 0.0111249657	 0.007578759	-0.0301875799	-0.273136
C	-1.213612728	-0.593591502	 0.0179319885	 0.302856
C	-1.3637407359	-1.9591531268	 0.0158740294	 0.18207
C	-0.3552783524	-3.0527449143	-0.0333194879	-0.511453
N	-2.7395085628	-2.1909559558	 0.0729167982	-0.351349
C	-3.4093221566	-1.0109533673	 0.1085045166	 0.393122
O	-4.7665515742	-1.0546562192	 0.1657307597	-0.438369
C	-2.5063459231	 0.0271826076	 0.0765278318	-0.451025
H	 1.0571279476	 1.7301222084	-0.0653954261	 0.125659
H	-0.5206514774	 1.8296054086	-0.8917403407	 0.113902
H	-0.4453525501	 1.8203568715	 0.891923588	 0.113902
H	-0.391122354	-3.7038329781	 0.8509650756	 0.11632
H	-0.4702638957	-3.6969556359	-0.9158630019	 0.116241
H	 0.6426718576	-2.6106076037	-0.0762597675	 0.147024
H	-3.183937418	-3.0920323343	 0.0861537134	 0.260442
H	-5.0951809447	-0.1512171882	 0.1848118709	 0.305547
H	-2.7396982519	 1.0788645384	 0.0928049668	 0.087431
44.7342	122.5241	179.2219	190.7663	195.6989	208.7949	247.8075	255.3097	294.6944	393.9905	418.8588	549.914	582.3219	630.3121	649.1849	663.7712	703.0807	806.9455	989.4777	1044.1536	1063.6709	1079.106	1157.3444	1179.8854	1183.5593	1196.3935	1225.3691	1261.2454	1342.0774	1413.5325	1456.2309	1482.3425	1485.3748	1497.0368	1501.8924	1510.417	1547.6304	1597.3506	1670.6296	2989.8583	2999.1027	3035.026	3042.064	3122.1551	3124.6768	3261.0313	3686.2382	3852.1064
COC1=C(C)NC(O)=C1	COc1c(C)[nH]c(O)c1	
InChI=1S/C6H9NO2/c1-4-5(9-2)3-6(8)7-4/h3,7-8H,1-2H3	InChI=1S/C6H9NO2/c1-4-5(9-2)3-6(8)7-4/h3,7-8H,1-2H3
