14
gdb 17779	6.9214	1.15166	1.1058	1.9479	59.86	-0.2615	-0.002	0.2595	1035.7355	0.106206	-419.618086	-419.611244	-419.6103	-419.65019	24.596	
O	-0.1423128002	-0.0361281697	-0.0322574219	-0.268778
C	-0.0887709668	 1.1547586103	-0.0449278637	 0.170149
O	 1.0624424014	 1.8327701732	 0.1584551557	-0.20241
C	 1.0261961802	 3.2449569814	 0.1246050973	 0.165032
C	 1.842017237	 4.0323491469	 1.1807276523	 0.007254
C	 3.1581189324	 3.5563503243	 0.5184959334	-0.227251
C	 2.1746433481	 3.9983230978	-0.5926605362	 0.007266
O	 1.8015581158	 5.1688027426	 0.2331231149	-0.305571
H	-0.9533186028	 1.8228445572	-0.2202562993	 0.087065
H	 0.0250838477	 3.6367821502	-0.0706548206	 0.107615
H	 1.611575008	 4.2343677238	 2.2260715305	 0.107049
H	 4.0079075273	 4.2230876025	 0.6650771338	 0.116764
H	 3.4128407788	 2.4982984804	 0.5865646547	 0.128769
H	 2.339899813	 4.1598467691	-1.6572069709	 0.107049
41.9419	146.5186	163.163	358.1497	364.3419	453.2513	566.9507	739.5898	740.895	825.8671	878.0692	908.7207	921.0656	957.6952	1015.4938	1043.2828	1060.2667	1095.8033	1104.5164	1156.6529	1176.2741	1183.7609	1197.7574	1224.1213	1260.2213	1293.6983	1367.9213	1439.1362	1484.2193	1871.9489	2959.9958	3087.7001	3094.5288	3130.3023	3136.1923	3169.0106
O=COC1C2CC1O2	O=CO[C@H]1[C@H]2C[C@@H]1O2	
InChI=1S/C5H6O3/c6-2-7-5-3-1-4(5)8-3/h2-5H,1H2	InChI=1S/C5H6O3/c6-2-7-5-3-1-4(5)8-3/h2-5H,1H2/t3-,4+,5+
