17
gdb 12929	3.47081	1.7431	1.42992	0.7699	64.67	-0.2109	0.0732	0.2841	919.7035	0.141266	-400.922046	-400.913893	-400.912949	-400.954472	29.914	
C	 0.1745369333	 0.9497850904	-0.4322310636	-0.232256
O	-0.1569371926	 0.0427435587	 0.6055140948	-0.240624
C	-1.3554331281	-0.6211864089	 0.3865437807	 0.058537
C	-1.5619175297	-1.6491007486	-0.7034733246	-0.143744
N	-0.2743980729	-2.3149799114	-0.9815016163	-0.3221
C	-0.2445942075	-2.8372442811	 0.4317871326	-0.231106
C	-1.5169267392	-2.0525517605	 0.7792403033	 0.30107
O	-2.4959865655	-2.518836225	 1.6363365119	-0.459641
H	 1.1231852341	 1.4158856488	-0.1556526128	 0.123469
H	 0.2911641591	 0.4259202855	-1.3883808216	 0.13071
H	-0.5875569212	 1.7363043615	-0.5411108645	 0.098582
H	-2.2555516746	-0.0253422104	 0.5660625047	 0.084111
H	-2.3609194189	-1.5898725874	-1.433489623	 0.096987
H	-0.4210791971	-3.088439652	-1.6225025926	 0.223688
H	-0.4263108385	-3.9140979059	 0.4868925883	 0.109054
H	 0.6674841992	-2.5794802806	 0.9772170632	 0.114191
H	-2.4378112699	-2.0256446632	 2.4623465097	 0.289071
92.7028	162.6999	173.0014	203.4619	252.0436	283.6633	323.8294	384.898	503.0438	625.4188	636.243	785.9209	826.9352	864.7028	919.1279	946.1313	987.0604	1012.2371	1018.9361	1049.1512	1102.161	1152.3006	1153.0107	1181.5262	1219.5856	1236.7144	1254.6011	1278.5204	1335.0993	1346.1942	1369.4581	1460.4239	1485.6507	1488.2248	1501.9717	1510.113	2987.9336	3053.0027	3061.7804	3065.2495	3109.3119	3120.2847	3181.2741	3513.4584	3789.5142
COC1C2NCC12O	CO[C@H]1[C@H]2NC[C@@]12O	
InChI=1S/C5H9NO2/c1-8-4-3-5(4,7)2-6-3/h3-4,6-7H,2H2,1H3	InChI=1S/C5H9NO2/c1-8-4-3-5(4,7)2-6-3/h3-4,6-7H,2H2,1H3/t3-,4+,5+/m1/s1
