19
gdb 49628	3.36331	1.4125	1.22724	3.1096	79.38	-0.2433	-0.0218	0.2215	1056.1071	0.161562	-385.862004	-385.855046	-385.854102	-385.89378	28.176	
O	 0.0882197625	-0.0716939793	-0.0404284824	-0.262271
C	 0.0698770115	 1.1019484136	 0.2382903888	 0.129537
C	 1.2796541511	 1.9970261543	 0.1664953211	-0.035512
C	 1.2635315549	 3.0875212959	-0.9439806806	-0.071354
C	 0.0160445469	 3.9442043059	-0.5915472752	-0.248926
C	 0.8445193194	 4.3253883929	 0.6410379157	-0.019834
C	 2.150048458	 4.1905220799	-0.2058713646	-0.023281
C	 2.8647202225	 3.5688775611	 1.0008925564	-0.242579
C	 1.4503028129	 3.0179615593	 1.3254489613	-0.078364
H	-0.8712655171	 1.5796543626	 0.5912248382	 0.075354
H	 2.1483449466	 1.3396142298	 0.0700401244	 0.089595
H	 1.469155526	 2.7602338847	-1.9621171084	 0.076095
H	-0.0757610359	 4.802371549	-1.2640847291	 0.103079
H	-0.9606267598	 3.4653087674	-0.4896370264	 0.096249
H	 0.6350311013	 5.176059364	 1.2881637265	 0.070845
H	 2.5534177742	 4.9956616674	-0.8189570898	 0.072658
H	 3.6788830434	 2.8517512059	 0.8574688787	 0.096452
H	 3.1767931681	 4.3468924602	 1.703928819	 0.100703
H	 1.1697810036	 2.7053369255	 2.3310215763	 0.071554
59.6334	164.3564	289.4781	388.0929	415.2798	452.6656	509.0446	679.1976	710.5942	778.607	805.715	835.0749	842.9518	902.3713	926.4255	945.6023	952.9003	995.5531	1007.1275	1010.9552	1025.2174	1042.3442	1072.2707	1076.3113	1116.7098	1144.785	1155.3509	1191.4072	1200.1355	1214.1276	1237.6883	1254.9467	1269.2171	1281.3983	1293.5688	1312.842	1337.5091	1437.3603	1501.2722	1509.7462	1820.275	2876.1431	3045.3338	3056.9715	3071.9543	3101.1755	3107.0935	3115.0427	3119.2522	3125.6751	3132.8248
O=CC1C2CC3C2CC13	O=C[C@H]1[C@H]2C[C@@H]3[C@H]2C[C@H]13	
InChI=1S/C8H10O/c9-3-8-6-1-4-5(6)2-7(4)8/h3-8H,1-2H2	InChI=1S/C8H10O/c9-3-8-6-1-4-5(6)2-7(4)8/h3-8H,1-2H2/t4-,5-,6+,7+/m1/s1
