18
gdb 70110	2.42515	1.6496	1.23126	2.0357	82.38	-0.2295	0.0079	0.2374	1070.1807	0.147064	-364.759565	-364.751243	-364.750298	-364.792139	32.607	
C	-0.1075170326	 1.4671675861	-0.0135376602	-0.493885
C	 0.0853863971	-0.0246925637	 0.0400144402	 0.319089
N	-0.7130741772	-0.8434930476	 0.9708641791	-0.354903
C	 0.7702126942	-0.7592605794	 1.1384714176	-0.148554
C	 1.4610182172	-1.9277060104	 0.5199570679	-0.050321
C	 1.2370790294	-1.966988543	-0.7928035907	-0.09066
C	 0.4165091137	-0.7715086463	-1.2734920126	-0.254044
C	-0.7535466706	-1.124426591	-2.0699865704	 0.355249
C	-1.7109969865	-1.3995237905	-2.7423272445	-0.482242
H	 0.7454451627	 1.9619352379	-0.490905969	 0.12421
H	-1.0054577166	 1.7208970056	-0.5885643803	 0.137423
H	-0.2196010249	 1.886521195	 0.9917762603	 0.113889
H	-1.1537691519	-0.213226168	 1.6406506624	 0.223264
H	 1.1706614541	-0.2558702962	 2.0124991855	 0.088892
H	 2.0266825278	-2.6572785842	 1.0867692563	 0.104029
H	 1.5591790273	-2.7410687645	-1.4783799452	 0.109688
H	 1.0583471558	-0.1215092754	-1.8891482602	 0.106034
H	-2.5628502089	-1.6521492244	-3.3233662062	 0.192841
98.2907	127.3053	199.6551	237.3352	300.5492	359.0997	363.0319	487.9764	519.8704	539.9198	609.4467	617.6593	636.9942	721.643	757.3353	817.8714	860.852	888.9353	915.7384	951.7986	971.4902	993.6962	1039.1972	1057.3127	1062.9597	1115.0944	1124.1122	1167.6071	1241.4208	1279.5016	1296.0994	1343.2318	1368.8208	1412.139	1434.8185	1483.7107	1499.3058	1671.1197	2237.3309	2977.5339	3025.0995	3090.0532	3098.2101	3163.6533	3197.6685	3222.3275	3463.8704	3504.8718
CC12NC1C=CC2C#C	C[C@]12N[C@H]1C=C[C@H]2C#C	
InChI=1S/C8H9N/c1-3-6-4-5-7-8(6,2)9-7/h1,4-7,9H,2H3	InChI=1S/C8H9N/c1-3-6-4-5-7-8(6,2)9-7/h1,4-7,9H,2H3/t6-,7+,8-/m1/s1
