18
gdb 90541	4.23948	1.0696	0.98375	2.1998	78.54	-0.2192	0.0319	0.251	1224.261	0.146851	-401.85672	-401.848281	-401.847337	-401.890496	32.258	
O	-0.2280008767	 1.4319873889	 0.8466628203	-0.425936
C	 0.0678290922	 0.2152565835	 0.1965555108	 0.098648
C	 0.3411628412	-1.0268090562	 1.0960752141	-0.210495
N	-0.8997942493	-1.7102951195	 0.6113900657	-0.137351
C	-2.1081292435	-1.3627686159	 1.4562661348	-0.158286
C	-2.5173686412	-0.2333417374	 0.4548588568	-0.262889
C	-1.2034649715	-0.5236501549	-0.2873937921	 0.012812
C	-3.0466105958	-2.4548620628	 1.6407074472	 0.318731
C	-3.8448004674	-3.3415538908	 1.7901727795	-0.421203
H	 0.5941318985	 1.806353296	 1.1788240756	 0.287759
H	 0.8152569987	 0.3620785603	-0.5943998036	 0.071492
H	 1.2405141857	-1.5947778531	 0.8375652498	 0.104342
H	 0.350822439	-0.8139840556	 2.1709831636	 0.102328
H	-1.8176875802	-0.9678223782	 2.4376543992	 0.1008
H	-3.4079619979	-0.4764415177	-0.1250252049	 0.115985
H	-2.6130678076	 0.7637727673	 0.8834026632	 0.131052
H	-1.2646828365	-0.7119233041	-1.3619533244	 0.078667
H	-4.5411409678	-4.1318598597	 1.9237136244	 0.193544
27.0282	131.9608	170.9758	262.3732	265.6212	346.6089	399.1909	467.4289	489.5277	528.7327	611.9849	649.8321	683.3198	762.0394	791.7781	833.2998	866.3518	901.9282	950.2326	988.666	1018.6852	1033.3215	1049.1344	1092.316	1119.9855	1155.5319	1193.5271	1213.0238	1228.4734	1246.2987	1263.4349	1291.4663	1309.046	1342.9008	1363.8281	1423.4851	1476.3597	1485.1752	2234.6597	3006.5825	3021.5011	3030.7475	3073.7111	3085.1695	3094.2228	3155.7599	3504.6792	3818.1532
OC1CN2C(CC12)C#C	O[C@H]1CN2[C@@H](C[C@@H]12)C#C	
InChI=1S/C7H9NO/c1-2-5-3-6-7(9)4-8(5)6/h1,5-7,9H,3-4H2	InChI=1S/C7H9NO/c1-2-5-3-6-7(9)4-8(5)6/h1,5-7,9H,3-4H2/t5-,6+,7+/m1/s1
