15
gdb 50892	4.9474	0.69165	0.64635	1.7354	72.22	-0.2713	-0.0008	0.2706	1675.6566	0.110704	-453.946513	-453.936988	-453.936044	-453.982654	32.563	
N	-0.3192757325	 1.2492320273	-0.0986213944	-0.42891
C	-0.1850589065	 0.0309184515	 0.183547382	 0.121715
O	-1.09714178	-0.8515107119	-0.3324759641	-0.231577
C	-0.9344018156	-2.1842210464	-0.0127575352	 0.55171
O	-0.0564003319	-2.6247533894	 0.6896303371	-0.397866
N	-1.9082888689	-2.893967429	-0.6294821558	-0.360733
C	-2.0722161394	-4.3219907607	-0.4024925336	-0.298648
C	-3.381825353	-4.6574237949	 0.1511925732	 0.291141
C	-4.4701291727	-4.9272750465	 0.5814915298	-0.438547
H	 0.4213149511	 1.7876315773	 0.348094195	 0.238518
H	 0.5705959678	-0.4587718668	 0.7982133286	 0.145558
H	-2.6203934461	-2.383832085	-1.1270385464	 0.270702
H	-1.9157069973	-4.8730875968	-1.3388246005	 0.146481
H	-1.2719400658	-4.6174608267	 0.282507211	 0.181258
H	-5.4259540292	-5.170863922	 0.9756214133	 0.209199
28.2398	57.0776	114.8217	128.5749	175.5239	227.1819	310.9608	325.759	403.2643	497.4852	511.6516	598.6643	626.9163	676.7146	763.056	770.4572	847.9994	944.9855	950.1022	1024.2617	1064.2357	1070.3017	1154.211	1232.6706	1269.4586	1280.788	1380.8218	1389.1366	1479.7917	1536.7496	1751.0586	1835.8839	2244.4475	3022.8486	3094.7727	3138.5066	3504.0961	3511.5645	3648.1896
N=COC(=O)NCC#C	[NH][CH]OC(=O)NCC#C	
InChI=1S/C5H6N2O2/c1-2-3-7-5(8)9-4-6/h1,4,6H,3H2,(H,7,8)	InChI=1S/C5H6N2O2/c1-2-3-7-5(8)9-4-6/h1,4,6H,3H2,(H,7,8)
