17
gdb 37335	3.347	1.85692	1.78371	3.0211	68.22	-0.2508	0.0812	0.3321	834.4331	0.139124	-421.774184	-421.768397	-421.767453	-421.803961	25.428	
C	-0.020471424	 1.5310248076	 0.1301865673	-0.310176
C	 1.3015691618	 0.8149847218	-0.0193728772	-0.039823
C	 0.0016519579	 0.0268163255	-0.0103227043	-0.039825
C	 0.0344090002	-0.6462717498	-1.4079447203	 0.004543
O	 1.4369892691	-0.8925043349	-1.5912224472	-0.238276
C	 1.8689832219	 0.4660842659	-1.4207191607	 0.004545
C	 1.0257549524	 1.1905040927	-2.4855136885	 0.022337
O	 0.6620802934	 0.3625992599	-3.589304082	-0.235794
C	-0.2288973361	 0.4297614394	-2.4767887655	 0.02234
H	-0.2436689274	 1.9105474176	 1.1230523873	 0.112994
H	-0.405463485	 2.1568773939	-0.6634432751	 0.11884
H	 1.9832259371	 0.780259289	 0.8217452791	 0.096199
H	-0.2741496382	-0.5884352854	 0.8374629308	 0.096199
H	-0.5202021014	-1.5795015764	-1.491240326	 0.085236
H	 2.9519956091	 0.5257960199	-1.5154218424	 0.085237
H	 1.1014366848	 2.2576242051	-2.6650571157	 0.107711
H	-1.2118816456	 0.8549709482	-2.6489730296	 0.107712
291.0952	291.7301	402.157	443.8087	547.2863	631.7495	644.7291	760.5651	791.6655	810.3812	812.1722	850.6108	879.7365	888.6124	919.8184	929.2413	959.918	974.2316	988.3071	1006.6558	1023.6345	1064.5033	1095.2873	1097.0657	1106.9961	1110.6044	1186.7139	1231.1074	1246.9634	1255.3149	1276.5587	1287.3201	1320.7718	1324.5305	1367.219	1408.9055	1488.1067	3134.5907	3136.4544	3137.0425	3168.3555	3179.6898	3180.6983	3188.2793	3227.2575
C1C2C1C1OC2C2OC12	C1[C@H]2[C@@H]1[C@@H]1O[C@H]2[C@H]2O[C@@H]12	
InChI=1S/C7H8O2/c1-2-3(1)5-7-6(9-7)4(2)8-5/h2-7H,1H2	InChI=1S/C7H8O2/c1-2-3(1)5-7-6(9-7)4(2)8-5/h2-7H,1H2/t2-,3+,4+,5-,6+,7-
