19
gdb 31250	1.83032	1.74555	0.97105	1.8071	79.99	-0.1757	0.0454	0.221	1235.3809	0.160759	-419.227713	-419.218431	-419.217487	-419.262095	34.176	
C	-0.1265504912	 0.9181414897	-0.2818493171	-0.326156
N	-0.5015526726	-0.276743942	 0.4789550774	-0.392394
C	 0.4917357955	-0.8596601569	 1.2761466343	 0.246941
C	 1.0949836988	-2.1041869183	 1.1982533254	 0.166859
C	 0.8581662414	-3.1021170305	 0.1074638997	-0.194237
O	-0.5347968905	-3.2688094236	-0.2015961877	-0.414778
C	 1.9598906431	-2.2167741015	 2.3308171791	-0.255001
C	 1.8751155611	-1.0492707775	 3.0447319816	-0.093707
N	 0.9734212016	-0.229932964	 2.3957655311	-0.280812
H	 0.726954949	 0.7633557503	-0.9601400014	 0.110762
H	-0.9872297593	 1.2467122367	-0.8706382743	 0.123481
H	 0.1335681293	 1.7333027686	 0.4006244146	 0.116243
H	-0.8824876762	-0.9980322698	-0.1239419337	 0.244735
H	 1.306446755	-2.7898069118	-0.8436697252	 0.111171
H	 1.3177029771	-4.065133902	 0.3747365357	 0.096531
H	-0.9774276146	-3.4704081103	 0.6306829024	 0.280245
H	 2.588026142	-3.0620976249	 2.5708905444	 0.088673
H	 2.3728193421	-0.7237144352	 3.9432017515	 0.113592
H	 0.6241365584	 0.6459969629	 2.7437643922	 0.257851
64.4179	97.7642	157.3557	159.7572	180.7367	249.8208	349.1559	388.3372	427.2679	464.6188	481.4129	624.4182	660.2113	673.1398	698.7717	758.8239	816.1341	847.3832	914.9222	963.0339	1019.404	1037.8831	1084.7721	1097.5205	1149.4037	1159.3459	1181.843	1217.5583	1271.8151	1314.0815	1365.6241	1405.5437	1426.6355	1455.55	1461.8666	1489.8051	1506.881	1511.0237	1524.3275	1545.214	1633.8822	2981.3391	2994.8823	3042.4148	3071.9869	3112.3301	3236.911	3272.9928	3539.4663	3678.5146	3796.5717
CNC1=C(CO)C=CN1	CNc1c(CO)cc[nH]1	
InChI=1S/C6H10N2O/c1-7-6-5(4-9)2-3-8-6/h2-3,7-9H,4H2,1H3	InChI=1S/C6H10N2O/c1-7-6-5(4-9)2-3-8-6/h2-3,7-9H,4H2,1H3
