17
gdb 60954	2.58749	1.26747	1.03911	4.5567	68.42	-0.2661	-0.0435	0.2226	1186.1385	0.133672	-459.001263	-458.992278	-458.991334	-459.035844	31.773	
C	-0.1617075075	 1.6596833637	 0.024585113	-0.42258
C	 0.0592854171	 0.1451637666	-0.065068567	-0.086444
C	 1.0855809653	-0.3234431251	 0.9648825921	 0.154395
O	 1.7030107741	-1.3538610966	 0.8752039253	-0.248217
C	-1.2573492341	-0.6172319891	 0.1021842829	 0.128081
C	-1.2573620427	-2.1539481782	 0.2026688119	-0.450442
C	-1.8318152866	-1.9032306193	 1.595385005	 0.454204
O	-2.2261586395	-2.5307331092	 2.5214123533	-0.308322
O	-1.775429266	-0.5286133796	 1.4791258765	-0.262577
H	 0.7800854584	 2.2044416527	-0.0912914905	 0.128592
H	-0.8450991575	 2.0013163805	-0.7579741273	 0.128271
H	-0.5956373316	 1.9288188898	 0.9926074238	 0.148583
H	 0.4560287712	-0.1307914264	-1.0502614607	 0.115388
H	 1.2319141498	 0.3584602098	 1.8309865952	 0.097491
H	-2.0068438533	-0.2141910697	-0.5854427969	 0.103908
H	-1.9241620117	-2.6867877123	-0.4763769415	 0.143651
H	-0.2718002355	-2.6211410576	 0.2122606249	 0.176019
59.959	85.6003	95.5859	194.8463	214.3949	231.3731	306.2749	372.1191	497.1317	524.2388	534.2575	569.968	720.9265	801.2249	879.7218	903.5294	950.2192	960.3604	1007.441	1042.3151	1077.4002	1093.1027	1119.6291	1147.7938	1171.6225	1231.4394	1273.9009	1297.2746	1336.9778	1375.3094	1409.0687	1432.0266	1456.6554	1497.1359	1500.6303	1823.8509	1948.4582	2895.8232	3040.1648	3041.9619	3066.7322	3096.3194	3114.1373	3118.0288	3158.2772
CC(C=O)C1CC(=O)O1	C[C@@H](C=O)[C@H]1CC(=O)O1	
InChI=1S/C6H8O3/c1-4(3-7)5-2-6(8)9-5/h3-5H,2H2,1H3	InChI=1S/C6H8O3/c1-4(3-7)5-2-6(8)9-5/h3-5H,2H2,1H3/t4-,5+/m0/s1
