17
gdb 55186	3.33794	1.35594	1.1196	3.254	69.01	-0.2395	0.0474	0.2869	1085.6693	0.137303	-455.137819	-455.129868	-455.128924	-455.170705	29.869	
N	-0.0328222117	 1.298582447	-0.0514748002	-0.555585
C	 0.016221185	-0.0791776899	 0.0868550467	 0.414692
O	 1.0517481275	-0.7207164932	 0.060898601	-0.398972
N	-1.2143932127	-0.678843368	 0.2333284678	-0.108483
C	-2.5465665442	-0.2660330329	-0.2617266855	-0.210261
C	-2.8615219041	-1.7626221093	-0.5057077932	 0.097107
O	-2.5061277381	-2.1976594598	-1.824614224	-0.292709
C	-1.1833761515	-2.6225351907	-1.3890649421	-0.086964
C	-1.4480780317	-2.1097616682	 0.0367157002	-0.042201
H	 0.8660964951	 1.7395988795	 0.0690682756	 0.26236
H	-0.8043730433	 1.7925645365	 0.3701652614	 0.25408
H	-3.1600646464	 0.2260956212	 0.503260217	 0.107029
H	-2.5336954437	 0.3356803272	-1.1761789108	 0.130376
H	-3.8119969075	-2.1667490268	-0.1546239334	 0.090327
H	-1.0773208448	-3.7112567608	-1.4654719804	 0.108276
H	-0.3731527407	-2.130401304	-1.9332069185	 0.132127
H	-1.2084700373	-2.7497373978	 0.8848922386	 0.098798
80.8657	103.4217	157.9121	206.4468	379.4296	394.1922	422.3365	447.6044	530.1709	569.1236	668.1161	761.7345	779.8203	817.4655	843.0099	928.092	959.1411	989.7014	1002.9434	1059.1017	1079.989	1092.7358	1140.988	1144.6565	1174.7217	1196.6898	1213.4345	1237.3947	1294.2308	1307.424	1341.2565	1354.39	1433.273	1500.3225	1515.6192	1622.169	1784.9536	3016.9376	3030.9811	3083.3491	3101.9701	3104.2356	3122.2898	3578.6343	3695.6196
NC(=O)N1CC2OCC12	NC(=O)N1C[C@H]2OC[C@@H]12	
InChI=1S/C5H8N2O2/c6-5(8)7-1-4-3(7)2-9-4/h3-4H,1-2H2,(H2,6,8)	InChI=1S/C5H8N2O2/c6-5(8)7-1-4-3(7)2-9-4/h3-4H,1-2H2,(H2,6,8)/t3-,4-/m1/s1
