20
gdb 7361	3.77075	0.9791	0.89558	3.7203	71.8	-0.2392	-0.0092	0.23	1357.8547	0.17367	-386.159855	-386.149455	-386.14851	-386.196457	35.613	
C	-0.0809508062	 1.5456025353	 0.0936781623	-0.395773
C	 0.0207404895	 0.0076738226	-0.0109178638	-0.090682
C	 0.7025309372	-0.4654275372	-1.3033087333	-0.159695
C	-0.0382047545	-0.082088795	-2.5789070184	-0.089818
O	 0.62225934	-0.7237194468	-3.6600150844	-0.41874
C	 0.794599796	-0.4914738809	 1.2155543907	 0.390372
C	-0.0317822162	-0.8653641646	 2.4332312168	-0.481725
O	 2.001775614	-0.565817624	 1.2158929907	-0.308324
H	 0.9125024323	 1.9975718406	 0.0117978159	 0.137241
H	-0.712843787	 1.955037718	-0.6986747716	 0.123143
H	-0.5143002354	 1.8558183613	 1.0501744952	 0.116668
H	-0.9968035752	-0.4032523418	 0.0387265214	 0.073571
H	 1.7240883606	-0.0757497302	-1.3382183611	 0.126097
H	 0.7921581266	-1.5577776478	-1.2886519769	 0.108056
H	-1.092269318	-0.4028470286	-2.5114215407	 0.078807
H	-0.0391425444	 1.0103116795	-2.713170644	 0.086994
H	 0.1990151969	-0.4471464837	-4.4778708283	 0.28501
H	-0.7715521154	-0.0913569231	 2.6637302185	 0.134553
H	-0.5929405099	-1.7835210021	 2.2201059707	 0.142856
H	 0.6181613789	-1.0327257415	 3.2929253205	 0.14139
29.2404	60.8839	93.4706	132.2843	153.0753	216.6441	247.755	265.7135	301.6735	320.0431	350.6075	504.0258	600.3218	601.0885	775.8382	798.8519	886.0555	951.3994	965.8687	999.2435	1038.0328	1048.0673	1092.3773	1124.3184	1158.0427	1191.3053	1240.2969	1245.4715	1305.9613	1318.6847	1338.2155	1376.8805	1388.2466	1406.3815	1460.7426	1462.607	1475.6484	1487.455	1500.3066	1503.4444	1527.6956	1811.8946	2950.5178	2992.6702	3013.7048	3033.7522	3038.6911	3047.4813	3093.8775	3099.8513	3105.248	3118.9395	3151.1822	3830.2386
CC(CCO)C(C)=O	C[C@@H](CCO)C(=O)C	
InChI=1S/C6H12O2/c1-5(3-4-7)6(2)8/h5,7H,3-4H2,1-2H3	InChI=1S/C6H12O2/c1-5(3-4-7)6(2)8/h5,7H,3-4H2,1-2H3/t5-/m0/s1
