21
gdb 113103	5.68811	0.66863	0.65197	3.9736	83.08	-0.2225	0.0272	0.2497	1772.0064	0.182355	-420.409882	-420.400191	-420.399247	-420.445525	34.822	
C	-0.0590168414	 1.6337125211	 0.0073684118	-0.380543
C	 0.0627621998	 0.1123331241	 0.0499259273	-0.116198
N	-1.2348628292	-0.5302109627	 0.1139146103	-0.063276
C	-2.0219155728	-0.4302023983	 1.3586387282	-0.193411
C	-2.5064102071	-1.8822532862	 1.1129154002	 0.041749
C	-1.2858695787	-2.0019156329	 0.165445955	-0.194909
N	-2.6123921797	-2.7805711439	 2.2304115359	-0.286265
C	-3.7302726384	-3.5097205739	 2.5091307079	 0.152744
O	-4.7571076483	-3.4950128294	 1.8661814963	-0.317403
H	 0.9291586543	 2.098206942	-0.0616634555	 0.11423
H	-0.6548738232	 1.9476465331	-0.8543073224	 0.127602
H	-0.5439322676	 2.0170191481	 0.9114943684	 0.119002
H	 0.5665714145	-0.2454049141	-0.8566519729	 0.103622
H	 0.7029448176	-0.1863916333	 0.9059368883	 0.066128
H	-1.393301196	-0.3671903247	 2.2662590112	 0.072736
H	-2.7688169877	 0.3686974324	 1.3886178929	 0.113924
H	-3.4555707492	-1.9222421084	 0.5814467422	 0.137017
H	-1.4176190645	-2.5042336478	-0.7982759452	 0.112208
H	-0.4204193565	-2.450106758	 0.6871619432	 0.072987
H	-1.8191702554	-2.8814525	 2.8448079072	 0.24408
H	-3.5920876707	-4.1347549773	 3.4138894296	 0.073977
38.4423	69.147	103.0674	193.1735	199.2528	218.7197	244.0971	353.7658	383.0664	415.7905	472.1463	541.8376	606.8343	747.3589	812.4426	829.059	893.8544	951.2926	990.1327	1004.4844	1033.3467	1047.266	1074.2255	1111.7027	1119.6599	1144.676	1171.7662	1205.7625	1225.2623	1253.1612	1273.2766	1277.9908	1315.0074	1334.0096	1369.7901	1396.3392	1415.0193	1433.7777	1489.176	1492.0555	1500.4374	1509.5108	1528.8997	1537.4819	1809.3777	2887.371	2929.3343	2934.2392	2941.7689	3038.3505	3042.571	3065.6727	3072.2894	3106.2693	3119.7006	3146.7084	3623.5824
CCN1CC(C1)NC=O	CCN1CC(C1)NC=O	
InChI=1S/C6H12N2O/c1-2-8-3-6(4-8)7-5-9/h5-6H,2-4H2,1H3,(H,7,9)	InChI=1S/C6H12N2O/c1-2-8-3-6(4-8)7-5-9/h5-6H,2-4H2,1H3,(H,7,9)
