18
gdb 51771	2.25363	1.20404	0.85652	4.582	75.63	-0.2503	-0.0262	0.2241	1346.8932	0.14607	-439.074948	-439.06573	-439.064786	-439.110874	32.111	
N	 0.386019357	 1.1629707354	-0.2878637063	-0.434887
C	 0.2079808785	-0.0701367251	-0.1019695715	 0.122675
O	-0.9931401711	-0.5201650819	 0.3256423483	-0.188643
C	-1.1777073677	-1.9181622842	 0.434859836	 0.14409
C	-2.2288804083	-2.3508049403	 1.4714967744	-0.259465
C	-2.7439171335	-3.4005918273	 0.4504217131	-0.245201
C	-1.9906976745	-2.6397695779	-0.6933168008	-0.14916
C	-2.898200537	-1.7133147223	-1.4656389197	 0.184507
O	-2.9101405149	-1.6313007306	-2.6664642105	-0.252902
H	 1.3425557416	 1.3363682139	-0.5890981005	 0.233237
H	 0.9486618567	-0.8705240922	-0.2389033094	 0.088845
H	-0.2135815418	-2.4174692384	 0.5867435397	 0.094062
H	-1.8670872425	-2.7004179009	 2.4400660679	 0.112809
H	-2.9516986659	-1.54734086	 1.6332175555	 0.132734
H	-2.3243676795	-4.3955062411	 0.6102448126	 0.120901
H	-3.8263168917	-3.4932339264	 0.3403585691	 0.11993
H	-1.4144907028	-3.2330402947	-1.405161465	 0.09302
H	-3.5910913924	-1.104641856	-0.8427788228	 0.083446
27.972	77.8311	93.1676	99.8385	194.2073	247.8801	310.4837	398.0979	443.1089	474.0023	600.9037	709.4524	793.4355	820.0363	868.666	879.9971	934.824	967.8767	986.787	1034.6017	1042.1132	1045.92	1119.4769	1138.8928	1166.7671	1207.6336	1241.6481	1254.9299	1267.7674	1276.6805	1286.6297	1321.795	1387.82	1429.9185	1438.8018	1481.8455	1498.4619	1748.7896	1830.718	2883.7979	3017.5268	3036.4745	3072.4105	3076.0345	3102.9281	3120.5806	3135.9588	3521.8815
N=COC1CCC1C=O	[NH][CH]O[C@H]1CC[C@H]1C=O	
InChI=1S/C6H9NO2/c7-4-9-6-2-1-5(6)3-8/h3-7H,1-2H2	InChI=1S/C6H9NO2/c7-4-9-6-2-1-5(6)3-8/h3-7H,1-2H2/t5-,6-/m0/s1
