21
gdb 64768	2.94518	1.13472	1.06818	2.0089	83.99	-0.2396	0.0524	0.2919	1259.4507	0.181105	-387.072181	-387.062695	-387.061751	-387.106732	35.957	
C	-0.05212561	 1.6963168201	 0.0196986695	-0.429543
C	 0.0544368419	 0.1728525763	-0.0433472082	 0.395133
C	-1.3512338673	-0.4877250528	-0.0732048326	-0.388886
C	-2.167908735	-0.2092320104	 1.1006618893	 0.324269
C	-2.8534922486	 0.0261562952	 2.0593895874	-0.449345
C	 0.9075884388	-0.323334466	-1.2385174597	-0.274411
C	 1.7321184566	-1.4712829982	-0.6397001056	-0.224247
C	 1.9336246192	-0.973079521	 0.7925890964	-0.065752
O	 0.731282983	-0.2964399524	 1.1359802001	-0.29398
H	 0.9451052608	 2.1377589218	 0.1025408453	 0.113231
H	-0.5306447729	 2.0923863491	-0.882807971	 0.108244
H	-0.6415735417	 2.002424337	 0.8871004042	 0.139123
H	-1.8791647348	-0.147214266	-0.9736053901	 0.123649
H	-1.2209753951	-1.5717423241	-0.1767049523	 0.123277
H	-3.4516606777	 0.228707436	 2.9126815184	 0.19164
H	 0.2927748108	-0.6272962561	-2.089596361	 0.102576
H	 1.5688111302	 0.4797534969	-1.5803526915	 0.100917
H	 1.1615388691	-2.4059535173	-0.6405927686	 0.107631
H	 2.6717282005	-1.6500778564	-1.1683126329	 0.102011
H	 2.0951797473	-1.7737969181	 1.520988061	 0.106752
H	 2.7935818248	-0.2858172537	 0.848243872	 0.087711
46.4063	82.7388	133.8609	214.7672	243.5204	311.1818	324.4837	354.0206	371.0875	406.2169	505.3487	596.0886	611.3399	633.7495	661.434	763.4605	859.8109	870.2702	891.6606	918.2835	930.9041	938.4304	985.3697	1016.5104	1049.2024	1079.5789	1118.3136	1177.0601	1188.952	1208.0897	1239.6452	1272.7208	1277.3963	1321.9972	1341.1746	1348.5312	1390.6286	1407.8897	1457.5113	1486.1518	1487.2239	1495.763	1500.6403	1527.9528	2238.48	2969.3031	3019.3	3037.1421	3048.9155	3050.3837	3058.0499	3075.1483	3097.4331	3107.2437	3109.6554	3129.7867	3507.5734
CC1(CC#C)CCCO1	C[C@@]1(CC#C)CCCO1	
InChI=1S/C8H12O/c1-3-5-8(2)6-4-7-9-8/h1H,4-7H2,2H3	InChI=1S/C8H12O/c1-3-5-8(2)6-4-7-9-8/h1H,4-7H2,2H3/t8-/m1/s1
