17
gdb 55874	3.36086	0.89076	0.75037	2.4417	73.85	-0.2565	-0.0217	0.2348	1477.4951	0.13403	-418.014484	-418.004975	-418.004031	-418.050564	32.96	
C	-0.2445589371	 1.4635548905	-0.0115275433	-0.476896
C	-0.0761508376	-0.0388689731	 0.0848223048	 0.388722
O	-0.1942181263	-0.6400457885	 1.1276226819	-0.293272
C	 0.2660750923	-0.7607753855	-1.2188774271	-0.330887
C	 0.1328289732	-2.2562848108	-1.0901944135	 0.015326
N	-1.1558771831	-2.8317101248	-1.4699254995	-0.311621
C	 0.0351117896	-3.1574648666	-2.2822273514	-0.214778
C	 0.0622716202	-2.6373123355	-3.6287829063	 0.329549
N	 0.1182965885	-2.2181034238	-4.7048483392	-0.335167
H	 0.5971015497	 1.9190447145	-0.5443286268	 0.139757
H	-1.1470869988	 1.6931212764	-0.590260924	 0.152033
H	-0.3358161335	 1.8942983483	 0.9861029152	 0.146296
H	-0.3668725751	-0.3871479077	-2.0303623239	 0.14682
H	 1.2967459819	-0.4878575825	-1.4873860861	 0.138514
H	 0.6368821925	-2.6813702856	-0.2267648343	 0.120177
H	-1.3949713749	-3.6251032728	-0.8812025314	 0.251217
H	 0.4735220185	-4.1474799425	-2.189720885	 0.134212
35.0463	59.1848	86.8834	119.4811	169.964	230.225	327.0633	356.0865	422.5785	473.4896	564.2837	583.1434	619.5736	798.7863	812.3143	824.1731	876.6115	908.1655	955.457	961.5927	1027.6591	1054.529	1117.5545	1168.0441	1186.5055	1216.4367	1248.6932	1267.5901	1336.9255	1385.1127	1402.3172	1433.2265	1461.1734	1472.4267	1475.6217	1812.8495	2359.3819	3023.2419	3037.5023	3085.6872	3098.6403	3147.347	3154.2039	3159.7414	3515.8312
CC(=O)CC1NC1C#N	CC(=O)C[C@H]1N[C@H]1C#N	
InChI=1S/C6H8N2O/c1-4(9)2-5-6(3-7)8-5/h5-6,8H,2H2,1H3	InChI=1S/C6H8N2O/c1-4(9)2-5-6(3-7)8-5/h5-6,8H,2H2,1H3/t5-,6+/m1/s1
