12
gdb 131067	5.56553	1.02452	0.87167	2.3991	65.	-0.2595	-0.0939	0.1656	1199.4677	0.077966	-468.826824	-468.819733	-468.818788	-468.859226	24.745	
O	 0.0146232901	-0.0254264964	 0.1415776078	-0.237694
C	-0.0117155989	 1.1438838089	-0.0581933501	 0.173311
O	 1.0847149418	 1.9303361292	 0.2540186127	-0.231835
C	 0.9894807947	 3.2833555886	 0.1544027965	 0.443766
C	 2.1714086142	 4.0116005177	-0.0546652608	-0.054562
N	 2.1225213883	 5.3266956542	-0.1169053992	-0.219082
C	 0.8958619579	 5.8600210619	 0.016030304	 0.109694
N	-0.2392410553	 5.2014601486	 0.2087644835	-0.177416
N	-0.1839211874	 3.8703239456	 0.2943501997	-0.255024
H	-0.8320483933	 1.7233123725	-0.499507161	 0.143976
H	 3.1281512025	 3.5076222746	-0.1614330366	 0.155253
H	 0.8134630553	 6.9404906245	-0.0364838367	 0.149613
79.1804	107.4537	173.0571	244.3178	405.1097	410.0926	498.5292	550.6985	633.5649	735.6563	792.3618	903.2509	944.0464	1000.4547	1029.4832	1050.5668	1060.0753	1115.3672	1178.6845	1230.2957	1313.3032	1398.8078	1417.2551	1446.0532	1560.5932	1604.8212	1884.4066	3079.3067	3174.9231	3201.5593
O=COC1=CN=CN=N1	O=COc1cncnn1	
InChI=1S/C4H3N3O2/c8-3-9-4-1-5-2-6-7-4/h1-3H	InChI=1S/C4H3N3O2/c8-3-9-4-1-5-2-6-7-4/h1-3H
