17
gdb 77412	2.59943	1.62592	1.35121	0.5131	67.36	-0.2405	0.0542	0.2947	994.0094	0.134016	-458.893847	-458.885471	-458.884527	-458.926222	32.426	
C	 0.0988073353	 1.5529568962	 0.0624937287	-0.502004
C	 0.0518317897	 0.0566079198	-0.0101899198	 0.170846
C	 0.6178388572	-0.8178919906	-1.1044703756	-0.040662
O	 2.0299665621	-0.9840425972	-0.9059015133	-0.250808
C	 1.1376321352	-1.8157803736	-0.1425364226	-0.088037
C	 0.5734508659	-1.0176946976	 0.9987249568	 0.28862
O	 1.0837767229	-0.8546095712	 2.2735335989	-0.46798
C	-0.9053428116	-0.7960749618	 0.8262647133	 0.034951
O	-1.5403430715	-0.1699103146	 1.8931202159	-0.43996
H	 1.1212124134	 1.9277285777	-0.0519334582	 0.123844
H	-0.5123474918	 2.0009971836	-0.7294921337	 0.126874
H	-0.3014606349	 1.89894801	 1.0189620515	 0.1302
H	 0.2343693095	-0.998184357	-2.1019647145	 0.10732
H	 1.2437120294	-2.888511198	-0.2508941756	 0.109751
H	 1.9267916382	-0.3909924313	 2.2122884999	 0.303662
H	-1.5384439007	-1.5448424448	 0.352090776	 0.096131
H	-0.9088325483	-0.1571480696	 2.6255273824	 0.297253
156.5824	166.5683	206.9625	222.3563	262.0947	273.2911	358.4985	407.039	459.8921	514.3271	540.9275	640.3667	679.4343	711.7973	784.4202	847.3745	862.7439	878.0316	934.0578	949.223	1049.1224	1078.3254	1087.852	1098.0767	1161.709	1193.4224	1203.599	1242.5189	1294.9905	1332.1685	1346.1714	1355.6472	1400.051	1413.2882	1447.7702	1489.7379	1498.169	3031.2028	3088.4881	3108.5716	3120.2891	3184.3829	3197.7146	3749.1646	3797.8586
CC12C3OC3C1(O)C2O	C[C@@]12[C@H]3O[C@H]3[C@]1(O)[C@H]2O	
InChI=1S/C6H8O3/c1-5-2-3(9-2)6(5,8)4(5)7/h2-4,7-8H,1H3	InChI=1S/C6H8O3/c1-5-2-3(9-2)6(5,8)4(5)7/h2-4,7-8H,1H3/t2-,3+,4-,5-,6-/m0/s1
