19
gdb 47928	2.24072	1.64735	1.15311	3.152	71.9	-0.2573	0.0097	0.267	1101.8681	0.161076	-460.191091	-460.183023	-460.182079	-460.223869	30.886	
O	-0.0108281158	 0.0513567659	 0.677914217	-0.322628
C	-0.0519320247	 1.1556020233	 0.2036120075	 0.39705
C	-1.3649151133	 1.9084454019	 0.0227862245	-0.340763
C	-1.9735963954	 1.7961158212	-1.3916534491	-0.087214
O	-1.2964599327	 2.5227925573	-2.3952025552	-0.247582
C	-0.0962451407	 1.9341044651	-2.8793770955	-0.082794
C	 1.1408321127	 2.7104452017	-2.4209406425	-0.207461
C	 1.1706685305	 2.9629685182	-0.9163189317	-0.075384
O	 1.1143368197	 1.7403053968	-0.1712397565	-0.224895
H	-2.0599693711	 1.4330269642	 0.7191327277	 0.136324
H	-1.2818001434	 2.9633942737	 0.2974908676	 0.125584
H	-2.0524927694	 0.7332866723	-1.6652235946	 0.11448
H	-2.986841824	 2.2080657785	-1.359365969	 0.117852
H	-0.0273915106	 0.8857828585	-2.5600538997	 0.117788
H	-0.1416920955	 1.9346963138	-3.9750092741	 0.109018
H	 2.0358951454	 2.1567677028	-2.7277092973	 0.114983
H	 1.1720579314	 3.6858883045	-2.9209426675	 0.112367
H	 2.1143368233	 3.4310426369	-0.6254529689	 0.122651
H	 0.3590886236	 3.6368320032	-0.6329921625	 0.120625
80.069	143.475	205.6366	215.3641	287.659	375.7115	409.18	473.2966	488.2332	530.9438	585.3921	701.169	772.3532	782.2794	848.316	871.361	934.4655	980.0605	1020.9862	1049.6179	1067.4588	1100.2399	1116.2458	1129.0436	1189.2886	1251.9922	1262.6852	1296.5988	1301.6105	1322.5568	1352.1488	1387.2135	1397.7823	1408.0655	1428.1931	1466.9833	1471.3623	1496.8168	1509.3993	1516.1925	1829.7286	2997.6377	3014.8837	3035.1294	3058.8477	3061.6737	3071.7442	3083.5168	3085.4762	3115.77	3122.532
O=C1CCOCCCO1	O=C1CCOCCCO1	
InChI=1S/C6H10O3/c7-6-2-5-8-3-1-4-9-6/h1-5H2	InChI=1S/C6H10O3/c7-6-2-5-8-3-1-4-9-6/h1-5H2
