15
gdb 132760	2.27657	1.74681	0.99447	0.7636	71.4	-0.2437	-0.0083	0.2354	1088.9165	0.111582	-469.953164	-469.945372	-469.944428	-469.986224	29.043	
C	-0.0160774232	 1.5384958635	 0.0046505043	-0.508455
C	 0.0029321522	 0.0341550452	 0.0127680217	-0.006185
C	 0.0722498739	-0.6993955872	-1.1712199245	 0.253958
F	 0.1215066054	-0.0127227206	-2.3210677459	-0.075831
C	 0.0923300886	-2.0845196634	-1.2147259031	-0.251
C	 0.0406755837	-2.7872458681	-0.0133503494	-0.100422
C	-0.0293345784	-2.1071994809	 1.1980009278	-0.248946
C	-0.046562886	-0.7188090529	 1.1842545725	 0.258413
F	-0.1141390677	-0.070318406	 2.3555099022	-0.082342
H	 0.8835620068	 1.9401260194	-0.472691536	 0.14177
H	-0.8729444242	 1.9174474681	-0.5616407466	 0.14177
H	-0.072572868	 1.9282569915	 1.0209802417	 0.141391
H	 0.1472423246	-2.5856608478	-2.1730874962	 0.112096
H	 0.0551348275	-3.8711427059	-0.0225803127	 0.112303
H	-0.0706072258	-2.626787645	 2.1472088036	 0.111481
39.3031	150.6958	251.4161	275.5527	281.7984	334.023	486.5577	506.173	523.2559	560.6735	615.1455	690.0895	717.8359	791.7347	820.4176	883.4514	937.7118	945.5784	1061.7938	1081.0014	1103.4249	1177.0262	1210.963	1262.0137	1314.8028	1346.1475	1413.7761	1481.0774	1490.508	1509.5132	1515.1246	1632.7009	1658.8015	3044.6087	3095.3865	3151.3974	3190.8802	3210.3272	3216.1609
CC1=C(F)C=CC=C1F	Cc1c(F)cccc1F	
InChI=1S/C7H6F2/c1-5-6(8)3-2-4-7(5)9/h2-4H,1H3	InChI=1S/C7H6F2/c1-5-6(8)3-2-4-7(5)9/h2-4H,1H3
