23
gdb 118094	3.12161	0.87722	0.7639	1.6919	82.19	-0.26	0.0852	0.3452	1604.138	0.203345	-425.417495	-425.406942	-425.405997	-425.45333	39.053	
C	 0.1721072147	 1.5635285898	-0.1464789817	-0.383883
C	 0.0529502317	 0.0421951226	-0.0281943221	-0.163639
C	 0.7206807764	-0.5125793237	 1.2344440936	-0.19028
C	 0.6361141434	-2.045257133	 1.3300635851	 0.043101
O	 1.166639134	-2.6589798209	 0.1660320293	-0.434631
C	 1.3388715855	-2.6017230353	 2.5765752717	 0.393344
C	 1.0080195359	-1.9770000347	 3.9125225435	-0.473874
C	 1.8533647429	-3.9768708011	 2.5287274422	-0.22925
O	 2.7399782807	-2.8567021756	 2.3489235712	-0.291773
H	 1.2215494335	 1.8774431549	-0.1799656018	 0.113198
H	-0.3128918533	 1.9307602392	-1.0563722944	 0.111698
H	-0.2948208001	 2.0696620278	 0.7062880159	 0.109473
H	-1.0074353229	-0.2448465071	-0.0291153956	 0.090181
H	 0.4987671286	-0.4416769019	-0.9025865735	 0.114557
H	 1.779547088	-0.2173832213	 1.2570064602	 0.097004
H	 0.2533845975	-0.0638214386	 2.1197701665	 0.093081
H	-0.4211837813	-2.3415915108	 1.3711866017	 0.087574
H	 2.1271173025	-2.6452221041	 0.2870403175	 0.287611
H	-0.0717137543	-2.0097136585	 4.0960329194	 0.12414
H	 1.510669021	-2.5131989747	 4.720983564	 0.126654
H	 1.3251134409	-0.9313260587	 3.9513757667	 0.135529
H	 1.9942550715	-4.5248389459	 3.4588865445	 0.112172
H	 1.6921383932	-4.5802799087	 1.6399205662	 0.128013
57.881	83.1146	108.6888	133.8793	201.0584	241.8283	278.6471	285.4323	324.6272	362.4814	378.7939	434.1491	494.7449	535.6682	579.1792	735.7621	753.1177	840.9737	861.4497	890.7933	911.6281	933.1867	986.0879	1014.0649	1048.5811	1083.1857	1096.408	1128.6368	1137.7283	1142.6823	1177.0352	1241.8279	1251.2687	1280.2009	1303.818	1337.5457	1361.7918	1386.6969	1393.4901	1412.6271	1419.4798	1433.4952	1479.5806	1485.7872	1494.4497	1498.8815	1499.8684	1511.5667	1517.594	3005.937	3016.7724	3022.1952	3027.2719	3040.5089	3055.1323	3076.8669	3096.742	3098.5804	3101.3383	3108.6866	3125.3339	3194.9179	3736.4778
CCCC(O)C1(C)CO1	CCC[C@@H](O)[C@@]1(C)CO1	
InChI=1S/C7H14O2/c1-3-4-6(8)7(2)5-9-7/h6,8H,3-5H2,1-2H3	InChI=1S/C7H14O2/c1-3-4-6(8)7(2)5-9-7/h6,8H,3-5H2,1-2H3/t6-,7-/m1/s1
