23
gdb 58252	2.41083	1.10466	0.9385	1.4807	81.8	-0.2601	0.0731	0.3332	1398.0725	0.202636	-425.415092	-425.404128	-425.403184	-425.451533	39.994	
C	 1.7572207067	 3.2114147169	-2.3745821682	-0.424203
C	 1.6644721529	 2.1228773887	-1.3060567192	 0.140916
O	 0.526772725	 2.3156892323	-0.4635250741	-0.440723
C	 1.7018463945	 0.6806268994	-1.8757872985	-0.02617
C	 1.9081947423	-0.3369937517	-0.7428432559	-0.408415
C	 0.4310543526	 0.3418128335	-2.6281645067	 0.059172
O	 0.2140082326	 0.921360666	-3.9250388909	-0.274688
C	 0.3508976074	-0.5024261101	-3.8331079724	 0.072326
C	 1.5271110236	-1.1336526314	-4.5328353457	-0.420057
H	 2.6843721281	 3.1188696232	-2.9491388209	 0.114917
H	 0.9267683076	 3.1435759878	-3.0839122119	 0.140428
H	 1.7422460784	 4.1979446866	-1.9020610738	 0.117109
H	 2.5227133726	 2.2228236261	-0.6291632224	 0.080003
H	-0.2204620859	 2.536495265	-1.0294710593	 0.284211
H	 2.5499321701	 0.6293729824	-2.5673903594	 0.072016
H	 1.1094774775	-0.2468751351	-0.0005835674	 0.135673
H	 1.9148352697	-1.3639627192	-1.1209569326	 0.109925
H	 2.8595262125	-0.1590458661	-0.2316133686	 0.114114
H	-0.4599548747	 0.3577589547	-1.9955565906	 0.084681
H	-0.5918971192	-1.0330876875	-3.9860265735	 0.086288
H	 2.4532371857	-0.5851159977	-4.3518069488	 0.12958
H	 1.6598166367	-2.1678349276	-4.1966998028	 0.122971
H	 1.3531805333	-1.1547103659	-5.6138457963	 0.129927
30.0245	83.4962	134.294	174.951	194.1519	210.6956	247.3885	263.1965	286.4039	299.0946	340.7972	400.5829	433.4808	506.8563	529.2566	621.508	774.7747	785.9048	847.3165	911.1777	939.9383	976.2232	990.5707	1020.2849	1037.602	1061.5787	1092.2389	1103.7435	1144.3545	1168.3259	1185.9946	1205.438	1276.1242	1300.3298	1307.7727	1330.5598	1363.1918	1399.908	1404.4745	1409.466	1419.972	1428.6837	1468.8279	1489.0628	1492.7227	1497.1549	1497.418	1502.7915	1514.8698	3023.4434	3037.143	3038.3726	3039.1051	3052.9008	3071.5124	3084.5941	3098.6313	3104.8946	3110.1219	3116.2389	3119.9698	3135.3729	3809.78
CC(O)C(C)C1OC1C	C[C@@H](O)[C@@H](C)[C@H]1O[C@H]1C	
InChI=1S/C7H14O2/c1-4(5(2)8)7-6(3)9-7/h4-8H,1-3H3	InChI=1S/C7H14O2/c1-4(5(2)8)7-6(3)9-7/h4-8H,1-3H3/t4-,5-,6+,7-/m1/s1
