14
gdb 64637	2.35382	1.62788	1.42351	1.5834	67.57	-0.2711	-0.0359	0.2351	972.7868	0.099257	-436.692845	-436.684701	-436.683757	-436.725552	29.935	
C	-0.0220532312	 1.5482165422	-0.0060195391	-0.408671
C	-0.0128752681	 0.0069556934	-0.0236130195	-0.086774
N	 0.8104314995	-0.4979343052	-1.1459637921	-0.252042
C	 1.7500665683	-1.1521710121	-0.6085354159	 0.117268
O	 1.8059014347	-1.2494066681	 0.7613182825	-0.20468
C	 0.7140108552	-0.5276344302	 1.2363677447	 0.429079
O	 0.4873077164	-0.3826785636	 2.3917282456	-0.308035
C	-1.3657099158	-0.5373299542	-0.0896004433	 0.370769
C	-2.4809154525	-0.9796876038	-0.1281566741	-0.46699
H	 1.0019190819	 1.9298896445	 0.0229925032	 0.132215
H	-0.5127790687	 1.9154613941	-0.9086944023	 0.149687
H	-0.5628184135	 1.899556333	 0.8751446528	 0.153523
H	 2.553853446	-1.6624936453	-1.1253842276	 0.164029
H	-3.4677165422	-1.3713530748	-0.1643978249	 0.210623
91.2435	133.1178	184.6105	229.4136	235.3501	310.6766	401.2274	472.0075	567.8048	572.3216	630.5611	643.0773	663.074	721.4993	756.036	840.803	890.4778	951.5198	955.9861	1015.0947	1113.7387	1135.0876	1170.7623	1231.5887	1337.7127	1399.0093	1483.1324	1487.1799	1696.9297	1926.9276	2245.0742	3055.46	3137.5139	3153.6023	3228.0852	3501.0806
CC1(N=COC1=O)C#C	C[C@]1(N=COC1=O)C#C	
InChI=1S/C6H5NO2/c1-3-6(2)5(8)9-4-7-6/h1,4H,2H3	InChI=1S/C6H5NO2/c1-3-6(2)5(8)9-4-7-6/h1,4H,2H3/t6-/m0/s1
