19
gdb 110246	2.47198	1.32604	1.01279	2.8681	76.53	-0.2373	0.0042	0.2414	1224.2681	0.158314	-422.98221	-422.973416	-422.972472	-423.015766	33.358	
C	 0.3780463244	 1.5071839676	-0.2170908345	-0.376344
C	 0.4275306947	-0.0238262314	-0.2860738115	-0.238116
C	 0.8533542302	-0.6324527343	 1.0494859919	 0.051542
C	-0.1093185252	-0.7020975664	 2.3067116126	-0.256717
C	-0.7684687926	-1.9939829542	 1.6781468489	 0.150039
O	-1.6298820324	-1.9007246582	 0.5754158733	-0.428141
C	 0.7466157743	-2.1816364605	 1.3590842281	-0.241562
C	 0.9338633817	-1.7063859692	 2.8098452242	 0.442076
O	 1.5778367568	-1.955709182	 3.7814843294	-0.32285
H	 1.3389082378	 1.9276586504	 0.100882473	 0.114493
H	 0.135648312	 1.9347362889	-1.1947842256	 0.114643
H	-0.3828075505	 1.8487273353	 0.4932753689	 0.11372
H	-0.5317271644	-0.4211926049	-0.6100326096	 0.130636
H	 1.1705913648	-0.3263126215	-1.0358475136	 0.097598
H	 1.837686183	-0.223733896	 1.3082402306	 0.088415
H	-0.5912091126	 0.1149365149	 2.8400224392	 0.087867
H	-1.1722938056	-2.6992068819	 2.4162191876	 0.088545
H	-2.5035853944	-1.662483458	 0.9015432904	 0.290344
H	 1.219246298	-3.0086212186	 0.8339309367	 0.093813
65.4323	138.0929	173.4656	228.9215	268.4415	282.1007	299.5474	377.4259	386.1577	526.958	560.805	669.6833	715.759	723.6655	771.8559	796.7114	867.0732	898.2698	964.2169	1013.6485	1038.1851	1051.2021	1068.6415	1102.1152	1113.9976	1119.5189	1144.664	1179.1234	1197.1053	1221.1091	1251.2653	1298.6093	1320.3615	1351.2271	1410.8348	1439.9	1470.3847	1494.0647	1500.603	1507.8371	1919.3849	3013.9789	3022.3107	3029.0589	3031.0968	3090.5907	3103.8198	3141.6033	3150.0546	3162.3396	3818.4203
CCC1C2C(O)C1C2=O	CC[C@H]1[C@H]2[C@@H](O)[C@@H]1C2=O	
InChI=1S/C7H10O2/c1-2-3-4-6(8)5(3)7(4)9/h3-6,8H,2H2,1H3	InChI=1S/C7H10O2/c1-2-3-4-6(8)5(3)7(4)9/h3-6,8H,2H2,1H3/t3-,4-,5+,6+
