16
gdb 47615	2.53183	1.91458	1.19934	4.4367	64.5	-0.2377	-0.0016	0.2362	991.1418	0.1265	-475.021198	-475.014016	-475.013072	-475.053233	27.142	
O	 0.0160784197	 0.0333199481	 0.4041288804	-0.33412
C	-0.0106183397	 1.153833077	-0.019729939	 0.451193
O	-1.1883501803	 1.7212676256	-0.3828476643	-0.225413
C	-1.1714348532	 3.0179357527	-0.9975387876	 0.015911
O	-0.3130884292	 3.9060360367	-0.3668109765	-0.232016
C	 1.0349097396	 3.5052524878	-0.5436196562	 0.097632
C	 1.9002655537	 3.87161651	 0.6740841126	-0.191054
N	 1.7197745129	 2.4929316378	 1.1914520616	-0.304084
C	 1.234386066	 2.0255361654	-0.1301733719	-0.163404
H	-0.9131807879	 2.8931500115	-2.0613633763	 0.101781
H	-2.1870487335	 3.4021182318	-0.8987945561	 0.139676
H	 1.394342972	 3.8008769736	-1.5356168109	 0.084716
H	 2.9274914095	 4.1306611261	 0.3858253699	 0.101533
H	 1.4945533996	 4.654337512	 1.3215492405	 0.125268
H	 2.5472614534	 2.0251148297	 1.5398515437	 0.23296
H	 1.9759245475	 1.4951099843	-0.74014806	 0.09942
82.687	132.6924	243.9504	274.65	374.3106	424.3762	495.0833	511.2812	653.3863	695.9389	766.5244	814.4154	837.3125	930.451	949.8486	993.2957	1025.3614	1037.9606	1056.9799	1105.7587	1124.7606	1145.964	1175.5906	1228.8725	1262.1789	1272.0194	1301.5768	1320.0657	1339.249	1382.4236	1385.3999	1455.0982	1503.0572	1521.9261	1859.5577	2978.1173	3013.8993	3027.3029	3047.2193	3086.8775	3132.1272	3557.7074
O=C1OCOC2CNC12	O=C1OCO[C@H]2CN[C@@H]12	
InChI=1S/C5H7NO3/c7-5-4-3(1-6-4)8-2-9-5/h3-4,6H,1-2H2	InChI=1S/C5H7NO3/c7-5-4-3(1-6-4)8-2-9-5/h3-4,6H,1-2H2/t3-,4+/m0/s1
