19
gdb 35549	2.46838	1.59201	1.43436	3.165	77.59	-0.2366	0.0307	0.2672	1015.1632	0.162481	-382.078241	-382.070506	-382.069562	-382.110654	30.129	
N	 1.0987437134	-0.669988403	 0.8480081885	-0.34136
C	 0.5373877465	 0.284331844	 0.5120734312	 0.267773
C	-0.1522118926	 1.5024316069	 0.0266516068	-0.128442
C	-0.8954146648	 2.2543826783	 1.160108085	-0.23259
C	 0.1440330262	 3.2433230374	 1.7026560302	 0.002624
C	 1.2428743362	 2.6812536569	 2.6546919543	-0.238232
C	 2.3159209782	 2.8808152571	 1.5461732069	-0.23624
C	 1.2083346895	 3.395471186	 0.5700363395	 0.015507
N	 0.742460524	 2.5273388121	-0.5106851382	-0.294964
H	-0.8504792385	 1.170820046	-0.7504067109	 0.125479
H	-1.7351503994	 2.7913915343	 0.7109425822	 0.117359
H	-1.2897444614	 1.575191743	 1.9193300395	 0.122546
H	-0.3206583856	 4.1671648455	 2.0496046083	 0.074938
H	 1.4004239049	 3.2787451967	 3.5551327542	 0.102045
H	 1.0894068697	 1.6429411996	 2.9580268017	 0.120652
H	 3.0685165214	 3.6368400235	 1.7836709415	 0.099656
H	 2.8293975798	 1.9728397828	 1.2212987881	 0.11549
H	 1.3845890365	 4.3998827246	 0.1754310893	 0.076636
H	 1.4876190962	 2.1463886584	-1.0822514683	 0.231122
88.53	107.8799	178.471	255.5257	344.59	390.3529	465.3899	537.6814	612.2879	695.7864	735.4586	740.7178	778.7537	808.2259	847.8623	883.0047	921.9769	949.1925	963.1237	987.2951	1006.1791	1062.7597	1089.3863	1121.922	1164.6213	1194.4513	1198.8764	1226.9365	1239.5928	1266.3192	1270.4265	1284.8664	1325.3912	1339.7019	1359.5022	1362.3319	1433.9654	1472.4201	1482.0848	1494.6895	2336.3707	3040.3833	3057.3632	3063.5096	3066.0999	3069.0942	3096.0675	3108.7365	3118.1285	3126.5889	3549.8285
N#CC1CC2CCC2N1	N#C[C@H]1C[C@H]2CC[C@H]2N1	
InChI=1S/C7H10N2/c8-4-6-3-5-1-2-7(5)9-6/h5-7,9H,1-3H2	InChI=1S/C7H10N2/c8-4-6-3-5-1-2-7(5)9-6/h5-7,9H,1-3H2/t5-,6-,7-/m1/s1
