13
gdb 12048	3.99853	1.76677	1.57006	2.2029	57.9	-0.2778	0.0001	0.2779	808.4068	0.094226	-398.556971	-398.549907	-398.548962	-398.58814	26.182	
O	-0.0969556764	 1.4261198788	-0.0661442651	-0.451361
C	-0.0164721523	 0.033269607	 0.0285130279	 0.261119
C	 0.2614299393	-0.6387170988	 1.4437043852	-0.330229
C	-1.1048081015	-1.3195440179	 1.3166076668	 0.054199
O	-2.0698472177	-0.2693338479	 1.2149547055	-0.231988
C	-1.3961060946	-0.6650363681	 0.0302256027	-0.003196
C	 0.8645698778	-0.5313921764	-1.0055665935	 0.21697
N	 1.5715352633	-0.9537330462	-1.8169562557	-0.329408
H	 0.7938616526	 1.794240194	-0.046386827	 0.298114
H	 1.1193930991	-1.3122750054	 1.4351260261	 0.135498
H	 0.3346571024	 0.0778569912	 2.2636621531	 0.130534
H	-1.4341312421	-2.2770003623	 1.6987381766	 0.121689
H	-1.9841989199	-0.960024988	-0.8298670326	 0.128059
124.8015	167.5477	212.4975	275.5024	340.8379	419.5037	488.3531	542.4075	565.8014	673.4898	798.7711	831.0316	866.2676	907.5721	947.3956	962.2828	1020.2368	1048.9177	1101.0339	1120.2916	1219.0884	1228.645	1235.5562	1258.3264	1361.2615	1383.2381	1458.8473	2348.9511	3081.3896	3150.4169	3199.806	3215.4335	3804.9694
OC1(CC2OC12)C#N	O[C@]1(C[C@H]2O[C@@H]12)C#N	
InChI=1S/C5H5NO2/c6-2-5(7)1-3-4(5)8-3/h3-4,7H,1H2	InChI=1S/C5H5NO2/c6-2-5(7)1-3-4(5)8-3/h3-4,7H,1H2/t3-,4-,5-/m1/s1
