23
gdb 119789	5.05841	0.78078	0.73448	0.2959	92.78	-0.2151	0.0283	0.2433	1658.5641	0.206768	-351.16564	-351.156564	-351.15562	-351.19991	34.931	
C	-0.1006895041	 1.5890910884	 0.1362929693	-0.37881
C	-0.1361510773	 0.0591159597	 0.1169185368	-0.157878
C	 0.8633357266	-0.5715522886	 1.1057999551	-0.29483
C	 0.8604875256	-2.071691805	 1.1011499163	 0.324123
C	 1.8856503887	-2.8761653409	 0.794186016	-0.192905
C	 1.5619520748	-4.3178271914	 0.9889241645	-0.060644
C	 1.2437564796	-4.7154838614	 2.4181399955	-0.275893
C	 0.1244443764	-4.3314179511	 1.4851864816	-0.036523
C	-0.367370346	-2.8855390754	 1.4926518239	-0.317651
H	 0.8945334412	 1.9656163388	-0.1255843743	 0.113846
H	-0.8152721814	 2.0143120954	-0.5753856238	 0.110878
H	-0.348544029	 1.9786375233	 1.130181556	 0.113038
H	-1.1506605766	-0.2859755729	 0.3509916893	 0.099057
H	 0.0858013322	-0.3063945465	-0.8933100982	 0.099697
H	 1.8731834661	-0.2096674369	 0.8766286553	 0.09625
H	 0.627528182	-0.2041648676	 2.1162268579	 0.096415
H	 2.8672860315	-2.5315634789	 0.4853307996	 0.081939
H	 1.9531903945	-5.0667852686	 0.3088183567	 0.080941
H	 1.3231351405	-5.7663095793	 2.6785313558	 0.104769
H	 1.5327110528	-4.0295334396	 3.2086982932	 0.106543
H	-0.560821186	-5.1115715058	 1.1754467602	 0.080902
H	-0.762374828	-2.5784654138	 2.4709234932	 0.102656
H	-1.186593504	-2.741271432	 0.7752883904	 0.104081
60.7557	88.4714	107.6041	211.9321	244.1593	304.5285	330.3225	343.0311	475.4145	485.5805	655.765	700.2027	744.8615	789.9002	808.6905	846.9415	852.7853	880.8259	901.909	909.7328	941.2979	986.56	1021.0798	1039.7242	1044.1776	1065.797	1090.7742	1097.3158	1107.1632	1114.872	1186.5067	1193.1974	1219.0878	1252.4944	1286.508	1310.3345	1322.4348	1327.7251	1359.5738	1380.3911	1384.9822	1412.825	1472.4037	1476.3944	1484.6459	1492.919	1499.0629	1509.7879	1699.5799	2990.8027	3008.633	3025.3704	3028.3426	3033.7481	3042.564	3063.8398	3096.0161	3101.2289	3118.0155	3162.0567	3176.0945	3183.7245	3207.2376
CCCC1=CC2CC2C1	CCCC1=C[C@H]2C[C@H]2C1	
InChI=1S/C9H14/c1-2-3-7-4-8-6-9(8)5-7/h4,8-9H,2-3,5-6H2,1H3	InChI=1S/C9H14/c1-2-3-7-4-8-6-9(8)5-7/h4,8-9H,2-3,5-6H2,1H3/t8-,9+/m0/s1
