20
gdb 122334	4.95205	0.66382	0.6269	1.1233	77.5	-0.2397	0.0304	0.2701	1803.7397	0.171249	-440.301479	-440.291784	-440.29084	-440.33778	33.491	
O	 0.2773893895	 1.0045034035	-0.8560106977	-0.421057
C	 0.0284766791	-0.0266800141	 0.0859526499	-0.073893
C	-1.3164350714	-0.6536104586	-0.2562773905	-0.168191
C	-1.6883027807	-1.7910954212	 0.7095893061	-0.294992
C	-2.9972229772	-2.4277263724	 0.370994277	 0.406894
N	-4.0361147901	-2.4524082929	 1.1016226605	-0.310147
C	-5.0654500145	-3.1808486313	 0.3455419964	-0.184807
C	-4.3801471269	-3.5543713182	-0.9949538747	-0.109963
O	-3.0431695092	-3.0258887944	-0.8552292542	-0.256695
H	 1.1197216216	 1.4140198099	-0.6387216488	 0.286076
H	 0.8163319615	-0.797784494	 0.0526230544	 0.084541
H	 0.0044676746	 0.368514516	 1.1149828296	 0.086298
H	-2.0856154509	 0.1261623493	-0.2277183785	 0.116032
H	-1.2818538593	-1.0322819709	-1.2822654099	 0.125283
H	-0.9101730024	-2.5647067058	 0.6789285961	 0.119059
H	-1.7576476117	-1.4266634327	 1.7373158218	 0.129541
H	-5.3910105362	-4.0612722552	 0.91010322	 0.115019
H	-5.9457215091	-2.5450644114	 0.2032391942	 0.115878
H	-4.3069283039	-4.6320032033	-1.1663274496	 0.117115
H	-4.844200463	-3.0888626023	-1.8692659019	 0.11801
44.7172	73.2521	84.712	98.8539	129.1362	237.71	256.1026	292.8411	345.2837	448.9881	653.4285	743.5594	756.5889	769.1714	830.2718	866.9868	920.4621	969.5789	996.0041	1011.629	1028.0873	1037.9126	1084.7265	1116.2019	1127.1449	1207.1317	1215.0489	1232.6707	1246.8001	1252.6053	1300.0327	1305.1459	1315.012	1340.5931	1377.1249	1393.8327	1464.2861	1473.551	1501.1714	1503.4196	1528.007	1528.7387	1741.6991	2956.1717	2982.2786	3030.2898	3038.7742	3051.9651	3053.8201	3065.8349	3093.162	3100.5665	3115.4193	3831.1985
OCCCC1=NCCO1	OCCCC1=NCCO1	
InChI=1S/C6H11NO2/c8-4-1-2-6-7-3-5-9-6/h8H,1-5H2	InChI=1S/C6H11NO2/c8-4-1-2-6-7-3-5-9-6/h8H,1-5H2
