23
gdb 123211	10.33344	0.37583	0.36757	1.4111	89.73	-0.2581	0.0584	0.3165	2862.6176	0.203015	-388.260012	-388.248528	-388.247584	-388.297963	40.19	
O	-0.0630210758	 1.4937197792	 0.0106239167	-0.421568
C	 0.0398567282	 0.0774160382	 0.0019997387	-0.074345
C	-1.370116571	-0.4974188862	 0.0123960149	-0.164814
C	-1.3932304554	-2.0286197445	 0.004385047	-0.191517
C	-2.811451954	-2.6094492928	 0.0148259676	-0.17662
C	-2.8359237464	-4.1404278452	 0.0068402833	-0.175528
C	-4.2688462247	-4.7104955805	 0.0175131112	-0.356151
C	-4.3056530126	-6.1679324287	 0.0101301772	 0.293381
C	-4.3078091029	-7.3700738117	 0.0036137299	-0.438332
H	 0.8260140527	 1.8598027325	 0.003991236	 0.284704
H	 0.5793844138	-0.2774986814	-0.8918855059	 0.082704
H	 0.5963585464	-0.287062667	 0.8815156704	 0.082704
H	-1.8932020133	-0.1161710962	 0.8981751044	 0.10416
H	-1.9100134823	-0.1067225721	-0.8590625518	 0.104159
H	-0.857440093	-2.4000719563	-0.8802168331	 0.095151
H	-0.8406565665	-2.409504338	 0.8745332087	 0.095152
H	-3.348603171	-2.2399117476	 0.8993923697	 0.095911
H	-3.3653849703	-2.2304893982	-0.8552856282	 0.095911
H	-2.3099312832	-4.5190563685	-0.8776443834	 0.108067
H	-2.2931336069	-4.5284706734	 0.876979208	 0.108068
H	-4.8033234997	-4.3368362708	 0.9011015519	 0.128482
H	-4.8201008182	-4.3274938111	-0.8516563042	 0.128487
H	-4.322384354	-8.4314465397	-0.0022160892	 0.191836
42.864	65.1185	75.7438	104.1177	145.4187	147.7163	160.3061	248.6141	264.0974	285.2977	350.9148	418.0893	480.843	543.2453	613.6942	633.2918	734.2483	750.443	797.8726	884.4496	944.8413	993.3511	995.4317	1012.6911	1050.9313	1062.3304	1070.7263	1096.253	1136.8851	1198.4245	1218.3245	1253.974	1266.5866	1301.4219	1309.0817	1314.8576	1330.5172	1335.8745	1355.9296	1389.4941	1404.5523	1465.8727	1473.4502	1485.3955	1488.532	1499.3986	1512.0798	1529.8355	2238.3417	2956.2916	2980.8612	3002.7298	3008.7358	3013.9094	3025.9034	3029.4337	3035.1859	3039.4838	3045.7161	3073.2814	3081.2105	3508.7377	3830.069
OCCCCCCC#C	OCCCCCCC#C	
InChI=1S/C8H14O/c1-2-3-4-5-6-7-8-9/h1,9H,3-8H2	InChI=1S/C8H14O/c1-2-3-4-5-6-7-8-9/h1,9H,3-8H2
