18
gdb 115241	4.15028	0.97367	0.82322	6.5464	68.79	-0.2491	0.0553	0.3044	1348.9525	0.149072	-476.263656	-476.254827	-476.253882	-476.297771	31.878	
O	-0.0840348609	 1.4454414429	-0.0016549437	-0.420761
C	 0.0195624378	 0.0319398338	-0.0238757033	-0.094336
C	-1.3943696375	-0.5373046872	 0.0156955983	-0.012781
C	-1.3915754368	-2.0600117685	-0.1090949982	-0.168661
N	-2.6924387806	-2.582210147	 0.2744746453	-0.370156
C	-3.7254893768	-1.9146436025	 0.8817739385	 0.458619
O	-4.8177867063	-2.399146639	 1.0439996008	-0.395757
O	-3.4684831386	-0.6467283929	 1.2969627323	-0.241179
C	-2.1181518487	-0.1743843063	 1.3074640144	-0.071458
H	 0.8023723583	 1.8177114331	 0.0090244777	 0.293535
H	 0.5320402946	-0.3202290178	-0.9335258247	 0.094647
H	 0.5932233345	-0.3418032268	 0.8406378796	 0.092416
H	-1.9610601092	-0.1055552818	-0.8177372867	 0.109267
H	-1.1648385176	-2.361547816	-1.1387347354	 0.116389
H	-0.6026388678	-2.4836623875	 0.5320768744	 0.105762
H	-2.9460663361	-3.5144997008	-0.0086704344	 0.257678
H	-1.5889852	-0.5970298735	 2.1745286781	 0.104633
H	-2.1802458184	 0.9062277278	 1.4356041871	 0.142142
77.0469	92.1146	119.4184	177.8096	225.5827	265.8164	358.4043	406.5532	452.0414	509.5321	519.1656	585.2102	739.5159	762.6943	819.1343	896.6871	922.443	967.0156	1055.2289	1075.6752	1102.4946	1116.0104	1154.157	1168.5392	1235.7162	1242.9692	1257.9892	1279.9477	1302.7637	1328.2895	1382.0298	1406.7984	1429.4005	1462.9693	1481.8977	1514.9512	1520.3156	1532.1201	1844.8842	2959.2758	2976.9836	2989.6191	3000.7852	3038.2037	3056.7621	3133.7004	3652.1493	3836.3154
OCC1CNC(=O)OC1	OC[C@H]1CNC(=O)OC1	
InChI=1S/C5H9NO3/c7-2-4-1-6-5(8)9-3-4/h4,7H,1-3H2,(H,6,8)	InChI=1S/C5H9NO3/c7-2-4-1-6-5(8)9-3-4/h4,7H,1-3H2,(H,6,8)/t4-/m1/s1
