21
gdb 103471	2.36027	1.47955	1.12341	2.1466	78.39	-0.2157	0.0587	0.2744	1180.0084	0.180924	-424.195054	-424.185639	-424.184695	-424.22868	36.644	
C	 0.0335052853	 1.4746669552	-0.2921394934	-0.388627
C	 0.0394203986	 0.0137809566	 0.1751967142	-0.243828
C	-1.3277355218	-0.6348448497	 0.0904051367	 0.325656
O	-2.2662450427	-0.0516358357	 0.9839275366	-0.493841
C	-1.9817294385	-1.1579161722	-1.1791866775	-0.225879
C	-0.9703329055	-1.9155520476	-2.0454215039	-0.240227
C	-0.6627372136	-2.8822986998	-0.8521039238	-0.296382
C	-1.6397768328	-2.1013340349	 0.0101139114	 0.397014
O	-2.4151376344	-2.7266489878	 0.9553544643	-0.46551
H	 1.0314367985	 1.9171645208	-0.2223667825	 0.115672
H	-0.2974478192	 1.5551154108	-1.3335069627	 0.117376
H	-0.6383657599	 2.0811146698	 0.3243535993	 0.111599
H	 0.7580204566	-0.5593632155	-0.4190109857	 0.103209
H	 0.3804179256	-0.041292516	 1.2160969667	 0.105104
H	-2.693200951	 0.6907958188	 0.5453211541	 0.290974
H	-2.929147062	-0.7523793573	-1.5199821562	 0.076693
H	-1.443949647	-2.434096129	-2.8813973987	 0.108173
H	-0.1254050865	-1.3376346153	-2.4337535927	 0.09657
H	-1.0291294352	-3.8926486075	-1.045999212	 0.116861
H	 0.3703982528	-2.9469873034	-0.4955451681	 0.0971
H	-2.8111798574	-2.0173471702	 1.4820584141	 0.292292
75.9804	151.1368	195.2319	238.518	253.0988	269.4019	284.6791	306.12	403.6504	413.0027	470.7761	489.5623	566.5805	655.843	692.0807	754.7924	795.007	802.7911	889.6404	920.483	942.1421	974.8294	991.8746	1011.9527	1058.3806	1086.9713	1104.3176	1117.8129	1186.5586	1192.869	1209.7078	1238.8004	1253.1152	1279.7618	1310.9465	1318.0113	1362.2389	1404.3753	1421.5861	1455.217	1471.3817	1487.6628	1499.9253	1509.9563	1511.2946	3032.038	3037.2442	3045.0366	3052.099	3077.4981	3099.2902	3102.7493	3107.5669	3117.5098	3158.2145	3739.5168	3817.7582
CCC1(O)C2CCC12O	CC[C@@]1(O)[C@H]2CC[C@@]12O	
InChI=1S/C7H12O2/c1-2-6(8)5-3-4-7(5,6)9/h5,8-9H,2-4H2,1H3	InChI=1S/C7H12O2/c1-2-6(8)5-3-4-7(5,6)9/h5,8-9H,2-4H2,1H3/t5-,6-,7+/m1/s1
