19
gdb 27878	1.80517	1.77954	0.90274	2.1725	89.91	-0.1836	0.0229	0.2065	1289.1841	0.160812	-382.147683	-382.138612	-382.137667	-382.181426	35.205	
C	-0.0247167276	 1.5130074514	 0.0103184612	-0.489419
C	 0.0059215072	 0.0028382395	 0.0020285649	 0.353196
C	 0.0255713728	-0.6904660518	-1.2071736254	-0.307529
C	 0.0870765835	-2.0898550058	-1.223228377	 0.345902
N	 0.1686421697	-2.7790334434	-2.4376534951	-0.591557
C	 0.1201071336	-2.7892360871	-0.0137391457	-0.28334
C	 0.0999698966	-2.1030509113	 1.2035164541	 0.345864
N	 0.1944296677	-2.8053359968	 2.4095141039	-0.591547
C	 0.0383856239	-0.7035419381	 1.2033214787	-0.307574
H	 0.9907433788	 1.92813708	 0.0035773031	 0.131544
H	-0.5420779582	 1.9079390145	-0.8690571247	 0.118731
H	-0.5266073299	 1.898523701	 0.9027132112	 0.118668
H	-0.0027541401	-0.1448078746	-2.1461400172	 0.064695
H	-0.2247823456	-2.2825829457	-3.2241508358	 0.242368
H	-0.1676113672	-3.7307053503	-2.4036692846	 0.24071
H	 0.1711321134	-3.8750846562	-0.0199160962	 0.061497
H	-0.1423190075	-3.7565779169	 2.3687358872	 0.240703
H	-0.1908558678	-2.3174708488	 3.2053713054	 0.242364
H	 0.0200934167	-0.1681229194	 2.1484057621	 0.064723
42.1297	189.0907	224.4369	226.9698	280.9087	295.0801	302.4585	315.5536	498.2022	516.1572	526.0033	555.0177	578.7911	584.0992	647.4725	665.0201	711.1153	803.0076	818.0723	837.8704	981.6003	981.8138	1004.9766	1055.4582	1056.067	1122.7592	1128.5481	1188.7527	1220.944	1322.249	1364.5267	1387.6929	1410.412	1474.4733	1489.19	1519.8562	1528.7529	1640.7527	1644.4609	1659.038	1660.271	3026.9436	3084.4246	3110.7623	3152.4354	3159.2613	3162.0672	3559.1984	3559.3312	3656.8951	3657.0479
CC1=CC(N)=CC(N)=C1	Cc1cc(N)cc(N)c1	
InChI=1S/C7H10N2/c1-5-2-6(8)4-7(9)3-5/h2-4H,8-9H2,1H3	InChI=1S/C7H10N2/c1-5-2-6(8)4-7(9)3-5/h2-4H,8-9H2,1H3
