18
gdb 73109	2.78203	1.54436	1.26368	5.0205	71.28	-0.2565	0.0574	0.3139	1046.3429	0.148792	-439.138019	-439.130123	-439.129179	-439.170396	30.675	
C	-0.035931956	 1.5027494919	-0.0514464422	-0.469958
C	-0.0388616745	-0.0155877625	 0.0184992533	 0.299429
C	-1.3501651357	-0.737110349	 0.4595098377	-0.26399
C	-0.5147092208	-1.6652935531	 1.3913387862	-0.252959
C	 0.7222615948	-0.7592674905	 1.1620544709	 0.080388
O	 1.8666196047	-1.3778908322	 0.5880629881	-0.247341
C	 1.7741965746	-1.3197702475	-0.7819905103	 0.4674
O	 2.5864755661	-1.7992974458	-1.5213609368	-0.391286
N	 0.6163259204	-0.649024801	-1.1101400528	-0.404843
H	 0.9812312702	 1.8853990901	-0.183151938	 0.132305
H	-0.6456974505	 1.857802902	-0.890603391	 0.123165
H	-0.4525795547	 1.9343163306	 0.8638739301	 0.123859
H	-2.0195041951	-0.0709756698	 1.0101721295	 0.105956
H	-1.9125146668	-1.2221086614	-0.3401764176	 0.108307
H	-0.8571877489	-1.7559985941	 2.423578581	 0.110628
H	-0.3540689187	-2.6657755599	 0.9853826389	 0.127508
H	 1.0390718077	-0.1590714448	 2.0164324497	 0.095048
H	 0.4978652932	-0.3434889932	-2.0620097467	 0.256383
95.216	125.3648	222.1466	255.4622	323.1245	382.8764	419.2773	442.7273	518.6928	606.2016	652.2939	699.912	764.1612	768.883	818.7125	904.7598	925.2944	931.9597	948.2782	984.0614	993.4574	1079.5238	1136.0336	1159.3872	1183.0822	1208.5527	1225.5832	1242.1812	1266.0553	1286.9317	1306.3527	1376.3995	1411.0184	1412.8681	1470.9589	1488.178	1491.0586	1493.9446	1891.7471	3028.6203	3066.0557	3079.7427	3095.3781	3100.448	3110.5378	3121.07	3139.9285	3657.5355
CC12CCC1OC(=O)N2	C[C@]12CC[C@H]1OC(=O)N2	
InChI=1S/C6H9NO2/c1-6-3-2-4(6)9-5(8)7-6/h4H,2-3H2,1H3,(H,7,8)	InChI=1S/C6H9NO2/c1-6-3-2-4(6)9-5(8)7-6/h4H,2-3H2,1H3,(H,7,8)/t4-,6+/m1/s1
