16
gdb 36469	2.95129	1.08146	0.85317	3.9123	74.47	-0.2776	-0.0074	0.2702	1304.8741	0.122883	-400.70034	-400.691409	-400.690465	-400.735398	31.452	
C	 0.0399806206	-1.1976525864	-0.1774449611	-0.415097
C	-0.0225705436	-0.0028808407	-0.0647920016	 0.282691
C	-0.0531221957	 1.4491275498	 0.0649896666	-0.394373
C	 1.361428016	 2.0352724651	 0.0871159348	-0.055374
C	 2.1687788383	 1.9948510776	-1.2274634979	-0.074546
O	 2.3181091964	 3.4378751552	-1.232403379	-0.271201
C	 1.5306067296	 3.5813855592	-0.0406949679	-0.029644
C	 0.3084817598	 4.3644932829	-0.2573533887	 0.291145
N	-0.6636450273	 4.9697768497	-0.4141592593	-0.325698
H	 0.0748723105	-2.2544929671	-0.276178817	 0.202523
H	-0.6239211081	 1.8857170471	-0.7638226072	 0.155685
H	-0.5848195396	 1.7328307898	 0.9818646326	 0.147627
H	 1.9125727918	 1.6423891124	 0.9426925814	 0.111167
H	 3.1383724756	 1.4898789605	-1.1874735847	 0.121165
H	 1.6100820093	 1.6418335331	-2.1017272821	 0.123926
H	 2.1014008263	 4.0496246519	 0.7701289909	 0.130003
37.8442	69.6218	95.276	154.8461	230.7597	313.289	346.4929	366.3298	491.5491	532.1032	584.9792	630.5734	655.4279	808.6259	812.3052	885.6962	906.2387	959.2141	988.3253	1032.4474	1047.3511	1088.9815	1134.562	1156.6535	1216.6978	1246.9474	1271.2179	1323.1207	1353.8474	1358.2205	1387.0552	1468.1949	1525.8466	2241.1571	2352.8812	3028.5854	3034.705	3039.9935	3061.2706	3087.2681	3107.7537	3505.2898
C#CCC1COC1C#N	C#CC[C@H]1CO[C@H]1C#N	
InChI=1S/C7H7NO/c1-2-3-6-5-9-7(6)4-8/h1,6-7H,3,5H2	InChI=1S/C7H7NO/c1-2-3-6-5-9-7(6)4-8/h1,6-7H,3,5H2/t6-,7-/m0/s1
