19
gdb 81894	3.11976	1.23362	1.038	3.9191	77.37	-0.2546	-0.0396	0.215	1206.5133	0.156599	-423.002013	-422.992836	-422.991892	-423.035865	33.714	
C	-0.4202140868	 1.5416171635	 0.331127127	-0.408703
C	-0.1278421649	 0.0484054942	 0.2712208992	-0.021641
C	 0.265466128	-0.5264024002	-1.0965326045	-0.030843
O	 1.5096335828	 0.0315967113	-1.4815110331	-0.263346
C	 1.5526191815	-1.0641192758	-0.5639479166	 0.319122
C	 2.2408040334	-2.3147433183	-0.9546823953	 0.048012
O	 2.6057139534	-2.5854483753	-2.0707077704	-0.2536
C	 1.2433341973	-0.5151635181	 0.8424109841	-0.090669
C	 2.2624118133	 0.440031486	 1.4479729451	-0.410182
H	 0.3637211339	 2.1150111082	-0.1696283805	 0.137487
H	-1.3718201258	 1.7682387535	-0.1614932206	 0.119177
H	-0.4925867924	 1.8889276877	 1.366752337	 0.119311
H	-0.9599913094	-0.5216143485	 0.6960427006	 0.082989
H	-0.3584858791	-0.931392075	-1.8864766085	 0.119684
H	 2.3787634401	-3.0221683302	-0.1049943188	 0.073916
H	 1.035404583	-1.3421387341	 1.5297066545	 0.082737
H	 2.5508699039	 1.211404863	 0.7298730102	 0.138519
H	 1.8608949947	 0.9328385963	 2.339158129	 0.118962
H	 3.1682598529	-0.0983277882	 1.7469434016	 0.119069
85.8186	117.2482	174.203	208.1253	213.4313	228.8108	248.4678	297.1128	360.9298	481.1209	548.7365	625.5606	705.2727	744.4471	766.0371	845.1634	889.2908	893.2643	994.7201	1007.2351	1020.9291	1051.8363	1063.4926	1084.1265	1118.3495	1162.5251	1175.4781	1214.725	1258.4909	1282.846	1352.9434	1358.6369	1401.6009	1403.7878	1423.6577	1434.7654	1484.5154	1496.4677	1499.0808	1511.2215	1816.6572	2869.3097	3036.2579	3039.2048	3047.8213	3065.2465	3097.6882	3101.0814	3122.8922	3129.0586	3179.2473
CC1C2OC2(C=O)C1C	C[C@H]1[C@H]2O[C@@]2(C=O)[C@H]1C	
InChI=1S/C7H10O2/c1-4-5(2)7(3-8)6(4)9-7/h3-6H,1-2H3	InChI=1S/C7H10O2/c1-4-5(2)7(3-8)6(4)9-7/h3-6H,1-2H3/t4-,5+,6-,7+/m1/s1
