16
gdb 33315	7.09573	0.72799	0.71428	1.8337	94.74	-0.2341	-0.0274	0.2067	1564.1253	0.124168	-363.470839	-363.463022	-363.462078	-363.503588	29.984	
C	-0.030971206	-3.8377072028	-0.122157592	-0.579287
C	-0.0141522663	-2.6311168179	-0.0727963872	 0.29059
C	 0.0038163124	-1.2726603326	-0.0166188005	-0.154997
C	 0.0261078407	-0.0625575344	 0.0377828711	 0.426767
C	-0.000778391	 1.3793538851	 0.0763038237	-0.258841
C	 0.0295494503	 2.1545758681	 1.4275071855	-0.057318
C	 1.5081437745	 1.7220651614	 1.4997840639	-0.177598
N	 1.369001004	 2.1306925645	 0.0166639431	-0.142009
C	 0.5636337957	 3.3204697271	 0.5751538132	-0.165945
H	-0.0438970988	-4.8983789453	-0.1676098664	 0.19344
H	-0.6958009867	 1.7661709186	-0.6763060182	 0.106637
H	-0.7355293285	 2.1551803122	 2.2105330565	 0.077623
H	 2.1983972541	 2.3619780817	 2.0543789105	 0.105619
H	 1.7351718854	 0.6646843868	 1.6434726484	 0.124399
H	-0.1044165139	 3.781258507	-0.1576890394	 0.10436
H	 1.192280444	 4.0650827606	 1.0678852078	 0.106559
79.3137	82.765	225.0686	234.0372	420.985	428.9426	462.8082	525.8421	549.51	595.0738	603.1355	608.7084	749.6063	782.8722	824.8447	847.27	898.3883	907.6922	937.431	1024.9664	1069.4813	1081.5528	1115.4688	1137.1581	1164.4424	1201.0078	1217.728	1228.3882	1240.3094	1279.4942	1379.8846	1511.8702	1548.5967	2179.6075	2352.331	3048.0301	3052.3899	3060.4358	3073.5078	3127.1634	3140.6901	3504.6026
C#CC#CC1C2CN1C2	C#CC#C[C@H]1[C@H]2CN1C2	
InChI=1S/C8H7N/c1-2-3-4-8-7-5-9(8)6-7/h1,7-8H,5-6H2	InChI=1S/C8H7N/c1-2-3-4-8-7-5-9(8)6-7/h1,7-8H,5-6H2/t8-/m0/s1
