18
gdb 20552	4.35676	1.43257	1.41105	2.317	73.69	-0.2366	0.0287	0.2653	985.6842	0.155108	-344.015293	-344.007354	-344.006409	-344.049182	29.179	
C	-0.0595391696	 1.5774945611	 0.1809015318	-0.387288
C	-0.061890194	 0.052826293	 0.0248486267	 0.06157
C	 0.8354418619	-0.642800287	 1.0543492372	-0.387273
N	-1.425115102	-0.4803745051	 0.0662564785	 0.050603
C	-2.3174146926	-0.4378751276	 1.0875083422	-0.034392
C	-3.4623995869	-1.0721856962	 0.6496835956	-0.232311
C	-3.1579646276	-1.468113005	-0.6670811947	-0.007833
N	-1.924552293	-1.1088889513	-1.0177110576	-0.261609
H	 0.9558200739	 1.9657786284	 0.0568919042	 0.121334
H	-0.7034181671	 2.0450625906	-0.5684778489	 0.134637
H	-0.4126428359	 1.8769513127	 1.1732558174	 0.118413
H	 0.2811751287	-0.2042308372	-0.9801411887	 0.114611
H	 0.5138653889	-0.4213609697	 2.0774370997	 0.118412
H	 0.8168987617	-1.7268254366	 0.9153553077	 0.134648
H	 1.8678255129	-0.2967837221	 0.9468472618	 0.121329
H	-2.0778904445	 0.0298041333	 2.0292481187	 0.125863
H	-4.376004238	-1.2232621813	 1.2014024262	 0.100832
H	-3.7800944067	-1.9974229203	-1.3739286779	 0.108455
10.8673	127.8693	221.5569	223.5957	266.6526	320.5185	407.2551	498.5351	641.9434	647.8345	682.6424	765.8225	828.8485	884.9197	888.2808	932.5477	935.2622	949.7452	980.0015	1064.904	1095.3435	1117.5203	1146.5719	1186.66	1227.3745	1261.946	1343.6317	1354.6243	1396.2375	1399.794	1419.7593	1428.0791	1482.3968	1483.7569	1487.4492	1500.2588	1507.5232	1554.019	3037.7443	3041.7983	3085.5446	3105.0267	3117.5636	3123.1149	3125.685	3242.0641	3256.7394	3276.8352
CC(C)N1C=CC=N1	CC(C)n1cccn1	
InChI=1S/C6H10N2/c1-6(2)8-5-3-4-7-8/h3-6H,1-2H3	InChI=1S/C6H10N2/c1-6(2)8-5-3-4-7-8/h3-6H,1-2H3
