13
gdb 130783	3.35655	1.23533	0.9548	5.1304	64.58	-0.2605	-0.0123	0.2482	1145.6696	0.088609	-452.720868	-452.713041	-452.712097	-452.754521	27.759	
O	-0.0973294087	 0.0854969441	-0.8277704668	-0.400378
C	-0.0687918323	 1.2143099613	-0.4231799936	 0.530462
O	-1.1247706194	 2.0766597501	-0.3465582458	-0.237125
N	-0.7026113368	 3.3224428856	 0.1896995375	-0.128716
C	 0.5590486599	 3.1729420357	 0.4075832772	 0.0794
N	 1.0181799803	 1.9334082152	 0.0648616557	-0.147623
C	 2.3656186348	 1.3819169749	 0.1400540453	-0.309916
C	 3.0298444633	 1.6929675483	 1.3991865563	 0.286056
C	 3.585142678	 1.9733268088	 2.425901612	-0.421354
H	 1.1821150799	 3.945816396	 0.8316027453	 0.179596
H	 2.2461900053	 0.3013497062	 0.0052881614	 0.18858
H	 2.9665128835	 1.7460562651	-0.7028696202	 0.162585
H	 4.0768120022	 2.2030994187	 3.3395207257	 0.218432
31.1416	96.11	201.7915	246.6422	266.4889	323.1952	424.3904	578.0271	611.9048	638.5813	689.5619	707.3271	763.0842	804.8673	886.3437	891.0895	946.6735	962.7199	996.712	1120.5894	1196.7077	1230.2099	1324.7472	1371.2776	1438.4253	1491.2434	1645.6686	1882.5187	2249.8737	3028.4042	3080.3789	3267.0415	3500.8992
O=C1ON=CN1CC#C	O=c1oncn1CC#C	
InChI=1S/C5H4N2O2/c1-2-3-7-4-6-9-5(7)8/h1,4H,3H2	InChI=1S/C5H4N2O2/c1-2-3-7-4-6-9-5(7)8/h1,4H,3H2
