17
gdb 54328	2.50218	1.27254	0.94808	4.7609	69.71	-0.25	-0.0428	0.2072	1237.524	0.131476	-458.9667	-458.957051	-458.956107	-459.002322	33.518	
C	 0.9925297649	 0.1357965873	 1.0425368548	-0.50126
C	 0.2039530535	-0.3536271117	-0.1531626197	 0.349342
O	 0.7069548934	-0.5283088556	-1.2410653243	-0.294378
C	-1.2797153592	-0.6219033311	 0.0188145576	 0.265171
C	-2.0299116271	-0.9534582264	-1.2515629924	-0.351656
C	-1.8896070234	 0.0994755172	-2.3432870712	 0.176183
O	-2.0885364137	-0.1245237154	-3.5067184763	-0.246278
C	-1.7905084211	-1.0957317562	 1.3242593181	-0.226612
O	-1.9479942486	 0.2614620543	 0.9436112654	-0.255864
H	 1.9228000621	 0.5847409166	 0.6936256234	 0.152247
H	 0.4122481411	 0.8492923181	 1.631582442	 0.159666
H	 1.2426950784	-0.7111637968	 1.692325604	 0.148629
H	-1.7082294974	-1.9138927597	-1.6629366754	 0.145616
H	-3.0974556029	-1.0335505294	-1.0124261963	 0.136789
H	-1.6308021451	 1.1211044626	-1.9858738017	 0.086198
H	-2.6996887371	-1.6950764307	 1.3308036559	 0.130764
H	-1.1066170576	-1.277655893	 2.1504556459	 0.125443
48.2714	64.6285	102.9217	128.8125	164.548	249.4589	295.6365	326.3615	387.5872	437.9569	499.1211	523.6013	618.4187	678.1675	746.2203	831.3014	900.8576	950.8616	962.1609	1038.579	1041.3935	1067.6487	1133.4258	1138.7728	1170.3944	1220.6613	1283.4869	1329.6498	1378.5283	1387.2455	1428.1229	1433.0909	1467.0061	1476.1029	1526.3053	1795.9859	1841.521	2882.4944	3044.2682	3045.6569	3092.0029	3109.8394	3117.3941	3163.0139	3182.0058
CC(=O)C1(CC=O)CO1	CC(=O)[C@@]1(CC=O)CO1	
InChI=1S/C6H8O3/c1-5(8)6(2-3-7)4-9-6/h3H,2,4H2,1H3	InChI=1S/C6H8O3/c1-5(8)6(2-3-7)4-9-6/h3H,2,4H2,1H3/t6-/m1/s1
