19
gdb 57680	3.9834	0.75581	0.74334	2.5816	72.99	-0.2459	-0.0398	0.2061	1543.9845	0.15374	-460.178832	-460.168212	-460.167267	-460.215411	37.137	
C	 0.1015323783	 1.6033963137	-0.0942060499	-0.398116
C	 0.0145175398	 0.0790968501	 0.0268194754	 0.294505
O	 0.6028476954	-0.2388375228	 1.2935226785	-0.453993
C	-1.4577446326	-0.3949369193	-0.0058781668	-0.308753
C	-2.3107682317	 0.2048878322	 1.0952023224	 0.154062
O	-3.4106795711	 0.6643359582	 0.9225895271	-0.240971
C	 0.8034736833	-0.6116474416	-1.1105147761	-0.30881
C	 2.2720801886	-0.2347715982	-1.1435329148	 0.154012
O	 2.8713784809	 0.0583331535	-2.1463376652	-0.241006
H	 1.1425449361	 1.933947073	-0.0492716384	 0.136888
H	-0.3290601306	 1.939591899	-1.0411266703	 0.131735
H	-0.4396186502	 2.0857027188	 0.7240339181	 0.136944
H	 0.5700315134	-1.19496914	 1.4135355701	 0.280483
H	-1.9280634726	-0.1775655306	-0.9690966765	 0.127819
H	-1.4741004612	-1.4878678305	 0.1285668975	 0.109964
H	-1.8454532373	 0.1809398757	 2.103459654	 0.093622
H	 0.7505856052	-1.7011321744	-0.9585274591	 0.110049
H	 0.3662774201	-0.3974490621	-2.089918183	 0.127865
H	 2.7766172462	-0.2596585447	-0.1543463429	 0.0937
51.3178	66.6177	80.8421	113.1746	158.13	232.2214	249.9343	312.9267	319.3813	359.3203	386.5852	424.619	444.6492	517.2639	596.2294	734.9721	799.671	848.0058	915.2702	939.3943	956.9572	1022.1136	1054.4508	1061.0474	1127.4629	1160.696	1174.7298	1202.0213	1242.1288	1308.5751	1312.4976	1386.9758	1416.2718	1422.8478	1424.2368	1444.9804	1460.7002	1484.5894	1500.876	1828.4657	1832.1458	2909.1882	2911.5478	2994.1817	2999.3163	3050.3544	3094.3921	3101.4237	3125.3142	3130.1531	3792.7841
CC(O)(CC=O)CC=O	CC(O)(CC=O)CC=O	
InChI=1S/C6H10O3/c1-6(9,2-4-7)3-5-8/h4-5,9H,2-3H2,1H3	InChI=1S/C6H10O3/c1-6(9,2-4-7)3-5-8/h4-5,9H,2-3H2,1H3
