19
gdb 102526	2.41221	1.04564	0.85683	1.8939	73.39	-0.2479	0.0241	0.2721	1382.7253	0.156206	-460.106916	-460.096318	-460.095374	-460.142623	38.233	
O	 0.1005935761	 1.4914008546	 0.2167622198	-0.432019
C	 0.072665456	 0.0966309941	 0.003559963	-0.068559
C	-1.3548188338	-0.4826968928	-0.0138182923	-0.018772
C	-2.1128011431	-0.0992314933	-1.2871927397	-0.106833
O	-2.1446627176	 1.3266338865	-1.3943779791	-0.428387
C	-1.3669003176	-2.0258009619	 0.1258000985	-0.077598
O	-0.6926460272	-2.6697792486	-0.9582334418	-0.425957
C	-0.845178796	-2.4640857994	 1.4221497401	 0.294501
C	-0.3879097859	-2.8245022033	 2.4739169151	-0.429328
H	-0.5353251755	 1.868030312	-0.4062007128	 0.288142
H	 0.5823951664	-0.1779360109	-0.9368600097	 0.074893
H	 0.637794216	-0.3548313785	 0.8264156445	 0.109969
H	-1.8873767499	-0.0676957751	 0.8507897338	 0.102609
H	-1.6083300163	-0.5473647609	-2.1531884213	 0.114388
H	-3.1378106358	-0.4994828519	-1.2506787425	 0.093431
H	-2.4269640771	 1.560541987	-2.2830456351	 0.295001
H	-2.4077764579	-2.3647629954	 0.0417189187	 0.117673
H	 0.2506982076	-2.6602398156	-0.7641680946	 0.293048
H	 0.0044556016	-3.1467377965	 3.4071155453	 0.203797
64.3765	95.7249	106.426	165.9073	193.3613	230.2425	263.5715	266.3729	304.4394	317.0228	383.387	416.964	487.1249	558.0446	575.1385	630.6136	676.6518	704.909	862.9932	878.4688	923.6281	989.3785	1053.105	1075.602	1084.7021	1098.3098	1145.202	1211.7667	1238.4308	1263.1793	1289.9199	1294.7216	1319.2014	1372.3321	1396.8928	1417.9393	1456.005	1472.4323	1515.5416	1527.1143	2233.1706	2944.6877	2981.0066	3023.7594	3033.9612	3052.0497	3065.6113	3501.3349	3748.3102	3817.299	3838.0159
OCC(CO)C(O)C#C	OCC(CO)[C@@H](O)C#C	
InChI=1S/C6H10O3/c1-2-6(9)5(3-7)4-8/h1,5-9H,3-4H2	InChI=1S/C6H10O3/c1-2-6(9)5(3-7)4-8/h1,5-9H,3-4H2/t6-/m0/s1
