20
gdb 113046	5.66696	0.68231	0.64456	4.611	80.79	-0.2578	0.0328	0.2906	1728.0028	0.170238	-403.147117	-403.137592	-403.136648	-403.182448	34.148	
C	 0.194209312	 1.1950861746	-0.2010299136	-0.242512
O	-0.0264517748	-0.0647496442	 0.3943938053	-0.237743
C	-1.3184270366	-0.559577186	 0.1860754174	 0.166255
C	-1.6726585409	-1.1792527442	-1.2002608343	-0.29397
C	-2.3764132331	-2.3333276088	-0.4342968518	 0.032415
C	-2.2148853224	-3.7536180804	-0.987175804	-0.359688
C	-2.8116956885	-4.7650582325	-0.1153172789	 0.261382
N	-3.2914709596	-5.5463433003	 0.5882365032	-0.307805
C	-1.5803435277	-1.9308827182	 0.8377195596	-0.271908
H	 1.2154823851	 1.4958387478	 0.0435872771	 0.130407
H	 0.0892668573	 1.1579882169	-1.2957887206	 0.108171
H	-0.5032639061	 1.9542041595	 0.1863880126	 0.106872
H	-2.0709321044	 0.1871259711	 0.4850036792	 0.06802
H	-2.2671512451	-0.5955354393	-1.9063204639	 0.103402
H	-0.7588545528	-1.5269260657	-1.6937252666	 0.108324
H	-3.4411226397	-2.118619963	-0.3055316789	 0.095447
H	-2.678507904	-3.8319383185	-1.9780537566	 0.151138
H	-1.1514796999	-3.9881901645	-1.1157504883	 0.148545
H	-0.6390630306	-2.4842207501	 0.9119170689	 0.117223
H	-2.0905114882	-1.9596685241	 1.8015093942	 0.116025
51.739	65.6326	108.8845	141.2905	198.3482	246.6277	315.2522	381.7731	397.1685	426.6766	453.8575	510.2268	640.3888	786.1989	812.4005	875.2515	928.4897	943.9662	953.0645	1016.5704	1049.7401	1065.1328	1103.1278	1126.5338	1172.3397	1178.2371	1187.406	1221.1045	1244.9805	1257.6629	1269.1084	1275.6573	1300.9814	1329.2358	1377.6359	1403.1224	1464.2067	1470.379	1482.7914	1488.2312	1500.1997	1510.4242	2360.86	2972.7245	2980.8554	3023.785	3034.8975	3051.2502	3060.5752	3065.8653	3079.5199	3115.4615	3118.1667	3129.7688
COC1CC(CC#N)C1	CO[C@H]1C[C@@H](CC#N)C1	
InChI=1S/C7H11NO/c1-9-7-4-6(5-7)2-3-8/h6-7H,2,4-5H2,1H3	InChI=1S/C7H11NO/c1-9-7-4-6(5-7)2-3-8/h6-7H,2,4-5H2,1H3/t6-,7+
