17
gdb 53819	3.35417	1.20315	0.90054	0.9837	71.74	-0.2323	-0.0268	0.2055	1253.268	0.136641	-455.19591	-455.186954	-455.186009	-455.230323	31.862	
N	-0.0979568212	 1.2860535492	-0.2371046888	-0.508841
C	 0.0853951637	-0.0407397926	-0.0792467027	 0.315827
O	 1.1592196872	-0.6106381729	 0.0045706953	-0.373273
C	-1.2716210391	-0.7708339806	-0.0155006107	 0.304685
O	-2.3284035094	-0.1539744863	-0.1055677836	-0.4062
N	-1.202249164	-2.0998072453	 0.1422276766	-0.074009
C	-0.1425678095	-3.1130035396	 0.2786353488	-0.146137
C	-1.2574708229	-4.1930825119	 0.3889892905	-0.255425
C	-2.3076170318	-3.0541750619	 0.2363247722	-0.162058
H	 0.6931467247	 1.9030009703	-0.2988439958	 0.265785
H	-1.0456647422	 1.6259552647	-0.2938313192	 0.281235
H	 0.509271059	-3.1811251128	-0.5947818081	 0.133221
H	 0.4823505226	-2.9730968845	 1.163057132	 0.133308
H	-1.2627236767	-4.9261753228	-0.4179097346	 0.118975
H	-1.2914743208	-4.7155709628	 1.3452499134	 0.119001
H	-2.9578155403	-2.8789062639	 1.0991945842	 0.126985
H	-2.9273007194	-3.0878382762	-0.6653134895	 0.126922
57.141	98.7372	127.6283	159.5406	165.2821	297.7475	325.5588	374.7504	447.5216	502.0847	626.8492	641.0462	683.6074	761.208	828.976	833.4089	871.6643	936.8453	952.7594	1035.3452	1097.8584	1137.9764	1141.6624	1186.9772	1202.622	1224.9471	1270.9834	1292.9706	1327.0186	1349.2403	1480.0909	1497.8298	1504.1995	1526.1746	1577.2508	1740.6291	1799.905	3045.6141	3073.474	3087.3993	3094.3417	3116.4956	3149.3802	3587.3393	3738.3469
NC(=O)C(=O)N1CCC1	NC(=O)C(=O)N1CCC1	
InChI=1S/C5H8N2O2/c6-4(8)5(9)7-2-1-3-7/h1-3H2,(H2,6,8)	InChI=1S/C5H8N2O2/c6-4(8)5(9)7-2-1-3-7/h1-3H2,(H2,6,8)
