21
gdb 96406	2.55298	1.39369	0.95893	4.2004	83.68	-0.2328	0.0307	0.2635	1251.2857	0.184719	-383.293625	-383.28495	-383.284006	-383.326694	33.444	
C	-0.0644937493	 1.4828507653	 0.00497819	-0.339949
N	-0.0030985187	 0.025823842	 0.0023340386	-0.075028
C	-1.3441974647	-0.5532845568	-0.1020367522	-0.128342
C	-1.3018718797	-2.0751003221	-0.2337611958	-0.204018
C	-0.5523871174	-2.6912585413	 0.950705993	-0.218519
C	 0.8306451345	-2.0499988305	 1.0846644412	-0.195622
C	 0.7149345816	-0.511263374	 1.1619175878	-0.082431
C	 2.064589215	 0.0675289137	 1.2546809489	 0.282422
N	 3.1338316361	 0.4937200226	 1.3547645451	-0.334967
H	 0.9431799784	 1.9042983522	 0.0183579835	 0.150044
H	-0.5635869701	 1.8209305083	-0.9074815379	 0.123902
H	-0.6221011755	 1.8891002085	 0.8700589585	 0.096057
H	-1.9656030261	-0.276950037	 0.7752739413	 0.076052
H	-1.825340709	-0.109513333	-0.9795616077	 0.105717
H	-2.324123757	-2.4630857188	-0.2934923404	 0.098415
H	-0.7960124059	-2.338017987	-1.1702604784	 0.109218
H	-1.1244957199	-2.5258949207	 1.8737984208	 0.099038
H	-0.4516067821	-3.7748125888	 0.8318900191	 0.103805
H	 1.3519543468	-2.4098220439	 1.9766260658	 0.115154
H	 1.4495087262	-2.301146483	 0.2167720273	 0.123512
H	 0.1957573667	-0.2491232656	 2.1082436516	 0.09554
94.8042	158.8421	169.7951	238.9043	274.0061	309.514	355.407	384.4371	417.951	447.1548	544.6159	552.2024	567.9704	779.9951	839.8893	857.4463	882.2233	944.9164	952.1715	1025.827	1049.4723	1069.2613	1096.8953	1118.0339	1147.8571	1167.6309	1176.1542	1230.5647	1276.5494	1291.9333	1305.7408	1323.1266	1359.9374	1367.7894	1384.6589	1388.2556	1408.7417	1464.8643	1475.4717	1485.0705	1489.9464	1495.0046	1502.8654	1509.4308	2360.0297	2875.6814	2890.4482	2933.9847	3019.2577	3036.384	3050.0317	3067.1312	3076.3542	3079.0296	3084.1419	3099.3466	3127.002
CN1CCCCC1C#N	CN1CCCC[C@H]1C#N	
InChI=1S/C7H12N2/c1-9-5-3-2-4-7(9)6-8/h7H,2-5H2,1H3	InChI=1S/C7H12N2/c1-9-5-3-2-4-7(9)6-8/h7H,2-5H2,1H3/t7-/m0/s1
