23
gdb 96548	2.17554	1.4931	1.1564	1.2111	81.71	-0.2395	0.0678	0.3073	1200.4831	0.206923	-425.431212	-425.421926	-425.420982	-425.464672	36.148	
C	-0.1495586287	 1.5845155095	 0.2360662644	-0.40623
C	-0.0629892849	 0.0580136993	 0.0816454119	 0.03419
C	 0.3487625864	-0.3036604365	-1.3619924559	-0.180531
C	 0.2233612151	-1.7817034255	-1.7543929803	-0.206673
C	 0.9104857492	-2.7624347945	-0.8046395679	-0.071517
O	 0.2070211453	-2.8417981095	 0.4313017828	-0.246309
C	 0.6652900631	-2.0102200863	 1.4699974063	-0.094287
C	 0.9006768348	-0.5230838805	 1.1379915164	 0.080526
O	 2.2346983171	-0.2745075447	 0.6849298543	-0.429154
H	 0.8351465322	 2.0405342661	 0.091423983	 0.127731
H	-0.8351682812	 2.0172833297	-0.499208589	 0.108011
H	-0.5072802261	 1.8652279979	 1.2325101544	 0.104081
H	-1.053021454	-0.3713497861	 0.2839700037	 0.078583
H	-0.2708950298	 0.287694219	-2.0467095032	 0.084542
H	 1.3803100382	 0.0291262971	-1.5138738035	 0.117039
H	-0.834649762	-2.0687311932	-1.8048447426	 0.099558
H	 0.6346660181	-1.9193342267	-2.7629836865	 0.087437
H	 0.8867566767	-3.7712005024	-1.2331487727	 0.095358
H	 1.9601263909	-2.4857125644	-0.6402880301	 0.10131
H	-0.1048825401	-2.0795835883	 2.2471823887	 0.104389
H	 1.6022975838	-2.4066489699	 1.9042448818	 0.068734
H	 0.739559549	 0.0236175942	 2.0821976129	 0.061454
H	 2.8380122967	-0.5188250743	 1.3933343812	 0.281758
110.8008	125.7602	206.1508	210.1709	255.2551	289.2609	322.1085	339.2331	359.5262	383.4515	413.73	513.115	557.3791	690.2212	766.7385	838.0214	861.9354	880.8335	920.1148	944.9286	974.541	999.5285	1028.4958	1071.455	1077.1664	1087.9088	1143.6779	1152.3814	1176.6127	1216.8118	1259.599	1279.3025	1284.8155	1319.2421	1334.5824	1350.9874	1384.8837	1390.5755	1391.9844	1400.8059	1404.6725	1417.7939	1442.6482	1473.5616	1484.1027	1486.7663	1497.1461	1501.6593	1505.9821	2928.8091	2954.6644	3013.5975	3018.141	3023.4169	3029.9512	3036.1355	3054.2948	3056.5887	3067.1595	3087.8579	3097.5071	3108.5944	3823.5756
CC1CCCOCC1O	C[C@H]1CCCOC[C@H]1O	
InChI=1S/C7H14O2/c1-6-3-2-4-9-5-7(6)8/h6-8H,2-5H2,1H3	InChI=1S/C7H14O2/c1-6-3-2-4-9-5-7(6)8/h6-8H,2-5H2,1H3/t6-,7+/m0/s1
