20
gdb 31237	2.31239	1.32941	0.90422	2.9713	84.11	-0.1709	0.0374	0.2083	1343.41	0.17215	-399.367592	-399.357937	-399.356993	-399.402967	34.792	
C	 0.1926524513	 1.5802913249	-0.2630076187	-0.362973
C	-0.021889518	 0.0760591133	-0.0049345999	-0.314758
C	 0.618190698	-0.4401288982	 1.2407033482	 0.21498
C	 0.1112985247	-0.7622503535	 2.4846109778	 0.260298
N	-1.2232377017	-0.7212832464	 2.8966440765	-0.390401
C	-1.4934488237	-0.9133006675	 4.3149362514	-0.309728
N	 1.10310453	-1.2126655394	 3.3217941794	-0.320379
C	 2.2092443636	-1.1689619977	 2.6086413212	-0.002508
N	 1.9787588122	-0.7041659003	 1.3563872658	-0.299863
H	 1.2573425377	 1.8175252503	-0.3609883374	 0.109899
H	-0.3072798401	 1.896985723	-1.1843241586	 0.111747
H	-0.2003940166	 2.1797317269	 0.563998027	 0.119023
H	-1.0958644321	-0.1338935031	 0.0584858039	 0.114297
H	 0.3361170488	-0.4908750574	-0.8759625388	 0.101563
H	-1.7191635064	 0.0716341152	 2.5159049565	 0.227326
H	-1.127134346	-1.8939664452	 4.6251282963	 0.14468
H	-1.0149202652	-0.1646227368	 4.9641398662	 0.108464
H	-2.5752489041	-0.8791907606	 4.4705773234	 0.106431
H	 3.1913202206	-1.4594639989	 2.9500757724	 0.123345
H	 2.6624213672	-0.5897998584	 0.6273322874	 0.258556
43.8177	61.5608	142.9858	164.0389	179.3862	235.4188	285.3687	306.5255	401.9537	471.2339	488.6319	578.7649	638.3022	674.3783	740.0137	772.7951	780.5077	784.4939	954.7791	960.4377	1031.5981	1074.6926	1084.0359	1112.5971	1135.2089	1154.7138	1203.3779	1243.6487	1290.1034	1341.6123	1351.4881	1391.65	1410.6599	1451.0413	1462.5491	1480.4766	1482.2998	1496.3686	1499.1781	1504.6774	1514.4992	1530.9669	1644.4956	2989.8376	3004.6921	3031.4291	3058.4604	3083.0893	3100.771	3107.8916	3130.3924	3250.7405	3586.0741	3664.6091
CCC1=C(NC)N=CN1	CCc1c(NC)nc[nH]1	
InChI=1S/C6H11N3/c1-3-5-6(7-2)9-4-8-5/h4,7H,3H2,1-2H3,(H,8,9)	InChI=1S/C6H11N3/c1-3-5-6(7-2)9-4-8-5/h4,7H,3H2,1-2H3,(H,8,9)
