16
gdb 131792	6.57956	0.75547	0.68339	3.1138	66.99	-0.2216	0.0213	0.2429	1548.3097	0.12516	-471.244991	-471.236072	-471.235128	-471.280087	31.326	
O	-0.1305457745	 1.4532458703	 0.0018151137	-0.423068
C	 0.0422239456	 0.0449605798	 0.008090704	-0.070696
C	-1.3582111353	-0.5600849697	 0.0078873598	-0.30681
C	-1.3528352485	-2.0509092957	 0.0139771014	 0.406766
N	-0.290410427	-2.798255602	 0.0182974943	-0.271695
N	-0.7766058414	-4.088044374	 0.0228933781	-0.299642
C	-2.1520283606	-4.1739525045	 0.0216745396	 0.460497
O	-2.876872782	-5.1440534921	 0.0247426984	-0.420915
N	-2.4981656893	-2.8148036699	 0.0158212758	-0.406825
H	 0.7399010175	 1.8613063465	 0.0024823495	 0.290325
H	 0.5965041039	-0.304038076	-0.874099041	 0.109237
H	 0.5930295685	-0.2965925451	 0.895355463	 0.109203
H	-1.9060489081	-0.1864502603	 0.8824486236	 0.133412
H	-1.9026600057	-0.1935628097	-0.8717929066	 0.13344
H	-0.1433904968	-4.8674958412	 0.0270796299	 0.280415
H	-3.4506079663	-2.4933642366	 0.0128566566	 0.276357
24.1628	82.3422	129.8518	170.5226	250.6256	280.7777	332.2852	365.9096	420.5841	506.5463	525.9725	675.737	719.9071	756.8154	798.1638	807.7786	990.5763	1019.7422	1030.6117	1075.5087	1094.4521	1102.7597	1198.9455	1216.9598	1249.2848	1272.7061	1302.9006	1342.8661	1387.4378	1455.3252	1476.0902	1494.8066	1525.8918	1647.4693	1859.5493	3001.0994	3027.7901	3029.9389	3063.4241	3686.1291	3701.559	3837.2394
OCCC1=NNC(=O)N1	OCCc1n[nH]c(=O)[nH]1	
InChI=1S/C4H7N3O2/c8-2-1-3-5-4(9)7-6-3/h8H,1-2H2,(H2,5,6,7,9)	InChI=1S/C4H7N3O2/c8-2-1-3-5-4(9)7-6-3/h8H,1-2H2,(H2,5,6,7,9)
