18
gdb 121067	3.23566	0.99215	0.84811	5.3003	68.9	-0.2602	0.0522	0.3124	1380.387	0.14838	-476.261215	-476.252397	-476.251453	-476.295692	31.285	
C	-0.0039875418	 1.3130622267	-0.2040742136	-0.23248
O	-0.0231587855	-0.0870876603	-0.0305150051	-0.241284
C	-1.3238453179	-0.6206426367	 0.0562811748	-0.065657
C	-1.186352421	-2.1393552417	 0.1548835311	-0.02339
C	-2.5324629325	-2.8843470704	 0.0404681802	-0.102676
O	-2.6278563332	-3.2751382461	-1.3323377908	-0.238504
C	-1.3936834594	-3.1870930776	-1.9261193775	 0.471616
O	-1.1854351039	-3.5010045559	-3.0632054078	-0.386807
N	-0.4990881598	-2.7075873622	-0.9899482379	-0.353731
H	 1.0427012095	 1.6187377679	-0.2660661618	 0.134806
H	-0.5207252466	 1.6137204916	-1.128039059	 0.114721
H	-0.4779533877	 1.8325595226	 0.64256652	 0.110617
H	-1.8542014952	-0.2311703691	 0.942430177	 0.092127
H	-1.9183492032	-0.353849855	-0.8344694127	 0.102366
H	-0.6672591274	-2.3871453278	 1.086001262	 0.102695
H	-2.5507632121	-3.7794260715	 0.6709226539	 0.124459
H	-3.3936840166	-2.2574876429	 0.2867664919	 0.124065
H	 0.3401705545	-2.2662306017	-1.3323554947	 0.267056
56.8004	107.9213	128.0225	147.947	202.0462	234.8808	345.0912	372.068	503.5334	514.053	570.3791	717.9659	765.2929	774.0386	876.9467	925.2714	959.1501	988.8975	1024.7006	1086.3989	1133.7464	1139.662	1167.8099	1185.7523	1215.3563	1227.595	1239.2549	1268.9798	1293.8286	1371.6852	1402.2714	1422.8001	1431.4334	1481.3026	1486.9417	1501.1853	1518.5811	1524.0336	1895.434	2950.1246	2981.4271	2985.0107	3029.4445	3044.9516	3063.1461	3099.1286	3122.4728	3646.6428
COCC1COC(=O)N1	COC[C@H]1COC(=O)N1	
InChI=1S/C5H9NO3/c1-8-2-4-3-9-5(7)6-4/h4H,2-3H2,1H3,(H,6,7)	InChI=1S/C5H9NO3/c1-8-2-4-3-9-5(7)6-4/h4H,2-3H2,1H3,(H,6,7)/t4-/m0/s1
