19
gdb 50718	2.87021	1.39588	0.98912	5.0675	78.07	-0.245	-0.0186	0.2264	1190.9786	0.16213	-419.256343	-419.248228	-419.247284	-419.289274	30.893	
N	-0.1784431614	 1.2675122195	-0.3309081994	-0.48711
C	-0.0724476594	 0.0326465949	-0.0679104906	 0.350133
C	-1.3256430964	-0.7802293072	 0.2009372279	-0.246685
C	-1.1550288809	-1.9279642925	 1.1995492813	-0.213476
C	 0.0453674866	-2.7812876422	 0.7891448355	-0.203558
C	 1.29819101	-1.9131907865	 0.7598590653	-0.167957
N	 1.1481057341	-0.7217323065	-0.0958522195	-0.12795
C	 2.2769217692	-0.2687972911	-0.7443772647	 0.161028
O	 2.4020916384	 0.7741156586	-1.347419009	-0.323661
H	 0.7231264627	 1.6720944319	-0.5817755606	 0.250238
H	-2.1005963696	-0.0747520369	 0.5044503916	 0.132763
H	-1.6399704905	-1.2013877409	-0.7648585591	 0.12335
H	-0.9933204385	-1.5301284575	 2.2098293069	 0.106195
H	-2.0690516296	-2.5284537941	 1.2377642365	 0.105434
H	 0.2080157802	-3.6079074191	 1.4884100881	 0.10689
H	-0.1259124061	-3.2192745189	-0.2019522139	 0.109475
H	 1.5358672997	-1.5927100105	 1.7844263442	 0.119986
H	 2.1592076186	-2.478827658	 0.3923592017	 0.119767
H	 3.101827443	-1.0036930531	-0.6678699421	 0.085138
68.8785	120.7104	220.685	265.6354	289.4627	333.8944	389.9192	440.5751	486.9952	517.9582	623.1049	663.7727	729.8084	829.7207	884.7645	926.3034	948.3079	966.2066	982.1501	1026.5427	1064.9748	1098.9816	1117.4686	1159.4311	1180.9047	1221.7965	1268.9623	1284.5035	1327.4805	1354.5342	1364.1658	1384.0741	1386.3396	1420.5311	1458.9432	1470.2949	1486.8072	1496.2847	1511.2986	1710.5437	1802.665	2938.0413	3001.	3012.5384	3027.1482	3034.4818	3080.0697	3080.9916	3086.6808	3122.0187	3497.3023
N=C1CCCCN1C=O	[NH][C]1CCCCN1C=O	
InChI=1S/C6H10N2O/c7-6-3-1-2-4-8(6)5-9/h5,7H,1-4H2	InChI=1S/C6H10N2O/c7-6-3-1-2-4-8(6)5-9/h5,7H,1-4H2
