23
gdb 68929	2.25507	1.70658	1.16643	1.6721	85.05	-0.2498	0.0847	0.3345	1168.9689	0.205975	-388.31275	-388.303581	-388.302637	-388.345972	36.129	
C	-0.1227622432	 1.5519763263	-0.0556438161	-0.467844
C	 0.1044678328	 0.0554133204	 0.0014101136	 0.336752
C	 0.1251681873	-0.6083247484	-1.3687750054	-0.252553
C	 0.3553954294	-2.120444125	-1.3061849231	-0.207381
C	 1.6108885552	-2.4267278916	-0.4863025132	-0.200632
C	 1.4648591352	-1.9624122176	 0.9698131508	-0.256689
C	 0.7723192469	-0.6102342003	 1.149924857	 0.336316
C	 1.2507194317	 0.1553906756	 2.3669600169	-0.470825
O	-0.6622679225	-0.656642098	 0.9885250092	-0.329465
H	 0.6957120925	 2.0463357754	-0.590549294	 0.117297
H	-1.0498661972	 1.7653948403	-0.5995067764	 0.123005
H	-0.2077494162	 1.9974128589	 0.9355927369	 0.124558
H	-0.8220106649	-0.383002721	-1.8757598639	 0.097676
H	 0.9159880158	-0.1360540159	-1.9680631278	 0.095156
H	-0.5155274377	-2.601700682	-0.848003906	 0.111873
H	 0.4509996433	-2.5208213075	-2.321096126	 0.088384
H	 1.8417019095	-3.497313945	-0.5087124436	 0.092362
H	 2.4668815533	-1.9160494169	-0.9484022089	 0.090998
H	 0.8761488842	-2.692673435	 1.5400054374	 0.111276
H	 2.4510023368	-1.9246581286	 1.4461607203	 0.093491
H	 2.2832464723	 0.496096094	 2.2313509301	 0.11719
H	 0.6215943989	 1.0189246294	 2.5838777058	 0.125801
H	 1.2321559365	-0.4998499375	 3.2455193564	 0.123253
116.372	142.1217	162.2647	178.7173	299.9188	310.7407	336.6899	345.217	407.1338	425.0948	482.3767	544.6501	569.3492	644.0544	697.0857	820.5224	849.3034	864.0482	885.9048	924.1511	931.4948	982.816	1015.778	1035.0192	1068.8238	1088.2916	1123.4382	1142.3416	1172.241	1207.0817	1217.4646	1223.848	1280.371	1311.6553	1373.7935	1375.4003	1381.9674	1393.0915	1405.2794	1417.5959	1443.658	1474.2783	1475.7825	1477.4804	1485.373	1488.4379	1500.73	1503.8273	1516.834	3009.9812	3013.11	3023.1402	3033.2617	3037.6058	3037.6454	3048.3668	3062.4364	3070.2474	3085.2275	3089.5937	3092.8953	3137.3063	3151.6567
CC12CCCCC1(C)O2	C[C@@]12CCCC[C@]1(C)O2	
InChI=1S/C8H14O/c1-7-5-3-4-6-8(7,2)9-7/h3-6H2,1-2H3	InChI=1S/C8H14O/c1-7-5-3-4-6-8(7,2)9-7/h3-6H2,1-2H3/t7-,8+
