14
gdb 10910	3.20273	2.1343	1.45529	1.467	59.16	-0.2362	-0.0172	0.219	828.0523	0.105862	-419.652561	-419.645106	-419.644161	-419.684198	27.811	
O	-0.1859931153	 1.5214428507	-0.0417913303	-0.428992
C	-0.0359573693	 0.1191698267	 0.0161835966	-0.005186
C	-1.3489859935	-0.6365140547	 0.1185532373	-0.14214
C	-2.2300608618	-0.271440708	-1.0324949937	-0.321064
C	-1.1419707506	-1.2437300559	-1.3698663249	 0.316146
O	-1.4409296925	-2.4503752908	-1.9270728159	-0.438171
C	 0.2198778138	-0.6692950193	-1.3071732397	 0.274877
O	 1.2389595501	-1.0292389696	-1.8455550279	-0.346757
H	 0.6560661944	 1.8961703006	-0.3221133104	 0.294845
H	 0.7019359766	-0.1828020383	 0.7724955954	 0.09254
H	-1.6947291874	-1.1802636975	 0.986572291	 0.119766
H	-3.2065098827	-0.7470245017	-1.0313071581	 0.136963
H	-2.2173445708	 0.7416364691	-1.419347964	 0.14259
H	-0.6135597609	-2.9459480912	-1.9963127556	 0.304582
85.2853	187.5887	223.9697	290.0421	300.0773	382.7089	410.2089	470.7537	549.5777	632.4877	659.0149	715.5036	824.7296	880.0578	898.9247	944.7934	974.2356	1031.4944	1084.5441	1124.6514	1130.1996	1157.954	1226.5778	1278.737	1299.0756	1386.2369	1409.5616	1425.3577	1497.4251	1831.0531	3013.3325	3130.461	3214.6845	3223.5892	3761.5063	3811.6648
OC1C2CC2(O)C1=O	O[C@H]1[C@H]2C[C@@]2(O)C1=O	
InChI=1S/C5H6O3/c6-3-2-1-5(2,8)4(3)7/h2-3,6,8H,1H2	InChI=1S/C5H6O3/c6-3-2-1-5(2,8)4(3)7/h2-3,6,8H,1H2/t2-,3+,5+/m1/s1
