17
gdb 99076	4.23971	0.75776	0.72714	3.97	72.04	-0.2653	-0.0319	0.2335	1552.1826	0.131697	-458.932895	-458.922675	-458.92173	-458.969191	35.96	
O	-0.1219702123	 1.3453324225	-0.5247362633	-0.418874
C	-0.3206176166	-0.0336663549	-0.5533735352	-0.135857
C	-1.4384411654	-0.4625635322	 0.3753970396	 0.371435
O	-2.060200961	 0.3733718269	 0.9966358266	-0.332408
C	-1.7738111747	-1.9409440563	 0.4636744466	-0.307958
C	-3.1664277069	-2.19568724	-0.1636993754	-0.041199
O	-3.1848217778	-1.7992961397	-1.5324470353	-0.423327
C	-3.5786240419	-3.5876350785	 0.0082296162	 0.285622
C	-3.8796742547	-4.7464358336	 0.1151764737	-0.428417
H	-0.8171318449	 1.6874036342	 0.0601684002	 0.294665
H	-0.5978842476	-0.3942522336	-1.5601814388	 0.120999
H	 0.5975007587	-0.5764268915	-0.2718334507	 0.114126
H	-1.0242952269	-2.5539876953	-0.0471003848	 0.111434
H	-1.7973610181	-2.2289598229	 1.5192841615	 0.145551
H	-3.8784410702	-1.5324846508	 0.340185187	 0.146163
H	-2.8420643406	-2.5323581236	-2.0556486596	 0.290701
H	-4.1686145392	-5.7636315907	 0.2183221017	 0.207344
34.9612	58.8263	98.7643	151.6928	185.3717	237.2699	270.1852	292.4142	365.1184	391.0127	424.0177	484.3176	553.0354	571.3753	641.8585	682.4704	690.6147	814.7983	849.7152	958.9236	990.2075	1028.0332	1068.5878	1108.9496	1146.9223	1209.4659	1246.675	1276.8213	1288.2146	1316.3024	1356.6463	1422.5345	1447.1406	1466.8954	1488.7803	1796.3372	2235.2482	2960.169	2982.7817	3049.9383	3060.1787	3107.8296	3501.1763	3686.0621	3809.6532
OCC(=O)CC(O)C#C	OCC(=O)C[C@@H](O)C#C	
InChI=1S/C6H8O3/c1-2-5(8)3-6(9)4-7/h1,5,7-8H,3-4H2	InChI=1S/C6H8O3/c1-2-5(8)3-6(9)4-7/h1,5,7-8H,3-4H2/t5-/m0/s1
