25
gdb 95753	2.41863	1.27434	1.06107	1.1687	88.89	-0.2412	0.0765	0.3177	1313.6521	0.228916	-389.519133	-389.509391	-389.508447	-389.552657	38.739	
C	 0.0462271697	 1.5644192897	 0.0761977432	-0.39963
C	 0.031077574	 0.0425220505	 0.0440947092	 0.126498
C	 0.6216233652	-0.5278996451	-1.252755719	-0.204889
C	 0.7462996962	-2.0709563211	-1.2484987571	 0.260957
C	-0.6368076088	-2.7355982028	-1.3946446047	-0.417043
C	 1.6239298981	-2.5127025803	-2.4303693524	-0.420778
C	 1.4218830576	-2.4863643536	 0.0799023611	-0.212124
C	 0.7843180633	-1.8136459834	 1.2970593073	-0.089232
O	 0.7769014109	-0.4028333208	 1.1726867458	-0.257771
H	 1.0709190743	 1.9371364599	-0.0200348004	 0.120727
H	-0.5512002438	 1.9738820808	-0.7439567555	 0.110684
H	-0.3624609968	 1.9290057261	 1.0224672441	 0.120514
H	-1.0119881091	-0.304526483	 0.1527121819	 0.060753
H	 0.0149937199	-0.2020070898	-2.1073535047	 0.085883
H	 1.620146211	-0.090197554	-1.3836369262	 0.091103
H	-1.1106112053	-2.4366929413	-2.3363259523	 0.109547
H	-0.541123593	-3.82706044	-1.4027224278	 0.109212
H	-1.3228127265	-2.4721903667	-0.5851978518	 0.113938
H	 2.6230030314	-2.0676464608	-2.3701979211	 0.109161
H	 1.7423633141	-3.6021970532	-2.4479315325	 0.106868
H	 1.1796752445	-2.2107855878	-3.3858627985	 0.106926
H	 1.3906182905	-3.5767449117	 0.2000177979	 0.086625
H	 2.4796017172	-2.1965630086	 0.0471886857	 0.095795
H	-0.242803469	-2.1844091305	 1.4543319678	 0.084089
H	 1.3545060145	-2.0371794024	 2.2040985	 0.102185
134.9281	155.1792	210.1608	222.2148	238.3097	270.5361	286.6988	319.4743	332.5813	402.1908	420.5578	455.8807	473.1154	493.8881	600.1202	730.9717	822.8981	861.2246	873.7587	913.0824	941.4941	946.7589	976.0971	997.5823	1006.4492	1043.2393	1073.0613	1094.3547	1132.1957	1159.0562	1197.9028	1213.2515	1219.632	1278.514	1291.7934	1319.8577	1323.4072	1370.7526	1376.0878	1395.2771	1399.4213	1409.6956	1417.5025	1424.5129	1465.3765	1473.4974	1483.1737	1485.5375	1493.6731	1497.6396	1501.0514	1506.6263	1513.1893	2941.9972	2962.8137	3011.5043	3017.3137	3021.4842	3031.8714	3040.8644	3055.2777	3061.5566	3076.3077	3085.9972	3092.6201	3092.8893	3110.6419	3114.001	3120.0698
CC1CC(C)(C)CCO1	C[C@H]1CC(C)(C)CCO1	
InChI=1S/C8H16O/c1-7-6-8(2,3)4-5-9-7/h7H,4-6H2,1-3H3	InChI=1S/C8H16O/c1-7-6-8(2,3)4-5-9-7/h7H,4-6H2,1-3H3/t7-/m0/s1
