16
gdb 44644	2.99723	1.73504	1.54924	3.3667	67.15	-0.2471	0.0179	0.265	893.9422	0.126387	-437.854809	-437.848123	-437.847179	-437.886033	26.445	
O	-0.0555634258	 0.0341872017	 0.1023688677	-0.356668
C	-0.013154641	 1.230244904	 0.0066591863	 0.416195
N	-1.0030873359	 2.200822302	-0.0305506865	-0.302033
C	-0.0867710891	 3.3351606236	-0.0086715785	-0.017096
C	 0.4103595845	 3.8113254449	 1.406607371	 0.10192
O	-0.1870265393	 3.1266227486	 2.5155466938	-0.295199
C	 0.9274845204	 2.192003407	 2.5961144514	-0.10256
C	 1.5876813475	 2.8102640139	 1.348773122	-0.086275
C	 1.0938679451	 2.3094766107	-0.0547668389	-0.215462
H	-1.9406495624	 2.1366692096	 0.3426997153	 0.255175
H	-0.2643688995	 4.0996845737	-0.7662838288	 0.08707
H	 0.5051387759	 4.8898484601	 1.5590750939	 0.080441
H	 1.4940344169	 2.3432175305	 3.5221800034	 0.106158
H	 0.603747174	 1.1489278039	 2.5284216102	 0.136448
H	 2.6347942147	 3.09923589	 1.4089623753	 0.090823
H	 1.826402044	 2.2589480257	-0.8570547375	 0.101063
94.0856	174.7869	271.0506	363.2552	447.5762	504.2994	568.1801	668.5037	723.3758	752.6224	784.8163	820.6348	862.8953	883.1863	911.2435	957.9573	985.4477	1017.3553	1039.4279	1057.5917	1082.4212	1125.8156	1143.2899	1158.3898	1181.392	1203.0303	1225.5374	1242.2979	1287.1692	1311.6524	1330.0692	1359.2863	1361.9348	1525.6984	1885.6828	3030.0377	3070.698	3089.8912	3101.8955	3131.8924	3149.2651	3591.7739
O=C1NC2C3OCC3C12	O=C1N[C@H]2[C@H]3OC[C@H]3[C@@H]12	
InChI=1S/C6H7NO2/c8-6-3-2-1-9-5(2)4(3)7-6/h2-5H,1H2,(H,7,8)	InChI=1S/C6H7NO2/c8-6-3-2-1-9-5(2)4(3)7-6/h2-5H,1H2,(H,7,8)/t2-,3+,4+,5-/m0/s1
