22
gdb 118882	2.85933	1.1515	0.99109	1.694	82.26	-0.2288	0.0796	0.3084	1321.4207	0.192701	-404.298942	-404.289459	-404.288515	-404.333327	35.872	
C	-0.2101094813	 1.5257363713	 0.1512559219	-0.38162
C	-0.0395239398	 0.0204269557	 0.0240828494	-0.054198
O	-1.3235129657	-0.552418881	-0.159000679	-0.298676
C	-1.3967914081	-1.9619739388	-0.0555477477	 0.418104
C	-0.5908732624	-2.6771208821	-1.1367979062	-0.460888
C	-1.2270318474	-2.5811304725	 1.3705594719	-0.230253
N	-2.6229858502	-3.1453681429	 1.3480543103	-0.130369
C	-3.5095869161	-1.9724001131	 1.2440031015	-0.2441
C	-2.8441848457	-2.4394402496	 0.0158944818	-0.072689
H	 0.7622146837	 2.0116984458	 0.2767925904	 0.113658
H	-0.6883720337	 1.9321244275	-0.7445010837	 0.128044
H	-0.8370017104	 1.7709832386	 1.0132777033	 0.123289
H	 0.6202491555	-0.2145780703	-0.8246497684	 0.092125
H	 0.4380191802	-0.3887037996	 0.9289801831	 0.087878
H	 0.4848703501	-2.5236957308	-1.0089863209	 0.118929
H	-0.7806892976	-3.7536462801	-1.1006829021	 0.129818
H	-0.8784038173	-2.3067637446	-2.1262537092	 0.123164
H	-0.4907972983	-3.3858062708	 1.4264455644	 0.107395
H	-1.0564957183	-1.8717678118	 2.186916829	 0.102235
H	-4.5587036614	-2.2236121646	 1.3659668577	 0.119311
H	-3.2030347	-1.0313032417	 1.6931005998	 0.119578
H	-3.3772933958	-2.9157542946	-0.8012473374	 0.089264
62.9681	100.249	135.5222	199.3851	238.0532	255.3304	286.2145	336.7453	384.0942	429.9182	475.7643	523.1804	661.2085	752.0705	782.042	821.5996	840.92	900.1939	913.1558	941.8607	970.4629	977.587	1008.6439	1058.0117	1090.6319	1108.0635	1109.5103	1138.1956	1177.1068	1188.3425	1197.1599	1207.6274	1230.7483	1254.4541	1283.7729	1299.7587	1382.0828	1399.3412	1402.8761	1426.7629	1483.3056	1483.559	1489.905	1494.7562	1499.6987	1503.4838	1528.6556	2971.9322	3003.3473	3037.4149	3043.8946	3045.8378	3108.6462	3110.2087	3112.0984	3116.4922	3118.3158	3121.0686	3157.4769	3204.0554
CCOC1(C)CN2CC12	CCO[C@@]1(C)CN2C[C@@H]12	
InChI=1S/C7H13NO/c1-3-9-7(2)5-8-4-6(7)8/h6H,3-5H2,1-2H3	InChI=1S/C7H13NO/c1-3-9-7(2)5-8-4-6(7)8/h6H,3-5H2,1-2H3/t6-,7-,8?/m0/s1
