21
gdb 119618	4.07389	0.93946	0.86211	1.4424	79.11	-0.2286	0.0835	0.3122	1418.5313	0.18258	-424.201071	-424.192112	-424.191168	-424.235208	33.333	
C	 0.0219491337	 1.3849977598	-0.3299002807	-0.220396
O	 0.0089873168	-0.0180677619	-0.2321318056	-0.235479
C	-1.2706736184	-0.5345603971	 0.0820913202	-0.164983
C	-1.1795275883	-2.0263055814	 0.2024481967	 0.315213
C	-1.3008428768	-2.906305724	-1.0340630945	-0.366722
C	-2.3666273596	-2.9359140195	 0.0312062807	 0.068764
O	-2.348731744	-3.959994072	 0.9885884342	-0.259134
C	-1.0271316361	-4.0310719315	 1.5277153607	-0.096427
C	-0.4056533074	-2.6255486168	 1.3706104868	-0.291757
H	 1.0445262615	 1.6882874981	-0.5676446695	 0.126509
H	-0.64939969	 1.7471547099	-1.1254512902	 0.101488
H	-0.2806781579	 1.8656944667	 0.6145473691	 0.101866
H	-1.6305741783	-0.096299251	 1.030464589	 0.083772
H	-1.9976456802	-0.2549314286	-0.7002737677	 0.080209
H	-1.5457181932	-2.4058360072	-1.9651723667	 0.113191
H	-0.6396147248	-3.7583666076	-1.1481550783	 0.11545
H	-3.3731207369	-2.5888573214	-0.1736815241	 0.099721
H	-1.107432534	-4.3608554718	 2.5670118964	 0.110439
H	-0.437951979	-4.7811082779	 0.9820483074	 0.099961
H	 0.6737375379	-2.6708067962	 1.2047261436	 0.114768
H	-0.5819411851	-2.0157172585	 2.2641150425	 0.103546
66.3236	99.8479	117.8929	210.9797	229.3793	277.4444	329.7103	347.6997	393.2745	456.1884	649.1444	700.7873	723.8246	835.746	869.4791	907.4383	938.1708	945.1552	974.9276	991.556	1014.1986	1037.4862	1051.106	1080.4432	1115.6111	1149.2027	1169.8231	1183.1466	1212.7063	1223.4039	1233.614	1244.631	1269.1754	1307.8972	1331.1199	1375.9926	1407.9147	1430.6942	1479.7375	1481.7259	1484.7366	1495.7062	1502.7639	1521.1753	1527.8411	2936.0098	2965.0729	2967.4542	3004.33	3006.8394	3041.6051	3086.455	3100.8508	3112.5625	3131.2767	3177.0034	3216.933
COCC12CC1OCC2	COC[C@]12C[C@H]1OCC2	
InChI=1S/C7H12O2/c1-8-5-7-2-3-9-6(7)4-7/h6H,2-5H2,1H3	InChI=1S/C7H12O2/c1-8-5-7-2-3-9-6(7)4-7/h6H,2-5H2,1H3/t6-,7+/m1/s1
