17
gdb 49890	3.1211	1.11955	0.87231	3.1319	76.	-0.245	-0.0384	0.2066	1278.5471	0.135237	-421.866303	-421.857935	-421.856991	-421.900513	30.357	
O	-0.1733551624	-0.0008903289	-0.041346809	-0.237362
C	-0.0465930797	 1.1933621083	-0.0621049764	 0.152785
C	 1.2816780392	 1.9358042205	 0.0289942968	-0.123265
C	 1.4643503933	 2.7870922039	-1.2502802772	-0.330769
C	 2.5552106075	 3.8335418815	-1.0893695834	 0.381596
O	 3.4609647967	 3.9563041034	-1.8773366796	-0.300785
C	 2.4106514092	 4.7324292906	 0.1320790886	-0.353729
C	 1.7746717718	 4.0402891459	 1.3081763516	-0.071297
C	 1.2959380161	 2.7979291903	 1.2714823096	-0.070349
H	-0.9286844718	 1.8713179994	-0.1528580123	 0.078399
H	 2.0627801693	 1.1681167128	 0.0904476111	 0.117727
H	 1.6906063925	 2.1669564956	-2.119734805	 0.136635
H	 0.5239096386	 3.3244504128	-1.4457080773	 0.123504
H	 3.4017499951	 5.1242928785	 0.3853716901	 0.142308
H	 1.813229436	 5.6095557078	-0.1622504281	 0.140716
H	 1.7507337817	 4.5965411491	 2.2419926941	 0.105972
H	 0.8945202768	 2.3497459485	 2.1768974063	 0.107915
47.5013	75.1038	92.7188	255.8976	288.893	359.3857	400.1819	451.2147	484.6437	559.751	581.6557	704.9094	735.0224	820.2849	901.5804	907.1326	942.8282	990.0715	1001.6979	1024.1717	1081.325	1097.1924	1128.2091	1201.2815	1235.2226	1237.6163	1248.6324	1310.2871	1331.9549	1339.3473	1411.1859	1419.2184	1441.4503	1463.6017	1720.7137	1826.7531	1839.9735	2850.7607	2998.3608	3005.6812	3039.7256	3070.8755	3117.6365	3149.1588	3171.1693
O=CC1CC(=O)CC=C1	O=C[C@H]1CC(=O)CC=C1	
InChI=1S/C7H8O2/c8-5-6-2-1-3-7(9)4-6/h1-2,5-6H,3-4H2	InChI=1S/C7H8O2/c8-5-6-2-1-3-7(9)4-6/h1-2,5-6H,3-4H2/t6-/m1/s1
