19
gdb 7437	3.17133	1.52196	1.1769	4.2641	69.57	-0.2472	0.0212	0.2684	1077.78	0.163598	-402.229484	-402.219766	-402.218822	-402.26388	34.266	
C	 0.0436492166	 1.5972867013	 0.1603675812	-0.393934
C	 0.0467649267	 0.0633050126	 0.0390053292	 0.036786
O	 0.8110354394	-0.5061615118	 1.0703675551	-0.439275
C	-1.3881925876	-0.4961204443	 0.153074586	 0.400722
O	-1.7098695614	-1.0109062275	 1.2202698708	-0.409762
N	-2.2525811186	-0.3826850524	-0.8916180263	-0.088989
C	-3.6257103766	-0.8390731281	-0.7293609529	-0.34733
C	-1.9367155918	 0.1783103992	-2.1917391375	-0.337891
H	 1.0771735279	 1.9514598378	 0.1889577635	 0.132078
H	-0.4701968705	 2.0875318061	-0.6721569358	 0.107132
H	-0.4449663591	 1.8921158836	 1.0939109004	 0.129638
H	 0.4980619188	-0.2302011345	-0.9178504483	 0.083892
H	 0.1486296447	-0.8766687349	 1.6799443476	 0.290698
H	-4.3259940528	-0.0103231237	-0.891140872	 0.12455
H	-3.8544937676	-1.6285704898	-1.4554727047	 0.125684
H	-3.7446148198	-1.2266305768	 0.2803317797	 0.173536
H	-0.8712378326	 0.369239651	-2.2970175805	 0.150837
H	-2.2355335574	-0.5224949523	-2.9808705543	 0.130956
H	-2.4761841282	 1.1203398446	-2.357808711	 0.130671
81.6788	98.6701	116.8291	149.9209	215.5241	233.0134	247.9554	292.6886	366.527	406.7793	423.7848	492.9278	522.0796	614.8817	726.0057	774.4236	906.5102	963.7713	1044.8802	1079.7749	1094.5976	1130.8381	1136.0683	1180.1651	1190.7228	1273.9418	1284.7518	1361.5653	1397.2453	1421.0457	1434.109	1465.2873	1475.4086	1481.9121	1493.9397	1500.8622	1502.4428	1504.7199	1548.8899	1730.1224	3011.0191	3013.9554	3021.0661	3041.5006	3058.3711	3068.6818	3115.4133	3125.8711	3174.7992	3177.1952	3636.1447
CC(O)C(=O)N(C)C	C[C@@H](O)C(=O)N(C)C	
InChI=1S/C5H11NO2/c1-4(7)5(8)6(2)3/h4,7H,1-3H3	InChI=1S/C5H11NO2/c1-4(7)5(8)6(2)3/h4,7H,1-3H3/t4-/m1/s1
