18
gdb 18096	4.29993	1.80519	1.32776	1.9195	73.8	-0.2189	0.0309	0.2498	931.2384	0.15645	-347.819652	-347.812647	-347.811703	-347.851065	26.348	
C	 0.0307538753	 1.5005094114	-0.0468975347	-0.196555
C	 1.5361420593	 1.9062062486	 0.0624340572	-0.343133
C	 2.1518421013	 0.6627528976	 0.6347163581	 0.243036
C	 1.3236397471	-0.3771559198	 0.6374032979	 0.243035
C	-0.0274984581	-0.0571346882	 0.06750724	-0.343133
C	 2.024266741	-1.5931073697	 1.153249771	-0.18481
O	 3.3414412698	-1.1322268411	 1.4840039053	-0.274714
C	 3.4950389697	 0.2536260266	 1.1484782677	-0.18481
H	-0.521645163	 1.9426058594	 0.7874095807	 0.109708
H	-0.4333011385	 1.8677172704	-0.9656788943	 0.10086
H	 1.9690512314	 2.1492161874	-0.9181864632	 0.107382
H	 1.677610563	 2.796125911	 0.6868033323	 0.105342
H	-0.8616154921	-0.3921814104	 0.695041925	 0.105342
H	-0.1699371573	-0.5365437344	-0.9112465323	 0.107383
H	 1.5522531306	-2.0220529951	 2.0510763054	 0.102302
H	 2.0878224292	-2.4013743353	 0.4060560161	 0.10023
H	 4.2951461065	 0.3701889778	 0.3988950617	 0.10023
H	 3.8097373549	 0.8124932038	 2.043752596	 0.102302
105.7599	138.8365	206.8636	208.8229	371.1762	490.7785	535.193	679.5429	687.6478	806.7036	866.4229	899.4989	901.3643	914.805	967.7045	989.2039	1025.367	1054.0897	1071.9412	1074.4308	1162.7564	1164.0653	1206.9283	1210.9492	1218.9496	1231.9388	1259.7418	1310.961	1331.3096	1334.9085	1398.9657	1403.7037	1483.9908	1492.493	1507.8134	1517.4763	1527.5622	1741.192	2960.9365	2967.5501	2982.9825	2986.4832	3007.5943	3007.6662	3043.1441	3047.8758	3063.611	3104.0705
C1CC2=C(C1)COC2	C1CC2=C(C1)COC2	
InChI=1S/C7H10O/c1-2-6-4-8-5-7(6)3-1/h1-5H2	InChI=1S/C7H10O/c1-2-6-4-8-5-7(6)3-1/h1-5H2
