20
gdb 59455	2.80796	1.17395	1.01769	6.0348	76.59	-0.2485	0.0238	0.2723	1253.845	0.170369	-440.300795	-440.291533	-440.290589	-440.334751	34.498	
C	 0.5331300862	 0.4962150595	-2.0589792928	-0.321564
N	 0.0764721439	-0.1525058884	-0.828336771	-0.100444
H	 0.7594660126	-1.678500843	-0.1966275516	 0.300205
C	 0.1724119814	 0.7493061794	 0.3237576702	-0.332082
C	-1.2549762823	-0.7018226376	-0.9583461697	 0.029509
C	-1.4360234232	-1.9598785332	-1.7436064082	-0.322558
C	-1.5891299077	-1.9940709381	-0.2288377144	-0.180897
C	-0.5900295446	-2.7667143735	 0.5922942517	 0.41769
O	-0.9357989823	-3.5936716239	 1.3956186102	-0.345722
O	 0.7059147145	-2.4998142059	 0.3569445362	-0.391807
H	 1.5705860065	 0.8193558672	-1.9362842298	 0.131087
H	 0.4836332311	-0.2113465909	-2.889234556	 0.134164
H	-0.0758308655	 1.3786864524	-2.3160412775	 0.109705
H	-0.4781544765	 1.632544505	 0.2138263823	 0.112509
H	-0.1151680104	 0.2158378005	 1.2325204837	 0.146873
H	 1.2044694642	 1.0925535331	 0.4346496258	 0.132174
H	-2.0619130188	 0.0341504269	-1.0053507906	 0.093003
H	-2.3277614986	-2.0756096975	-2.3480654041	 0.131803
H	-0.5463801082	-2.4306850654	-2.1477176481	 0.137899
H	-2.5949230323	-2.0936543564	 0.1594212937	 0.118454
80.4136	121.6252	162.4828	212.6665	231.89	238.0584	275.3988	340.3985	361.5944	417.5347	487.5312	548.5436	668.6296	755.2794	780.2501	803.2699	848.4649	923.4852	948.7167	997.7118	1019.1604	1047.5401	1055.8726	1077.432	1123.6186	1135.7068	1140.6321	1198.5695	1214.3625	1240.5221	1272.0698	1310.6537	1360.2634	1396.006	1441.9277	1468.4253	1481.7256	1483.5529	1487.2453	1496.0109	1503.8599	1513.3117	1850.41	2972.0563	2976.9086	3063.4554	3083.4037	3086.2863	3129.9222	3131.874	3141.8239	3197.7101	3231.8592	3245.1848
C[NH+](C)C1CC1C([O-])=O	CN(C)[C@H]1C[C@H]1C(=O)O	
InChI=1S/C6H11NO2/c1-7(2)5-3-4(5)6(8)9/h4-5H,3H2,1-2H3,(H,8,9)	InChI=1S/C6H11NO2/c1-7(2)5-3-4(5)6(8)9/h4-5H,3H2,1-2H3,(H,8,9)/t4-,5+/m1/s1
