19
gdb 31540	3.21413	1.05861	0.84629	1.7924	81.65	-0.1668	0.0519	0.2187	1395.0788	0.158542	-419.23279	-419.222527	-419.221583	-419.268848	36.211	
C	 0.3858110416	 0.8364809998	 0.6651999933	-0.323431
N	-0.3780408815	 0.1997251377	-0.4160467212	-0.387495
C	 0.3891814473	-0.4601955543	-1.3951056516	 0.306852
C	 0.8883545048	-0.0610367596	-2.6198150195	-0.372443
C	 1.5620271931	-1.188513356	-3.1734881312	 0.272176
O	 2.2152351563	-1.2695552282	-4.3758564112	-0.459041
C	 1.4779549416	-2.2391316258	-2.2888501998	 0.216897
C	 2.0174901964	-3.6252484926	-2.374652371	-0.512549
N	 0.7547115522	-1.7658536371	-1.2035571818	-0.326463
H	 0.9560821797	 0.074162599	 1.2033571377	 0.125995
H	 1.0950265895	 1.6021586301	 0.3144458196	 0.107921
H	-0.3103259022	 1.2975019177	 1.3724069251	 0.116208
H	-0.9864510394	 0.8784758503	-0.856593984	 0.230908
H	 0.7982202411	 0.9240600075	-3.0541797135	 0.075698
H	 2.1524861467	-0.4155311165	-4.81113284	 0.292457
H	 2.7437153938	-3.8445863421	-1.5805656394	 0.118557
H	 1.2306829081	-4.3893228368	-2.3164950387	 0.116709
H	 2.5280195381	-3.7505709815	-3.3322168846	 0.14825
H	 0.4236027825	-2.3241034917	-0.4357783882	 0.252793
40.3296	62.4352	121.2773	141.0797	175.9534	215.7139	244.1885	291.7057	307.428	362.2682	473.7129	502.2053	583.8762	641.2664	669.245	678.9591	735.0439	761.126	809.7483	993.4182	1000.1641	1063.0585	1064.21	1107.0428	1142.4066	1160.4013	1194.4272	1236.7035	1291.7675	1343.5173	1411.1172	1417.8695	1449.5811	1483.0655	1486.7823	1489.6391	1504.0136	1506.5754	1517.5137	1570.198	1682.6175	2983.1253	3004.0431	3042.2939	3075.0293	3113.6955	3124.6948	3230.706	3554.3725	3676.8709	3853.3013
CNC1=CC(O)=C(C)N1	CNc1cc(O)c(C)[nH]1	
InChI=1S/C6H10N2O/c1-4-5(9)3-6(7-2)8-4/h3,7-9H,1-2H3	InChI=1S/C6H10N2O/c1-4-5(9)3-6(7-2)8-4/h3,7-9H,1-2H3
