20
gdb 9883	4.76384	0.93148	0.8662	2.7851	76.42	-0.2476	-0.0191	0.2286	1362.6732	0.174901	-349.008067	-348.998873	-348.997928	-349.042721	33.086	
C	 0.1188823821	 1.5871011555	 0.2978509509	-0.462836
C	-0.0052303222	 0.0896933603	 0.0841139043	 0.392226
C	-1.3853043676	-0.4037526933	-0.3259061105	-0.275549
C	-1.8551115971	 0.1256060481	-1.6963169555	-0.272177
C	-3.1308683626	-0.5477571672	-2.1434431151	 0.158746
O	-4.1583184548	 0.0181831147	-2.4142026827	-0.236828
C	 1.1909485169	-0.6476131088	-0.4720087171	-0.295427
C	 0.808036339	-0.8121634662	 0.9812966057	-0.314755
H	 1.1276666981	 1.8528686984	 0.6281991448	 0.114823
H	-0.0834697129	 2.1488258269	-0.620626854	 0.11997
H	-0.5847008056	 1.9361148244	 1.0630639716	 0.117159
H	-1.3779043057	-1.501030774	-0.3533116244	 0.096708
H	-2.1195181459	-0.1192951092	 0.4394197981	 0.110186
H	-2.0195682814	 1.2059888874	-1.686392874	 0.123353
H	-1.0806891259	-0.0989551933	-2.4442333606	 0.119342
H	-3.0601847754	-1.6609054235	-2.2025721543	 0.06668
H	 1.016960541	-1.4854805854	-1.1399468382	 0.106668
H	 2.0838089633	-0.0770066598	-0.7046758943	 0.111164
H	 1.4406909949	-0.3505131964	 1.7321763951	 0.111057
H	 0.3756309218	-1.7583914887	 1.2898027002	 0.10949
55.8258	64.8099	101.0727	165.6551	218.8022	281.9123	330.9441	345.8967	384.048	448.9639	532.0766	714.7194	770.79	791.799	843.5604	872.6375	933.8198	940.7454	953.4065	1007.5633	1024.7109	1052.873	1080.5955	1081.4547	1103.9201	1129.6347	1188.2363	1199.2135	1258.9787	1296.6145	1320.9482	1360.0268	1387.024	1421.148	1430.1172	1462.7638	1470.6396	1485.697	1495.8869	1501.2858	1512.3325	1836.3832	2840.6504	3009.6982	3017.1941	3025.4506	3051.0745	3085.6413	3100.8609	3108.4149	3124.9997	3129.8725	3202.4173	3216.8966
CC1(CCC=O)CC1	CC1(CCC=O)CC1	
InChI=1S/C7H12O/c1-7(4-5-7)3-2-6-8/h6H,2-5H2,1H3	InChI=1S/C7H12O/c1-7(4-5-7)3-2-6-8/h6H,2-5H2,1H3
