15
gdb 71534	2.6381	1.57064	1.41972	0.6267	72.73	-0.2472	0.0021	0.2493	980.2905	0.108963	-420.480057	-420.472225	-420.471281	-420.51217	30.274	
C	 0.0541007017	 1.4718100465	-0.0990160917	-0.534198
C	 0.0431131315	-0.0154408836	-0.0303505923	 0.36659
O	 0.6326409784	-0.81206103	-1.1002210564	-0.345376
C	 0.1376161839	-1.8332813672	-0.2007259958	-0.008307
C	 0.4508589634	-1.0295067455	 1.0929121077	-0.020014
O	-0.8873437339	-1.1466932969	 1.6453560824	-0.353382
C	-1.153874798	-1.0336596185	 0.2118984331	 0.371518
C	-2.4834257317	-1.0523555353	-0.2960284434	 0.056521
C	-3.5942340938	-1.0532994646	-0.7567708854	-0.383769
H	 1.0807335318	 1.8476567936	-0.1431964559	 0.141318
H	-0.4836727769	 1.8179559338	-0.9864183673	 0.146486
H	-0.4339900571	 1.8809095972	 0.790521492	 0.146789
H	 0.2675093812	-2.8833300115	-0.458044338	 0.114262
H	 1.3060396579	-1.0529609758	 1.7658613748	 0.107919
H	-4.5777382985	-1.0580369522	-1.158488264	 0.193645
115.5197	141.9025	205.5761	239.1488	286.6436	397.2006	471.4286	532.6158	534.8093	623.9689	645.3003	687.7273	703.6657	760.0778	780.8205	793.4335	822.212	880.4018	926.2568	955.7639	1007.0551	1068.219	1109.07	1136.8426	1155.849	1219.0333	1266.8607	1305.8138	1371.1709	1419.7674	1473.5029	1486.0698	2235.768	3042.9958	3117.8106	3123.2988	3136.3866	3150.9809	3498.3935
CC12OC3C1OC23C#C	C[C@@]12O[C@H]3[C@@H]1O[C@@]23C#C	
InChI=1S/C7H6O2/c1-3-7-5-4(9-7)6(7,2)8-5/h1,4-5H,2H3	InChI=1S/C7H6O2/c1-3-7-5-4(9-7)6(7,2)8-5/h1,4-5H,2H3/t4-,5-,6+,7+/m0/s1
