19
gdb 114374	2.44536	1.28721	0.99751	4.3196	77.24	-0.2335	-0.013	0.2205	1243.0195	0.158128	-422.991574	-422.98274	-422.981795	-423.025627	32.345	
C	 0.130432505	 1.3765169602	 0.0729472769	-0.242183
O	-0.2840440516	 0.058182142	-0.2201464058	-0.238614
C	 0.5258003655	-0.580576505	-1.1706662455	 0.14115
C	 1.9149174798	-1.1791126684	-0.7350930258	-0.29023
C	 1.4221925038	-2.5462324454	-1.2253181022	-0.077086
C	 0.1802274403	-3.0070846912	-0.4884530458	-0.098514
C	-0.1060454655	-2.7769320557	 0.9542426367	 0.146744
O	-0.6269682584	-3.6145859218	 1.6531619972	-0.27454
C	 0.0615687441	-1.9672954571	-1.5933464115	-0.119539
H	 1.140429933	 1.4044369986	 0.5078714118	 0.111255
H	 0.1245876808	 2.0092667931	-0.8279792596	 0.108379
H	-0.5766623553	 1.7849863722	 0.7980108962	 0.134549
H	 0.6546840717	 0.0674264308	-2.0502472415	 0.078964
H	 2.7415950491	-0.7863549103	-1.3306484622	 0.110775
H	 2.1760296938	-1.0976868985	 0.3227082248	 0.111392
H	 2.0176157396	-3.2636189471	-1.7758563253	 0.102411
H	-0.1629904768	-3.9876544822	-0.8076055507	 0.108568
H	 0.1758676723	-1.7877537653	 1.3598292417	 0.086865
H	-0.5715124111	-2.173592449	-2.4475205195	 0.099653
68.4008	99.6368	141.9704	176.8728	223.8255	250.2885	331.0466	397.5268	449.558	470.0008	578.7787	711.2871	781.4496	812.3721	838.8605	932.466	966.9355	980.4327	1012.2471	1030.4251	1043.9571	1049.3576	1081.3366	1100.2269	1132.5003	1173.9033	1183.246	1206.6588	1222.5746	1241.0179	1265.8694	1312.773	1327.3633	1379.2442	1394.5573	1458.3232	1481.0725	1487.9751	1492.8515	1507.6071	1805.0422	2960.9714	2978.1128	2991.9723	3028.725	3068.1991	3118.7747	3123.1055	3155.9552	3185.1075	3197.4326
COC1CC2C(C=O)C12	CO[C@H]1C[C@H]2[C@@H](C=O)[C@@H]12	
InChI=1S/C7H10O2/c1-9-6-2-4-5(3-8)7(4)6/h3-7H,2H2,1H3	InChI=1S/C7H10O2/c1-9-6-2-4-5(3-8)7(4)6/h3-7H,2H2,1H3/t4-,5+,6-,7-/m0/s1
