18
gdb 73796	2.08441	1.83056	1.00871	5.2329	78.7	-0.2155	-0.0246	0.1909	1153.6068	0.147794	-439.121751	-439.112862	-439.111918	-439.155088	33.298	
C	 0.0114051799	 1.5476271575	-0.0413541888	-0.529272
C	-0.0044396523	 0.0410903449	-0.0511644263	 0.104382
C	-1.1552835035	-0.6840231027	-0.0090119346	 0.24565
N	-2.395105865	-0.1267813626	 0.1398441539	-0.559952
C	-1.1327866222	-2.1966302405	-0.02840904	-0.157851
O	 0.023106278	-2.7124856338	-0.6301130632	-0.235098
C	 1.2060048683	-2.1970277589	-0.0448576927	-0.193096
C	 1.2692470393	-0.6683123197	-0.0327471541	 0.301266
O	 2.356470132	-0.1144811691	 0.0274495465	-0.3578
H	 1.0413965812	 1.8891396275	-0.1579101237	 0.160076
H	-0.5871770034	 1.9727577914	-0.8578382631	 0.111545
H	-0.3725414441	 1.9623108045	 0.9000313075	 0.120016
H	-2.4816538722	 0.8728789008	 0.05097461	 0.265013
H	-3.2008969405	-0.6522496511	-0.1587549458	 0.258671
H	-1.2495989131	-2.5705527912	 1.0062943186	 0.111958
H	-1.9837092282	-2.5770642518	-0.6071584759	 0.112075
H	 1.3202120448	-2.5585721298	 0.9930128945	 0.10659
H	 2.0469462912	-2.5771933554	-0.6276791327	 0.135827
106.332	119.7673	148.3054	225.8753	287.0657	297.7757	338.2841	387.2687	435.7461	450.6118	468.5945	537.3098	592.9416	614.2467	647.6785	745.0174	894.3217	983.0181	995.1541	1019.0934	1043.919	1058.1262	1110.6282	1176.2566	1208.6616	1245.4688	1305.5282	1321.6654	1354.9198	1371.3252	1397.1215	1432.2604	1468.7691	1485.8558	1491.8194	1502.1247	1644.2509	1680.6281	1745.9892	2932.2145	2951.1668	3007.783	3044.9887	3052.1242	3118.5232	3135.4997	3590.4049	3701.6155
CC1=C(N)COCC1=O	CC1=C(N)COCC1=O	
InChI=1S/C6H9NO2/c1-4-5(7)2-9-3-6(4)8/h2-3,7H2,1H3	InChI=1S/C6H9NO2/c1-4-5(7)2-9-3-6(4)8/h2-3,7H2,1H3
