16
gdb 47002	2.73269	1.87191	1.46795	4.7518	63.65	-0.2368	0.0147	0.2515	908.2868	0.127763	-475.057036	-475.050197	-475.049252	-475.088378	26.558	
O	 0.0138455708	-0.0565424667	 0.0860648721	-0.368261
C	-0.0219873267	 1.1542682627	 0.0276618742	 0.430172
N	-1.1817641227	 1.8802630651	-0.0484511968	-0.336582
C	-1.2500886654	 3.327991194	 0.1199292593	-0.168112
C	 0.1430396259	 3.9197157445	-0.0954830112	 0.046074
C	 0.7040905873	 3.6532995714	-1.5140045584	-0.094967
O	 1.4713619875	 2.4572381964	-1.3586777572	-0.254161
C	 1.2486874871	 2.0267749628	-0.0282208579	 0.043121
O	 1.0651279103	 3.2020458335	 0.730553047	-0.241588
H	-2.0291582225	 1.3383599488	 0.0453629787	 0.251227
H	-1.9543156118	 3.759601793	-0.6018807473	 0.116524
H	-1.5998729678	 3.5886027237	 1.1283886668	 0.121145
H	 0.165162311	 4.9720972345	 0.1905405445	 0.101519
H	-0.0888439649	 3.5094609464	-2.2561885344	 0.114754
H	 1.3678447487	 4.4567209517	-1.8479361923	 0.119272
H	 2.110045963	 1.4648363883	 0.3326478729	 0.119864
114.199	166.7536	247.0406	345.1465	416.6689	450.9448	508.5937	571.3497	679.0498	742.1705	770.7882	823.7036	837.5741	899.0087	919.6356	951.7684	1009.2155	1033.4303	1056.666	1085.8484	1121.1077	1133.8016	1209.3196	1234.8034	1286.0701	1311.4086	1317.0944	1342.1225	1352.5709	1377.5245	1400.5529	1476.9663	1517.3997	1522.737	1816.2303	3007.4519	3038.6015	3050.3399	3084.0115	3114.0999	3135.8606	3601.7523
O=C1NCC2COC1O2	O=C1NC[C@@H]2CO[C@H]1O2	
InChI=1S/C5H7NO3/c7-4-5-8-2-3(9-5)1-6-4/h3,5H,1-2H2,(H,6,7)	InChI=1S/C5H7NO3/c7-4-5-8-2-3(9-5)1-6-4/h3,5H,1-2H2,(H,6,7)/t3-,5+/m1/s1
