17
gdb 133793	2.9187	0.85617	0.77047	2.0845	57.57	-0.2569	0.0765	0.3334	1451.6946	0.131586	-586.645786	-586.635912	-586.634968	-586.68142	34.814	
N	 0.0076840625	 1.5018185979	 0.0807118553	-0.510396
C	-0.0260971796	 0.044588581	 0.008961004	-0.135195
C	-1.4555621624	-0.4839794581	 0.1598396347	-0.177846
C	-2.077174105	-0.1274315963	 1.5046254282	-0.081579
O	-3.3698094476	-0.7139082079	 1.5362017848	-0.422452
C	 0.6105420594	-0.4878081759	-1.2788192785	 0.275008
F	 1.8712661619	-0.0357000473	-1.4106785442	-0.087212
F	 0.6623962008	-1.8275995204	-1.3018018079	-0.075823
F	-0.06912965	-0.0873495792	-2.3676150011	-0.087412
H	 0.9631307048	 1.8320872582	-0.015681375	 0.23965
H	-0.514702996	 1.8917106987	-0.6998679143	 0.236252
H	 0.595026717	-0.3484922976	 0.8238054417	 0.108354
H	-2.0837446551	-0.0824029182	-0.6437682489	 0.114771
H	-1.4549699897	-1.5721114603	 0.0465787212	 0.125203
H	-1.4424831	-0.5148573122	 2.3192798246	 0.083124
H	-2.1213117828	 0.9637271064	 1.616382887	 0.108473
H	-3.8072853182	-0.4304163289	 2.3439773186	 0.28708
63.2006	81.4326	101.0462	135.9197	241.3353	258.0146	272.8346	302.6576	323.9002	355.1179	429.7215	495.0711	571.2055	591.0015	682.7381	803.4469	823.142	924.7538	954.5768	1020.8284	1046.4444	1079.8818	1147.0702	1160.914	1193.9059	1205.722	1246.2979	1272.5209	1292.4235	1320.2826	1327.0718	1391.0617	1408.9519	1461.6951	1494.5847	1531.3075	1664.8767	2962.4745	3032.8274	3038.0764	3051.5328	3102.0011	3489.7357	3571.9378	3834.1854
NC(CCO)C(F)(F)F	N[C@@H](CCO)C(F)(F)F	
InChI=1S/C4H8F3NO/c5-4(6,7)3(8)1-2-9/h3,9H,1-2,8H2	InChI=1S/C4H8F3NO/c5-4(6,7)3(8)1-2-9/h3,9H,1-2,8H2/t3-/m0/s1
