19
gdb 90508	2.78101	1.2903	1.05234	4.6851	79.09	-0.2406	0.0342	0.2747	1183.3079	0.159755	-382.035235	-382.026622	-382.025678	-382.068725	32.368	
C	 0.2218131154	 1.7308205208	 0.5499669847	-0.416629
C	 0.1205988447	 0.2368528966	 0.2906886507	 0.092765
C	 0.6835809523	-0.4465484021	-0.9864796725	-0.298171
C	 1.372316604	-1.433142588	-0.0437722235	-0.05167
C	 2.2992001213	-0.7755695482	 0.8941592126	 0.023902
C	 3.2368162325	 0.3693304105	 0.5285444573	-0.393856
C	 3.5120703262	 1.2663328465	 1.6515835918	 0.279346
N	 3.7309578629	 1.9725756031	 2.539359752	-0.308589
N	 0.8598264241	-0.7168143259	 1.2093592054	-0.161855
H	 1.2118503063	 2.1520940822	 0.3662142984	 0.122487
H	-0.4881604684	 2.2637434184	-0.0919805586	 0.120622
H	-0.0400211464	 1.9447430984	 1.5909534111	 0.143255
H	-0.9295605731	-0.0486032109	 0.4026599548	 0.097892
H	-0.0876049198	-0.9008054749	-1.6101242688	 0.116728
H	 1.3401140978	 0.1432089329	-1.6349733424	 0.103348
H	 1.3215784541	-2.5134497349	-0.1378959244	 0.10208
H	 2.7709595926	-1.4547574327	 1.6017890172	 0.117507
H	 4.1882017911	-0.0682384422	 0.2012940701	 0.158126
H	 2.8666944523	 0.9619914503	-0.3104156958	 0.152712
65.1505	112.3236	168.8748	223.93	233.0963	301.3052	354.5139	400.9103	460.3534	517.5088	604.0393	665.8472	741.8863	761.5417	834.8324	865.3481	910.5125	927.1296	957.206	989.5476	1017.7818	1070.5241	1086.1406	1110.1079	1132.2299	1146.294	1191.5735	1241.3985	1250.385	1273.3651	1302.5532	1324.5872	1360.4432	1394.2555	1410.3516	1447.0292	1464.998	1489.8679	1497.9159	1502.4062	2364.0494	3042.0857	3044.1571	3048.0503	3055.373	3105.9365	3109.1933	3118.5273	3130.3677	3136.4704	3159.9516
CC1CC2C(CC#N)N12	C[C@H]1C[C@H]2[C@@H](CC#N)N12	
InChI=1S/C7H10N2/c1-5-4-7-6(2-3-8)9(5)7/h5-7H,2,4H2,1H3	InChI=1S/C7H10N2/c1-5-4-7-6(2-3-8)9(5)7/h5-7H,2,4H2,1H3/t5-,6+,7-,9?/m0/s1
