17
gdb 78787	2.651	1.73123	1.31653	3.4734	72.02	-0.2359	0.0042	0.2401	986.5612	0.135001	-421.797163	-421.789181	-421.788237	-421.829354	30.939	
C	-0.006328145	 1.6304384188	 0.0332175068	-0.509993
C	-0.0770901063	 0.1317183632	 0.0503090395	 0.12643
C	-1.2107458181	-0.8217663685	 0.6532250837	-0.161707
C	-0.8497838576	-1.7933883376	-0.425683833	-0.112692
C	-0.093008448	-1.8538589952	 0.9101869459	-0.203122
C	 0.8907963258	-0.7256077879	 0.8868743162	 0.419142
O	 1.9146689369	-0.4860887679	 1.4636985604	-0.345427
C	-0.1988081092	-0.7010531545	-1.2775682666	 0.112341
O	-1.0525744784	-0.1455242258	-2.2456496037	-0.433788
H	 0.9869111491	 1.9506948325	-0.2982776427	 0.141913
H	-0.7428274543	 2.053369869	-0.6567857601	 0.120731
H	-0.1733366518	 2.0505554885	 1.0294870605	 0.12906
H	-2.0853087787	-0.6434860258	 1.2599747752	 0.11648
H	-1.4010263258	-2.6611456251	-0.7686859897	 0.106022
H	-0.1281864713	-2.7303922775	 1.5430631181	 0.116176
H	 0.7365247436	-0.9301818257	-1.7983481858	 0.096321
H	-1.9176602909	-0.0128231806	-1.8384433348	 0.282113
125.6843	152.9621	208.6499	231.9833	256.1903	332.699	384.6859	476.1666	536.8676	609.9793	669.8986	741.8801	771.6852	813.8975	823.596	845.0418	862.8317	908.8035	940.0549	975.9569	1015.3509	1034.2879	1085.4319	1107.4027	1118.0063	1143.0471	1177.8995	1230.2551	1274.537	1284.2468	1329.394	1351.8649	1413.1042	1433.5353	1484.1277	1487.2982	1876.7328	3038.0299	3066.8088	3106.5259	3111.2407	3187.0501	3214.643	3239.418	3778.7939
CC12C3C(C3C1=O)C2O	C[C@]12[C@H]3[C@H]([C@H]3C1=O)[C@H]2O	
InChI=1S/C7H8O2/c1-7-4-2(5(7)8)3(4)6(7)9/h2-5,8H,1H3	InChI=1S/C7H8O2/c1-7-4-2(5(7)8)3(4)6(7)9/h2-5,8H,1H3/t2-,3+,4-,5+,7+/m0/s1
