19
gdb 70588	2.51508	1.82537	1.32103	1.8155	74.2	-0.2341	0.0783	0.3125	1002.8631	0.160215	-422.991838	-422.984296	-422.983352	-423.023245	31.23	
O	-0.1401232501	 1.3499959649	 0.1130054746	-0.471351
C	-0.0269911578	-0.0487642058	 0.0782258431	 0.41149
C	-0.1568173863	-0.694773238	 1.4251067888	-0.33359
C	 1.1853659055	-0.6918229827	 0.72055177	-0.107636
C	 1.6741882329	-1.9856054043	 0.096952934	-0.100957
O	 0.5912809015	-2.7533023943	-0.4290022691	-0.257064
C	-0.0902192249	-2.1055881911	-1.4650533721	 0.089056
C	-1.5468595511	-1.8122619094	-1.2408863812	-0.321601
C	-0.5323020478	-0.690513204	-1.192948133	-0.12368
H	 0.4594219439	 1.7131415551	-0.5483281046	 0.277645
H	-0.2837249604	-0.0089324312	 2.2543124861	 0.121215
H	-0.6800969204	-1.6390614465	 1.5153294701	 0.125875
H	 1.954359538	-0.0297982618	 1.1070648528	 0.085905
H	 2.4135171643	-1.7754181931	-0.6931153683	 0.08732
H	 2.152984842	-2.6304821238	 0.8412260191	 0.111828
H	 0.2537336947	-2.379850528	-2.4617143692	 0.085975
H	-2.2153098589	-1.8559093469	-2.0935927353	 0.112449
H	-1.9773390971	-2.1536792889	-0.3066718085	 0.126638
H	-0.5311144282	-0.00384742	-2.0345519772	 0.080483
165.982	217.532	271.711	316.3188	339.3633	380.8746	409.0455	442.9367	531.9585	558.6321	654.853	723.2276	786.3541	805.1735	821.8244	894.5952	919.3222	939.0677	976.7124	996.8931	1014.3383	1043.6357	1065.6628	1076.0043	1100.7289	1109.7866	1109.9621	1124.5889	1173.3122	1218.1462	1227.7721	1256.4429	1293.0498	1322.7034	1364.1994	1389.7512	1411.7665	1415.5294	1479.3467	1483.7477	1500.9672	2971.8276	3068.5844	3103.5863	3138.3947	3145.0175	3147.2023	3158.8719	3228.6005	3238.1521	3792.2741
OC12CC1COC1CC21	O[C@]12C[C@H]1CO[C@H]1C[C@@H]21	
InChI=1S/C7H10O2/c8-7-2-4(7)3-9-6-1-5(6)7/h4-6,8H,1-3H2	InChI=1S/C7H10O2/c8-7-2-4(7)3-9-6-1-5(6)7/h4-6,8H,1-3H2/t4-,5+,6-,7+/m0/s1
