21
gdb 40949	3.4111	1.28377	1.1329	1.5147	84.84	-0.2345	0.013	0.2475	1171.0665	0.184652	-387.094956	-387.086947	-387.086003	-387.127727	31.569	
C	 0.0079434885	 1.3118173583	-0.3885147217	-0.066718
C	 1.4456229067	 1.528706041	 0.1134121487	-0.354204
C	 1.2840216723	 0.1452153532	 0.8002188967	 0.436212
C	 2.1354926989	-0.97554681	 0.2050058752	-0.252065
C	 1.8863323553	-2.2977864858	 0.9363449968	-0.218125
C	 2.2815332223	-2.1735230949	 2.4139190368	-0.247653
C	 1.776464643	-0.8907795442	 3.0191045855	-0.063383
C	 1.3248002919	 0.1374478435	 2.3003870298	-0.092473
O	-0.1063489629	 0.0655985489	 0.3244111147	-0.329316
H	-0.7343880006	 2.0453940018	-0.0515339872	 0.100452
H	-0.1005084217	 1.1785937635	-1.4726464129	 0.097158
H	 2.2208757681	 1.5743105072	-0.6539837889	 0.106215
H	 1.5747789435	 2.3650900051	 0.8030346214	 0.107001
H	 1.9078484651	-1.0647529206	-0.8622799553	 0.095037
H	 3.1940064992	-0.6927345924	 0.2915990727	 0.09321
H	 0.8193011051	-2.5391868216	 0.8630115069	 0.119082
H	 2.436346679	-3.1158095628	 0.4601083549	 0.088676
H	 1.8994842437	-3.0258159967	 2.989230867	 0.105145
H	 3.3767767748	-2.2176976394	 2.5197715641	 0.107051
H	 1.783616575	-0.821394918	 4.1050031503	 0.088036
H	 0.9366957627	 1.0243027841	 2.7961817947	 0.08066
73.2586	94.2093	216.3298	263.0217	315.5092	382.2029	424.3063	465.7458	520.4412	633.9376	715.8616	746.2112	784.0115	842.614	859.1674	871.0016	918.8201	946.3406	971.122	985.2824	997.4623	1009.3178	1025.0919	1068.227	1101.8071	1141.7076	1147.8706	1165.1541	1182.7937	1212.8219	1255.1024	1267.1608	1278.1706	1305.1427	1346.3013	1368.3713	1372.0773	1376.8725	1427.7564	1467.2831	1476.9988	1489.8381	1495.3727	1532.9981	1714.1698	2990.9059	3010.3152	3013.0785	3033.9442	3046.9236	3048.2137	3072.8337	3073.6472	3081.7621	3127.1046	3137.6408	3161.3004
C1CC2(CCCC=C2)O1	C1C[C@]2(CCCC=C2)O1	
InChI=1S/C8H12O/c1-2-4-8(5-3-1)6-7-9-8/h2,4H,1,3,5-7H2	InChI=1S/C8H12O/c1-2-4-8(5-3-1)6-7-9-8/h2,4H,1,3,5-7H2/t8-/m0/s1
