18
gdb 7246	4.58859	1.07237	0.99567	2.7063	74.36	-0.2444	-0.015	0.2294	1234.8787	0.149748	-347.795044	-347.785312	-347.784368	-347.830221	34.294	
C	-0.1447138572	 1.5554889835	-0.0214631292	-0.386971
C	-0.0301089924	 0.0171417802	 0.0312131719	-0.065851
C	 0.8611367028	-0.438706395	 1.1909526311	-0.387438
C	-1.440880343	-0.562912943	 0.1649137099	 0.392429
O	-1.9807384686	-0.7073524724	 1.2320429401	-0.293824
C	-2.1238962663	-0.9302099562	-1.1659087668	-0.490633
C	-3.5321190418	-1.2670587471	-1.0615941052	 0.323506
C	-4.6979129147	-1.5419189651	-0.9791574285	-0.42362
H	 0.8451172234	 2.0035751434	-0.1496467414	 0.12272
H	-0.7753303615	 1.8944117663	-0.8498098002	 0.117998
H	-0.5761284459	 1.9354159385	 0.9096434607	 0.139289
H	 0.3959011825	-0.3255896002	-0.920574038	 0.079212
H	 0.407040184	-0.162601439	 2.1457024351	 0.141923
H	 0.9954697249	-1.5245946001	 1.1878161245	 0.11739
H	 1.8486414333	 0.0274424759	 1.1224064564	 0.110604
H	-1.9686608073	-0.1046107993	-1.8735499762	 0.149077
H	-1.5543652786	-1.7726392904	-1.5860936159	 0.155821
H	-5.7283309037	-1.78464969	-0.8980385182	 0.198369
33.1998	62.4404	124.2664	201.2674	226.3554	228.5128	279.1481	302.3406	326.4585	387.2737	442.2219	569.3033	627.5135	640.0048	656.6288	813.7871	872.7595	918.3615	938.3889	965.3999	973.4003	1052.606	1105.7914	1122.952	1198.0242	1217.3028	1316.1288	1330.459	1373.7428	1395.4583	1415.9631	1436.1615	1485.539	1488.7482	1501.0048	1510.8542	1825.5447	2249.4138	3007.1506	3023.789	3035.107	3040.0209	3043.3608	3104.2732	3110.0548	3115.8432	3129.7358	3507.7153
CC(C)C(=O)CC#C	CC(C)C(=O)CC#C	
InChI=1S/C7H10O/c1-4-5-7(8)6(2)3/h1,6H,5H2,2-3H3	InChI=1S/C7H10O/c1-4-5-7(8)6(2)3/h1,6H,5H2,2-3H3
