16
gdb 48009	5.10051	0.71413	0.69319	2.706	81.5	-0.2525	-0.0639	0.1886	1597.2596	0.123674	-400.671903	-400.663482	-400.662538	-400.706893	29.556	
O	-0.0465444771	-0.1020172986	-0.1925289861	-0.228639
C	 0.0731781101	 1.0053418793	 0.2803590549	 0.020271
C	 1.2615038311	 1.8116279543	 0.1815346691	 0.001815
C	 2.2450513953	 2.5129943025	 0.1222364654	 0.135968
C	 3.4269728132	 3.3403036276	 0.0097686157	-0.204706
C	 4.1534939648	 3.4797767255	-1.3732745432	-0.176099
N	 4.0690647564	 4.9781472787	-1.3325009329	-0.119104
C	 2.6283667902	 5.2897552735	-1.3164426333	-0.237103
C	 3.2609495697	 4.8669076569	-0.0545653991	-0.033067
H	-0.754920121	 1.4868833137	 0.8396698866	 0.098931
H	 4.1457254216	 3.0528030081	 0.7824224086	 0.12739
H	 5.1925234393	 3.1502339385	-1.3432550517	 0.126526
H	 3.6485025563	 3.0292913755	-2.2319802676	 0.123263
H	 2.4233048678	 6.3482369543	-1.4397438177	 0.130533
H	 1.9350640934	 4.6260436322	-1.8290757132	 0.125271
H	 3.4132059491	 5.5348541281	 0.7864339245	 0.108749
26.9147	80.4635	86.7356	183.7563	218.6165	323.955	433.4705	451.1309	530.1795	633.7484	704.8673	764.7249	782.6262	820.8255	939.0658	960.5113	984.9573	992.8128	1021.2056	1053.1653	1070.1838	1111.7271	1120.3122	1179.5872	1195.8842	1205.0433	1233.4362	1291.4599	1339.5082	1368.7118	1422.5757	1491.9823	1510.1794	1765.1812	2317.8589	2916.2709	3066.7488	3069.6089	3107.8744	3134.4084	3169.6045	3204.6986
O=CC#CC1CN2CC12	O=CC#C[C@H]1CN2C[C@@H]12	
InChI=1S/C7H7NO/c9-3-1-2-6-4-8-5-7(6)8/h3,6-7H,4-5H2	InChI=1S/C7H7NO/c9-3-1-2-6-4-8-5-7(6)8/h3,6-7H,4-5H2/t6-,7-,8?/m0/s1
