17
gdb 88519	2.56139	1.27326	1.11036	3.8113	68.72	-0.2549	-0.0513	0.2036	1158.5908	0.132477	-458.919704	-458.910616	-458.909672	-458.954586	32.263	
C	 0.0628242617	 1.5001536161	-0.3767302534	-0.432219
C	-0.0868482352	 0.0662387711	 0.0618616861	 0.078814
O	 1.0574696616	-0.7922669469	-0.0412434743	-0.25598
C	 0.5422112808	-0.5095951493	 1.2639665309	-0.047402
C	 1.4223705784	 0.2591017295	 2.2106852086	 0.274407
C	 0.8417636529	 0.8571273506	 3.4309352328	-0.202943
O	 1.5706273271	-0.3559896434	 3.5075999568	-0.255393
C	 2.7257947902	 0.8426195907	 1.7004919217	 0.09591
O	 3.4141715533	 1.5692330758	 2.3701080557	-0.249377
H	 0.9621928197	 1.9695726804	 0.0289609506	 0.13162
H	 0.1139952231	 1.5587458224	-1.4685703161	 0.139817
H	-0.8042666876	 2.0841306852	-0.0504337598	 0.131363
H	-1.0089233419	-0.4136674419	-0.2716513865	 0.100213
H	 0.0501253612	-1.3514858373	 1.7527442172	 0.112792
H	 1.3356763657	 1.72566631	 3.8606936229	 0.143158
H	-0.2329050349	 0.7732660613	 3.5900588093	 0.119572
H	 3.007513154	 0.5400170956	 0.6756773073	 0.115649
31.3938	82.6189	163.6995	170.2368	211.3503	274.3685	316.3849	336.921	395.5563	427.8954	544.2759	643.6867	753.408	783.9636	829.2848	861.1445	926.8509	950.4102	996.5067	1024.5139	1061.8903	1097.6921	1138.4546	1154.0352	1172.076	1175.6525	1249.3479	1298.97	1333.0156	1398.2862	1416.6881	1425.1742	1465.2345	1483.1358	1503.1544	1508.0605	1820.8126	2975.6507	3042.004	3086.599	3089.3682	3106.3487	3107.8649	3127.1915	3189.3398
CC1OC1C1(CO1)C=O	C[C@H]1O[C@H]1[C@]1(CO1)C=O	
InChI=1S/C6H8O3/c1-4-5(9-4)6(2-7)3-8-6/h2,4-5H,3H2,1H3	InChI=1S/C6H8O3/c1-4-5(9-4)6(2-7)3-8-6/h2,4-5H,3H2,1H3/t4-,5-,6-/m1/s1
