19
gdb 6019	2.62789	1.74701	1.38523	3.2651	71.27	-0.2952	0.0185	0.3137	996.9972	0.16265	-365.08555	-365.075862	-365.074918	-365.119136	35.656	
C	 0.0180700506	 1.5619065841	 0.0231195503	-0.43368
C	 0.015889473	 0.0256609851	 0.0359613482	 0.030146
C	 0.8205322027	-0.5063824751	 1.2297077513	-0.414413
C	-1.437754663	-0.5444926504	 0.0265457733	 0.211707
C	-1.4827441211	-2.0778933954	 0.0480112835	-0.412408
O	-2.1813327235	-0.1213012755	 1.1643194905	-0.447727
C	-2.1222607744	-0.0753022849	-1.2070283067	 0.256435
N	-2.6549810315	 0.3076987993	-2.1588052976	-0.346454
H	 1.0401465063	 1.936225825	-0.0818313489	 0.126325
H	-0.5717133937	 1.9658723712	-0.8049812652	 0.143133
H	-0.373974538	 1.9690035229	 0.962839163	 0.113996
H	 0.4856135969	-0.3213950156	-0.8933617281	 0.092696
H	 0.2954709715	-0.302950142	 2.1677625294	 0.132499
H	 0.9995830767	-1.5824002112	 1.16473482	 0.120464
H	 1.7960022761	-0.0129858399	 1.272007343	 0.116904
H	-1.1073268836	-2.437403558	 1.0073351713	 0.139463
H	-2.512636759	-2.4205761372	-0.0691148535	 0.144133
H	-0.8760051874	-2.4962347432	-0.7586548079	 0.131907
H	-2.2907929585	 0.8351788105	 1.123352354	 0.294874
80.4847	151.2746	184.9855	200.0208	241.5791	244.609	272.1405	314.1599	335.0142	358.4883	398.1951	426.6877	506.3593	580.6457	610.5348	694.8072	852.9928	918.8318	931.1857	951.9661	968.5564	1043.708	1071.5164	1127.0207	1177.2428	1197.4601	1213.4351	1335.4579	1347.0726	1371.2501	1400.9122	1407.321	1421.5845	1478.5085	1486.5573	1495.4587	1500.7636	1510.8471	1517.7508	2346.8691	3026.0078	3032.0377	3045.6857	3061.5615	3098.5456	3112.4828	3117.6475	3122.8958	3140.8636	3149.8641	3813.2167
CC(C)C(C)(O)C#N	CC(C)[C@@](C)(O)C#N	
InChI=1S/C6H11NO/c1-5(2)6(3,8)4-7/h5,8H,1-3H3	InChI=1S/C6H11NO/c1-5(2)6(3,8)4-7/h5,8H,1-3H3/t6-/m0/s1
