19
gdb 108378	2.28763	1.62173	1.17909	0.6909	71.98	-0.2185	0.0643	0.2828	1115.2723	0.156006	-460.090998	-460.081518	-460.080573	-460.125101	35.074	
C	-0.7111412583	 0.4716811211	 0.4740175788	-0.25082
O	-0.4582208714	 0.5828380556	-0.9178451602	-0.266356
C	 0.4410132085	-0.3170575488	-1.4184791255	 0.306436
C	 0.1955095387	-1.8158381454	-1.5918570552	-0.16046
O	 1.5989709784	-2.1075799888	-1.3429459982	-0.282741
C	 1.8746509283	-0.7309207239	-1.0774276814	-0.076284
C	 1.5925491739	 0.1297846938	-2.2971324354	 0.309311
C	 1.8368307913	-0.3311796922	-3.7134685222	-0.47215
O	 1.8468302226	 1.4889022533	-2.0553088572	-0.457219
H	-1.1623859116	-0.4946594322	 0.7368982342	 0.111287
H	 0.2119180456	 0.5996117503	 1.0538059689	 0.116273
H	-1.4125808097	 1.2688747024	 0.7282721271	 0.132553
H	-0.4307337516	-2.2476828368	-0.8027946575	 0.113133
H	-0.1450193933	-2.173826366	-2.5695228558	 0.110022
H	 2.581707301	-0.4760663516	-0.295884864	 0.106968
H	 1.7329894517	-1.4147133843	-3.7992486542	 0.139584
H	 1.14604794	 0.1554335374	-4.4087015933	 0.128556
H	 2.8596638678	-0.0772901501	-4.0184524175	 0.107647
H	 2.785663928	 1.6374117263	-2.2162555813	 0.284262
60.275	149.2764	164.0555	189.3396	217.1803	259.3789	292.136	319.7401	337.1462	407.3859	438.9876	513.8263	561.7758	657.6609	718.4245	746.3825	911.6206	952.8642	964.3365	993.7427	1016.7067	1043.9776	1069.9792	1081.8766	1128.8223	1154.3777	1176.0113	1199.0206	1215.1502	1238.5122	1282.744	1304.1268	1342.538	1407.018	1445.4505	1484.6933	1487.0455	1492.414	1502.3697	1507.264	1519.8238	3001.2006	3027.6417	3030.5376	3059.9237	3078.6846	3092.5721	3127.7761	3134.8967	3178.4583	3791.5887
COC12COC1C2(C)O	CO[C@]12CO[C@H]1[C@]2(C)O	
InChI=1S/C6H10O3/c1-5(7)4-6(5,8-2)3-9-4/h4,7H,3H2,1-2H3	InChI=1S/C6H10O3/c1-5(7)4-6(5,8-2)3-9-4/h4,7H,3H2,1-2H3/t4-,5-,6+/m0/s1
