23
gdb 100647	2.43642	1.07956	0.95461	1.8692	87.75	-0.2518	0.0622	0.314	1404.6127	0.201337	-388.262838	-388.251327	-388.250383	-388.29886	42.756	
C	-0.0724113892	 1.6346344472	-0.0017018123	-0.380388
C	 0.0099145978	 0.1042470527	 0.0189618805	-0.218633
C	-1.3775303348	-0.5521981099	-0.0361762723	 0.135635
O	-2.0859655895	-0.1417779385	-1.1986687397	-0.432226
C	-1.3807586979	-2.1152029002	 0.1039746347	 0.038704
C	-0.6745965895	-2.7960225045	-1.09096698	-0.427701
C	-0.7049711318	-2.5488362834	 1.4262374392	-0.416807
C	-2.7809740656	-2.5559264104	 0.1401036164	 0.36087
C	-3.9183155518	-2.9408651457	 0.1979286247	-0.494126
H	 0.9260798371	 2.0818008438	-0.006298049	 0.108839
H	-0.6130196615	 1.9835364583	-0.8848470924	 0.12741
H	-0.6038468071	 2.0096518987	 0.8797875832	 0.116853
H	 0.6111645182	-0.2427413076	-0.8329162785	 0.089805
H	 0.539299231	-0.2200919946	 0.9204815009	 0.103622
H	-1.9768214796	-0.1658214549	 0.7973363105	 0.093171
H	-1.5360576853	-0.3344897376	-1.9656486491	 0.27868
H	 0.3826973011	-2.5174861126	-1.1351365503	 0.114694
H	-0.7336211643	-3.8831080845	-0.9933185407	 0.12903
H	-1.1532136215	-2.5287090977	-2.0372279508	 0.118143
H	-1.1280681938	-2.0089633594	 2.2788964648	 0.122867
H	-0.8635437826	-3.6170604523	 1.5953117612	 0.126083
H	 0.3730403635	-2.3672706381	 1.3987383599	 0.115332
H	-4.9282419429	-3.2662814788	 0.2369402993	 0.190143
63.0332	90.185	128.4676	177.7623	207.4284	229.3424	237.264	255.8004	277.8551	293.301	310.6324	346.8279	408.1283	418.646	496.2508	559.0282	597.3712	623.1887	634.2068	735.3447	787.0932	853.441	933.9843	939.8589	958.3725	990.9852	1025.4752	1064.7004	1096.4435	1124.0873	1151.8916	1218.346	1235.7887	1261.3421	1325.989	1335.6979	1383.7091	1392.8951	1404.4203	1415.6103	1423.078	1483.0267	1483.4705	1491.4858	1495.1286	1501.2218	1509.2398	1510.3701	2232.1203	3014.4408	3037.854	3039.103	3040.6429	3043.1622	3077.625	3103.7932	3113.4031	3115.1639	3116.8272	3120.645	3125.9398	3502.9832	3805.5978
CCC(O)C(C)(C)C#C	CC[C@@H](O)C(C)(C)C#C	
InChI=1S/C8H14O/c1-5-7(9)8(3,4)6-2/h2,7,9H,5H2,1,3-4H3	InChI=1S/C8H14O/c1-5-7(9)8(3,4)6-2/h2,7,9H,5H2,1,3-4H3/t7-/m1/s1
