16
gdb 50950	3.07658	0.85352	0.71642	3.2778	75.72	-0.2669	-0.0425	0.2244	1518.3836	0.120893	-400.733814	-400.72396	-400.723016	-400.769959	33.691	
O	-0.5589535194	 0.7466296159	 0.8730695169	-0.230643
C	 0.0882737504	 0.9390437799	-0.1225106684	 0.14464
C	 1.3378427498	 1.8012343119	-0.1577030798	-0.290956
C	 1.3007814625	 2.8957094671	-1.2522417317	-0.159339
C	 2.5649470527	 3.7983896596	-1.1743698021	-0.364875
C	 2.5215774056	 4.9216718358	-2.0985403382	 0.287603
C	 2.4578311361	 5.8447616492	-2.8641000981	-0.405736
C	 1.1712433012	 2.2977588014	-2.5855193939	 0.291141
N	 1.0791673656	 1.796696067	-3.6227383591	-0.318625
H	-0.1932112718	 0.4802548053	-1.0949029422	 0.110936
H	 1.4623770402	 2.2631085295	 0.8250547709	 0.134901
H	 2.1978973129	 1.1436622477	-0.3437416091	 0.142058
H	 0.4237629644	 3.533221013	-1.0905019649	 0.152249
H	 2.6490291761	 4.1632939473	-0.1440493171	 0.146138
H	 3.4527764617	 3.1836317513	-1.3643855534	 0.151947
H	 2.412907692	 6.6580190281	-3.5458992197	 0.208561
47.2726	65.3917	83.8817	117.5067	159.8647	234.3069	258.795	333.8908	340.7066	448.8788	497.4383	555.5874	616.7585	636.7075	665.6691	789.3397	825.2216	927.1962	952.2417	1015.3433	1049.8114	1086.3399	1102.1331	1199.7474	1227.521	1271.6756	1327.7664	1349.5289	1367.2555	1430.2381	1458.4904	1473.0459	1835.4789	2246.3758	2358.9014	2907.9815	3027.3864	3032.7757	3051.7299	3073.7232	3110.9806	3504.8322
O=CCC(CC#C)C#N	O=CC[C@@H](CC#C)C#N	
InChI=1S/C7H7NO/c1-2-3-7(6-8)4-5-9/h1,5,7H,3-4H2	InChI=1S/C7H7NO/c1-2-3-7(6-8)4-5-9/h1,5,7H,3-4H2/t7-/m1/s1
