16
gdb 105291	2.25422	1.28721	1.05757	1.938	72.88	-0.261	-0.0131	0.2479	1184.3728	0.121332	-437.831965	-437.822589	-437.821645	-437.866605	33.417	
O	 0.2154160709	 1.3197428065	 0.1400825867	-0.405796
C	 0.0399924281	 0.0279027314	-0.3957956656	-0.11913
C	-1.3091498561	-0.5694684785	-0.0127020041	 0.044769
C	-1.3970255346	-2.0352971163	 0.3543553646	-0.266567
N	-1.3707489065	-1.027503967	 1.3864925176	-0.117734
C	-2.4514535602	-0.8016122856	 2.2389499837	 0.149262
O	-3.095604561	-1.6713197378	 2.7649212427	-0.274294
C	-2.472233766	 0.0695310805	-0.5758756966	 0.32197
C	-3.4260095297	 0.6191816999	-1.0581180488	-0.436625
H	 0.2003015939	 1.2334895744	 1.100116773	 0.290569
H	 0.1017522443	 0.1293184737	-1.4830821068	 0.127022
H	 0.8295021622	-0.6637007414	-0.0669076344	 0.09788
H	-2.3428435777	-2.5413521858	 0.1859984715	 0.150265
H	-0.5074567228	-2.6523026861	 0.2619185486	 0.132182
H	-2.6005386451	 0.2761530161	 2.4327268063	 0.09754
H	-4.2724320097	 1.1012140761	-1.4821198183	 0.208687
64.1161	86.7173	139.0506	157.7191	181.4337	249.4663	329.0421	349.9887	395.4636	432.6329	551.8683	565.3268	617.1962	628.7749	672.9363	774.713	861.9922	911.499	932.1584	980.9862	1036.9727	1083.7167	1118.7541	1135.5443	1159.6149	1207.1308	1295.3137	1360.271	1404.1614	1413.5382	1422.0913	1489.1078	1502.222	1809.8294	2239.2773	2974.5244	2998.6634	3095.7485	3116.5184	3212.4179	3500.2825	3799.7304
OCC1(CN1C=O)C#C	OC[C@]1(CN1C=O)C#C	
InChI=1S/C6H7NO2/c1-2-6(4-8)3-7(6)5-9/h1,5,8H,3-4H2	InChI=1S/C6H7NO2/c1-2-6(4-8)3-7(6)5-9/h1,5,8H,3-4H2/t6-,7?/m1/s1
