21
gdb 119246	1.67158	1.4175	0.87369	2.7425	79.72	-0.2437	-0.0186	0.2251	1402.2028	0.179097	-424.216329	-424.206064	-424.20512	-424.252734	36.617	
C	 1.4712140191	 1.5309806986	-0.1916787346	-0.384819
C	 1.7392875218	 0.0480360655	-0.3825969804	-0.060273
O	 0.6508238652	-0.5012303518	-1.1205852622	-0.292104
C	 0.807517924	-1.836015408	-1.5146039465	 0.436411
C	 0.7527639418	-2.8373208963	-0.3721112599	-0.356129
C	-0.4908234234	-2.6265708013	 0.4703155853	 0.175702
O	-0.4898262906	-2.5086380592	 1.6680442808	-0.245559
C	 0.1567728016	-2.1554944364	-2.8287978769	-0.315167
C	 1.6684335902	-2.1076655667	-2.7238495671	-0.328621
H	 1.3959355896	 2.0373287387	-1.1582260398	 0.123411
H	 0.5330704192	 1.6828592658	 0.349324353	 0.132789
H	 2.2804603126	 1.9922020248	 0.3821790503	 0.116615
H	 2.6800503444	-0.1139023104	-0.9297989095	 0.090152
H	 1.832015119	-0.4497239661	 0.5932866283	 0.106012
H	 0.7184572684	-3.8531701537	-0.7870020944	 0.120497
H	 1.6282206085	-2.7755585373	 0.2812855581	 0.121232
H	-1.4385099067	-2.5863500809	-0.1128116143	 0.080092
H	-0.3259209199	-3.1187598464	-2.9521276727	 0.11274
H	-0.3318678861	-1.3306958551	-3.333534941	 0.129141
H	 2.1657577083	-1.2543155014	-3.1704076143	 0.123075
H	 2.2261108629	-3.0366106026	-2.7734048422	 0.114802
40.2604	66.4165	90.357	128.2272	184.0586	193.307	251.5213	292.2766	343.6392	392.0328	431.9476	491.582	548.9861	740.1199	770.3761	810.3659	823.8681	870.5194	894.7712	948.532	970.258	991.2832	1034.1573	1055.3993	1074.7103	1085.4667	1096.2752	1144.6916	1187.385	1189.6883	1192.3225	1277.9238	1298.3119	1307.3353	1348.5519	1401.5874	1424.9659	1426.8203	1452.9071	1461.9515	1484.2738	1495.3309	1500.7402	1527.0069	1835.7605	2879.3022	2987.8069	3022.7149	3032.7848	3045.6007	3092.6436	3120.1896	3123.5577	3135.6386	3140.2018	3220.5941	3234.9948
CCOC1(CC=O)CC1	CCOC1(CC=O)CC1	
InChI=1S/C7H12O2/c1-2-9-7(3-4-7)5-6-8/h6H,2-5H2,1H3	InChI=1S/C7H12O2/c1-2-9-7(3-4-7)5-6-8/h6H,2-5H2,1H3
