23
gdb 94851	3.53842	1.09288	0.99688	1.4655	85.79	-0.2334	0.0823	0.3157	1326.1298	0.20668	-388.299165	-388.290306	-388.289362	-388.332865	34.489	
C	-0.615443906	 1.274928529	 0.2225567656	-0.414235
C	 0.1604769872	-0.0216482875	 0.0084514494	 0.011756
C	 1.0941640416	-0.0116480768	-1.2096592039	-0.080356
O	 2.0912345944	-0.9971205154	-0.9605837416	-0.311506
C	 2.098871517	-1.3744122039	 0.4134484123	 0.454714
C	 1.8159449781	-2.8806970825	 0.6940101513	-0.274213
C	 2.991899825	-2.8720911514	 1.7074210844	-0.214887
C	 3.5027555644	-1.5647788695	 1.0414620978	-0.285977
C	 1.1608969706	-0.3850589732	 1.1165517138	-0.287772
H	 0.0671407635	 2.1226456206	 0.3527764736	 0.115983
H	-1.2647143285	 1.4969857341	-0.6312981373	 0.116149
H	-1.2497146841	 1.2165257974	 1.1128346959	 0.117158
H	-0.5484800051	-0.8518960438	-0.1081593026	 0.078885
H	 0.5836826593	-0.2542497719	-2.1484735866	 0.099666
H	 1.5624136812	 0.9795538209	-1.3266332559	 0.08436
H	 0.8198490572	-3.1565673788	 1.0527914293	 0.086898
H	 2.0516246309	-3.4707814847	-0.1953466816	 0.107709
H	 2.6541175526	-2.708019313	 2.7342870472	 0.100089
H	 3.6638962971	-3.7322082421	 1.6987752155	 0.099515
H	 4.2353932763	-1.7694728028	 0.256337231	 0.110393
H	 3.8822454405	-0.7653691284	 1.684288006	 0.088807
H	 1.7183259481	 0.5108215716	 1.419941273	 0.095622
H	 0.6905575386	-0.8043951281	 2.0098581734	 0.101244
60.0165	121.1371	134.5846	224.9912	264.4159	284.7296	368.6678	413.9018	437.4329	455.9923	580.8659	685.8665	760.7259	790.5571	864.3871	864.9386	886.0799	915.9444	927.625	940.9679	961.5307	971.1998	996.5454	1029.6563	1065.1046	1079.7308	1142.7614	1165.1599	1173.9901	1192.233	1200.8575	1209.9169	1244.7264	1260.6072	1266.7222	1272.442	1296.1095	1322.3143	1340.9166	1359.7432	1406.7842	1414.4308	1468.8599	1483.073	1490.061	1497.1506	1500.1393	1506.6756	1527.2049	2967.277	3014.5891	3025.9768	3030.1905	3049.9379	3053.9359	3056.5105	3065.6746	3092.4715	3096.5894	3100.2318	3102.4632	3110.6254	3125.0855
CC1COC2(CCC2)C1	C[C@H]1COC2(CCC2)C1	
InChI=1S/C8H14O/c1-7-5-8(9-6-7)3-2-4-8/h7H,2-6H2,1H3	InChI=1S/C8H14O/c1-7-5-8(9-6-7)3-2-4-8/h7H,2-6H2,1H3/t7-/m1/s1
