20
gdb 39899	2.61065	1.76452	1.56903	1.7991	77.45	-0.2359	0.0781	0.314	966.1372	0.174509	-403.128964	-403.121791	-403.120847	-403.160252	29.464	
C	 0.0235135747	 1.4814707173	-0.0071719318	-0.340692
N	 1.2435277712	 0.6379095351	 0.0503751894	-0.396536
C	-0.069164771	 0.011758036	 0.0137984219	 0.42738
C	-0.5550212446	-0.910720672	 1.1288067987	-0.122774
C	-2.0657933622	-0.9959236763	 0.8054715842	-0.218264
C	-2.0867504352	-0.9865224055	-0.7629640577	-0.216913
C	-0.5879444542	-0.8840044063	-1.0992458562	 0.018063
O	 0.0264945963	-2.1464761707	-0.792607466	-0.290083
C	 0.1141556045	-2.2107991875	 0.6500930393	-0.072862
H	-0.1716485244	 2.0607740311	 0.8914780743	 0.119042
H	-0.2056358397	 2.0002676699	-0.9355287739	 0.111639
H	 1.6851339159	 0.596232779	-0.8657113721	 0.232876
H	-0.3008545579	-0.6214551278	 2.1481050799	 0.074794
H	-2.5248189938	-1.8946168575	 1.2264629813	 0.100626
H	-2.5985272197	-0.1323050386	 1.2130518484	 0.099745
H	-2.5085991985	-1.8999458475	-1.1879916247	 0.10858
H	-2.6481916914	-0.1343535499	-1.1581207509	 0.096326
H	-0.3390230025	-0.6152013788	-2.1276350971	 0.068049
H	 1.1692612909	-2.2589993554	 0.9461885593	 0.106883
H	-0.3970587382	-3.1129221844	 1.0070418835	 0.094122
153.2623	173.9355	253.9662	285.8018	363.2605	382.4954	540.4092	585.4049	619.9459	749.4794	797.9348	847.1761	876.8716	879.8584	896.1687	916.702	947.4065	960.1483	968.3591	973.2836	991.844	1028.6837	1049.7387	1071.9999	1085.6725	1128.5493	1154.7694	1184.1273	1213.9623	1234.7274	1256.8454	1264.7529	1276.0811	1286.3254	1301.9789	1327.52	1337.3874	1375.9975	1445.4625	1476.1996	1499.222	1517.8727	1527.2691	3017.1827	3050.6394	3057.5226	3060.7853	3092.8825	3099.6765	3102.2389	3114.9051	3124.7317	3182.9117	3488.2752
C1NC11C2CCC1OC2	C1N[C@]21[C@H]1CC[C@@H]2OC1	
InChI=1S/C7H11NO/c1-2-6-7(4-8-7)5(1)3-9-6/h5-6,8H,1-4H2	InChI=1S/C7H11NO/c1-2-6-7(4-8-7)5(1)3-9-6/h5-6,8H,1-4H2/t5-,6-,7+/m0/s1
