17
gdb 97416	3.80571	0.8788	0.74309	3.2639	74.68	-0.2425	0.0097	0.2521	1510.6803	0.134628	-455.149618	-455.140288	-455.139344	-455.185095	32.104	
C	 0.2464041445	 1.3026231411	-0.1295863914	-0.316039
N	-0.2202627153	-0.0085853487	 0.2720131608	-0.204007
C	 0.5642035466	-0.7164382408	 0.9494181729	 0.124092
O	 0.1783323482	-1.9610465204	 1.3420595981	-0.217471
C	 1.0884094166	-2.6493353301	 2.167402599	-0.037643
C	 0.7518812331	-4.1555879957	 2.3107971396	-0.185593
N	 2.0840457905	-4.4334338702	 1.7576034864	-0.329513
C	 2.4164777465	-3.1299622113	 1.4968149233	 0.419731
O	 3.3474666693	-2.5966030303	 0.9571380176	-0.354585
H	 1.2628843439	 1.5445929005	 0.2198919401	 0.102274
H	 0.2324585496	 1.3764854466	-1.2228014382	 0.130713
H	-0.4413483667	 2.0671082895	 0.2493692475	 0.127398
H	 1.5782995889	-0.434611865	 1.2619486939	 0.106467
H	 1.2448511312	-2.1283059216	 3.1187083318	 0.11292
H	 0.6002174467	-4.5177137268	 3.3309629694	 0.12265
H	-0.0776347846	-4.4617572462	 1.6681888727	 0.139081
H	 2.5401457511	-5.2987895103	 1.5089918265	 0.259527
46.997	64.9345	97.2486	158.6495	200.1348	222.9169	298.2152	315.0309	416.1959	430.4472	514.1937	587.0144	741.9711	764.6863	876.7604	931.2259	971.9892	987.7837	1049.4858	1079.1993	1127.6787	1141.5211	1157.3141	1181.7782	1184.4688	1203.5757	1240.5205	1301.328	1354.7576	1399.7384	1421.5128	1449.8719	1480.9483	1504.319	1521.1819	1780.4928	1898.2449	2974.5205	3037.4313	3049.6563	3059.394	3061.8791	3080.0433	3114.5198	3613.185
CN=COC1CNC1=O	CN=CO[C@H]1CNC1=O	
InChI=1S/C5H8N2O2/c1-6-3-9-4-2-7-5(4)8/h3-4H,2H2,1H3,(H,7,8)	InChI=1S/C5H8N2O2/c1-6-3-9-4-2-7-5(4)8/h3-4H,2H2,1H3,(H,7,8)/t4-/m0/s1
