20
gdb 15718	3.32988	1.61458	1.26003	2.6331	71.24	-0.2378	0.0648	0.3026	1038.9553	0.177125	-386.148918	-386.140264	-386.13932	-386.182234	31.881	
C	-0.0095936374	 1.5470201255	 0.0142675706	-0.386632
C	 0.0449255835	 0.0180022884	 0.0708811659	-0.177264
C	 0.6518350403	-0.5901087777	-1.1893025834	 0.155707
O	 1.9928726399	-0.1114349221	-1.3741660101	-0.28393
C	 2.8620691902	-1.1874501407	-1.714959664	-0.052088
C	 1.9474913116	-2.3400449494	-2.1425338637	-0.260798
C	 0.7419398378	-2.1252953745	-1.2165085277	 0.079673
O	 1.0004868946	-2.5929746897	 0.1013320384	-0.432673
H	 0.9933301309	 1.9615772074	-0.1162668466	 0.134411
H	-0.6269264104	 1.8937708963	-0.8226400597	 0.105618
H	-0.4348235485	 1.9589598504	 0.9346129834	 0.105883
H	 0.6307391516	-0.3138224935	 0.932119244	 0.117634
H	-0.9650154991	-0.3922703392	 0.1981752552	 0.088525
H	 0.0539431998	-0.2754587335	-2.0615164729	 0.06229
H	 3.5405846267	-0.8566728243	-2.5083730121	 0.099412
H	 3.4640739975	-1.4746608817	-0.8414700727	 0.098233
H	 1.6414735176	-2.2283713408	-3.188426395	 0.106429
H	 2.4037617879	-3.3273216702	-2.023771479	 0.091241
H	-0.1835543348	-2.5664927806	-1.6116728265	 0.064241
H	 1.1378123403	-3.5440823998	 0.0564684959	 0.284086
68.1661	104.2785	175.4428	184.4385	226.7609	280.6621	314.601	385.7092	438.8363	495.4855	664.2218	747.0519	793.2322	832.8153	866.3155	908.2923	926.2728	954.4853	1009.0516	1022.3811	1054.7473	1068.9852	1119.3696	1147.4968	1162.3243	1206.3154	1210.4667	1235.5083	1292.5388	1309.0878	1319.4904	1343.1653	1367.3898	1399.3937	1408.2214	1412.3397	1423.3492	1476.2882	1479.7363	1497.6805	1509.6291	1524.3603	2953.4738	3003.5886	3007.1245	3032.1359	3034.4113	3046.6012	3066.2249	3088.0441	3097.4355	3106.6711	3123.1622	3823.8067
CCC1OCCC1O	CC[C@H]1OCC[C@H]1O	
InChI=1S/C6H12O2/c1-2-6-5(7)3-4-8-6/h5-7H,2-4H2,1H3	InChI=1S/C6H12O2/c1-2-6-5(7)3-4-8-6/h5-7H,2-4H2,1H3/t5-,6-/m1/s1
