18
gdb 41269	3.40421	1.92827	1.51011	1.4426	73.91	-0.2125	0.0628	0.2752	891.2514	0.150187	-401.847423	-401.841201	-401.840257	-401.877609	26.587	
C	 0.023751536	 1.4754436863	 0.1600922718	-0.137311
O	 1.4154278237	 1.6163418549	-0.2842358738	-0.348523
C	 1.3719439815	 0.2780780725	-0.7417061527	 0.476887
C	 2.4394113644	-0.7807852882	-0.9807431107	-0.344613
C	 1.400630573	-1.4907193783	-1.9239567241	-0.055136
C	 0.1358054825	-2.0798955464	-1.2473214905	-0.170524
N	-0.5551055848	-0.7339338212	-1.1435060362	-0.166041
C	 0.0994911287	-0.0695052169	 0.0243619899	-0.072236
C	 0.58099418	-0.1723186253	-2.018855071	-0.084197
H	-0.1094384561	 1.8726759121	 1.1694965132	 0.116302
H	-0.6741841204	 1.9592546928	-0.5323654453	 0.117003
H	 3.2758242753	-0.4066080143	-1.5810316866	 0.116841
H	 2.8288634853	-1.3187901691	-0.1115938354	 0.101713
H	 1.8044534673	-2.0220760039	-2.7841892833	 0.080763
H	-0.4249551575	-2.7159004702	-1.9381402842	 0.11237
H	 0.2486908823	-2.6099720046	-0.294830739	 0.100282
H	 0.0714716662	-0.6246796353	 0.9649474392	 0.077427
H	 0.3683829526	 0.410957895	-2.9120454113	 0.078993
213.0269	292.9502	340.4696	380.8376	411.3847	511.1776	658.8625	680.7971	779.5947	793.7644	828.0384	856.5174	875.4708	902.1339	916.0135	930.2074	953.6341	970.8549	1008.6387	1026.9514	1037.6464	1102.9253	1110.051	1134.9046	1149.796	1162.5602	1180.4824	1196.4976	1206.9598	1222.1162	1254.5348	1278.9816	1302.7393	1324.3073	1337.4888	1357.0723	1482.4728	1495.8526	1504.5503	3034.8559	3038.9506	3042.8096	3077.7588	3091.052	3098.649	3106.7336	3118.6508	3141.589
C1OC23CC4CN(C12)C34	C1O[C@@]23C[C@H]4CN([C@H]12)[C@@H]34	
InChI=1S/C7H9NO/c1-4-2-8-5-3-9-7(1,5)6(4)8/h4-6H,1-3H2	InChI=1S/C7H9NO/c1-4-2-8-5-3-9-7(1,5)6(4)8/h4-6H,1-3H2/t4-,5+,6+,7-/m0/s1
