14
gdb 99440	3.26291	0.75737	0.62975	5.4917	82.89	-0.2889	-0.0573	0.2315	1672.6615	0.097784	-399.472234	-399.462669	-399.461724	-399.507509	32.755	
C	-0.016936846	 1.3799139257	-0.1725217981	-0.238609
O	-0.0097972144	 0.0109051571	 0.200028164	-0.226497
C	-1.2766778712	-0.6075936067	 0.0769575975	-0.251331
C	-1.7220471471	-0.7481037117	-1.3195772718	 0.340145
C	-2.0806598814	-0.838185227	-2.4619059841	-0.449497
C	-1.2024574612	-1.9186759272	 0.7296152023	 0.04522
C	-1.1735988639	-2.9932635686	 1.2761189558	 0.165503
C	-1.1352499597	-4.2111489934	 1.8931926482	 0.203532
N	-1.1054126842	-5.2463008543	 2.41872047	-0.329139
H	 0.9967623219	 1.7476457513	-0.0066004966	 0.143511
H	-0.2840715157	 1.5114986483	-1.2285523631	 0.129519
H	-0.7174316413	 1.9589960104	 0.4475213671	 0.114274
H	-2.034830441	-0.0104524388	 0.617329331	 0.137295
H	-2.3985236148	-0.9288786452	-3.4719962821	 0.216075
65.2648	80.2036	109.4673	162.8185	194.1399	226.5139	248.1508	343.4904	353.3159	440.9526	518.3433	572.6081	581.9331	594.8205	654.4045	694.5981	813.4124	918.9041	992.8116	1120.2172	1168.0423	1180.9626	1209.937	1322.7014	1342.1838	1475.2204	1484.6427	1508.3327	2238.2867	2273.2115	2410.4382	2931.6032	2993.085	3059.8828	3138.7596	3498.5119
COC(C#C)C#CC#N	CO[C@@H](C#C)C#CC#N	
InChI=1S/C7H5NO/c1-3-7(9-2)5-4-6-8/h1,7H,2H3	InChI=1S/C7H5NO/c1-3-7(9-2)5-4-6-8/h1,7H,2H3/t7-/m0/s1
