21
gdb 106328	2.79586	1.23908	1.04775	1.5176	79.27	-0.234	0.0717	0.3057	1240.6983	0.180702	-424.181572	-424.171864	-424.17092	-424.215889	36.228	
C	-0.2567555572	 1.2911257034	 0.0646737691	-0.255409
O	 0.200526736	-0.0430601456	-0.0731508204	-0.276686
C	 0.7979406305	-0.5351699165	 1.0695003223	 0.417912
C	 2.2683542073	-0.2791015968	 1.4317720928	-0.361734
C	 2.3920344044	-1.8106756003	 1.7619620354	 0.125331
O	 2.7928177787	-2.2091737398	 3.0574535757	-0.426813
C	 0.9125471483	-2.0087215218	 1.4574434232	-0.181297
C	 0.0083941502	-1.0617064472	 2.2337559371	-0.063785
C	 0.1503421076	-0.6760157471	 3.6925293693	-0.417047
H	 0.5679701143	 1.983588759	 0.2866884611	 0.110247
H	-0.7088647179	 1.5745724232	-0.8885179502	 0.125937
H	-1.0090546203	 1.3780404458	 0.8611872809	 0.111071
H	 2.8670444944	 0.0096204365	 0.5646862646	 0.104405
H	 2.4652587241	 0.4104098186	 2.2576641333	 0.095369
H	 3.006041632	-2.3088227273	 0.9999994984	 0.077325
H	 3.7414117378	-2.064527364	 3.1343643601	 0.282695
H	 0.5039073524	-2.8792126616	 0.9585755724	 0.088621
H	-1.0242265504	-1.2248306787	 1.9263531499	 0.08915
H	 1.1939382405	-0.5742318784	 3.9903930352	 0.134001
H	-0.3693989954	 0.2669929741	 3.8982585783	 0.103493
H	-0.2910695073	-1.4463321154	 4.3342036614	 0.117212
73.2291	130.4148	159.9571	177.0743	201.5973	223.607	293.0907	303.4169	347.9235	389.689	439.969	484.4738	595.3974	671.0907	691.3394	781.2216	848.8692	911.0488	958.8647	973.0498	989.4896	1007.3806	1054.7562	1069.6994	1113.584	1127.2365	1139.3322	1164.2309	1180.3611	1203.4583	1221.7738	1230.6753	1243.8496	1282.0536	1327.6342	1337.6038	1417.1754	1424.5681	1448.8662	1477.0356	1486.7404	1491.3546	1503.2843	1505.9472	1509.4605	2989.432	3006.4118	3031.4444	3042.1225	3054.849	3086.333	3113.3336	3115.4157	3119.2679	3149.1512	3184.6775	3813.6496
COC12CC(O)C1C2C	CO[C@]12C[C@@H](O)[C@H]1[C@H]2C	
InChI=1S/C7H12O2/c1-4-6-5(8)3-7(4,6)9-2/h4-6,8H,3H2,1-2H3	InChI=1S/C7H12O2/c1-4-6-5(8)3-7(4,6)9-2/h4-6,8H,3H2,1-2H3/t4-,5-,6-,7+/m1/s1
