21
gdb 80674	2.86928	1.34954	1.13568	1.8298	82.12	-0.2443	0.0862	0.3305	1166.1207	0.182847	-387.034214	-387.025738	-387.024794	-387.067391	32.819	
C	-0.06646755	 1.5417226931	-0.2532747029	-0.437585
C	 0.0805007269	 0.0512762618	-0.0276255533	 0.017605
C	 1.339633818	-0.7546114736	-0.1733415956	-0.074919
C	 2.5685687245	-0.0262698462	 0.3963491903	-0.276056
C	 1.8927586473	-0.0384796378	 1.8062158459	-0.005246
C	 1.8327232525	 1.2052690014	 2.6589803366	 0.070847
C	 3.0007883001	 2.0774276873	 2.8455009599	-0.186483
O	 1.8987536194	 2.4921664682	 2.0355446202	-0.223141
C	 0.6246906111	-0.6587765431	 1.1877708159	-0.114333
H	 0.7816839979	 2.1139302826	 0.1216514952	 0.159232
H	-0.1775449715	 1.7508740457	-1.3237247419	 0.105581
H	-0.9632530749	 1.9191475833	 0.2511373686	 0.110148
H	-0.7709008191	-0.5082085305	-0.4161500357	 0.082008
H	 1.399119725	-1.6075903464	-0.8390616231	 0.081001
H	 3.4835699634	-0.6205738441	 0.3613265401	 0.099445
H	 2.7743416976	 0.9607510729	-0.0257204994	 0.112917
H	 2.3725818498	-0.8100498296	 2.4209341642	 0.0839
H	 1.1100161037	 1.1594149902	 3.4770010659	 0.08963
H	 3.1301721027	 2.6283952482	 3.7759762426	 0.113602
H	 3.9202406343	 1.8629148847	 2.3018516939	 0.114531
H	 0.0368519013	-1.4189764082	 1.6910075527	 0.077317
73.1187	133.7067	164.5479	221.4141	233.7998	274.9961	373.9923	428.3547	533.1005	597.924	688.0234	713.9488	776.764	788.5607	852.2835	878.4224	905.4751	955.3512	970.37	976.5534	998.023	1038.7762	1054.588	1071.5836	1077.0128	1102.8764	1125.3601	1140.3486	1159.1025	1164.6857	1173.2827	1223.0741	1240.3949	1264.4071	1290.4728	1297.7941	1347.3011	1369.0602	1420.3205	1425.8183	1449.4816	1491.0517	1504.5266	1512.1155	1525.7626	3026.4719	3030.1416	3065.982	3079.9539	3082.3672	3085.0705	3102.4394	3115.9822	3158.6809	3160.0637	3167.5358	3177.9147
CC1C2CC(C3CO3)C12	C[C@H]1[C@H]2C[C@@H]([C@H]3CO3)[C@@H]12	
InChI=1S/C8H12O/c1-4-5-2-6(8(4)5)7-3-9-7/h4-8H,2-3H2,1H3	InChI=1S/C8H12O/c1-4-5-2-6(8(4)5)7-3-9-7/h4-8H,2-3H2,1H3/t4-,5+,6-,7+,8-/m0/s1
