14
gdb 42748	2.82839	1.61093	1.32981	2.9309	74.76	-0.2486	-0.0144	0.2342	965.9319	0.100272	-399.479183	-399.47189	-399.470946	-399.510786	28.558	
O	-0.0769618705	 0.001456116	-0.1890959993	-0.276381
C	-0.0627850147	 1.1701406407	-0.0601099256	 0.427196
C	-1.0500064017	 2.4055373933	 0.1056471247	-0.185603
N	 0.0059942664	 2.9098940174	 1.0291148068	-0.319007
C	 1.0084365808	 2.395360961	 0.0370742926	 0.09963
C	 0.6031229325	 3.0437752007	-1.2812027005	-0.134151
C	-0.7436497653	 3.0515540854	-1.2326856154	-0.101253
C	 2.3855193165	 2.2603814855	 0.4076879615	 0.04098
C	 3.5415948197	 2.1208164142	 0.7053259854	-0.313683
H	-2.0687020636	 2.3219073549	 0.4746440304	 0.101971
H	 0.0186558521	 3.9335468863	 1.0492036928	 0.215724
H	 1.2742834907	 3.2913664948	-2.0904024553	 0.129431
H	-1.4548334492	 3.3061421982	-2.005235765	 0.125914
H	 4.5610391363	 1.9961573316	 0.9761302567	 0.189231
122.9004	155.6515	184.8798	322.9664	446.564	495.8746	512.8408	548.1513	585.2426	620.646	672.831	682.0054	717.5769	780.8568	793.1865	849.5936	857.0733	910.768	940.0726	982.6288	1024.6016	1058.9916	1083.3979	1155.1711	1251.5331	1285.9402	1309.1894	1325.3849	1567.3193	1953.9788	2243.6157	3165.2754	3232.2808	3256.9461	3417.4129	3500.7763
O=C1C2NC1(C=C2)C#C	O=C1[C@H]2N[C@@]1(C=C2)C#C	
InChI=1S/C7H5NO/c1-2-7-4-3-5(8-7)6(7)9/h1,3-5,8H	InChI=1S/C7H5NO/c1-2-7-4-3-5(8-7)6(7)9/h1,3-5,8H/t5-,7+/m0/s1
