17
gdb 10131	3.35485	1.21641	0.90901	3.0827	75.3	-0.2389	-0.0356	0.2033	1270.1302	0.140786	-360.059701	-360.050128	-360.049184	-360.094483	32.629	
C	 0.0783042892	 1.5228177708	 0.0181153804	-0.408761
C	-0.0398541846	 0.0033977306	-0.0224615812	-0.103109
N	 0.6671537128	-0.5320119472	-1.1771545668	-0.346704
C	 0.7677711969	-1.8861724544	-1.3706275903	 0.322239
N	 0.3945250207	-2.7332826644	-0.4948926391	-0.296116
C	 0.5936682272	-4.151241373	-0.6962841705	-0.340814
C	 1.3710011751	-2.2371295211	-2.6548199397	 0.225393
N	 1.8328464575	-2.5316690517	-3.6731868994	-0.333522
H	 1.1252548369	 1.8354191293	 0.0754909977	 0.132319
H	-0.3682838826	 1.982015199	-0.8714006304	 0.120496
H	-0.4462507067	 1.9180901832	 0.8917506319	 0.131381
H	 0.3953541545	-0.4476398294	 0.8742242614	 0.135518
H	-1.0949272898	-0.3060366578	-0.0385044396	 0.114234
H	 0.7138327712	 0.046647938	-2.0010989821	 0.255333
H	 1.038648641	-4.4203911939	-1.6644298935	 0.127947
H	 1.2381505939	-4.5434419607	 0.0995784353	 0.132151
H	-0.3696238731	-4.6656913973	-0.6024945741	 0.132017
56.1898	111.7934	123.4518	135.0107	171.7758	235.2219	257.528	328.3005	358.9905	359.4641	401.8351	522.2411	646.0635	718.6163	801.9512	819.2597	926.9731	1053.159	1092.3678	1132.9057	1157.7119	1164.7952	1187.6848	1282.3197	1292.099	1381.9846	1416.7212	1449.3513	1483.3442	1492.901	1498.7739	1503.676	1521.8715	1526.9686	1719.2495	2343.2205	2998.5128	3004.9099	3036.1065	3066.9779	3074.0973	3078.2351	3106.8055	3124.5719	3631.9981
CCNC(=NC)C#N	CCNC(=NC)C#N	
InChI=1S/C5H9N3/c1-3-8-5(4-6)7-2/h3H2,1-2H3,(H,7,8)	InChI=1S/C5H9N3/c1-3-8-5(4-6)7-2/h3H2,1-2H3,(H,7,8)
