23
gdb 109146	3.51683	0.91743	0.87544	1.4775	87.87	-0.2234	0.0367	0.26	1469.325	0.204513	-388.309558	-388.299543	-388.298598	-388.344243	38.025	
C	-0.6316202608	 1.5328532633	-0.0984429508	-0.439399
C	 0.0845107714	 0.1812260187	-0.0044706852	 0.329278
C	-0.9498725537	-0.9559881049	 0.0541618742	-0.418963
C	 1.0529510397	-0.066469607	-1.2046407944	-0.293072
C	 2.2389035981	-0.7575420854	-0.5827914173	-0.15615
C	 2.2241788899	-0.6767482543	 0.7476901037	 0.320288
C	 3.2472605551	-1.2093083772	 1.6964246304	-0.180921
O	 4.2949455721	-1.837240932	 0.9791401668	-0.414188
C	 1.0189230491	 0.0900751556	 1.2427171616	-0.347806
H	 0.0853865215	 2.3599803342	-0.1398810444	 0.108138
H	-1.2564944372	 1.5873991451	-0.9972210169	 0.109358
H	-1.2837303386	 1.6983592265	 0.7669391317	 0.107614
H	-1.5826700915	-0.9583346874	-0.8402712983	 0.107287
H	-0.4543909867	-1.9304766106	 0.1186500945	 0.116141
H	-1.6038658052	-0.8501621665	 0.9271045405	 0.105096
H	 0.5765611057	-0.6596535798	-1.9955110142	 0.093926
H	 1.3559597183	 0.8799036636	-1.6762847273	 0.095536
H	 3.023986479	-1.2330805557	-1.1571087852	 0.102002
H	 3.6284739082	-0.3803510106	 2.3206994053	 0.091183
H	 2.7605843928	-1.9142342878	 2.3949792267	 0.091722
H	 4.9268890972	-2.1825025771	 1.6156170146	 0.288184
H	 1.3157787074	 1.0887333195	 1.5962213876	 0.094816
H	 0.5197906281	-0.3960786701	 2.0917899462	 0.089931
57.9672	104.0323	179.9961	201.7771	231.8374	247.0776	281.7532	304.2019	327.908	375.6797	413.5203	433.62	465.1499	593.5765	670.0113	774.0037	829.8712	873.9578	913.5637	923.8108	952.3854	952.8069	986.4061	1003.1795	1029.3456	1050.8814	1072.6911	1126.5694	1149.7319	1187.7805	1207.4002	1223.4542	1236.8604	1252.1052	1291.4935	1296.2735	1326.7789	1347.714	1397.7921	1419.0408	1467.2927	1482.7932	1484.1868	1486.9885	1499.6163	1504.071	1507.5367	1509.2617	1729.4092	2931.5397	2941.9436	2992.6275	2996.0352	3018.5832	3023.9803	3027.3038	3036.1349	3084.4413	3090.5769	3090.9506	3097.4182	3215.1905	3838.7763
CC1(C)CC=C(CO)C1	CC1(C)CC=C(CO)C1	
InChI=1S/C8H14O/c1-8(2)4-3-7(5-8)6-9/h3,9H,4-6H2,1-2H3	InChI=1S/C8H14O/c1-8(2)4-3-7(5-8)6-9/h3,9H,4-6H2,1-2H3
