19
gdb 94178	2.49559	1.28547	1.21057	3.9281	71.78	-0.2356	0.0227	0.2584	1149.6878	0.159092	-456.357568	-456.348076	-456.347132	-456.391913	35.443	
C	 0.1552903444	 1.5388299282	-0.1381847965	-0.42091
C	 0.0701148466	 0.0392858158	 0.0279992351	 0.134451
O	 0.9359264657	-0.6770086007	-0.8909917541	-0.297223
C	 1.4016705897	-1.5371810033	 0.1592121226	-0.093434
C	 0.7560135239	-0.6520942598	 1.2557993717	 0.111732
N	 1.7521050911	 0.0904294736	 2.0198348229	-0.58324
C	-0.2127057531	-1.4064712897	 2.1747721244	 0.365507
N	 0.2002510366	-1.51435461	 3.4637386264	-0.533467
O	-1.254897656	-1.8759172977	 1.7540877559	-0.374155
H	 1.1731960806	 1.9095186345	 0.0160661262	 0.103022
H	-0.1527495677	 1.8124527523	-1.1520098962	 0.137405
H	-0.5164819094	 2.0441850319	 0.5647062104	 0.119243
H	-0.9624104361	-0.3122820538	-0.0711186799	 0.102194
H	 0.9726999583	-2.5436747051	 0.0929126367	 0.118782
H	 2.4961512044	-1.6035350302	 0.1992337873	 0.099332
H	 2.5002478982	 0.4080296922	 1.4114471845	 0.243224
H	 1.3394041374	 0.9233548516	 2.4322417601	 0.238517
H	 1.1279908742	-1.2055143723	 3.7063881073	 0.269605
H	-0.3345275888	-2.0912125676	 4.0915542251	 0.259414
59.0545	81.1902	184.6984	209.1644	238.5535	263.6562	305.32	363.5373	375.1084	426.4286	444.2693	506.2993	558.832	642.8661	670.1629	744.9394	793.6849	861.3789	877.387	949.9741	998.3233	1016.3442	1031.998	1057.9553	1097.2464	1107.9691	1154.2888	1169.0881	1247.4047	1280.1257	1298.3702	1356.2714	1380.063	1391.9211	1410.1081	1482.6128	1491.7054	1514.674	1583.6759	1657.1745	1792.8495	3014.9765	3033.631	3056.9456	3068.022	3105.6892	3112.51	3487.1767	3568.2307	3583.1143	3726.2601
CC1OCC1(N)C(N)=O	C[C@H]1OC[C@]1(N)C(=O)N	
InChI=1S/C5H10N2O2/c1-3-5(7,2-9-3)4(6)8/h3H,2,7H2,1H3,(H2,6,8)	InChI=1S/C5H10N2O2/c1-3-5(7,2-9-3)4(6)8/h3H,2,7H2,1H3,(H2,6,8)/t3-,5-/m1/s1
