19
gdb 110949	2.68984	1.09268	0.93929	2.0363	71.27	-0.2482	0.054	0.3022	1300.9283	0.15867	-460.097318	-460.088302	-460.087358	-460.131592	33.425	
O	 0.1023961908	 1.602051033	-1.1611624593	-0.418507
C	 0.2160027315	 0.3013999287	-0.5982534589	-0.10248
C	-1.1390299715	-0.36813376	-0.5078481543	-0.045368
C	-1.6965147567	-1.2744202061	-1.5585390331	 0.066054
O	-0.6817547278	-2.1241829901	-2.1141409129	-0.318465
C	-0.5674807119	-2.8294788246	-0.8363029348	 0.129371
C	 0.87076053	-3.0861467497	-0.4268516031	-0.093022
O	 1.5343594221	-3.8512767295	-1.4171023601	-0.419279
C	-1.4793826756	-1.8116123927	-0.1560534785	-0.212001
H	-0.2061858769	 1.4964084353	-2.0671129859	 0.283899
H	 0.9103285421	-0.3192893942	-1.1764859774	 0.10042
H	 0.6419229361	 0.4471421575	 0.3998327006	 0.113218
H	-1.896636628	 0.3018391832	-0.1030882162	 0.103709
H	-2.5906642992	-1.1130959391	-2.1499050937	 0.108041
H	-1.0802274073	-3.7948500438	-0.9393423361	 0.095604
H	 1.3990184212	-2.1460876802	-0.2201893321	 0.096706
H	 0.8807498499	-3.6803073564	 0.4941238158	 0.112264
H	 1.4357232199	-3.3700543754	-2.2470234838	 0.295261
H	-2.2018555088	-2.0519393159	 0.6120613337	 0.104573
68.8603	87.0736	143.0245	172.5367	241.6134	268.1553	326.2454	404.2896	429.7517	453.0817	541.02	599.7036	736.1256	776.1067	823.5877	865.3904	899.5948	975.6326	994.5774	1018.6875	1040.0333	1048.1365	1057.6912	1068.5865	1071.6755	1105.8092	1141.1397	1186.1476	1215.4077	1227.503	1262.1872	1297.3951	1318.5873	1354.5252	1376.111	1403.1534	1415.5964	1433.099	1448.1762	1496.5478	1505.4933	3012.9667	3024.9804	3035.0857	3072.6367	3081.9668	3129.3459	3177.2859	3205.3715	3797.2735	3813.0584
OCC1C2OC(CO)C12	OC[C@H]1[C@H]2O[C@@H](CO)[C@@H]12	
InChI=1S/C6H10O3/c7-1-3-5-4(2-8)9-6(3)5/h3-8H,1-2H2	InChI=1S/C6H10O3/c7-1-3-5-4(2-8)9-6(3)5/h3-8H,1-2H2/t3-,4+,5-,6-/m1/s1
