19
gdb 97674	3.29236	0.75968	0.70973	3.1766	81.4	-0.2468	0.0289	0.2757	1687.7046	0.156741	-422.974267	-422.964068	-422.963124	-423.012163	35.422	
C	 0.2941431671	 1.463449117	 0.2957734588	-0.365749
C	-0.3511008051	 0.1930164795	-0.2874383004	-0.316434
C	 0.4191028534	-0.3959391619	-1.3778516821	 0.015898
C	 1.0724870365	-0.8780873227	-2.2691034743	 0.05847
C	 1.8481875031	-1.4256127619	-3.3711981665	 0.171885
O	 1.2320998509	-1.1925369826	-4.6236555943	-0.457362
C	 3.3831140676	-1.1401373596	-3.310429274	-0.10495
O	 3.6725393535	-2.5230443292	-3.0415403732	-0.27114
C	 2.2988882299	-2.9040495045	-3.2333744014	-0.094804
H	 1.2901970162	 1.2469536473	 0.6909019638	 0.131771
H	 0.3957162513	 2.2359794267	-0.4712453469	 0.127481
H	-0.3200805135	 1.8628237557	 1.108011665	 0.118494
H	-0.4766811352	-0.5541340122	 0.5065863307	 0.136154
H	-1.3630113216	 0.4234693989	-0.6444515921	 0.133119
H	 0.7761678204	-0.3459551951	-4.5752667114	 0.284823
H	 3.7756438413	-0.8084913691	-4.2799824366	 0.103584
H	 3.7314943904	-0.4791031443	-2.5101922932	 0.105412
H	 1.8960863387	-3.4625058413	-2.3830811066	 0.11135
H	 2.1414891453	-3.4617320707	-4.1645912254	 0.111999
8.8986	59.1489	86.1009	114.6611	186.2418	214.9783	240.7387	330.6817	343.4396	374.8087	477.2433	520.5264	555.3625	597.3026	783.6097	792.1198	875.7558	938.5384	953.3901	990.8464	1021.4445	1042.252	1048.9007	1085.1302	1103.29	1146.6116	1155.8095	1163.1091	1258.9666	1285.7013	1298.0368	1347.3855	1350.7739	1399.0431	1409.5631	1472.2694	1494.9673	1495.7975	1505.0706	1523.3877	2356.4347	3014.26	3022.0435	3028.3344	3045.4608	3049.8981	3080.6642	3088.7353	3119.4803	3124.5575	3819.4647
CCC#CC1(O)COC1	CCC#CC1(O)COC1	
InChI=1S/C7H10O2/c1-2-3-4-7(8)5-9-6-7/h8H,2,5-6H2,1H3	InChI=1S/C7H10O2/c1-2-3-4-7(8)5-9-6-7/h8H,2,5-6H2,1H3
