19
gdb 70754	2.59052	1.59615	1.19259	0.2151	70.45	-0.2628	0.069	0.3318	1078.35	0.16001	-460.140154	-460.132195	-460.131251	-460.172336	31.164	
C	 0.1123990431	 1.5177228738	-0.0423370401	-0.475484
C	-0.0459992431	 0.0196943662	 0.0543784197	 0.403021
C	-1.3538715614	-0.5529770219	-0.4911345618	-0.168237
O	-2.3580820403	-0.6399902001	 0.5098341371	-0.231199
C	-2.2840529675	-1.7917226963	 1.30878008	 0.016856
O	-1.2347381731	-1.8159322927	 2.2398265388	-0.230252
C	 0.0538259454	-2.0177896889	 1.6752456458	-0.130881
C	 0.6431431485	-0.7316030584	 1.1132815051	-0.009929
O	 1.1327422879	-0.7532822089	-0.2354241963	-0.294571
H	 1.0463489727	 1.8449039073	 0.4205442398	 0.12685
H	 0.1170944018	 1.8373102697	-1.0903587093	 0.126227
H	-0.7243123715	 2.0156522478	 0.4588700953	 0.137916
H	-1.7564500217	 0.0990078913	-1.2725763716	 0.108476
H	-1.1565917383	-1.5378083538	-0.9368546946	 0.106828
H	-3.205397788	-1.8107882093	 1.8946231521	 0.118999
H	-2.2207244353	-2.6847173087	 0.6594106113	 0.080007
H	 0.6815037912	-2.4029166149	 2.4837818882	 0.113921
H	 0.0211575454	-2.7756610253	 0.8791821255	 0.106544
H	 1.2694863942	-0.1611486172	 1.7998178249	 0.09491
126.0502	168.0096	224.1956	267.3775	325.3474	350.7681	389.7327	435.6903	464.4022	471.4711	585.9231	617.5066	753.3196	802.4825	916.0734	932.4189	937.8205	971.3736	983.459	1055.4811	1065.6785	1089.6553	1103.5936	1133.463	1144.7732	1196.7792	1252.1121	1278.7767	1297.7817	1342.1293	1352.2645	1392.4202	1398.1358	1412.4171	1447.531	1471.7744	1486.8779	1489.0878	1491.0846	1505.8416	1506.6302	2931.5438	3002.3949	3013.9989	3035.3256	3081.7711	3085.1596	3100.3584	3108.9511	3112.5954	3126.6193
CC12COCOCC1O2	C[C@]12COCOC[C@H]1O2	
InChI=1S/C6H10O3/c1-6-3-8-4-7-2-5(6)9-6/h5H,2-4H2,1H3	InChI=1S/C6H10O3/c1-6-3-8-4-7-2-5(6)9-6/h5H,2-4H2,1H3/t5-,6+/m1/s1
