17
gdb 55005	2.46285	1.18147	1.14259	2.6932	69.81	-0.2524	-0.0474	0.205	1196.7889	0.131331	-458.975865	-458.966084	-458.96514	-459.011626	33.821	
C	 0.6202669485	 0.6190562865	-0.6566119195	-0.49312
C	-0.6203625594	 1.3876386712	-0.2859913171	 0.339998
O	-0.6873360339	 2.5938245411	-0.2231613014	-0.297502
C	-1.8916873696	 0.5951538737	-0.0322760654	-0.04338
O	-1.843721459	-0.8211880503	 0.0078964545	-0.218522
C	-2.1606787994	-0.1607992989	 1.2227359757	-0.041178
C	-1.1667562881	-0.2216001398	 2.3620283413	 0.371611
C	-1.7022782116	 0.2608117176	 3.6933447604	-0.490195
O	-0.0374060507	-0.623967742	 2.2123336131	-0.292818
H	 1.4441921263	 1.3134281304	-0.8240847135	 0.136219
H	 0.8605586585	-0.0983355579	 0.1323478794	 0.188758
H	 0.4293715409	 0.0352943626	-1.5648840119	 0.145006
H	-2.7643184252	 1.0287693993	-0.5231684346	 0.126364
H	-3.206884458	-0.2330228342	 1.5243016001	 0.112399
H	-2.1419408691	 1.2595319219	 3.5905182615	 0.153104
H	-2.5006365726	-0.4054250617	 4.0411185956	 0.14965
H	-0.8979112475	 0.2808128004	 4.4286410416	 0.153607
45.1358	58.9084	124.0192	144.6088	153.6574	190.0331	270.4951	292.1236	378.2237	471.369	503.7311	560.8648	613.6453	639.0751	732.9097	820.9155	909.3725	917.0579	969.5213	989.2936	1017.539	1056.9254	1089.4984	1115.1202	1187.6232	1230.7458	1282.5412	1367.1907	1381.7436	1386.9241	1439.6084	1460.2212	1463.5105	1468.4949	1473.1551	1808.0597	1816.2007	3034.8192	3041.9998	3094.2544	3098.5673	3112.1291	3114.365	3159.4334	3162.0183
CC(=O)C1OC1C(C)=O	CC(=O)[C@H]1O[C@H]1C(=O)C	
InChI=1S/C6H8O3/c1-3(7)5-6(9-5)4(2)8/h5-6H,1-2H3	InChI=1S/C6H8O3/c1-3(7)5-6(9-5)4(2)8/h5-6H,1-2H3/t5-,6+
