16
gdb 54815	3.36042	1.42665	1.30362	3.2713	69.25	-0.239	-0.017	0.222	1015.4321	0.124234	-437.8946	-437.886856	-437.885911	-437.927334	28.66	
C	-0.0786873017	 1.5057432269	 0.2012175742	-0.483832
C	 0.1100632388	 0.0337048707	-0.1253852688	 0.402207
O	 1.2042677912	-0.4304171271	-0.3670392872	-0.316733
C	-1.1406680786	-0.7808456538	-0.1149870622	-0.200083
C	-1.3284808492	-2.0974149071	-0.8499884477	 0.038159
O	-0.168119938	-2.7886936612	-1.2607400664	-0.189226
C	 0.4765795446	-3.1119210403	-0.1095606393	 0.134729
N	-0.0741238881	-2.8191891452	 1.0005884619	-0.25254
C	-1.281470793	-2.1210880966	 0.6534607768	-0.048031
H	 0.8895211169	 2.0072062698	 0.2035887238	 0.143307
H	-0.7353554815	 1.9786103838	-0.5384901307	 0.137815
H	-0.5602280914	 1.6229553498	 1.1786819292	 0.14124
H	-2.0577144452	-0.2014356046	-0.0692465913	 0.100971
H	-2.1762834702	-2.2590730285	-1.5025087765	 0.123438
H	 1.4275921147	-3.6090741159	-0.2432786639	 0.153798
H	-2.1291773395	-2.2311875807	 1.3176622881	 0.11478
63.3332	138.9711	167.3254	179.1398	304.0387	383.9974	434.1255	560.7651	644.0692	669.8352	749.3335	774.5809	801.2498	876.4419	900.628	941.0449	962.3001	969.5267	990.1194	1047.3546	1065.68	1088.0614	1105.557	1120.1094	1157.1063	1195.9462	1287.733	1326.3056	1362.341	1376.2429	1413.1493	1464.6285	1475.947	1658.5696	1787.7769	3032.9956	3093.7266	3153.6287	3158.1438	3192.6582	3204.7665	3253.0511
CC(=O)C1C2OC=NC12	CC(=O)[C@H]1[C@H]2OC=N[C@@H]12	
InChI=1S/C6H7NO2/c1-3(8)4-5-6(4)9-2-7-5/h2,4-6H,1H3	InChI=1S/C6H7NO2/c1-3(8)4-5-6(4)9-2-7-5/h2,4-6H,1H3/t4-,5+,6-/m1/s1
