17
gdb 48402	2.42167	1.56921	1.18525	3.6566	72.68	-0.2463	-0.0368	0.2095	1066.8457	0.134129	-421.808871	-421.800467	-421.799523	-421.84251	30.664	
O	-0.2060722382	 0.0659857323	-0.3471879257	-0.262613
C	-0.0503090487	 1.1870264274	 0.0692814882	 0.119228
C	 1.2664636379	 1.9275739998	 0.0242946924	 0.114327
C	 2.5355798438	 1.1540656984	-0.486378762	-0.301856
C	 2.6574251916	 2.1273002926	-1.6622240687	-0.03133
C	 1.4068498918	 2.1012509585	-2.4866288737	-0.288823
C	 1.4085622523	 2.8825616524	-1.2001113213	-0.108869
C	 1.5504701234	 2.6649230195	 1.3102094158	 0.118309
O	 0.8492423448	 2.6388915016	 2.2891956334	-0.257042
H	-0.8986775655	 1.7765252042	 0.4739930383	 0.099341
H	 3.3644080579	 1.2145396939	 0.2229470331	 0.115694
H	 2.3454368165	 0.1076349153	-0.7329844857	 0.137122
H	 3.5861827509	 2.539008289	-2.0355380405	 0.098239
H	 1.4239916681	 2.7194999476	-3.3782058889	 0.12232
H	 0.8250837549	 1.188676923	-2.5802224513	 0.138098
H	 1.2075674432	 3.9463228395	-1.1658709446	 0.102621
H	 2.4935618654	 3.258411645	 1.2878883614	 0.085233
65.9613	79.3556	143.8707	212.3198	249.7515	311.5216	372.5759	409.3308	457.8643	625.394	687.8723	762.7049	792.4223	823.2016	881.2424	924.9028	942.3337	981.3012	989.4985	1013.726	1046.9446	1064.7891	1096.6571	1106.2499	1148.9863	1155.1025	1201.403	1250.1309	1274.0957	1291.9314	1352.3591	1418.726	1429.9404	1476.8585	1494.7879	1814.935	1823.0686	2867.5055	2922.1403	3068.9437	3123.2615	3126.1919	3183.6516	3196.274	3213.6058
O=CC1(CC2CC12)C=O	O=CC1(C[C@H]2C[C@@H]12)C=O	
InChI=1S/C7H8O2/c8-3-7(4-9)2-5-1-6(5)7/h3-6H,1-2H2	InChI=1S/C7H8O2/c8-3-7(4-9)2-5-1-6(5)7/h3-6H,1-2H2/t5-,6-/m1/s1
