17
gdb 25668	3.67791	0.98621	0.78534	4.0836	89.78	-0.205	-0.002	0.203	1438.8431	0.136295	-380.894145	-380.884808	-380.883864	-380.930788	31.834	
C	-0.0884305016	 1.4554282222	 0.0647364079	-0.509568
C	-0.0319954452	 0.0026939654	 0.0343630782	 0.158847
C	 0.0274398632	-1.2036235471	 0.0093458792	-0.059453
C	 0.0967600073	-2.608435077	-0.0198598631	 0.147175
C	 1.1620323658	-3.4905534258	-0.044246946	-0.20158
N	 0.7264726571	-4.7851324748	-0.0684312536	-0.261466
C	-0.5879279169	-4.7043076537	-0.05910862	-0.008019
N	-1.0326971394	-3.4197552371	-0.0300643516	-0.065737
C	-2.4094915259	-2.9699748116	-0.0120723728	-0.338162
H	 0.9157280363	 1.881007289	 0.1685513314	 0.156268
H	-0.5261075911	 1.8619784669	-0.8543072275	 0.149777
H	-0.6884289894	 1.8167479831	 0.9077666116	 0.149696
H	 2.2115902241	-3.2393882677	-0.0452941653	 0.113128
H	-1.2737299112	-5.5392284043	-0.0723365842	 0.125834
H	-2.6157673302	-2.3892284655	 0.8913594715	 0.150272
H	-2.6238988307	-2.3444418737	-0.8830696357	 0.150457
H	-3.0645667821	-3.8427288583	-0.03106592	 0.14253
12.2189	68.3609	84.5667	110.6808	204.4827	265.5492	272.9417	367.3299	466.5424	474.06	546.362	656.3201	685.8318	711.5931	810.5541	853.9579	921.3902	996.4845	1049.8937	1051.296	1076.4516	1154.186	1155.3962	1234.9448	1256.7706	1318.6368	1371.4909	1405.182	1414.6358	1453.8155	1473.3671	1477.6301	1478.7586	1501.7515	1526.9983	1578.348	2349.6202	3023.3423	3047.2865	3080.3442	3089.0924	3111.3092	3141.3816	3241.6898	3253.8103
CC#CC1=CN=CN1C	CC#Cc1cncn1C	
InChI=1S/C7H8N2/c1-3-4-7-5-8-6-9(7)2/h5-6H,1-2H3	InChI=1S/C7H8N2/c1-3-4-7-5-8-6-9(7)2/h5-6H,1-2H3
