19
gdb 11108	4.60541	1.1619	0.99353	2.3292	75.41	-0.2446	0.0349	0.2795	1232.9533	0.164367	-365.070146	-365.061169	-365.060225	-365.104345	31.634	
C	 0.0740462086	 1.6386193755	 0.062302022	-0.382929
C	 0.4263154268	 0.153568464	 0.1862661676	-0.189711
C	 0.6076477296	-0.5202066068	-1.1592506137	 0.150763
C	 0.6487390754	-2.0637302236	-1.208668525	-0.409697
C	-0.6241905428	-1.9180278162	-2.0119060275	 0.467271
O	-0.6369722351	-0.5310941182	-1.9434817113	-0.279379
N	-1.4136990431	-2.7114713275	-2.5679409239	-0.32638
C	-2.5659338018	-2.1803915987	-3.2830754529	-0.338026
H	 0.8710873475	 2.1942629414	-0.4437681657	 0.116104
H	-0.8445488763	 1.7667094628	-0.5171232455	 0.138514
H	-0.0765428919	 2.0909741378	 1.0465503746	 0.11668
H	 1.3569021921	 0.0269295124	 0.7551329024	 0.10379
H	-0.3581242565	-0.3760802755	 0.7409535455	 0.105425
H	 1.3922772761	-0.0292369769	-1.7456344395	 0.088649
H	 1.4853048323	-2.5101323111	-1.7486042954	 0.133216
H	 0.528060072	-2.56486938	-0.2456680002	 0.13125
H	-2.6338308332	-1.0861748544	-3.2767488161	 0.12385
H	-2.5311914621	-2.5238413424	-4.3229618784	 0.125406
H	-3.4815250478	-2.5912480627	-2.8430912071	 0.125203
72.4446	74.852	103.1091	170.4376	219.6165	228.3373	260.8203	381.9424	443.7548	530.7076	563.1395	693.5165	794.2976	806.83	916.8858	942.9993	960.2579	998.9381	1040.2526	1072.5938	1092.0166	1107.735	1125.469	1135.0624	1183.4039	1201.2413	1244.2853	1282.5064	1307.332	1350.5937	1407.5807	1411.3459	1440.0054	1468.42	1474.372	1494.8065	1497.5039	1498.0544	1507.7867	1847.8402	3015.9986	3022.542	3038.361	3044.273	3065.6183	3080.2482	3080.4619	3085.475	3106.5791	3121.0643	3135.1628
CCC1CC(O1)=NC	CC[C@H]1CC(=NC)O1	
InChI=1S/C6H11NO/c1-3-5-4-6(7-2)8-5/h5H,3-4H2,1-2H3	InChI=1S/C6H11NO/c1-3-5-4-6(7-2)8-5/h5H,3-4H2,1-2H3/t5-/m0/s1
