20
gdb 115215	4.05179	0.96138	0.81766	4.1456	75.77	-0.2275	0.0129	0.2404	1416.6074	0.171953	-440.319635	-440.310609	-440.309665	-440.353826	33.255	
C	 0.1110517991	 1.5971296769	 0.074813258	-0.381527
C	 0.0607083539	 0.0680442985	 0.0248022146	-0.198313
C	 0.6338287311	-0.512958014	-1.2717794975	 0.018178
C	 0.7192102232	-2.0347094456	-1.2070232615	-0.07069
O	 1.1485785249	-2.6434647338	-2.4391595006	-0.22987
C	 0.9504444361	-2.0556047887	-3.6425152371	 0.394271
O	 1.2443158874	-2.6479240437	-4.6449114829	-0.323432
C	 0.4205335652	-0.6206218082	-3.6655354522	-0.312586
N	-0.1571028566	-0.0989837139	-2.4325884756	-0.289574
H	 1.1456627209	 1.9562989312	 0.0553494132	 0.116464
H	-0.4074555777	 2.0275034288	-0.785251062	 0.137425
H	-0.3563761511	 1.9747431096	 0.9887734709	 0.113957
H	 0.6113975917	-0.35451681	 0.8742459415	 0.103444
H	-0.9777416358	-0.2751046632	 0.134852874	 0.095963
H	 1.648034737	-0.1140657304	-1.4219344301	 0.091112
H	 1.4362770325	-2.371994821	-0.451894692	 0.121706
H	-0.2643433328	-2.4526399067	-0.9495974128	 0.105733
H	 1.2740321045	 0.0065010087	-3.9588588635	 0.145864
H	-0.3010878162	-0.553564376	-4.4827965712	 0.143318
H	-1.1061107573	-0.4489826785	-2.3252717631	 0.218555
67.7012	101.9086	144.2613	164.0202	200.4878	263.4222	347.1856	409.0861	440.6721	490.7207	530.5743	561.9275	709.9209	752.9733	783.8631	828.0854	887.9058	941.7533	984.4912	1013.8648	1016.3271	1083.8682	1109.9942	1131.8289	1158.3451	1175.9978	1219.3603	1249.8387	1267.9221	1312.0367	1326.2009	1347.0157	1386.7699	1392.4952	1409.0116	1429.0274	1455.3453	1473.1992	1494.5507	1495.8842	1507.8526	1512.4425	1843.8556	2998.9704	3007.1509	3018.8656	3021.9463	3040.9491	3052.7984	3079.4404	3106.2607	3111.1085	3129.169	3488.0222
CCC1COC(=O)CN1	CC[C@H]1COC(=O)CN1	
InChI=1S/C6H11NO2/c1-2-5-4-9-6(8)3-7-5/h5,7H,2-4H2,1H3	InChI=1S/C6H11NO2/c1-2-5-4-9-6(8)3-7-5/h5,7H,2-4H2,1H3/t5-/m0/s1
