20
gdb 17273	4.95163	1.1656	1.0798	2.8185	75.62	-0.2312	0.0865	0.3177	1169.788	0.177471	-345.122558	-345.114062	-345.113118	-345.156217	31.292	
C	 0.1544220668	 1.3288416483	-0.5561278475	-0.414491
C	-0.1882157551	 0.1800858933	 0.3664016616	 0.034217
C	 0.7113102841	-0.9982995303	 0.502017318	-0.254352
N	 0.5332275209	-0.0676036787	 1.6173197819	-0.101181
C	 1.6497072415	 0.7960042785	 1.9924453548	-0.167602
C	 2.1834754858	 0.4327309703	 3.3695273618	 0.015338
C	 1.2683034968	 0.056743773	 4.4702611597	-0.227635
N	 2.1538414186	-0.9538579385	 3.8541977817	-0.322952
H	 1.2322830514	 1.4389621135	-0.6987867013	 0.122525
H	-0.2976578251	 1.1635848609	-1.5396534714	 0.124999
H	-0.2365221376	 2.2768345055	-0.1698694506	 0.125304
H	-1.2590634279	 0.0040902116	 0.464932899	 0.091709
H	 0.3100836265	-1.9991571404	 0.6411135218	 0.115376
H	 1.6588042616	-0.961889532	-0.0355358522	 0.11095
H	 2.4766978421	 0.7519013805	 1.2654592848	 0.091721
H	 1.303072163	 1.8373803935	 2.0159001519	 0.10866
H	 3.1009645093	 0.9610636826	 3.6241026036	 0.084242
H	 1.5118302596	 0.3181117214	 5.4962449421	 0.108329
H	 0.2092897786	 0.0060851933	 4.2363345358	 0.118709
H	 1.587100779	-1.5013416462	 3.2091438545	 0.236134
41.1609	93.78	154.9291	197.3597	220.7853	312.8912	354.0344	435.911	475.0466	566.181	747.7139	779.7391	815.941	854.1771	904.9384	920.1364	936.2598	959.9418	994.7581	1031.2207	1054.9211	1086.3521	1116.1793	1120.1891	1150.4445	1155.2074	1168.5705	1186.4937	1207.9233	1268.7772	1294.4057	1305.3668	1333.7976	1381.1824	1403.7339	1421.2782	1423.1907	1482.9232	1490.6519	1499.6168	1500.5148	1514.8175	2964.3853	3034.923	3037.2445	3084.1807	3094.3351	3100.4155	3112.2952	3119.2633	3124.7449	3170.9329	3204.4289	3490.3314
CC1CN1CC1CN1	C[C@H]1CN1C[C@H]1CN1	
InChI=1S/C6H12N2/c1-5-3-8(5)4-6-2-7-6/h5-7H,2-4H2,1H3	InChI=1S/C6H12N2/c1-5-3-8(5)4-6-2-7-6/h5-7H,2-4H2,1H3/t5-,6+,8?/m0/s1
