24
gdb 88969	3.18961	0.9765	0.85651	1.1476	90.06	-0.2204	0.0825	0.3029	1473.8434	0.216367	-368.370031	-368.36009	-368.359146	-368.404844	38.102	
C	-0.5444265212	 1.0015629458	-0.1177785368	-0.314332
N	 0.157962485	-0.2563752008	 0.0787033338	-0.078622
C	 1.5943582644	-0.2534582981	-0.1705610649	-0.265801
C	 1.0737636026	-0.4382118926	 1.2141082643	 0.029685
C	 1.3323599286	 0.5880854956	 2.3057184814	-0.301047
C	 0.529231043	 0.3390897867	 3.5775230029	 0.392737
C	-0.9793445578	 0.4082652085	 3.4315010972	-0.464297
C	 1.0936858077	-0.6566132787	 4.5654436992	-0.295128
C	 1.1285668304	 0.8223810818	 4.8758827714	-0.319548
H	 0.0417554508	 1.9026041795	 0.124268324	 0.098411
H	-0.8352368732	 1.0711002018	-1.1712030585	 0.121883
H	-1.4570562675	 1.0134986819	 0.485757653	 0.12221
H	 1.9916485678	-1.0909120303	-0.7392874667	 0.109044
H	 2.0644685856	 0.7056257255	-0.3924545581	 0.099737
H	 1.0444588491	-1.458698114	 1.5962309537	 0.08931
H	 2.4006281358	 0.5540893716	 2.5556719798	 0.097821
H	 1.1434044786	 1.6030981178	 1.9366831769	 0.09588
H	-1.3451369801	-0.3288183419	 2.7084915092	 0.131444
H	-1.4757369926	 0.2122651991	 4.387068252	 0.109484
H	-1.2991627238	 1.3998937331	 3.0897004232	 0.111922
H	 0.4008377178	-1.279399168	 5.1215821153	 0.108392
H	 2.0312808191	-1.1473972409	 4.3246793843	 0.10729
H	 2.0886811095	 1.3274052928	 4.8436551826	 0.106215
H	 0.4562418906	 1.1993950537	 5.6395418507	 0.107312
58.8708	85.9083	140.973	198.5498	244.1388	254.6375	297.6631	325.2399	362.308	368.1872	418.4039	447.1063	516.9171	721.86	740.2362	777.1601	795.1431	867.6768	899.3796	923.9092	949.1715	954.7597	975.6354	1038.7941	1044.3868	1065.3424	1077.4648	1079.3778	1114.3072	1117.4742	1134.0105	1152.3209	1177.9441	1187.6476	1207.5476	1230.068	1298.9572	1326.6216	1336.5614	1371.7997	1418.8172	1422.33	1447.4811	1467.5841	1474.021	1489.4835	1493.7508	1502.9582	1506.8871	1511.8587	1515.1857	2973.1418	3020.5672	3024.3844	3058.1801	3065.7654	3076.4363	3085.5638	3098.836	3101.325	3103.0346	3123.8603	3128.7063	3163.0701	3200.9331	3215.3841
CN1CC1CC1(C)CC1	CN1C[C@H]1CC1(C)CC1	
InChI=1S/C8H15N/c1-8(3-4-8)5-7-6-9(7)2/h7H,3-6H2,1-2H3	InChI=1S/C8H15N/c1-8(3-4-8)5-7-6-9(7)2/h7H,3-6H2,1-2H3/t7-,9?/m1/s1
