16
gdb 95747	2.98109	1.17604	0.88193	3.5428	74.15	-0.2717	-0.0501	0.2216	1249.2952	0.124893	-437.896292	-437.888003	-437.887059	-437.929368	30.456	
O	-0.0804991254	 1.4376904392	 0.0282724955	-0.421068
C	 0.0150512444	 0.0204368025	 0.0037030691	 0.057901
C	-1.4172397567	-0.520214925	-0.0154059253	-0.101355
O	-1.4109750211	-1.9109478441	-0.2770702499	-0.243099
C	-0.9736054856	-2.2280932034	-1.577186154	-0.160414
C	 0.2922549413	-1.4823135758	-1.9617604805	 0.130077
C	 0.7489013357	-0.4646549877	-1.2215848847	-0.160701
C	 0.9486878643	-1.903193247	-3.156667694	 0.22017
N	 1.4515556095	-2.2776931437	-4.13074754	-0.326328
H	 0.7826063491	 1.8021050197	 0.2478970392	 0.293141
H	 0.5254262479	-0.3526541208	 0.9058805111	 0.097055
H	-1.8995408211	-0.3809084501	 0.9538529849	 0.123707
H	-1.9901031884	 0.0343734925	-0.7741592473	 0.111685
H	-0.7954603717	-3.3078386273	-1.5956974424	 0.14141
H	-1.7572708104	-2.0119408048	-2.3238749703	 0.123074
H	 1.6554380081	 0.0616018559	-1.5076729415	 0.114745
109.3521	121.4581	153.6404	224.3055	288.5633	316.1384	361.9502	420.9316	466.0348	541.5217	553.1889	572.2853	617.2839	878.5272	897.169	927.4449	970.6564	1022.3213	1050.0509	1085.9879	1096.5276	1142.9382	1172.8972	1227.7752	1262.2168	1307.3582	1324.9573	1349.1671	1370.9381	1404.6411	1431.3532	1486.3875	1502.5344	1697.2324	2336.3059	2962.4885	2973.9095	3001.2584	3078.7901	3116.1597	3172.1953	3824.8488
OC1COCC(=C1)C#N	O[C@H]1COCC(=C1)C#N	
InChI=1S/C6H7NO2/c7-2-5-1-6(8)4-9-3-5/h1,6,8H,3-4H2	InChI=1S/C6H7NO2/c7-2-5-1-6(8)4-9-3-5/h1,6,8H,3-4H2/t6-/m1/s1
