17
gdb 56600	3.79602	0.97192	0.9018	3.9455	68.91	-0.2697	0.0274	0.2971	1296.4012	0.13558	-455.11695	-455.107758	-455.106814	-455.151388	33.131	
N	-0.0021479416	 1.5101060769	-0.0035122004	-0.499844
C	 0.013944564	 0.051626847	-0.0058221574	-0.151364
C	 0.5959658813	-0.5364777615	-1.2327008224	 0.262494
N	 1.03526024	-0.9612232434	-2.2140805805	-0.320618
C	 0.7732729174	-0.4616693258	 1.2448497821	 0.110698
O	 2.0856720842	 0.0477702062	 1.2755739152	-0.441351
C	 0.0333959819	-0.0872666917	 2.5281434594	 0.055766
C	 0.6825240038	-0.2627697417	 3.8311908924	-0.191045
O	 0.5764904994	 1.0367685164	 3.2241134764	-0.23453
H	 0.9544056825	 1.8446529226	-0.0779298801	 0.24677
H	-0.5028382316	 1.8617279087	-0.813122378	 0.24742
H	-1.020938394	-0.3076757087	 0.0610453029	 0.127454
H	 0.8336031444	-1.5550393643	 1.172444087	 0.112453
H	 2.0528048347	 0.80501548	 1.8823487428	 0.302043
H	-1.0540473152	-0.1032212181	 2.4762964145	 0.108328
H	 0.07633479	-0.4028684077	 4.7231988769	 0.130311
H	 1.6907751287	-0.6690640447	 3.8707376392	 0.135015
58.7708	91.1747	128.723	196.4128	237.2507	265.8925	303.1516	329.5214	368.7693	418.9755	572.5344	589.6332	655.0931	738.969	798.8324	839.3124	884.6911	904.4045	964.8462	976.7606	1035.1469	1087.9956	1096.468	1157.0752	1164.7696	1165.5567	1193.6002	1261.8002	1289.1135	1331.8198	1362.2128	1386.4022	1418.7427	1451.5089	1517.029	1654.4581	2347.3232	3031.7857	3038.5588	3101.0081	3130.2351	3195.1285	3503.6554	3583.2177	3684.5391
NC(C#N)C(O)C1CO1	N[C@@H](C#N)[C@@H](O)[C@H]1CO1	
InChI=1S/C5H8N2O2/c6-1-3(7)5(8)4-2-9-4/h3-5,8H,2,7H2	InChI=1S/C5H8N2O2/c6-1-3(7)5(8)4-2-9-4/h3-5,8H,2,7H2/t3-,4+,5+/m0/s1
