14
gdb 21885	6.47439	1.64155	1.33865	2.5883	64.92	-0.2117	0.0286	0.2403	868.647	0.109739	-378.706658	-378.700274	-378.69933	-378.737313	24.196	
O	-0.131196913	 1.3415436651	 0.1211579437	-0.423238
C	 0.0673481027	 0.0080383597	 0.0790212972	 0.444027
N	 0.0948111098	-0.6476155833	-1.0868918248	-0.402717
N	 0.2137946456	-1.9279927502	-0.6616993692	 0.068021
C	 0.7626991474	-3.2445840386	-1.0203035678	-0.165012
C	 0.7884738413	-3.5192373665	 0.5377152779	-0.364192
C	 0.3450500086	-2.0686382075	 0.667560138	 0.379985
C	 0.2435139881	-0.8136925275	 1.232138074	-0.479562
H	-0.2195516088	 1.6401391551	-0.7928262773	 0.303839
H	 0.0979553339	-3.8613696202	-1.6307482831	 0.128243
H	 1.7558623703	-3.1969843178	-1.4757645178	 0.134682
H	 0.081849182	-4.2756913119	 0.8861576676	 0.131119
H	 1.7815041416	-3.7419187805	 0.9335803325	 0.134035
H	 0.2716091406	-0.4959640659	 2.2596278291	 0.11077
81.2639	222.9281	323.0834	342.6941	418.1599	525.4378	603.8424	641.9257	713.2855	767.3	806.437	827.9778	831.7524	923.9495	1002.3353	1056.7561	1082.9824	1130.5559	1151.0321	1171.3622	1215.3471	1224.3032	1275.5956	1325.8145	1438.681	1470.8015	1487.6289	1522.1391	1536.4395	1598.5816	3056.2921	3074.9408	3108.6092	3128.1889	3287.9575	3793.351
OC1=NN2CCC2=C1	Oc1nn2CCc2c1	
InChI=1S/C5H6N2O/c8-5-3-4-1-2-7(4)6-5/h3H,1-2H2,(H,6,8)	InChI=1S/C5H6N2O/c8-5-3-4-1-2-7(4)6-5/h3H,1-2H2,(H,6,8)
