18
gdb 74776	2.85378	1.72167	1.52899	1.8829	75.63	-0.2362	0.0022	0.2384	952.8184	0.150662	-401.969917	-401.962862	-401.961918	-402.00107	28.511	
C	 0.0184659685	 1.47308398	 0.054944812	-0.508812
C	-0.0669482012	-0.0137643521	-0.01809129	 0.350517
C	-0.1105765588	-0.8049474836	-1.0985122463	-0.191711
C	-0.0267850406	-2.2488102313	-0.6517649945	 0.074594
C	-0.669758371	-2.1901176982	 0.7377609701	-0.248587
C	 0.0346576641	-0.9102574568	 1.2234596679	-0.077715
N	 1.4708283323	-1.1988965186	 1.4334586569	-0.272087
C	 1.9816016269	-1.9918261132	 0.5810142401	 0.127339
O	 1.3873663226	-2.6015600347	-0.4720337774	-0.244955
H	 0.950465611	 1.778430808	 0.545349201	 0.149189
H	-0.0158971766	 1.9306888896	-0.9373669677	 0.12524
H	-0.8013811539	 1.8869579868	 0.655372674	 0.128919
H	-0.0712317202	-0.4863101061	-2.133236555	 0.097547
H	-0.4132537691	-3.0001544401	-1.3395553386	 0.083887
H	-1.7504646408	-2.0539457047	 0.6543740148	 0.106542
H	-0.4534749125	-3.0659290238	 1.3545983999	 0.109676
H	-0.3742785335	-0.4708735962	 2.1353101203	 0.068405
H	 3.0341527129	-2.2661883651	 0.6325818526	 0.122013
147.9998	187.68	247.2437	329.5459	396.1635	436.9343	479.1356	554.2273	623.6742	646.3697	733.3374	815.9561	835.3506	869.6805	882.1565	918.5895	947.3722	962.324	980.746	1003.5623	1025.3692	1062.9494	1095.3866	1131.1499	1157.0713	1186.3244	1262.9001	1273.568	1306.5431	1335.2684	1336.9798	1360.685	1400.5607	1409.7467	1476.9549	1484.1881	1485.6907	1678.8347	1699.8873	3022.8588	3065.8864	3074.3593	3088.8414	3114.1714	3121.5789	3122.6481	3151.582	3202.9677
CC1=CC2CC1N=CO2	CC1=C[C@@H]2C[C@H]1[N][CH]O2	
InChI=1S/C7H9NO/c1-5-2-6-3-7(5)8-4-9-6/h2,4,6-7H,3H2,1H3	InChI=1S/C7H9NO/c1-5-2-6-3-7(5)8-4-9-6/h2,4,6-7H,3H2,1H3/t6-,7-/m1/s1
