15
gdb 112388	2.39412	1.53276	0.98901	2.4997	65.57	-0.268	-0.0197	0.2482	1150.9091	0.112887	-491.129898	-491.12164	-491.120695	-491.163456	29.485	
C	-0.1211175319	 1.3822594798	 0.0628152829	-0.244844
O	-0.0193847177	-0.0377526342	 0.0536337313	-0.216873
C	 0.6745213116	-0.5611573808	 1.1174386343	 0.058554
O	-0.0743442397	-0.4862834469	 2.3482413513	-0.252879
C	-0.4325501572	-1.7365089096	 2.764119471	 0.480346
N	-1.1364153831	-2.0424555824	 3.761190265	-0.568023
N	 0.1447344828	-2.6575851216	 1.8971639662	-0.373888
C	 0.8629424919	-2.0747004254	 0.8834555192	 0.424422
O	 1.4881495405	-2.6074671625	 0.0069117988	-0.344009
H	 0.8743602451	 1.8455802043	 0.1026146275	 0.120981
H	-0.613531239	 1.6645824634	-0.8685939271	 0.144968
H	-0.7168674173	 1.7326700273	 0.9129115369	 0.135598
H	 1.6276033061	-0.0410859602	 1.2862195599	 0.110345
H	-1.4500990306	-1.2067674839	 4.2502957278	 0.236278
H	 0.0291715083	-3.6508176375	 2.0212606051	 0.289023
75.0491	112.9138	138.4053	170.6697	218.9384	324.7717	404.1253	462.864	567.1416	595.8271	643.6321	694.2885	720.5974	737.6876	823.8761	928.9558	951.5089	992.7779	1017.751	1076.2175	1159.8823	1176.6981	1224.4333	1231.4486	1333.8303	1362.4988	1382.9744	1415.0296	1479.2789	1486.848	1507.2974	1807.3674	1884.08	3007.7097	3020.9136	3080.0205	3143.9243	3529.0113	3660.4677
COC1OC(=N)NC1=O	CO[C@H]1O[C]([NH])NC1=O	
InChI=1S/C4H6N2O3/c1-8-3-2(7)6-4(5)9-3/h3H,1H3,(H2,5,6,7)	InChI=1S/C4H6N2O3/c1-8-3-2(7)6-4(5)9-3/h3H,1H3,(H2,5,6,7)/t3-/m0/s1
