21
gdb 114231	3.35169	0.93943	0.91048	2.4983	79.44	-0.2292	0.0696	0.2988	1410.8127	0.18127	-424.194079	-424.184679	-424.183734	-424.228791	35.309	
C	-0.4112908987	 1.2749472277	 0.3688720162	-0.407222
C	-0.0688591555	-0.1970089929	 0.3255310598	-0.068393
C	 1.2306551214	-0.6832982061	-0.3107730832	-0.364051
C	 1.026847282	-0.7679139335	 1.1661698187	 0.458197
C	 1.8240680325	-0.1524128742	 2.3117177425	-0.396551
C	 1.6123277306	-1.5221951512	 2.9910881498	 0.118443
C	 0.7096775705	-1.5724986298	 4.2113855939	-0.063517
O	 0.2472187043	-2.8891204897	 4.4306921405	-0.421121
O	 0.8911784397	-2.0311123829	 1.8311173676	-0.335776
H	 0.4813780741	 1.8840610039	 0.5472743388	 0.115398
H	-0.8508851527	 1.6070164524	-0.5779497275	 0.122062
H	-1.1291772087	 1.496416477	 1.1665855823	 0.11928
H	-0.9148760565	-0.8667530271	 0.1896677177	 0.095145
H	 1.2047221172	-1.6128902209	-0.8692993899	 0.122383
H	 1.9272480371	 0.0586698044	-0.6912783476	 0.110544
H	 2.8604719582	 0.0976441365	 2.0792118989	 0.115204
H	 1.3511322594	 0.6930995771	 2.8184394111	 0.111834
H	 2.5183820324	-2.11442757	 3.1618895852	 0.087165
H	 1.2618976186	-1.2663246672	 5.107433234	 0.106517
H	-0.1267541807	-0.8670903783	 4.0722151307	 0.08186
H	-0.1143136951	-3.1810070652	 3.5841957504	 0.292598
39.9603	106.4717	148.9527	187.888	204.4675	254.2765	332.8631	375.5126	414.3866	461.6762	473.0472	517.9538	570.235	782.3662	811.5622	850.9463	871.4313	894.0762	919.609	937.1591	996.7209	1014.5577	1027.2838	1052.8771	1089.5133	1109.3276	1118.0932	1133.6406	1168.4242	1180.459	1200.3606	1226.0525	1246.7564	1296.9128	1339.3351	1346.3559	1392.5959	1411.0272	1422.8603	1438.4355	1482.4049	1492.447	1495.4058	1499.4668	1508.3759	2965.1039	3026.182	3043.6097	3065.2781	3068.0679	3089.7945	3093.1895	3120.3077	3121.3689	3139.9875	3212.3249	3778.7455
CC1CC11CC(CO)O1	C[C@H]1C[C@]21C[C@@H](CO)O2	
InChI=1S/C7H12O2/c1-5-2-7(5)3-6(4-8)9-7/h5-6,8H,2-4H2,1H3	InChI=1S/C7H12O2/c1-5-2-7(5)3-6(4-8)9-7/h5-6,8H,2-4H2,1H3/t5-,6-,7+/m0/s1
