21
gdb 64374	2.0875	1.82366	1.34137	2.8954	77.26	-0.2548	0.063	0.3177	1070.235	0.181873	-424.221134	-424.212128	-424.211184	-424.254516	35.152	
C	-0.4778366266	 1.4781003688	 0.0381785174	-0.470025
C	 0.0166493631	 0.0376889824	 0.0112575788	 0.306793
O	-1.096907934	-0.8649404046	-0.0482705139	-0.475731
C	 1.0213953074	-0.2983814787	-1.1052368409	-0.250552
C	 1.5960388929	-1.6761464015	-0.6983774246	-0.206225
C	 1.5248633333	-1.7116238448	 0.8537411867	-0.299132
C	 0.8005200336	-0.4232719807	 1.2448657079	 0.480854
C	 1.3218940972	 0.5018715665	 2.2603247664	-0.262015
O	 0.1872815925	-0.3313016227	 2.5218611207	-0.288776
H	 0.3484295007	 2.195057325	 0.0321729457	 0.113815
H	-1.0972376817	 1.6820615337	-0.8427928121	 0.102508
H	-1.0900512371	 1.644986301	 0.9292085143	 0.140361
H	-1.5676110042	-0.6910372705	-0.8704573601	 0.275885
H	 0.5504256798	-0.3029292397	-2.0942632799	 0.085228
H	 1.8106306765	 0.4628110701	-1.1250471467	 0.098053
H	 0.9811391534	-2.4738626948	-1.1199993806	 0.110421
H	 2.6127240555	-1.8172835758	-1.0730252447	 0.095775
H	 0.9451269802	-2.5679149032	 1.2068092928	 0.126509
H	 2.5122565666	-1.7709790106	 1.3190874699	 0.098952
H	 2.2320536758	 0.2341969151	 2.7968145799	 0.107834
H	 1.113291715	 1.568658265	 2.211115203	 0.109467
56.3397	150.5237	227.8708	239.7489	270.1588	288.4325	334.1329	349.2037	370.4593	450.6882	505.0968	562.5732	604.7497	681.5564	772.9217	829.5303	867.9373	892.2865	911.3466	940.702	956.9363	964.209	1026.7858	1042.5938	1086.7119	1105.8867	1133.6193	1169.3079	1189.8937	1207.8839	1219.8675	1224.4552	1257.4379	1298.682	1336.3453	1340.7263	1382.1592	1404.63	1426.4701	1477.6802	1482.108	1491.425	1500.9305	1506.339	1534.9653	3028.9662	3034.06	3060.748	3069.0692	3075.5936	3081.6954	3096.1586	3098.9299	3118.7545	3120.2452	3169.3251	3805.2969
CC1(O)CCCC11CO1	C[C@@]1(O)CCC[C@]21CO2	
InChI=1S/C7H12O2/c1-6(8)3-2-4-7(6)5-9-7/h8H,2-5H2,1H3	InChI=1S/C7H12O2/c1-6(8)3-2-4-7(6)5-9-7/h8H,2-5H2,1H3/t6-,7-/m1/s1
