19
gdb 110118	2.00574	1.32766	1.03434	3.5019	76.54	-0.2312	0.0165	0.2477	1251.051	0.158789	-419.186329	-419.176481	-419.175537	-419.22146	35.262	
C	 0.1172985013	 1.1410204611	-0.483340372	-0.319648
N	-0.2622963791	 0.2067779997	 0.569334468	-0.29058
C	-1.4642278074	-0.5201224216	 0.3198814131	 0.01076
C	-1.5976953791	-1.7179238807	-0.6040659424	-0.063022
C	-0.4265455465	-2.2911409696	-1.3777226394	-0.086037
O	-0.448834814	-3.7056209811	-1.4463474162	-0.422926
C	-1.6589255477	-1.9008952172	 0.9208346026	-0.228821
C	-0.5522347021	-2.5506693314	 1.561368097	 0.283733
N	 0.3617934632	-3.0799983107	 2.0378548474	-0.356598
H	 1.0293085802	 1.6649591034	-0.1856508734	 0.129779
H	 0.2885035672	 0.6736487808	-1.4670527691	 0.105944
H	-0.6720055333	 1.8912755788	-0.6053883953	 0.127174
H	 0.5058863638	-0.3970924382	 0.8339317238	 0.240873
H	-2.3479541894	 0.1129929829	 0.3757984754	 0.111955
H	-2.5606493996	-1.8466630617	-1.0901240154	 0.106516
H	-0.479272099	-1.9367474595	-2.4121749511	 0.118283
H	 0.5214861708	-1.9268770426	-0.9590558536	 0.095263
H	-0.1908875589	-4.0444136951	-0.5817487318	 0.297585
H	-2.6208327203	-2.1261312174	 1.3673924223	 0.139767
75.8814	89.8411	106.4762	135.3874	191.8065	220.5081	248.2097	313.3777	372.9092	403.059	430.1523	604.3644	627.8144	643.8582	658.5785	771.0975	793.9909	872.3308	936.9864	1004.3131	1011.0163	1061.4246	1071.6499	1111.4256	1127.1932	1149.2816	1155.0886	1195.8046	1241.9036	1284.5173	1344.4253	1365.7323	1384.4919	1411.9791	1423.1733	1460.7838	1486.6239	1497.1737	1505.8073	1526.098	2336.6238	2968.8859	3011.1463	3061.5847	3076.5797	3113.5053	3120.5975	3153.365	3177.1889	3559.9489	3804.5324
CNC1C(CO)C1C#N	CN[C@H]1[C@@H](CO)[C@H]1C#N	
InChI=1S/C6H10N2O/c1-8-6-4(2-7)5(6)3-9/h4-6,8-9H,3H2,1H3	InChI=1S/C6H10N2O/c1-8-6-4(2-7)5(6)3-9/h4-6,8-9H,3H2,1H3/t4-,5+,6-/m1/s1
