21
gdb 119409	3.98407	0.92417	0.88471	1.479	77.99	-0.2363	0.0754	0.3117	1380.8659	0.183407	-424.197559	-424.188987	-424.188043	-424.231214	32.997	
O	-0.1270785713	 1.4740024069	 0.0536347826	-0.417359
C	 0.0204666047	 0.0622002469	 0.0709505558	-0.078274
C	-1.3704772744	-0.5441302351	-0.0957022161	-0.303763
C	-1.4030723649	-2.0551539418	-0.024681083	 0.289993
C	-1.0242273206	-2.8838867985	 1.2549889097	-0.269258
C	-1.7951356029	-3.9769646618	 0.4795027953	 0.103344
C	-2.7475789113	-2.8611669244	-0.0051044452	-0.278412
O	-0.9626602344	-4.2227266767	-0.6664044799	-0.280609
C	-0.6436716008	-2.8779307134	-1.0839580375	-0.108127
H	 0.7435635123	 1.8693273357	 0.1547332635	 0.285875
H	 0.6839610129	-0.2760612316	-0.7405518199	 0.088434
H	 0.464413268	-0.2807623535	 1.019460793	 0.090335
H	-2.0161829921	-0.1242237114	 0.6846141071	 0.107141
H	-1.7842146585	-0.2073717602	-1.0550293349	 0.106669
H	 0.0319523444	-3.073076165	 1.4638022247	 0.096135
H	-1.5433560154	-2.5319496573	 2.1487675886	 0.099227
H	-2.1199469416	-4.9239137622	 0.9068858051	 0.078373
H	-3.4346071485	-2.5037163032	 0.7644719792	 0.098854
H	-3.2691732532	-3.024642065	-0.9518535115	 0.097842
H	-1.0052627511	-2.6993319327	-2.1045587637	 0.097641
H	 0.4425550987	-2.7296750457	-1.0624266329	 0.095941
74.4389	84.6515	135.1833	264.6592	289.754	325.0252	339.1351	397.1253	477.7465	519.7192	636.6069	714.4623	789.4279	828.3225	855.9404	888.6612	915.0654	949.5575	953.6493	980.607	1000.3213	1017.7452	1026.6636	1059.7338	1075.108	1118.7852	1130.2139	1167.4654	1196.9488	1199.3519	1224.831	1234.9216	1257.7075	1266.5178	1275.6149	1307.6398	1324.5781	1351.4942	1384.0924	1463.3127	1473.6332	1487.0211	1506.3826	1527.0037	1533.0328	2966.3002	2991.5388	3015.5327	3026.1506	3054.2919	3059.6257	3065.5928	3068.0568	3125.7076	3131.7909	3140.7607	3830.9839
OCCC12CC(C1)OC2	OCC[C@@]12C[C@@H](C1)OC2	
InChI=1S/C7H12O2/c8-2-1-7-3-6(4-7)9-5-7/h6,8H,1-5H2	InChI=1S/C7H12O2/c8-2-1-7-3-6(4-7)9-5-7/h6,8H,1-5H2/t6-,7+
