16
gdb 16408	3.59588	2.23876	1.77376	4.5629	64.02	-0.2584	0.0173	0.2756	771.7153	0.133559	-383.770925	-383.764775	-383.763831	-383.801123	24.337	
O	-0.0062321865	 0.0118285117	-0.2994738749	-0.33729
C	 0.025662506	 1.1669701111	 0.0202752159	 0.433534
O	-1.1181145576	 1.7857714581	 0.4290056543	-0.240506
C	-1.0912923303	 3.1754082423	 0.8158527593	-0.06955
C	 0.2974331291	 3.7880694134	 0.7048669547	-0.034296
C	 0.9080175191	 3.3976852095	-0.6665473566	-0.234831
C	 1.2617725206	 2.0415331631	 0.0144549371	-0.140642
C	 1.32240283	 2.825484424	 1.3597394432	-0.234831
H	-1.8051168113	 3.6978623815	 0.1686639217	 0.119023
H	-1.4621289741	 3.2242554896	 1.8461185778	 0.119024
H	 0.2752149779	 4.8379121408	 1.0058727545	 0.077863
H	 0.253352236	 3.3815746793	-1.5419976188	 0.112629
H	 1.8098997219	 3.9710524524	-0.8919967022	 0.11088
H	 2.11763153	 1.4611157158	-0.3244795528	 0.095483
H	 2.2982851716	 3.2966709637	 1.4961423904	 0.110879
H	 1.0341602075	 2.3034045536	 2.2760401964	 0.11263
136.8356	210.9335	370.6444	389.0825	449.3459	501.6202	624.27	749.4592	758.0682	837.7742	849.1252	885.6734	910.4486	945.3943	959.8904	1003.2148	1044.2583	1055.252	1086.2737	1112.8705	1142.5852	1150.1192	1226.3434	1230.6065	1252.2299	1282.3801	1300.2452	1330.1518	1347.6933	1421.3803	1484.1064	1509.6667	1519.382	1858.0036	3031.852	3059.3507	3061.8113	3073.2116	3087.6975	3118.6356	3119.557	3138.0704
O=C1OCC2CC1C2	O=C1OC[C@@H]2C[C@H]1C2	
InChI=1S/C6H8O2/c7-6-5-1-4(2-5)3-8-6/h4-5H,1-3H2	InChI=1S/C6H8O2/c7-6-5-1-4(2-5)3-8-6/h4-5H,1-3H2/t4-,5+
