20
gdb 14771	12.61736	0.55111	0.53685	3.0254	73.76	-0.2557	-0.0265	0.2292	2036.4257	0.173498	-386.143987	-386.133751	-386.132806	-386.180757	33.915	
C	-0.0257221351	 1.559923695	 0.1135889851	-0.379912
C	-0.0133013803	 0.0302952503	 0.0486384299	-0.166905
C	-1.4207215696	-0.5738437449	 0.0062746453	-0.180585
C	-1.4071425162	-2.0939705942	-0.0577692165	-0.050949
O	-2.7433187942	-2.5606977889	-0.0936924049	-0.249079
C	-2.8498055417	-3.9570281267	-0.1540689933	-0.1435
C	-4.3239790983	-4.3210538967	-0.1852308933	 0.139111
O	-4.7320282686	-5.4504321523	-0.2377113205	-0.238367
H	 0.9900979106	 1.9656707418	 0.1423181878	 0.113709
H	-0.5320076187	 1.9882903599	-0.7583312513	 0.116838
H	-0.5519481425	 1.9131816565	 1.0070959237	 0.116841
H	 0.5499740251	-0.2938573849	-0.8364287978	 0.097942
H	 0.5292216154	-0.368411543	 0.9160531418	 0.097935
H	-1.9894075079	-0.2659220112	 0.892271167	 0.106229
H	-1.9683610529	-0.1917830066	-0.8639689228	 0.106239
H	-0.862135673	-2.4391283647	-0.9531619181	 0.089112
H	-0.8836775138	-2.5139924668	 0.8182825608	 0.089117
H	-2.3638490192	-4.3741881103	-1.0532620362	 0.120008
H	-2.3827854124	-4.4492549976	 0.7167514666	 0.119989
H	-4.9994247267	-3.4375728249	-0.1548412532	 0.096228
42.7943	63.7842	82.8894	84.9017	132.5046	144.9198	214.1193	247.8968	293.4747	390.1921	478.8186	570.383	740.0914	745.9719	816.2075	908.3932	954.6223	1001.4965	1037.6446	1062.5137	1075.5917	1114.7676	1150.3846	1175.1826	1195.3961	1234.7574	1255.1204	1293.3673	1313.6155	1325.6373	1345.9757	1388.4512	1402.85	1415.1319	1438.413	1482.1527	1488.4671	1496.8571	1500.3342	1511.0408	1530.057	1845.5156	2898.2505	2948.3869	2958.8421	2977.0545	2982.9993	3014.4154	3029.8891	3033.9832	3040.6172	3075.0571	3099.6136	3104.9254
CCCCOCC=O	CCCCOCC=O	
InChI=1S/C6H12O2/c1-2-3-5-8-6-4-7/h4H,2-3,5-6H2,1H3	InChI=1S/C6H12O2/c1-2-3-5-8-6-4-7/h4H,2-3,5-6H2,1H3
