16
gdb 49298	2.59555	1.46389	0.96233	5.3378	73.57	-0.2425	-0.0739	0.1686	1165.394	0.125725	-437.946484	-437.938526	-437.937582	-437.97924	29.344	
O	-0.9444622358	 1.2372390297	 0.164628429	-0.277807
C	 0.1927604978	 0.8674983716	-0.0246721769	 0.099157
C	 1.3715312395	 1.7736195713	 0.0489714515	 0.072906
C	 1.2152960381	 3.0861194624	 0.2813217184	-0.122542
C	 2.3793947542	 4.0257752675	 0.3393060338	-0.258398
C	 3.6592163439	 3.2806980938	 0.730270125	-0.171643
N	 3.7718843344	 2.0446403588	-0.0333249921	-0.340069
C	 2.7183934767	 1.1859713531	-0.2171368081	 0.357716
O	 2.8668602229	 0.0410314577	-0.6122565716	-0.368736
H	 0.4370198703	-0.1821369277	-0.2674598086	 0.115723
H	 0.2047913171	 3.4714427751	 0.3986893333	 0.137672
H	 2.4976120221	 4.4987348078	-0.6471048847	 0.140351
H	 2.1886114605	 4.8383103076	 1.0477930503	 0.126957
H	 4.5386258476	 3.8977954961	 0.5277639583	 0.121549
H	 3.6426517143	 3.0773381861	 1.8121127581	 0.116365
H	 4.6774116362	 1.6040267391	-0.1095020157	 0.250798
91.7933	144.0084	192.2097	211.4889	277.8416	341.9504	357.817	477.8622	538.6009	571.9518	605.1799	693.0312	781.4277	794.9665	891.5064	909.537	928.7014	1017.1814	1058.056	1082.0832	1116.3004	1167.2385	1216.1311	1246.8649	1296.588	1361.7029	1368.3134	1403.585	1431.7435	1457.3557	1475.6101	1518.6127	1670.0889	1775.2592	1797.5959	2983.8013	2984.4849	3007.7349	3077.2997	3087.2925	3166.557	3609.7478
O=CC1=CCCNC1=O	O=CC1=CCCNC1=O	
InChI=1S/C6H7NO2/c8-4-5-2-1-3-7-6(5)9/h2,4H,1,3H2,(H,7,9)	InChI=1S/C6H7NO2/c8-4-5-2-1-3-7-6(5)9/h2,4H,1,3H2,(H,7,9)
