22
gdb 118515	2.37334	0.97648	0.72695	1.7061	78.85	-0.2399	0.075	0.3149	1564.2004	0.192728	-441.436006	-441.425487	-441.424543	-441.472217	37.887	
O	 0.8369368548	 0.7919675106	 1.1250497849	-0.417351
C	 0.5295212807	-0.5170147544	 0.6664304409	-0.076432
C	-0.956860017	-0.6738065116	 0.3353384689	-0.197805
C	-1.4295057597	-2.1003385758	 0.0187141125	 0.012171
C	-2.9640868855	-2.1084977052	-0.0688868468	-0.066313
O	-3.5225800267	-3.3853543231	-0.3231096446	-0.425551
N	-0.8736031711	-2.5611395092	-1.2569482658	-0.082077
C	 0.4404823541	-3.1996016763	-1.2263737423	-0.224542
C	-0.7806656217	-4.011755859	-1.4520124626	-0.244708
H	 0.6717752488	 1.402287584	 0.3993107143	 0.280691
H	 1.1528474323	-0.7865910961	-0.1973696949	 0.098827
H	 0.8041236405	-1.1868037083	 1.4895164564	 0.107714
H	-1.523420731	-0.2980491022	 1.1959705591	 0.106152
H	-1.2051636072	-0.0301403304	-0.5193502299	 0.095558
H	-1.1343814222	-2.7755293806	 0.8443573548	 0.062464
H	-3.3729457608	-1.784913313	 0.8939240362	 0.108857
H	-3.2793815261	-1.378175483	-0.8292477002	 0.093553
H	-3.3350664295	-3.6024259928	-1.2409859424	 0.292026
H	 1.1046651992	-2.9541647964	-2.0501869898	 0.117243
H	 0.9335058485	-3.3126764074	-0.2626265583	 0.116123
H	-1.1101314763	-4.6559276107	-0.6407215477	 0.129639
H	-1.0241204442	-4.3695422592	-2.4492747126	 0.113762
60.0531	85.284	91.5814	127.4953	165.6179	209.8234	287.0049	295.5887	308.3687	342.4639	365.2566	393.9304	487.3037	610.2673	712.288	789.5361	830.3073	889.9651	941.2972	974.8458	989.1502	1030.0365	1064.5968	1073.2911	1087.3256	1101.0176	1112.1583	1119.2966	1124.7297	1167.9143	1174.2839	1193.3023	1245.007	1270.9096	1305.7428	1322.4263	1351.8511	1382.1553	1402.1726	1406.7044	1417.6545	1424.2667	1473.7326	1490.0345	1492.3499	1514.4723	1519.3768	2919.87	2994.6086	3006.1565	3018.5293	3054.3424	3073.7617	3081.6278	3097.9825	3103.8751	3179.1573	3193.9699	3815.129	3834.4115
OCCC(CO)N1CC1	OCC[C@@H](CO)N1CC1	
InChI=1S/C6H13NO2/c8-4-1-6(5-9)7-2-3-7/h6,8-9H,1-5H2	InChI=1S/C6H13NO2/c8-4-1-6(5-9)7-2-3-7/h6,8-9H,1-5H2/t6-/m0/s1
