17
gdb 33825	4.05154	1.17934	1.05247	1.7718	81.78	-0.2289	0.0174	0.2462	1166.1833	0.133775	-384.593575	-384.585566	-384.584622	-384.625868	31.788	
C	 0.0176596442	-1.1247701518	 0.1001740172	-0.41184
C	 0.0421193131	 0.0776088588	 0.0705178268	 0.220109
C	 0.0614507472	 1.4960217138	 0.0268180139	 0.294454
C	 0.2441122301	 2.3472120176	-1.2024426523	-0.338093
C	 1.1975973372	 2.5172868132	-0.042436708	-0.271413
C	 0.4714191827	 3.1811365483	 1.0960694979	 0.467132
C	 1.0124779642	 3.6669445681	 2.3957867158	-0.339964
C	 0.271000036	 4.6131242331	 1.4547402478	-0.342476
O	-0.622876165	 2.2460529256	 1.0488124357	-0.338905
H	-0.0038393286	-2.1859443358	 0.1320129724	 0.193906
H	 0.6565241395	 1.8316968422	-2.0632533223	 0.129547
H	-0.5007264616	 3.1075651554	-1.4181444632	 0.124183
H	 2.2637931169	 2.3508276585	-0.1102366477	 0.115603
H	 0.4959726981	 3.3478263855	 3.2942291376	 0.130822
H	 2.087377655	 3.7755103363	 2.4996056657	 0.117866
H	 0.836127327	 5.3700002191	 0.9210072497	 0.119388
H	-0.7311643159	 4.9114611422	 1.742829093	 0.129681
91.3936	145.1844	214.5911	267.7883	294.3158	439.8557	450.4887	488.6711	514.9326	568.5023	584.5375	652.0643	689.6293	755.312	832.1088	835.1962	867.4559	888.5397	942.1294	956.6971	973.3123	993.1111	998.5491	1047.652	1069.5035	1072.8969	1083.1865	1140.5717	1185.7433	1227.4137	1252.7602	1364.4782	1405.4071	1448.2607	1470.3859	1509.0972	2236.3379	3123.0252	3129.9102	3132.7029	3210.1632	3214.2727	3222.8684	3227.951	3501.6843
C#CC12CC1C1(CC1)O2	C#C[C@]12C[C@H]1C1(CC1)O2	
InChI=1S/C8H8O/c1-2-7-5-6(7)8(9-7)3-4-8/h1,6H,3-5H2	InChI=1S/C8H8O/c1-2-7-5-6(7)8(9-7)3-4-8/h1,6H,3-5H2/t6-,7+/m1/s1
