15
gdb 47832	2.60696	1.79585	1.18447	4.6816	61.95	-0.2734	-0.0255	0.2479	991.627	0.113427	-494.89473	-494.887414	-494.886469	-494.927286	26.924	
O	-0.048216475	 0.4765570307	 1.2501195697	-0.30837
C	-0.1093645289	 1.2575555396	 0.3405613103	 0.408542
O	-1.3143521944	 1.7187072995	-0.06913284	-0.219479
C	-1.5664253396	 2.1044512598	-1.4197356578	 0.010178
O	-0.9719959835	 3.2945665922	-1.8036426891	-0.207585
C	 0.3080508265	 3.1594544217	-2.3833018039	-0.14135
C	 1.3751944136	 2.6571615814	-1.4415758134	 0.042367
O	 1.407714484	 3.2019459093	-0.1366005248	-0.224617
C	 1.1727306527	 1.7894232711	-0.262462402	-0.083642
H	-1.2802747085	 1.28008065	-2.0900391562	 0.102769
H	-2.6462388722	 2.2547409072	-1.4444015176	 0.141068
H	 0.2741408416	 2.4980129136	-3.2643150402	 0.10929
H	 0.586358265	 4.1600954205	-2.7287746452	 0.138375
H	 2.3531320064	 2.5685227967	-1.9239441498	 0.105359
H	 2.0079082423	 1.1709684966	 0.06129144	 0.127094
46.6094	147.6322	237.6705	279.1267	327.5959	403.3552	460.6617	478.701	665.4671	707.6063	738.1256	784.4082	820.1905	910.9811	941.2993	973.0787	1043.6551	1058.9417	1104.9417	1137.2315	1161.6306	1189.8453	1256.203	1296.0164	1320.9231	1345.3704	1376.47	1411.9382	1457.4763	1477.4519	1484.7467	1510.0996	1831.1419	2982.3352	2994.6998	3071.2723	3085.9381	3130.5446	3137.4042
O=C1OCOCC2OC12	O=C1OCOC[C@H]2O[C@@H]12	
InChI=1S/C5H6O4/c6-5-4-3(9-4)1-7-2-8-5/h3-4H,1-2H2	InChI=1S/C5H6O4/c6-5-4-3(9-4)1-7-2-8-5/h3-4H,1-2H2/t3-,4-/m1/s1
