17
gdb 26821	3.47668	1.07571	0.82701	4.9254	86.24	-0.1947	-0.0348	0.16	1343.7307	0.136112	-418.063555	-418.054404	-418.05346	-418.09751	33.122	
C	-0.0445696245	 1.5018805644	 0.1089075521	-0.51682
C	-0.0109360209	 0.0174348725	-0.0259790426	 0.275634
C	-0.0293727092	-0.7704387334	-1.180730211	 0.196879
N	-0.1422622103	-0.2629058234	-2.4902214321	-0.611536
C	 0.0011472288	-2.1187286498	-0.7773260211	-0.294238
C	 0.0426085957	-2.1441482849	 0.6138355022	 0.232356
N	 0.0449574526	-0.8327077744	 1.0400953196	-0.369178
C	 0.0860029234	-3.2448682622	 1.5449674216	 0.067076
O	 0.084291986	-4.423151396	 1.2470089386	-0.295457
H	 0.9578684663	 1.9498322181	 0.1416543632	 0.13443
H	-0.572410353	 1.9382022945	-0.7444323967	 0.15026
H	-0.5697240675	 1.8113834465	 1.0187877332	 0.129219
H	 0.5353431764	 0.4616644192	-2.693891213	 0.242299
H	-0.0495811305	-0.9923373909	-3.1850903587	 0.245232
H	-0.007208179	-2.9952359615	-1.4070533614	 0.115159
H	 0.0692675057	-0.5455885081	 2.0045302851	 0.261373
H	 0.1243910699	-2.9253900904	 2.6160575708	 0.037312
92.6536	114.9609	161.0636	166.1026	214.5337	245.3268	261.074	363.8486	411.3094	470.139	496.8711	628.9219	649.8368	665.8876	724.0756	774.3044	812.3159	837.1914	1001.4285	1014.3261	1022.4268	1056.0992	1083.9184	1192.2418	1212.9415	1264.6919	1350.1825	1405.623	1419.5456	1471.074	1479.162	1493.3478	1508.5173	1549.1839	1629.3812	1655.8339	1771.3907	2816.5057	3011.8318	3070.7973	3108.8146	3254.8954	3531.2563	3619.5987	3660.9033
CC1=C(N)C=C(N1)C=O	Cc1c(N)cc([nH]1)C=O	
InChI=1S/C6H8N2O/c1-4-6(7)2-5(3-9)8-4/h2-3,8H,7H2,1H3	InChI=1S/C6H8N2O/c1-4-6(7)2-5(3-9)8-4/h2-3,8H,7H2,1H3
