22
gdb 83263	1.79501	1.74345	1.53746	2.0247	81.45	-0.2164	0.065	0.2814	1091.1969	0.194057	-404.333585	-404.324082	-404.323137	-404.367404	36.233	
C	 0.0178907122	 1.604016242	-0.1693550813	-0.427972
C	 0.0709332596	 0.1050046102	 0.0363764807	-0.022503
N	 1.2256814327	-0.7626923861	-0.2847466139	-0.161825
C	 2.5225998454	-0.0722796672	-0.4265851279	-0.156162
C	 2.8629149598	 0.6498920145	 0.8995458729	-0.280846
C	 1.8403721246	 0.1076979112	 1.93230125	 0.05235
O	 1.2213546646	 1.1102237671	 2.7332456848	-0.434178
C	 0.7813893814	-0.6336167488	 1.1205744266	 0.330048
C	 0.1438240289	-1.8323282982	 1.7821124943	-0.486829
H	 0.7870882512	 2.1553441279	 0.3678600854	 0.133035
H	 0.0851312939	 1.8478706103	-1.2362867406	 0.115891
H	-0.9479102848	 1.9752687389	 0.188439603	 0.124121
H	-0.8515662989	-0.3742649388	-0.2930081673	 0.083681
H	 3.2690467573	-0.8398257789	-0.6550824586	 0.106151
H	 2.4972336674	 0.6117758943	-1.2812664311	 0.106448
H	 3.892793271	 0.4527900729	 1.2115358026	 0.097253
H	 2.7543907062	 1.7344170606	 0.8219693813	 0.111834
H	 2.3301436025	-0.6276762651	 2.5886164917	 0.067006
H	 1.8807744245	 1.4519537921	 3.3450756849	 0.283621
H	-0.3934842697	-1.5260672063	 2.6864873597	 0.124959
H	-0.5635135609	-2.3216241039	 1.1080363677	 0.122315
H	 0.9004511113	-2.5710912285	 2.0718908953	 0.111601
79.9929	133.5094	181.0049	188.3608	222.3508	241.6224	283.9929	305.1063	340.5424	432.1757	514.54	564.1178	582.5641	692.9521	702.4411	755.8941	791.8662	858.1597	901.7602	950.7643	992.6989	1010.6875	1036.8692	1062.9573	1094.9194	1106.0694	1119.2543	1144.2086	1162.0732	1213.9285	1237.5003	1247.6801	1270.8404	1290.5237	1344.4352	1356.1478	1372.5619	1410.1222	1415.7806	1429.2189	1459.9512	1485.9601	1486.3074	1490.2743	1494.4238	1511.4658	1516.2069	2976.3645	3026.943	3035.7562	3041.5358	3059.4062	3073.6229	3087.8413	3088.8977	3093.4353	3105.6959	3119.1298	3168.186	3817.659
CC1N2CCC(O)C12C	C[C@H]1N2CC[C@@H](O)[C@@]12C	
InChI=1S/C7H13NO/c1-5-7(2)6(9)3-4-8(5)7/h5-6,9H,3-4H2,1-2H3	InChI=1S/C7H13NO/c1-5-7(2)6(9)3-4-8(5)7/h5-6,9H,3-4H2,1-2H3/t5-,6-,7-,8?/m1/s1
