16
gdb 56013	4.2738	0.96619	0.93216	3.3468	67.96	-0.2545	0.0025	0.2571	1282.8177	0.124533	-475.070822	-475.06245	-475.061506	-475.10506	30.306	
N	-0.2454482933	 1.2596876069	 0.2744148423	-0.56072
C	 0.0309952698	-0.0262999533	-0.0922041909	 0.500773
O	 1.0396857947	-0.3892996746	-0.648134132	-0.393444
O	-1.0314660437	-0.8225973982	 0.2228067968	-0.279831
C	-0.8698549223	-2.233409905	-0.0306442177	 0.189787
O	-0.477146873	-2.8974116456	 1.1416654806	-0.253736
C	-1.5681724591	-3.6505225938	 1.6699407178	-0.121761
C	-2.6273411814	-3.5893682739	 0.6071723757	-0.09266
C	-2.2186374427	-2.7983262526	-0.3772603296	-0.113278
H	 0.5307409955	 1.8988189149	 0.268508699	 0.268556
H	-0.9919502619	 1.4249499829	 0.9278532891	 0.264275
H	-0.0835694961	-2.333269643	-0.7813985809	 0.125699
H	-1.2193163332	-4.6721395239	 1.8701872483	 0.120025
H	-1.9128751477	-3.2250586054	 2.6248899522	 0.114263
H	-3.5709246553	-4.1147101341	 0.6776068088	 0.115024
H	-2.7476655504	-2.5295768211	-1.2809967893	 0.117029
40.4276	77.5478	103.8208	217.4488	304.1521	348.9062	386.2273	451.9463	510.1416	576.7199	651.4857	726.4912	780.3448	784.6893	830.732	931.3815	942.811	958.2999	963.7097	998.4067	1037.785	1043.404	1111.5005	1124.7401	1133.0537	1202.0966	1307.5876	1346.1679	1370.1221	1391.7531	1411.5616	1510.6903	1610.3562	1689.2828	1837.6009	2991.6861	3034.0424	3105.3443	3217.6765	3244.5951	3613.3373	3743.5823
NC(=O)OC1OCC=C1	NC(=O)O[C@H]1OCC=C1	
InChI=1S/C5H7NO3/c6-5(7)9-4-2-1-3-8-4/h1-2,4H,3H2,(H2,6,7)	InChI=1S/C5H7NO3/c6-5(7)9-4-2-1-3-8-4/h1-2,4H,3H2,(H2,6,7)/t4-/m1/s1
