15
gdb 19667	5.96945	1.63909	1.53009	1.2669	70.1	-0.2381	0.0454	0.2834	835.2135	0.119467	-325.416022	-325.409683	-325.408739	-325.446288	25.27	
C	-0.1031576623	-1.1543745407	-0.1381793572	-0.445555
C	-0.0261869792	 0.0432787356	-0.0623437511	 0.308081
C	 0.0640726132	 1.4875668575	 0.03183883	-0.202583
C	-0.0410920703	 1.9971090425	 1.4822092262	-0.03217
C	 1.4259616463	 1.9780096196	 1.6652985136	-0.038182
C	 1.5309899217	 2.0364397632	 0.0930670584	-0.079075
C	 1.2938950629	 3.5437296161	 0.2635140549	-0.161341
N	 0.7138097186	 3.2876125996	 1.6248270677	-0.155788
H	-0.1732902226	-2.2114829133	-0.2085474186	 0.194828
H	-0.5857860694	 1.9629795067	-0.7131033752	 0.098183
H	-0.8340390607	 1.811193728	 2.1934994627	 0.109686
H	 2.0747623081	 1.6533716967	 2.4667838065	 0.103179
H	 2.2967328469	 1.6110838732	-0.5510744352	 0.088515
H	 2.2153483334	 4.1178797576	 0.3869817582	 0.112387
H	 0.6298925233	 4.0521384776	-0.4458857711	 0.099835
137.8979	154.9173	366.3716	433.5139	489.5477	501.6096	615.2234	641.5874	748.0076	769.2215	793.9716	829.0741	865.8775	919.9208	933.5844	967.2162	970.4335	997.5188	1044.027	1061.797	1078.4679	1144.6483	1162.7731	1171.9016	1199.0616	1221.8102	1250.4106	1297.2325	1328.0731	1348.325	1508.3161	2235.5305	3026.8446	3035.4446	3105.0275	3148.6374	3208.4996	3222.3864	3505.0555
C#CC1C2C3C1CN23	C#C[C@H]1[C@H]2[C@H]3[C@@H]1CN23	
InChI=1S/C7H7N/c1-2-4-5-3-8-6(4)7(5)8/h1,4-7H,3H2	InChI=1S/C7H7N/c1-2-4-5-3-8-6(4)7(5)8/h1,4-7H,3H2/t4-,5-,6+,7-,8?/m1/s1
