18
gdb 38511	2.62617	2.49151	2.34873	1.5725	78.44	-0.2119	-0.0395	0.1724	762.1616	0.152047	-364.736786	-364.731343	-364.730399	-364.766039	24.979	
C	 0.0135730942	 1.6155765601	 0.0079743028	-0.201324
C	 1.5503309495	 2.0059327912	 0.0094892281	-0.0869
C	 1.8663867161	 1.5454876372	-1.4015935331	-0.118587
C	 1.9261111216	 0.1874484199	-1.3402438249	 0.031791
C	 0.5597464663	-0.4569363051	-1.516439567	-0.259203
C	 0.062260241	 0.0740132364	-0.0933438808	 0.008068
N	 1.1665140299	-0.2855356175	 0.8651838346	-0.125387
C	 2.0974184743	 0.8914535954	 0.9115287768	-0.04294
C	 2.3928586206	-0.2512695725	 0.0310064389	-0.060171
H	-0.4146722803	 1.8900627201	 0.9795825645	 0.115578
H	-0.5716820676	 2.1010169546	-0.779282169	 0.100909
H	 1.7528946669	 3.0309642817	 0.3261290628	 0.070657
H	 1.3706753867	 2.049681702	-2.2301951311	 0.095018
H	-0.0346699651	-0.0554627098	-2.3400266454	 0.106851
H	 0.5381223142	-1.5512324938	-1.5392666085	 0.107681
H	-0.8708546619	-0.4016190385	 0.2165555925	 0.083551
H	 2.5750896539	 1.0998807943	 1.8618290573	 0.089634
H	 3.1476123997	-1.0148631359	 0.1919152816	 0.084774
372.3987	394.9727	470.9229	554.684	594.523	646.7141	702.1396	728.9671	771.6283	788.0465	816.5126	831.0265	860.2447	890.853	900.3752	917.7249	927.801	938.8014	966.1092	1002.572	1027.1387	1057.4823	1073.7897	1099.5241	1109.7165	1139.5033	1176.2696	1209.9647	1218.3779	1259.3683	1267.5397	1282.4729	1295.8598	1308.9612	1341.8359	1365.863	1462.4764	1484.1969	1546.25	3037.8635	3048.525	3088.1493	3092.0225	3093.1733	3119.4741	3129.3968	3149.7382	3179.1817
C1C2C=C3CC1N1C2C31	C1[C@@H]2[CH][C]3C[C@H]1N1[C@H]2[C@H]31	
InChI=1S/C8H9N/c1-4-2-6-3-5(1)8-7(4)9(6)8/h1,4,6-8H,2-3H2	InChI=1S/C8H9N/c1-4-2-6-3-5(1)8-7(4)9(6)8/h1,4,6-8H,2-3H2/t4-,6-,7+,8-,9?/m0/s1
