18
gdb 36605	5.46571	0.78792	0.7748	2.4501	77.9	-0.246	0.0171	0.2632	1469.3917	0.149062	-398.045963	-398.037792	-398.036848	-398.079828	30.361	
N	 0.0602926892	-1.1695109179	-0.0630629	-0.294326
C	 0.0230260831	-0.0156783713	-0.030251002	 0.251611
C	-0.0257956017	 1.4465658109	 0.042892334	-0.283536
N	 1.3170459368	 2.0190127447	 0.0051761091	-0.422792
C	 1.3412183829	 3.4482697542	 0.0280215489	 0.354708
C	 0.7666337823	 4.5121228524	 1.0249291005	-0.224275
N	 1.4578562794	 5.3757260666	-0.0363649072	-0.129051
C	 2.5946282187	 4.3399344852	 0.0311723088	-0.223716
C	 0.8278927372	 4.417843659	-1.0612494912	-0.199178
H	-0.5875157814	 1.816438418	-0.8230989383	 0.16347
H	-0.6101468684	 1.7226088037	 0.9377979715	 0.139845
H	 1.8870316108	 1.635017146	 0.7522407788	 0.233679
H	-0.3153259378	 4.6634961964	 1.067115617	 0.102493
H	 1.2224668083	 4.5922215387	 2.0156474525	 0.102964
H	 3.1834867981	 4.4009058303	 0.9507071269	 0.103222
H	 3.2319350469	 4.3293951739	-0.8564279678	 0.111709
H	 1.3369841657	 4.4143458944	-2.0283406415	 0.111225
H	-0.25058564	 4.5577257647	-1.17471727	 0.101946
50.6583	77.8513	108.2797	214.4795	351.8644	382.0518	395.2497	500.4265	586.8295	593.6164	692.8677	717.5597	794.4915	799.7786	897.6231	941.7437	945.1481	966.635	977.9026	1002.8554	1024.8032	1033.2468	1097.342	1146.5865	1168.5769	1172.0136	1179.5778	1193.0509	1201.302	1249.4844	1274.2065	1331.1222	1376.7365	1478.5551	1489.8632	1507.8849	1511.2802	1565.162	2369.0896	2956.8327	3047.8156	3050.6175	3058.0821	3060.1621	3117.0128	3122.7445	3124.9909	3524.4102
N#CCNC12CN(C1)C2	N#CCN[C@@]12CN(C1)C2	
InChI=1S/C6H9N3/c7-1-2-8-6-3-9(4-6)5-6/h8H,2-5H2	InChI=1S/C6H9N3/c7-1-2-8-6-3-9(4-6)5-6/h8H,2-5H2
