18
gdb 126375	4.85372	0.91866	0.80861	2.968	75.28	-0.2267	0.0201	0.2468	1449.3176	0.148677	-435.298601	-435.28952	-435.288576	-435.333351	32.088	
C	 0.0423113205	 1.5336425035	-0.1484411599	-0.369433
C	-0.0426303319	 0.0086618227	 0.0146964289	-0.302286
C	-1.4529686702	-0.484539864	 0.0607878252	 0.386191
N	-2.4027650528	-0.0679018743	 0.8838786488	-0.378257
C	-3.4706583145	-0.8241546722	 0.5178474972	 0.436212
O	-4.636532957	-0.6747647589	 1.1477208042	-0.247813
C	-5.6925611987	-1.5158744956	 0.6914718347	-0.232406
N	-3.2651623042	-1.6823383644	-0.4710620021	-0.325916
N	-1.9491403628	-1.4398877345	-0.7495962476	-0.264717
H	 1.0841692993	 1.8649885528	-0.1210844046	 0.115115
H	-0.3944914276	 1.8525944121	-1.0995096761	 0.122649
H	-0.5050346354	 2.0292951863	 0.6563638733	 0.15309
H	 0.4888992827	-0.4956683977	-0.8006471495	 0.10172
H	 0.4582830086	-0.2863119757	 0.9444743546	 0.135359
H	-6.5589729867	-1.2673644681	 1.3053391819	 0.13072
H	-5.9117839563	-1.3310714297	-0.3652681582	 0.133325
H	-5.4323395974	-2.5723745905	 0.8138915549	 0.133364
H	-1.4905431356	-1.9580302719	-1.4800368457	 0.273083
38.454	87.4994	152.1225	176.227	192.1098	242.9382	294.7549	367.0355	416.508	494.4798	512.5213	660.6619	720.1055	754.8824	776.0291	799.875	978.3533	1003.7015	1063.0053	1074.9909	1093.6061	1119.9426	1168.9272	1183.3665	1225.5865	1249.1427	1300.0297	1361.5375	1403.8234	1411.781	1448.6167	1475.6461	1480.5139	1492.6922	1498.0108	1504.6593	1510.3613	1584.8728	1592.519	3032.935	3033.3324	3046.8886	3068.9197	3099.0869	3116.4423	3135.9991	3147.3089	3668.9105
CCC1=NC(OC)=NN1	CCc1nc(OC)n[nH]1	
InChI=1S/C5H9N3O/c1-3-4-6-5(9-2)8-7-4/h3H2,1-2H3,(H,6,7,8)	InChI=1S/C5H9N3O/c1-3-4-6-5(9-2)8-7-4/h3H2,1-2H3,(H,6,7,8)
