18
gdb 84661	2.41439	1.82765	1.39345	3.2552	71.76	-0.241	-0.0087	0.2324	974.4191	0.150541	-439.067034	-439.059669	-439.058725	-439.09839	30.299	
O	 0.1700504975	 1.2401692376	-0.3880008881	-0.450076
C	 0.0507834897	-0.1456228658	-0.0370934382	 0.016085
C	 0.7614400628	-0.4634713583	 1.2579905063	-0.102272
C	 0.1399949618	-0.3796165146	 2.4357414397	-0.023023
C	-1.2892430104	 0.0163957128	 2.5235713836	-0.082526
N	-1.6609139382	 1.2692303528	 1.7940800148	-0.355199
C	-2.1103606768	-0.0394629452	 1.2838479762	-0.062733
C	-1.4505025077	-0.520871652	 0.0040906146	 0.124914
O	-2.1020083176	-0.0064674496	-1.140757336	-0.447966
H	-0.2258321536	 1.7165789423	 0.3629736693	 0.29105
H	 0.5138911871	-0.6863426742	-0.8677753461	 0.092936
H	 1.8160848518	-0.7148677093	 1.2043212257	 0.100454
H	 0.666870995	-0.5805632713	 3.3638966218	 0.099078
H	-1.7869194295	-0.1531486542	 3.473490116	 0.091262
H	-2.4208622111	 1.7435897548	 2.2748745099	 0.239842
H	-3.1677793068	-0.2754279167	 1.3715294816	 0.096843
H	-1.544290648	-1.6139110022	-0.0304395079	 0.08583
H	-1.636900436	 0.822379303	-1.3315820831	 0.285503
156.0886	204.4931	281.9911	291.079	358.3078	441.2921	465.328	492.7467	523.7512	617.5407	693.3641	711.2195	758.1073	788.0027	825.2459	869.8989	885.8357	921.2963	956.3222	982.0831	987.2888	1049.9823	1075.2973	1099.7798	1115.3377	1149.6812	1181.6839	1196.6065	1254.6643	1269.7861	1302.9208	1327.7869	1357.3878	1396.8356	1415.625	1439.1107	1451.1731	1477.2534	1704.372	3030.4	3069.6596	3142.2857	3155.1258	3166.8271	3187.3541	3503.8266	3634.2258	3713.4466
OC1C=CC2NC2C1O	O[C@H]1C=C[C@H]2N[C@H]2[C@H]1O	
InChI=1S/C6H9NO2/c8-4-2-1-3-5(7-3)6(4)9/h1-9H	InChI=1S/C6H9NO2/c8-4-2-1-3-5(7-3)6(4)9/h1-9H/t3-,4+,5-,6+/m1/s1
