19
gdb 53063	5.70071	0.77404	0.72887	0.2439	96.95	-0.2053	-0.0081	0.1972	1610.8992	0.159533	-348.740325	-348.731546	-348.730602	-348.775464	32.436	
C	-0.0653745134	 1.4436666872	 0.0636517548	-0.507062
C	-0.0058731949	-0.0087317813	 0.0177515324	 0.191682
C	 0.0606037625	-1.2143115297	-0.0238734375	-0.124075
C	 0.0697190611	-2.6275093259	-0.0718584345	 0.186926
C	 1.1411564765	-3.4300611093	-0.2192678221	-0.188178
C	 0.7812822615	-4.8685804657	-0.1382110595	-0.0648
C	 0.1952767209	-5.3140376591	 1.191883045	-0.27556
C	-0.7259272946	-4.8923131422	 0.0797855582	-0.045647
C	-1.2148499837	-3.4468723115	 0.0546462535	-0.332892
H	 0.5701714225	 1.8452939154	 0.8613900718	 0.148569
H	 0.2727974223	 1.8865596029	-0.8804067807	 0.149022
H	-1.0871227806	 1.7949614973	 0.2457703814	 0.147991
H	 2.1576237756	-3.0766922047	-0.3445190425	 0.093785
H	 1.2976631548	-5.597266461	-0.753170354	 0.085661
H	 0.2331987588	-6.3737201287	 1.4231117171	 0.108825
H	 0.3285217264	-4.6570312318	 2.0456752148	 0.113493
H	-1.3376353902	-5.6546938555	-0.3875608135	 0.084869
H	-1.778569963	-3.1725760782	 0.9541911694	 0.115139
H	-1.8771477324	-3.2559651682	-0.7991066637	 0.112251
17.2248	84.4852	93.7181	209.6287	295.9972	328.0035	358.8198	430.6368	498.7942	524.3283	540.0277	685.8424	789.4124	804.2857	829.3038	872.0048	898.9811	930.5127	970.521	988.1209	1020.2823	1047.6559	1050.401	1053.589	1069.2431	1092.5486	1103.9829	1183.5189	1202.5623	1261.8531	1272.6821	1317.9375	1348.824	1373.9668	1413.561	1473.0577	1476.0467	1476.9541	1485.6088	1656.6466	2344.9686	3021.3401	3025.4846	3058.1177	3078.4603	3084.2862	3120.9869	3166.5647	3178.7646	3205.201	3211.1891
CC#CC1=CC2CC2C1	CC#CC1=C[C@H]2C[C@H]2C1	
InChI=1S/C9H10/c1-2-3-7-4-8-6-9(8)5-7/h4,8-9H,5-6H2,1H3	InChI=1S/C9H10/c1-2-3-7-4-8-6-9(8)5-7/h4,8-9H,5-6H2,1H3/t8-,9+/m0/s1
