17
gdb 74705	2.78714	1.79378	1.31371	0.8617	74.62	-0.2299	-0.0543	0.1756	975.6953	0.138701	-418.030837	-418.023543	-418.022598	-418.062175	29.505	
N	 0.0274918511	 1.2945997051	 0.0773879692	-0.563047
C	-0.0597807255	-0.0617470762	 0.0286831121	 0.267542
N	-1.1647925793	-0.7159792824	 0.0073678483	-0.282855
C	-1.0112946985	-2.1729152955	 0.0180833167	 0.017897
C	 0.0136014336	-2.6155767822	 1.1022002128	-0.235458
C	 1.1099171021	-2.2785918741	 0.0372471482	-0.131983
C	 0.0307811238	-2.6291706574	-1.0439573982	-0.234246
C	 1.2845875047	-0.7812822293	 0.0197547586	 0.377428
O	 2.3347163975	-0.1814590972	-0.0230276121	-0.34083
H	 0.9316952547	 1.6922356472	-0.1210948351	 0.269534
H	-0.796726837	 1.8354166283	-0.1245048234	 0.260632
H	-1.9990239063	-2.6348402005	 0.0120875567	 0.074294
H	 0.0129582067	-2.05757472	 2.0418615569	 0.110893
H	-0.015599547	-3.689474041	 1.3046410455	 0.108169
H	 2.0719006572	-2.7915864281	 0.0457545081	 0.085161
H	 0.0062550127	-3.70548099	-1.234424126	 0.108292
H	 0.0461631595	-2.0826690765	-1.9902908182	 0.108579
122.5503	215.1572	301.5828	344.9884	391.8381	432.0988	446.4151	462.8999	526.0812	565.802	593.9389	696.786	806.3592	816.3762	866.9431	878.0741	892.5715	933.2937	990.5054	1001.3449	1047.9049	1077.54	1100.8747	1145.2586	1207.6216	1211.146	1246.4243	1255.6097	1264.681	1320.1793	1344.8954	1411.5639	1474.8488	1502.9164	1594.9287	1702.1736	1808.6183	3054.794	3058.9779	3100.0266	3112.8781	3116.8153	3119.6029	3593.3063	3723.6778
NC1=NC2CC(C2)C1=O	N[C]1[N][C@@H]2C[C@@H](C2)C1=O	
InChI=1S/C6H8N2O/c7-6-5(9)3-1-4(2-3)8-6/h3-4H,1-2H2,(H2,7,8)	InChI=1S/C6H8N2O/c7-6-5(9)3-1-4(2-3)8-6/h3-4H,1-2H2,(H2,7,8)/t3-,4+
