15
gdb 27311	3.25503	1.41547	0.99247	4.3847	71.86	-0.2345	-0.0219	0.2126	1127.1303	0.113688	-453.992218	-453.984389	-453.983445	-454.024563	29.49	
C	-0.0328029693	 1.4913961848	 0.0132215508	-0.472323
C	-0.0071943524	-0.0063019837	 0.0071127007	 0.213223
C	-0.0335090212	-0.7200989267	-1.120528397	-0.054227
O	-0.0102106929	-2.100180899	-1.1332623515	-0.242969
C	 0.0418297383	-2.7007643409	 0.0837645015	 0.487071
O	 0.0604509304	-4.0275850288	-0.0399096385	-0.386614
N	 0.0711799444	-2.1415739898	 1.2210142965	-0.382065
C	 0.0491500983	-0.7356498539	 1.2870541855	 0.276219
N	 0.0758432905	-0.0894977703	 2.3894402517	-0.526
H	 0.8531437315	 1.8825433381	 0.5222377781	 0.150911
H	-0.0735565316	 1.8975923661	-1.0012197598	 0.110697
H	-0.895950949	 1.852458317	 0.5803530844	 0.150857
H	-0.0747006035	-0.3253665349	-2.1265285913	 0.138802
H	 0.0321623592	-4.2484094605	-0.9799435941	 0.315921
H	 0.1138762873	-0.7569393276	 3.1628243832	 0.220498
96.3097	168.5483	185.9549	284.5869	324.8916	374.5423	396.4922	446.0828	475.6949	542.0269	583.3855	725.8297	746.0054	772.8725	787.5565	869.0719	924.0169	931.4364	1017.2893	1068.8975	1091.8161	1163.8431	1226.2591	1269.3626	1326.5688	1388.9934	1415.8068	1426.891	1463.5486	1483.7225	1675.2225	1716.8717	1765.6578	3042.9458	3107.9592	3121.8249	3233.654	3461.3512	3799.4365
CC1=COC(O)=NC1=N	CC1=C(N=C(OC1)O)[NH]	
InChI=1S/C5H6N2O2/c1-3-2-9-5(8)7-4(3)6/h2H,1H3,(H2,6,7,8)	InChI=1S/C5H7N2O2/c1-3-2-9-5(8)7-4(3)6/h6H,2H2,1H3,(H,7,8)
