21
gdb 111431	2.86282	1.46026	1.1662	2.408	81.37	-0.2219	0.0649	0.2868	1138.7511	0.184908	-383.221701	-383.213657	-383.212713	-383.254302	32.079	
C	 0.0911970139	 1.5074167068	-0.060697752	-0.387002
C	-0.0051792308	-0.0201442555	-0.0200757093	-0.166807
C	-1.447705674	-0.543464678	 0.0260594632	 0.011011
C	-2.2959819386	-0.1936127348	-1.2081783488	-0.056388
N	-1.7684938765	-0.699778216	-2.4906394757	-0.311842
C	-2.84737917	-1.4403497701	-1.8046397459	-0.046558
C	-2.3831106526	-2.6099083809	-0.9600225977	-0.046013
N	-0.9217616653	-2.8299964752	-0.953898773	-0.310236
C	-1.5478814864	-2.0719364076	 0.1471920248	-0.073232
H	 1.1350790242	 1.8363856158	-0.0731085102	 0.109874
H	-0.3917728988	 1.9127298858	-0.9560806576	 0.116062
H	-0.3895202969	 1.9650410929	 0.8123180132	 0.103979
H	 0.4778157155	-0.4547082313	-0.8997499234	 0.137353
H	 0.5357346702	-0.3968297751	 0.8576024506	 0.082404
H	-1.9593881352	-0.1151966814	 0.8996837515	 0.064847
H	-2.8561602048	 0.7367335185	-1.2109099293	 0.081587
H	-2.1746880609	-0.1589642975	-3.2511172266	 0.226107
H	-3.8330848858	-1.4813298959	-2.2559226238	 0.079674
H	-3.0489692158	-3.4561994384	-0.8286262834	 0.079849
H	-0.7354181649	-3.7783970887	-0.6350756201	 0.22604
H	-1.5524708668	-2.5129373636	 1.1402087536	 0.079292
80.0908	143.8283	171.6765	252.7898	298.7961	326.9326	436.4081	529.89	560.5688	687.5345	695.3679	763.1544	781.7763	843.7089	850.2748	858.8056	876.6057	895.091	923.8416	947.2885	963.1828	987.5743	1052.7753	1063.3421	1065.8921	1113.969	1131.8707	1137.023	1145.1582	1173.0431	1192.7216	1232.5432	1246.0667	1282.4916	1301.9604	1327.1209	1350.9229	1375.6668	1397.3148	1408.6755	1423.1193	1426.8996	1487.2247	1501.3724	1506.1676	3007.8342	3025.5941	3026.0645	3081.3164	3100.752	3106.0414	3141.1828	3146.9481	3159.9278	3173.8569	3487.8548	3489.2112
CCC1C2NC2C2NC12	CC[C@H]1[C@H]2N[C@H]2[C@H]2N[C@@H]12	
InChI=1S/C7H12N2/c1-2-3-4-6(8-4)7-5(3)9-7/h3-9H,2H2,1H3	InChI=1S/C7H12N2/c1-2-3-4-6(8-4)7-5(3)9-7/h3-9H,2H2,1H3/t3-,4+,5-,6+,7-
