21
gdb 57410	2.89691	1.27756	1.25596	2.7424	77.84	-0.231	0.072	0.303	1144.2242	0.18081	-424.17607	-424.166921	-424.165977	-424.209519	35.814	
C	-0.3261880947	 1.4431506237	 0.3034805902	-0.400405
C	-0.0467954713	-0.0436050516	 0.0694944727	 0.326864
C	 0.9792514576	-0.5675395856	 1.0879091978	-0.423401
O	-1.2968542066	-0.7069773657	 0.2953198332	-0.450963
C	 0.4920048385	-0.3040366183	-1.3549746487	-0.05964
C	-0.217024277	-1.0305118983	-2.4910001422	-0.190052
C	-1.6498095042	-0.5212764075	-2.6694607646	-0.082114
O	-1.2025699998	 0.8623263296	-2.672544196	-0.279686
C	 0.15822255	 0.4337241687	-2.6149622754	 0.068753
H	 0.5905041606	 2.0266469701	 0.1757068681	 0.105863
H	-1.0692783219	 1.8004116293	-0.4103569265	 0.148566
H	-0.6989381616	 1.5974433139	 1.3202621069	 0.111939
H	 0.5962527438	-0.4373858993	 2.1036403884	 0.120995
H	 1.1768339166	-1.6347763219	 0.9281224497	 0.102033
H	 1.9331433227	-0.0366316391	 1.0030421329	 0.114465
H	-1.1492328577	-1.6496196524	 0.1612316406	 0.27413
H	 1.5480104253	-0.5731214226	-1.3604923502	 0.086583
H	 0.1967574728	-1.9044861856	-2.9768462193	 0.096753
H	-2.0624334727	-0.7814417742	-3.6508732046	 0.103748
H	-2.373074637	-0.7177859958	-1.8769145461	 0.12497
H	 0.8741106266	 0.9625854926	-3.235360057	 0.100599
57.8585	179.8973	210.8792	238.6171	277.8141	290.181	295.8539	338.4138	380.3576	401.7574	439.4557	544.6735	614.7667	741.1461	784.8358	795.457	832.2608	890.8648	932.1805	953.344	964.4149	975.7762	989.912	1016.4398	1035.1697	1054.8158	1076.2777	1105.354	1133.7072	1156.5747	1179.3682	1206.7886	1245.6895	1266.2285	1319.4301	1360.1607	1373.7962	1396.2854	1413.3652	1432.3797	1482.4628	1485.198	1498.231	1503.5979	1511.6112	3023.1368	3037.5008	3046.6753	3089.8435	3111.5582	3114.3406	3120.814	3125.1488	3150.4796	3166.0478	3195.0273	3802.3315
CC(C)(O)C1C2COC12	CC(C)(O)[C@H]1[C@H]2CO[C@@H]12	
InChI=1S/C7H12O2/c1-7(2,8)5-4-3-9-6(4)5/h4-6,8H,3H2,1-2H3	InChI=1S/C7H12O2/c1-7(2,8)5-4-3-9-6(4)5/h4-6,8H,3H2,1-2H3/t4-,5+,6-/m1/s1
