18
gdb 67585	2.33619	2.20689	1.51434	2.7304	74.06	-0.2176	0.07	0.2876	929.7461	0.148093	-401.89268	-401.885231	-401.884286	-401.924004	30.26	
C	-0.0912791411	 1.4906125664	 0.1380293942	-0.507187
C	-0.0584377891	 0.0169425841	-0.1130027603	 0.255651
C	 1.0136608983	-0.7866727523	-0.7584303324	-0.096331
C	 0.4532840309	-1.9506118133	-1.5475650285	-0.246954
C	-0.7634507851	-2.223729517	-0.6874190837	-0.16361
C	-0.4381684128	-1.8691321889	 0.7546100029	-0.079987
N	 0.7525082057	-0.9388040483	 0.7156334303	-0.193064
C	-1.2804344131	-0.9385034578	-0.054799501	 0.321293
O	-2.5970038132	-0.5757690598	 0.1169570275	-0.458866
H	 0.9171814458	 1.8653536807	 0.33545075	 0.13
H	-0.4952617794	 2.0313862997	-0.7256743182	 0.114845
H	-0.7193570519	 1.7225790851	 1.0042700997	 0.134407
H	 1.9752725214	-0.3463060111	-1.0014202096	 0.093104
H	 0.2008224473	-1.6647547243	-2.5750962465	 0.101825
H	 1.1454241379	-2.7987852711	-1.5823982098	 0.110291
H	-1.4660258265	-3.0255287665	-0.878434952	 0.093403
H	-0.6284592059	-2.4857422716	 1.6220444326	 0.102987
H	-2.9956817991	-0.4449660637	-0.7509791753	 0.288194
174.6785	210.1825	213.1298	266.4042	324.6937	396.1296	425.3439	548.4107	600.633	620.735	697.4732	728.1216	779.5091	833.9637	852.9458	870.535	920.2119	941.0117	963.0178	978.7418	1004.4949	1021.3457	1041.2012	1091.8158	1096.8822	1139.1077	1185.1445	1200.2213	1214.7897	1265.4483	1287.8248	1289.8282	1318.1096	1404.5536	1437.3653	1470.5552	1481.3054	1490.9088	1495.0099	3030.0541	3039.5887	3081.9728	3092.9993	3113.8958	3169.9028	3199.0014	3212.3981	3783.6787
CC12C3CC4C(N13)C24O	C[C@@]12[C@@H]3C[C@H]4[C@@H](N13)[C@@]24O	
InChI=1S/C7H9NO/c1-6-4-2-3-5(8(4)6)7(3,6)9/h3-5,9H,2H2,1H3	InChI=1S/C7H9NO/c1-6-4-2-3-5(8(4)6)7(3,6)9/h3-5,9H,2H2,1H3/t3-,4-,5+,6-,7+,8?/m0/s1
