13
gdb 24106	7.74653	0.79313	0.72271	4.1048	65.03	-0.239	-0.0164	0.2226	1421.2974	0.089802	-452.76548	-452.757787	-452.756843	-452.799289	26.527	
N	-0.0369199992	-1.1037314617	-0.0043142439	-0.288
C	-0.0002201766	 0.0498494094	 0.0021776505	 0.275385
C	-0.0077610893	 1.513233113	 0.010857163	-0.209746
O	 1.344641332	 1.9573142944	-0.0021711592	-0.267583
C	 1.5055457578	 3.2956139751	 0.0038381212	 0.359275
C	 2.6818721666	 3.975012452	-0.0064703852	-0.149131
O	 2.3608428962	 5.3107794135	 0.0055384388	-0.132657
C	 1.0207554798	 5.3460846029	 0.0221481372	 0.089661
N	 0.4483704996	 4.1810623306	 0.0220789795	-0.33957
H	-0.5533532331	 1.885151834	-0.8641408488	 0.168871
H	-0.5329333418	 1.8747821889	 0.9025273025	 0.168901
H	 3.7219702811	 3.7094250894	-0.0207916032	 0.16117
H	 0.5512309766	 6.3165864984	 0.0337348077	 0.163424
40.4196	64.6532	120.8575	241.7737	323.0095	383.1383	440.7482	532.5927	639.8731	680.5862	737.7466	762.1876	834.7469	937.1312	963.6596	995.7457	1019.9562	1079.813	1087.0418	1168.7705	1248.8105	1251.132	1332.9975	1352.4778	1392.1862	1487.3236	1544.7797	1657.379	2377.5821	3039.8624	3077.001	3282.3095	3320.0486
N#CCOC1=COC=N1	N#CCOc1cocn1	
InChI=1S/C5H4N2O2/c6-1-2-9-5-3-8-4-7-5/h3-4H,2H2	InChI=1S/C5H4N2O2/c6-1-2-9-5-3-8-4-7-5/h3-4H,2H2
