21
gdb 95514	2.1626	1.70914	1.22971	1.5791	80.27	-0.2477	0.0186	0.2663	1115.49	0.181176	-424.236416	-424.227075	-424.226131	-424.269642	36.362	
C	-0.1021847757	 1.5144707755	-0.0698768459	-0.422662
C	 0.0386374148	 0.0039442592	 0.0197054419	 0.115522
O	 0.6977797623	-0.4408308567	-1.1604267524	-0.266654
C	 0.6329875707	-1.8409872285	-1.3424308016	-0.12399
C	 0.9268621176	-2.6081980135	-0.0849490983	-0.087389
C	 1.0215674319	-1.9988135405	 1.0921784324	-0.095541
C	 0.8071624668	-0.5080721209	 1.2620101552	 0.326382
C	 2.145387623	 0.2082216969	 1.4810174564	-0.439443
O	-0.0792186603	-0.2681481834	 2.3628476031	-0.474714
H	 0.867279007	 1.9892101765	-0.2437926438	 0.122219
H	-0.7602610915	 1.7785632627	-0.9018421242	 0.117206
H	-0.5295846269	 1.903655719	 0.857164485	 0.132171
H	-0.964625784	-0.4475736325	 0.0796507311	 0.076338
H	-0.3599270058	-2.1352220115	-1.7315817279	 0.099479
H	 1.3619148992	-2.0845631622	-2.1249103884	 0.115306
H	 1.0435188785	-3.6848509767	-0.179692121	 0.093008
H	 1.2424494194	-2.5590951993	 1.9990767768	 0.078791
H	 2.7504980887	 0.1691699509	 0.5715939897	 0.135182
H	 1.9840888532	 1.2529190563	 1.7606071837	 0.121964
H	 2.7131316301	-0.2781579942	 2.2832018558	 0.100351
H	 0.391727651	-0.4816522571	 3.1753156628	 0.276474
102.8085	196.9728	220.7682	226.6986	239.2116	263.1197	289.0889	292.7281	365.3384	419.1442	477.9377	485.5596	524.8589	558.7685	708.133	733.9388	811.2603	862.53	927.6671	936.0792	953.21	987.8769	1027.7612	1036.1273	1079.9402	1106.4809	1135.2292	1160.0988	1166.8205	1194.0601	1217.051	1268.9846	1356.0489	1364.6942	1387.1866	1392.8257	1403.5442	1406.1945	1415.362	1484.4074	1487.3336	1490.9369	1495.0074	1508.0256	1725.2584	2932.0064	2977.5198	3030.5712	3046.5636	3051.2294	3098.7698	3121.5673	3129.2932	3135.2408	3136.576	3166.9114	3807.897
CC1OCC=CC1(C)O	C[C@H]1OCC=C[C@]1(C)O	
InChI=1S/C7H12O2/c1-6-7(2,8)4-3-5-9-6/h3-4,6,8H,5H2,1-2H3	InChI=1S/C7H12O2/c1-6-7(2,8)4-3-5-9-6/h3-4,6,8H,5H2,1-2H3/t6-,7+/m1/s1
