13
gdb 133378	2.53656	1.82489	1.06175	2.2379	68.85	-0.2034	-0.0452	0.1581	1007.5151	0.090781	-490.200021	-490.192525	-490.191581	-490.231808	28.62	
N	 0.0100569483	 1.30725686	 0.1342450214	-0.552177
C	-0.0006559821	-0.0454143617	 0.0574721839	 0.426855
N	-1.1314401201	-0.7052047171	 0.0619232842	-0.317445
N	-1.0363009776	-2.0455370947	 0.0288912965	-0.102915
N	 0.0628782601	-2.7786360638	-0.0101317801	-0.259435
C	 1.1792824129	-2.1270403157	-0.0279172222	 0.293202
F	 2.294981556	-2.8504713066	-0.0752913419	-0.069353
C	 1.3160510033	-0.6953306945	-0.0071480815	 0.101088
N	 2.3850875113	 0.0244646361	-0.0444012906	-0.588302
H	 0.900385461	 1.7392708417	-0.0637725233	 0.282802
H	-0.8409207949	 1.8137311317	-0.0389249809	 0.263691
H	-1.9066653937	-2.548474672	 0.0425764859	 0.295896
H	 3.2144803156	-0.5669654333	-0.0954530614	 0.226094
106.1596	272.1614	297.8141	317.8958	324.914	328.1527	377.3117	496.1792	527.3781	561.9712	564.9279	577.7232	613.1155	733.4951	784.918	856.3684	911.7814	1001.6493	1039.3323	1217.3997	1276.1205	1294.102	1405.0128	1463.3967	1520.4126	1576.8604	1618.4964	1654.4264	1658.1743	3485.2651	3581.7266	3678.6159	3725.0532
NC1=NNN=C(F)C1=N	Nc1n[nH]nc(F)c1[NH]	
InChI=1S/C3H4FN5/c4-2-1(5)3(6)8-9-7-2/h(H2,5,9)(H2,6,7,8)	InChI=1S/C3H9FN5/c4-2-1(5)3(6)8-9-7-2/h1-3,5,7-9H,6H2
