19
gdb 91544	2.66963	1.37797	1.15603	2.4391	75.32	-0.2336	0.0702	0.3037	1136.3296	0.158041	-422.959573	-422.951153	-422.950209	-422.992868	31.928	
C	 0.016279807	 1.6195479034	-0.022375992	-0.412983
C	 0.0819331751	 0.1105083156	 0.0842166336	 0.086439
O	 1.063478038	-0.4915185501	-0.8179722539	-0.306675
C	 1.6229113565	-1.2379340863	 0.2586751535	 0.059496
C	 2.2267269787	-0.338100367	 1.2869588407	-0.372291
C	 0.7268572263	-0.5841254172	 1.2929516209	 0.273827
C	-0.0014841543	-1.1495901171	 2.4504188511	-0.043612
C	-1.1944315407	-0.514248465	 3.0309219416	-0.18824
O	-1.3133260683	-1.6730444825	 2.2038357528	-0.235474
H	 0.9690355002	 2.0867822535	 0.2401878758	 0.120825
H	-0.2349855091	 1.9095993678	-1.0475350976	 0.132616
H	-0.7615467467	 2.0155103526	 0.6394373088	 0.118716
H	-0.8978435516	-0.3395711629	-0.1138962634	 0.100962
H	 1.8949554091	-2.2718576752	 0.0803999117	 0.109678
H	 2.7597842009	-0.8398448336	 2.0898425754	 0.116769
H	 2.6397766826	 0.6225549073	 0.994311311	 0.117861
H	 0.6045024231	-1.7717157102	 3.1115207462	 0.090772
H	-1.4290772737	-0.6617237892	 4.084401196	 0.117127
H	-1.5768664532	 0.4093407259	 2.5982989676	 0.114186
63.1755	140.7053	167.6181	211.8295	221.8657	300.9695	387.0996	448.5405	470.246	563.5373	642.2873	710.8954	833.807	840.8026	857.2718	870.5675	916.807	935.8617	998.4445	1009.1917	1017.8731	1047.5397	1082.4321	1088.8357	1097.3772	1128.2049	1139.7963	1154.8999	1168.9369	1232.4068	1253.234	1276.4526	1316.5717	1370.0051	1392.2795	1410.6275	1452.2135	1483.3454	1486.6215	1497.4026	1529.711	3037.9616	3043.2439	3080.5189	3092.6619	3106.2563	3116.7336	3122.2066	3166.811	3181.6012	3205.6842
CC1OC2CC12C1CO1	C[C@H]1O[C@H]2C[C@@]12[C@H]1CO1	
InChI=1S/C7H10O2/c1-4-7(6-3-8-6)2-5(7)9-4/h4-6H,2-3H2,1H3	InChI=1S/C7H10O2/c1-4-7(6-3-8-6)2-5(7)9-4/h4-6H,2-3H2,1H3/t4-,5+,6-,7-/m1/s1
