25
gdb 100830	3.55323	0.71319	0.62822	2.914	90.54	-0.2462	-0.017	0.2292	1847.4257	0.225559	-389.512474	-389.500795	-389.49985	-389.550634	41.519	
C	-0.0582332505	 1.5770867747	 0.1532244629	-0.38995
C	 0.1300169987	 0.0567717772	 0.0921269808	-0.176498
C	 0.7181381664	-0.4683364587	-1.2371959652	 0.052974
C	 2.185746159	-0.0315867423	-1.3748806295	-0.412983
C	 0.5321076519	-2.0073824902	-1.362083917	 0.012523
C	-0.9487600516	-2.4009618791	-1.5083249413	-0.406002
C	 1.331871843	-2.6168922728	-2.5361264547	-0.290717
C	 1.2662067185	-4.1263935106	-2.5552122939	 0.162015
O	 0.9778944705	-4.8029822084	-3.5085637706	-0.246744
H	 0.8882594545	 2.1195975474	 0.0716240235	 0.118909
H	-0.7109874632	 1.9252352654	-0.6551460218	 0.115331
H	-0.5200549267	 1.8717651306	 1.1008054755	 0.113701
H	 0.7821169713	-0.2668712356	 0.9153960851	 0.092497
H	-0.8418891742	-0.4101415722	 0.2774362078	 0.096745
H	 0.1509373663	-0.0069984398	-2.06007879	 0.068581
H	 2.5831365439	-0.2158537472	-2.3761637617	 0.118524
H	 2.2962543669	 1.0387616804	-1.1827918735	 0.11647
H	 2.8234886695	-0.5605660575	-0.6553653834	 0.11136
H	 0.9202727828	-2.4582590111	-0.4351490354	 0.072861
H	-1.3738581935	-1.9655711896	-2.4202467323	 0.121479
H	-1.0664470097	-3.4868062734	-1.5833453333	 0.125403
H	-1.5563865377	-2.069112557	-0.66388515	 0.120786
H	 0.9842280003	-2.237950697	-3.5032446831	 0.115627
H	 2.3950690488	-2.3642230523	-2.4358714877	 0.120004
H	 1.5302831448	-4.601050301	-1.5786947316	 0.067104
39.8879	51.7062	64.4371	83.4211	172.1762	203.1544	224.048	237.6897	276.0209	299.9825	333.5879	375.8204	402.5335	470.623	491.5543	540.4401	766.3466	780.4331	822.6739	872.0241	920.2989	953.0476	971.875	995.7376	1002.1109	1025.9259	1052.1488	1086.568	1143.6601	1162.1339	1181.0236	1182.6317	1223.6273	1265.5306	1300.1735	1314.8659	1347.184	1364.016	1373.4452	1384.168	1408.646	1417.7888	1422.4621	1429.6099	1461.4496	1482.156	1495.3373	1495.9467	1500.6749	1505.6551	1510.922	1517.2541	1834.5065	2835.0391	2978.5953	2992.3648	3018.0221	3028.8943	3031.4205	3034.6647	3036.4028	3075.4216	3089.5928	3096.2754	3099.3062	3100.4029	3108.2317	3117.5884	3125.5971
CCC(C)C(C)CC=O	CC[C@@H](C)[C@@H](C)CC=O	
InChI=1S/C8H16O/c1-4-7(2)8(3)5-6-9/h6-8H,4-5H2,1-3H3	InChI=1S/C8H16O/c1-4-7(2)8(3)5-6-9/h6-8H,4-5H2,1-3H3/t7-,8+/m1/s1
