17
gdb 64995	3.65437	1.0479	0.88086	4.0803	71.82	-0.2503	-0.0231	0.2273	1295.6413	0.135687	-455.161242	-455.152459	-455.151515	-455.195153	32.662	
O	 0.162435519	 1.2246201774	 0.3300101983	-0.471655
C	 0.0006929523	-0.1585215009	 0.1092017892	 0.326988
C	-0.8405610784	-0.9532334956	 1.0707723727	-0.30961
C	-1.3889870002	-0.5974694909	-0.2863126688	-0.271287
C	 1.1646256091	-0.8346268435	-0.5683142013	 0.295708
N	 1.2524889841	-2.0997948058	-0.6083332686	-0.524818
N	 2.0509582009	 0.0972331262	-1.1407788668	-0.346349
C	 3.1768103975	-0.1815894839	-1.8693863615	 0.165236
O	 3.6023697073	-1.2869380587	-2.1224886904	-0.301268
H	 0.5900282271	 1.3397633778	 1.1864154988	 0.292056
H	-0.5309647761	-1.9765033206	 1.2439652632	 0.154604
H	-1.2327524248	-0.4136770284	 1.9260516172	 0.113455
H	-2.1336334627	 0.1880057662	-0.3429830521	 0.126209
H	-1.4596149654	-1.3836028238	-1.0279095063	 0.141101
H	 2.0714212399	-2.3903457566	-1.1415221476	 0.25263
H	 1.7924168931	 1.0650052328	-1.0001333002	 0.26358
H	 3.6754928973	 0.7450463083	-2.2131971657	 0.093421
51.7225	93.3234	183.3608	248.7602	281.0688	287.4549	321.3375	389.0099	410.8592	464.0691	515.0305	658.3222	712.9507	730.0782	781.0335	864.7948	910.9199	926.017	943.9476	957.9419	991.248	1027.6133	1028.8069	1065.4122	1089.0136	1182.4261	1201.3445	1253.9865	1275.9322	1345.5442	1368.3526	1437.8159	1438.4168	1476.3952	1513.9115	1724.6693	1808.8876	2949.5695	3139.6162	3146.4915	3237.5355	3250.1998	3498.5961	3584.3866	3791.3235
OC1(CC1)C(=N)NC=O	OC1(CC1)C(=N)NC=O	
InChI=1S/C5H8N2O2/c6-4(7-3-8)5(9)1-2-5/h3,9H,1-2H2,(H2,6,7,8)	InChI=1S/C5H8N2O2/c6-4(7-3-8)5(9)1-2-5/h3,9H,1-2H2,(H2,6,7,8)
