20
gdb 86040	3.34933	1.02182	1.00514	4.7618	75.95	-0.2421	0.0316	0.2736	1275.589	0.169485	-440.299587	-440.290005	-440.289061	-440.333966	35.837	
C	 0.3874831698	 1.3064562105	 0.1744912991	-0.444193
C	-0.0713606615	-0.1460786966	 0.0371151547	 0.358735
C	 0.8054819691	-0.9771166042	-0.9509215657	-0.237814
C	 1.5595840737	-1.5871741251	 0.2509151551	 0.118366
O	 2.7996595647	-0.92322535	 0.4190541797	-0.427622
C	 0.4264643178	-1.0700203686	 1.1873574047	-0.322148
N	-1.513341316	-0.232039861	-0.1836615933	-0.334471
C	-2.1186183197	 0.1436394333	-1.338615434	 0.148452
O	-1.5417686343	 0.5286927848	-2.3356294476	-0.332206
H	 1.4660709735	 1.342772898	 0.346186796	 0.134095
H	 0.1543428549	 1.8560504024	-0.7408298677	 0.14708
H	-0.1183221481	 1.7921642639	 1.0166436077	 0.099543
H	 0.2175727751	-1.7174754287	-1.4947848374	 0.109343
H	 1.4189682779	-0.412097393	-1.6530061755	 0.123788
H	 1.6991612911	-2.6754254652	 0.2353920326	 0.068626
H	 3.1740393875	-1.1990284106	 1.2622797008	 0.282577
H	 0.7435427361	-0.5777999109	 2.1111849418	 0.098813
H	-0.2950898774	-1.8582417059	 1.4242238142	 0.094734
H	-2.1004651154	-0.4633010782	 0.6028327759	 0.241839
H	-3.2221133887	 0.0426458651	-1.279746231	 0.072464
62.1208	99.6338	143.0511	204.2654	250.1901	289.287	313.6777	345.3543	368.3011	398.2789	420.3788	440.5967	525.3395	615.2245	792.4789	832.5227	841.8624	859.4169	922.7334	944.812	967.2942	973.2714	1021.6831	1030.3868	1085.1401	1160.8852	1175.9285	1201.3752	1214.0396	1223.9769	1250.0184	1281.9175	1299.9191	1327.2589	1400.4719	1418.5272	1428.8241	1451.3553	1472.5752	1488.5417	1502.538	1514.9817	1796.4838	2918.6278	3012.7861	3034.9894	3046.0902	3090.9507	3104.9539	3111.1963	3136.4013	3152.1117	3620.7949	3809.4086
CC1(CC(O)C1)NC=O	C[C@]1(C[C@@H](O)C1)NC=O	
InChI=1S/C6H11NO2/c1-6(7-4-8)2-5(9)3-6/h4-5,9H,2-3H2,1H3,(H,7,8)	InChI=1S/C6H11NO2/c1-6(7-4-8)2-5(9)3-6/h4-5,9H,2-3H2,1H3,(H,7,8)/t5-,6-
