17
gdb 127536	4.74825	1.27199	1.02936	1.5038	77.56	-0.1979	0.0056	0.2035	1146.3747	0.139648	-414.187459	-414.179816	-414.178872	-414.219914	28.387	
C	 0.1272285195	 1.3569840687	 0.0695562436	-0.306625
N	-0.0373843265	-0.0760274759	 0.0168050327	 0.116091
N	 0.0157039265	-0.7550882484	-1.1369558455	-0.339189
C	-0.0071420599	-2.0178722541	-0.7357905172	 0.293884
C	-0.0609072663	-3.4104412843	-1.2828599317	-0.344725
C	 0.2036977296	-4.2300243191	 0.0296185353	-0.167797
N	-0.1894900838	-3.3406902815	 1.1617377236	-0.398485
C	-0.0713563803	-2.0503813121	 0.6575956702	 0.361253
N	-0.0797645395	-0.8228642479	 1.1509170778	-0.37681
H	 1.1601710396	 1.6314889319	 0.312568193	 0.138186
H	-0.1335439775	 1.7585054049	-0.909381379	 0.155507
H	-0.5374375901	 1.7655354892	 0.83299506	 0.150376
H	-1.0491616502	-3.643841357	-1.6970850841	 0.127412
H	 0.6806695087	-3.6370525867	-2.0527362331	 0.124593
H	-0.3711837335	-5.1585371594	 0.0611750795	 0.115499
H	 1.2706375126	-4.4859808782	 0.0882771663	 0.107633
H	 0.2802659111	-3.5332617102	 2.0358980787	 0.243197
79.0077	123.1338	178.0044	254.0474	296.5125	325.6929	517.7861	544.446	605.7475	624.268	696.985	756.4621	796.5287	847.431	873.2023	939.1057	977.2809	1024.3845	1051.369	1075.3854	1145.4017	1174.2363	1198.2532	1240.2173	1293.9626	1311.3809	1326.6853	1376.9046	1401.5074	1442.9723	1477.3562	1482.5369	1495.4815	1507.7723	1516.0031	1565.3915	1624.8809	3005.4515	3033.9623	3036.4456	3090.7136	3099.4957	3115.5248	3167.2096	3581.9217
CN1N=C2CCNC2=N1	Cn1nc2CCNc2n1	
InChI=1S/C5H8N4/c1-9-7-4-2-3-6-5(4)8-9/h2-3H2,1H3,(H,6,8)	InChI=1S/C5H8N4/c1-9-7-4-2-3-6-5(4)8-9/h2-3H2,1H3,(H,6,8)
