21
gdb 39787	3.28578	1.44855	1.17726	0.0205	88.37	-0.2558	0.1055	0.3613	1121.7496	0.182971	-349.862121	-349.854408	-349.853464	-349.89382	32.128	
C	-0.0134595161	 1.5150153671	 0.0105744126	-0.380544
C	 1.3177280025	 0.7592851934	-0.0067152036	-0.368008
C	 0.0256880129	 0.0265144946	 0.0020146777	 0.488425
C	-0.577257699	-1.0324930753	 0.951391052	-0.228526
C	-1.8287331427	-1.0224451862	 0.0145224296	-0.219042
C	-0.5959760773	-1.0220366256	-0.9468963646	-0.228534
C	 0.0173835065	-2.0857609834	-0.0095405459	 0.488424
C	 1.3036252058	-2.828526327	-0.0262591629	-0.368007
C	-0.0334627446	-3.5739126183	-0.0171758011	-0.380544
H	-0.2890134328	 2.0284377745	 0.9268757571	 0.10955
H	-0.3070034091	 2.0384405487	-0.8944108499	 0.10955
H	 1.8996199109	 0.7862347096	-0.9229253693	 0.109198
H	 1.9175919124	 0.7762478006	 0.8980727737	 0.109198
H	-0.5577446591	-1.0385428793	 2.0429184001	 0.069764
H	-2.4396767271	-1.9278295526	 0.0155598046	 0.090917
H	-2.432534082	-0.1123469687	 0.0254877029	 0.090917
H	-0.5979931711	-1.016053578	-2.0385965043	 0.069764
H	 1.8853435288	-2.8500971445	-0.9427223537	 0.109198
H	 1.9032816753	-2.8600281225	 0.8782764545	 0.109199
H	-0.3131285977	-4.0950855958	 0.8934868207	 0.10955
H	-0.3310280964	-4.0851433214	-0.9278010502	 0.10955
133.4367	203.7158	209.6964	284.4184	302.909	331.4098	477.3165	497.5672	660.7334	661.5654	743.5907	768.2798	785.8806	786.5901	876.5638	889.2491	901.8217	918.4554	942.7628	957.78	959.1857	1024.7105	1040.7643	1041.1789	1050.976	1059.6156	1076.4604	1076.6031	1080.6337	1098.1181	1156.2655	1175.6079	1178.4396	1178.6607	1184.1502	1188.4736	1220.6878	1257.5839	1401.1979	1415.0071	1459.6733	1460.8432	1494.5938	1510.2516	1532.5106	3059.0403	3094.5064	3099.6895	3116.5383	3117.0483	3120.3558	3121.1526	3130.9702	3192.5749	3192.9864	3206.9174	3207.3571
C1CC11C2CC1C21CC1	C1CC21[C@H]1C[C@@H]2C21CC2	
InChI=1S/C9H12/c1-2-8(1)6-5-7(8)9(6)3-4-9/h6-7H,1-5H2	InChI=1S/C9H12/c1-2-8(1)6-5-7(8)9(6)3-4-9/h6-7H,1-5H2/t6-,7+
