18
gdb 7317	3.98495	1.22297	0.95239	2.829	76.15	-0.2409	-0.013	0.2279	1221.4162	0.152044	-381.15956	-381.150105	-381.149161	-381.193771	32.827	
C	 1.033951202	 1.2641256032	 0.5801572419	-0.31496
N	 0.6896159264	-0.1333096879	 0.4272128173	-0.232014
C	 1.0321644789	-0.7039356505	-0.6513286238	 0.109017
N	 0.7469567385	-2.0410002351	-0.8904900539	-0.13627
C	 0.0315765266	-2.7748320191	 0.1542564131	-0.337471
C	 1.1027786773	-2.7116628214	-2.06128465	 0.424518
C	 1.8453550797	-1.9281810113	-3.1325809279	-0.506659
O	 0.8293186267	-3.8834709352	-2.2217059617	-0.3482
H	 1.5716457549	 1.6901876024	-0.2830074194	 0.095554
H	 0.1234054224	 1.8525904407	 0.7426348248	 0.129543
H	 1.6575214927	 1.394729097	 1.4722799994	 0.129544
H	 1.5673420657	-0.1970382522	-1.4585429522	 0.099452
H	-0.9316422466	-2.2976693213	 0.3494851558	 0.140703
H	-0.1065619547	-3.7948222173	-0.1950647651	 0.162517
H	 0.6088778454	-2.7570484522	 1.0816171732	 0.140695
H	 2.8018915843	-1.5423852182	-2.7675317144	 0.145932
H	 2.0306765695	-2.6164780335	-3.9562601621	 0.152185
H	 1.2585805403	-1.0810688781	-3.500170975	 0.145915
85.3215	113.6406	135.544	171.3255	187.8869	195.0969	218.1704	326.5608	400.0759	405.4693	444.5022	505.1223	598.3504	638.9698	834.7371	965.7825	982.0518	1012.4679	1052.7649	1070.7937	1139.3919	1147.0187	1160.352	1174.8374	1337.7093	1356.095	1389.2252	1430.9209	1443.7268	1448.6519	1477.5388	1478.2897	1489.401	1492.2421	1502.0106	1512.2281	1736.731	1788.1832	2966.5266	3048.4245	3056.6677	3063.0694	3074.8189	3087.2372	3114.6297	3122.9068	3163.4199	3192.5157
CN=CN(C)C(C)=O	CN=CN(C)C(=O)C	
InChI=1S/C5H10N2O/c1-5(8)7(3)4-6-2/h4H,1-3H3	InChI=1S/C5H10N2O/c1-5(8)7(3)4-6-2/h4H,1-3H3
