21
gdb 59794	3.04636	1.17366	1.01583	3.0028	74.81	-0.2585	0.0852	0.3437	1261.9741	0.183047	-461.37165	-461.362682	-461.361738	-461.405176	34.381	
C	 0.481526849	 0.3815226796	 0.9399330914	-0.395888
C	-0.3765513411	-0.1072771797	-0.2265759522	 0.095751
O	-1.1233949397	 0.9405514634	-0.8252067309	-0.44045
C	 0.4467646465	-0.801241571	-1.3145698742	 0.202356
O	 1.3044567447	 0.173664762	-1.8764600986	-0.27331
C	 2.1013608289	-0.3649406211	-2.9245612756	-0.079733
C	 2.9083430423	-1.5597763331	-2.4116801459	-0.207126
C	 1.9513834916	-2.5426163546	-1.7330511887	-0.078941
O	 1.1606192267	-1.8722559519	-0.757564328	-0.252314
H	 0.9917331257	-0.4562127295	 1.4220668358	 0.126349
H	 1.2402859996	 1.0861896724	 0.5872262446	 0.118656
H	-0.1526631459	 0.8859053812	 1.6732494761	 0.115833
H	-1.112730996	-0.8329881904	 0.1351395015	 0.093759
H	-0.4847961542	 1.4781329566	-1.3098061579	 0.284553
H	-0.223704055	-1.1771607273	-2.1112684187	 0.06024
H	 1.4533882432	-0.6757298208	-3.7614022659	 0.09341
H	 2.7456423409	 0.4449567639	-3.2761085988	 0.112954
H	 3.4399794044	-2.0472756137	-3.2363773173	 0.101136
H	 3.6487422027	-1.2122621114	-1.6837682775	 0.117077
H	 1.2943110821	-3.0117279359	-2.4848803447	 0.091923
H	 2.4861116335	-3.3372490387	-1.2069858646	 0.113763
85.6291	116.7461	188.0476	229.4612	259.866	266.8368	337.932	384.5489	421.0529	451.7675	476.0055	517.1785	635.8413	656.3239	844.1561	863.5177	901.0671	921.943	938.9432	963.2414	1007.1065	1041.9988	1064.3156	1083.8949	1123.3079	1130.661	1178.698	1181.6019	1239.0349	1258.5274	1298.9746	1304.2348	1367.1858	1370.2047	1376.1899	1386.7572	1402.612	1414.6698	1420.5506	1437.7554	1468.0663	1487.771	1497.2238	1501.891	1506.3801	2920.7994	2965.2666	2972.5195	3044.4338	3048.2406	3061.1206	3090.6067	3094.555	3100.4523	3124.1047	3131.1375	3785.5889
CC(O)C1OCCCO1	C[C@@H](O)C1OCCCO1	
InChI=1S/C6H12O3/c1-5(7)6-8-3-2-4-9-6/h5-7H,2-4H2,1H3	InChI=1S/C6H12O3/c1-5(7)6-8-3-2-4-9-6/h5-7H,2-4H2,1H3/t5-/m1/s1
