12
gdb 130493	4.01604	1.76502	1.22614	4.6208	69.31	-0.2786	-0.1053	0.1733	897.5138	0.081137	-431.654737	-431.649186	-431.648242	-431.684667	21.952	
O	-0.0501360229	 1.2245167896	 0.0093243626	-0.122514
N	 1.1711174527	 1.8368911914	 0.0007965246	-0.193714
C	 2.0322317957	 0.8399171695	-0.0130749192	 0.315573
C	 3.4526547777	 0.8139998356	-0.0270359473	-0.183914
C	 4.0107443358	-0.4300685778	-0.0393387165	-0.100245
C	 3.1860476116	-1.6132727132	-0.0378536151	-0.012004
N	 1.878863562	-1.6344945812	-0.0252574274	-0.313002
C	 1.3111654152	-0.3987201371	-0.0129083194	 0.374344
N	 0.0161154627	-0.1313282499	 0.0011739992	-0.1638
H	 4.0374140251	 1.7258456359	-0.0276900441	 0.142211
H	 5.0872516601	-0.5572110507	-0.0505157565	 0.125672
H	 3.6828874344	-2.581375172	-0.048038701	 0.131393
225.5782	264.9533	450.5024	460.5553	553.2126	586.2245	640.4822	643.1749	774.9532	807.3917	846.4844	913.9131	926.3143	949.4799	987.2376	1010.9958	1011.509	1066.0509	1157.7442	1275.8542	1392.6082	1404.2344	1434.2955	1453.034	1562.1305	1586.4136	1657.8501	3154.3991	3199.3096	3217.9272
O1N=C2C=CC=NC2=N1	o1nc2cccnc2n1	
InChI=1S/C5H3N3O/c1-2-4-5(6-3-1)8-9-7-4/h1-3H	InChI=1S/C5H3N3O/c1-2-4-5(6-3-1)8-9-7-4/h1-3H
