18
gdb 63360	2.70829	1.42696	1.1508	4.1602	75.05	-0.2237	-0.0127	0.211	1109.6505	0.147496	-439.138344	-439.129649	-439.128704	-439.171337	33.53	
C	-0.0160943412	 1.5722126626	-0.0042380381	-0.423741
C	-0.0020899701	 0.0403235826	 0.0287038833	 0.308831
O	-1.3568523249	-0.4527972748	-0.0074901322	-0.459829
C	 0.6481065647	-0.5351314572	-1.2381649668	-0.332715
C	 0.946252855	-2.0256354761	-1.1739124622	 0.403092
O	 0.9200342896	-2.7688046584	-2.1301856871	-0.356392
N	 1.3429543706	-2.468393604	 0.0758092738	-0.331463
C	 1.2938215216	-1.6892970804	 1.2270652776	 0.022067
C	 0.7133722499	-0.4864051605	 1.2521522372	-0.186631
H	 0.9987477393	 1.982410131	-0.0168841518	 0.116728
H	-0.5536754515	 1.9261472634	-0.8882497546	 0.125769
H	-0.5265850111	 1.963782261	 0.8828743071	 0.106582
H	-1.7253959495	-0.3574725283	 0.8772395373	 0.273744
H	 0.0092304183	-0.3595215101	-2.1054258415	 0.139658
H	 1.6059342175	-0.0301572298	-1.4164282323	 0.126784
H	 1.6230571583	-3.4360633334	 0.1261761868	 0.255823
H	 1.7682690721	-2.1330653993	 2.0952904142	 0.120752
H	 0.7125795915	 0.0971824219	 2.1654591494	 0.09094
93.4427	122.4304	226.8881	245.1203	265.8482	319.0874	332.217	401.1675	462.9546	494.4638	532.7294	563.1001	588.0818	650.6345	719.86	745.0932	838.5603	879.4312	921.0265	946.1528	963.7735	979.81	1094.2263	1110.2107	1135.5922	1145.1522	1212.9944	1250.3414	1291.342	1341.7187	1376.5837	1403.3525	1425.2655	1443.7052	1467.7656	1490.0988	1491.5541	1712.299	1813.0317	3030.284	3043.0224	3098.5196	3118.2507	3126.4095	3184.7597	3205.3048	3629.2737	3810.1708
CC1(O)CC(=O)NC=C1	C[C@@]1(O)CC(=O)NC=C1	
InChI=1S/C6H9NO2/c1-6(9)2-3-7-5(8)4-6/h2-3,9H,4H2,1H3,(H,7,8)	InChI=1S/C6H9NO2/c1-6(9)2-3-7-5(8)4-6/h2-3,9H,4H2,1H3,(H,7,8)/t6-/m0/s1
