15
gdb 131697	2.97312	1.32771	0.9231	4.4865	74.08	-0.2247	-0.0673	0.1575	1191.645	0.113462	-450.111749	-450.10359	-450.102646	-450.145217	29.519	
O	 0.0216358396	 1.4296542574	 0.0101627756	-0.387402
C	-0.0240192092	 0.0311872963	 0.0020019935	-0.163461
C	-1.451148158	-0.462622302	 0.0124838468	 0.301541
N	-2.4314709711	 0.3744510284	 0.0218181775	-0.290212
C	-3.7365835237	-0.1185177069	 0.0309624036	 0.427715
N	-4.7327253715	 0.6780202881	 0.0406239907	-0.522616
N	-3.8449824757	-1.5292836001	 0.0286946767	-0.278962
N	-2.8408811655	-2.4052818013	 0.019122138	-0.147381
C	-1.6485180615	-1.8974384182	 0.011056565	-0.052436
H	 0.9453119874	 1.6968217091	-0.0059099186	 0.295385
H	 0.4668713991	-0.4036445911	-0.8879814086	 0.112078
H	 0.4838152121	-0.4144031371	 0.8770920915	 0.11185
H	-5.6180164812	 0.1696354676	 0.0465087695	 0.201094
H	-4.7629183027	-1.949553143	 0.0350084157	 0.269798
H	-0.8200398281	-2.5967455672	 0.0033230931	 0.12301
62.2038	94.4017	183.5608	186.3996	240.8569	384.7761	397.7518	475.8011	576.0317	578.7238	616.928	656.8439	727.623	770.1957	810.861	862.8864	948.2178	1009.6365	1018.9937	1098.6131	1100.7903	1167.3646	1210.6542	1243.7797	1257.0197	1311.596	1409.4057	1443.9629	1467.1094	1501.9893	1591.6641	1682.7769	1718.5818	2937.479	2952.5808	3193.6696	3469.4607	3606.6978	3836.2487
OCC1=NC(=N)NN=C1	OCc1nc([NH])[nH]nc1	
InChI=1S/C4H6N4O/c5-4-7-3(2-9)1-6-8-4/h1,9H,2H2,(H2,5,7,8)	InChI=1S/C4H11N4O/c5-4-7-3(2-9)1-6-8-4/h3-9H,1-2H2
