19
gdb 121015	3.31029	0.98387	0.79879	3.6555	77.91	-0.2381	-0.0481	0.19	1416.3514	0.159362	-423.058542	-423.049532	-423.048588	-423.093144	32.823	
O	 0.1427288552	 1.4520488803	 0.3309394473	-0.42043
C	 0.0963937	 0.0400565597	 0.1769732161	-0.07992
C	-1.3355123585	-0.4671332025	-0.0269837179	-0.209063
C	-1.4427500849	-1.9981715964	-0.1185223614	-0.109057
C	-2.877575346	-2.5624203737	-0.003168304	-0.297154
C	-2.9992612424	-3.5299254177	-1.1519504422	-0.049867
C	-1.9232821227	-3.5365686248	-1.9469302908	-0.163125
C	-0.9149347374	-2.5741211119	-1.4501822394	 0.376006
O	 0.1302886532	-2.2781867569	-1.9871927612	-0.33946
H	-0.01527657	 1.8442801578	-0.5332053291	 0.281417
H	 0.7394152819	-0.3065349369	-0.6398827182	 0.127088
H	 0.4988822245	-0.373499079	 1.1096090632	 0.103404
H	-1.9473167542	-0.1076778769	 0.8088587469	 0.104994
H	-1.7552583013	-0.0175182079	-0.9380091274	 0.09043
H	-0.8195073723	-2.4387170143	 0.6718879389	 0.106098
H	-3.0681751432	-3.0521094094	 0.958860948	 0.120818
H	-3.6329403697	-1.7701830948	-0.0927824246	 0.124258
H	-3.8898037424	-4.1322405528	-1.3001726399	 0.117041
H	-1.7748827197	-4.1195098019	-2.8467616742	 0.116522
50.8414	88.2996	118.1929	174.9038	243.3382	285.0931	309.3014	337.3216	430.0179	490.6389	630.859	680.9988	754.8544	759.3537	792.6552	829.8421	922.2919	953.4605	997.3843	1008.1906	1034.9474	1067.7886	1070.8764	1108.6076	1116.9931	1144.5749	1178.4738	1190.94	1266.8596	1278.5657	1315.8115	1332.2841	1348.5686	1366.4918	1402.6703	1418.3229	1474.9765	1487.2351	1519.0574	1651.6173	1799.9589	3007.1733	3017.6061	3024.0406	3033.6214	3054.1276	3059.1982	3085.3984	3186.7641	3228.0428	3822.5221
OCCC1CC=CC1=O	OCC[C@H]1CC=CC1=O	
InChI=1S/C7H10O2/c8-5-4-6-2-1-3-7(6)9/h1,3,6,8H,2,4-5H2	InChI=1S/C7H10O2/c8-5-4-6-2-1-3-7(6)9/h1,3,6,8H,2,4-5H2/t6-/m1/s1
