13
gdb 26815	3.76286	1.14092	0.87547	1.7521	75.48	-0.1843	-0.0111	0.1732	1213.013	0.088313	-452.745069	-452.736608	-452.735664	-452.777813	31.321	
O	 0.0329874945	 1.3652109502	 0.2593223699	-0.44188
C	 0.0576495791	 0.0308458329	 0.0410136848	 0.310001
C	 0.1153393065	-0.7548844355	-1.0878711632	 0.201877
O	 0.1652816344	-0.2875563875	-2.362475824	-0.461096
N	 0.1161535543	-2.0681750924	-0.7648715631	-0.37924
C	 0.0596178764	-2.1199227152	 0.5638603493	 0.168641
N	 0.0222023015	-0.8465215873	 1.0885909378	-0.355947
C	 0.0374643912	-3.2677866369	 1.3765636703	 0.273808
C	 0.0170252667	-4.2318585653	 2.0998326395	-0.415328
H	 0.0667896442	 1.8027049296	-0.5988132473	 0.319187
H	 0.198728915	-1.0604939472	-2.9383134766	 0.305785
H	-0.0230352807	-0.5989509685	 2.0632830601	 0.280307
H	-0.0003653031	-5.0901714968	 2.7243661125	 0.193885
126.0689	142.1744	218.7224	253.715	254.8151	285.7003	344.398	427.6105	453.7565	501.6683	521.3455	549.3027	605.9165	663.2392	680.6077	692.7274	714.6818	835.7299	1024.2559	1149.7872	1161.7386	1232.8948	1312.3228	1387.4462	1429.3126	1501.1268	1563.1566	1697.6817	2225.1231	3503.2479	3665.8114	3812.9068	3825.7942
OC1=C(O)N=C(N1)C#C	Oc1c(O)nc([nH]1)C#C	
InChI=1S/C5H4N2O2/c1-2-3-6-4(8)5(9)7-3/h1,8-9H,(H,6,7)	InChI=1S/C5H4N2O2/c1-2-3-6-4(8)5(9)7-3/h1,8-9H,(H,6,7)
