18
gdb 36743	4.18086	0.79961	0.77324	4.0075	73.18	-0.2583	0.0072	0.2655	1489.5727	0.147648	-439.082794	-439.073929	-439.072985	-439.118263	30.958	
N	 0.6888017312	-1.1188645603	-0.2312734295	-0.290948
C	 0.4830694215	 0.0169680762	-0.2249043542	 0.266432
C	 0.182673609	 1.4520873861	-0.2258876183	-0.195496
O	 1.351274361	 2.1643107519	 0.0924857081	-0.255195
C	 1.1540377339	 3.5757982558	 0.1988770722	 0.098522
C	 2.4244412974	 4.1598072462	 0.8216596225	-0.243455
C	 3.2975972149	 4.3773986057	-0.4157324569	-0.069419
O	 2.3943673726	 4.8339423139	-1.418592656	-0.256049
C	 1.109446365	 4.2710273861	-1.1820143581	-0.078548
H	-0.2169676831	 1.7197177468	-1.2167105639	 0.142076
H	-0.6173551622	 1.6433891496	 0.5084788022	 0.140477
H	 0.2507066799	 3.7714271373	 0.7923158375	 0.075958
H	 2.1953678073	 5.1175161841	 1.2984162726	 0.113664
H	 2.8533376549	 3.4831208253	 1.5622991502	 0.12304
H	 4.068681229	 5.1412035934	-0.2863809706	 0.112264
H	 3.77991755	 3.4369749127	-0.7203082631	 0.108468
H	 0.8577804575	 3.5478476282	-1.9704393602	 0.101535
H	 0.3651459603	 5.0763088409	-1.2088002845	 0.106676
32.083	56.0816	117.9358	125.2089	203.7239	284.6102	370.3186	383.4773	442.309	551.9706	648.1315	745.5811	858.6685	872.8361	921.1602	935.1511	956.9838	972.3065	1000.3726	1036.0127	1066.6228	1116.2636	1130.4849	1150.1227	1196.5214	1231.7583	1251.012	1258.5793	1294.5438	1326.7654	1357.4282	1371.4383	1406.9957	1429.8175	1470.9577	1497.0805	1505.7024	1521.3594	2374.7076	2972.5364	2997.6344	3000.7118	3005.5699	3015.0539	3048.3158	3067.2272	3095.8218	3134.1326
N#CCOC1CCOC1	N#CCO[C@H]1CCOC1	
InChI=1S/C6H9NO2/c7-2-4-9-6-1-3-8-5-6/h6H,1,3-5H2	InChI=1S/C6H9NO2/c7-2-4-9-6-1-3-8-5-6/h6H,1,3-5H2/t6-/m0/s1
