21
gdb 78480	3.09566	1.32858	1.32611	1.5229	81.45	-0.2277	0.0896	0.3172	1109.6257	0.184768	-387.064605	-387.056879	-387.055935	-387.096521	31.075	
C	-0.012642445	 1.503761547	 0.02063677	-0.420543
C	 0.0473645079	-0.0099564655	 0.0297008024	-0.013556
C	 1.3984975248	-0.6324251724	-0.2137471638	-0.074777
C	 0.772877724	-0.6488389932	 1.1863105995	-0.074773
C	 0.7109980918	-2.1899338337	 1.1586067228	-0.049446
C	-0.630609525	-2.9007221738	 0.9625847563	-0.106437
O	-0.9196800118	-2.8265836072	-0.4354927484	-0.25084
C	 0.315244072	-2.8759293475	-1.15397024	-0.106434
C	 1.3500609667	-2.1731708368	-0.2714563983	-0.049445
H	 0.9029308281	 1.9406930477	 0.4348826235	 0.111661
H	-0.1328694629	 1.8888275583	-0.9978472602	 0.116606
H	-0.854849387	 1.8698831504	 0.6178661556	 0.116606
H	-0.834812049	-0.4989445892	-0.3702302727	 0.108047
H	 2.2290086442	-0.0358160737	-0.5740566005	 0.078024
H	 1.0533674683	-0.0666674272	 2.0568941474	 0.078024
H	 1.3276432952	-2.6531318198	 1.930305158	 0.073354
H	-0.5582054513	-3.9535724404	 1.2816523828	 0.086439
H	-1.4663972069	-2.4345261927	 1.4926625657	 0.108849
H	 0.6104146905	-3.9229384625	-1.3333742716	 0.086438
H	 0.1484615838	-2.3921987964	-2.1209499794	 0.108849
H	 2.3403235516	-2.6265598614	-0.3358087291	 0.073355
143.407	175.5345	221.8222	233.4733	257.2683	337.6989	416.8411	506.5292	624.534	713.83	741.0601	782.235	838.1039	861.1442	872.6002	904.6155	907.2419	926.983	999.832	1014.8667	1015.9835	1050.4992	1055.7181	1072.4652	1100.6418	1105.7029	1121.8267	1165.8461	1165.8505	1204.1406	1210.6003	1243.4462	1266.2256	1279.8307	1294.9788	1325.4962	1345.4682	1349.8539	1397.2345	1416.7452	1425.712	1495.2539	1500.9827	1502.5235	1511.2297	2962.8744	2969.8829	3025.3505	3080.243	3083.4742	3090.5155	3090.8297	3092.0236	3102.93	3160.9428	3164.7424	3175.9371
CC1C2C1C1COCC21	C[C@H]1[C@H]2[C@@H]1[C@H]1COC[C@@H]21	
InChI=1S/C8H12O/c1-4-7-5-2-9-3-6(5)8(4)7/h4-8H,2-3H2,1H3	InChI=1S/C8H12O/c1-4-7-5-2-9-3-6(5)8(4)7/h4-8H,2-3H2,1H3/t4-,5+,6-,7+,8-
