17
gdb 65627	3.36217	1.2698	1.18064	1.6724	72.24	-0.2555	0.017	0.2724	1079.3691	0.136852	-417.973359	-417.96527	-417.964325	-418.006161	30.598	
N	 0.1019470442	 1.5641984349	-0.3418102992	-0.539026
C	-0.0016593157	 0.1314629085	-0.0972727444	 0.127376
C	 0.1472052278	-0.2809624465	 1.412900678	-0.275619
C	-1.2782159438	-0.8810161966	 1.3905819716	 0.13041
O	-2.2838310667	 0.044913628	 1.8302475117	-0.288495
C	-2.5342914141	 0.4887129913	 0.4719822958	-0.089841
C	-1.4600398814	-0.4568759213	-0.0911588947	-0.115548
C	 0.8766432725	-0.6583649051	-0.9744235525	 0.227351
N	 1.5716603189	-1.2494979988	-1.6860931957	-0.342715
H	 1.0328620694	 1.8888182693	-0.0942340456	 0.24616
H	-0.0217186563	 1.7656951009	-1.3309516372	 0.243375
H	 0.951830803	-0.9944993609	 1.5975254885	 0.127312
H	 0.2400719445	 0.5763973176	 2.0817432569	 0.128496
H	-1.4237680375	-1.8876458196	 1.7877419329	 0.088857
H	-3.5540494928	 0.2394099069	 0.1564613156	 0.105878
H	-2.3499907818	 1.5587142759	 0.342103104	 0.126686
H	-1.7273544603	-1.1216823644	-0.9095782757	 0.099342
68.8557	145.8055	176.0579	236.3098	286.2362	337.8727	396.8855	437.3176	518.6754	572.5634	641.4047	728.3889	789.3292	831.5227	878.2407	896.6778	921.1556	933.5609	976.4114	1015.0319	1023.1054	1057.307	1102.6798	1159.5418	1166.3586	1188.9608	1229.5869	1234.5496	1267.3266	1290.4319	1303.6281	1323.087	1362.4621	1448.8855	1510.3035	1653.9073	2336.5682	3029.9548	3077.1554	3090.3788	3095.5193	3138.02	3145.9361	3483.5713	3563.463
NC1(CC2OCC12)C#N	N[C@]1(C[C@H]2OC[C@@H]12)C#N	
InChI=1S/C6H8N2O/c7-3-6(8)1-5-4(6)2-9-5/h4-5H,1-2,8H2	InChI=1S/C6H8N2O/c7-3-6(8)1-5-4(6)2-9-5/h4-5H,1-2,8H2/t4-,5-,6-/m1/s1
