17
gdb 100626	1.704	0.96831	0.63516	6.8675	82.21	-0.2678	-0.0819	0.186	1707.5187	0.132603	-414.18909	-414.177113	-414.176169	-414.227809	39.39	
N	 0.0557198659	 2.6996768061	-0.8207351922	-0.718414
C	 0.727065384	-0.3387488005	 0.1822026196	-0.071957
C	 0.960390335	-0.8725898475	-1.197542336	-0.262462
N	-0.0042564338	-0.281600532	-2.1373218006	-0.501551
H	 0.257155747	-0.5235311078	-3.0878413873	 0.245658
H	-0.924576889	-0.6825859235	-1.981663549	 0.244536
H	-0.1006986087	 2.017620394	-1.5632713214	 0.254295
C	 0.7029220993	-1.0884635809	 1.3031614336	 0.029896
C	 0.493082469	-0.4941784068	 2.5906252208	 0.245933
N	 0.3213306515	-0.0211054648	 3.6322752337	-0.319381
C	 0.8862195822	-2.5113929047	 1.2824711321	 0.244005
N	 1.0307667047	-3.6594120477	 1.2587438738	-0.332032
H	 0.6846840296	 3.4060548801	-1.1921151904	 0.236107
H	-0.8309695061	 3.1685377345	-0.6578960778	 0.237786
H	 0.5696792088	 0.7389119831	 0.2526413672	 0.188772
H	 1.9623298693	-0.5425241864	-1.5074186132	 0.145737
H	 0.9752374914	-1.9714083051	-1.1928848229	 0.133072
39.9617	56.5397	79.2516	126.1921	143.7289	146.1025	164.0842	174.1324	206.6518	258.0172	317.459	368.1479	384.622	419.4426	487.6849	532.9134	610.7841	681.8699	760.3594	863.1078	932.7969	1025.7538	1029.823	1106.3402	1123.8874	1166.271	1206.896	1323.2729	1367.0585	1418.4214	1484.8437	1651.3792	1665.0012	1673.5679	1702.1972	2343.0414	2355.0217	3001.1939	3036.6697	3116.9592	3435.5255	3497.8528	3556.8429	3577.0194	3587.1975	39.9614	56.5387	79.2508	126.1919	143.7285	146.1024	164.0837	174.1318	206.6513	258.0166	317.4576	368.1478	384.6219	419.4425	487.6853	532.9134	610.7842	681.8698	760.3594	863.1072	932.7968	1025.754	1029.8229	1106.3403	1123.8874	1166.2715	1206.8963	1323.2732	1367.0594	1418.4218	1484.8444	1651.3794	1665.0017	1673.5681	1702.1975	2343.0409	2355.023	3001.1938	3036.6696	3116.9592	3435.5254	3497.8524	3556.8428	3577.0192	3587.1975
NC(C[NH3+])[C-](C#N)C#N	N.C(=C(C#N)C#N)CN	
InChI=1S/C5H7N4/c6-1-4(2-7)5(9)3-8/h5H,3,8-9H2/q-1/p+1	InChI=1S/C5H5N3.H3N/c6-2-1-5(3-7)4-8;/h1H,2,6H2;1H3
