23
gdb 74843	2.17922	1.67595	1.31343	0.2128	90.89	-0.2162	0.0294	0.2455	1133.6429	0.205307	-351.168625	-351.159359	-351.158415	-351.201638	36.939	
C	 0.1096702532	 1.4834090609	-0.0036655886	-0.49973
C	 0.0100582047	-0.0115663368	-0.011704525	 0.292322
C	-0.1223476775	-0.7890654462	-1.0926077114	-0.195164
C	-0.0822478342	-2.2402324552	-0.7612925357	-0.077484
C	 1.2316889737	-2.7130603759	-0.1678525268	-0.304823
C	 0.1105793724	-2.2841596323	 0.743084097	-0.049714
C	 0.055343958	-0.8436710372	 1.2787119253	 0.194959
C	 1.2583823978	-0.4950512723	 2.1733942487	-0.421936
C	-1.250708382	-0.6498557232	 2.0780047271	-0.425291
H	 1.0798381928	 1.8239797306	 0.379972958	 0.125518
H	-0.0101959236	 1.8908659878	-1.0113474144	 0.121041
H	-0.6548001588	 1.9401803543	 0.637127986	 0.122657
H	-0.1988117901	-0.4197708193	-2.1105028984	 0.083076
H	-0.707286509	-2.9471818587	-1.2960409159	 0.080987
H	 1.4466088331	-3.7767108909	-0.2008727999	 0.1047
H	 2.098866989	-2.0734288985	-0.2950576788	 0.107505
H	-0.365932236	-3.0553397211	 1.3391297712	 0.075117
H	 2.2051089226	-0.6175841791	 1.639424158	 0.112924
H	 1.2036831098	 0.5392076962	 2.5300301013	 0.109022
H	 1.2826263428	-1.1461306754	 3.0538430117	 0.110934
H	-1.2494730293	-1.279709494	 2.9753079207	 0.107333
H	-1.3715166635	 0.3883537715	 2.4040089573	 0.108936
H	-2.1211910759	-0.9198830651	 1.4725322427	 0.11711
120.5356	179.3339	202.7737	227.8996	238.6616	260.5459	272.3811	326.1995	403.7639	428.2834	456.2111	564.7053	612.0852	652.5503	714.3587	793.252	812.7651	857.0915	887.7139	923.7579	941.5	969.3126	992.8895	1013.2264	1033.6097	1039.6574	1063.8855	1068.5125	1072.7491	1104.8701	1162.2472	1176.5587	1198.7341	1231.4296	1252.4142	1309.0476	1354.8472	1372.0632	1391.9776	1411.6068	1420.15	1474.2411	1478.7195	1483.4486	1486.5205	1493.4109	1503.81	1507.3508	1701.1138	3017.8999	3024.1696	3031.1386	3062.6132	3089.497	3094.8857	3105.7117	3106.2524	3108.4178	3121.6542	3157.73	3165.6701	3179.6641	3209.4216
CC1=CC2CC2C1(C)C	CC1=C[C@H]2C[C@H]2C1(C)C	
InChI=1S/C9H14/c1-6-4-7-5-8(7)9(6,2)3/h4,7-8H,5H2,1-3H3	InChI=1S/C9H14/c1-6-4-7-5-8(7)9(6,2)3/h4,7-8H,5H2,1-3H3/t7-,8+/m0/s1
