19
gdb 109062	3.95627	1.21824	1.1137	1.6627	80.42	-0.2218	0.0056	0.2274	1162.287	0.159875	-385.849619	-385.841994	-385.84105	-385.882001	30.296	
C	 0.1108210124	 1.4725224307	 0.275904346	-0.373472
C	-0.0775393188	 0.0050415143	-0.146685405	-0.297768
C	-1.5093896996	-0.4397469848	-0.1410325034	 0.370179
C	-2.2265909135	-0.9214711287	-1.1725529422	-0.226915
C	-3.5167988392	-1.4691284228	-0.6351125909	 0.043975
O	-3.1322963295	-2.6776380507	 0.1690863445	-0.29673
C	-3.1228654329	-1.8680299657	 1.3162841716	 0.100306
C	-3.78783374	-0.6986078825	 0.6925581963	-0.15699
C	-2.3424178661	-0.5128089464	 1.0916214908	-0.200657
H	 1.1698010589	 1.7476883465	 0.2591017428	 0.113739
H	-0.4270804872	 2.1450723981	-0.3993093945	 0.121856
H	-0.2627606227	 1.6499903572	 1.2895046066	 0.117882
H	 0.3426600148	-0.1455780301	-1.1469605433	 0.10443
H	 0.4997652633	-0.6371580421	 0.532687418	 0.111146
H	-1.862771097	-1.1013492951	-2.1762427331	 0.095518
H	-4.3271181285	-1.7148043368	-1.3188132338	 0.081566
H	-3.1792129952	-2.3515203929	 2.284097939	 0.109766
H	-4.6290936771	-0.0746000399	 0.9660847197	 0.097843
H	-2.100839152	 0.0436363016	 1.989699411	 0.084326
63.8904	133.244	206.6705	262.9934	347.5647	426.8416	534.2559	570.5164	644.404	711.1829	727.3639	771.8505	790.4061	795.6518	817.1078	845.7391	879.5003	922.3055	946.145	979.8606	987.6526	1036.8366	1049.4919	1066.1672	1079.3347	1093.7024	1111.7533	1180.7321	1212.9277	1225.5165	1260.6565	1286.6916	1309.0713	1353.771	1357.6077	1385.5577	1408.9947	1476.7328	1498.671	1506.0838	1660.3842	3014.3323	3037.0051	3065.1157	3106.8758	3111.2685	3137.1658	3182.9434	3184.6982	3199.9032	3211.9789
CCC1=CC2OC3C2C13	CCC1=C[C@H]2O[C@@H]3[C@H]2[C@H]13	
InChI=1S/C8H10O/c1-2-4-3-5-7-6(4)8(7)9-5/h3,5-8H,2H2,1H3	InChI=1S/C8H10O/c1-2-4-3-5-7-6(4)8(7)9-5/h3,5-8H,2H2,1H3/t5-,6+,7-,8+/m1/s1
