21
gdb 109467	2.04709	1.55565	0.95007	2.6664	85.19	-0.2348	-0.0153	0.2195	1291.1499	0.18132	-387.138012	-387.128459	-387.127515	-387.172797	35.409	
C	-0.1147288959	 1.5923812038	 0.0441545686	-0.388025
C	-0.0060467974	 0.0649545477	 0.0416421001	-0.180834
C	 0.7020293679	-0.5079650972	-1.2111916729	-0.200096
C	 2.2149859619	-0.2133351016	-1.2091781723	 0.394684
O	 2.7230610294	 0.8785729043	-1.1721137094	-0.3121
C	 2.9768006169	-1.5461980542	-1.2528180428	-0.366734
C	 1.8745261417	-2.560982663	-1.349808832	-0.181039
C	 0.65207113	-2.0189748635	-1.3352766616	 0.320642
C	-0.6437181405	-2.7601481534	-1.4480338007	-0.494424
H	 0.8705372231	 2.0571641907	-0.0283603626	 0.151325
H	-0.7109712173	 1.9418584417	-0.8064214079	 0.110054
H	-0.6014506846	 1.9434242243	 0.9594825401	 0.107351
H	 0.5269464088	-0.278224927	 0.9375092152	 0.100079
H	-1.0095869813	-0.3725880522	 0.0992406855	 0.098692
H	 0.2554195254	-0.0256976369	-2.0944550125	 0.097909
H	 3.6686508627	-1.5529339913	-2.1053086504	 0.133738
H	 3.603283092	-1.6474179541	-0.3563107453	 0.134331
H	 2.0661488742	-3.6252597245	-1.4382833976	 0.091443
H	-0.4768558746	-3.8334234439	-1.5741408798	 0.124811
H	-1.2721174722	-2.618948848	-0.5605715808	 0.131645
H	-1.2299444102	-2.4031126617	-2.3046816208	 0.126547
39.389	104.4738	167.3478	189.3871	216.5065	246.4084	265.2047	286.8266	364.8524	482.4462	522.7869	549.8165	597.0424	682.4925	732.086	806.9322	823.1717	879.4049	939.0798	951.9205	975.743	1030.8801	1037.5348	1056.0398	1090.1706	1108.8804	1145.5125	1157.5091	1192.1292	1257.4875	1271.5805	1289.2903	1329.4455	1344.8667	1362.2039	1412.7086	1415.5033	1447.3385	1478.7513	1487.5353	1491.7211	1497.1031	1513.137	1714.246	1839.1958	2990.4104	3019.41	3020.941	3024.6845	3035.8102	3046.6504	3059.114	3068.7458	3098.3507	3110.0407	3137.7732	3184.1755
CCC1C(=O)CC=C1C	CC[C@H]1C(=O)CC=C1C	
InChI=1S/C8H12O/c1-3-7-6(2)4-5-8(7)9/h4,7H,3,5H2,1-2H3	InChI=1S/C8H12O/c1-3-7-6(2)4-5-8(7)9/h4,7H,3,5H2,1-2H3/t7-/m1/s1
