15
gdb 16875	3.82105	2.07966	1.63815	3.498	60.68	-0.2391	0.0046	0.2437	788.2101	0.120693	-399.803886	-399.797424	-399.79648	-399.834559	24.711	
O	-0.0902774282	-0.0549264655	-0.3490376923	-0.31858
C	-0.0385380124	 1.0620040395	 0.0828200534	 0.389113
C	-1.2018351341	 2.0520849676	 0.0185529588	-0.292703
N	-1.3172782789	 3.0176971726	 1.1115214382	-0.095696
C	-0.9405386867	 2.5504726785	 2.4532906379	-0.257738
C	-0.0377186283	 3.4385856185	 1.675713499	-0.015983
C	 1.2112206943	 2.8843043639	 1.0321530107	-0.109153
O	 1.0960840694	 1.497245556	 0.6928344332	-0.218518
H	-1.1141011459	 2.614284372	-0.9203101663	 0.140845
H	-2.1173689232	 1.4603278004	-0.049651297	 0.149839
H	-1.5378383662	 2.9599344565	 3.2619580947	 0.126678
H	-0.6455571535	 1.5123521925	 2.5844382825	 0.138856
H	 0.031899102	 4.4946351213	 1.9318480129	 0.103739
H	 1.4505646063	 3.4585958335	 0.1263856937	 0.12268
H	 2.0707566856	 2.9517949227	 1.7044855505	 0.13662
100.1644	200.7361	309.4652	352.5219	426.1639	504.419	531.3173	607.8874	729.4736	754.3802	796.8803	828.2633	930.4364	965.5251	1026.8577	1040.8022	1065.8884	1107.3656	1123.7601	1150.3033	1165.4033	1199.0923	1271.0506	1290.1969	1303.4001	1339.3009	1400.5355	1426.5295	1464.2883	1509.2901	1511.3936	1855.8969	3014.4589	3033.3416	3092.107	3112.2342	3114.0103	3121.4784	3201.393
O=C1CN2CC2CO1	O=C1CN2C[C@H]2CO1	
InChI=1S/C5H7NO2/c7-5-2-6-1-4(6)3-8-5/h4H,1-3H2	InChI=1S/C5H7NO2/c7-5-2-6-1-4(6)3-8-5/h4H,1-3H2/t4-,6?/m0/s1
