17
gdb 90270	3.40245	1.58188	1.30469	2.064	67.66	-0.2307	0.0457	0.2763	976.1526	0.135901	-458.885075	-458.877748	-458.876804	-458.916732	28.887	
O	-0.2276829767	 1.4194299027	 0.1197359718	-0.412748
C	-0.0304573865	 0.0308168356	 0.0436739192	 0.076344
C	 0.3379704535	-0.6801045331	 1.4023979632	-0.383416
C	-1.1157161891	-1.100566826	 1.4936512861	 0.435224
O	-1.6920720369	-2.1844174623	 2.1951055397	-0.337589
C	-2.9342862181	-1.4361688961	 2.3791313204	-0.1166
C	-2.3103008867	-0.1652339875	 1.7582489254	 0.000225
O	-2.567409658	 0.0359593883	 0.3538349333	-0.29033
C	-1.4058263134	-0.7389308048	 0.0157132903	 0.033075
H	 0.6304257197	 1.8319335596	 0.2610387284	 0.288467
H	 0.6302444543	-0.2456894135	-0.7877020251	 0.077047
H	 1.0046566944	-1.5331363076	 1.2409960341	 0.116302
H	 0.7406389461	-0.0504777225	 2.2009345371	 0.101599
H	-3.7641436135	-1.8568543925	 1.802713112	 0.118372
H	-3.1979382614	-1.3748491672	 3.440440462	 0.111191
H	-2.3051982161	 0.7602609779	 2.3347603903	 0.097273
H	-1.5647539116	-1.4292127011	-0.8145973983	 0.085564
100.953	199.7042	242.1715	289.3084	348.4862	392.8191	417.8417	495.387	619.584	671.884	795.2202	798.8052	829.5616	847.6698	879.0982	928.9838	967.7388	980.774	1027.4991	1038.7348	1070.99	1106.6189	1125.2297	1149.0686	1157.5202	1170.9725	1198.526	1213.7141	1269.4653	1275.1872	1296.8368	1325.0972	1340.1054	1363.7915	1413.2798	1472.3063	1502.7354	3014.4393	3035.4812	3049.8914	3094.7614	3100.6351	3104.6739	3113.1612	3817.0478
OC1CC23OCC2OC13	O[C@H]1C[C@@]23OC[C@@H]2O[C@@H]13	
InChI=1S/C6H8O3/c7-3-1-6-4(2-8-6)9-5(3)6/h3-5,7H,1-2H2	InChI=1S/C6H8O3/c7-3-1-6-4(2-8-6)9-5(3)6/h3-5,7H,1-2H2/t3-,4-,5-,6+/m0/s1
