18
gdb 125877	3.70419	1.13752	1.06157	2.2991	78.06	-0.2387	0.01	0.2488	1196.2309	0.150202	-398.149468	-398.141484	-398.14054	-398.182548	30.06	
C	-0.1074905315	 1.5287426316	-0.1579975414	-0.416258
C	 0.0087538949	 0.0319760741	 0.0130037382	 0.012331
C	 1.3176969792	-0.677421208	-0.1807445527	-0.30042
C	 0.7218806476	-0.6012573837	 1.2082173453	-0.110067
C	 1.3564024308	 0.1971554228	 2.2710471206	 0.358542
N	 2.2879269684	 1.1213542912	 2.0598076848	-0.286182
N	 2.5415235965	 1.5704169676	 3.3139223591	-0.176219
C	 1.7834416214	 0.9093111128	 4.2081411154	 0.013265
N	 1.018410776	 0.0332079779	 3.5905191632	-0.312278
H	 0.7870423377	 2.0396792392	 0.2062516367	 0.140716
H	-0.2384477476	 1.7847121975	-1.2153411883	 0.112423
H	-0.969863045	 1.9241172407	 0.390327239	 0.11364
H	-0.8730867275	-0.5218232583	-0.2997211408	 0.08632
H	 1.3325066712	-1.6433896006	-0.6736796419	 0.108343
H	 2.1941263233	-0.0629599798	-0.3569707461	 0.131512
H	 0.2592988902	-1.498730938	 1.6023956506	 0.099382
H	 3.2317951446	 2.2881174994	 3.4598504031	 0.280495
H	 1.8239928198	 1.0942366938	 5.2712566552	 0.144454
51.6693	128.856	179.2494	217.3415	284.7933	355.5152	436.3814	489.9771	524.0249	670.7345	677.4824	759.6344	798.8628	853.3208	859.5518	886.7646	937.8286	988.6887	996.676	1033.5621	1076.1375	1084.2764	1102.2596	1118.1074	1149.0795	1183.0121	1203.9881	1226.6205	1254.6663	1316.3485	1386.0143	1406.6532	1425.6814	1472.5909	1484.4436	1499.2072	1501.874	1519.2761	1554.6274	3030.7459	3087.0375	3118.8688	3133.0401	3139.4517	3178.6659	3222.8159	3256.4242	3668.0692
CC1CC1C1=NNC=N1	C[C@H]1C[C@H]1c1n[nH]cn1	
InChI=1S/C6H9N3/c1-4-2-5(4)6-7-3-8-9-6/h3-5H,2H2,1H3,(H,7,8,9)	InChI=1S/C6H9N3/c1-4-2-5(4)6-7-3-8-9-6/h3-5H,2H2,1H3,(H,7,8,9)/t4-,5+/m0/s1
