18
gdb 110381	2.65596	1.66995	1.37857	1.3835	70.51	-0.2324	0.0423	0.2747	986.9101	0.148669	-438.977133	-438.969522	-438.968578	-439.009163	29.76	
O	 0.3839683953	 0.813934675	 1.1814435869	-0.410591
C	 0.1263661743	 0.028720381	 0.0237238535	-0.123681
C	-1.2679941441	-0.5856470755	 0.0151797796	-0.028592
C	-1.6671738682	-1.969567297	-0.3029296444	-0.084761
C	-0.8329663941	-3.0807538887	 0.3663736948	 0.10524
O	 0.585061128	-2.8621492855	 0.5484142829	-0.304046
C	 0.3626932831	-2.3422981348	 1.8985331781	-0.121156
C	-1.1579186063	-2.4494659845	 1.7133377715	-0.020971
N	-1.9830856995	-1.3448560794	 1.0730929392	-0.181634
H	-0.371213503	 1.3931889964	 1.3292693538	 0.28722
H	 0.2016261756	 0.6412495672	-0.8887876623	 0.090048
H	 0.9068232496	-0.724747177	-0.0243189556	 0.155207
H	-1.9988578682	 0.1291154635	-0.3698461325	 0.103346
H	-2.4615943543	-2.1866756456	-1.0124962612	 0.095474
H	-1.0734369191	-4.1029489019	 0.0674958197	 0.090138
H	 0.753709308	-3.0442401808	 2.6449588278	 0.105051
H	 0.78663476	-1.3494795922	 2.0593184173	 0.14834
H	-1.7458140273	-2.9276754503	 2.4943817109	 0.09537
110.1338	135.7325	255.0171	264.0028	293.5925	341.4791	404.1968	561.6391	632.6185	660.0676	692.9968	725.1955	854.8632	872.2296	899.0813	916.5325	920.9649	970.7869	993.4324	1033.7083	1043.3929	1063.3544	1084.0012	1096.6641	1127.1689	1176.5113	1209.0582	1223.7313	1241.5504	1276.7023	1298.132	1317.5998	1349.2826	1352.7876	1370.5741	1420.4308	1452.6071	1522.5225	1537.8513	2977.7442	3030.0729	3077.5916	3089.6345	3120.9342	3130.7881	3141.3498	3180.8562	3806.91
OCC1C2C3OCC3N12	OC[C@H]1[C@H]2[C@H]3OC[C@H]3N12	
InChI=1S/C6H9NO2/c8-1-3-5-6-4(2-9-6)7(3)5/h3-6,8H,1-2H2	InChI=1S/C6H9NO2/c8-1-3-5-6-4(2-9-6)7(3)5/h3-6,8H,1-2H2/t3-,4+,5-,6-,7?/m0/s1
