21
gdb 61845	3.83457	0.78069	0.68794	1.0597	79.32	-0.2516	-0.0257	0.2259	1619.8107	0.180347	-424.214227	-424.204231	-424.203287	-424.250667	34.891	
C	-0.0541492662	 1.542641864	-0.1589832038	-0.402106
C	-0.020119801	 0.0206660092	 0.0418710682	-0.01334
C	 0.7478314977	-0.3573628261	 1.327702248	-0.280914
C	 2.2170192728	-0.011434554	 1.243493467	 0.159002
O	 2.8155214782	 0.6772205625	 2.0284934899	-0.238858
C	-1.4322118476	-0.5630073028	 0.0661940836	-0.011927
C	-2.2407360495	-0.5456969342	-1.252638964	-0.094908
O	-2.4022843607	-1.9774294646	-1.2283485143	-0.27053
C	-1.5899689087	-2.0976535833	-0.0447878556	-0.094351
H	 0.9537774911	 1.9657665001	-0.2108521403	 0.129529
H	-0.5743683278	 1.8082396258	-1.0844792715	 0.121965
H	-0.5741113681	 2.0327481517	 0.6720818902	 0.123626
H	 0.510021921	-0.4304326994	-0.8109146436	 0.080685
H	 0.3202383088	 0.1349640018	 2.2070954001	 0.119597
H	 0.6841056061	-1.4449087249	 1.4795198154	 0.119632
H	 2.7374016064	-0.4574619928	 0.3618470385	 0.071391
H	-1.9899731314	-0.1405003185	 0.9079458671	 0.080744
H	-3.2041150165	-0.0229975818	-1.2312105891	 0.10482
H	-1.6766519989	-0.2122615669	-2.1352338922	 0.097281
H	-0.6567399709	-2.6448311734	-0.2433479793	 0.093546
H	-2.1242438248	-2.5979392126	 0.7715045757	 0.105114
51.2163	57.3779	83.7773	104.8048	149.1442	227.2616	234.2134	291.0218	373.3441	410.403	447.2793	534.0006	744.7386	790.6891	864.8234	893.7111	910.1867	949.8379	977.6587	991.3652	1016.4429	1033.6791	1047.9748	1089.2186	1133.3642	1153.4016	1162.4818	1166.7928	1199.1707	1231.5494	1267.5205	1278.5581	1312.781	1323.3577	1362.803	1378.005	1404.1772	1417.4891	1431.1505	1461.0433	1496.2886	1500.2459	1510.9388	1536.5333	1835.9836	2843.8249	2987.7031	2990.8758	3004.2182	3009.7326	3032.5018	3042.6243	3049.8959	3066.9956	3089.2021	3100.3453	3107.5598
CC(CC=O)C1COC1	C[C@@H](CC=O)C1COC1	
InChI=1S/C7H12O2/c1-6(2-3-8)7-4-9-5-7/h3,6-7H,2,4-5H2,1H3	InChI=1S/C7H12O2/c1-6(2-3-8)7-4-9-5-7/h3,6-7H,2,4-5H2,1H3/t6-/m0/s1
