16
gdb 25635	3.68229	0.95687	0.76381	1.5442	85.78	-0.1802	0.0229	0.2031	1455.5661	0.124088	-400.760463	-400.7514	-400.750456	-400.795725	32.377	
C	-0.0018806716	 1.4765387407	 0.0058664024	-0.510636
C	-0.0000983157	 0.0216302008	-0.0149883858	 0.234342
C	-0.0091038446	-1.1866511143	-0.0392907406	-0.194921
C	-0.0020268907	-2.5970219492	-0.0622993493	 0.100187
C	 1.1171239675	-3.3970529328	-0.0169860118	 0.272349
N	 2.4619730392	-3.0984199631	-0.0236715316	-0.606842
O	 0.7849749438	-4.7019086635	-0.0421602061	-0.172217
C	-0.593114826	-4.7660005649	-0.1060943404	-0.029873
C	-1.1144738317	-3.5214712943	-0.1278152999	-0.295552
H	 0.6957049992	 1.8912853828	-0.7312327929	 0.144801
H	-0.9974142825	 1.8693627696	-0.2299464546	 0.149576
H	 0.2815803222	 1.8715635077	 0.9887714452	 0.142728
H	 2.6399268426	-2.1353775667	 0.2278999072	 0.26355
H	 3.0298595531	-3.7431806364	 0.5101585127	 0.257944
H	-1.0060994046	-5.7591807949	-0.1261461218	 0.133866
H	-2.1585879501	-3.2564250915	-0.1746710829	 0.110695
21.4877	81.6752	106.8846	230.0951	258.9405	279.4403	291.1667	387.5888	467.6786	486.6403	557.2979	605.038	649.1184	675.4318	724.5688	756.2345	827.2829	903.2039	967.403	1031.0173	1050.7586	1053.3414	1077.6785	1167.0807	1185.8628	1301.6859	1343.8719	1414.1066	1475.5307	1479.7005	1480.3305	1573.1556	1611.6217	1665.1351	2347.4997	3018.5733	3072.8347	3082.4024	3262.8991	3300.4332	3545.925	3649.7969
CC#CC1=C(N)OC=C1	CC#Cc1c(N)occ1	
InChI=1S/C7H7NO/c1-2-3-6-4-5-9-7(6)8/h4-5H,8H2,1H3	InChI=1S/C7H7NO/c1-2-3-6-4-5-9-7(6)8/h4-5H,8H2,1H3
