21
gdb 119526	4.05186	0.98825	0.89094	0.9639	84.54	-0.2258	0.0235	0.2492	1382.6268	0.182723	-387.076834	-387.068072	-387.067128	-387.11061	33.261	
C	-0.0529799799	 1.3696380473	-0.1809891597	-0.219731
O	-0.0417827994	-0.035256889	-0.2399227211	-0.236268
C	-1.2766730222	-0.6109377004	 0.14475127	-0.165069
C	-1.1433682556	-2.1057746237	 0.1218309492	 0.356045
C	-1.3709217698	-2.8424781237	-1.1732454225	-0.310705
C	-2.3596467864	-3.0120596415	-0.0344212224	-0.136426
C	-2.0996208768	-4.176412755	 0.8612877284	-0.070779
C	-0.9214075102	-4.0703950314	 1.4804298152	-0.085566
C	-0.2189103618	-2.7702854189	 1.1485768225	-0.32409
H	 0.9370396328	 1.7194239551	-0.4841306086	 0.125503
H	-0.8052266219	 1.8033649855	-0.8599017412	 0.100413
H	-0.263052296	 1.7367863984	 0.8367933438	 0.100918
H	-1.5505769166	-0.2656756605	 1.1578411527	 0.082045
H	-2.0812187039	-0.2844824696	-0.537034835	 0.078675
H	-1.680890144	-2.2436349418	-2.0240928271	 0.108472
H	-0.7351776547	-3.6870538594	-1.4185373763	 0.110039
H	-3.3640496609	-2.6172923256	-0.1493044001	 0.082797
H	-2.7843609426	-5.0125074052	 0.9474193005	 0.093365
H	-0.4856581222	-4.8181029185	 2.1335871432	 0.091096
H	 0.7922119075	-2.9277438021	 0.7546697228	 0.116288
H	-0.1019014253	-2.1382023099	 2.0404181559	 0.102977
67.6126	102.3374	122.1243	224.7465	251.8187	322.77	345.5185	378.5395	411.4877	494.4468	674.2055	728.7056	750.9311	782.5321	867.7908	891.0486	932.2114	942.0546	958.1394	979.2619	989.1057	1008.8715	1034.7017	1062.0382	1070.4623	1083.5831	1141.9099	1150.4756	1172.8925	1183.605	1223.1407	1236.7708	1254.0258	1290.7405	1331.3945	1368.0673	1392.8722	1430.3989	1472.0826	1481.1212	1484.6152	1486.5987	1504.0716	1523.3984	1668.9971	2937.4203	2964.904	2968.0447	3005.5858	3007.9527	3052.2764	3111.2138	3121.5941	3157.738	3184.8915	3209.5766	3210.8707
COCC12CC1C=CC2	COC[C@]12C[C@H]1C=CC2	
InChI=1S/C8H12O/c1-9-6-8-4-2-3-7(8)5-8/h2-3,7H,4-6H2,1H3	InChI=1S/C8H12O/c1-9-6-8-4-2-3-7(8)5-8/h2-3,7H,4-6H2,1H3/t7-,8+/m1/s1
