22
gdb 103510	2.73088	1.30422	1.25395	1.4271	86.8	-0.2299	0.0152	0.2451	1172.7153	0.194705	-367.199141	-367.190239	-367.189295	-367.232317	35.154	
C	 0.1467512055	 1.5596807987	 0.0013701436	-0.397299
C	 0.0013088404	 0.0351153962	 0.061125317	-0.195688
C	-1.4473150378	-0.5094448469	 0.0221914575	 0.263907
C	-2.2529568913	-0.0616796586	 1.2572073472	-0.434272
C	-2.1942112139	-0.1418315099	-1.2572010319	-0.110982
C	-2.6568721624	-1.2027189037	-1.9217272884	-0.069812
C	-2.2349419088	-2.4645573493	-1.2482983904	-0.089785
N	-0.7480006624	-2.6153621281	-1.2228118119	-0.339666
C	-1.4520189797	-2.0467697327	-0.0557061084	-0.089604
H	 1.2040179304	 1.8414004468	 0.0345478427	 0.112363
H	-0.2696860928	 1.9711905398	-0.9237509566	 0.116099
H	-0.3484928558	 2.0580857998	 0.8408868363	 0.112841
H	 0.5459698139	-0.4193956244	-0.7715171636	 0.121277
H	 0.4747033507	-0.3325106085	 0.9818703101	 0.083921
H	-2.4153834448	 1.0199487542	 1.2609149363	 0.116434
H	-3.2355570575	-0.5434704878	 1.2725812939	 0.11556
H	-1.7264253311	-0.3257325286	 2.1823211717	 0.10751
H	-2.3175539232	 0.8894754627	-1.5691563514	 0.093278
H	-3.2232235071	-1.1771722496	-2.8452206234	 0.095357
H	-2.8461341952	-3.3603476458	-1.2755817874	 0.086381
H	-0.5239474168	-3.5874299503	-1.0137669557	 0.22467
H	-1.4654658205	-2.6143794538	 0.8701978628	 0.077511
77.521	152.0656	185.6011	224.904	254.1472	283.2005	341.7651	374.5372	406.9166	469.6506	586.9055	615.7692	736.9296	768.7227	783.3971	801.9539	842.9731	859.9131	909.1478	926.0994	929.3622	962.6686	979.9397	1007.3302	1019.1423	1062.0153	1082.0213	1105.6143	1142.433	1155.335	1190.2904	1205.6593	1232.3821	1256.8063	1313.0334	1326.5425	1364.5662	1390.7258	1399.2096	1411.9944	1416.6748	1484.3082	1492.5295	1498.9679	1507.0441	1509.0863	1663.4942	3013.5585	3025.6088	3036.6334	3081.9004	3094.2574	3100.7138	3106.2016	3111.7699	3147.7007	3168.0918	3186.2846	3211.5158	3470.2914
CCC1(C)C=CC2NC12	CC[C@@]1(C)C=C[C@H]2N[C@@H]12	
InChI=1S/C8H13N/c1-3-8(2)5-4-6-7(8)9-6/h4-7,9H,3H2,1-2H3	InChI=1S/C8H13N/c1-3-8(2)5-4-6-7(8)9-6/h4-7,9H,3H2,1-2H3/t6-,7-,8+/m1/s1
