16
gdb 76074	2.13079	1.6171	1.19062	2.9305	70.33	-0.2636	-0.0038	0.2598	1073.5501	0.123141	-434.09267	-434.08325	-434.082305	-434.127164	33.3	
C	 0.1606989954	 1.3644859008	 0.3149445633	-0.414233
C	-0.0782434563	-0.089480529	-0.0119283404	 0.010218
C	 0.6150389893	-0.7690410317	-1.1803058609	-0.212004
C	 1.5521332261	-0.027039582	-1.9881092564	 0.308977
N	 2.3002099062	 0.538522811	-2.6650864961	-0.332709
N	 0.9193214654	-1.1076179266	 0.2101567618	-0.126975
C	 2.1378080942	-0.8625379847	 0.8878136684	 0.430044
N	 3.2176657041	-1.4437082747	 0.2918447422	-0.5274
O	 2.1796181481	-0.2432145332	 1.928370309	-0.371709
H	 1.1463238746	 1.7010539051	-0.012766146	 0.151548
H	-0.5989667385	 1.9790001265	-0.1775767136	 0.126929
H	 0.0962833748	 1.5172956269	 1.3941913723	 0.158798
H	-1.0912404649	-0.4402993735	 0.1798702701	 0.115291
H	 0.0882649855	-1.5429278281	-1.733852308	 0.141942
H	 3.1166852138	-2.0927870626	-0.4684228313	 0.267824
H	 4.0786527923	-1.4440516642	 0.8114555856	 0.273459
62.9109	100.8854	150.2139	170.9271	187.1895	192.4696	265.853	357.0842	397.6604	472.5999	506.0932	556.8958	601.5065	654.3181	714.075	789.3912	817.1133	859.832	978.7092	1035.0441	1049.4053	1097.1474	1108.9508	1161.5525	1179.4759	1287.3292	1362.284	1394.2392	1414.0106	1427.4483	1483.2308	1489.2128	1616.8102	1810.5127	2352.6021	3053.934	3115.946	3130.0675	3136.9582	3145.7136	3617.0501	3747.9942
CC1C(C#N)N1C(N)=O	C[C@H]1[C@@H](C#N)N1C(=O)N	
InChI=1S/C5H7N3O/c1-3-4(2-6)8(3)5(7)9/h3-4H,1H3,(H2,7,9)	InChI=1S/C5H7N3O/c1-3-4(2-6)8(3)5(7)9/h3-4H,1H3,(H2,7,9)/t3-,4+,8?/m0/s1
