16
gdb 85766	3.01408	1.22585	0.91982	1.9391	68.02	-0.2545	-0.0379	0.2166	1225.4273	0.12237	-475.071392	-475.06206	-475.061116	-475.106562	32.051	
C	-0.0086873407	 1.497452376	-0.0126230481	-0.483006
C	 0.0635558835	-0.010811089	-0.0133472049	 0.38705
O	 1.0840241912	-0.660060152	-0.0382807583	-0.324077
N	-1.1701211929	-0.6632309441	 0.0097180343	-0.149817
C	-1.4515537831	-2.1115973913	 0.0341041301	-0.179233
C	-2.9636926051	-1.7618020868	 0.0333691274	-0.023817
O	-3.6440024677	-2.2363421497	 1.1632998494	-0.420431
C	-2.5117568648	-0.2781326052	 0.0846781097	 0.397083
O	-3.0475080921	 0.7902581411	 0.1849066855	-0.355274
H	 1.0047062923	 1.8945864839	 0.0371041158	 0.145406
H	-0.5050206213	 1.8527684952	-0.9210320396	 0.155783
H	-0.6069100542	 1.8573111984	 0.8285003943	 0.161758
H	-1.0718950244	-2.6448808986	-0.8384468252	 0.135635
H	-1.1236143208	-2.5966646876	 0.9549953924	 0.146485
H	-3.4733240438	-2.0134275596	-0.9068323416	 0.103895
H	-4.469045036	-1.7441267308	 1.2418289986	 0.30256
53.071	70.9452	113.2385	151.9695	185.0771	198.6315	296.545	345.0187	394.4693	434.9898	586.6689	607.0416	627.7609	766.735	792.9751	878.8538	948.7119	972.2516	1047.6623	1060.2641	1135.145	1147.4981	1165.3934	1192.0423	1216.0029	1304.4156	1312.8805	1365.2244	1400.3637	1421.9687	1454.2758	1474.6379	1508.9278	1800.5984	1881.0702	3015.1831	3056.6013	3084.8866	3121.9063	3145.828	3168.5171	3808.0669
CC(=O)N1CC(O)C1=O	CC(=O)N1C[C@@H](O)C1=O	
InChI=1S/C5H7NO3/c1-3(7)6-2-4(8)5(6)9/h4,8H,2H2,1H3	InChI=1S/C5H7NO3/c1-3(7)6-2-4(8)5(6)9/h4,8H,2H2,1H3/t4-/m1/s1
