15
gdb 17143	4.3015	1.95202	1.59778	1.3452	72.17	-0.2437	0.0307	0.2744	810.2308	0.118925	-325.390954	-325.384553	-325.383609	-325.421257	25.594	
C	 0.0154326987	-1.1901390637	 0.0005397039	-0.357614
C	-0.0131724314	 0.012877294	 0.0224750623	 0.039518
C	-0.0501648112	 1.4471495943	 0.0529427382	 0.254438
C	-0.7291184896	 2.4128471497	 1.0274323239	-0.230023
N	-0.086180097	 3.4084743592	 0.0733481602	-0.178058
C	 1.1394371548	 2.4689969249	-0.0723536257	-0.037997
C	 1.0702282104	 2.5342252982	-1.5990417746	-0.260652
C	-0.377627181	 2.4519609489	-1.1124529679	-0.037997
H	 0.0405912922	-2.2517162243	-0.018627303	 0.184626
H	-1.8230133896	 2.4480337459	 1.0288397299	 0.1074
H	-0.336745486	 2.4647245738	 2.0478236091	 0.107399
H	 1.9909370735	 2.5581081868	 0.6043199031	 0.091259
H	 1.3691831294	 3.4831015571	-2.0506323493	 0.113345
H	 1.456852828	 1.6739066815	-2.1488721856	 0.113098
H	-1.3169745912	 2.5209611537	-1.6635840045	 0.091259
137.7144	169.264	379.1722	406.4691	500.5863	515.3967	549.3163	629.8425	654.8812	715.0327	783.3607	866.0714	875.6416	899.5864	907.3291	927.4815	1011.9934	1013.0846	1057.1979	1079.8519	1117.1438	1120.7151	1143.4368	1181.6806	1197.5891	1225.464	1249.1994	1279.6332	1319.8014	1485.3275	1516.6971	2226.2085	3041.7087	3066.5169	3102.9205	3104.4803	3108.9505	3135.9621	3499.5364
C#CC12CN3C1CC23	C#C[C@@]12CN3[C@@H]1C[C@@H]23	
InChI=1S/C7H7N/c1-2-7-4-8-5(7)3-6(7)8/h1,5-6H,3-4H2	InChI=1S/C7H7N/c1-2-7-4-8-5(7)3-6(7)8/h1,5-6H,3-4H2/t5-,6+,7-
