21
gdb 62108	3.61199	0.67464	0.597	3.2583	80.45	-0.2492	-0.0206	0.2287	1836.9743	0.179564	-424.216504	-424.20619	-424.205246	-424.253304	36.018	
C	-0.0509878678	 1.7587745711	 0.0629514207	-0.402806
C	 0.0426894434	 0.2299743723	-0.042237471	-0.00817
C	-1.3299363721	-0.4675962812	 0.0184752337	-0.194665
C	-2.0659756326	-0.3011029605	 1.3594718472	-0.286779
C	-3.3057746507	-1.1646754291	 1.4193167878	 0.159602
O	-4.4197990959	-0.7622022368	 1.6335510284	-0.237037
C	 0.7498483138	-0.1605277205	-1.3240110044	 0.093932
C	 2.1848202978	-0.463675036	-1.3743337379	-0.184045
O	 1.2110372692	-1.5101344532	-1.4164845675	-0.244411
H	 0.9407243351	 2.2174033149	-0.0014913466	 0.119468
H	-0.663369495	 2.1710790253	-0.7474692128	 0.11995
H	-0.5003928508	 2.0703390442	 1.0094438815	 0.124868
H	 0.650465193	-0.1488564097	 0.7908251032	 0.077164
H	-1.9662332564	-0.0901903695	-0.7933388268	 0.107113
H	-1.1743846178	-1.5355754935	-0.1767163893	 0.122326
H	-1.4011336585	-0.6250708051	 2.174404311	 0.117706
H	-2.36051364	 0.7339477969	 1.5499451945	 0.123227
H	-3.1143943669	-2.2489405574	 1.2365655441	 0.072815
H	 0.2789606905	 0.2063689901	-2.2398028131	 0.090344
H	 2.7446222911	-0.3082591775	-2.2954726378	 0.116535
H	 2.7748126205	-0.4133193249	-0.4596990851	 0.112862
54.938	55.6275	82.8935	107.4255	146.7368	210.0305	227.4777	297.5978	301.8317	369.5596	479.1364	493.7836	536.8118	767.9594	801.2054	852.0208	865.0337	889.6128	954.9899	964.9397	991.6882	1018.7861	1061.611	1090.0838	1133.1525	1156.1144	1159.7142	1168.9064	1192.7863	1219.4846	1259.8666	1293.6966	1306.4509	1312.4844	1360.6064	1383.6005	1410.519	1429.5349	1447.896	1464.6426	1491.3785	1500.6033	1502.9499	1529.7798	1836.9041	2851.25	3005.1348	3012.9809	3022.3325	3033.5161	3062.511	3077.442	3082.5277	3099.1273	3105.6556	3116.3766	3167.6387
CC(CCC=O)C1CO1	C[C@@H](CCC=O)[C@H]1CO1	
InChI=1S/C7H12O2/c1-6(3-2-4-8)7-5-9-7/h4,6-7H,2-3,5H2,1H3	InChI=1S/C7H12O2/c1-6(3-2-4-8)7-5-9-7/h4,6-7H,2-3,5H2,1H3/t6-,7+/m0/s1
