16
gdb 105858	2.10704	1.67192	1.25636	3.7405	65.18	-0.2385	-0.0056	0.2329	1055.1858	0.122749	-474.985274	-474.976466	-474.975522	-475.01908	31.557	
C	 0.1087298771	 1.3696955628	-0.1949781862	-0.264617
O	-0.1953708693	 0.0003518366	 0.0780776386	-0.269869
C	 0.5375865281	-0.5216509014	 1.1019902245	 0.211549
C	 2.0036835083	-0.9682773852	 0.9763377011	-0.074691
N	 3.0800083357	-0.4595375835	 1.7774683235	-0.524776
C	 0.9529995179	-1.9521629534	 1.4030709907	-0.029213
O	 0.6900467262	-1.7548586506	 2.8223595606	-0.273161
C	 0.1706792912	-0.4823047147	 2.5728320956	 0.396396
O	-0.3768260998	 0.2381163544	 3.339214276	-0.325802
H	 1.1659652218	 1.4934204469	-0.4609763847	 0.126631
H	-0.5183215165	 1.6627065216	-1.0384879901	 0.135767
H	-0.1214414761	 2.002971292	 0.6693500168	 0.142381
H	 2.261364341	-1.0564186775	-0.0777939424	 0.121773
H	 2.8374731661	-0.5198637024	 2.762841066	 0.252093
H	 3.9025768325	-1.0430587708	 1.6507753082	 0.238926
H	 0.6455521359	-2.8939791348	 0.9696620519	 0.136613
72.4926	128.996	151.4313	162.1339	196.9496	264.5889	296.5671	360.0122	450.7982	500.4682	636.4481	667.1235	722.8577	790.3486	808.5249	876.7649	914.1599	944.8947	982.4012	1017.7784	1045.6645	1056.5878	1139.506	1179.3061	1200.2372	1218.2772	1250.286	1268.8752	1366.6714	1458.5338	1486.6623	1501.724	1505.6831	1665.0551	1942.5836	3016.1881	3083.6727	3139.8734	3141.8664	3217.1972	3486.9865	3563.4015
COC12C(N)C1OC2=O	CO[C@]12[C@@H](N)[C@H]1OC2=O	
InChI=1S/C5H7NO3/c1-8-5-2(6)3(5)9-4(5)7/h2-3H,6H2,1H3	InChI=1S/C5H7NO3/c1-8-5-2(6)3(5)9-4(5)7/h2-3H,6H2,1H3/t2-,3+,5+/m0/s1
