23
gdb 92163	2.15055	1.94581	1.42649	0.2662	87.95	-0.2451	0.0873	0.3324	1063.3134	0.207667	-351.147899	-351.13967	-351.138726	-351.179909	33.874	
C	-0.2759413237	 1.5280901151	 0.0353362673	-0.40531
C	 0.014382804	 0.0232620351	-0.0326214103	-0.037871
C	 0.7522903763	-0.4498246102	-1.3231869485	-0.231658
C	 2.1407925559	-0.8938991811	-0.8428469985	-0.043329
C	 2.9173717188	 0.3028939835	-0.2066161652	-0.245068
C	 2.3709310218	-0.1205798875	 1.1564428788	-0.102928
C	 1.9248828409	-1.4648457392	 0.589757661	-0.131122
C	 0.8937383918	-0.5062354552	 1.1111964696	 0.375154
C	 0.2385664288	-0.7659316142	 2.4487148635	-0.495231
H	 0.6411050862	 2.1216524344	-0.0234169106	 0.120153
H	-0.9304587493	 1.8394822767	-0.7858008545	 0.108402
H	-0.778519043	 1.7900835712	 0.9730018003	 0.109964
H	-0.9508126029	-0.4961239854	 0.0327323157	 0.061928
H	 0.2206918625	-1.2933737897	-1.7775864625	 0.090396
H	 0.8155418194	 0.3393553064	-2.0807602756	 0.090441
H	 2.6980212158	-1.4951602539	-1.5616253214	 0.061297
H	 3.9988355238	 0.1449119403	-0.2537098261	 0.096525
H	 2.6942713809	 1.3075647041	-0.5831719688	 0.08503
H	 2.8433878174	 0.0799581324	 2.1123925199	 0.072949
H	 2.0951740213	-2.4723817415	 0.9477950049	 0.076433
H	 0.9466835926	-1.1966061572	 3.1642201967	 0.113813
H	-0.1525311804	 0.1580716406	 2.8904073646	 0.117018
H	-0.6001600989	-1.4650055547	 2.3483984198	 0.113015
145.4437	205.935	213.2468	237.4949	279.6731	308.6853	379.9472	385.9017	512.555	565.9581	638.4319	658.617	776.6274	822.7256	837.0633	852.2405	866.8223	895.563	926.6722	944.911	978.0724	1003.7689	1018.1331	1028.9453	1055.4747	1057.9532	1090.062	1099.5663	1134.5556	1143.6315	1175.6894	1204.6853	1233.7726	1246.5633	1261.4641	1275.2489	1304.7244	1329.5078	1344.4966	1371.1918	1410.694	1415.9581	1418.9431	1486.8417	1491.0409	1495.631	1499.6262	1502.6664	1511.1349	3004.3685	3020.609	3030.6296	3032.0448	3036.3207	3072.5181	3078.0642	3083.3577	3091.3061	3094.2939	3105.92	3112.8254	3158.6029	3189.6694
CC1CC2CC3C2C13C	C[C@H]1C[C@H]2C[C@@H]3[C@H]2[C@]13C	
InChI=1S/C9H14/c1-5-3-6-4-7-8(6)9(5,7)2/h5-8H,3-4H2,1-2H3	InChI=1S/C9H14/c1-5-3-6-4-7-8(6)9(5,7)2/h5-8H,3-4H2,1-2H3/t5-,6-,7+,8-,9+/m0/s1
