19
gdb 39965	4.76027	0.97131	0.94451	1.0515	75.33	-0.2478	0.0619	0.3097	1280.5652	0.1585	-422.966145	-422.958003	-422.957058	-422.999762	30.779	
C	-0.7302341527	 1.3343729121	-0.0509884297	-0.267373
O	 0.7064017267	 1.3252898374	-0.0406597152	-0.270666
C	 0.0314516197	 0.0856527778	-0.0080509146	 0.470518
C	 0.1317319538	-0.9441380756	 1.1192121117	-0.391875
C	-0.1297630314	-2.0463496857	 0.0550303663	 0.30094
C	 0.5281734765	-3.4354192835	 0.1014652219	-0.139262
O	-0.752279755	-4.0986053175	 0.1124568693	-0.273159
C	-1.4532569463	-2.8406685942	 0.0696855442	-0.123084
C	 0.1470542448	-1.0100639818	-1.0697887576	-0.391874
H	-1.1996243695	 1.7159492339	 0.8551710695	 0.116614
H	-1.1867450771	 1.6605330005	-0.984942416	 0.116614
H	 1.1480824433	-0.9961398329	 1.523809419	 0.116874
H	-0.5770406195	-0.8684667741	 1.9482441007	 0.109281
H	 1.1247234039	-3.7046059026	-0.7805880714	 0.100932
H	 1.1121953777	-3.6508007224	 1.0063856652	 0.100931
H	-2.0858913703	-2.6923470848	 0.9552142541	 0.099216
H	-2.0733958377	-2.7461477085	-0.8319128696	 0.099217
H	-0.5500205376	-0.9847166627	-1.9117049904	 0.109281
H	 1.1689428006	-1.0858907354	-1.4562673775	 0.116874
48.834	58.9005	223.9953	286.2553	308.4989	331.8623	380.2838	417.1116	431.4265	641.1649	805.7166	832.0189	857.8735	867.246	870.3959	897.6806	910.6646	963.1346	980.51	992.8363	1041.0463	1069.9811	1126.2916	1142.5363	1145.7193	1149.4186	1157.7337	1168.3051	1193.3947	1212.7154	1242.1704	1255.5671	1295.5102	1308.6145	1382.4395	1435.9637	1459.8553	1483.1338	1506.4634	1531.8001	1538.0673	2992.3225	3004.5965	3039.7295	3040.9967	3044.7274	3049.9537	3078.3885	3102.0353	3102.1125	3165.5077
C1OC11CC2(COC2)C1	C1OC21CC1(COC1)C2	
InChI=1S/C7H10O2/c1-6(3-8-4-6)2-7(1)5-9-7/h1-5H2	InChI=1S/C7H10O2/c1-6(3-8-4-6)2-7(1)5-9-7/h1-5H2
