21
gdb 115531	2.42705	1.13993	0.99471	0.9976	85.43	-0.2536	0.0368	0.2903	1337.0066	0.1799	-387.049422	-387.039334	-387.03839	-387.084219	37.944	
C	 0.0929767196	 1.5592471259	 0.1453981287	-0.386453
C	-0.0876844497	 0.0466720787	-0.0231635311	-0.194654
C	 0.6904862719	-0.5030501407	-1.2096456427	 0.024883
C	 2.2453325861	-0.5366488659	-1.1860103933	-0.247125
C	 2.1920832881	-1.9095080407	-1.9048416385	-0.266915
C	 0.701975972	-2.0514381684	-1.4510055188	 0.192439
O	 0.5963762835	-2.6983324133	-0.186803171	-0.465028
C	-0.2466658219	-2.6059408127	-2.4076081941	 0.272571
C	-1.0147270385	-3.0834889601	-3.2011862869	-0.457738
H	 1.1454846977	 1.8205824222	 0.3006256345	 0.116586
H	-0.2552900775	 2.1040956551	-0.7394419748	 0.111487
H	-0.470383995	 1.9298067051	 1.0073734551	 0.112228
H	 0.2296656692	-0.474260996	 0.8855604648	 0.113105
H	-1.1519997806	-0.1861370794	-0.1545899134	 0.100348
H	 0.3523533032	-0.024044166	-2.1350269372	 0.0795
H	 2.7736506538	 0.2726818364	-1.6931530922	 0.097328
H	 2.6284517882	-0.6269438696	-0.1662213223	 0.110965
H	 2.2757135824	-1.8194141541	-2.9903631216	 0.110157
H	 2.8583062012	-2.7007389303	-1.5530590258	 0.098921
H	 0.6540992257	-3.6473810143	-0.3418015639	 0.282827
H	-1.6991004093	-3.4978696518	-3.8996341855	 0.194569
76.0201	97.7516	147.0163	158.2629	196.2018	227.4639	280.4017	300.5453	362.5104	384.6345	460.5189	522.3348	585.1655	599.4571	623.8701	656.504	735.5748	761.4084	801.0692	912.8669	932.4725	935.9928	963.0783	993.9042	1010.896	1056.7185	1122.2244	1131.5028	1159.6501	1195.5381	1217.4249	1253.8067	1263.495	1287.8969	1291.5028	1342.5041	1358.4042	1393.6086	1412.6869	1467.3145	1486.3151	1494.1875	1500.4582	1508.4898	2225.7314	3028.6036	3031.5552	3046.5574	3063.1771	3068.302	3076.8618	3100.0386	3102.1884	3114.508	3130.5247	3500.7366	3808.3965
CCC1CCC1(O)C#C	CC[C@H]1CC[C@]1(O)C#C	
InChI=1S/C8H12O/c1-3-7-5-6-8(7,9)4-2/h2,7,9H,3,5-6H2,1H3	InChI=1S/C8H12O/c1-3-7-5-6-8(7,9)4-2/h2,7,9H,3,5-6H2,1H3/t7-,8+/m0/s1
