27
gdb 86537	3.03641	0.9621	0.91232	0.0322	95.7	-0.2774	0.0736	0.351	1512.8143	0.25048	-353.562674	-353.551878	-353.550933	-353.597669	42.111	
C	-0.71224279	 0.9315209563	-0.8154187334	-0.411546
C	 0.2261109906	-0.1778132099	-0.3639675206	 0.074528
C	 1.4997792603	-0.4544312434	-1.2131045662	-0.266388
C	 2.3609400155	-0.4918268047	 0.0887315377	 0.039785
C	 1.1379913713	 0.0865917155	 0.8682445288	-0.266405
C	 2.9287281831	-1.8588016534	 0.5426621473	 0.254435
C	 4.002608196	-2.30380591	-0.4685761397	-0.404001
C	 3.5872563159	-1.6818533636	 1.9242941339	-0.404031
C	 1.8464380443	-2.9505291619	 0.6384974232	-0.412143
H	-0.166328835	 1.8705946818	-0.9646858367	 0.108209
H	-1.2035025076	 0.6790076124	-1.7621801715	 0.111078
H	-1.4969673115	 1.1180729053	-0.0732186076	 0.111078
H	-0.3440072982	-1.1022146775	-0.2227825618	 0.067358
H	 1.490067205	-1.3537834665	-1.8348439367	 0.092818
H	 1.7609356413	 0.3925464707	-1.8556492673	 0.090443
H	 3.2069065787	 0.2034607037	 0.0550346002	 0.05905
H	 1.2509458555	 1.1550900374	 1.0779820146	 0.090444
H	 0.8578871968	-0.4084559919	 1.8020227043	 0.092818
H	 4.8049512825	-1.561417821	-0.5438690396	 0.10586
H	 4.4554605379	-3.2543788031	-0.1656493756	 0.10517
H	 3.5805839318	-2.4419784175	-1.4693804992	 0.110404
H	 2.8604956394	-1.3640523283	 2.6790208069	 0.1104
H	 4.0331544106	-2.6216008248	 2.2684956683	 0.105174
H	 4.382587603	-0.9290376056	 1.8884653312	 0.105866
H	 1.3625074682	-3.1307940328	-0.3266174882	 0.111384
H	 2.2905645111	-3.8983151865	 0.9618001002	 0.106831
H	 1.0691190436	-2.6914971107	 1.3642949273	 0.111379
69.3574	102.9444	180.396	221.8342	236.394	244.7764	272.2589	272.8714	300.4855	303.2517	377.6582	388.0404	410.4309	466.2602	472.666	669.5105	690.1803	802.8051	839.7249	876.7601	906.6786	932.0099	934.1952	944.8075	958.8234	962.47	990.2662	1022.5059	1034.8122	1077.4194	1102.2133	1135.709	1145.2526	1215.1033	1227.9334	1240.6545	1246.0341	1274.9872	1283.0817	1284.7474	1295.6221	1361.5757	1378.4769	1397.1094	1401.3497	1409.0999	1431.972	1469.2999	1482.8358	1485.6176	1487.4735	1492.9443	1496.9707	1499.5959	1506.6318	1512.4437	1518.1308	3018.8902	3022.3536	3025.0441	3028.6128	3035.0807	3040.8756	3042.3715	3051.5356	3085.2316	3086.6399	3088.2629	3090.0202	3090.8868	3095.3187	3096.3042	3096.7587	3101.2178	3107.3578
CC1CC(C1)C(C)(C)C	C[C@H]1C[C@@H](C1)C(C)(C)C	
InChI=1S/C9H18/c1-7-5-8(6-7)9(2,3)4/h7-8H,5-6H2,1-4H3	InChI=1S/C9H18/c1-7-5-8(6-7)9(2,3)4/h7-8H,5-6H2,1-4H3/t7-,8-
