14
gdb 25893	4.1403	1.1222	0.88366	13.5434	66.88	-0.19	-0.0151	0.1749	1209.3316	0.101767	-470.04628	-470.038209	-470.037264	-470.07917	29.606	
N	-0.0938083276	 1.3563051415	 0.1265236939	-0.59874
C	 0.0079113157	-0.0052723633	 0.027515057	 0.498444
N	-0.9777482794	-0.8913662512	 0.0243897587	-0.27369
H	-2.0111829728	-0.8876467735	 0.0291481786	 0.295926
C	-0.4834808702	-2.1890254144	 0.0008907649	 0.170493
C	 0.865649059	-2.0807716413	-0.0144714602	-0.199361
N	 1.1598254367	-0.7054449952	 0.0036439308	-0.303325
C	-1.6054133286	-3.2611535061	-0.0169318807	 0.34085
O	-2.7254771983	-2.6898887284	-0.0001832407	-0.515235
O	-1.2419045935	-4.4326516344	-0.0452866038	-0.442255
H	 0.6176392589	 1.8909353839	-0.3508228028	 0.278521
H	-1.0213791038	 1.7214274125	-0.0335910113	 0.28812
H	 1.6406575137	-2.8248398364	-0.0453131336	 0.176214
H	 2.0790880201	-0.2960596736	 0.0507212492	 0.284037
102.535	129.9072	140.1878	198.5881	307.0918	342.1148	386.5546	519.9803	540.3835	565.9472	608.9792	692.3575	730.5682	743.2235	767.5958	805.0451	865.3444	920.5898	1002.8417	1038.3378	1109.0357	1148.004	1210.16	1286.3816	1311.5897	1394.3393	1554.278	1607.4011	1641.5503	1686.9866	1805.808	3299.1313	3310.6325	3574.1648	3649.265	3673.5114
NC1=[NH+]C(=CN1)C([O-])=O	N[C@@H]1NC(=CN1)C(=O)[O]	
InChI=1S/C4H5N3O2/c5-4-6-1-2(7-4)3(8)9/h1H,(H,8,9)(H3,5,6,7)	InChI=1S/C4H6N3O2/c5-4-6-1-2(7-4)3(8)9/h1,4,6-7H,5H2/t4-/m0/s1
