18
gdb 69201	2.76491	1.56223	1.1752	5.6121	80.	-0.2063	-0.0212	0.1851	1076.3696	0.1489	-401.980037	-401.972041	-401.971097	-402.012146	31.553	
C	 0.0100486053	 1.5152329718	 0.0081626933	-0.461901
C	 0.0127969467	 0.004432515	 0.0127238436	 0.338765
C	-0.8497773047	-0.7558501039	 0.9861585014	-0.332221
C	 0.6628703252	-0.7603666027	 1.1553882591	-0.193417
C	 1.4434972509	-2.0192161221	 0.8732177248	 0.394823
O	 2.119615892	-2.5322500855	 1.7515845961	-0.373505
C	 1.3475628133	-2.5254969892	-0.4856313429	-0.263144
C	 0.7579546812	-1.7982125559	-1.4679755454	 0.033231
N	 0.2178864212	-0.5629970892	-1.2938443052	-0.347106
H	 0.9579083747	 1.9078130775	-0.3731478659	 0.132969
H	-0.8000504014	 1.9067355681	-0.6201410208	 0.115968
H	-0.142465149	 1.9019538563	 1.018800633	 0.131304
H	-1.4285214312	-0.1882283353	 1.7058661483	 0.122013
H	-1.3140686328	-1.6746838658	 0.6451313334	 0.126759
H	 1.0634428399	-0.1845674904	 1.9828336356	 0.106526
H	 1.8194230748	-3.4715344988	-0.7152951541	 0.099476
H	 0.7179279761	-2.1643279821	-2.4898673684	 0.122098
H	-0.3308660021	-0.1757787278	-2.0446514758	 0.247362
122.0652	162.394	220.868	269.779	320.9296	366.1843	415.5459	441.1519	487.4267	517.8287	542.2376	673.1038	725.5987	752.9941	811.7036	849.5215	894.2029	930.4054	942.8162	977.0184	999.1822	1045.7505	1056.1249	1102.9173	1112.7015	1123.9212	1234.754	1245.2266	1255.1171	1332.5148	1382.0497	1421.4459	1424.3621	1474.339	1485.8448	1500.4187	1533.701	1658.136	1746.3708	3025.195	3090.3176	3122.9788	3135.8788	3171.8536	3174.0758	3223.715	3227.2134	3629.4906
CC12CC1C(=O)C=CN2	C[C@]12C[C@H]1C(=O)C=CN2	
InChI=1S/C7H9NO/c1-7-4-5(7)6(9)2-3-8-7/h2-3,5,8H,4H2,1H3	InChI=1S/C7H9NO/c1-7-4-5(7)6(9)2-3-8-7/h2-3,5,8H,4H2,1H3/t5-,7-/m0/s1
