21
gdb 106781	1.95671	1.71252	1.17023	1.6507	79.61	-0.216	0.0758	0.2919	1165.9727	0.180267	-424.182312	-424.17261	-424.171666	-424.216518	36.552	
C	-1.005856955	-1.2723162279	-0.4347111457	-0.264507
O	 0.0800112704	-0.4502009662	-0.0486154422	-0.283551
C	 0.7396870081	-0.8096016171	 1.1054053991	 0.405957
C	 0.118686786	-1.3762423117	 2.3626880615	-0.431819
C	 1.2663151913	-2.1187260521	 1.693773901	 0.312015
O	 1.1334686504	-3.4186108291	 1.2310012979	-0.465497
C	 2.593808089	-1.4507893305	 2.0509180683	-0.303663
C	 2.0546173147	-0.1021853662	 1.4491107971	-0.038636
C	 2.8380197825	 0.4036885751	 0.2441306464	-0.403464
H	-1.8572704429	-1.1705483084	 0.2529680132	 0.11055
H	-1.3148875743	-0.9331412978	-1.425823851	 0.126732
H	-0.7136322125	-2.3281944331	-0.4850897026	 0.136104
H	 0.2305002207	-0.8879612684	 3.3310048125	 0.097327
H	-0.8397358839	-1.8640151061	 2.2132969745	 0.110694
H	 1.0155693647	-4.0023858254	 1.9895726846	 0.282841
H	 2.8705028181	-1.4448665307	 3.1115322511	 0.085329
H	 3.426330593	-1.8452359578	 1.4625458133	 0.10568
H	 1.9359953613	 0.6999236291	 2.1874057011	 0.06546
H	 2.9622326085	-0.3859752554	-0.5040968817	 0.120028
H	 2.3215631092	 1.2380302614	-0.238944198	 0.124573
H	 3.8329614007	 0.7442460082	 0.5498862494	 0.107848
72.9434	122.0286	155.156	196.9473	225.4582	232.3087	276.9691	325.7268	376.9091	405.0465	437.8328	474.4607	569.3414	605.2949	699.6676	738.7007	816.5801	851.1956	906.5938	932.3939	973.4876	1028.1496	1043.7992	1062.5664	1080.7573	1110.4903	1163.9394	1180.2196	1188.6816	1218.2953	1223.6068	1252.5526	1262.8022	1292.5604	1327.1862	1367.1189	1403.9543	1409.9964	1475.4577	1483.5268	1489.4773	1490.3419	1498.2582	1511.5639	1521.8812	2998.2	3026.0765	3033.3909	3036.2898	3064.6461	3081.574	3099.2632	3103.319	3112.427	3123.1373	3192.5378	3775.0358
COC12CC1(O)CC2C	CO[C@@]12C[C@]1(O)C[C@H]2C	
InChI=1S/C7H12O2/c1-5-3-6(8)4-7(5,6)9-2/h5,8H,3-4H2,1-2H3	InChI=1S/C7H12O2/c1-5-3-6(8)4-7(5,6)9-2/h5,8H,3-4H2,1-2H3/t5-,6-,7-/m1/s1
