16
gdb 48513	3.40279	1.66192	1.4475	3.0996	72.09	-0.2318	-0.0385	0.1933	916.1255	0.124942	-400.655166	-400.648522	-400.647578	-400.686471	26.255	
O	-0.8395187513	 1.0166707064	 0.6345888031	-0.251154
C	 0.2292443491	 0.8375748817	 0.1030314101	 0.0152
C	 1.3096162862	 1.8502335654	 0.0668851946	 0.318643
C	 1.5179046283	 3.0924816415	 0.9494504165	-0.183983
C	 2.2692264255	 3.6973697902	-0.2252966091	-0.083047
C	 2.9766491673	 2.7874241442	 0.782740857	-0.015816
N	 2.7913966571	 1.4128634927	 0.216194808	-0.194884
C	 2.978816276	 1.5985839211	-1.2720291524	-0.187428
C	 1.8229686034	 2.6121659043	-1.2300284669	-0.123592
H	 0.4706613379	-0.1164872001	-0.4166549769	 0.081242
H	 0.9479396379	 3.5226204524	 1.7595578268	 0.11467
H	 2.5403687322	 4.7271737499	-0.4100678905	 0.099663
H	 3.8336793291	 3.0632887348	 1.3817671312	 0.101688
H	 3.9720160419	 1.9417099819	-1.5754220866	 0.108525
H	 2.7288752077	 0.6685141255	-1.7899961543	 0.112836
H	 1.1901621417	 2.8844038079	-2.0735386804	 0.087436
81.903	160.4216	238.3883	370.6769	491.0655	557.6194	667.2815	732.8843	783.552	786.8088	818.1671	822.0414	846.9602	865.576	911.9139	925.256	956.1722	987.9584	1016.5837	1035.4212	1036.8492	1057.4481	1075.8988	1098.6676	1145.8672	1183.9356	1185.3047	1220.5055	1251.9807	1286.582	1318.0685	1359.3027	1420.1711	1499.9028	1808.2059	2882.9153	3054.651	3113.9958	3129.3831	3207.4104	3216.6576	3232.7796
O=CC12C3C4C3N1CC24	O=C[C@@]12[C@@H]3[C@H]4[C@@H]3N1C[C@@H]24	
InChI=1S/C7H7NO/c9-2-7-3-1-8(7)6-4(3)5(6)7/h2-6H,1H2	InChI=1S/C7H7NO/c9-2-7-3-1-8(7)6-4(3)5(6)7/h2-6H,1H2/t3-,4+,5-,6+,7-/m1/s1
