14
gdb 8131	4.26186	1.91049	1.55176	5.1135	57.25	-0.2798	0.0384	0.3182	814.4053	0.107011	-419.713251	-419.706602	-419.705658	-419.743968	25.213	
C	-0.0083155064	 1.5065766756	-0.0466814888	-0.470123
C	 0.0431677093	 0.0117953176	 0.0469245326	 0.39358
C	-0.8391141952	-0.8362995538	 0.9351152027	-0.375227
C	 0.6609245166	-0.8337538206	 1.1162795142	 0.02702
O	 1.3686099588	-1.8558922786	 0.4489950004	-0.241584
C	 1.2095702678	-1.7100448202	-0.8993681374	 0.483353
O	 1.6691756033	-2.4358537598	-1.719186134	-0.363862
O	 0.4302711121	-0.6233569072	-1.1652306458	-0.274924
H	 0.9476788328	 1.9057086075	-0.3978398495	 0.141312
H	-0.7923139614	 1.8232641689	-0.7412325788	 0.144944
H	-0.2279950458	 1.9374952971	 0.9338238709	 0.129643
H	-1.4186769897	-0.3133871935	 1.6880662349	 0.13265
H	-1.3050879522	-1.7221471197	 0.5169755037	 0.143869
H	 1.15847288	-0.479314663	 2.0095103451	 0.129348
144.1003	192.777	230.5074	296.5553	402.6262	475.8573	518.7228	619.71	716.6296	772.9043	783.4455	841.9634	862.8388	928.5604	964.1844	996.8924	1022.2258	1042.525	1088.0981	1128.6198	1141.6295	1149.509	1262.5753	1318.6234	1399.4229	1428.3949	1475.335	1479.3553	1501.6393	1931.4218	3044.1737	3115.0805	3124.2117	3136.2898	3203.0684	3232.0126
CC12CC1OC(=O)O2	C[C@]12C[C@H]1OC(=O)O2	
InChI=1S/C5H6O3/c1-5-2-3(5)7-4(6)8-5/h3H,2H2,1H3	InChI=1S/C5H6O3/c1-5-2-3(5)7-4(6)8-5/h3H,2H2,1H3/t3-,5+/m1/s1
