21
gdb 112565	2.61695	1.2316	1.08126	3.2535	75.48	-0.2399	0.0652	0.3051	1248.1996	0.178955	-461.339174	-461.328707	-461.327763	-461.374232	38.4	
C	 0.1682450266	 1.3575517848	 0.0627611688	-0.233507
O	-0.244793662	 0.0602628444	-0.297180523	-0.246416
C	 0.5528933743	-0.5353522797	-1.2906751763	 0.081538
C	 1.8712351981	-1.1781411199	-0.7622085659	-0.322042
C	 1.1427658391	-2.5543239239	-0.6514150935	 0.37071
C	 1.8772701171	-3.805549607	-1.1014958964	-0.461494
O	 0.5457972136	-2.7388068422	 0.6260750223	-0.481203
C	 0.018595833	-1.9731161456	-1.5737814233	 0.117317
O	-1.3052629138	-2.269479186	-1.279616877	-0.427213
H	 1.1789616074	 1.3686218642	 0.4978598111	 0.103843
H	 0.1607226645	 2.0373284988	-0.8036103972	 0.106237
H	-0.5383608732	 1.7274076144	 0.8097414581	 0.128236
H	 0.6510685092	 0.1373022478	-2.1551395965	 0.058281
H	 2.672279223	-1.1749544577	-1.5069217917	 0.099251
H	 2.25500167	-0.7738503267	 0.1780915224	 0.097479
H	 2.710979913	-4.0373346843	-0.4266523379	 0.104117
H	 1.194784237	-4.6609001039	-1.1045303416	 0.133717
H	 2.2895337317	-3.6835872034	-2.1084958736	 0.111714
H	 1.248923563	-2.8091330361	 1.279933445	 0.277473
H	 0.1976176359	-2.2499263654	-2.6171354614	 0.083552
H	-1.4297110775	-2.0268675126	-0.3533955724	 0.298413
76.5125	109.4609	139.2289	186.1995	198.9086	221.2196	235.7795	251.9065	320.2393	349.1356	368.8638	401.224	428.013	547.8438	604.887	715.2619	759.5072	821.7632	866.2439	913.8145	951.9557	964.4557	1013.5826	1091.7684	1102.706	1146.8367	1164.7294	1182.2201	1189.5943	1200.1763	1214.1583	1231.093	1273.4158	1308.0507	1317.6549	1370.6514	1381.3291	1405.1665	1441.6358	1462.5011	1481.6044	1486.7985	1487.9379	1492.5774	1509.4672	2974.3107	2991.8504	3021.3836	3021.6663	3054.921	3070.1981	3087.4696	3110.6855	3113.9591	3114.3936	3791.0128	3812.1609
COC1CC(C)(O)C1O	CO[C@H]1C[C@@](C)(O)[C@H]1O	
InChI=1S/C6H12O3/c1-6(8)3-4(9-2)5(6)7/h4-5,7-8H,3H2,1-2H3	InChI=1S/C6H12O3/c1-6(8)3-4(9-2)5(6)7/h4-5,7-8H,3H2,1-2H3/t4-,5-,6+/m0/s1
