22
gdb 104587	2.23346	1.18601	0.99686	3.2307	82.98	-0.2372	0.0343	0.2715	1356.5934	0.192148	-404.379622	-404.369017	-404.368073	-404.416111	38.319	
C	 0.4879111335	 0.0034774952	 1.5143648754	-0.383819
C	 0.0567485604	-0.1501269616	 0.0522521165	-0.235962
C	-1.3536032571	-0.6974615002	-0.1119765213	 0.376085
C	-1.7020068347	-1.4654784995	-1.3586346461	-0.278185
C	-1.5873694198	-2.1877104826	-0.0377421454	-0.326214
N	-2.4033783369	 0.1183311987	 0.4468840903	-0.36883
C	-2.8115587224	 1.2951639743	-0.1247513249	 0.400742
C	-3.8476064176	 2.0724685712	 0.6766272573	-0.488148
O	-2.3794436829	 1.6950161073	-1.1895426377	-0.371721
H	 1.5007450252	 0.4112077373	 1.5839930679	 0.115738
H	-0.1787377207	 0.6847296904	 2.053470279	 0.109224
H	 0.4773135873	-0.9592720028	 2.0376109892	 0.110997
H	 0.1069087098	 0.8160560482	-0.4614714176	 0.128694
H	 0.7506633468	-0.8199461783	-0.4688688369	 0.091969
H	-2.6913369205	-1.317076356	-1.7726302427	 0.124189
H	-0.9202383853	-1.6057931983	-2.0964285134	 0.117045
H	-0.7250617087	-2.8225761978	 0.1352346677	 0.114866
H	-2.502948443	-2.5379280996	 0.4270367793	 0.108271
H	-2.7252619329	-0.0994625264	 1.3761111079	 0.241875
H	-4.3373866376	 1.477925765	 1.452663497	 0.111601
H	-3.3617390643	 2.9316970053	 1.1498674988	 0.14931
H	-4.6008162785	 2.46002045	-0.0119576501	 0.152272
52.6937	56.7943	82.2899	112.8037	156.3681	224.9218	233.6756	307.2231	342.9546	409.8555	414.9083	450.5504	510.2734	607.066	641.1878	740.439	771.1795	799.4262	888.2965	913.814	925.9832	969.5871	1004.996	1020.0901	1036.7123	1049.9171	1056.3701	1078.3956	1086.0765	1127.8189	1186.8096	1258.7531	1273.9093	1299.8399	1349.5702	1379.2863	1392.3241	1408.0403	1461.3155	1469.4526	1483.6537	1485.5435	1500.3402	1500.9038	1507.719	1514.1376	1782.1525	3031.9792	3036.7377	3046.4838	3074.6236	3102.0179	3106.6187	3115.619	3129.8635	3141.1154	3148.4094	3213.1972	3238.56	3631.5184
CCC1(CC1)NC(C)=O	CCC1(CC1)NC(=O)C	
InChI=1S/C7H13NO/c1-3-7(4-5-7)8-6(2)9/h3-5H2,1-2H3,(H,8,9)	InChI=1S/C7H13NO/c1-3-7(4-5-7)8-6(2)9/h3-5H2,1-2H3,(H,8,9)
