18
gdb 71260	2.33947	2.07091	1.67821	2.5015	70.35	-0.221	0.0559	0.2769	894.6364	0.14874	-439.020646	-439.013212	-439.012268	-439.052003	30.456	
O	-0.2257864581	 1.3510169041	-0.1211670464	-0.492703
C	-0.0414510949	-0.03185845	-0.0517086817	 0.297795
C	 0.4342311118	-0.7751748805	 1.2241000907	-0.325144
C	-0.3719145223	-1.9224730327	 0.6110758482	-0.041179
N	 0.0444958437	-2.141380668	-0.8812553269	-0.155589
C	-1.3858030621	-1.7883102557	-1.2615297768	-0.249789
C	-1.3719641224	-0.9112951582	-0.01676854	 0.378827
O	-2.4550681059	-0.3289320118	 0.6123975401	-0.493301
C	 0.7070754227	-0.818681346	-1.1354874036	-0.208182
H	 0.4258523675	 1.7869457585	 0.4364252402	 0.291717
H	 1.5086143787	-0.879300032	 1.4015110472	 0.097194
H	-0.077304834	-0.4171820702	 2.1216678549	 0.114122
H	-0.6296701015	-2.8474190093	 1.1209200681	 0.087116
H	-1.5060331196	-1.3599408355	-2.2616450829	 0.099119
H	-2.0301632895	-2.6644502072	-1.1489416421	 0.110913
H	-2.3310504985	 0.6284943381	 0.546352297	 0.287468
H	 0.5150063634	-0.4789098816	-2.1553133026	 0.108015
H	 1.7877544111	-0.8782074122	-0.9762976835	 0.0936
132.6597	208.2841	233.8624	343.438	387.1476	396.5961	464.3607	511.4873	522.1763	604.2774	645.7882	688.2868	716.7549	795.7371	851.4334	874.4746	912.5535	939.0191	968.0819	985.1492	1044.378	1079.0689	1085.1508	1122.5401	1138.8869	1162.6691	1179.9358	1196.007	1225.4817	1229.0023	1253.729	1269.7832	1310.1696	1323.0072	1366.4527	1395.247	1482.3334	1505.486	1531.6238	3046.3776	3050.5491	3057.8186	3106.2076	3114.1503	3117.8062	3148.7031	3736.1471	3828.9257
OC12CC3N(CC13O)C2	O[C@@]12C[C@@H]3N(C[C@]13O)C2	
InChI=1S/C6H9NO2/c8-5-1-4-6(5,9)3-7(4)2-5/h4,8-9H,1-3H2	InChI=1S/C6H9NO2/c8-5-1-4-6(5,9)3-7(4)2-5/h4,8-9H,1-3H2/t4-,5+,6+/m0/s1
