16
gdb 54673	2.75559	1.55062	0.99433	4.8301	75.82	-0.1849	-0.0002	0.1848	1122.7029	0.126724	-434.118195	-434.110243	-434.109299	-434.150483	31.378	
N	-0.0023640245	 1.4076046809	-0.0749189527	-0.557952
C	 0.0500816035	 0.0226404167	-0.077974235	 0.279975
N	 1.1353337818	-0.6756099271	-0.1557087302	-0.585411
H	 0.5435612148	-2.36599971	-0.0232258744	 0.313469
H	 1.9781424624	-0.104546707	-0.1577392561	 0.202636
C	-1.2163002076	-0.6912479805	-0.0363188223	 0.161764
C	-2.5194880493	-0.2137084772	-0.0520024417	-0.195285
N	-3.3511944848	-1.2828663473	 0.0227746356	-0.245807
C	-2.6294519066	-2.4655284437	 0.0798423933	-0.183088
H	-3.1142762145	-3.4241565293	 0.1411852294	 0.123938
C	-1.2972814374	-2.1257369106	 0.0399412322	 0.245509
O	-0.2454096467	-2.9579665022	 0.0683490331	-0.441085
H	 0.8668171007	 1.8770595789	 0.1330388034	 0.244818
H	-0.7944165625	 1.8210159504	 0.3933804443	 0.25148
H	-2.908373589	 0.7879205057	-0.1431410902	 0.12058
H	-4.3538065002	-1.2302062479	 0.0066190114	 0.264459
84.4407	179.3363	222.3293	316.9022	357.0323	389.6698	442.8146	465.1529	519.3563	541.4644	615.2923	626.9151	654.8713	667.1513	728.4271	733.6794	765.8002	793.0468	799.4877	903.567	1070.3223	1075.1693	1124.2748	1144.3651	1194.338	1260.0628	1332.7074	1343.4826	1460.7811	1489.6571	1520.9075	1562.8361	1622.3994	1653.1957	1706.255	3255.5112	3282.548	3288.1443	3492.7661	3569.3977	3675.6302	3693.8409
NC(=[NH2+])C1=CN[CH-]C1=O	NC(=N)c1c[nH]cc1O	
InChI=1S/C5H6N3O/c6-5(7)3-1-8-2-4(3)9/h1-2,8H,(H3,6,7)/q-1/p+1	InChI=1S/C5H7N3O/c6-5(7)3-1-8-2-4(3)9/h1-2,8-9H,(H3,6,7)
