16
gdb 106445	2.74641	1.35425	1.08107	3.9589	69.73	-0.2701	0.012	0.2821	1114.8201	0.123564	-437.82179	-437.813639	-437.812695	-437.854856	30.305	
O	 0.0151162256	 1.3851499935	-0.0513143727	-0.406479
C	 0.0157272591	-0.0259445815	 0.0145210896	-0.197668
C	-1.3841661955	-0.5527328399	 0.137885459	 0.387342
C	-2.515657048	-0.1988924237	 1.1364452989	-0.263645
C	-3.1101925267	-1.0176230855	-0.0284619676	 0.048988
O	-2.3149371156	-0.2137005967	-0.9761390156	-0.340441
C	-1.9230579021	-2.0232609535	 0.0882698795	-0.221965
C	-1.593340564	-2.8215964058	-1.0783008451	 0.282222
N	-1.3181442323	-3.486655697	-1.9825182854	-0.321328
H	-0.5453693528	 1.6324520333	-0.7962197692	 0.300341
H	 0.4922985536	-0.485766512	-0.8645888647	 0.122518
H	 0.5958694627	-0.3078187225	 0.8993983933	 0.125443
H	-2.4873567677	-0.6469575497	 2.132293397	 0.107796
H	-2.7952733639	 0.8529838463	 1.1432420314	 0.12933
H	-4.1448288698	-1.2317276339	-0.2903908271	 0.122131
H	-1.8540488426	-2.6051554513	 1.010114939	 0.125413
79.3495	113.9172	170.1712	193.5774	298.4299	370.4093	402.5551	428.979	493.6327	568.0902	643.3351	700.4206	751.1393	789.5345	874.1302	901.9957	936.3918	971.7087	1024.2867	1060.9248	1075.4934	1091.4634	1102.2193	1117.0278	1185.5126	1208.0128	1222.4085	1244.4068	1322.8189	1362.1222	1388.6572	1432.8048	1488.9743	1496.8211	2361.3247	2997.8751	3075.4141	3082.2481	3095.1698	3142.728	3172.5872	3799.116
OCC12CC(O1)C2C#N	OC[C@@]12C[C@@H](O1)[C@H]2C#N	
InChI=1S/C6H7NO2/c7-2-4-5-1-6(4,3-8)9-5/h4-5,8H,1,3H2	InChI=1S/C6H7NO2/c7-2-4-5-1-6(4,3-8)9-5/h4-5,8H,1,3H2/t4-,5-,6-/m1/s1
