21
gdb 113317	2.50328	1.03537	0.83584	3.2082	85.03	-0.2656	0.019	0.2846	1479.0763	0.181614	-383.273863	-383.263585	-383.262641	-383.309503	36.967	
C	-0.0815137946	 1.4812589017	-0.4133156101	-0.380338
C	-0.015003964	 0.1220671465	 0.2942436014	-0.197803
C	-1.3626511523	-0.5634254632	 0.2992407263	-0.040574
N	-1.75704855	-1.310480732	-0.8992596918	-0.355979
C	-1.5605200621	-2.0542094164	 0.3677865621	 0.154837
C	-0.4307598989	-3.073791441	 0.3930098914	-0.248734
C	-0.799525609	-4.3749427831	-0.3272858027	-0.391567
C	-2.7612711651	-2.4766595133	 1.0621174029	 0.246625
N	-3.7209481614	-2.8241974887	 1.6077957211	-0.348407
H	 0.8963012482	 1.9711824805	-0.4121037058	 0.118868
H	-0.3993948051	 1.3591500457	-1.4532563367	 0.132466
H	-0.792194701	 2.1529881853	 0.080446196	 0.117718
H	 0.7222827894	-0.5124226108	-0.2046601506	 0.112007
H	 0.3191323367	 0.2532893127	 1.3308919638	 0.108112
H	-2.1465195559	 0.0138016351	 0.7896160545	 0.103377
H	-2.7465257425	-1.1938680282	-1.1015829035	 0.249095
H	 0.4439288708	-2.6254002459	-0.0832001535	 0.116389
H	-0.1633061334	-3.2770980973	 1.4365401299	 0.114188
H	 0.0383771481	-5.0773716428	-0.3071392404	 0.118425
H	-1.6585373176	-4.8621040473	 0.1445485709	 0.138443
H	-1.0526371202	-4.1747268076	-1.3726657951	 0.132851
65.4497	80.3716	131.5065	140.7079	159.2707	215.974	240.3222	264.9294	306.2109	368.1216	434.455	488.1364	588.1626	637.0038	663.3843	763.5058	789.7381	828.5213	893.2603	936.4231	960.1918	1006.9753	1029.9718	1072.2335	1090.2877	1111.9604	1120.3339	1139.4318	1235.7697	1255.5365	1304.3392	1316.2278	1326.3697	1349.7672	1373.3893	1409.3875	1411.8845	1462.5808	1470.3566	1481.4402	1498.5409	1498.8498	1507.3464	1508.8236	2342.1169	3036.2889	3037.2706	3042.2769	3046.2196	3086.3658	3101.0043	3105.9642	3114.8518	3116.8722	3117.9434	3123.3593	3511.4203
CCC1NC1(CC)C#N	CC[C@H]1N[C@]1(CC)C#N	
InChI=1S/C7H12N2/c1-3-6-7(4-2,5-8)9-6/h6,9H,3-4H2,1-2H3	InChI=1S/C7H12N2/c1-3-6-7(4-2,5-8)9-6/h6,9H,3-4H2,1-2H3/t6-,7-/m1/s1
