21
gdb 95766	2.00428	1.69674	0.97999	0.3678	82.32	-0.2271	0.0216	0.2487	1242.8404	0.181513	-424.235321	-424.225565	-424.224621	-424.269726	36.161	
C	 0.1566204528	 1.5340795417	-0.0103820785	-0.485061
C	-0.0295941064	 0.0398624585	 0.0157980946	 0.163974
C	-1.1997361258	-0.6102782426	-0.0516592458	 0.214665
C	-2.5608885151	 0.0317729726	-0.1103178445	-0.481729
C	-1.2188010051	-2.1270005855	-0.0348631059	 0.012208
O	-2.1865462773	-2.5722491087	-0.986970743	-0.429652
C	 0.1604963992	-2.6931071275	-0.3760288768	-0.116676
O	 1.1563948332	-2.0882827381	 0.4190296287	-0.243167
C	 1.2799239623	-0.7113590033	 0.1302210494	-0.145168
H	 0.9105075515	 1.8117329018	-0.7585577357	 0.124938
H	-0.7570773206	 2.078082105	-0.2493617124	 0.128727
H	 0.5286823495	 1.9027306088	 0.9547587933	 0.125885
H	-2.5240707655	 1.1166445607	-0.0071731041	 0.113197
H	-3.0672603284	-0.2157448842	-1.0479650358	 0.144275
H	-3.1982076783	-0.358455039	 0.6935991253	 0.119627
H	-1.5096177674	-2.4644136819	 0.9750526465	 0.075714
H	-2.3264269654	-3.5136003344	-0.845205907	 0.285824
H	 0.2075629473	-3.7693767153	-0.1768774489	 0.092257
H	 0.3446511548	-2.5324805178	-1.4507635318	 0.094659
H	 1.8608050298	-0.5676021922	-0.8011658829	 0.093753
H	 1.8820176449	-0.2836115686	 0.9418725651	 0.111747
90.3228	104.1454	136.9987	149.0109	247.2118	270.2784	298.6829	314.2845	343.5401	415.9978	422.1768	455.4198	499.102	583.4034	640.4717	737.4484	868.7158	956.0764	961.0866	1002.0528	1024.6431	1052.7158	1070.45	1083.773	1088.231	1148.2957	1160.3008	1175.6763	1231.2857	1246.0553	1274.5163	1308.9169	1340.801	1377.9464	1402.6036	1413.494	1416.2001	1435.2678	1476.3075	1480.1613	1485.7061	1488.2759	1499.2404	1501.8816	1745.409	2921.0952	2946.2133	2979.9523	3016.3342	3030.632	3039.1862	3057.6858	3067.1005	3088.4927	3133.6484	3147.2484	3822.9398
CC1=C(C)C(O)COC1	CC1=C(C)[C@@H](O)COC1	
InChI=1S/C7H12O2/c1-5-3-9-4-7(8)6(5)2/h7-8H,3-4H2,1-2H3	InChI=1S/C7H12O2/c1-5-3-9-4-7(8)6(5)2/h7-8H,3-4H2,1-2H3/t7-/m0/s1
