20
gdb 96687	4.28192	0.60523	0.54306	3.4391	80.54	-0.2504	-0.0256	0.2248	2010.6837	0.166642	-440.30017	-440.288959	-440.288015	-440.33903	36.932	
C	 0.1060621524	 1.5107975688	 0.0887636773	-0.326939
N	 0.0533415359	 0.0651752568	 0.0510559853	-0.286574
C	 0.5593267514	-0.5732049475	-0.9164740725	 0.407062
C	 1.2686786292	-0.0546173965	-2.1470164219	-0.488283
O	 0.5081132863	-1.9302341745	-0.9443375929	-0.254209
C	-0.1229377395	-2.5672589285	 0.1667853502	-0.05937
C	-0.0578780293	-4.071656774	-0.0850966525	-0.287763
C	-0.8866633145	-4.8469018968	 0.9150477471	 0.155094
O	-0.4854519566	-5.7717361807	 1.5719079432	-0.232309
H	 0.6133559607	 1.9859087944	-0.7619580279	 0.101689
H	-0.9136397646	 1.9109731059	 0.1399325363	 0.126596
H	 0.6139874082	 1.8318795831	 1.0059466032	 0.127586
H	 2.167183393	 0.5047374502	-1.8704521427	 0.146531
H	 1.5576601182	-0.8875297589	-2.7876175264	 0.142967
H	 0.6216541188	 0.6201156874	-2.7146359338	 0.145323
H	 0.3891982882	-2.2870073237	 1.0931559555	 0.127978
H	-1.1575257957	-2.2149910447	 0.2542611077	 0.118233
H	-0.4762871123	-4.2693391358	-1.082371508	 0.130736
H	 0.9699782118	-4.4413332548	-0.0646914615	 0.13036
H	-1.9435653717	-4.5001377003	 1.0020257942	 0.075293
41.672	55.6844	61.845	70.7264	77.1848	126.6045	179.4928	260.217	279.332	300.1986	332.4987	498.5218	519.8977	576.7758	636.8467	773.7012	828.0491	866.1517	970.0519	1014.1362	1053.7003	1072.2951	1093.2072	1133.1408	1137.0144	1141.9579	1158.0428	1228.3159	1273.8693	1291.0602	1297.5206	1392.3511	1412.4512	1430.7652	1448.4665	1466.3924	1478.7499	1479.9196	1499.2181	1506.2863	1516.3077	1759.7249	1839.2977	2853.4345	3000.7269	3021.7475	3038.0256	3053.4499	3064.1404	3069.7383	3079.176	3114.6193	3116.6348	3155.9887
CN=C(C)OCCC=O	CN=C(C)OCCC=O	
InChI=1S/C6H11NO2/c1-6(7-2)9-5-3-4-8/h4H,3,5H2,1-2H3	InChI=1S/C6H11NO2/c1-6(7-2)9-5-3-4-8/h4H,3,5H2,1-2H3
