12
gdb 132111	3.17042	1.44139	0.9909	6.2646	63.73	-0.2279	-0.0594	0.1685	1052.4703	0.075825	-513.960834	-513.952732	-513.951788	-513.994336	28.583	
N	 0.0412094735	 1.3504697848	 0.0073556027	-0.56483
C	-0.014924586	 0.0100729256	 0.0009225049	 0.402507
C	-1.195273936	-0.7153383628	 0.0034520693	 0.085408
F	-2.3675543037	-0.0507659864	 0.012909618	-0.091665
C	-1.112706041	-2.0967641135	-0.0039134766	-0.053295
N	 0.015362715	-2.7873662494	-0.0132697433	-0.353691
C	 1.1975175273	-2.1442883329	-0.0162108249	 0.445363
O	 2.3132869531	-2.5539685348	-0.0240796997	-0.318619
O	 1.1315664957	-0.6258321007	-0.0082584073	-0.269519
H	 0.9342902426	 1.8121886323	 0.0049806701	 0.28874
H	-0.808013163	 1.8874358497	 0.0144594162	 0.289853
H	-2.0392696274	-2.6700023919	-0.0019541995	 0.139748
48.3115	91.7418	174.8744	244.0791	318.7425	325.0922	430.2832	455.1253	474.2929	520.4943	605.2609	618.2076	727.9054	757.2929	767.9282	843.8338	984.8533	996.0655	1088.3393	1258.5695	1329.5691	1406.6407	1485.1249	1560.927	1640.5982	1685.7504	1919.8928	3143.427	3622.961	3757.2524
NC1=C(F)C=NC(=O)O1	Nc1c(F)cnc(=O)o1	
InChI=1S/C4H3FN2O2/c5-2-1-7-4(8)9-3(2)6/h1H,6H2	InChI=1S/C4H3FN2O2/c5-2-1-7-4(8)9-3(2)6/h1H,6H2
