17
gdb 67755	2.5263	1.96891	1.55483	3.1585	76.02	-0.2166	-0.0132	0.2034	920.1127	0.136269	-384.686935	-384.679651	-384.678707	-384.718301	29.24	
C	 0.0042277368	 1.5694811705	 0.0154954851	-0.496245
C	-0.0366095356	 0.0583799338	 0.0878138818	 0.143052
C	-1.3754939542	-0.643576487	-0.0507829114	-0.132951
C	-1.302489048	-1.8695101034	 0.4699964677	-0.100219
C	 0.0585829196	-2.0708788688	 1.0671973328	-0.087473
C	 1.2859977321	-1.7315644815	 0.1914657132	-0.209625
C	 0.6973370854	-0.734823129	 1.2274669417	-0.114796
C	 0.9602126355	-0.7145404198	-0.8457318942	 0.414614
O	 1.472712186	-0.4032651804	-1.8858479881	-0.340813
H	 1.0244330436	 1.94450403	 0.1401269942	 0.126098
H	-0.352189971	 1.9108515082	-0.9609993799	 0.137432
H	-0.6273424337	 2.0213930334	 0.7871063677	 0.120397
H	-2.1975606636	-0.2236187583	-0.6167795975	 0.109175
H	-2.0647327662	-2.6370399178	 0.4477514494	 0.108225
H	 0.2464041037	-2.8540394606	 1.793521936	 0.09956
H	 2.1875051038	-2.3283827881	 0.2390120584	 0.112577
H	 1.194954396	-0.3266100211	 2.0974059932	 0.110992
140.0065	163.9092	221.1476	292.4743	355.7084	416.6006	530.8127	612.4615	635.7868	709.838	712.7345	742.2953	800.0473	814.4573	835.9358	844.8789	883.0023	920.7821	937.8743	957.5818	962.278	1049.9064	1077.7018	1092.4315	1114.6838	1119.2517	1195.3469	1203.9604	1265.4326	1295.22	1360.6377	1367.4454	1411.8185	1489.5737	1491.6548	1651.7306	1859.7931	3038.0069	3107.1902	3112.5818	3174.253	3199.6943	3205.2735	3209.1768	3231.7426
CC12C=CC3C(C13)C2=O	C[C@]12C=C[C@H]3[C@H]([C@@H]13)C2=O	
InChI=1S/C8H8O/c1-8-3-2-4-5(6(4)8)7(8)9/h2-6H,1H3	InChI=1S/C8H8O/c1-8-3-2-4-5(6(4)8)7(8)9/h2-6H,1H3/t4-,5+,6-,8-/m0/s1
