19
gdb 51570	4.65553	0.71369	0.66864	3.315	78.2	-0.2493	-0.0254	0.224	1679.3714	0.157043	-422.997519	-422.988226	-422.987282	-423.033355	32.982	
O	-0.8552198559	 0.525111334	 0.1246592299	-0.237016
C	-0.1716275866	 1.5157848932	 0.1182216188	 0.159795
C	 1.2691905155	 1.5634622459	-0.3581623031	-0.311085
C	 1.4745018257	 2.6707753812	-1.3710654208	 0.028042
O	 1.4266520764	 4.0171437291	-0.8795065729	-0.265877
C	 2.6619060172	 3.5417675161	-1.4324433428	 0.063142
C	 3.8443322442	 3.4490429178	-0.5321623436	-0.009411
C	 5.198433204	 3.1490189004	-1.1346442712	-0.26837
C	 4.9049630073	 4.5241400131	-0.6008786237	-0.267456
H	-0.5635822896	 2.4935314294	 0.4751952555	 0.097021
H	 1.8983781281	 1.7421733807	 0.5216779607	 0.125927
H	 1.5307395259	 0.589438023	-0.7827012804	 0.126218
H	 0.9203292221	 2.5266980874	-2.3012380154	 0.100823
H	 2.8907980297	 3.9711002078	-2.4116518368	 0.089393
H	 3.6468985562	 3.0387361406	 0.4518995836	 0.090353
H	 5.8690540727	 2.5052554138	-0.5773508512	 0.120244
H	 5.2562146982	 3.022823367	-2.2108390785	 0.117424
H	 4.7611891158	 5.3276994971	-1.3154542097	 0.120534
H	 5.373379653	 4.8323252525	 0.3266831618	 0.120297
45.9169	56.4988	66.0138	138.6502	181.4121	266.6952	290.1178	403.3498	470.0417	497.4602	556.877	756.8427	784.7262	806.9272	828.6998	850.919	907.9458	926.4761	957.5735	987.2238	1040.2678	1063.2963	1078.5054	1085.8067	1121.4626	1131.7574	1156.8801	1198.2092	1211.2443	1219.3002	1239.0842	1284.4494	1305.255	1335.6709	1419.7127	1421.8739	1445.419	1470.4586	1491.1701	1513.6828	1834.0614	2896.7367	3043.3116	3069.1055	3085.402	3107.0026	3134.3698	3138.3508	3169.1881	3213.6762	3228.6867
O=CCC1OC1C1CC1	O=CC[C@H]1O[C@H]1C1CC1	
InChI=1S/C7H10O2/c8-4-3-6-7(9-6)5-1-2-5/h4-7H,1-3H2	InChI=1S/C7H10O2/c8-4-3-6-7(9-6)5-1-2-5/h4-7H,1-3H2/t6-,7+/m1/s1
