19
gdb 56531	2.42208	1.2827	1.09686	2.3151	77.45	-0.2557	-0.0332	0.2225	1192.6767	0.153863	-423.005733	-422.995052	-422.994108	-423.041193	38.823	
C	-0.2214746893	 1.4871686058	 0.082251765	-0.412848
C	-0.0040113826	-0.0404315402	 0.0629071454	-0.168153
C	 0.6407449926	-0.4470262833	-1.1846662305	 0.286676
C	 1.2282574468	-0.7503642666	-2.1904228304	-0.448076
C	 0.858413565	-0.5302680171	 1.2712119246	 0.258601
C	 0.9783024814	-2.064692392	 1.3016177435	-0.436291
O	 2.1373425126	 0.083202077	 1.2714326265	-0.47219
C	 0.2085860759	-0.1055015585	 2.5875135022	 0.149271
O	-0.9629539525	-0.2351737738	 2.8297083177	-0.267871
H	 0.7401431058	 2.0041401257	 0.1173489054	 0.13493
H	-0.755800539	 1.8054435656	-0.8155872728	 0.126343
H	-0.8116184548	 1.7770554642	 0.9546968099	 0.136357
H	-0.9776840132	-0.5365033887	 0.1487462642	 0.125179
H	 1.710809643	-1.0263571865	-3.0956280763	 0.200633
H	 1.4424184146	-2.4206371873	 0.3774012082	 0.132394
H	 1.6010475166	-2.3743499555	 2.1456468518	 0.127819
H	-0.0072642792	-2.5276661579	 1.4015094219	 0.137015
H	 2.5661204623	-0.1473955705	 0.4382164929	 0.288911
H	 0.9301601741	 0.3096271496	 3.324215601	 0.1013
64.2227	67.0578	145.606	196.0731	214.0201	227.5817	244.541	277.7451	284.169	350.0516	367.0059	393.9293	453.048	543.7665	568.8786	632.5588	636.7777	654.9744	737.5154	869.7404	913.8743	936.6568	983.1756	1024.2286	1060.0174	1104.9845	1126.2165	1160.1708	1209.7654	1290.1551	1324.99	1372.0478	1389.8501	1403.7785	1408.9521	1489.9653	1494.083	1497.1057	1503.0406	1833.1696	2223.7666	2905.7606	3041.7916	3048.903	3056.3368	3120.2562	3126.5414	3132.9998	3139.524	3500.7707	3786.1098
CC(C#C)C(C)(O)C=O	C[C@@H](C#C)[C@@](C)(O)C=O	
InChI=1S/C7H10O2/c1-4-6(2)7(3,9)5-8/h1,5-6,9H,2-3H3	InChI=1S/C7H10O2/c1-4-6(2)7(3,9)5-8/h1,5-6,9H,2-3H3/t6-,7-/m0/s1
