16
gdb 127650	3.22843	1.29043	0.92738	4.3812	75.31	-0.2192	-0.009	0.2102	1196.3104	0.125641	-434.108273	-434.099842	-434.098898	-434.142159	29.889	
C	-0.0255105313	 1.39552932	 0.0522641024	-0.349151
N	-0.0066030787	-0.0480499168	 0.0136691567	-0.046026
N	-0.0303587574	-0.6949188204	-1.1807807797	-0.27027
C	-0.0039729263	-1.9836818887	-0.8621449653	 0.007787
C	 0.0369890227	-2.1990918977	 0.5300542212	-0.321612
C	 0.0338382561	-0.9215385264	 1.0571451145	 0.501219
N	 0.0633648342	-0.4543327799	 2.3706579145	-0.427039
C	 0.1043833035	-1.2424505523	 3.4942223429	 0.150658
O	 0.121090321	-2.4500804695	 3.5031545189	-0.292808
H	 0.8763643034	 1.7971393136	 0.5295914967	 0.136601
H	-0.0585762231	 1.7393341481	-0.9806689526	 0.17534
H	-0.9106596147	 1.7724172165	 0.5785535075	 0.136588
H	-0.0152531903	-2.7248172654	-1.6479523131	 0.114197
H	 0.0647634598	-3.1182580412	 1.0852611198	 0.140736
H	 0.0532212634	 0.5433451604	 2.5150868632	 0.25671
H	 0.1206934177	-0.6221480804	 4.4105768825	 0.087069
47.7999	109.8414	171.1319	176.5249	209.4761	257.7495	364.4203	445.9824	500.7389	607.9713	655.3999	685.4176	723.5117	805.1091	884.1701	893.804	947.8778	1008.8436	1012.7929	1059.6966	1142.5405	1148.5046	1190.7495	1234.5351	1315.6388	1369.176	1414.3965	1433.646	1460.7716	1468.72	1488.6221	1511.7923	1591.5177	1594.1806	1813.46	2953.725	3019.21	3073.116	3165.8877	3246.3808	3314.3523	3630.7062
CN1N=CC=C1NC=O	Cn1nccc1NC=O	
InChI=1S/C5H7N3O/c1-8-5(6-4-9)2-3-7-8/h2-4H,1H3,(H,6,9)	InChI=1S/C5H7N3O/c1-8-5(6-4-9)2-3-7-8/h2-4H,1H3,(H,6,9)
