19
gdb 8420	3.49871	1.85362	1.55792	1.8071	71.22	-0.2272	0.0633	0.2905	905.3061	0.164474	-365.01817	-365.009955	-365.009011	-365.049964	31.977	
C	-0.0971311646	 1.567087465	 0.0612233713	-0.427575
C	 0.0600628799	 0.0708466258	-0.0981517842	 0.014081
C	 0.6185633871	-0.6527046142	-1.2609335715	-0.077265
N	 1.3145386662	-0.6857906589	 0.1058117661	-0.153425
C	 2.4298210998	 0.1328996364	-0.488942437	-0.233859
C	 1.8166093372	 0.0261132402	-1.9180236118	 0.392548
C	 2.5921742441	-0.9155270631	-2.8334839652	-0.451161
O	 1.4787662421	 1.2245141496	-2.5993799519	-0.472456
H	 0.5817574085	 2.137060388	-0.5710143883	 0.144959
H	-1.1172681686	 1.8502641413	-0.2182706683	 0.120772
H	 0.0512198587	 1.8555476221	 1.1082088916	 0.116881
H	-0.7497911858	-0.4844760504	 0.3746143401	 0.09363
H	 0.1368118184	-1.5353296603	-1.6738302537	 0.084017
H	 2.5232360373	 1.1418685611	-0.0790150728	 0.103307
H	 3.3801505521	-0.3928159554	-0.3708278948	 0.102309
H	 2.8045500532	-1.8660916728	-2.3362451417	 0.134804
H	 2.0172590659	-1.1178770069	-3.7429122796	 0.125248
H	 3.5518109564	-0.4687675051	-3.1231777876	 0.107328
H	 2.2570703421	 1.5247852175	-3.0814452108	 0.27586
141.9468	180.3243	208.7849	266.4452	269.9818	296.7406	368.0952	380.6425	425.1761	490.4585	612.4507	629.8648	708.0647	781.6215	850.506	901.7026	930.6725	945.024	962.6536	983.1828	1027.9973	1072.6453	1111.7626	1123.2914	1134.7517	1179.263	1202.8105	1242.0351	1261.0673	1283.2816	1322.9789	1402.5646	1407.3397	1415.2935	1443.3075	1486.7217	1491.775	1495.8221	1499.6463	1512.9867	3021.9209	3037.1314	3058.7567	3090.9066	3093.9005	3107.9652	3111.2889	3118.8742	3142.1351	3161.0105	3800.3839
CC1C2N1CC2(C)O	C[C@H]1[C@@H]2N1C[C@]2(C)O	
InChI=1S/C6H11NO/c1-4-5-6(2,8)3-7(4)5/h4-5,8H,3H2,1-2H3	InChI=1S/C6H11NO/c1-4-5-6(2,8)3-7(4)5/h4-5,8H,3H2,1-2H3/t4-,5-,6-,7?/m0/s1
