15
gdb 14086	3.67819	1.66864	1.39319	3.2303	62.95	-0.2453	0.0316	0.2769	898.1231	0.1185	-399.795286	-399.787557	-399.786612	-399.827435	28.114	
O	-0.1807022646	 1.4299697333	-0.0413957168	-0.420921
C	-0.0621262696	 0.0398200877	 0.0205825971	 0.04306
C	-0.4775335362	-0.6883101771	 1.2728494362	-0.386521
C	-1.35459891	-0.7105775311	 0.0485427245	 0.167871
C	-2.7695724245	-0.1588990471	-0.1784474047	-0.227674
N	-3.0121986208	-1.3783379266	-0.9679218641	-0.350208
C	-1.7405795193	-1.8934254261	-0.8270137806	 0.391289
O	-1.1928344644	-2.8761478316	-1.251622681	-0.373301
H	 0.5542554634	 1.814647053	 0.4479960327	 0.293242
H	 0.7407788688	-0.3929885545	-0.5759883992	 0.109671
H	 0.0370947941	-1.6062243372	 1.5378729028	 0.134609
H	-0.8166618391	-0.0803984282	 2.1054282357	 0.121843
H	-3.397811968	-0.0759725536	 0.7138136954	 0.114554
H	-2.8074270165	 0.7710907154	-0.7528821009	 0.130527
H	-3.7686313734	-1.6369181461	-1.5824182969	 0.251959
96.7221	141.6451	160.8786	214.5969	287.5451	333.3715	418.9528	469.2003	573.1211	624.9862	721.5217	783.9859	834.6551	875.6758	917.1838	978.5209	1023.0294	1037.692	1084.6938	1102.1459	1146.1438	1154.2855	1171.4858	1189.8211	1276.5398	1304.3283	1336.9887	1390.4122	1424.6769	1494.2153	1526.1712	1890.91	3045.7453	3096.8275	3108.2216	3127.1579	3221.1395	3625.8291	3804.4956
OC1CC11CNC1=O	O[C@H]1C[C@]21CNC2=O	
InChI=1S/C5H7NO2/c7-3-1-5(3)2-6-4(5)8/h3,7H,1-2H2,(H,6,8)	InChI=1S/C5H7NO2/c7-3-1-5(3)2-6-4(5)8/h3,7H,1-2H2,(H,6,8)/t3-,5+/m0/s1
