20
gdb 110887	2.31923	1.42225	1.18472	2.5246	74.14	-0.218	0.0656	0.2835	1137.9244	0.17177	-440.246736	-440.237839	-440.236895	-440.280863	33.499	
O	 0.419929364	 0.2518822623	-1.3539647216	-0.425357
C	 0.1562227219	-0.077365024	 0.0087956954	-0.138038
C	-1.2680987225	-0.5760272164	 0.0519297138	 0.016314
C	-1.6636216851	-1.9922397193	-0.1679600787	-0.039445
C	-0.61503425	-3.0928263071	-0.0919557765	-0.244186
C	-0.0750261046	-3.0800193505	 1.3579346283	 0.089991
O	 1.3246984481	-2.7991606714	 1.3234045311	-0.413765
C	-0.9240292072	-2.0012261001	 2.0967413025	-0.193115
N	-1.8571878811	-1.3576250829	 1.155896443	-0.130872
H	 1.3239720218	 0.5754648173	-1.4074014967	 0.286046
H	 0.8658707023	-0.8223726635	 0.3820176645	 0.120349
H	 0.2384638083	 0.8159192386	 0.6510846077	 0.082304
H	-1.963234326	 0.1782101775	-0.3146767314	 0.093925
H	-2.5681062143	-2.2019763524	-0.7332234614	 0.086837
H	-1.0691961284	-4.0575325713	-0.3319499713	 0.105961
H	 0.2147426507	-2.9394755596	-0.7876958767	 0.134181
H	-0.2229472428	-4.0590710648	 1.8332893271	 0.078504
H	 1.6513471351	-2.8063063697	 2.2288360075	 0.283284
H	-1.5329454292	-2.4680440578	 2.8787711186	 0.104962
H	-0.274669211	-1.2649712349	 2.5844358649	 0.102121
43.148	98.2441	152.6768	221.3229	254.6731	303.251	321.9959	398.8818	427.4011	491.7016	522.4477	686.7504	710.011	732.3904	814.5658	831.7505	900.7641	922.3937	981.9392	1006.4833	1023.5266	1032.752	1059.6173	1089.6646	1128.9364	1133.983	1155.8236	1197.1028	1236.6226	1246.3377	1258.4687	1277.0092	1298.7588	1309.3471	1336.1913	1344.6456	1374.999	1417.7494	1436.5403	1484.6274	1492.6241	1494.85	1542.7196	2957.596	2999.7844	3032.4058	3064.2963	3070.6801	3077.0802	3105.41	3113.3451	3137.3191	3816.3842	3828.2959
OCC1C2CC(O)CN12	OC[C@H]1[C@H]2C[C@@H](O)CN12	
InChI=1S/C6H11NO2/c8-3-6-5-1-4(9)2-7(5)6/h4-6,8-9H,1-3H2	InChI=1S/C6H11NO2/c8-3-6-5-1-4(9)2-7(5)6/h4-6,8-9H,1-3H2/t4-,5-,6+,7?/m1/s1
