19
gdb 84446	3.32709	1.38739	1.22313	1.6114	75.53	-0.244	0.002	0.246	1060.5114	0.160071	-423.016725	-423.00883	-423.007886	-423.048448	32.39	
O	 0.1395208679	 1.383669205	-0.2010011811	-0.439892
C	 0.0251402576	-0.026823226	-0.0226176551	 0.108175
C	 0.7562726023	-0.4999841987	 1.2162075839	-0.126136
C	 0.0858705022	-1.2019314389	 2.1301019236	-0.136825
C	-1.3802608107	-1.5110062243	 1.8807824067	 0.398867
O	-1.9733758889	-2.3272622496	 2.8539955038	-0.496092
C	-1.5195401902	-2.0013149222	 0.4160386463	-0.258439
C	-1.4420919045	-0.4941191696	 0.0288813297	-0.057589
C	-2.0721658663	-0.1888338696	 1.4205809285	-0.290246
H	-0.1792165995	 1.8017088581	 0.6065953806	 0.276361
H	 0.5004486709	-0.4467180312	-0.918767286	 0.093832
H	 1.8045495898	-0.2378890065	 1.3220602138	 0.098386
H	 0.5448593555	-1.5869720258	 3.0370755353	 0.091768
H	-1.853689377	-1.9122234342	 3.7152085823	 0.275325
H	-0.7531132675	-2.6820684275	 0.0386725806	 0.099406
H	-2.5156262531	-2.4125662829	 0.2327800521	 0.106664
H	-1.9797502069	-0.1592615742	-0.8588547318	 0.075959
H	-3.1586426522	-0.3040639008	 1.3979274168	 0.104853
H	-1.8049142593	 0.7370630788	 1.9393590501	 0.075621
140.6473	241.0161	245.0256	313.9914	316.0828	342.6776	415.0728	428.5224	465.4696	487.1545	613.6919	640.0801	706.7036	741.7066	815.6004	870.7346	899.6488	934.025	949.9327	969.0632	982.4271	1017.9168	1022.1009	1061.0793	1065.0651	1122.9504	1151.7906	1167.5399	1190.8974	1237.0719	1243.2422	1263.4081	1269.5487	1320.083	1351.6665	1361.3726	1390.3814	1421.6905	1476.4253	1508.4645	1690.2168	3025.4072	3044.6515	3061.1248	3102.187	3110.938	3122.1713	3156.4266	3184.2791	3801.7446	3801.9378
OC1C=CC2(O)CC1C2	O[C@H]1C=C[C@]2(O)C[C@H]1C2	
InChI=1S/C7H10O2/c8-6-1-2-7(9)3-5(6)4-7/h1-2,5-6,8-9H,3-4H2	InChI=1S/C7H10O2/c8-6-1-2-7(9)3-5(6)4-7/h1-2,5-6,8-9H,3-4H2/t5-,6-,7-/m0/s1
