16
gdb 19145	2.94021	1.94755	1.37162	2.1736	65.21	-0.2561	-0.036	0.2201	914.8589	0.128914	-383.711778	-383.704072	-383.703128	-383.744155	28.17	
O	-1.0933401701	 1.3395019399	 0.0881473175	-0.252367
C	 0.0278481339	 0.9631949389	 0.3101653916	 0.128114
C	 1.2669673599	 1.7001161233	-0.1099877678	 0.278543
C	 2.3633171625	 1.7096184272	 0.889035439	-0.21582
O	 2.4096403433	 0.8375580881	-0.2304504126	-0.259834
C	 1.1071699391	 2.7814042417	-1.1298891309	-0.073196
C	 2.2994198478	 3.3026813344	-1.88612312	-0.284193
C	 1.2744737557	 2.4533723055	-2.5936205275	-0.258263
H	 0.2449332706	 0.021286729	 0.8623587841	 0.08579
H	 3.0549122728	 2.549279673	 0.8652828311	 0.132173
H	 2.2371411383	 1.2227208811	 1.85529753	 0.124987
H	 0.3194602787	 3.4834725058	-0.8791724741	 0.107694
H	 2.3389380087	 4.3639525822	-2.1032939194	 0.114817
H	 3.2600377848	 2.8420130447	-1.6844635934	 0.125546
H	 1.5650348753	 1.4403920623	-2.8487601782	 0.126534
H	 0.5991350986	 2.9234984828	-3.2987642494	 0.119473
68.3795	137.7716	172.4636	213.8206	268.5572	358.8923	440.0884	493.4845	594.73	684.9037	790.7957	824.4675	851.5031	880.5368	903.094	950.6658	981.5985	1042.8758	1066.3279	1092.6822	1108.6461	1128.7561	1137.4705	1163.6463	1200.6524	1222.1329	1250.7691	1336.0056	1406.7033	1437.9558	1461.492	1501.797	1516.0889	1830.3904	2887.6668	3087.2237	3138.4998	3142.1459	3173.6347	3181.7309	3220.6301	3234.9663
O=CC1(CO1)C1CC1	O=C[C@]1(CO1)C1CC1	
InChI=1S/C6H8O2/c7-3-6(4-8-6)5-1-2-5/h3,5H,1-2,4H2	InChI=1S/C6H8O2/c7-3-6(4-8-6)5-1-2-5/h3,5H,1-2,4H2/t6-/m0/s1
