27
gdb 118996	3.2495	0.85427	0.83626	0.0661	95.3	-0.2919	0.0726	0.3645	1616.505	0.252803	-353.586759	-353.576216	-353.575272	-353.622383	40.005	
C	 0.023559839	 1.6605621418	-0.1659884979	-0.376008
C	 0.05884107	 0.1342454634	-0.0389785604	-0.181572
C	-1.3433438949	-0.4889830726	-0.0772652656	-0.215663
C	-1.4227394483	-2.0172027355	 0.105823703	 0.309928
C	-0.6731063918	-2.7474735247	-1.02525224	-0.426348
C	-0.9138526961	-2.4865153885	 1.4918398569	-0.218674
C	-1.5974587402	-3.8491870987	 1.7533998353	-0.21227
C	-2.8837957792	-3.8536590407	 0.8760592543	-0.212259
C	-2.8973410565	-2.4902063104	 0.1496686138	-0.226894
H	 1.0307847938	 2.0884018763	-0.1397338146	 0.108264
H	-0.4447530833	 1.9686615575	-1.1076837182	 0.112106
H	-0.5518887974	 2.1126694527	 0.6497534649	 0.111875
H	 0.6759237066	-0.2783032224	-0.8459122342	 0.096579
H	 0.5585962681	-0.1397919974	 0.8985965778	 0.096762
H	-1.9533524824	-0.0187587818	 0.7071346149	 0.083545
H	-1.8223179817	-0.2217934108	-1.0304354	 0.084013
H	 0.4001280838	-2.5354936171	-1.0023065921	 0.112144
H	-0.7905971114	-3.8331717819	-0.9518519241	 0.111293
H	-1.0543527128	-2.4417160976	-2.0062654217	 0.107305
H	 0.177245887	-2.5493560598	 1.5460851548	 0.089443
H	-1.2291130305	-1.7586420196	 2.2499488316	 0.087691
H	-0.9370877107	-4.6744761904	 1.4705902802	 0.097965
H	-1.8215825752	-3.9859051592	 2.8149687024	 0.094516
H	-2.8548901614	-4.6777666899	 0.1568997395	 0.098011
H	-3.7892268689	-3.9984913435	 1.4718820411	 0.094159
H	-3.4853122568	-1.765685951	 0.7265535136	 0.08736
H	-3.3489616689	-2.5436906283	-0.8465409454	 0.086728
76.6641	84.2573	92.263	139.4063	190.531	232.5738	247.394	305.481	314.4619	344.2522	407.8812	410.3517	623.4917	640.7394	721.5089	744.5966	810.074	811.4878	865.7219	891.6366	898.4714	925.9315	939.4686	968.0357	980.2463	1015.6598	1041.5472	1050.6146	1059.2054	1106.2429	1110.2029	1172.0047	1191.7711	1234.1837	1245.3628	1255.4083	1262.046	1292.7215	1314.6678	1321.1155	1324.1886	1339.5865	1359.8269	1360.8311	1396.5558	1411.2524	1415.8277	1475.1138	1484.403	1489.4367	1492.1432	1493.7661	1499.5903	1503.9366	1507.6985	1512.0086	1521.5486	2994.5462	3021.6215	3023.8921	3026.3673	3026.7838	3028.2864	3032.1686	3045.9004	3057.2237	3061.0829	3068.3821	3076.6844	3083.5735	3094.0104	3094.9631	3099.1831	3101.1715	3104.5671
CCCC1(C)CCCC1	CCCC1(C)CCCC1	
InChI=1S/C9H18/c1-3-6-9(2)7-4-5-8-9/h3-8H2,1-2H3	InChI=1S/C9H18/c1-3-6-9(2)7-4-5-8-9/h3-8H2,1-2H3
