16
gdb 53755	5.07523	0.60569	0.55317	3.5329	76.4	-0.2522	-0.02	0.2322	1907.1303	0.122405	-437.86172	-437.851956	-437.851012	-437.899135	33.064	
N	 0.0846092264	 0.4677593967	-1.1552725055	-0.519702
C	-0.1362660156	 0.1914230515	 0.1634165357	 0.262005
O	 0.4899234356	 0.7047869788	 1.0703653275	-0.334798
C	-1.1889871102	-0.7911373239	 0.383526106	 0.075738
C	-2.0584845366	-1.5923423481	 0.6159073148	 0.030889
C	-3.0988156874	-2.5795620451	 0.877384914	-0.387524
C	-3.1516515237	-3.6687362082	-0.1816590898	 0.105596
C	-4.4137394181	-4.3232375228	-0.5415465426	-0.179764
O	-3.819604465	-3.3419991274	-1.3957532696	-0.225235
H	 0.7579227288	 1.1800570173	-1.3856481815	 0.265458
H	-0.503130582	 0.087118349	-1.8762230828	 0.269006
H	-2.9311045248	-3.0409888415	 1.8596756539	 0.145029
H	-4.0754003552	-2.0825176121	 0.9210336817	 0.145763
H	-2.222149841	-4.222634119	-0.3153269872	 0.107871
H	-4.4063263876	-5.3436294765	-0.9208639911	 0.12181
H	-5.3366810935	-4.0166448187	-0.0505842735	 0.117858
15.052	45.6365	80.9643	130.2934	158.4032	195.3574	324.9824	337.6836	377.5049	439.2854	548.4885	574.0247	591.8599	727.2299	774.1114	790.1458	861.5283	934.0138	955.9872	1079.4906	1091.4341	1095.0302	1107.2136	1161.346	1169.1219	1243.6572	1293.2365	1319.3193	1349.5302	1437.1413	1448.8477	1531.1779	1608.4048	1775.1124	2353.7864	3023.0494	3064.3102	3085.5366	3113.3259	3173.1821	3601.0555	3742.9374
NC(=O)C#CCC1CO1	NC(=O)C#CC[C@H]1CO1	
InChI=1S/C6H7NO2/c7-6(8)3-1-2-5-4-9-5/h5H,2,4H2,(H2,7,8)	InChI=1S/C6H7NO2/c7-6(8)3-1-2-5-4-9-5/h5H,2,4H2,(H2,7,8)/t5-/m0/s1
