18
gdb 16183	4.2135	1.53462	1.33838	1.0651	66.71	-0.2315	0.0754	0.3069	953.7608	0.154925	-384.921189	-384.913678	-384.912734	-384.952939	28.795	
O	 0.0684199857	 1.4288112083	 0.3558856367	-0.415184
C	 0.0768873879	 0.0474357941	 0.0181006674	-0.155047
C	-1.3067535654	-0.5168401663	-0.1621733805	 0.282479
C	-2.0745996918	-1.0490859964	 1.0479114056	-0.386371
C	-1.6309428424	-1.9804601441	-0.0528220853	 0.077286
O	-2.5543802065	-2.3608196053	-1.0358727336	-0.257753
C	-3.1687715548	-1.173812711	-1.5424111544	-0.09571
C	-2.1633022554	-0.0225746593	-1.3227297268	-0.286818
H	-0.4704951971	 1.5243216749	 1.148609825	 0.28162
H	 0.6391068383	-0.0173940982	-0.9207513159	 0.11027
H	 0.6252130351	-0.5429547621	 0.7702213484	 0.082545
H	-1.5327574739	-1.1096723643	 1.9873066488	 0.110527
H	-3.1299774815	-0.8233145028	 1.1571323089	 0.117736
H	-0.8942318072	-2.7530537038	 0.135634662	 0.10328
H	-3.4131329578	-1.3465713622	-2.5938893004	 0.112831
H	-4.1087531633	-0.9795485294	-1.0074960926	 0.099499
H	-2.6665128239	 0.9283644312	-1.128726864	 0.109423
H	-1.5217841558	 0.1145976769	-2.2003348092	 0.109387
93.2527	150.9411	220.2706	295.6067	304.0226	371.2125	396.0558	459.1855	637.7071	701.6668	709.7043	835.9871	865.8416	906.6508	935.31	937.2602	981.9045	998.3919	1029.097	1032.19	1055.3756	1082.8586	1107.0729	1167.8187	1198.4906	1219.5049	1232.9132	1266.8427	1294.3827	1325.2102	1363.8349	1393.2749	1411.5702	1426.7575	1479.2515	1494.1082	1505.4239	1531.1926	2969.4152	3005.1462	3044.795	3060.2131	3086.8481	3099.3393	3124.5698	3179.2955	3211.2983	3805.3093
OCC12CC1OCC2	OC[C@]12C[C@H]1OCC2	
InChI=1S/C6H10O2/c7-4-6-1-2-8-5(6)3-6/h5,7H,1-4H2	InChI=1S/C6H10O2/c7-4-6-1-2-8-5(6)3-6/h5,7H,1-4H2/t5-,6+/m1/s1
