17
gdb 32778	3.2037	0.98105	0.79367	1.376	71.51	-0.1958	0.0283	0.2241	1396.3274	0.136948	-455.179047	-455.170115	-455.169171	-455.213702	32.366	
O	 0.1116453503	 1.4811851407	-0.2967015142	-0.413504
C	 0.0858852807	 0.0685771005	-0.1926916559	-0.051286
C	-1.3331058342	-0.4811163353	 0.0475319332	-0.347159
C	-1.3989616153	-1.9688280835	 0.0986771314	 0.202705
C	-1.4584067975	-2.8586448566	 1.144039029	 0.27398
O	-1.5009879582	-2.539942191	 2.4600753662	-0.442117
N	-1.4746082144	-4.1552463142	 0.7205612536	-0.33906
C	-1.4209676679	-4.0829526825	-0.5956023865	 0.005056
N	-1.3688524381	-2.7970747747	-1.0209053592	-0.301007
H	-0.1278301933	 1.8438596949	 0.5622008342	 0.284052
H	 0.4759191851	-0.3060738848	-1.1457389952	 0.102424
H	 0.7582173695	-0.2985118003	 0.596998953	 0.101978
H	-1.7053173961	-0.0958918637	 1.0041871996	 0.11928
H	-1.994042901	-0.0774979345	-0.7305479359	 0.10793
H	-1.5671771008	-3.3760338877	 2.9365775404	 0.299795
H	-1.4203918281	-4.9221757892	-1.2739703681	 0.131688
H	-1.3429529207	-2.4870374982	-1.9777979856	 0.265245
39.852	90.8998	106.4263	248.2152	279.609	303.1168	347.7677	355.231	382.1912	478.6576	494.2904	664.1572	688.2806	735.2206	775.9278	781.1001	796.4736	957.6178	998.7525	1028.4917	1074.1866	1098.3335	1139.979	1146.3183	1250.7226	1275.9527	1301.0604	1331.689	1343.1144	1393.8496	1404.289	1415.2497	1475.7836	1496.3202	1508.5772	1519.6312	1686.0942	2995.8557	3021.5586	3055.9511	3079.9106	3257.796	3665.0532	3807.8874	3815.6607
OCCC1=C(O)N=CN1	OCCc1c(O)nc[nH]1	
InChI=1S/C5H8N2O2/c8-2-1-4-5(9)7-3-6-4/h3,8-9H,1-2H2,(H,6,7)	InChI=1S/C5H8N2O2/c8-2-1-4-5(9)7-3-6-4/h3,8-9H,1-2H2,(H,6,7)
