19
gdb 110868	2.04027	1.52398	1.3623	1.9502	71.15	-0.2327	0.067	0.2997	1090.9929	0.157668	-460.110791	-460.101586	-460.100642	-460.144512	34.526	
C	 0.2400263837	 1.0007904714	-0.3108070144	-0.250592
O	-0.3920701877	-0.0770716494	 0.35885563	-0.252892
C	 0.4542119887	-0.7018064288	 1.2882745167	 0.043237
C	 0.1037080857	-2.0402833157	 1.8554890748	-0.17474
C	-0.5677554899	-2.910459424	 0.7889814626	-0.272149
C	 0.7050811473	-2.761877385	-0.1132381503	 0.065357
O	 0.5689712277	-2.2612825455	-1.4219973028	-0.445892
C	 1.3466862314	-1.8637502687	 0.9543220968	 0.295562
O	 2.6748265614	-1.9252713826	 1.3417638089	-0.457683
H	 1.0872954346	 0.6547496521	-0.9205134999	 0.114717
H	-0.5075759494	 1.4589714592	-0.9625746975	 0.13283
H	 0.602814353	 1.7566394901	 0.4003463141	 0.116035
H	 0.8989236256	-0.0139495961	 2.009745665	 0.093609
H	 0.0526537885	-2.2000474824	 2.925258634	 0.099156
H	-0.7417420976	-3.9386875248	 1.1116803698	 0.107904
H	-1.4889894513	-2.507173464	 0.3618477857	 0.108974
H	 1.2514681195	-3.7050527967	-0.1927030738	 0.097838
H	-0.0226426277	-1.5025354842	-1.3534591402	 0.290258
H	 3.1938377764	-1.3869236149	 0.7336712404	 0.288471
86.8299	136.6032	151.3008	194.3962	232.2281	240.2052	300.5116	363.5488	407.5426	444.137	507.4359	523.0062	594.2786	658.9336	788.2587	826.5469	846.7452	898.8532	950.7968	989.7047	1036.136	1043.4415	1087.1024	1102.5409	1136.072	1155.712	1182.3807	1196.309	1218.8694	1231.0188	1244.1683	1293.184	1310.5965	1323.7626	1336.6571	1437.3692	1455.0727	1479.6029	1488.8017	1500.2128	1510.4013	2986.9824	3041.648	3067.8132	3085.1358	3096.1239	3118.7831	3123.0808	3193.0637	3791.7381	3792.6814
COC1C2CC(O)C12O	CO[C@H]1[C@H]2C[C@@H](O)[C@@]12O	
InChI=1S/C6H10O3/c1-9-5-3-2-4(7)6(3,5)8/h3-5,7-8H,2H2,1H3	InChI=1S/C6H10O3/c1-9-5-3-2-4(7)6(3,5)8/h3-5,7-8H,2H2,1H3/t3-,4-,5+,6-/m1/s1
