17
gdb 78081	3.16272	1.33973	1.12372	1.8197	74.87	-0.2322	0.0128	0.245	1115.2383	0.133203	-421.743399	-421.734598	-421.733654	-421.776464	33.434	
C	-0.1067894182	 1.5022075808	 0.0826616297	-0.497806
C	 0.1113727722	 0.026433277	 0.0470036803	 0.391524
O	-1.0471397623	-0.8047204846	-0.1997810565	-0.344853
C	-0.6264920337	-1.7411133112	 0.8458491965	-0.083802
C	-0.6592092503	-3.1386765444	 0.4459008205	 0.315679
C	-0.7166517616	-4.3010664982	 0.1451943188	-0.423009
C	 0.7060845583	-1.011095512	 1.0103264032	-0.245983
C	 1.3160883482	-0.7497465043	-0.3604332591	 0.089021
O	 1.3228217173	-1.6505470096	-1.415070489	-0.432804
H	 0.8278196806	 2.0189228218	 0.3191161	 0.128574
H	-0.4535449349	 1.860267528	-0.8932294693	 0.138887
H	-0.857066353	 1.7743271755	 0.8318043102	 0.129729
H	-1.2718965159	-1.5942152445	 1.7204932366	 0.118904
H	-0.7484238997	-5.3265961906	-0.1301485815	 0.204715
H	 1.2412847627	-0.9034731985	 1.9447826119	 0.103528
H	 2.2544151701	-0.2045861504	-0.3033625803	 0.110796
H	 0.3987383802	-1.8544014348	-1.6129352521	 0.296899
106.0991	129.279	197.3374	220.1599	225.4161	264.6183	314.2889	409.2851	449.3052	502.8345	583.7828	610.9119	621.8042	685.29	688.2222	779.7725	818.356	902.9987	928.0033	938.3815	970.1541	979.9417	1051.1705	1066.9512	1116.5698	1145.8483	1201.4331	1242.533	1270.7948	1304.4925	1354.2953	1379.5621	1415.6342	1474.5238	1485.7718	1504.7118	2234.2651	3028.2799	3033.4719	3098.2506	3116.211	3157.2521	3196.9768	3501.322	3762.7278
CC12OC(C#C)C1C2O	C[C@]12O[C@@H](C#C)[C@H]1[C@H]2O	
InChI=1S/C7H8O2/c1-3-4-5-6(8)7(5,2)9-4/h1,4-6,8H,2H3	InChI=1S/C7H8O2/c1-3-4-5-6(8)7(5,2)9-4/h1,4-6,8H,2H3/t4-,5-,6+,7-/m0/s1
