18
gdb 71853	3.41884	1.64967	1.371	2.3003	74.69	-0.2395	0.0208	0.2603	972.9583	0.149929	-401.933669	-401.926565	-401.925621	-401.964814	28.656	
C	-0.1078156355	 1.5762445484	 0.0065306059	-0.503538
C	-0.0194804312	 0.0774908499	-0.0300692048	 0.303053
C	 0.7482911199	-0.7308863069	-1.0811666842	-0.29551
C	-0.2903227762	-1.8981643502	-0.9322746987	 0.000725
N	 0.2292455831	-3.1019783715	-0.2927380483	-0.264228
C	 0.6234075721	-2.9426829738	 0.8990329512	 0.121504
O	 0.5919571595	-1.8062998378	 1.6436131768	-0.235079
C	-0.2750480579	-0.7784999938	 1.180097542	 0.06599
C	-1.135584844	-0.997621018	-0.0101629235	-0.181187
H	 0.8614750038	 2.0214894352	 0.2612560842	 0.126893
H	-0.4113528648	 1.9771995384	-0.967226634	 0.121456
H	-0.8358001353	 1.9192916576	 0.7489385636	 0.120025
H	 0.6937335425	-0.2640515662	-2.0686216825	 0.104621
H	 1.7901391926	-0.9807274337	-0.8611234567	 0.10689
H	-0.7747300005	-2.1702368922	-1.8690956754	 0.084425
H	 1.0646079183	-3.7564717538	 1.4702789966	 0.124273
H	-0.7079521122	-0.2708073201	 2.0342988296	 0.108074
H	-2.2154712443	-0.9184557516	 0.0006099984	 0.091613
171.0709	196.9422	240.0237	265.0998	354.5854	449.1997	503.6101	556.8095	626.0308	639.8586	759.9137	775.5443	845.8446	875.6423	914.1286	950.7814	961.2175	965.6954	988.3399	1006.2828	1015.5756	1050.1922	1102.5025	1122.8246	1159.6413	1178.4887	1221.0654	1237.0022	1242.9388	1314.7964	1334.6734	1335.6865	1398.037	1416.3847	1444.8366	1484.1464	1492.0348	1500.7288	1706.7976	3021.8994	3051.177	3081.8076	3096.0699	3101.0591	3114.6263	3166.7032	3180.9709	3192.093
CC12CC3N=COC1C23	C[C@@]12C[C@H]3[N][CH]O[C@@H]1[C@@H]23	
InChI=1S/C7H9NO/c1-7-2-4-5(7)6(7)9-3-8-4/h3-6H,2H2,1H3	InChI=1S/C7H9NO/c1-7-2-4-5(7)6(7)9-3-8-4/h3-6H,2H2,1H3/t4-,5+,6-,7+/m1/s1
