23
gdb 84119	2.26297	1.62829	1.1013	0.2064	91.52	-0.2232	0.0308	0.254	1213.8017	0.206817	-351.17038	-351.161503	-351.160559	-351.203573	34.856	
C	-0.8598780264	 1.3208386698	 0.0400013707	-0.398379
C	-0.1103263634	-0.0180174316	 0.0322872092	-0.02748
C	 0.7256962125	-0.2715847177	-1.2070823153	-0.172192
C	 1.929654231	-0.7924803045	-0.9512686543	 0.3134
C	 2.9718170848	-1.1956194556	-1.9482273045	-0.494139
C	 2.1470721773	-0.9727357784	 0.5356523238	-0.111325
C	 3.1137924448	 0.046825908	 1.2061365415	-0.226907
C	 1.8932743624	 0.9567182694	 1.5183025084	-0.222982
C	 0.9290056726	-0.2188613094	 1.1597362764	-0.015338
H	-0.1792511244	 2.1706256124	-0.0684074203	 0.116365
H	-1.5765710178	 1.3665475612	-0.7870487213	 0.110016
H	-1.4206836552	 1.4536556347	 0.9714230845	 0.110149
H	-0.8735519914	-0.8089370411	 0.1114634751	 0.072023
H	 0.3485107005	-0.0665586829	-2.2055706433	 0.076351
H	 2.6593803482	-0.9775308789	-2.973217537	 0.12037
H	 3.9219671696	-0.6782749252	-1.7650630728	 0.124525
H	 3.1874658722	-2.2700762947	-1.8802854948	 0.122311
H	 2.3117365959	-2.0247129168	 0.798127026	 0.061232
H	 3.5776655889	-0.3594420351	 2.1092993398	 0.09555
H	 3.9016837285	 0.4721965436	 0.5776426961	 0.091929
H	 1.823930079	 1.3442492317	 2.5374144943	 0.094001
H	 1.8144602062	 1.7997609951	 0.8288186548	 0.102325
H	 0.5010943242	-0.683855354	 2.050610513	 0.058196
97.1257	142.7284	187.1145	217.0983	220.5582	236.461	315.752	373.7812	478.49	529.6225	575.2465	666.7754	695.206	754.113	809.3115	843.5512	870.6612	891.1383	924.1943	955.6955	969.7817	1010.9692	1018.9419	1027.033	1049.2839	1063.3625	1098.3641	1124.912	1151.4919	1174.8935	1202.3184	1231.8557	1247.1234	1267.403	1270.5488	1285.8011	1301.8907	1342.4452	1346.7795	1364.7699	1407.9289	1413.8803	1474.5802	1479.6863	1488.9959	1492.214	1498.3403	1501.4754	1711.8509	2962.5397	3015.0855	3025.6555	3030.8072	3050.0659	3060.7983	3066.5985	3079.3977	3094.2973	3094.503	3104.2538	3107.7723	3121.8282	3164.9067
CC1C=C(C)C2CCC12	C[C@H]1C=C(C)[C@H]2CC[C@@H]12	
InChI=1S/C9H14/c1-6-5-7(2)9-4-3-8(6)9/h5-6,8-9H,3-4H2,1-2H3	InChI=1S/C9H14/c1-6-5-7(2)9-4-3-8(6)9/h5-6,8-9H,3-4H2,1-2H3/t6-,8-,9+/m0/s1
