19
gdb 56198	4.68348	0.74168	0.68464	2.022	73.24	-0.2517	0.0178	0.2695	1666.6221	0.15731	-460.179659	-460.169886	-460.168942	-460.216843	33.092	
C	-0.0428145254	 1.412008641	-0.0841057532	-0.478025
C	 0.1416971221	-0.0781973389	 0.0684204871	 0.431186
O	 0.2994462081	-0.6676776592	 1.1072982832	-0.350198
O	 0.1048438062	-0.6880068862	-1.1364673026	-0.239994
C	 0.2421497262	-2.1161283269	-1.1161157441	-0.069236
C	 0.1691297268	-2.6106731481	-2.5413185829	 0.138329
C	 0.2151568206	-4.1420630501	-2.7363904891	-0.303465
C	-1.1460928301	-3.9445321236	-3.4337908203	-0.05774
O	-1.1612316417	-2.5397130893	-3.1026134304	-0.289274
H	 0.0326479444	 1.8888694585	 0.8922526592	 0.147194
H	 0.713094236	 1.8187177744	-0.7614256281	 0.148628
H	-1.0209534985	 1.6213272726	-0.5267092954	 0.154443
H	 1.2038496474	-2.3888976793	-0.665218618	 0.118156
H	-0.5560339221	-2.5550445984	-0.5093695398	 0.122531
H	 0.8835026071	-2.0506417236	-3.1597974626	 0.083304
H	 1.0294836592	-4.5240393941	-3.3526094371	 0.116073
H	 0.1699998662	-4.7124448693	-1.8057518766	 0.115747
H	-1.1386346891	-4.1071991863	-4.5189767807	 0.104035
H	-2.0003770032	-4.4779412632	-3.0017966588	 0.108305
29.1637	53.0292	69.5383	82.31	126.7373	190.5589	264.9654	307.6428	449.5054	466.5095	606.5485	638.6552	743.6459	812.5515	879.4753	898.7361	921.5581	969.9528	990.8093	1017.9425	1060.7961	1065.874	1073.558	1108.5199	1155.2898	1174.926	1217.103	1250.1771	1260.4496	1267.6634	1295.5878	1342.9338	1373.5285	1393.2793	1423.4832	1469.5129	1475.7768	1490.0159	1491.6792	1532.9571	1824.9732	3012.1605	3019.4337	3037.8994	3057.4436	3059.4929	3076.6305	3093.0996	3122.4603	3135.4838	3169.2025
CC(=O)OCC1CCO1	CC(=O)OC[C@H]1CCO1	
InChI=1S/C6H10O3/c1-5(7)9-4-6-2-3-8-6/h6H,2-4H2,1H3	InChI=1S/C6H10O3/c1-5(7)9-4-6-2-3-8-6/h6H,2-4H2,1H3/t6-/m1/s1
