21
gdb 104296	2.78807	1.32908	1.16582	0.9632	76.78	-0.2567	0.0624	0.3191	1149.1304	0.182659	-424.220527	-424.211667	-424.210723	-424.253639	34.479	
C	-0.4922330583	 1.6399288616	 0.1617719333	-0.466016
C	 0.0220180627	 0.2005682669	 0.0300337279	 0.251806
C	-1.1521174716	-0.7891200511	-0.1260237502	-0.101509
O	-1.9265172685	-0.5730109975	-1.2948102641	-0.421268
C	 1.0347155298	 0.0437681039	-1.143167264	-0.256265
C	 2.0582898658	-1.032105165	-0.7036672101	-0.252698
C	 2.0426122773	-0.9496699751	 0.8086811014	 0.051322
O	 2.1316656872	 0.3938812383	 1.3112521212	-0.273591
C	 0.8415897263	-0.2276421386	 1.2425050788	 0.019968
H	 0.336257962	 2.316785087	 0.3875747759	 0.138686
H	-0.9553499229	 1.98506092	-0.7695117258	 0.110319
H	-1.2327937866	 1.7317512702	 0.9657351101	 0.106927
H	-0.7699944854	-1.8119824276	-0.2150842065	 0.10886
H	-1.7831097748	-0.7567987335	 0.777391576	 0.085148
H	-2.3751573188	 0.2729245718	-1.2016275129	 0.286156
H	 0.5160786483	-0.2151438931	-2.0686537252	 0.114324
H	 1.5499834645	 0.9929877974	-1.3056199758	 0.107265
H	 1.7470155494	-2.0391961027	-1.0070442413	 0.105522
H	 3.0531237784	-0.8604689223	-1.12612453	 0.108901
H	 2.530656115	-1.7043965678	 1.4207360689	 0.091303
H	 0.3576897103	-0.4009985029	 2.2023509022	 0.084839
100.1397	144.0802	178.1049	240.2687	269.0342	305.7797	328.2093	342.4766	386.5486	409.379	525.334	629.9009	688.7252	764.7788	831.626	835.3551	870.4041	907.5762	930.9378	939.4001	985.063	1000.4134	1014.2403	1041.1267	1078.1542	1110.2559	1127.2828	1158.3788	1189.025	1239.6973	1249.146	1259.267	1276.4907	1318.6468	1331.0348	1367.005	1382.7327	1404.8475	1423.5545	1437.9228	1482.8194	1494.2661	1497.3392	1504.0905	1511.6322	2968.2096	3022.1924	3037.376	3066.1273	3072.1458	3083.9163	3085.3607	3112.0575	3122.1489	3124.4676	3146.8196	3824.9094
CC1(CO)CCC2OC12	C[C@@]1(CO)CC[C@H]2O[C@@H]12	
InChI=1S/C7H12O2/c1-7(4-8)3-2-5-6(7)9-5/h5-6,8H,2-4H2,1H3	InChI=1S/C7H12O2/c1-7(4-8)3-2-5-6(7)9-5/h5-6,8H,2-4H2,1H3/t5-,6-,7+/m1/s1
