17
gdb 74682	3.58913	1.44754	1.21913	1.5539	73.68	-0.2203	0.0231	0.2434	1034.6814	0.13943	-418.048152	-418.040991	-418.040047	-418.079789	28.48	
N	-0.1491545868	 1.3973100217	 0.0801666106	-0.574857
C	-0.1443775179	 0.0295966263	 0.0167874935	 0.462626
N	-1.0878741442	-0.753914406	 0.3664663059	-0.356851
C	-0.6506946974	-2.0976021168	-0.0371501465	-0.047375
C	-1.3632219989	-2.6201985053	-1.2646802221	-0.062272
C	-0.5366200968	-2.8186701236	-2.2888288865	-0.068084
C	 0.9020820891	-2.4996628359	-1.9548354175	-0.280107
C	 0.8244982839	-1.9201801806	-0.5288411673	 0.07547
O	 0.9948403964	-0.4835403559	-0.5276097699	-0.263499
H	 0.7581372617	 1.8254338837	 0.1829168115	 0.260428
H	-0.8643505284	 1.7728270532	 0.6832129665	 0.266743
H	-0.7469669141	-2.7858901911	 0.8112082561	 0.078404
H	-2.4351241599	-2.7778553795	-1.2734614493	 0.100901
H	-0.8318844589	-3.1794535534	-3.2682234278	 0.094733
H	 1.5348182946	-3.396222208	-1.9840016593	 0.107566
H	 1.3532591977	-1.7764175727	-2.6433590645	 0.121182
H	 1.5807387199	-2.3363332859	 0.1412551564	 0.084991
94.6658	141.8973	308.4623	318.725	398.8896	455.5778	488.7735	554.6548	613.7864	673.9264	732.4627	756.8262	788.2468	829.9076	867.9157	898.2273	948.3343	971.3565	980.4583	1002.7888	1039.5078	1047.9394	1058.4739	1127.2221	1172.3313	1200.8665	1248.8651	1276.0948	1308.1174	1329.2624	1345.9747	1380.7225	1431.1277	1475.9191	1616.1707	1686.0731	1749.47	3024.1427	3025.6935	3065.2884	3078.0988	3185.8051	3215.4049	3587.4345	3700.9671
NC1=NC2C=CCC2O1	NC1=N[C@H]2C=CC[C@H]2O1	
InChI=1S/C6H8N2O/c7-6-8-4-2-1-3-5(4)9-6/h1-2,4-5H,3H2,(H2,7,8)	InChI=1S/C6H8N2O/c7-6-8-4-2-1-3-5(4)9-6/h1-2,4-5H,3H2,(H2,7,8)/t4-,5+/m0/s1
