18
gdb 116765	5.44829	0.59349	0.55332	4.9785	80.99	-0.247	0.0024	0.2493	1959.104	0.143987	-439.033032	-439.022544	-439.0216	-439.069961	36.118	
C	 0.01238959	 1.2970607623	-0.1491871685	-0.250777
O	-0.0366271073	-0.1234679849	-0.0490555481	-0.191369
C	 0.606495313	-0.6573492954	 1.001206281	 0.132962
N	 0.6104305508	-1.9029180217	 1.1865651358	-0.237785
C	 1.3067267545	-2.4272488705	 2.3442471562	-0.170295
C	 0.3454053377	-3.3914363434	 3.0787723581	-0.04146
O	-0.1508779861	-4.3617592747	 2.1760134794	-0.431496
C	 1.0199798218	-4.0514714524	 4.1940420636	 0.343741
C	 1.5952762538	-4.5555477823	 5.12022578	-0.456617
H	 1.0450605905	 1.6570752394	-0.2257208499	 0.132228
H	-0.5258249499	 1.557346394	-1.0608182282	 0.152252
H	-0.4777422853	 1.7749215183	 0.7071186976	 0.132474
H	 1.1151929267	 0.0709490936	 1.6513608127	 0.083425
H	 2.1696925332	-3.0130085571	 2.0071489811	 0.12521
H	 1.66338816	-1.6506799975	 3.0383506316	 0.095032
H	-0.4840000187	-2.785228143	 3.4840697859	 0.089244
H	-0.329236664	-3.8690037558	 1.3614477532	 0.296102
H	 2.0920352596	-5.0148417491	 5.9387665083	 0.19713
42.5429	57.1165	72.4648	133.8427	154.0426	191.6082	241.6572	252.6183	348.0878	418.8572	432.9291	485.297	541.2963	575.1435	624.4448	627.4713	671.599	877.0369	977.7953	988.0127	1030.1563	1055.8804	1085.3193	1125.4714	1176.5967	1179.326	1239.7075	1281.3502	1289.1995	1337.4584	1360.4926	1413.1088	1449.0581	1480.8837	1486.819	1495.3534	1499.9155	1775.4132	2243.5649	2942.3283	2985.1696	3000.699	3021.6385	3063.889	3085.522	3150.8086	3504.6191	3729.5824
COC=NCC(O)C#C	COC=NC[C@@H](O)C#C	
InChI=1S/C6H9NO2/c1-3-6(8)4-7-5-9-2/h1,5-6,8H,4H2,2H3	InChI=1S/C6H9NO2/c1-3-6(8)4-7-5-9-2/h1,5-6,8H,4H2,2H3/t6-/m0/s1
