22
gdb 6859	3.08822	1.74233	1.53974	1.2611	77.44	-0.242	0.0771	0.3191	974.3609	0.201471	-350.225965	-350.21774	-350.216795	-350.257694	32.858	
C	 0.013841694	 1.5276554659	 0.0245711524	-0.425713
C	-0.0437209032	-0.0059311042	-0.0064343879	 0.261748
C	-1.5108599299	-0.4693310602	 0.0407909281	-0.411829
C	 0.6700291188	-0.532837461	-1.2748441771	-0.212025
C	 0.8910656362	-2.0522267841	-1.2330965247	-0.218623
C	 1.5454938037	-2.4524519278	 0.0904850777	-0.063153
O	 0.8058756692	-1.9789364513	 1.2042041152	-0.249137
C	 0.713276556	-0.5650739026	 1.2158792751	-0.082172
H	 1.0472073769	 1.891616865	 0.0004562086	 0.108724
H	-0.5090107338	 1.9542473115	-0.8385512365	 0.111951
H	-0.4612148124	 1.9250063632	 0.9288412306	 0.109588
H	-2.0471744371	-0.1710051334	-0.8667751301	 0.104792
H	-1.5856877868	-1.5542441823	 0.145030001	 0.126036
H	-2.0287393726	-0.0203519814	 0.8957776402	 0.107337
H	 0.1038529667	-0.248544898	-2.1698858018	 0.089607
H	 1.6474106767	-0.0365255544	-1.3540968135	 0.087705
H	-0.0623846635	-2.5822019184	-1.336347021	 0.105971
H	 1.525348147	-2.3708229633	-2.0687005656	 0.092083
H	 1.5999317193	-3.5398244819	 0.1988593317	 0.102295
H	 2.5763565854	-2.0567804435	 0.1322564586	 0.08068
H	 1.7253924133	-0.1238229184	 1.2537552112	 0.075712
H	 0.197158416	-0.3011863595	 2.1453136479	 0.098423
156.7966	211.3725	227.4296	245.7251	298.3708	313.9612	363.8017	399.5508	430.3391	461.2607	485.2087	593.0772	726.2589	852.8025	871.3311	895.6793	909.7677	930.6721	950.1964	981.1356	1007.1806	1049.635	1058.8238	1083.5393	1124.0416	1191.1506	1203.1134	1236.3804	1244.1917	1289.7805	1324.	1336.2326	1355.2549	1378.0156	1390.3009	1400.6523	1413.1685	1430.2905	1475.9533	1483.9279	1484.7164	1491.2574	1495.6134	1502.8269	1506.2793	1515.8294	2943.0001	2949.3541	3007.1189	3021.9008	3030.8036	3034.1464	3053.5448	3066.5861	3074.9987	3082.7323	3087.8252	3091.2268	3093.6269	3122.0026
CC1(C)CCCOC1	CC1(C)CCCOC1	
InChI=1S/C7H14O/c1-7(2)4-3-5-8-6-7/h3-6H2,1-2H3	InChI=1S/C7H14O/c1-7(2)4-3-5-8-6-7/h3-6H2,1-2H3
