14
gdb 81088	2.00646	1.83557	1.17899	2.022	65.14	-0.2609	-0.0502	0.2107	1021.8102	0.099666	-473.761787	-473.754	-473.753056	-473.794517	28.571	
O	 0.1939409066	 1.3920317023	-0.0938265958	-0.438258
C	 0.116328144	 0.0158559897	-0.0602627724	 0.178572
C	 0.0049640637	-0.6812900773	 1.3408973145	-0.207823
N	-1.4078973916	-0.0927733733	 1.3895197092	-0.363377
C	-1.329855776	-0.6347148562	-0.0317965571	 0.036551
C	-2.4527424079	-0.5408034109	-0.9945925641	 0.036703
O	-3.5535170529	-0.1468229347	-0.6979620999	-0.244312
C	-0.6241923271	-1.8770821656	 0.6192859667	 0.415594
O	-0.7082578921	-3.0607780254	 0.6615529567	-0.29874
H	-0.458567319	 1.7167632043	 0.5452174702	 0.304803
H	 0.8323908652	-0.4005226429	-0.7682560397	 0.119818
H	 0.6811840351	-0.6228816665	 2.1909984937	 0.117585
H	-2.0443566046	-0.6412673828	 1.9710912554	 0.250089
H	-2.2045247633	-0.8822047705	-2.0226092673	 0.092795
73.6698	159.3956	182.8287	208.727	263.0898	328.0393	491.2187	557.0615	566.318	575.0859	668.2126	718.2231	753.0959	796.7311	836.1108	923.3739	961.6339	1012.9577	1043.5808	1086.573	1151.2892	1167.8884	1172.629	1211.0463	1246.947	1305.7297	1322.791	1422.7465	1452.4568	1804.158	1917.4283	2902.3645	3132.6622	3154.5803	3449.3159	3728.5427
OC1C2NC1(C=O)C2=O	O[C@H]1[C@H]2N[C@]1(C=O)C2=O	
InChI=1S/C5H5NO3/c7-1-5-3(8)2(6-5)4(5)9/h1-3,6,8H	InChI=1S/C5H5NO3/c7-1-5-3(8)2(6-5)4(5)9/h1-3,6,8H/t2-,3+,5+/m1/s1
