14
gdb 17516	4.65459	1.87392	1.67888	2.493	61.1	-0.2461	-0.045	0.201	774.5189	0.106263	-382.47177	-382.465337	-382.464393	-382.502919	24.199	
O	-0.8183086692	 0.9997605793	 0.3314382543	-0.251958
C	 0.3012546803	 0.785122127	-0.0594833759	 0.041246
C	 1.3640588615	 1.83302347	-0.1047467197	 0.334587
C	 1.6821255492	 2.7879828092	 1.0830146486	-0.260095
C	 2.3337737282	 3.6754517591	 0.027321173	-0.123354
C	 2.9004144131	 2.6849464372	-1.0119176769	 0.099532
O	 2.6674309687	 1.3587664611	-0.5381365454	-0.329035
C	 1.4698077692	 3.084012274	-1.0807885095	-0.180881
H	 0.6269927503	-0.2115869675	-0.4277957321	 0.099083
H	 0.7644490813	 3.2276348345	 1.4774996638	 0.130222
H	 2.2954520213	 2.3624445525	 1.8827337135	 0.108109
H	 2.692813977	 4.6920201639	 0.1212865502	 0.101287
H	 3.7438848822	 2.8708603315	-1.6627289642	 0.116735
H	 0.822752387	 3.502742618	-1.8382022196	 0.114523
50.2773	180.874	228.4955	419.6252	496.381	546.3749	680.9565	753.9304	759.5962	782.9341	817.2248	835.8171	934.0988	946.2996	970.071	1002.5299	1025.881	1042.1621	1061.6882	1079.8161	1091.7499	1148.5918	1165.6179	1234.7399	1277.0118	1298.9334	1358.2908	1405.2384	1486.0428	1821.1847	2906.6456	3058.6086	3134.8239	3203.4402	3211.6234	3226.6338
O=CC12CC3C(O1)C23	O=C[C@@]12C[C@H]3[C@@H](O1)[C@@H]23	
InChI=1S/C6H6O2/c7-2-6-1-3-4(6)5(3)8-6/h2-5H,1H2	InChI=1S/C6H6O2/c7-2-6-1-3-4(6)5(3)8-6/h2-5H,1H2/t3-,4+,5-,6-/m1/s1
