20
gdb 9554	2.7568	1.61162	1.48218	1.165	70.74	-0.2487	0.069	0.3177	1000.5173	0.175116	-386.131299	-386.122052	-386.121108	-386.164554	34.628	
C	-0.0285163213	 1.5629214866	 0.0834435244	-0.418068
C	-0.0777461072	 0.0376856311	-0.0609734894	-0.203255
C	 0.6966169597	-0.4921627803	-1.2732409187	 0.387469
O	 0.2078095601	 0.0427414964	-2.4896053819	-0.48876
C	 2.2510323031	-0.4965296113	-1.0840946036	-0.285298
C	 2.1647260792	-1.9942245758	-0.6837069368	-0.271547
C	 0.7562354944	-2.0366121833	-1.3352847967	 0.103817
O	-0.2949917199	-2.7028390428	-0.6770719303	-0.432732
H	 0.9995349099	 1.9368633703	 0.1464699384	 0.117801
H	-0.5212997377	 2.0685952327	-0.7554349551	 0.110235
H	-0.5504859706	 1.882091842	 0.9901973305	 0.120716
H	 0.3197281989	-0.4295067306	 0.8466794316	 0.100304
H	-1.1157914906	-0.2973179215	-0.1492732764	 0.118142
H	 0.2239045185	 1.0032338254	-2.4271587486	 0.275173
H	 2.7506033274	-0.3495901179	-2.0444229728	 0.104987
H	 2.6732332703	 0.1937112818	-0.3501670536	 0.095408
H	 2.9254753926	-2.6715691809	-1.0774735256	 0.094375
H	 2.0928989415	-2.1289966352	 0.3987686766	 0.107815
H	 0.8232396301	-2.3310249056	-2.3911115127	 0.078284
H	-0.2142205886	-3.6452384111	-0.850721229	 0.285133
111.8874	127.013	179.5657	189.814	217.3157	247.9746	284.1274	311.0619	365.327	419.3875	489.6072	560.4367	618.221	714.0009	783.2574	797.6712	873.6494	926.7414	940.4909	977.2803	1008.2562	1034.426	1086.6576	1104.9245	1135.3435	1162.2421	1189.3004	1195.3563	1231.6777	1257.1161	1279.1332	1300.8602	1319.9647	1338.6723	1388.9535	1410.1531	1435.125	1476.7862	1477.1711	1497.8838	1501.9663	1512.3523	3016.433	3026.8493	3049.3872	3061.8665	3067.5003	3077.7573	3099.3008	3106.2683	3111.7102	3127.8634	3813.8845	3828.9076
CCC1(O)CCC1O	CC[C@@]1(O)CC[C@H]1O	
InChI=1S/C6H12O2/c1-2-6(8)4-3-5(6)7/h5,7-8H,2-4H2,1H3	InChI=1S/C6H12O2/c1-2-6(8)4-3-5(6)7/h5,7-8H,2-4H2,1H3/t5-,6-/m1/s1
