23
gdb 107409	3.17385	1.11	0.94621	1.4635	85.6	-0.231	0.0848	0.3157	1366.3597	0.205441	-388.293494	-388.28414	-388.283196	-388.32756	36.034	
C	 0.2390652863	 1.4928863375	-0.308005713	-0.372219
C	-0.0555210249	 0.0283254287	 0.0403880559	-0.283666
C	 0.6430794705	-0.4434534972	 1.2976401389	 0.348032
C	 2.0951965347	-0.892510418	 1.2362237172	-0.353131
C	 1.0029101035	-1.8824117249	 1.5480144905	 0.041403
O	 0.8211472164	-2.1940836044	 2.9036808005	-0.278494
C	-0.0641757319	-1.2167558059	 3.475494142	 0.16601
C	 0.2065760631	-1.1217899333	 4.9660851389	-0.401879
C	 0.1736685947	 0.0762930863	 2.6629720915	-0.326509
H	 1.3119098219	 1.6520019784	-0.4586436982	 0.11876
H	-0.2794009974	 1.7926892965	-1.2240256929	 0.11038
H	-0.0853695547	 2.1658277656	 0.4928901425	 0.116891
H	-1.1393248991	-0.1108816654	 0.1547719782	 0.094047
H	 0.2467144227	-0.610929042	-0.7985042381	 0.094313
H	 2.561101544	-0.9418286333	 0.2560924107	 0.104505
H	 2.7615876455	-0.623233615	 2.0490889024	 0.109981
H	 0.7572139113	-2.6849130372	 0.8576650247	 0.089569
H	-1.1023208173	-1.5509059879	 3.3110528464	 0.065339
H	 1.2342852507	-0.791812002	 5.1474829085	 0.11917
H	-0.477888664	-0.4072630629	 5.4342987055	 0.113617
H	 0.0683788426	-2.0946627759	 5.4460776589	 0.125739
H	 0.9261106407	 0.7091360076	 3.1475995326	 0.098683
H	-0.7448729195	 0.6647817548	 2.5756591965	 0.099457
81.3897	88.7674	151.3247	202.404	233.9352	281.4947	302.3223	368.158	380.9164	448.8088	464.1585	580.9971	651.5034	751.5659	790.7933	814.5901	859.0776	902.5253	908.0845	934.1872	950.4306	981.1406	1008.272	1031.7301	1054.4673	1062.0459	1095.8662	1104.5465	1134.032	1148.3598	1159.2048	1209.3496	1255.6699	1274.5134	1292.0125	1332.5381	1353.7342	1371.4657	1384.0248	1406.2297	1410.9242	1411.3232	1472.9273	1481.159	1483.9421	1495.6628	1497.1412	1501.6146	1507.3	2956.2597	3010.6155	3032.4227	3034.7138	3039.7148	3046.8428	3084.203	3100.6433	3104.817	3112.1375	3117.462	3117.6391	3141.9175	3210.1344
CCC12CC1OC(C)C2	CC[C@]12C[C@H]1O[C@@H](C)C2	
InChI=1S/C8H14O/c1-3-8-4-6(2)9-7(8)5-8/h6-7H,3-5H2,1-2H3	InChI=1S/C8H14O/c1-3-8-4-6(2)9-7(8)5-8/h6-7H,3-5H2,1-2H3/t6-,7+,8-/m0/s1
