16
gdb 20549	4.45221	1.5641	1.2569	1.0688	65.27	-0.2896	-0.0213	0.2683	968.9935	0.130835	-379.934711	-379.927096	-379.926152	-379.9671	27.457	
C	-0.1787057826	 1.6189104463	-0.0346315158	-0.386959
C	 0.0403367966	 0.1020814916	-0.0369635397	-0.082043
C	-1.2847007989	-0.6738040658	 0.0909759226	-0.389985
C	 0.7928554811	-0.3663079143	-1.2478831988	 0.379148
N	 1.105328505	 0.4088108165	-2.2531747881	-0.180352
O	 1.7841028696	-0.4463246268	-3.1361296081	-0.158424
C	 1.7974171738	-1.6414500446	-2.5476270262	 0.104381
N	 1.2147851138	-1.6789186198	-1.3947536169	-0.30903
H	 0.7678944299	 2.1612675959	-0.0993595677	 0.129027
H	-0.795505889	 1.9271220796	-0.8839281895	 0.132318
H	-0.6885311272	 1.9195816884	 0.8852964596	 0.111091
H	 0.663962239	-0.1688664728	 0.8256824874	 0.105908
H	-1.9576175571	-0.4297991537	-0.7378731259	 0.123059
H	-1.110026379	-1.7523099589	 0.0853264557	 0.139127
H	-1.7870720716	-0.4071772846	 1.0255450293	 0.117408
H	 2.2849415465	-2.4459465571	-3.0790629478	 0.165325
49.62	166.7998	202.6273	224.9841	265.6583	321.4311	427.0707	471.2385	630.1317	636.4336	775.5519	887.0807	906.5063	908.1572	935.2462	970.014	986.5237	997.6024	1117.3933	1129.8939	1149.6519	1184.9495	1270.3506	1318.5697	1328.7106	1391.6949	1402.7284	1423.0182	1486.9051	1489.6668	1499.8904	1504.4933	1528.6908	1600.466	3018.7352	3038.5596	3045.4667	3107.7946	3116.4843	3122.7848	3127.3573	3263.1541
CC(C)C1=NOC=N1	CC(C)c1nocn1	
InChI=1S/C5H8N2O/c1-4(2)5-6-3-8-7-5/h3-4H,1-2H3	InChI=1S/C5H8N2O/c1-4(2)5-6-3-8-7-5/h3-4H,1-2H3
