19
gdb 80026	2.34435	2.02933	1.39281	1.4525	79.92	-0.2115	0.0082	0.2197	987.6766	0.159858	-381.970857	-381.963254	-381.96231	-382.00234	31.067	
C	 0.0841029133	 1.4218900339	-0.4163432778	-0.331732
N	 0.0400876833	 0.0049046053	-0.0628267662	-0.081918
C	-1.1197551321	-0.4287036518	 0.8258642633	-0.171034
C	-0.782625212	-1.9204176192	 0.941206281	-0.077298
C	 0.5343025281	-1.9004256928	 1.16794836	-0.050824
C	 0.8518385815	-0.4025129898	 1.1636089129	-0.150998
C	-0.3196516274	 0.1183811323	 2.0423349295	 0.437223
C	-0.515694441	 1.331329758	 2.8553967991	-0.340235
N	-0.50762325	-0.0220338907	 3.4666077644	-0.392861
H	 1.05504392	 1.6313499105	-0.8780253544	 0.120153
H	-0.6846633791	 1.6135559789	-1.1728368401	 0.118332
H	-0.062787958	 2.1338734191	 0.4089599659	 0.104917
H	-2.1280953512	-0.1097116995	 0.5597848139	 0.066463
H	-1.4701308825	-2.7478847565	 0.8485627555	 0.105106
H	 1.2348271119	-2.7074059515	 1.3215972445	 0.108126
H	 1.8810931268	-0.0557472364	 1.2463934849	 0.070723
H	 0.325382772	 1.9601148039	 3.1365647339	 0.121817
H	-1.4615468692	 1.861977289	 2.7671324196	 0.112906
H	-1.4519217844	-0.3298558526	 3.6851427102	 0.231135
178.2765	186.8553	238.2767	277.3629	306.2836	312.6409	458.4914	548.0249	551.5181	622.1748	667.8748	753.622	780.1295	819.1568	874.9078	903.3354	908.241	918.8425	928.658	938.2856	966.264	1002.5102	1036.8139	1099.6128	1125.5695	1135.6771	1139.3502	1161.3295	1172.372	1211.8981	1227.2119	1237.8392	1254.0796	1270.3392	1315.9491	1416.479	1441.236	1485.179	1503.5266	1517.1216	1615.8105	2991.2337	3062.7084	3092.5523	3096.5319	3116.0808	3133.0172	3178.2521	3231.3999	3257.8677	3500.8026
CN1C2C=CC1C21CN1	CN1[C@H]2C=C[C@@H]1[C@]12CN1	
InChI=1S/C7H10N2/c1-9-5-2-3-6(9)7(5)4-8-7/h2-3,5-6,8H,4H2,1H3	InChI=1S/C7H10N2/c1-9-5-2-3-6(9)7(5)4-8-7/h2-3,5-6,8H,4H2,1H3/t5-,6+,7+
