14
gdb 132612	3.13413	1.38798	0.96271	3.1824	69.77	-0.2024	-0.0119	0.1905	1113.8893	0.102135	-478.041144	-478.033738	-478.032794	-478.072764	29.134	
N	 0.0416388252	 1.3563720588	-0.1908415069	-0.567895
C	-0.0100135058	-0.0240186861	-0.0845984833	 0.374103
C	-1.2254131272	-0.7135220239	 0.0028871735	-0.200623
C	-1.1891809612	-2.1033207846	 0.0465785767	-0.183535
C	 0.0277561153	-2.7547733855	-0.0000363207	 0.155538
F	 0.1070466427	-4.089731837	 0.0393105664	-0.071749
C	 1.1906534733	-1.9851500391	-0.0864933327	 0.313621
O	 2.3858474737	-2.6062903588	-0.1288160853	-0.411114
N	 1.1697129081	-0.6612783578	-0.122191305	-0.420865
H	 0.9460680841	 1.7458626255	 0.0300028765	 0.253232
H	-0.7282251431	 1.862725003	 0.2180802508	 0.251088
H	-2.1671573408	-0.1785739264	 0.0279370072	 0.091752
H	-2.0985087082	-2.6898772103	 0.1157284021	 0.118847
H	 3.0454113039	-1.9016622877	-0.1905886493	 0.297597
135.1637	241.1555	289.6878	328.7361	362.1942	373.0418	450.9076	476.368	526.4835	537.8702	561.8919	599.1141	697.6274	756.8873	772.729	793.0314	817.4226	948.7226	986.2984	1090.6058	1132.2421	1214.0201	1270.5912	1295.1069	1372.0759	1388.9772	1485.3884	1539.4386	1637.4228	1641.713	1675.4627	3190.9026	3205.8449	3577.244	3688.4777	3771.4101
NC1=CC=C(F)C(O)=N1	Nc1ccc(F)c(O)n1	
InChI=1S/C5H5FN2O/c6-3-1-2-4(7)8-5(3)9/h1-2H,(H3,7,8,9)	InChI=1S/C5H5FN2O/c6-3-1-2-4(7)8-5(3)9/h1-2H,(H3,7,8,9)
