19
gdb 75555	2.0861	1.64878	1.1049	1.5528	83.9	-0.2397	0.0173	0.257	1161.6486	0.158582	-385.86408	-385.855228	-385.854284	-385.897471	33.602	
C	 0.0067502809	 1.5158199574	 0.0665612531	-0.480585
C	 0.0061831385	 0.0171553153	-0.0226797357	 0.309037
C	-0.055912351	-0.658049461	-1.1692166065	-0.164911
C	-0.0131019688	-2.1578449521	-1.2538223247	-0.120703
O	 0.3312326888	-2.7819879355	-0.0327518879	-0.240286
C	-0.3459781429	-2.2163201979	 1.0659058839	-0.0977
C	 0.079930368	-0.7498142049	 1.29597045	-0.261355
C	 1.4080747368	-0.6430493629	 1.9010348101	 0.359856
C	 2.4985829483	-0.5525957112	 2.3989701842	-0.4941
H	 0.9033023493	 1.8710781704	 0.5883778526	 0.140642
H	-0.0213368237	 1.9771612693	-0.9240167159	 0.120747
H	-0.8560372971	 1.8801642411	 0.639441865	 0.121143
H	-0.1458215175	-0.1275140893	-2.1146820601	 0.087372
H	-0.9859465268	-2.53830052	-1.6193775756	 0.0957
H	 0.7423573448	-2.4775071599	-1.9813116433	 0.120962
H	-1.4372369594	-2.2434755061	 0.9102887756	 0.088053
H	-0.1021511225	-2.8307869673	 1.9355092601	 0.117527
H	-0.645527994	-0.3038810136	 1.9935632513	 0.102592
H	 3.4640230782	-0.4788512918	 2.8346857437	 0.19601
76.3698	134.2244	176.5748	191.099	266.1662	311.7578	321.1859	378.9156	441.8173	466.3755	581.0508	615.9215	634.899	648.4821	711.4642	824.1148	848.4695	866.4655	925.2155	975.7305	1033.1333	1040.7244	1046.852	1072.9311	1117.6288	1166.0354	1180.7173	1248.6955	1279.7612	1301.996	1331.802	1349.8648	1382.4409	1411.922	1420.6201	1476.7954	1484.4708	1492.0942	1496.502	1749.9128	2231.9978	2924.5244	2967.4374	2991.168	3018.0142	3051.2766	3070.396	3103.0266	3114.3644	3151.631	3504.5873
CC1=CCOCC1C#C	CC1=CCOC[C@H]1C#C	
InChI=1S/C8H10O/c1-3-8-6-9-5-4-7(8)2/h1,4,8H,5-6H2,2H3	InChI=1S/C8H10O/c1-3-8-6-9-5-4-7(8)2/h1,4,8H,5-6H2,2H3/t8-/m1/s1
