17
gdb 50524	2.83925	1.35242	1.10215	3.5137	69.18	-0.2473	-0.0342	0.2131	1117.4155	0.134167	-458.922013	-458.913596	-458.912652	-458.956377	29.72	
O	-0.5045855083	 0.4502621966	 0.0739362458	-0.237487
C	 0.0409581376	 1.4906075518	 0.3286503837	 0.13122
C	 1.4262027054	 1.8805814022	-0.1194861927	-0.001253
O	 2.1670706005	 0.843815988	-0.7620777269	-0.274033
C	 2.4271973512	 1.664628805	-1.9188707535	-0.11582
C	 1.5229615052	 2.7916926906	-1.3905055656	 0.335932
C	 0.312280406	 3.3478721297	-2.1658108069	-0.353952
C	 0.9606210915	 4.7202510243	-1.9031803532	-0.076022
O	 2.0811177439	 4.0936269885	-1.2318006696	-0.299859
H	-0.465415881	 2.2921374765	 0.9187297227	 0.073546
H	 1.9678322437	 2.3359911618	 0.7243305262	 0.103407
H	 3.480021557	 1.9632470771	-1.993669343	 0.117255
H	 2.1074006949	 1.178974622	-2.8481594492	 0.113399
H	 0.2807448679	 3.0417721111	-3.2129463785	 0.125147
H	-0.668708704	 3.181468642	-1.7196295133	 0.128962
H	 1.2814414959	 5.2827797474	-2.7858236257	 0.116219
H	 0.4097156425	 5.3875094754	-1.2310782204	 0.113338
51.7826	72.3952	84.1991	217.7706	224.7917	281.9237	357.3896	449.0053	486.2815	749.2961	769.9593	776.0607	869.3688	871.2616	894.7334	941.8166	975.9251	986.2777	1022.9582	1026.9138	1117.474	1125.8395	1150.1209	1164.2416	1177.4808	1217.2097	1221.7043	1231.6129	1278.8652	1327.3141	1355.4594	1365.1395	1417.0434	1487.4598	1506.5682	1530.4499	1837.0891	2842.4029	2993.0755	3020.6115	3034.558	3073.6369	3079.9697	3086.4879	3140.5906
O=CC1OCC11CCO1	O=C[C@H]1OC[C@]21CCO2	
InChI=1S/C6H8O3/c7-3-5-6(4-8-5)1-2-9-6/h3,5H,1-2,4H2	InChI=1S/C6H8O3/c7-3-5-6(4-8-5)1-2-9-6/h3,5H,1-2,4H2/t5-,6+/m1/s1
