18
gdb 29131	2.97549	1.36988	0.94896	3.1026	86.39	-0.2042	-0.0372	0.167	1236.4372	0.147756	-401.998648	-401.990044	-401.9891	-402.031694	32.466	
C	-0.1156817087	 1.5356791185	-0.0156501695	-0.490301
C	-0.0275279027	 0.0349374579	-0.0157133249	 0.192982
C	 0.0544191663	-0.678799253	-1.1516787594	-0.015378
O	 0.1349405772	-2.0306179883	-1.1835988134	-0.237016
C	 0.139152561	-2.7937708203	-0.0217810389	 0.327791
N	 0.2164524897	-4.0622721427	-0.0877977171	-0.539482
C	 0.051599066	-2.064454278	 1.2408147799	 0.212777
C	 0.055361975	-2.8830719611	 2.4963518944	-0.469033
C	-0.027052247	-0.7145218013	 1.2190235936	-0.219725
H	 0.7221331691	 1.9840619544	 0.5313237557	 0.132681
H	-0.1033489033	 1.9358174628	-1.0330668046	 0.126196
H	-1.0364461615	 1.8807780927	 0.4693900914	 0.132679
H	 0.0649002008	-0.259383457	-2.1505865838	 0.126644
H	 0.2688144494	-4.3688487664	-1.0594471684	 0.218155
H	-0.7788753268	-3.5922240824	 2.4975403222	 0.14555
H	 0.9649676067	-3.4892972348	 2.5594265044	 0.145552
H	-0.013583522	-2.2452743043	 3.3812025482	 0.110543
H	-0.0923319192	-0.1674093165	 2.15614886	 0.099385
98.0193	154.2543	168.1718	202.685	261.6686	320.3629	323.1031	389.136	465.7136	481.5808	554.1679	564.0667	670.7276	752.2806	797.9	848.3193	865.1666	926.9627	961.3793	975.4481	1033.6667	1042.0746	1067.8102	1071.7982	1151.3972	1217.6858	1244.5326	1302.9322	1387.0054	1412.5326	1417.5074	1421.1306	1465.39	1478.7577	1484.2214	1497.1921	1630.4526	1694.0386	1729.183	3024.5729	3038.3043	3074.9099	3095.0927	3112.1817	3122.5554	3161.4798	3208.2881	3489.3811
CC1=COC(=N)C(C)=C1	CC1=COC(=C(C)C1)[NH]	
InChI=1S/C7H9NO/c1-5-3-6(2)7(8)9-4-5/h3-4,8H,1-2H3	InChI=1S/C7H10NO/c1-5-3-6(2)7(8)9-4-5/h4,8H,3H2,1-2H3
