20
gdb 63413	3.79598	0.99253	0.95328	3.9372	85.17	-0.2119	-0.003	0.2089	1328.001	0.170484	-403.193166	-403.184	-403.183056	-403.227334	34.34	
C	 0.0675974712	 1.4911859186	 0.0027506271	-0.420158
C	-0.051703079	-0.0464504198	 0.0083571105	 0.254237
C	-1.5326270652	-0.4566799024	-0.026179558	-0.426501
C	 0.7400452243	-0.6779627706	-1.1856807085	-0.229851
N	 1.9467068219	-1.2536727259	-0.5716788026	-0.059843
C	 3.0167623254	-1.7660339505	-1.2427604099	 0.142986
O	 3.9861885664	-2.2751374835	-0.7190962319	-0.33159
C	 1.799587917	-1.2569337296	 0.8229668952	-0.001628
C	 0.6877258745	-0.6294922752	 1.2039399273	-0.198361
H	 1.116254063	 1.8028442662	-0.0170939074	 0.123435
H	-0.4366703391	 1.9203911588	-0.8709669977	 0.111953
H	-0.3922798262	 1.9198300308	 0.899263516	 0.116923
H	-2.0221020875	-0.0873593761	-0.9347679763	 0.114854
H	-1.6420980609	-1.5449198846	 0.0033051702	 0.119445
H	-2.0707454709	-0.0405700327	 0.8319300763	 0.117607
H	 0.1519139596	-1.468020213	-1.6675504156	 0.11584
H	 1.0056772696	 0.0615662067	-1.9462725648	 0.120035
H	 2.9021617732	-1.6602493729	-2.3393205646	 0.071002
H	 2.5704383962	-1.7388461047	 1.4053400835	 0.155582
H	 0.3637783566	-0.4917182398	 2.2262994812	 0.104033
36.4987	140.4816	203.9199	232.3705	235.039	272.6358	311.0988	318.5181	368.7106	380.4311	492.8815	574.9334	654.4642	761.3614	775.2789	820.3549	902.1974	918.2715	932.4436	943.4012	962.4003	975.0577	1023.2989	1037.3552	1097.7218	1178.2064	1214.9939	1240.0972	1246.1501	1261.5341	1319.2133	1345.8317	1397.4996	1415.2475	1438.4647	1448.0457	1483.4321	1487.5196	1501.2394	1505.8005	1515.2592	1680.8445	1788.2175	2940.3327	3023.3704	3023.999	3030.0207	3082.6058	3091.6715	3096.3732	3106.2636	3108.4169	3226.7962	3265.2173
CC1(C)CN(C=O)C=C1	CC1(C)CN(C=O)C=C1	
InChI=1S/C7H11NO/c1-7(2)3-4-8(5-7)6-9/h3-4,6H,5H2,1-2H3	InChI=1S/C7H11NO/c1-7(2)3-4-8(5-7)6-9/h3-4,6H,5H2,1-2H3
