16
gdb 29885	3.15043	1.45736	1.00902	8.8094	74.24	-0.239	-0.0359	0.2032	1131.9282	0.125109	-434.127329	-434.119012	-434.118067	-434.161026	29.856	
C	-0.0328723169	 1.4929676706	-0.0066428966	-0.350454
N	-0.0083870509	 0.0357282907	 0.0210085518	-0.101123
C	-0.0316285776	-0.6889934068	-1.1501005795	 0.096159
N	-0.0129911121	-1.9626870196	-1.2325697519	-0.306953
C	 0.0358179014	-2.70456587	-0.0209931024	 0.380506
O	 0.0549448368	-3.9090055309	-0.034279216	-0.335712
N	 0.0610257393	-1.9890775718	 1.2010354201	-0.331032
C	 0.0395668737	-0.7042578727	 1.1958460488	 0.3885
C	 0.0664755341	 0.0498607851	 2.494637216	-0.492884
H	 0.8653227007	 1.9151184599	 0.4525858146	 0.154219
H	-0.0720330721	 1.8181068988	-1.0478211307	 0.153144
H	-0.9125772638	 1.8861935569	 0.5103365902	 0.154231
H	-0.0690161889	-0.0821871206	-2.055634501	 0.131628
H	 0.1040189187	-0.6769996644	 3.3042868992	 0.171988
H	 0.9406466475	 0.7068391302	 2.559479518	 0.143856
H	-0.8244444399	 0.6760227147	 2.6138210094	 0.143928
37.5157	119.8958	177.0525	206.0617	241.1933	327.4269	366.1896	447.8734	494.3711	571.5834	583.6485	615.3609	745.4949	794.5594	832.6746	890.3748	978.3248	1011.3322	1058.452	1059.565	1149.6248	1150.3685	1216.8007	1293.2193	1389.6738	1411.9656	1425.8161	1465.4414	1476.3897	1480.8303	1496.9551	1516.3946	1611.0163	1724.6114	1817.4971	3040.2141	3047.3803	3097.2144	3112.8511	3122.5684	3138.9718	3171.9008
CN1C=NC(=O)N=C1C	Cn1cnc(=O)nc1C	
InChI=1S/C5H7N3O/c1-4-7-5(9)6-3-8(4)2/h3H,1-2H3	InChI=1S/C5H7N3O/c1-4-7-5(9)6-3-8(4)2/h3H,1-2H3
