16
gdb 44791	2.50907	2.15993	1.59699	5.2649	69.02	-0.2357	0.0033	0.239	869.1423	0.126189	-437.793327	-437.786906	-437.785962	-437.823876	26.553	
O	 0.0259439136	 0.1109484883	 0.1954320342	-0.341504
C	 0.0335489214	 1.2953913454	 0.0814573121	 0.449609
O	-1.0873054029	 2.0947568644	 0.154052555	-0.230046
C	-0.5121000108	 3.4022452446	-0.0313477699	 0.041255
C	 0.7390957475	 3.359978892	 0.9602644604	-0.325804
C	 1.166733515	 2.3085900781	-0.1541534685	 0.108166
N	 2.163082919	 1.7536036758	-1.1387164605	-0.383982
C	 1.162726405	 2.2265259869	-2.2136699406	-0.251035
C	 0.5629694934	 3.2353194678	-1.1688784471	-0.015571
H	-1.2910622756	 4.1606031267	 0.0125288895	 0.107536
H	 1.3390932369	 4.2697041205	 0.9565872702	 0.12375
H	 0.5357328347	 3.0143983841	 1.9766556661	 0.130618
H	 2.9736965073	 2.3703966518	-1.1822422246	 0.225316
H	 1.6189185804	 2.6568001182	-3.1074048735	 0.116517
H	 0.5177895913	 1.3895913132	-2.4860733228	 0.154026
H	 1.1426101638	 4.1606716622	-1.2253590099	 0.091148
163.4459	244.2432	307.5848	390.1536	456.3304	552.3995	593.0474	647.3205	661.5015	735.4302	778.4551	799.8749	827.6348	860.9046	888.1952	927.8191	949.3654	1004.7046	1019.2432	1046.2582	1053.0678	1089.7484	1114.0758	1139.6451	1147.8444	1177.4282	1195.7888	1244.8592	1271.1885	1320.8876	1355.7952	1387.0331	1490.2592	1493.3107	1920.7838	3063.4	3074.95	3076.1695	3142.9056	3146.9068	3155.838	3474.7798
O=C1OC2CC11NCC21	O=C1O[C@H]2C[C@]31NC[C@@H]23	
InChI=1S/C6H7NO2/c8-5-6-1-4(9-5)3(6)2-7-6/h3-4,7H,1-2H2	InChI=1S/C6H7NO2/c8-5-6-1-4(9-5)3(6)2-7-6/h3-4,7H,1-2H2/t3-,4-,6-/m0/s1
