15
gdb 43472	2.60085	1.90838	1.3187	3.8178	66.87	-0.259	-0.0218	0.2372	940.6946	0.115333	-453.957085	-453.950355	-453.94941	-453.988311	26.395	
N	-0.0824605975	 1.2774588917	-0.2380771291	-0.516267
C	-0.0833007596	 0.0537444158	 0.0487033588	 0.475871
O	 1.0773001905	-0.61222022	 0.433144273	-0.248809
C	 1.0230021924	-1.9663771797	 0.7166611427	 0.476305
O	 2.0196157141	-2.546952925	 1.0179810078	-0.310615
C	-0.3663026179	-2.5578248145	 0.5715654833	-0.148701
C	-0.9592260382	-2.1196095682	-0.7933739491	-0.249015
C	-1.2996627621	-0.8260177137	-0.0045736481	-0.089623
N	-1.2909585851	-1.6073139137	 1.2905748582	-0.331743
H	 0.85500978	 1.6731515939	-0.1410294182	 0.237596
H	-0.3640521331	-3.6000422272	 0.8860450797	 0.109736
H	-0.3107479739	-2.0606348397	-1.671950912	 0.12833
H	-1.8611203765	-2.6885326608	-1.0293000479	 0.12049
H	-2.1859070752	-0.238505509	-0.2344513516	 0.112003
H	-2.195357638	-2.0697016198	 1.3741314125	 0.234441
136.3313	142.1075	306.7675	362.9983	410.7381	462.3073	534.4442	576.816	703.0689	727.3772	755.3647	855.7918	875.8394	904.2867	913.7954	939.4752	946.0249	987.7053	1032.1344	1035.9298	1074.0759	1123.1998	1156.9428	1191.2904	1233.5157	1257.8021	1286.8627	1331.9991	1362.143	1403.618	1493.4884	1787.1107	1896.5793	3060.0679	3123.9025	3139.6631	3149.6655	3471.2703	3472.6895
N=C1OC(=O)C2CC1N2	[NH][C]1OC(=O)[C@@H]2C[C@H]1N2	
InChI=1S/C5H6N2O2/c6-4-2-1-3(7-2)5(8)9-4/h2-3,6-7H,1H2	InChI=1S/C5H6N2O2/c6-4-2-1-3(7-2)5(8)9-4/h2-3,6-7H,1H2/t2-,3+/m1/s1
