18
gdb 23520	3.24951	1.11892	0.98045	1.4534	77.56	-0.2377	0.0277	0.2654	1244.5643	0.146119	-438.972808	-438.963952	-438.963008	-439.005964	33.768	
C	-0.3189926231	 1.5220162943	 0.0063735882	-0.44783
C	 0.0093184741	 0.034371517	 0.0458061087	 0.050817
C	 1.205182065	-0.6124750325	-0.7708823123	-0.199756
C	 2.20037135	-0.1153016352	 0.3248624918	 0.15192
O	 2.557667816	 1.2405114091	 0.2871510104	-0.432855
C	 0.9429878655	-0.6193207514	 1.1445047905	-0.217438
C	 1.0051110259	-1.7821406736	 0.182240502	 0.501798
N	 0.9061596529	-3.0355410959	 0.2492050076	-0.325221
O	 1.036510651	-3.624222505	-1.0358438433	-0.404625
H	 0.5557050671	 2.1564420591	 0.1199013654	 0.147554
H	-0.8056066761	 1.7630241744	-0.9455368222	 0.115998
H	-1.0349930822	 1.75819073	 0.8020825256	 0.112129
H	-0.9173706044	-0.5343629335	-0.0816724688	 0.088101
H	 1.3566876581	-0.6370459898	-1.8470608451	 0.096477
H	 3.0900453631	-0.7453468803	 0.4475828372	 0.087364
H	 3.1137442354	 1.4214777602	 1.0514374768	 0.288743
H	 0.8018427526	-0.6482573633	 2.223667231	 0.083669
H	 0.9375446291	-4.5601633235	-0.8317905535	 0.303155
109.468	166.9261	169.1627	238.5343	249.0188	279.5609	317.3501	364.3584	379.8796	404.4615	505.6706	626.3754	685.2922	716.2209	769.9593	782.7414	802.1332	883.0917	936.6159	1014.5412	1053.0915	1065.8781	1090.7488	1108.3882	1111.8219	1119.1043	1144.8894	1184.7347	1205.4048	1231.1355	1255.5958	1315.7506	1400.1855	1406.4412	1423.2079	1467.1414	1493.6886	1511.5306	1830.231	3024.1154	3033.5287	3051.8561	3085.4229	3136.0988	3156.9656	3189.5657	3820.2157	3820.9053
CC1C2C(O)C1C2=NO	C[C@H]1[C@H]2[C@@H](O)[C@@H]1C2=NO	
InChI=1S/C6H9NO2/c1-2-3-5(7-9)4(2)6(3)8/h2-4,6,8-9H,1H3	InChI=1S/C6H9NO2/c1-2-3-5(7-9)4(2)6(3)8/h2-4,6,8-9H,1H3/t2-,3+,4-,6+
