17
gdb 51195	4.61597	1.09335	1.03851	4.062	72.47	-0.2634	0.0011	0.2645	1160.6846	0.135759	-421.793536	-421.785974	-421.78503	-421.826983	28.586	
O	-0.029635556	 0.0092209786	-0.0026992774	-0.271856
C	 0.0016370541	 1.2027452837	 0.0036616888	 0.146688
O	 1.1591545401	 1.8969086183	 0.0131719869	-0.244929
C	 1.0661008949	 3.3005781783	 0.0153088743	 0.408099
C	 0.5626477376	 4.0834965357	-1.22684596	-0.291197
C	 1.4967511597	 5.1918687283	-0.7401785465	-0.062247
C	 1.4609529417	 5.1885405264	 0.7982139345	-0.062609
C	 0.5052664828	 4.0783101962	 1.2362301859	-0.291362
C	 2.344124081	 4.2216189873	 0.0470742965	-0.140935
H	-0.8942684967	 1.8507892383	 0.0011240026	 0.084591
H	 0.9346625022	 3.6303054166	-2.1493061137	 0.116788
H	-0.5123637045	 4.281687638	-1.306869847	 0.095329
H	 1.8313788398	 6.0615650435	-1.2891059139	 0.097255
H	 1.7694746313	 6.0558073993	 1.3659661937	 0.097271
H	-0.5721809158	 4.276828652	 1.2672255303	 0.095561
H	 0.83400486	 3.6213640619	 2.173200669	 0.116695
H	 3.4024087677	 4.0119475375	 0.0713315261	 0.106857
21.579	121.7519	156.9717	343.2156	358.1335	416.3726	448.8043	501.5478	714.7583	730.2466	782.1004	783.5752	820.6674	916.8217	934.9892	956.506	961.6094	985.1889	1009.641	1024.7345	1041.0166	1045.59	1098.498	1099.8731	1135.7412	1170.7253	1175.4969	1181.8185	1234.1964	1248.3856	1298.1149	1307.3087	1361.4099	1432.5277	1488.38	1505.7931	1866.3959	2967.3923	3031.2218	3038.8457	3106.6103	3108.8509	3205.101	3211.829	3241.1058
O=COC12CC3C(C1)C23	O=CO[C@@]12C[C@H]3[C@@H](C1)[C@@H]23	
InChI=1S/C7H8O2/c8-3-9-7-1-4-5(2-7)6(4)7/h3-6H,1-2H2	InChI=1S/C7H8O2/c8-3-9-7-1-4-5(2-7)6(4)7/h3-6H,1-2H2/t4-,5+,6-,7-
