23
gdb 95511	2.144	1.56975	1.32736	1.2273	86.51	-0.2434	0.0149	0.2582	1140.7058	0.205689	-388.31466	-388.305171	-388.304227	-388.347936	37.64	
C	-0.1984125443	 1.5695366902	-0.017902573	-0.414683
C	 0.0069624846	 0.0479108996	 0.0106606438	 0.0099
C	 0.7456759399	-0.4582901552	-1.2424959613	-0.224145
C	 2.1837107893	 0.074810375	-1.3225225518	-0.253861
C	 2.877752015	 0.017693136	 0.0103793247	-0.057306
C	 2.2425660097	-0.2149166655	 1.1586710143	-0.107412
C	 0.7507495805	-0.4606243085	 1.2697202799	 0.360227
C	 0.207420827	 0.1418349137	 2.5720857136	-0.437525
O	 0.4870327127	-1.8824998016	 1.293854757	-0.47498
H	 0.74542592	 2.1126041484	 0.0956030994	 0.119542
H	-0.6434404762	 1.8705624438	-0.9721163001	 0.109009
H	-0.8711282845	 1.9048750904	 0.775802744	 0.114951
H	-0.9797585682	-0.4302984979	 0.0360833466	 0.077144
H	 0.7719145517	-1.5508443893	-1.199874952	 0.114343
H	 0.1897182173	-0.1799316757	-2.1445512432	 0.08265
H	 2.758637281	-0.497563973	-2.0615003882	 0.103718
H	 2.200097714	 1.1118160621	-1.6898264265	 0.108885
H	 3.9523055522	 0.1904318347	 0.0168189988	 0.086143
H	 2.8031609965	-0.240366416	 2.0926274762	 0.07584
H	 0.4083790131	 1.2141283614	 2.648434835	 0.117988
H	-0.8716977559	-0.0230671149	 2.6456831084	 0.118339
H	 0.681774679	-0.3484172984	 3.4297753729	 0.099867
H	 1.1704048656	-2.2970194291	 1.8306688617	 0.271362
107.0247	177.4797	193.359	220.3898	254.9011	262.7345	299.4944	352.8566	360.0706	391.4497	449.6866	506.5693	532.9832	558.1932	673.542	739.5655	768.9975	828.8167	873.3696	919.3247	939.5474	958.6199	972.9502	1007.7903	1021.5711	1047.1626	1082.2239	1112.394	1130.6123	1152.6895	1167.7652	1208.8678	1226.413	1267.8477	1330.9033	1349.4695	1362.6032	1381.8579	1384.8864	1403.1673	1410.5184	1427.3831	1472.8452	1487.2021	1491.9183	1492.8092	1503.587	1514.5772	1716.255	3000.6446	3028.8687	3031.5783	3035.7229	3037.1962	3047.9103	3093.7187	3097.5209	3099.6494	3112.5341	3119.6684	3121.6639	3150.9987	3812.3128
CC1CCC=CC1(C)O	C[C@H]1CCC=C[C@]1(C)O	
InChI=1S/C8H14O/c1-7-5-3-4-6-8(7,2)9/h4,6-7,9H,3,5H2,1-2H3	InChI=1S/C8H14O/c1-7-5-3-4-6-8(7,2)9/h4,6-7,9H,3,5H2,1-2H3/t7-,8-/m0/s1
