21
gdb 6762	6.27145	0.72204	0.68751	2.7743	81.76	-0.245	0.0265	0.2715	1741.1343	0.185699	-366.272706	-366.262401	-366.261457	-366.308916	35.746	
C	-0.0500666858	 1.4878498085	 0.0106248879	-0.384122
C	-0.0478185162	-0.0293845188	 0.0020911948	-0.053476
O	-1.4085583208	-0.4697873835	 0.0133216244	-0.205816
C	-1.595763058	-1.8041092144	 0.008298675	 0.121992
N	-2.753764658	-2.294596231	 0.0163732387	-0.213994
C	-2.8738799596	-3.7466869322	 0.0095443996	 0.061553
C	-3.6059674597	-4.1937422784	 1.2806170532	-0.367067
C	-3.6299187177	-4.1798835567	-1.252276715	-0.367076
H	 0.976633104	 1.8652292794	 0.002375557	 0.119881
H	-0.5718490657	 1.8759636953	-0.8681834992	 0.135974
H	-0.5539638036	 1.8660339354	 0.9040788445	 0.135964
H	 0.4598581843	-0.413934652	-0.8932587493	 0.106964
H	 0.4777397264	-0.4239038307	 0.8826642604	 0.106957
H	-0.6654286011	-2.3952006077	-0.0038188763	 0.069254
H	-1.8770554329	-4.2258624079	-0.002496475	 0.052119
H	-4.5953721296	-3.7286751138	 1.3305124798	 0.124937
H	-3.7302046094	-5.2814985978	 1.2939542691	 0.105787
H	-3.0492642877	-3.8989761153	 2.1751335573	 0.109716
H	-3.7545012274	-5.26744186	-1.2751846464	 0.105795
H	-4.6200420568	-3.7144006212	-1.2783578175	 0.124939
H	-3.0902007947	-3.8752738772	-2.1538761527	 0.109717
37.92	54.1239	111.4135	122.0159	216.0894	240.0603	246.6524	252.565	278.5353	318.4228	411.3344	465.0385	542.158	567.2219	817.3869	840.9227	924.1347	928.9038	953.7154	983.3204	989.1756	1066.6186	1134.6823	1137.4497	1180.1212	1182.9692	1186.0887	1251.2196	1301.5655	1353.4627	1360.8363	1393.9756	1396.7459	1412.2216	1415.3512	1435.8743	1480.5429	1483.4832	1487.6202	1493.9255	1499.0681	1511.5188	1523.6654	1770.3893	2918.2071	2977.6529	3002.1723	3033.166	3037.6217	3037.6225	3049.1682	3105.9642	3109.9306	3111.5191	3115.7685	3124.1627	3129.0911
CCOC=NC(C)C	CCOC=NC(C)C	
InChI=1S/C6H13NO/c1-4-8-5-7-6(2)3/h5-6H,4H2,1-3H3	InChI=1S/C6H13NO/c1-4-8-5-7-6(2)3/h5-6H,4H2,1-3H3
