16
gdb 56077	4.88638	0.56623	0.54105	3.1579	89.39	-0.2449	-0.0248	0.2201	1993.1556	0.121216	-400.728303	-400.718063	-400.717119	-400.765797	35.068	
C	-0.1983303452	 1.4656537218	-0.143691602	-0.484578
C	-0.1025794629	-0.0408090674	-0.316684587	 0.417028
O	 0.6374278188	-0.561770034	-1.1300785166	-0.365154
N	-0.9201299639	-0.7696317207	 0.5067456829	-0.309082
C	-1.0304859757	-2.2156469961	 0.3777027621	-0.321077
C	-2.4043263636	-2.6582906239	 0.1755254258	 0.398087
C	-3.5494069202	-3.0222865113	 0.0323688458	-0.292911
C	-4.8371108665	-3.4293656314	-0.133307974	 0.29484
C	-5.9799741691	-3.7905775495	-0.2790092431	-0.542682
H	 0.804718886	 1.8901366301	-0.2112757596	 0.156296
H	-0.7901699136	 1.8786560154	-0.9667193041	 0.156385
H	-0.6586556169	 1.7661237108	 0.8011462735	 0.117192
H	-1.5658383902	-0.2966510777	 1.116969432	 0.25264
H	-0.3990928559	-2.4859445573	-0.4761907864	 0.18448
H	-0.6105100363	-2.7177312638	 1.2604572368	 0.143803
H	-6.9843921249	-4.1089852549	-0.4096418461	 0.194735
24.3218	42.072	58.5882	134.2697	148.8666	244.4516	265.2099	338.8913	379.9006	436.8614	499.6923	530.458	550.1149	589.6895	602.5296	610.8587	642.0378	738.3405	897.2833	987.3025	1036.4161	1051.6275	1101.4834	1179.2843	1246.426	1264.2658	1370.9756	1396.6602	1467.534	1476.6325	1486.7371	1524.433	1783.3721	2183.1635	2365.073	3007.0493	3049.2005	3073.8542	3118.8675	3145.8609	3504.9962	3651.9415
CC(=O)NCC#CC#C	CC(=O)NCC#CC#C	
InChI=1S/C7H7NO/c1-3-4-5-6-8-7(2)9/h1H,6H2,2H3,(H,8,9)	InChI=1S/C7H7NO/c1-3-4-5-6-8-7(2)9/h1H,6H2,2H3,(H,8,9)
