18
gdb 120435	3.48989	0.85639	0.71533	5.0277	82.18	-0.1663	-0.0032	0.1631	1544.7593	0.146669	-439.098073	-439.08852	-439.087576	-439.133099	34.706	
N	-0.7078945876	 1.4924271779	 0.4784832839	-0.511794
H	-1.7623142115	 1.5041962383	 1.9947891957	 0.301217
H	-0.7553308379	 0.5804127122	 0.0333375133	 0.242272
H	-0.7680659335	 2.1857008076	-0.2596603213	 0.245197
C	 0.5555985449	 1.6291507557	 1.2324971972	-0.156638
C	 0.4755682168	 0.8145393642	 2.535642394	-0.295739
C	-0.5811945993	 1.316753236	 3.4818572628	 0.323996
O	-1.8376527202	 1.4686936307	 2.9747622256	-0.447286
C	-2.6702645647	 2.3109188685	 5.4076107761	 0.474112
O	-3.8014390681	 2.5451360778	 5.2555072961	-0.241834
C	-1.4013758471	 2.0750197269	 5.6910539036	-0.426026
C	-0.3720062257	 1.5939402921	 4.7780164489	-0.157579
H	 1.4347980106	 1.3166002644	 0.6502471542	 0.095813
H	 0.6832578876	 2.6895400475	 1.4740379145	 0.12398
H	 0.2735984129	-0.2345794551	 2.2665175441	 0.104039
H	 1.4488484949	 0.8302373215	 3.0339994211	 0.111404
H	-1.1440579516	 2.2822328106	 6.7247371415	 0.131874
H	 0.6141099895	 1.4435433131	 5.1978377587	 0.082994
66.3678	74.6463	98.0541	183.136	227.4857	281.8567	293.9206	322.974	375.9856	467.8411	508.0443	530.9617	572.1313	644.5782	725.8683	771.23	817.955	851.9809	887.0467	897.7372	971.3343	997.6372	1018.7757	1070.9446	1139.0165	1157.7127	1204.1662	1263.2046	1321.1268	1372.004	1383.3941	1411.3979	1426.3888	1450.1891	1467.7917	1507.863	1650.3177	1744.7521	2206.114	2980.3726	2992.2806	3076.1219	3093.2952	3180.2069	3213.1972	3401.1578	3498.8252	3580.7593
[NH3+]CC[C-]1OC(=O)C=C1	NCC[C](O)C=C[C][O]	
InChI=1S/C6H8NO2/c7-4-3-5-1-2-6(8)9-5/h1-2H,3-4,7H2/q-1/p+1	InChI=1S/C6H9NO2/c7-4-3-6(9)2-1-5-8/h1-2,9H,3-4,7H2
