22
gdb 7836	3.4847	1.28919	1.10325	1.0611	79.2	-0.2291	0.0843	0.3134	1198.2986	0.197819	-350.193827	-350.184145	-350.183201	-350.228243	35.802	
C	 0.3834230801	 1.4178797779	 0.4066765865	-0.389696
C	 0.0433685066	-0.0280394246	 0.038514522	 0.152969
C	 0.7003881563	-0.4628070838	-1.2661812108	-0.390559
O	 0.4699490532	-0.9654099082	 1.0280599003	-0.260172
C	-0.2442628109	-0.9300345356	 2.2256249337	 0.139549
C	 0.2113377094	-1.8675964916	 3.2998185855	-0.333933
C	 0.3799631502	-0.3700590533	 3.4879978285	-0.022459
C	 1.7679159532	 0.228879248	 3.4708302468	-0.401905
H	 1.4666145334	 1.5462984137	 0.497844246	 0.120645
H	 0.0195187963	 2.1003487078	-0.3684345178	 0.110734
H	-0.0793123058	 1.7062227354	 1.3541948212	 0.121465
H	-1.0518195692	-0.1139086517	-0.0661630109	 0.064829
H	 1.7899579865	-0.3978927527	-1.1819328358	 0.121486
H	 0.4364258589	-1.4972288315	-1.50057794	 0.12174
H	 0.3791180498	 0.1779905202	-2.0926252075	 0.111142
H	-1.3185636324	-0.795628868	 2.090769717	 0.078338
H	-0.5311705528	-2.4045339222	 3.879833184	 0.107998
H	 1.1121359819	-2.4328605113	 3.0832936314	 0.120017
H	-0.3140906813	 0.101233844	 4.1802460202	 0.077703
H	 2.3694119304	-0.2199706821	 2.6759211464	 0.126879
H	 1.73550345	 1.3093655047	 3.2924542592	 0.111347
H	 2.2815280161	 0.0632018751	 4.4241397741	 0.111883
48.1599	96.2496	166.832	206.8531	213.1467	219.2483	264.6328	316.8058	340.1937	408.5093	453.5937	480.3274	584.6332	775.0125	787.9892	817.5695	859.9515	912.7749	925.9555	942.3378	955.6832	1020.6774	1044.7478	1085.8462	1117.3955	1137.9405	1147.9655	1164.937	1185.5472	1193.3934	1208.4474	1241.5134	1356.4183	1368.2404	1385.3548	1397.0131	1411.7309	1415.9898	1426.4117	1479.3126	1482.3295	1487.7959	1491.3713	1498.3601	1502.3807	1510.364	2954.2278	3030.7202	3036.6746	3042.7567	3085.1017	3087.6526	3106.3037	3111.9445	3114.7978	3119.5964	3123.5814	3130.1337	3133.1389	3217.9218
CC(C)OC1CC1C	CC(C)O[C@H]1C[C@H]1C	
InChI=1S/C7H14O/c1-5(2)8-7-4-6(7)3/h5-7H,4H2,1-3H3	InChI=1S/C7H14O/c1-5(2)8-7-4-6(7)3/h5-7H,4H2,1-3H3/t6-,7+/m1/s1
