12
gdb 8988	7.10706	1.00277	0.91843	2.6576	59.17	-0.284	-0.1052	0.1788	1160.6556	0.081639	-414.659136	-414.650986	-414.650042	-414.692881	26.76	
N	 0.0640913506	 1.0930250873	-0.2067618636	-0.42779
C	-0.1961635887	-0.0998580671	 0.0887458577	 0.143973
O	-0.4652230596	-0.9860759618	-0.9088822187	-0.164579
C	-0.7893878498	-2.2915596808	-0.5266114868	-0.199962
C	-2.1972993379	-2.4071880823	 0.0494250971	 0.281806
O	-2.8992708869	-1.4752062699	 0.3325800399	-0.238428
C	-2.6339338224	-3.8024484268	 0.2665317287	 0.224461
N	-2.9411780343	-4.9051637652	 0.4293410881	-0.279273
H	 0.2592584052	 1.632066315	 0.6339768754	 0.239769
H	-0.2192735516	-0.5479303733	 1.0903495837	 0.095152
H	-0.7182602414	-2.9217639523	-1.4194517964	 0.173013
H	-0.0881786231	-2.7095908328	 0.2143937349	 0.151859
50.3012	77.358	130.8436	150.8711	257.7697	277.5698	342.8613	445.166	559.9816	592.1001	659.2441	817.9654	840.0572	956.0526	1022.6721	1036.9271	1065.813	1184.7859	1234.8005	1317.229	1386.5042	1418.3903	1458.3396	1758.209	1817.6051	2338.4748	2986.704	3036.9982	3085.6009	3528.0356
N=COCC(=O)C#N	[NH][CH]OCC(=O)C#N	
InChI=1S/C4H4N2O2/c5-1-4(7)2-8-3-6/h3,6H,2H2	InChI=1S/C4H4N2O2/c5-1-4(7)2-8-3-6/h3,6H,2H2
