16
gdb 33930	3.5602	1.34018	1.13395	4.4078	74.74	-0.2627	-0.0252	0.2375	1069.8831	0.125654	-400.757351	-400.749932	-400.748988	-400.789144	28.673	
N	 0.0260205835	-1.1288882678	-0.0444258955	-0.329979
C	 0.0364300084	 0.0266380086	-0.017966693	 0.241922
C	 0.0230350644	 1.4783210684	-0.0159713876	 0.242116
C	-1.1853178867	 2.1274978974	-0.6687434265	-0.290317
C	-1.1193117426	 3.6665075057	-0.5992168846	-0.276062
C	 0.2370237869	 4.2037686842	-0.9726211226	-0.082848
C	 1.3591525284	 3.5295812298	-0.7156779703	-0.037608
C	 1.3176934891	 2.2072266098	-0.0477461909	-0.039965
O	 0.5368680462	 2.089620855	 1.1640322504	-0.275219
H	-1.2125507848	 1.7955250869	-1.7134965893	 0.130597
H	-2.1025038546	 1.7660063644	-0.1940657046	 0.130684
H	-1.8906764626	 4.0872443515	-1.2514649746	 0.114166
H	-1.3654240063	 3.9902192318	 0.4192524589	 0.142699
H	 0.2855245164	 5.1792233254	-1.4475712564	 0.107841
H	 2.3342103762	 3.9216847359	-0.9845702862	 0.103475
H	 2.2344676181	 1.6236043928	-0.0236989871	 0.118498
127.6346	151.1003	197.7076	293.2614	352.1835	416.8477	457.3674	541.5563	572.2697	603.4695	667.4759	710.39	754.1186	842.5958	879.3435	891.1746	974.3093	987.6501	988.6922	1050.5101	1058.2283	1090.0068	1177.8706	1199.9185	1216.531	1269.8014	1314.9542	1348.6076	1375.119	1416.2373	1438.0833	1474.0912	1484.9247	1707.2472	2356.3865	3038.674	3042.8265	3081.1434	3092.0282	3149.6905	3169.1998	3194.3412
N#CC12CCC=CC1O2	N#C[C@]12CCC=C[C@H]1O2	
InChI=1S/C7H7NO/c8-5-7-4-2-1-3-6(7)9-7/h1,3,6H,2,4H2	InChI=1S/C7H7NO/c8-5-7-4-2-1-3-6(7)9-7/h1,3,6H,2,4H2/t6-,7-/m1/s1
