21
gdb 71248	2.22316	2.06472	1.58491	1.5117	81.38	-0.2347	0.0891	0.3238	981.8983	0.183102	-387.067985	-387.060097	-387.059153	-387.099605	32.52	
C	-0.1419053006	 1.4788616244	 0.0311955077	-0.50542
C	 0.0313503358	-0.0122279246	 0.0315735989	 0.373394
C	 0.5279956935	-0.7527294367	-1.2299994483	-0.239736
C	 0.7380269561	-2.0883204415	-0.4930642272	-0.09218
C	 1.8664970456	-1.7156435793	 0.5027705474	-0.304346
C	 0.7907325098	-0.8405681512	 1.1737095248	 0.285416
C	 0.8805624331	-0.2595539644	 2.5600273038	-0.515853
C	-0.3067134603	-1.8171166889	 0.6916554904	 0.073724
O	-1.1973873518	-0.7682485568	 0.3080670838	-0.331371
H	 0.8132555815	 1.9737652248	-0.1722254617	 0.12012
H	-0.8517656883	 1.7764706722	-0.7479442243	 0.130324
H	-0.521120227	 1.8371023709	 0.992163638	 0.126918
H	-0.2548287623	-0.7675337155	-1.9917379478	 0.101373
H	 1.4538538498	-0.3567960803	-1.6576536746	 0.090388
H	 0.7549532171	-3.0121115106	-1.0682523624	 0.065186
H	 2.148764484	-2.5448093062	 1.1598212947	 0.094987
H	 2.7697463814	-1.249761947	 0.0955126011	 0.089239
H	 1.6025283667	 0.5643610396	 2.6051994858	 0.116319
H	-0.0917072732	 0.1272058804	 2.8829673494	 0.129346
H	 1.1983339759	-1.0170880791	 3.284570758	 0.115206
H	-0.7511028968	-2.6396384403	 1.2513437722	 0.076965
186.7716	202.8059	210.4952	233.4392	295.7409	338.1874	445.4397	465.7811	524.5994	592.8	640.3022	689.6893	731.7648	795.5222	833.4674	871.8406	877.1753	899.0089	923.5082	949.5347	971.1681	1008.5046	1020.4819	1045.9463	1057.8069	1130.4343	1146.2737	1160.2291	1171.8831	1195.6326	1205.7045	1237.9614	1249.6835	1276.9954	1304.4883	1340.9722	1348.2112	1408.5724	1414.7196	1478.3018	1479.8822	1487.0959	1494.4968	1497.5523	1504.9309	3024.0936	3036.8203	3038.8084	3057.7296	3085.7662	3091.0508	3097.9599	3104.7008	3114.2685	3116.0757	3123.272	3135.9813
CC12CC3CC1(C)C3O2	C[C@@]12C[C@H]3C[C@]1(C)[C@H]3O2	
InChI=1S/C8H12O/c1-7-3-5-4-8(7,2)9-6(5)7/h5-6H,3-4H2,1-2H3	InChI=1S/C8H12O/c1-7-3-5-4-8(7,2)9-6(5)7/h5-6H,3-4H2,1-2H3/t5-,6+,7-,8-/m1/s1
