15
gdb 30482	3.94932	1.1989	0.92509	5.8911	72.87	-0.2465	-0.0446	0.2019	1198.5084	0.114717	-450.192388	-450.184306	-450.183362	-450.225653	28.997	
C	 0.071004418	 1.4375196376	-0.1892486832	-0.346128
N	 0.0446131404	-0.0108791564	-0.1153615381	-0.330793
C	-1.0550643157	-0.5917335049	 0.1324666109	 0.508622
N	-2.2993574566	 0.0120625437	 0.3531373504	-0.3635
C	-3.4195765603	-0.7255259526	 0.6125868643	 0.107693
N	-3.4836142868	-2.0035548336	 0.6859887056	-0.312621
C	-2.293362512	-2.7279844118	 0.4818218768	 0.444824
O	-2.235765678	-3.9309919886	 0.5272885374	-0.355644
N	-1.1468028586	-1.9685873189	 0.2160428323	-0.412651
H	 1.0900229554	 1.7639326774	-0.4083016163	 0.14041
H	-0.5735701894	 1.8378743429	-0.9885988242	 0.112033
H	-0.2249978168	 1.920599251	 0.7561374358	 0.111988
H	-2.3542436039	 1.0164464464	 0.3165571924	 0.276522
H	-4.3221237578	-0.1348980722	 0.7654347172	 0.143312
H	-0.2878045581	-2.4793282597	 0.0681504688	 0.275933
78.5595	90.9434	145.5842	211.9513	242.1189	389.7008	403.1748	497.8308	543.5093	588.9169	630.0152	666.1318	724.8451	788.586	801.8133	908.3558	993.5109	998.2338	1054.6924	1114.7963	1145.6174	1155.2185	1225.8615	1385.431	1407.519	1423.5619	1444.0913	1472.5709	1510.8925	1511.4088	1689.5706	1778.5231	1831.747	2959.0137	3003.878	3107.508	3145.7168	3621.379	3662.2472
CN=C1NC=NC(=O)N1	CN=c1[nH]cnc(=O)[nH]1	
InChI=1S/C4H6N4O/c1-5-3-6-2-7-4(9)8-3/h2H,1H3,(H2,5,6,7,8,9)	InChI=1S/C4H6N4O/c1-5-3-6-2-7-4(9)8-3/h2H,1H3,(H2,5,6,7,8,9)
