21
gdb 72440	2.31365	2.11114	1.48983	1.5679	80.29	-0.2363	0.0848	0.3212	977.768	0.185396	-387.087522	-387.080297	-387.079353	-387.118497	30.87	
C	-0.0263676402	 1.4982885743	 0.0138394421	-0.489588
C	 0.0090048435	-0.019303797	 0.0380753911	 0.279344
C	 0.7774307096	-0.6844245056	-1.1356602153	-0.085468
O	 1.0596229693	-2.0221752638	-0.684168811	-0.282311
C	 0.4942877259	-2.1162438378	 0.6424360603	 0.085961
C	 0.7629877344	-0.7129358234	 1.1985741355	-0.284172
C	-1.0207010371	-2.1687864751	 0.4551122923	-0.032413
C	-1.9203314582	-1.3136761678	 1.3136927964	-0.33987
C	-1.3500619656	-0.7421388895	 0.0408387866	-0.045693
H	 0.9852054036	 1.9192347964	 0.0206897128	 0.113397
H	-0.5354156534	 1.8698519182	-0.8828866837	 0.114548
H	-0.5628768953	 1.8918652428	 0.8832706735	 0.119117
H	 0.1836848927	-0.7170550184	-2.0579044149	 0.091458
H	 1.7228421235	-0.1661288679	-1.3482867053	 0.088389
H	 0.9605045526	-2.9650341694	 1.1435066047	 0.070566
H	 1.8312301628	-0.4829554812	 1.1993148217	 0.101183
H	 0.3586322509	-0.5115053337	 2.1904244859	 0.100504
H	-1.4318127468	-3.0249976914	-0.0665498299	 0.090829
H	-2.9744684479	-1.5683153201	 1.2733261808	 0.111672
H	-1.6040573029	-0.961993192	 2.2889014696	 0.110829
H	-2.0233055515	-0.5358693874	-0.7853015632	 0.081719
215.2158	225.871	270.6165	310.1092	361.808	384.1619	501.4881	523.2728	578.4421	597.2944	736.3879	772.4284	821.3559	847.5846	886.2658	900.176	907.1172	924.6903	963.1336	981.4638	989.8942	1013.8172	1029.028	1044.2123	1074.3925	1084.0973	1111.5769	1116.7617	1179.7701	1190.7131	1203.416	1211.6965	1263.5313	1270.0467	1294.1797	1304.9835	1348.6877	1357.859	1395.3742	1414.9374	1479.2422	1492.3934	1498.4952	1512.9864	1526.0955	2998.9671	3025.8827	3041.9938	3078.7751	3088.6668	3098.418	3114.5157	3129.3506	3137.522	3155.6461	3181.4018	3211.2587
CC12COC(C1)C1CC21	C[C@@]12CO[C@@H](C1)[C@H]1C[C@@H]21	
InChI=1S/C8H12O/c1-8-3-7(9-4-8)5-2-6(5)8/h5-7H,2-4H2,1H3	InChI=1S/C8H12O/c1-8-3-7(9-4-8)5-2-6(5)8/h5-7H,2-4H2,1H3/t5-,6+,7-,8-/m0/s1
