16
gdb 17096	4.81523	1.58272	1.4548	3.5491	73.15	-0.2463	-0.0583	0.188	888.7978	0.132231	-346.58741	-346.581048	-346.580104	-346.618024	24.935	
O	-0.0547166399	-0.005255687	-0.0174356573	-0.280284
C	 0.0351852705	 1.2049625848	-0.0180172016	 0.028907
C	 1.2863437059	 1.9434635321	-0.0034665254	 0.275795
C	 1.4794173835	 3.2770060848	-0.0029785556	-0.161982
C	 2.9969613584	 3.41831397	 0.0156305593	-0.071449
C	 3.3867215114	 2.3217777635	-1.043747446	-0.210678
C	 2.7141600228	 1.383989606	 0.0151896026	-0.123463
C	 3.360213329	 2.3250137256	 1.0876855791	-0.210679
H	-0.872851576	 1.8495030529	-0.0303113641	 0.064335
H	 0.7479349422	 4.0743090315	-0.0132537655	 0.12045
H	 3.4328192267	 4.4161247836	 0.0195386865	 0.071373
H	 2.9241631457	 2.3866232256	-2.0312753596	 0.101323
H	 4.4679262153	 2.1790768058	-1.127588053	 0.1027
H	 2.8356974512	 0.3035712937	 0.0183389654	 0.08963
H	 4.4389951724	 2.1826250662	 1.1988208553	 0.102701
H	 2.873240071	 2.3928368709	 2.0632026098	 0.101321
109.1148	179.3684	252.4021	478.0492	486.0137	533.642	589.703	697.7043	794.262	797.3227	840.8891	857.8702	879.5293	881.8393	935.009	1002.9028	1004.1531	1035.5668	1065.3167	1077.6927	1106.0403	1109.1973	1206.872	1226.7828	1227.3335	1236.0086	1249.4583	1271.0026	1345.7968	1415.0057	1481.0828	1516.3686	1641.8804	1772.6642	2871.815	3051.8434	3059.9839	3120.7069	3125.3386	3130.2218	3154.8589	3224.2348
O=CC1=CC2CC1C2	O=CC1=C[C@@H]2C[C@H]1C2	
InChI=1S/C7H8O/c8-4-7-3-5-1-6(7)2-5/h3-6H,1-2H2	InChI=1S/C7H8O/c8-4-7-3-5-1-6(7)2-5/h3-6H,1-2H2/t5-,6+
