17
gdb 50495	3.88473	1.0437	0.9715	3.8866	72.33	-0.2529	-0.0437	0.2092	1217.5065	0.137102	-418.031561	-418.023215	-418.022271	-418.065477	30.195	
O	 0.0730255954	 0.0510915218	 0.7403345832	-0.248143
C	 0.0839846619	 1.1869289485	 0.3375645841	 0.152779
C	 1.3257848974	 1.8891919284	-0.1853503989	-0.054159
C	 1.7092182069	 3.0890057829	 0.723828524	-0.248978
C	 2.7290137012	 2.4701203449	 1.6891245336	-0.219917
C	 3.4796099357	 1.4764157449	 0.7700156114	-0.14433
N	 2.4851819955	 0.9956136206	-0.2036030182	-0.295498
C	 4.6032020542	 2.1435855602	 0.0798886735	 0.304231
N	 5.4804307718	 2.6864437575	-0.4408327206	-0.327018
H	-0.8411637519	 1.8042180072	 0.3207235232	 0.093702
H	 1.0741027185	 2.251055109	-1.193487114	 0.109657
H	 2.1778649476	 3.8723377419	 0.1222428349	 0.138837
H	 0.845720687	 3.5296965132	 1.2292889946	 0.115241
H	 3.3839948766	 3.2054128962	 2.1596587693	 0.130346
H	 2.2232186441	 1.9005995761	 2.4749423412	 0.121178
H	 3.8979963925	 0.6362438483	 1.3320071549	 0.129113
H	 2.1763381957	 0.0609348284	 0.0454833239	 0.242958
45.6165	86.9961	153.4093	176.3785	262.178	309.1191	356.8023	474.582	568.6475	623.5596	668.9955	728.8252	765.2071	802.0071	859.2269	901.0784	936.8407	955.575	981.4066	1025.2893	1046.898	1110.3341	1147.1112	1183.6374	1197.9331	1251.6717	1286.6811	1319.382	1334.3415	1349.829	1360.8254	1411.2946	1484.107	1487.8573	1498.4563	1822.3088	2355.9855	2895.3508	2996.129	3059.9853	3065.5906	3074.513	3109.1166	3127.7371	3521.9331
O=CC1CCC(N1)C#N	O=C[C@H]1CC[C@@H](N1)C#N	
InChI=1S/C6H8N2O/c7-3-5-1-2-6(4-9)8-5/h4-6,8H,1-2H2	InChI=1S/C6H8N2O/c7-3-5-1-2-6(4-9)8-5/h4-6,8H,1-2H2/t5-,6-/m1/s1
