15
gdb 35644	2.34753	1.69278	1.44676	4.8617	71.43	-0.2559	-0.0339	0.222	959.2671	0.115769	-413.006477	-412.998912	-412.997967	-413.038885	27.911	
N	 0.4728102727	-1.0551140208	 0.2147141091	-0.329446
C	 0.2295356041	 0.0713706678	 0.1305737224	 0.304081
C	-0.0663379182	 1.5091284796	 0.0196668629	-0.163438
C	-0.9521810196	 1.9762818118	 1.21341729	-0.185546
N	-0.4747575485	 1.6480529176	 2.5363254129	-0.21883
C	 0.7344418631	 1.8028280315	 2.8721371262	 0.103186
N	 1.8286915536	 2.2549573885	 2.1328833793	-0.301653
C	 1.9446194987	 2.5182383095	 0.7770622644	 0.108166
N	 1.1643136021	 2.2608168653	-0.191051977	-0.231818
H	-0.668783108	 1.6344777681	-0.8885332723	 0.138283
H	-1.072130201	 3.0619847733	 1.1099057199	 0.130526
H	-1.9450168112	 1.5309230619	 1.0931561995	 0.128764
H	 1.0218544433	 1.5739191449	 3.8990916588	 0.126732
H	 2.666587155	 2.4200749437	 2.6717539038	 0.261064
H	 2.880169314	 3.0306447672	 0.54824005	 0.129927
72.3509	123.6383	195.5657	254.9982	349.9951	382.2672	482.4251	504.2387	572.6067	579.7874	645.5466	758.825	813.7822	887.4219	914.5409	952.3511	959.1563	986.97	1002.2773	1048.9239	1083.5712	1228.6157	1245.6472	1307.3302	1350.4002	1372.2368	1421.893	1457.9167	1486.4199	1524.0646	1732.2893	1771.1249	2356.6104	3026.8791	3036.4067	3074.8619	3124.6747	3126.3806	3601.6024
N#CC1CN=CNC=N1	N#C[C@H]1CN=CNC=N1	
InChI=1S/C5H6N4/c6-1-5-2-7-3-8-4-9-5/h3-5H,2H2,(H,7,8,9)	InChI=1S/C5H6N4/c6-1-5-2-7-3-8-4-9-5/h3-5H,2H2,(H,7,8,9)/t5-/m0/s1
