20
gdb 97932	5.89681	0.5207	0.50517	2.002	85.73	-0.2407	0.0372	0.2778	2194.7288	0.1693	-403.087822	-403.077265	-403.07632	-403.12583	36.67	
C	 0.2679601824	 1.4500863804	-0.3760545248	-0.392566
C	-0.0924393292	 0.0991115177	 0.1955394889	-0.004445
N	 0.9635557652	-0.9282653216	 0.2271578383	-0.330149
C	 0.4056444452	-0.4353605316	 1.492992609	 0.000046
C	 1.3519698886	 0.3198345276	 2.4165801	-0.357245
C	 2.0609512002	-0.568724509	 3.3329804814	 0.021417
C	 2.6233895752	-1.3327520502	 4.0759674423	 0.0873
C	 3.3134931241	-2.2113697031	 5.0188013138	-0.190902
O	 2.7724928146	-2.1729082164	 6.3339609284	-0.404138
H	 1.2921436923	 1.7323827076	-0.1231317304	 0.126785
H	 0.191174632	 1.4340898681	-1.4684661736	 0.121181
H	-0.4102724018	 2.2256679013	-0.0035451787	 0.115897
H	-1.0924502972	-0.2386953145	-0.07713586	 0.081574
H	 0.5927053641	-1.8460769206	-0.0005272035	 0.231652
H	-0.2744541238	-1.0956146157	 2.0288176854	 0.090868
H	 2.0739601285	 0.8823148885	 1.8160088686	 0.136947
H	 0.7799799625	 1.056945999	 2.9967661825	 0.12729
H	 3.228854247	-3.2548578521	 4.695005884	 0.13734
H	 4.3885964241	-1.9692300795	 5.0232337079	 0.115663
H	 2.717052276	-1.2468908059	 6.5916581406	 0.285483
16.9706	38.8163	77.247	127.4368	162.6356	200.7821	237.622	307.5781	341.1366	347.9777	425.6768	469.9398	492.116	568.9256	771.0379	777.5503	840.5037	874.2108	932.2114	982.7115	989.2186	1024.8912	1032.8815	1043.1886	1089.8876	1152.1684	1157.2056	1192.9128	1215.3669	1248.123	1269.4899	1277.1569	1319.6499	1357.4352	1399.5786	1418.7841	1423.2724	1454.335	1469.2006	1490.6981	1493.7782	1504.0893	2361.4344	2973.2303	3018.2383	3036.1485	3059.2862	3074.8191	3095.1523	3097.5271	3120.5788	3131.4684	3512.4021	3817.2239
CC1NC1CC#CCO	C[C@H]1N[C@H]1CC#CCO	
InChI=1S/C7H11NO/c1-6-7(8-6)4-2-3-5-9/h6-9H,4-5H2,1H3	InChI=1S/C7H11NO/c1-6-7(8-6)4-2-3-5-9/h6-9H,4-5H2,1H3/t6-,7+/m1/s1
