17
gdb 61993	3.98136	0.75836	0.6789	5.5392	69.81	-0.2816	0.0296	0.3112	1601.666	0.134714	-455.208097	-455.19804	-455.197096	-455.245206	34.66	
C	 0.030334074	 1.5721026919	 0.1305597631	-0.390318
C	 0.0025315334	 0.032856439	 0.0810905024	-0.154785
C	 0.7333558864	-0.6076959412	 1.2718102018	-0.058386
O	 2.1084570326	-0.2353612215	 1.1508043617	-0.267423
C	 2.8672163367	-0.4585128667	 2.2616847578	 0.499843
N	 4.1449729184	-0.0390628687	 2.0359867729	-0.563645
O	 2.4481088469	-0.9282280166	 3.2910135453	-0.386991
C	-1.3739554445	-0.4689156388	 0.0337741683	 0.258869
N	-2.461262326	-0.8588608854	 0.0040564183	-0.314155
H	 1.0665000841	 1.913236965	 0.1660716422	 0.139253
H	-0.4536961235	 1.9981226619	-0.7509763799	 0.138671
H	-0.4902464129	 1.9387313231	 1.0196920557	 0.140354
H	 0.5033102724	-0.3042754233	-0.8351646263	 0.136632
H	 0.3309882653	-0.2531673908	 2.2241938533	 0.146172
H	 0.640522456	-1.6978759477	 1.2486904978	 0.135074
H	 4.4451116201	 0.1389417163	 1.0930137561	 0.266799
H	 4.8344348706	-0.3242984168	 2.7096362598	 0.274036
13.4854	57.4837	100.5562	168.4556	202.0208	219.2507	257.1201	299.4544	320.4042	380.6565	472.4226	516.0395	554.6486	571.6439	674.5151	780.4952	821.5434	916.9219	933.4366	943.3372	1083.4825	1102.1956	1118.7232	1128.4514	1171.3936	1264.4076	1307.2073	1339.5615	1344.4	1403.1812	1426.6254	1494.9464	1499.6815	1516.3617	1612.2464	1844.2639	2361.355	3038.8921	3056.0043	3058.7419	3113.7074	3131.1764	3145.8963	3618.0316	3747.8081
CC(COC(N)=O)C#N	C[C@@H](COC(=O)N)C#N	
InChI=1S/C5H8N2O2/c1-4(2-6)3-9-5(7)8/h4H,3H2,1H3,(H2,7,8)	InChI=1S/C5H8N2O2/c1-4(2-6)3-9-5(7)8/h4H,3H2,1H3,(H2,7,8)/t4-/m1/s1
