19
gdb 70480	3.01525	1.11082	0.98087	4.0054	78.1	-0.2351	0.0355	0.2706	1269.0672	0.159749	-419.196666	-419.18788	-419.186936	-419.230719	32.696	
C	-0.0019012518	 1.5054839221	-0.1139551675	-0.515442
C	 0.1573493416	 0.0208788444	-0.017988837	 0.333652
N	-0.8228301289	-0.8383805518	 0.6981645378	-0.389838
C	 0.6185283684	-0.8823679824	 1.0737957314	-0.10221
C	 1.2684493317	-1.851722186	 0.0884568973	-0.241742
C	 0.7670152363	-0.917409508	-1.0787517382	-0.008585
N	-0.1659032044	-1.4578751338	-2.0322200439	-0.272568
C	 0.0658907076	-1.5188720163	-3.3691037804	 0.151712
O	 1.0788937626	-1.1472614153	-3.9255636376	-0.33104
H	 0.9312126007	 1.9813217672	-0.4331381254	 0.133843
H	-0.7769889032	 1.7720552115	-0.8418539583	 0.134495
H	-0.2860498305	 1.9350503005	 0.8529927784	 0.118419
H	-1.2966659275	-0.2446425451	 1.3786160837	 0.227011
H	 0.9294330918	-0.640402636	 2.0825435749	 0.09785
H	 2.3582543796	-1.8831516873	 0.1499321624	 0.11241
H	 0.8662680867	-2.867596495	 0.0930719868	 0.105809
H	 1.589391987	-0.4723200239	-1.6377879022	 0.11926
H	-1.0473973467	-1.7796554246	-1.6605279218	 0.256045
H	-0.7944860309	-1.9572226203	-3.9134614402	 0.07092
43.9362	117.5113	172.3978	203.5077	223.437	275.1332	299.2071	418.9246	449.9418	546.344	621.767	656.8134	679.5988	755.5387	846.2697	881.0443	907.6692	926.5935	952.2483	1011.8593	1027.8916	1038.0899	1069.2856	1088.644	1105.6927	1133.0195	1167.3375	1209.5772	1234.3869	1245.5459	1309.0795	1320.072	1360.2199	1408.1067	1429.9587	1443.9988	1478.057	1482.6323	1497.1947	1526.7467	1800.1607	2931.6841	3025.0995	3066.9679	3089.1419	3098.2202	3123.5474	3137.0225	3194.1945	3471.4492	3618.9682
CC12NC1CC2NC=O	C[C@]12N[C@H]1C[C@H]2NC=O	
InChI=1S/C6H10N2O/c1-6-4(7-3-9)2-5(6)8-6/h3-5,8H,2H2,1H3,(H,7,9)	InChI=1S/C6H10N2O/c1-6-4(7-3-9)2-5(6)8-6/h3-5,8H,2H2,1H3,(H,7,9)/t4-,5+,6-/m1/s1
