17
gdb 97242	2.53661	1.55644	1.02826	4.7914	74.88	-0.2503	-0.0325	0.2178	1152.6845	0.136098	-455.149046	-455.140426	-455.139482	-455.183371	30.696	
C	-0.1049203227	 1.4252873979	-0.3048373714	-0.320261
N	-0.0826450736	-0.0275942453	-0.348597206	-0.26188
C	-1.0638990652	-0.6555190372	 0.1323223376	 0.336705
O	-2.1411498486	-0.0011355173	 0.672593301	-0.265225
C	-3.2256977901	-0.7933534717	 1.1516606496	-0.092133
C	-3.4690807538	-1.9378920312	 0.1970820912	-0.09594
O	-2.3131893125	-2.7740663167	 0.1621677996	-0.252087
C	-1.0884730489	-2.1622714244	 0.1192518285	 0.313758
N	-0.0171439866	-2.8299200369	 0.0831956196	-0.479702
H	 0.7508716126	 1.8109694981	-0.8626180702	 0.124645
H	-1.026832598	 1.840410894	-0.7323198155	 0.120809
H	-0.0389559763	 1.7909514621	 0.7282385406	 0.128325
H	-3.0001863336	-1.1775711704	 2.1552770786	 0.127402
H	-4.0907110396	-0.1281572276	 1.2141853386	 0.130494
H	-4.2963974397	-2.570576002	 0.5275286127	 0.131611
H	-3.6938110241	-1.5558156801	-0.8076159646	 0.127051
H	-0.2362060593	-3.8288703211	 0.0694805803	 0.226428
45.9244	78.8426	115.7126	199.9511	211.5968	322.9358	357.1256	459.1117	478.4984	527.6849	572.6441	667.7441	736.1842	767.5995	905.9923	913.5711	968.8199	971.1713	1048.3402	1099.0962	1104.9621	1128.3831	1144.9052	1179.5023	1189.9042	1259.9358	1288.1866	1341.7916	1401.2145	1426.6971	1434.3784	1482.2535	1497.6755	1501.5514	1502.6973	1740.6332	1754.491	3007.9853	3021.2142	3030.5654	3060.2343	3105.1499	3109.0858	3115.3007	3462.6611
CN=C1OCCOC1=N	CN=C1OCCO[C]1[NH]	
InChI=1S/C5H8N2O2/c1-7-5-4(6)8-2-3-9-5/h6H,2-3H2,1H3	InChI=1S/C5H8N2O2/c1-7-5-4(6)8-2-3-9-5/h6H,2-3H2,1H3
