16
gdb 86099	2.65801	1.41269	1.06269	5.3244	70.23	-0.2467	0.023	0.2697	1128.0336	0.125274	-434.108429	-434.099906	-434.098962	-434.141837	31.401	
C	-0.4514977238	 1.518109733	 0.0136141705	-0.412159
C	 0.1106895581	 0.1153450903	-0.090234078	 0.09507
O	 1.217848907	 0.0942519182	-1.0246749162	-0.254094
C	 2.1579570909	-0.707943694	-0.4658206827	 0.489544
N	 3.2454923316	-0.9222065915	-1.250406833	-0.575899
N	 1.9835657803	-1.1527159837	 0.7236375383	-0.344288
C	 0.7458852141	-0.5242358205	 1.1946951515	-0.158676
C	 1.0246328486	 0.4543415103	 2.2625270025	 0.298586
N	 1.2298241704	 1.2263354395	 3.0976195503	-0.335642
H	 0.3027677796	 2.2154590162	 0.3852428392	 0.153925
H	-0.7986278745	 1.8581704385	-0.9654866832	 0.130932
H	-1.3007530326	 1.5313886793	 0.7031221153	 0.136057
H	-0.6473523195	-0.5743402281	-0.4794658964	 0.102168
H	 3.1101254182	-0.8541558467	-2.2457518462	 0.269883
H	 3.8744495446	-1.6398073381	-0.9291946825	 0.276894
H	 0.069551327	-1.2746546727	 1.6182551005	 0.127697
58.1837	136.9958	155.1802	235.8258	279.9215	306.4024	383.0563	421.3318	468.5779	481.132	498.6097	580.8506	692.5651	732.0952	747.5577	842.0415	894.5856	963.2825	981.5595	1017.7817	1076.8628	1116.4127	1151.4714	1178.5838	1251.0525	1320.7752	1345.5955	1378.0667	1419.1707	1453.5972	1482.501	1496.8919	1615.1732	1739.8544	2354.5514	3033.4821	3050.6564	3053.1905	3124.2007	3138.4708	3605.9338	3725.0947
CC1OC(N)=NC1C#N	C[C@H]1O[C](N)[N][C@H]1C#N	
InChI=1S/C5H7N3O/c1-3-4(2-6)8-5(7)9-3/h3-4H,1H3,(H2,7,8)	InChI=1S/C5H7N3O/c1-3-4(2-6)8-5(7)9-3/h3-4H,1H3,(H2,7,8)/t3-,4+/m1/s1
