24
gdb 118112	2.04788	1.09177	0.79918	1.4983	86.38	-0.2243	0.081	0.3054	1531.8001	0.215447	-405.515973	-405.50511	-405.504166	-405.552028	39.965	
C	-2.0155885192	 3.0305216638	-1.0894702061	-0.383978
C	-1.2747023293	 1.7591584503	-0.6616657081	 0.040873
C	-0.50874332	 2.0115048798	 0.6470142572	-0.183849
C	 0.3471141677	 0.8480502228	 1.1473797481	-0.0737
O	 1.1023779677	 1.1924817352	 2.3011862171	-0.4199
N	-2.2570867237	 0.6883439566	-0.4589539392	-0.086814
C	-2.9783077328	 0.161518243	-1.6116159022	-0.25542
C	-2.0156420561	-0.7004410633	-0.8708260232	 0.032181
C	-0.75240976	-1.190234585	-1.5468808668	-0.418804
H	-1.3150934349	 3.8620159554	-1.210730585	 0.112449
H	-2.5375526868	 2.8858472159	-2.0397125446	 0.111728
H	-2.7583341279	 3.3091316743	-0.3350568919	 0.122603
H	-0.5463779915	 1.5078210807	-1.4519162717	 0.058471
H	 0.1482879427	 2.8790149717	 0.5139647453	 0.098471
H	-1.2418894889	 2.2755235489	 1.4216652937	 0.090335
H	-0.2797868484	-0.0353766471	 1.3354543816	 0.097232
H	 1.0873173021	 0.5695470448	 0.3887329321	 0.104908
H	 0.4791579972	 1.3942962242	 3.0064295957	 0.279531
H	-4.0538773745	 0.0491466239	-1.4965479598	 0.109588
H	-2.6649426517	 0.4827545276	-2.6055965944	 0.102764
H	-2.4258306323	-1.4145113539	-0.156946686	 0.088157
H	-0.3869128851	-0.4958528796	-2.30757668	 0.122379
H	 0.0525128703	-1.3619151344	-0.8250309886	 0.127515
H	-0.9561914845	-2.1440893456	-2.0456113131	 0.12328
58.806	96.78	110.7213	150.1975	189.7959	222.9085	236.6691	253.1557	301.6591	336.311	360.1304	386.2305	418.7432	529.9969	552.3681	706.1887	787.9889	797.966	895.2995	912.1465	950.59	973.6817	1005.5166	1037.0508	1041.0892	1077.8093	1101.1529	1111.7357	1119.2745	1137.1441	1145.6181	1169.2303	1191.8388	1216.6294	1293.4454	1318.6181	1334.0026	1359.0271	1369.3293	1400.4608	1401.5231	1408.7534	1417.4672	1421.1643	1473.9742	1490.7406	1493.946	1498.0404	1501.3877	1513.1662	1517.5101	2950.4539	3000.6569	3014.5672	3037.9311	3039.0382	3056.266	3077.393	3078.6599	3095.8029	3098.0815	3111.6993	3114.1857	3123.2412	3162.764	3814.4868
CC(CCO)N1CC1C	C[C@@H](CCO)N1C[C@H]1C	
InChI=1S/C7H15NO/c1-6(3-4-9)8-5-7(8)2/h6-7,9H,3-5H2,1-2H3	InChI=1S/C7H15NO/c1-6(3-4-9)8-5-7(8)2/h6-7,9H,3-5H2,1-2H3/t6-,7+,8?/m0/s1
