18
gdb 65486	2.9447	1.22214	1.01777	2.3516	76.33	-0.2753	0.0297	0.305	1202.0277	0.146438	-401.935545	-401.9269	-401.925956	-401.969053	32.59	
C	-0.5587181857	 1.5684896947	-0.0863333024	-0.451706
C	 0.1112360598	 0.1968231327	 0.0266271248	 0.131667
C	 1.3939677286	-0.0426284731	-0.8575382508	-0.35337
C	 2.0823506613	-0.611612171	 0.3828125903	 0.478812
C	 2.8626691178	-1.8409440197	 0.5171017089	-0.259064
O	 3.4661984826	-0.5406431978	 0.6375938041	-0.267779
C	 0.9965526503	-0.0586063888	 1.3054769802	-0.35337
C	-0.8671630345	-0.8719952733	-0.1610323695	 0.257179
N	-1.6433476818	-1.7163255078	-0.3098747824	-0.343617
H	 0.1859381856	 2.3568600934	 0.0563080557	 0.125691
H	-1.0180705593	 1.7007632699	-1.0702373099	 0.140093
H	-1.3381448753	 1.68789527	 0.671825278	 0.140093
H	 1.2839774144	-0.6897431536	-1.728899649	 0.12998
H	 1.8335099164	 0.9108725519	-1.1638405008	 0.123487
H	 2.8103075401	-2.4170507761	 1.4395832497	 0.124217
H	 3.1431304723	-2.4036707083	-0.3718824918	 0.124217
H	 1.2960149833	 0.8892616385	 1.7616033147	 0.123487
H	 0.585723044	-0.7178160617	 2.0714976002	 0.12998
46.7774	171.7949	180.8913	228.1378	263.4529	307.8665	328.6284	401.8721	405.8266	457.1582	583.2254	595.014	674.8893	803.5761	842.319	874.7457	899.5967	900.479	914.9348	962.7768	996.2646	1075.2207	1122.343	1129.0988	1138.261	1159.0286	1188.1454	1202.997	1242.2728	1269.4072	1295.1308	1413.4025	1440.0738	1463.9846	1485.4633	1489.8848	1497.1359	1539.2005	2349.5301	3040.819	3064.537	3069.1097	3086.4928	3117.8681	3117.9957	3132.4223	3132.6993	3176.2251
CC1(CC2(CO2)C1)C#N	C[C@]1(C[C@]2(CO2)C1)C#N	
InChI=1S/C7H9NO/c1-6(4-8)2-7(3-6)5-9-7/h2-3,5H2,1H3	InChI=1S/C7H9NO/c1-6(4-8)2-7(3-6)5-9-7/h2-3,5H2,1H3/t6-,7-
