16
gdb 31201	2.17033	1.62337	0.94949	4.986	82.88	-0.1852	0.0226	0.2078	1198.5092	0.1248	-396.928027	-396.919203	-396.918258	-396.962173	32.203	
C	 0.2083811812	 1.2895243242	 0.2613935357	-0.339641
N	-0.3039926704	 0.0169166724	-0.2358498684	-0.401135
C	 0.4562800417	-0.7130225017	-1.1295403167	 0.287721
C	 0.6747902246	-2.0793502451	-1.2273253611	 0.084812
N	 1.4414085797	-2.3551774252	-2.3551110744	-0.309936
C	 1.6840099807	-1.201207606	-2.9059592252	-0.015402
N	 1.1102514486	-0.1621690728	-2.2017144402	-0.30117
C	 0.1905833263	-3.0471865866	-0.3223797494	 0.213496
C	-0.2443047783	-3.8289265105	 0.487233124	-0.433578
H	 1.2092581066	 1.2167102541	 0.7127732917	 0.124699
H	 0.2493985124	 2.0265649747	-0.5481136191	 0.123133
H	-0.4865895907	 1.6774276403	 1.0091117208	 0.138746
H	-0.6444901896	-0.5889380254	 0.4997642336	 0.252364
H	 2.2697784347	-1.0276299038	-3.7958107562	 0.128129
H	 1.1217599551	 0.8114775508	-2.4531478547	 0.267028
H	-0.6221998625	-4.5364424193	 1.1821694296	 0.180733
38.2036	120.4078	160.1592	169.2227	220.5071	323.4349	392.306	450.381	470.3652	509.3073	540.8769	604.3452	645.354	673.0457	677.4276	742.9696	766.8819	781.5891	950.7727	1038.7497	1093.4883	1123.0808	1149.5821	1182.3502	1268.9437	1298.2808	1376.7206	1445.3156	1463.5524	1492.5504	1507.9569	1512.6881	1554.0523	1632.135	2218.5365	2990.2559	3065.7201	3124.3199	3255.0399	3504.8932	3573.9973	3670.9047
CNC1=C(N=CN1)C#C	CNc1c(nc[nH]1)C#C	
InChI=1S/C6H7N3/c1-3-5-6(7-2)9-4-8-5/h1,4,7H,2H3,(H,8,9)	InChI=1S/C6H7N3/c1-3-5-6(7-2)9-4-8-5/h1,4,7H,2H3,(H,8,9)
