19
gdb 61032	2.73058	1.16024	0.85945	3.9854	76.57	-0.2447	-0.0313	0.2134	1334.2548	0.156549	-423.048115	-423.038599	-423.037655	-423.083266	33.912	
C	-0.1566505751	 1.4783446225	 0.1407384384	-0.396796
C	 0.009211272	-0.0404484799	 0.0743065338	-0.101958
C	-1.3289058274	-0.766379673	 0.1593840298	 0.136129
O	-2.392005014	-0.2079207286	 0.2643092068	-0.245699
C	 0.7636123577	-0.5014609988	-1.184303299	-0.095439
C	 2.2493539147	-0.0652195102	-1.4127852382	-0.256959
C	 2.6247004287	-1.5202927513	-1.824900916	-0.333795
C	 1.2651272456	-1.9581338645	-1.2631016639	 0.385645
O	 0.8144704755	-3.0037415453	-0.8903834231	-0.295973
H	 0.8156065362	 1.9790248373	 0.1332581254	 0.113412
H	-0.7399337873	 1.8418989671	-0.7104340002	 0.128635
H	-0.6910450782	 1.7689429481	 1.0481981624	 0.133985
H	 0.5888995348	-0.3918243158	 0.9434525631	 0.09669
H	-1.25520019	-1.8722898037	 0.1118557515	 0.113446
H	 0.1656920627	-0.280073804	-2.0788931014	 0.112035
H	 2.4131090037	 0.7100315103	-2.1611980445	 0.116617
H	 2.7319945914	 0.2341532342	-0.4791664049	 0.118424
H	 2.6743277078	-1.6631465667	-2.9092620009	 0.137544
H	 3.5051976009	-1.9819282775	-1.3724137789	 0.134058
57.4084	82.9736	107.8	139.8234	185.7549	249.2593	271.5602	325.0866	345.5309	450.7953	559.5607	644.9182	685.0558	729.7065	766.9103	857.4184	905.4381	925.1984	945.2689	978.7742	1000.502	1033.3136	1088.8916	1110.8653	1141.8236	1169.7348	1195.9859	1225.1122	1237.8057	1258.5167	1278.3966	1328.7269	1347.2971	1407.8892	1429.4712	1443.0872	1488.8591	1492.1301	1493.9545	1822.7771	1879.3294	2933.7635	2982.6256	3024.7506	3047.5782	3061.0514	3076.0537	3116.9487	3118.2339	3127.6039	3139.5306
CC(C=O)C1CCC1=O	C[C@@H](C=O)[C@H]1CCC1=O	
InChI=1S/C7H10O2/c1-5(4-8)6-2-3-7(6)9/h4-6H,2-3H2,1H3	InChI=1S/C7H10O2/c1-5(4-8)6-2-3-7(6)9/h4-6H,2-3H2,1H3/t5-,6+/m0/s1
