18
gdb 55808	4.30064	1.04794	0.96169	2.3063	72.9	-0.266	0.0567	0.3227	1254.0806	0.14882	-439.0794	-439.071348	-439.070404	-439.112902	30.711	
N	-0.1680025276	 1.2883036938	 0.0169738485	-0.566536
C	-0.0180884095	-0.0616658012	 0.1709079868	 0.482046
O	 0.9208463618	-0.6058103744	 0.7018838187	-0.39728
O	-1.1030290766	-0.7039759783	-0.3363178076	-0.28831
C	-1.0709746153	-2.1244794852	-0.2235646542	 0.214791
C	-1.574997795	-2.7883325122	 1.0847972604	-0.073774
C	-3.0075793019	-2.3036661274	 0.6998081588	-0.223404
C	-2.3806547459	-2.8338287592	-0.6270027987	-0.096876
C	-1.847147091	-4.0406784401	 0.2012389613	-0.226425
H	 0.6554956535	 1.8453357262	 0.1661158604	 0.268113
H	-0.8592153579	 1.6288133853	-0.629380213	 0.26379
H	-0.1342666041	-2.5037218525	-0.6353381847	 0.092991
H	-1.0931262648	-2.7558323518	 2.0606176886	 0.086692
H	-3.8378227275	-2.8872884876	 1.1053091404	 0.090128
H	-3.199309625	-1.2325699865	 0.7593834615	 0.105769
H	-2.83449965	-2.8589727279	-1.6181712505	 0.073589
H	-0.9768825898	-4.5723147533	-0.193835231	 0.09587
H	-2.6049213737	-4.7317829778	 0.5749344845	 0.098828
42.311	87.5033	147.1376	312.7794	343.105	367.0457	387.7444	509.1466	547.695	606.3116	690.3818	774.4813	784.6379	805.9057	893.164	902.0897	910.455	921.8256	951.818	1017.1135	1025.0188	1037.1278	1087.4643	1094.6113	1110.1498	1119.4599	1146.0464	1160.3512	1196.2849	1214.2861	1245.9217	1256.5721	1279.2367	1349.1978	1422.7945	1496.9983	1535.0106	1611.0232	1834.64	3056.7135	3068.055	3099.2808	3111.7948	3127.0366	3132.3708	3145.1383	3614.6913	3744.5709
NC(=O)OC1C2CC1C2	NC(=O)O[C@H]1[C@H]2C[C@@H]1C2	
InChI=1S/C6H9NO2/c7-6(8)9-5-3-1-4(5)2-3/h3-5H,1-2H2,(H2,7,8)	InChI=1S/C6H9NO2/c7-6(8)9-5-3-1-4(5)2-3/h3-5H,1-2H2,(H2,7,8)/t3-,4+,5-
