18
gdb 68709	2.52564	1.58594	1.33068	0.8589	83.52	-0.2258	0.0338	0.2596	1044.2775	0.146441	-364.722113	-364.713849	-364.712905	-364.754491	32.618	
C	-0.0240919286	 1.5327813506	 0.0166492973	-0.489488
C	-0.0135542389	 0.0367156588	 0.0493134397	 0.296604
C	 1.1429680799	-0.8256594026	-0.3282970739	-0.367516
C	 0.5760170798	-0.9659992459	 1.0835752421	 0.134094
C	 1.3446812532	-0.7602031488	 2.262079124	 0.188014
C	 1.9855482952	-0.574697167	 3.2648394877	-0.424479
C	-0.7440167582	-1.6914869292	 0.9806402892	-0.113537
C	-1.8832333729	-0.7864058395	 1.2424227725	-0.242635
N	-1.2606715466	-0.7483052885	-0.0976999118	-0.154543
H	 0.9488636212	 1.9312435202	 0.3173479955	 0.133635
H	-0.2425487244	 1.8911427435	-0.9955834933	 0.13563
H	-0.7817542775	 1.9434021626	 0.6916083621	 0.125628
H	 1.0040304818	-1.6378153918	-1.0367757496	 0.119241
H	 2.1056563165	-0.3274285349	-0.3802462319	 0.125562
H	 2.5528363029	-0.4186901257	 4.1484157153	 0.185485
H	-0.8586111863	-2.766904867	 0.884833652	 0.102451
H	-2.8800857984	-1.2165911485	 1.2317129121	 0.122919
H	-1.7530125887	 0.0589400937	 1.9130964709	 0.122934
113.0814	135.868	188.7504	250.8542	282.6533	367.3694	417.7663	506.8737	539.5113	549.2233	561.4999	584.9873	654.0373	689.4095	763.287	770.709	808.6245	853.9391	961.7737	973.5873	989.9095	1025.3484	1058.3131	1074.7703	1102.9752	1114.5911	1127.5884	1150.7827	1216.4529	1246.7124	1287.82	1349.4899	1382.6593	1424.1423	1479.2774	1488.5142	1494.8986	1500.4383	2227.112	3034.3217	3097.2926	3114.5855	3116.0158	3118.1379	3161.1291	3206.8887	3212.6543	3503.4794
CC12CC1(C#C)C1CN21	C[C@@]12C[C@]1(C#C)[C@H]1CN21	
InChI=1S/C8H9N/c1-3-8-5-7(8,2)9-4-6(8)9/h1,6H,4-5H2,2H3	InChI=1S/C8H9N/c1-3-8-5-7(8,2)9-4-6(8)9/h1,6H,4-5H2,2H3/t6-,7-,8-,9?/m1/s1
