23
gdb 99863	2.02661	1.39752	1.05941	3.9828	86.15	-0.2239	0.0356	0.2594	1293.5065	0.203363	-384.472008	-384.4609	-384.459955	-384.507621	40.756	
C	 0.0887959942	 1.5640500287	 0.2087515904	-0.411361
C	-0.0687020598	 0.0649492351	-0.0633958952	-0.207546
C	 0.6450042511	-0.4689280335	-1.339896176	 0.115523
C	-0.0112861441	 0.1107178332	-2.6200635391	-0.422629
C	 2.0486070104	 0.0024883259	-1.2892687465	 0.306082
N	 3.1315060399	 0.4046000905	-1.2533770624	-0.364063
N	 0.6917786884	-1.9497929512	-1.299950392	-0.077347
C	-0.6000430661	-2.610556659	-1.1670704166	-0.333327
C	 1.4774820833	-2.5620431123	-2.3663953123	-0.344886
H	 1.1390339502	 1.8466323717	 0.319626888	 0.14937
H	-0.3446804893	 2.1755506118	-0.5882529622	 0.121409
H	-0.429091085	 1.824594645	 1.1363928297	 0.120297
H	 0.3165984648	-0.5106499481	 0.7843026216	 0.123071
H	-1.1339357314	-0.1667004518	-0.1562164459	 0.107131
H	 0.0257018987	 1.2021258369	-2.6203315153	 0.137562
H	 0.4989463088	-0.2388096391	-3.520087134	 0.134802
H	-1.0593828538	-0.1970514186	-2.6704800358	 0.124552
H	-1.2729463262	-2.4650545868	-2.0313104016	 0.097884
H	-0.4226508265	-3.6858989134	-1.0719991833	 0.126611
H	-1.1219646953	-2.2874106248	-0.2653200677	 0.125915
H	 2.4555436497	-2.0817472011	-2.4413822839	 0.149207
H	 1.6402377302	-3.6158718731	-2.1201250095	 0.124259
H	 0.9936328479	-2.523953816	-3.3583594504	 0.097484
65.1487	92.1225	165.1184	168.4716	214.8182	226.2023	237.43	256.9375	260.3172	292.0479	344.9804	379.6518	427.8596	431.5687	463.0833	575.7308	599.0956	664.655	799.306	846.5205	905.2105	960.7254	1007.0094	1020.2821	1070.0629	1072.691	1122.1867	1152.4992	1160.1347	1187.5607	1203.7095	1274.8698	1294.092	1318.7791	1357.5868	1400.4978	1416.7719	1446.2965	1476.805	1479.0612	1486.0125	1491.1371	1497.5255	1502.6985	1506.5108	1508.412	1514.72	1520.6119	2353.1017	2944.352	2952.8511	3045.736	3047.9654	3056.6124	3069.931	3077.755	3091.1562	3111.8406	3124.2625	3125.7717	3130.8575	3132.1036	3136.2489
CCC(C)(C#N)N(C)C	CC[C@@](C)(C#N)N(C)C	
InChI=1S/C7H14N2/c1-5-7(2,6-8)9(3)4/h5H2,1-4H3	InChI=1S/C7H14N2/c1-5-7(2,6-8)9(3)4/h5H2,1-4H3/t7-/m0/s1
