13
gdb 132119	3.06249	1.43533	0.97843	3.6379	68.01	-0.2014	-0.0611	0.1403	1083.9838	0.08988	-494.077949	-494.070432	-494.069488	-494.109937	28.33	
N	 0.0263641012	 1.447167144	 0.1642757786	-0.581819
C	-0.0110343366	 0.0521144329	 0.0506058812	 0.18989
C	-1.1671984683	-0.6691713014	 0.0168650794	 0.317532
F	-2.374723758	-0.113320065	 0.008455756	-0.054346
N	-1.1458202592	-2.0259745384	-0.0239116912	-0.4062
C	 0.0354186729	-2.7919892153	-0.0260764673	 0.383199
O	 0.0105493368	-4.0087990063	-0.0584908906	-0.389048
C	 1.2084295004	-1.9216871691	 0.0066733654	-0.121076
N	 1.1714627014	-0.6213906393	 0.038840124	-0.26347
H	 0.916506958	 1.8072487466	-0.1546336158	 0.25701
H	-0.744192521	 1.9157224094	-0.293161679	 0.251726
H	-2.0214399881	-2.5324790154	-0.0513350278	 0.278063
H	 2.1762870105	-2.4142950328	-0.002537823	 0.138541
119.4721	182.1557	236.553	280.941	341.0804	349.9319	458.5895	494.0214	505.4207	597.0389	604.3657	674.8952	712.5944	722.6357	768.4517	836.8391	919.8917	949.4556	1063.9726	1177.3042	1252.4538	1306.6086	1333.8148	1419.5872	1483.238	1568.5572	1630.9472	1702.0613	1787.9554	3179.5394	3544.3057	3601.2364	3646.781
NC1=C(F)NC(=O)C=N1	Nc1c(F)[nH]c(=O)cn1	
InChI=1S/C4H4FN3O/c5-3-4(6)7-1-2(9)8-3/h1H,(H2,6,7)(H,8,9)	InChI=1S/C4H4FN3O/c5-3-4(6)7-1-2(9)8-3/h1H,(H2,6,7)(H,8,9)
