18
gdb 90901	2.51441	1.94541	1.43698	3.3568	69.62	-0.2202	0.0562	0.2764	940.1166	0.148728	-439.038455	-439.030944	-439.029999	-439.069886	30.672	
O	-0.1192051291	 1.4526501936	-0.0180819907	-0.450295
C	-0.0051644796	 0.0385719645	 0.0280045884	 0.066476
C	 0.6332828485	-0.5610933281	 1.305901318	-0.295975
C	-0.2161074547	-1.8003468923	 1.572338018	-0.018308
C	-1.2340273017	-2.0038065936	 0.5161138875	-0.11337
N	-1.6621544159	-1.6430393053	 1.9109922748	-0.149773
C	-2.1026463649	-0.2953627769	 1.4009394743	-0.219084
C	-1.4189479964	-0.5473586181	 0.0304342356	 0.404519
O	-2.1370722099	-0.3187665733	-1.1419494789	-0.509791
H	 0.7518801729	 1.8318276097	-0.1663528419	 0.291545
H	 0.5150843895	-0.3349510165	-0.8676482918	 0.07397
H	 1.6826027108	-0.8334365024	 1.1582841025	 0.1024
H	 0.591806644	 0.1583126163	 2.1306554008	 0.115058
H	 0.2261123537	-2.6491429705	 2.0827376431	 0.097549
H	-1.5178991955	-2.9216792182	 0.0161203595	 0.09852
H	-3.1902693482	-0.3062504639	 1.3065028339	 0.115631
H	-1.7878719933	 0.5661058177	 1.9979467493	 0.103943
H	-1.9995716903	 0.6092214072	-1.3704229826	 0.286986
132.1302	235.402	275.1646	313.6458	352.7391	384.3406	389.6935	473.489	532.4514	550.2611	659.0068	699.8077	748.4854	784.943	824.2781	898.6193	936.8388	965.397	994.6338	1008.8489	1036.4772	1043.9389	1072.3222	1109.0469	1131.6933	1171.4791	1180.3669	1204.7301	1235.44	1252.1368	1271.2465	1281.128	1303.1786	1354.4166	1376.853	1406.5569	1431.6308	1484.2323	1510.322	2982.9166	3045.96	3054.8999	3089.2753	3120.5948	3169.1527	3191.6274	3780.033	3832.2192
OC1CC2C3N2CC13O	O[C@H]1C[C@@H]2[C@H]3N2C[C@@]13O	
InChI=1S/C6H9NO2/c8-4-1-3-5-6(4,9)2-7(3)5/h3-5,8-9H,1-2H2	InChI=1S/C6H9NO2/c8-4-1-3-5-6(4,9)2-7(3)5/h3-5,8-9H,1-2H2/t3-,4+,5-,6-,7?/m1/s1
