14
gdb 16510	3.9371	2.49047	1.9077	0.7126	60.68	-0.2193	-0.0031	0.2162	698.0848	0.107408	-382.479079	-382.473152	-382.472208	-382.5086	24.566	
O	-0.065580212	 1.3667775332	-0.0295373872	-0.47183
C	 0.0140247465	-0.0182499325	-0.0899778846	 0.316362
C	 0.9718003575	-0.7360977927	-0.9665879352	-0.13931
C	 0.5473694906	-1.9941576679	-1.1576583104	-0.093826
C	-0.6722954915	-2.1998906085	-0.2990767034	 0.02718
O	-0.1676663958	-2.1901236826	 1.1140550086	-0.296124
C	-0.4856371192	-0.8247352532	 1.1838254666	 0.033993
C	-1.2822875415	-0.7849275011	-0.0719228829	-0.188178
H	 0.6435548253	 1.6885611245	 0.5369663817	 0.290158
H	 1.9069442594	-0.3043747836	-1.3027539375	 0.103501
H	 1.0783650839	-2.7936171673	-1.6567969559	 0.107253
H	-1.3077794402	-3.0671821296	-0.4666726303	 0.088433
H	-0.5764203263	-0.3549443852	 2.1564073264	 0.113062
H	-2.2553026667	-0.3911703035	-0.3361700259	 0.109326
267.194	314.7393	346.9731	406.185	415.7652	579.0338	619.8196	692.2639	722.3404	764.6026	809.9937	817.7597	856.0486	879.7622	923.4428	930.4616	963.2105	980.6919	1055.3027	1087.4203	1094.5057	1159.1699	1204.4884	1228.1207	1253.0906	1303.9108	1309.532	1370.1197	1410.1401	1624.8354	3137.9045	3183.6518	3199.5734	3200.2654	3229.4687	3804.6579
OC12C=CC3OC1C23	O[C@@]12C=C[C@H]3O[C@@H]1[C@@H]23	
InChI=1S/C6H6O2/c7-6-2-1-3-4(6)5(6)8-3/h1-5,7H	InChI=1S/C6H6O2/c7-6-2-1-3-4(6)5(6)8-3/h1-5,7H/t3-,4+,5-,6-/m1/s1
