16
gdb 25016	5.07166	1.04772	0.90778	4.248	73.91	-0.1854	0.0396	0.225	1248.1359	0.125312	-434.051133	-434.043238	-434.042294	-434.083874	29.786	
N	-0.1236277054	 1.2195922152	-0.0096742154	-0.608716
C	-0.0920554591	-0.0468522139	-0.0235632934	 0.475911
N	-1.1328549523	-0.8962938017	 0.3019155568	-0.391836
C	-0.6972407854	-2.2205275403	 0.2322733229	 0.329767
C	 0.5731985402	-2.1864120797	-0.1982533325	-0.130783
O	 0.9665519528	-0.8589326771	-0.3679318269	-0.219216
N	-1.5388156793	-3.252058245	 0.6358055458	-0.170497
C	-2.5592279701	-3.7327141771	-0.3129180946	-0.229629
C	-1.3651401749	-4.5591667331	 0.0122432242	-0.225489
H	 0.7760249978	 1.6011727454	-0.2895318553	 0.223242
H	-1.9594925308	-0.5778430333	 0.7758314648	 0.27615
H	 1.3075198694	-2.944126801	-0.3977396152	 0.140625
H	-3.5225745225	-3.9612610564	 0.130682444	 0.131634
H	-2.589273303	-3.2660571841	-1.2936504907	 0.136096
H	-0.606901837	-4.6513679819	-0.7610833623	 0.13034
H	-1.4483407703	-5.4053507961	 0.6862509379	 0.132399
75.2035	122.5339	180.2813	204.8982	343.146	382.9378	414.1391	521.2384	575.027	622.623	678.2332	714.1301	740.5426	756.2857	820.5697	879.8406	909.5465	926.0757	1028.3672	1040.6177	1066.717	1095.0726	1112.8165	1137.8025	1172.6773	1176.9896	1209.1134	1236.6772	1338.9599	1367.5528	1442.8901	1486.2148	1512.1005	1713.5577	1792.4177	3116.3184	3120.592	3204.2132	3218.7809	3313.3075	3540.6096	3694.1884
N=C1NC(=CO1)N1CC1	[NH][C@H]1NC(=CO1)N1CC1	
InChI=1S/C5H7N3O/c6-5-7-4(3-9-5)8-1-2-8/h3H,1-2H2,(H2,6,7)	InChI=1S/C5H8N3O/c6-5-7-4(3-9-5)8-1-2-8/h3,5-7H,1-2H2/t5-/m0/s1
