17
gdb 28464	3.1435	1.41825	0.98435	2.1105	81.06	-0.2039	-0.0005	0.2034	1170.5994	0.138657	-414.27668	-414.268325	-414.26738	-414.309028	32.582	
C	-0.0757815407	 1.5256353055	-0.0118735917	-0.523668
C	-0.0081103687	 0.0244649654	-0.007492643	 0.20917
C	 0.0157303953	-0.7349491959	-1.1648782344	-0.060867
N	 0.0612984818	-2.0695260539	-1.2046529642	-0.339994
C	 0.0881689345	-2.6662700796	-0.0054706843	 0.419502
N	 0.1869097628	-4.033846686	-0.0000338354	-0.558458
N	 0.0657913278	-2.0645657691	 1.1914112173	-0.380721
C	 0.0159518565	-0.7316050132	 1.1871425374	 0.308821
N	-0.058199231	-0.1225882956	 2.4149839566	-0.568471
H	 0.8019907211	 1.9857300996	 0.4637796161	 0.118651
H	-0.1202127302	 1.9063873388	-1.0361508823	 0.128815
H	-0.9611773995	 1.8988011113	 0.5186003337	 0.129786
H	-0.0070763969	-0.2321278482	-2.1317397749	 0.09625
H	-0.0599454632	-4.4905380041	-0.8625106003	 0.256992
H	-0.0770086764	-4.494277621	 0.8550808916	 0.254283
H	 0.1770891235	-0.7154937024	 3.1959729525	 0.25528
H	 0.2389382432	 0.8359974284	 2.4882045253	 0.254627
121.7274	178.0509	224.0337	281.1213	307.0935	331.2991	413.6433	435.3015	460.7224	473.0825	496.391	527.4715	539.196	596.3366	745.3101	768.0565	794.8986	825.5361	972.0622	980.4513	1017.9049	1065.2015	1068.9178	1171.2477	1226.8297	1311.8753	1339.8607	1380.069	1413.6979	1479.5739	1482.8037	1491.6011	1507.4324	1598.9078	1620.3751	1643.6285	1656.2437	3001.8096	3048.3222	3103.9492	3127.3015	3590.6812	3602.5523	3712.0952	3728.9217
CC1=CN=C(N)N=C1N	Cc1cnc(N)nc1N	
InChI=1S/C5H8N4/c1-3-2-8-5(7)9-4(3)6/h2H,1H3,(H4,6,7,8,9)	InChI=1S/C5H8N4/c1-3-2-8-5(7)9-4(3)6/h2H,1H3,(H4,6,7,8,9)
