19
gdb 39224	2.54102	2.23303	1.57632	1.4523	78.54	-0.2096	0.0103	0.22	907.1597	0.162221	-385.863915	-385.857302	-385.856357	-385.894321	28.682	
C	-0.0729154757	 1.4703286542	 0.1008050725	-0.412321
C	 1.3155872595	 0.8541128156	 0.0063806748	-0.047466
C	 2.212308566	 0.3933069097	 1.1495592098	-0.213066
C	 2.2937336366	-1.1668977217	 1.1268798796	-0.230299
C	 0.8627291633	-1.781061641	 0.9232781539	 0.03003
O	-0.0735273855	-0.7223444706	 1.1670605143	-0.269981
C	 0.0523994497	-0.0014522949	-0.0430590654	 0.3949
C	 0.0088640827	-1.056962642	-1.108362479	-0.168447
C	 0.5405382957	-2.1395789617	-0.537748199	-0.1036
H	-0.4444102377	 1.8192838372	 1.0595314025	 0.125666
H	-0.3969745848	 2.0597466974	-0.750512505	 0.117961
H	 1.8118471448	 1.0096027987	-0.9476898206	 0.083917
H	 3.216865606	 0.8201689633	 1.0679465196	 0.091179
H	 1.8073201726	 0.717440276	 2.1112117178	 0.11242
H	 2.9655804514	-1.4979128675	 0.3279023965	 0.099219
H	 2.7209550955	-1.5240847481	 2.0689360034	 0.098335
H	 0.6611085981	-2.5882143657	 1.6306698488	 0.080132
H	-0.2843675176	-0.9096919413	-2.1384803527	 0.108667
H	 0.7690398694	-3.0909291675	-0.9988689618	 0.102756
206.8164	263.9472	338.237	387.0232	441.3399	452.8309	580.7786	602.4743	654.8132	708.2893	757.2452	793.5217	820.991	831.9709	858.6323	884.4949	902.8703	918.3992	941.4289	951.6578	990.3452	1027.572	1035.4098	1080.7509	1103.0461	1109.6588	1133.2946	1192.6383	1209.5228	1242.0326	1286.278	1313.7596	1321.4786	1343.828	1350.7227	1358.0752	1419.6771	1473.1302	1486.7063	1490.9985	1634.011	3041.4435	3053.9414	3076.4432	3091.4318	3102.0937	3125.5155	3142.0422	3214.7111	3216.4711	3242.0247
C1C2CCC3OC12C=C3	C1[C@H]2CC[C@H]3O[C@@]12C=C3	
InChI=1S/C8H10O/c1-2-7-3-4-8(9-7)5-6(1)8/h3-4,6-7H,1-2,5H2	InChI=1S/C8H10O/c1-2-7-3-4-8(9-7)5-6(1)8/h3-4,6-7H,1-2,5H2/t6-,7-,8+/m1/s1
