19
gdb 72797	2.68561	1.69345	1.30073	1.6301	77.63	-0.2388	0.0098	0.2486	1028.1906	0.159858	-423.000849	-422.992987	-422.992043	-423.032751	31.057	
C	-0.0057111258	 1.5457952927	-0.0930126407	-0.439916
C	 0.0517665251	 0.0312515563	 0.0424656629	 0.387766
C	 0.6543701116	-0.642174958	-1.1936119132	-0.15121
O	 2.0596356545	-0.4020118774	-1.1262084364	-0.260069
C	 2.7435158941	-1.0338940735	-0.050373672	-0.097536
C	 1.9395836399	-1.1248111386	 1.2237234186	-0.244875
C	 0.7409535777	-0.5651047766	 1.2420041328	 0.192047
C	-0.6178865459	-0.7718291289	 1.8574502087	-0.166245
O	-1.2160130652	-0.4949080093	 0.556892066	-0.348547
H	 0.9511579488	 1.9255830201	-0.4613710517	 0.134182
H	-0.7910279534	 1.8190854434	-0.8060825833	 0.122816
H	-0.2304194898	 2.0253057178	 0.8635710846	 0.115006
H	 0.4137422304	-1.7144715369	-1.1901400421	 0.098725
H	 0.3255051801	-0.2018660193	-2.1393957629	 0.106408
H	 3.0329876156	-2.0602911086	-0.3389929211	 0.104047
H	 3.6736776892	-0.4674681935	 0.0788356063	 0.122715
H	 2.3178710474	-1.7613994001	 2.0187866939	 0.098156
H	-0.8499879068	-1.7784252699	 2.2224501158	 0.11807
H	-0.9347496374	-0.0343244997	 2.6076612636	 0.108461
135.5919	221.7033	230.6174	247.774	266.6322	354.7561	369.4205	435.18	472.7435	539.4442	640.9573	736.1228	791.6826	815.6963	876.7433	901.7104	954.9611	963.7355	975.0552	991.3191	1022.5078	1042.2913	1091.6412	1117.8476	1138.941	1146.9267	1211.7335	1234.7636	1254.7102	1291.6278	1318.6407	1348.4309	1364.8145	1392.724	1405.6422	1485.0286	1486.692	1493.7371	1501.8763	1512.0423	1785.2198	2947.8555	3003.8709	3009.2219	3038.0601	3045.6271	3063.6705	3089.5136	3109.4334	3125.5728	3167.2501
CC12COCC=C1CO2	C[C@@]12COC[CH][C]1CO2	
InChI=1S/C7H10O2/c1-7-5-8-3-2-6(7)4-9-7/h2H,3-5H2,1H3	InChI=1S/C7H10O2/c1-7-5-8-3-2-6(7)4-9-7/h2H,3-5H2,1H3/t7-/m1/s1
