23
gdb 100108	3.55694	0.83183	0.82315	2.6888	82.08	-0.2626	0.069	0.3316	1523.4196	0.20275	-425.402847	-425.392038	-425.391093	-425.438939	39.562	
C	 0.0189239505	 1.5317496424	-0.0634232447	-0.404841
C	 0.042064154	-0.0032228615	 0.057130197	 0.253791
C	 0.6698124458	-0.418453726	 1.4013008269	-0.415701
C	-1.3995747211	-0.5395455384	-0.0070969015	-0.08687
O	-2.1522557671	 0.0068426444	 1.0660789408	-0.42603
C	 0.8039290437	-0.6394506019	-1.1322033882	-0.244331
C	 2.2562451681	-0.247354972	-1.2659848679	 0.083974
C	 2.9248702783	-0.1963215057	-2.5726492898	-0.182637
O	 2.543737699	 1.0044535517	-1.9011685311	-0.230424
H	 1.0263217125	 1.9505123176	-0.0033298039	 0.12647
H	-0.4083309422	 1.8430700097	-1.0229532825	 0.104618
H	-0.5900997222	 1.9622986387	 0.7347737677	 0.125152
H	 0.0450664643	-0.0752929922	 2.2287872433	 0.134868
H	 0.7598853805	-1.5087355306	 1.4774458105	 0.099354
H	 1.6669512422	 0.0125953797	 1.5301075838	 0.110844
H	-1.8443598252	-0.2645990841	-0.9775153244	 0.080963
H	-1.3816985458	-1.6408272469	 0.0485712642	 0.077381
H	-3.0524139429	-0.3234235591	 1.0021493961	 0.287736
H	 0.7584403939	-1.7342217982	-1.0398253086	 0.094494
H	 0.2976437089	-0.3773364255	-2.0698179979	 0.09643
H	 2.8866462697	-0.4466142966	-0.3987356493	 0.093386
H	 3.9970872533	-0.3748265585	-2.6436413382	 0.11146
H	 2.3571233319	-0.428037697	-3.4734607024	 0.109912
40.0628	93.2617	123.7932	148.6551	221.427	225.9324	248.6817	260.8155	308.6938	327.7818	345.1845	395.3038	406.9477	456.4196	590.0389	748.7213	791.3203	859.252	899.2343	915.5875	935.4575	955.3706	962.5412	1003.3875	1038.8016	1073.277	1098.6549	1110.4035	1156.8023	1167.7485	1196.815	1204.9722	1222.3903	1255.6472	1289.8073	1298.652	1332.299	1348.7504	1396.5441	1413.4554	1445.5549	1459.8462	1466.0779	1480.7653	1494.5909	1499.9566	1513.7526	1519.2853	1529.3218	2952.3204	2984.3974	3003.6695	3030.127	3040.917	3051.6688	3078.2047	3095.3411	3107.3194	3110.2439	3127.0434	3133.3858	3164.0398	3840.1965
CC(C)(CO)CC1CO1	CC(C)(CO)C[C@H]1CO1	
InChI=1S/C7H14O2/c1-7(2,5-8)3-6-4-9-6/h6,8H,3-5H2,1-2H3	InChI=1S/C7H14O2/c1-7(2,5-8)3-6-4-9-6/h6,8H,3-5H2,1-2H3/t6-/m0/s1
