20
gdb 97409	5.55232	0.74097	0.71143	2.9587	84.71	-0.2425	0.0283	0.2708	1658.6249	0.170097	-403.11239	-403.103347	-403.102403	-403.147481	32.977	
C	-0.1449239345	 1.3769586527	 0.0963205319	-0.313868
N	 0.0967514798	-0.0380213126	-0.0888247378	-0.209313
C	 0.5776418786	-0.6728342282	 0.8846851001	 0.129892
O	 0.8662972215	-1.9848458125	 0.7821556514	-0.213523
C	 1.2371475906	-2.656779559	 1.9812948216	 0.125866
C	 0.1011374816	-3.3343230807	 2.8204438251	-0.26951
C	 0.8152447854	-4.6770011081	 2.6259291017	-0.042712
C	 0.9101805417	-4.982583998	 1.1622747866	-0.269607
C	 1.8912659817	-4.007461873	 1.7556383678	-0.076418
H	 0.4344245985	 1.9499426143	-0.6370512833	 0.126611
H	-1.2017414492	 1.5980929768	-0.0928474745	 0.125876
H	 0.1105015123	 1.7492962887	 1.1026344361	 0.093021
H	 0.813479982	-0.2296313734	 1.8665223118	 0.067992
H	 1.8520152546	-1.9926820301	 2.5991419146	 0.086127
H	 0.0789758347	-2.9775335925	 3.8524212868	 0.105391
H	-0.9035768154	-3.2636393878	 2.393087704	 0.11103
H	 0.951041227	-5.4314253004	 3.3897111573	 0.091701
H	 1.3369486992	-5.947566224	 0.9096263588	 0.114811
H	 0.1435088376	-4.6357053259	 0.4754113548	 0.12736
H	 2.9597941522	-4.1790372564	 1.7218545254	 0.089273
31.028	82.2896	96.7699	195.9612	206.9974	292.8716	328.9824	383.873	434.8514	455.6495	638.297	696.2519	784.1933	812.6217	852.3658	922.0152	961.0228	971.6866	985.3505	1021.7356	1026.4656	1056.6998	1063.3358	1072.78	1087.8672	1124.2036	1141.3046	1145.9576	1159.2742	1213.079	1238.6015	1244.7216	1266.2282	1316.9716	1367.6102	1374.4972	1420.6381	1449.7768	1478.1933	1480.1787	1498.082	1504.7124	1777.621	2961.2564	2976.5718	3039.5778	3055.0185	3056.1923	3074.4729	3114.4809	3123.5843	3187.3837	3198.3668	3213.3178
CN=COC1CC2CC12	CN=CO[C@H]1C[C@H]2C[C@@H]12	
InChI=1S/C7H11NO/c1-8-4-9-7-3-5-2-6(5)7/h4-7H,2-3H2,1H3	InChI=1S/C7H11NO/c1-8-4-9-7-3-5-2-6(5)7/h4-7H,2-3H2,1H3/t5-,6-,7+/m1/s1
