17
gdb 123900	3.47224	1.54878	1.11468	4.4485	74.54	-0.2011	0.0156	0.2167	1053.5609	0.13968	-418.017166	-418.010055	-418.009111	-418.048623	27.959	
C	-0.0226403811	 1.5238300293	 0.0130215625	-0.210292
C	 1.4005552429	 2.1132131875	 0.0412677906	-0.157435
N	 2.2273584368	 1.5710468033	 1.1293851481	-0.405351
C	 1.9124825542	 0.301211384	 1.5175181211	 0.468439
C	 0.952355262	-0.5164662611	 0.9850806037	 0.085903
C	-0.0060261993	-0.0197582775	-0.0549503884	-0.34009
C	 1.1211733492	-1.7027864175	 1.7403740796	-0.075916
N	 2.0730121413	-1.6192458291	 2.6402452295	-0.169417
O	 2.5972666522	-0.3056702883	 2.4890766461	-0.241598
H	-0.5561744473	 1.8379244911	 0.9175875203	 0.110362
H	-0.5587295198	 1.9413387428	-0.8448800122	 0.103744
H	 1.8982511516	 1.905313573	-0.9153890384	 0.119243
H	 1.3619503366	 3.1996249205	 0.1524573635	 0.114624
H	 2.5310107977	 2.2044489571	 1.852536278	 0.254375
H	-1.0165971184	-0.4078071056	 0.1129941924	 0.111215
H	 0.2836952185	-0.3446047175	-1.0637058148	 0.110627
H	 0.5665459828	-2.6297875219	 1.6715446682	 0.121565
112.9117	201.2948	263.2934	315.8377	372.1623	394.0411	460.6851	526.6233	622.5146	676.4038	730.6723	745.0359	856.1679	868.6172	875.398	916.1191	946.4617	954.8307	991.4844	1071.0622	1105.2596	1182.0703	1211.4524	1218.3453	1227.0412	1291.1564	1316.4112	1332.3077	1366.5828	1391.1486	1421.9962	1461.932	1480.4002	1488.5091	1502.6794	1574.9623	1677.0908	3007.815	3016.1344	3039.2503	3063.1531	3090.5232	3097.646	3226.1321	3620.7791
C1CNC2=C(C1)C=NO2	C1CNc2c(C1)cno2	
InChI=1S/C6H8N2O/c1-2-5-4-8-9-6(5)7-3-1/h4,7H,1-3H2	InChI=1S/C6H8N2O/c1-2-5-4-8-9-6(5)7-3-1/h4,7H,1-3H2
