17
gdb 50137	3.82265	1.15388	0.95926	4.658	77.89	-0.2545	-0.025	0.2296	1215.4024	0.13621	-418.013844	-418.00551	-418.004566	-418.047182	30.504	
N	-0.1018264628	 1.1382201664	-0.5814630587	-0.555803
C	-0.0465476337	-0.086646477	-0.3036880186	 0.351605
N	 0.9990733578	-1.0245567042	-0.0751627249	-0.11971
C	 0.0803191361	-2.1585487096	 0.1665577606	-0.262942
C	-1.0687076981	-1.159398821	-0.0772435752	 0.250251
C	-2.3803624264	-1.0112347333	 0.6401731949	-0.312318
C	-2.3573499877	-1.342909398	-0.8274393089	-0.312315
C	 2.3571856503	-0.8958922049	-0.0831746771	 0.138832
O	 2.9380183337	 0.1432497519	-0.3089493764	-0.306977
H	 0.8337510399	 1.5385170258	-0.6572436201	 0.250811
H	 0.1746036661	-2.9618103176	-0.5701974675	 0.128156
H	 0.1470681953	-2.5665194878	 1.1794885032	 0.128152
H	-2.6616928881	-1.7923483453	 1.3386082767	 0.122022
H	-2.6596119379	-0.0061100743	 0.9361725407	 0.14494
H	-2.6208563722	-0.5645833922	-1.5350018108	 0.144941
H	-2.6229796095	-2.3503008078	-1.1302592552	 0.12202
H	 2.8730228672	-1.8503778312	 0.1405683672	 0.088334
61.4741	152.5735	160.4785	218.6172	221.2159	243.4441	341.392	423.8722	511.0255	629.3385	689.6935	764.1392	792.252	854.1446	859.1966	903.845	929.0263	955.874	999.9198	1030.423	1061.2251	1072.7466	1094.8356	1140.756	1152.0621	1195.4322	1209.6857	1256.6383	1264.6828	1394.9741	1406.516	1439.7141	1458.2684	1502.8899	1512.8272	1759.12	1823.7887	2941.9249	3045.488	3098.1997	3133.2743	3135.6411	3218.2467	3232.2254	3496.0349
N=C1N(CC11CC1)C=O	[NH][C]1N(CC21CC2)C=O	
InChI=1S/C6H8N2O/c7-5-6(1-2-6)3-8(5)4-9/h4,7H,1-3H2	InChI=1S/C6H8N2O/c7-5-6(1-2-6)3-8(5)4-9/h4,7H,1-3H2
