14
gdb 21165	2.50091	1.98338	1.17774	4.826	65.72	-0.2251	-0.0571	0.168	977.2387	0.105748	-412.031717	-412.022866	-412.021922	-412.065593	30.403	
C	 0.0712942989	 0.9905107728	 0.4705669421	-0.32828
N	-0.2090849608	-0.1106099721	-0.4567189964	-0.357286
C	-1.3813279006	-0.8657730267	-0.2219305728	 0.096447
C	-1.407059364	-2.2650076748	 0.2413586329	 0.378544
N	-0.1581363575	-2.7848040179	 0.4476044689	-0.544397
O	-2.4450495642	-2.8754031566	 0.438153519	-0.39808
N	-3.5342561165	 0.2463340179	-0.5734206512	-0.23393
N	-2.5557756359	-0.2972781379	-0.394310024	 0.239042
H	 1.0318073186	 1.4422107039	 0.2057930823	 0.127
H	-0.6955624091	 1.7797289151	 0.465897928	 0.118077
H	 0.1446801234	 0.5907094486	 1.485383159	 0.143107
H	-0.1201123938	 0.1872213018	-1.4220961945	 0.239897
H	 0.6420288942	-2.2844190882	 0.0971061481	 0.258899
H	-0.0953114528	-3.776535816	 0.6046705684	 0.260961
57.7289	106.817	134.3662	163.9307	190.2664	274.113	324.1429	394.896	447.5953	477.8589	565.6989	578.1772	654.2883	687.0042	746.5405	772.6312	1030.2193	1084.4295	1144.1802	1168.5915	1220.4478	1287.6784	1394.5812	1456.229	1467.1485	1491.8549	1515.449	1588.1796	1767.4524	2184.5999	2991.4441	3079.9225	3122.7765	3517.1124	3595.302	3734.263
CNC1=C(N)ON=N1	CN[C](C(=O)N)[N][N]	
InChI=1S/C3H6N4O/c1-5-3-2(4)8-7-6-3/h5H,4H2,1H3	InChI=1S/C3H6N4O/c1-6-3(7-5)2(4)8/h1H3,(H2,4,8)(H,6,7)
