15
gdb 43064	3.47771	1.86602	1.63327	3.6803	66.76	-0.2201	-0.0241	0.196	830.2477	0.114497	-420.581615	-420.575721	-420.574777	-420.611819	24.444	
O	-0.0254414869	 0.0019381522	-0.1709277553	-0.313907
C	-0.0272839728	 1.1844104387	 0.0095268789	 0.447405
C	-1.1369606829	 2.2713064293	 0.0450872983	-0.065045
O	-1.3935722074	 2.6075327741	 1.407149059	-0.257123
C	-0.3207450131	 3.4180501977	 1.8193974366	 0.098509
C	 0.2561988582	 4.2406641293	 0.7205921413	-0.127969
C	 1.0861235706	 3.1072482439	 1.356765412	-0.119036
C	 1.0439046981	 2.2730706786	 0.0415705377	-0.193942
C	-0.0390988825	 3.2995395007	-0.4628784546	-0.074784
H	-2.0787778409	 2.1115636322	-0.4810082664	 0.099013
H	-0.4589804538	 3.8131916267	 2.817858531	 0.118113
H	 0.3787330183	 5.3147760212	 0.7065455621	 0.10191
H	 1.9380420146	 3.1578902881	 2.0242651068	 0.101211
H	 2.0065703634	 2.1245797699	-0.4472396705	 0.093956
H	-0.0844162729	 3.6427222474	-1.4915071069	 0.091692
128.9061	267.8307	416.3383	509.0875	546.0294	656.2216	706.9238	727.0694	748.6495	798.6453	817.5122	839.1244	862.1455	915.7444	926.2653	947.1697	976.7087	1015.0956	1025.8276	1050.6764	1067.59	1079.8402	1105.6606	1130.561	1183.016	1199.9742	1217.9477	1234.9367	1257.2527	1280.8796	1316.3807	1405.8371	1891.0525	3114.0708	3120.2725	3171.9449	3181.5676	3203.3679	3214.333
O=C1C2OC3C4C3C1C24	O=C1[C@H]2O[C@@H]3[C@H]4[C@@H]3[C@@H]1[C@@H]24	
InChI=1S/C7H6O2/c8-5-1-2-4-3(1)7(5)9-6(2)4/h1-4,6-7H	InChI=1S/C7H6O2/c8-5-1-2-4-3(1)7(5)9-6(2)4/h1-4,6-7H/t1-,2+,3-,4+,6+,7+/m1/s1
