15
gdb 72313	2.35877	1.97332	1.57218	3.9044	66.28	-0.2111	-0.0507	0.1604	892.133	0.110595	-453.786055	-453.778239	-453.777295	-453.817707	30.629	
N	-0.1682255266	 1.5283330707	 0.0113113217	-0.62796
C	-0.0866374018	 0.1179744132	-0.0051732672	 0.183229
C	-0.0214916434	-1.0010409741	-0.9603522183	-0.065998
O	 1.3863886452	-1.3956726445	-0.6525087581	-0.263548
C	 1.0133896921	-0.8535089577	 0.5860911974	 0.226612
N	 0.7890050114	-1.5773483198	 1.6018823296	-0.220428
C	-0.694026231	-1.4473580533	 1.7398401117	-0.232556
C	-1.0927980847	-0.8978220262	 0.3414067304	 0.290315
O	-2.4093169563	-0.6600916827	 0.0041346444	-0.461216
H	 0.4297785285	 1.9519053832	-0.6902142289	 0.244822
H	-1.1224357188	 1.8287417525	-0.1582185978	 0.251372
H	-0.3512292494	-1.1763263778	-1.9780461528	 0.129211
H	-1.0635526456	-2.4596020066	 1.9388550711	 0.123854
H	-1.0578718731	-0.7855328074	 2.5395397079	 0.123594
H	-2.8830842264	-1.4992648494	-0.0154748012	 0.298697
172.3389	200.7064	233.7245	260.8397	292.928	352.7557	364.5482	462.3336	504.233	565.0066	582.4283	623.4804	706.6985	737.3997	799.4469	827.5127	877.2721	943.0253	970.3993	1000.2101	1020.0868	1064.7682	1075.2455	1152.7619	1186.8234	1221.1492	1287.9009	1292.2124	1357.1615	1475.5836	1515.6472	1623.2297	1649.2992	2996.7339	3064.4046	3191.0595	3506.2364	3589.3797	3798.721
NC12C3OC1=NCC23O	N[C@@]12[C@H]3O[C]1[N]C[C@@]23O	
InChI=1S/C5H6N2O2/c6-5-2-4(5,8)1-7-3(5)9-2/h2,8H,1,6H2	InChI=1S/C5H6N2O2/c6-5-2-4(5,8)1-7-3(5)9-2/h2,8H,1,6H2/t2-,4-,5-/m0/s1
