19
gdb 70370	2.37746	1.54924	1.3548	1.1291	81.2	-0.2315	0.0443	0.2758	1063.5475	0.157043	-385.828161	-385.819215	-385.818271	-385.860994	35.362	
C	-0.0637024581	 1.6040570565	 0.0124650379	-0.45794
C	 0.0356337271	 0.0743555701	 0.0119825827	 0.045026
C	 1.1358984804	-0.6047458021	-0.9047238656	-0.278606
C	 1.7264256136	-1.3156951117	 0.3141633861	-0.121075
C	 2.1645146673	-0.2821421133	 1.3325151769	-0.340611
C	 0.7170341693	-0.6099441974	 1.2305457016	 0.40338
O	 0.0283129662	-1.0284243189	 2.3441694131	-0.457386
C	-1.2727107497	-0.5338981492	-0.1975893179	 0.275509
C	-2.3508285472	-1.0583378572	-0.309791696	-0.459657
H	 0.9198805142	 2.0558413667	 0.1671980078	 0.117655
H	-0.4610778346	 1.967800903	-0.9399317275	 0.125052
H	-0.7292835713	 1.9455470396	 0.8105994184	 0.1323
H	 0.7004184341	-1.2729067086	-1.6481789898	 0.116962
H	 1.7991191634	 0.1078943193	-1.4070808456	 0.097987
H	 2.1008231015	-2.3311005773	 0.3336035031	 0.090388
H	 2.6268246689	-0.6948176504	 2.2236487263	 0.12324
H	 2.5730066639	 0.6765522328	 1.0191955936	 0.103631
H	-0.7782835638	-1.4625246001	 2.0338469749	 0.286536
H	-3.3055272851	-1.5038336319	-0.4449794201	 0.197608
125.1965	131.8188	204.3856	211.3939	243.7297	340.4563	352.3843	427.6023	435.5002	462.2593	516.464	548.8659	619.639	631.5603	641.9492	662.2982	795.0825	837.822	862.783	907.08	913.6166	962.6476	979.4773	1023.5155	1032.7749	1097.626	1109.2158	1136.75	1184.6916	1193.2996	1251.8077	1266.2372	1282.9489	1331.8292	1402.8938	1431.7979	1481.7965	1488.603	1492.5141	1510.0812	2220.311	3039.7581	3043.7405	3101.2843	3112.8921	3118.4641	3125.078	3193.2946	3202.53	3498.9968	3745.0055
CC1(CC2CC12O)C#C	C[C@]1(C[C@H]2C[C@@]12O)C#C	
InChI=1S/C8H10O/c1-3-7(2)4-6-5-8(6,7)9/h1,6,9H,4-5H2,2H3	InChI=1S/C8H10O/c1-3-7(2)4-6-5-8(6,7)9/h1,6,9H,4-5H2,2H3/t6-,7+,8-/m0/s1
