23
gdb 68823	2.62932	1.40705	1.19886	0.3913	90.8	-0.2293	0.0872	0.3165	1191.2053	0.204712	-351.126242	-351.116945	-351.116001	-351.159488	36.786	
C	 0.0323744884	 1.5319061136	 0.0120742624	-0.495423
C	-0.0278011726	 0.0322862035	 0.0655260507	 0.318329
C	 1.1279979244	-0.8535189563	-0.3286281161	-0.377469
C	 0.5820183521	-0.9565897982	 1.0763791333	 0.242387
C	 1.4098791903	-0.7186150574	 2.306143175	-0.504587
C	-0.696189364	-1.7810614657	 1.0180687988	 0.351884
C	-0.8347339127	-3.2756431831	 1.0616701978	-0.327469
C	-1.3973449347	-2.418645195	 2.1780971754	-0.342723
C	-1.3280024785	-0.7892555001	 0.0195597577	-0.379452
H	 1.0297694528	 1.900779395	 0.2741827061	 0.114388
H	-0.1984648464	 1.9036609119	-0.9942229561	 0.118268
H	-0.685482477	 1.9881235675	 0.7039462757	 0.113268
H	 0.9916951199	-1.6694619561	-1.0358358113	 0.099347
H	 2.0856148135	-0.3470956766	-0.4159843141	 0.099907
H	 2.1432495795	 0.0774945091	 2.1401532413	 0.116023
H	 0.7867594326	-0.4265079201	 3.159006028	 0.117175
H	 1.9687523789	-1.6175807343	 2.5959824906	 0.117332
H	-1.534581325	-3.7459587245	 0.3780421896	 0.107684
H	 0.0484749941	-3.8707823467	 1.272785164	 0.107805
H	-0.8913263968	-2.4428785465	 3.138359311	 0.109385
H	-2.4754332008	-2.3101389698	 2.2492400096	 0.107351
H	-2.1804446065	-0.2531551686	 0.4491027318	 0.097241
H	-1.6176472615	-1.1835417614	-0.9617554812	 0.089349
107.8539	174.479	188.1938	202.1844	220.5586	221.6938	333.0688	336.7442	410.6677	442.6112	474.1722	538.5059	617.4037	693.3078	771.923	779.8992	832.6363	860.9887	905.6506	930.8695	946.5277	966.4578	985.4111	999.8635	1024.0886	1048.8743	1063.1478	1076.2923	1096.8179	1109.3538	1146.6446	1182.7224	1187.6097	1216.1251	1228.5984	1260.7005	1333.982	1383.9104	1396.8291	1411.9356	1428.4819	1463.3063	1480.3942	1483.6463	1489.3996	1496.4017	1499.6389	1504.1595	1514.7906	3015.2647	3017.2143	3025.4902	3071.6531	3072.9941	3078.1554	3090.6471	3093.9182	3096.0916	3117.899	3121.9097	3182.9308	3194.5825	3209.6938
CC12CC1(C)C1(CC1)C2	C[C@@]12C[C@]1(C)C1(CC1)C2	
InChI=1S/C9H14/c1-7-5-8(7,2)9(6-7)3-4-9/h3-6H2,1-2H3	InChI=1S/C9H14/c1-7-5-8(7,2)9(6-7)3-4-9/h3-6H2,1-2H3/t7-,8-/m0/s1
