19
gdb 76161	2.0935	1.45044	1.20587	4.2681	77.2	-0.2502	0.0342	0.2844	1147.4858	0.1569	-419.206462	-419.196088	-419.195144	-419.240935	38.111	
C	-0.0787647997	 1.5658894706	-0.0542173194	-0.462351
C	 0.0436760191	 0.0600603502	-0.0428284477	 0.36067
O	-1.0220775086	-0.611808025	-0.6499679147	-0.448087
C	 1.3538075295	-0.6364316029	-0.2586187071	-0.1129
N	 2.5436688145	 0.1480080071	-0.4279905873	-0.516258
C	 0.7124681396	-0.6551807588	 1.1491619305	 0.05696
C	 1.3409088433	 0.1246981072	 2.2957859976	-0.468317
C	 0.0892815606	-1.8903684775	 1.5466997531	 0.250711
N	-0.4262551415	-2.8637129045	 1.9032635189	-0.355917
H	 0.8466646101	 2.0508104393	 0.2574420992	 0.142759
H	-0.3195286727	 1.894909504	-1.0699232302	 0.13191
H	-0.8890910066	 1.8960618624	 0.6054006742	 0.118923
H	-1.7702358474	-0.6251769063	-0.0414816932	 0.293023
H	 1.2541820079	-1.5786344724	-0.7976798117	 0.108626
H	 3.3705262202	-0.4161806439	-0.2596483951	 0.242334
H	 2.6047409837	 0.491661024	-1.3814659346	 0.243325
H	 1.9822059355	 0.9165878702	 1.9093740254	 0.14972
H	 0.5739387349	 0.5645033266	 2.9402923806	 0.12981
H	 1.9545505578	-0.5388410803	 2.9121230318	 0.135059
112.9668	145.3109	152.4198	172.2886	202.9257	228.2411	241.6544	264.6686	294.7502	326.5232	390.4265	417.9488	457.9297	532.6513	565.0871	621.8738	660.4431	709.7899	801.9967	915.7579	935.316	994.7322	1022.1709	1071.4803	1097.0938	1156.4478	1162.6137	1194.6843	1254.1854	1275.51	1311.955	1356.729	1403.5535	1415.403	1450.6593	1480.4097	1493.4119	1499.6802	1513.33	1657.1187	2342.2208	3038.4742	3048.5058	3099.8601	3102.3209	3108.6381	3147.95	3156.816	3498.7087	3574.1195	3791.3745
CC1(O)C(N)C1(C)C#N	C[C@@]1(O)[C@@H](N)[C@]1(C)C#N	
InChI=1S/C6H10N2O/c1-5(3-7)4(8)6(5,2)9/h4,9H,8H2,1-2H3	InChI=1S/C6H10N2O/c1-5(3-7)4(8)6(5,2)9/h4,9H,8H2,1-2H3/t4-,5-,6+/m0/s1
