19
gdb 111930	4.00726	1.25957	1.16755	0.4989	84.	-0.2117	-0.0304	0.1813	1124.3461	0.159217	-385.772666	-385.765028	-385.764084	-385.804792	30.195	
C	 0.1754600259	 1.3340497794	 0.1663038523	-0.235651
O	-0.0069487089	-0.0523726345	-0.0123615354	-0.24251
C	 0.5560965196	-0.544815133	-1.2099843009	 0.115578
C	 2.0460572799	-0.8749327388	-0.9766036406	-0.140806
C	 2.2977869948	-2.1140030682	-1.4360052058	 0.0439
C	 2.1522040834	-3.2708342442	-0.4423978681	-0.258944
C	 0.6899983978	-3.2924946231	-1.0309906111	-0.056047
C	 0.0443531011	-1.9472910177	-1.5474020811	-0.082512
C	 1.1339938316	-2.6325478661	-2.3013920374	-0.124782
H	 1.2398775192	 1.6075762371	 0.2246200405	 0.109011
H	-0.2803753284	 1.9103100509	-0.6539263694	 0.106591
H	-0.3098626098	 1.6075538525	 1.1062554014	 0.127754
H	 0.316467514	 0.1475721519	-2.0358561125	 0.065117
H	 2.5091440246	-0.4795298228	-0.0763943346	 0.099076
H	 2.6435547016	-4.2158797116	-0.7017637834	 0.104372
H	 2.308792115	-3.0375298639	 0.6143077778	 0.105497
H	 0.029360549	-4.1521751654	-0.9458732285	 0.09126
H	-0.9946956825	-2.070110972	-1.847190157	 0.082022
H	 1.1462006019	-2.9873598406	-3.3228920661	 0.091072
101.3858	127.107	180.095	268.0856	369.4874	390.3774	460.4749	524.0728	620.6303	683.029	730.5011	772.0732	793.3378	825.7213	870.1602	909.6878	959.4096	974.8663	981.777	1001.1384	1021.4211	1048.2669	1055.6523	1064.4835	1089.3477	1126.0728	1146.0282	1182.6086	1205.1722	1218.095	1227.5327	1265.4771	1277.4939	1289.1094	1362.74	1379.1714	1478.2925	1485.4817	1498.2281	1508.4324	1597.89	2937.9293	2976.3627	3022.88	3028.322	3097.1688	3115.6622	3132.0227	3140.9086	3162.4237	3204.2014
COC1C=C2CC3C1C23	CO[C@H]1[CH][C]2C[C@H]3[C@@H]1[C@@H]23	
InChI=1S/C8H10O/c1-9-6-3-4-2-5-7(4)8(5)6/h3,5-8H,2H2,1H3	InChI=1S/C8H10O/c1-9-6-3-4-2-5-7(4)8(5)6/h3,5-8H,2H2,1H3/t5-,6+,7+,8+/m1/s1
