16
gdb 50615	1.96865	1.80717	0.95328	5.3269	77.18	-0.2288	-0.0738	0.155	1166.8272	0.124548	-437.934097	-437.925795	-437.92485	-437.96792	29.357	
O	-1.1348036474	 1.9208937325	-0.0396615969	-0.334069
C	-0.1062156084	 1.2784465852	 0.0197664175	 0.113585
N	 1.1271843619	 1.8800373698	 0.0123399912	-0.168128
C	 1.2474171502	 3.3508891459	-0.0689040723	-0.172033
C	 2.7780957258	 3.6157386088	-0.0476444607	-0.28779
C	 3.3711396001	 2.2365339196	 0.0436891437	-0.191999
C	 2.4042838129	 1.3017634065	 0.0744007489	 0.318053
C	 2.6919811119	-0.1361920148	 0.1622019573	 0.092989
O	 1.8772693263	-1.0306104608	 0.1941054357	-0.274003
H	-0.0520067081	 0.1837134527	 0.0837346025	 0.135082
H	 0.7642165613	 3.7070222654	-0.9819678522	 0.140095
H	 0.7221768989	 3.8074127102	 0.7734990688	 0.140192
H	 3.1183035389	 4.1416038283	-0.9473016766	 0.133687
H	 3.0770820088	 4.2395160372	 0.8027812072	 0.133703
H	 4.4301707142	 2.0218626704	 0.0800733481	 0.125896
H	 3.7813912927	-0.3445821468	 0.1987957178	 0.094741
58.299	94.8463	135.0407	199.5058	251.4616	281.3814	341.465	435.5543	562.7007	566.0662	698.9152	764.1395	764.8965	828.449	846.3785	943.6029	1011.2366	1021.3944	1048.5912	1060.1548	1089.7116	1199.3868	1225.3407	1247.5075	1306.188	1323.497	1356.5633	1399.7676	1426.5082	1461.8761	1479.8949	1522.9977	1667.4058	1767.0642	1790.9603	2917.933	3034.2831	3057.475	3066.1857	3071.4221	3108.9561	3235.2244
O=CN1CCC=C1C=O	O=CN1CCC=C1C=O	
InChI=1S/C6H7NO2/c8-4-6-2-1-3-7(6)5-9/h2,4-5H,1,3H2	InChI=1S/C6H7NO2/c8-4-6-2-1-3-7(6)5-9/h2,4-5H,1,3H2
