16
gdb 55978	3.4776	0.91543	0.83126	3.6722	67.33	-0.2664	-0.0056	0.2607	1391.6219	0.123252	-475.077731	-475.068655	-475.06771	-475.113391	31.135	
C	 0.0619951016	 1.5272100039	-0.0176513488	-0.495779
C	 0.0851817937	 0.0259958205	 0.2028136164	 0.415385
O	 1.0299096887	-0.5625872339	 0.6881248139	-0.353564
N	-1.053404478	-0.6336518182	-0.2091416548	-0.329342
C	-1.1300392768	-2.0600050446	-0.2074978346	-0.145866
C	-2.2274215874	-2.8084600125	 0.5878756403	-0.097029
O	-2.6574831037	-3.4794272559	-0.6401563906	-0.237368
C	-1.7927468863	-2.7495262664	-1.4164379674	 0.430787
O	-1.7113061293	-2.7229050821	-2.6004864086	-0.315571
H	 0.7287669971	 1.9983910335	 0.7045222106	 0.158706
H	 0.434078451	 1.7501720347	-1.0234106077	 0.159198
H	-0.9418736961	 1.9508869953	 0.0758211074	 0.126508
H	-1.7785896797	-0.1097219123	-0.6727162403	 0.256381
H	-0.1263111569	-2.4398302401	-0.0035832693	 0.164249
H	-1.8929437768	-3.5313076088	 1.333379565	 0.137306
H	-3.025135381	-2.1765008133	 0.9844823185	 0.125997
42.0991	57.4067	79.6329	122.218	200.0196	246.795	348.3154	414.6871	451.9546	537.0939	608.0454	622.0672	690.6005	758.4735	881.8328	916.1947	944.0242	980.6867	1004.1798	1052.5526	1078.903	1116.0525	1152.2807	1210.0788	1216.3981	1264.6135	1328.5632	1365.1203	1395.093	1467.4331	1486.3231	1515.0663	1531.2872	1794.9709	1941.4966	3047.5469	3074.3014	3106.7741	3113.6537	3142.4925	3158.783	3635.2007
CC(=O)NC1COC1=O	CC(=O)N[C@H]1COC1=O	
InChI=1S/C5H7NO3/c1-3(7)6-4-2-9-5(4)8/h4H,2H2,1H3,(H,6,7)	InChI=1S/C5H7NO3/c1-3(7)6-4-2-9-5(4)8/h4H,2H2,1H3,(H,6,7)/t4-/m0/s1
