17
gdb 76995	2.79325	1.32935	0.99976	1.8251	75.8	-0.25	-0.0666	0.1834	1164.4111	0.134984	-421.87025	-421.861686	-421.860742	-421.904287	31.031	
C	-0.3207911623	 1.5379244073	 0.0461558941	-0.414102
C	 0.0773195067	 0.062019189	 0.0082986563	-0.124662
C	 0.8038967801	-0.4921584198	-1.251389313	-0.156976
C	 1.5920754972	 0.5793591476	-2.0051290497	 0.161202
O	 1.5029489652	 0.7832240224	-3.1854764951	-0.238916
C	 1.7859982959	-1.489566691	-0.6712108047	-0.077187
C	 1.9113726911	-1.3912380203	 0.6574076487	-0.173334
C	 0.9784808675	-0.3645643774	 1.1832777164	 0.379915
O	 0.9102774579	 0.0606427198	 2.3121756154	-0.331783
H	 0.5409663363	 2.2020583486	-0.0646878308	 0.126192
H	-1.0399407944	 1.7778988329	-0.7420473234	 0.125248
H	-0.776126179	 1.7576889257	 1.0148647219	 0.145824
H	-0.834106038	-0.5410863617	 0.1218045253	 0.12413
H	 0.1265402832	-0.9492861716	-1.9781281779	 0.105428
H	 2.2944345433	 1.1581996956	-1.3642222322	 0.090125
H	 2.3465959653	-2.1624802844	-1.3110409262	 0.131986
H	 2.580926754	-1.9551686327	 1.294012205	 0.12691
50.6722	68.3598	192.9066	200.2903	242.538	276.0792	375.5487	421.7978	454.0746	510.0089	634.0373	684.9435	741.511	775.7448	835.8004	903.0482	938.9518	980.9517	1006.285	1037.6181	1062.123	1101.8114	1122.8344	1144.6977	1186.0524	1232.7452	1260.1804	1312.7158	1326.4192	1358.2292	1410.5537	1417.5752	1493.6239	1504.877	1639.9817	1817.157	1834.2277	2880.0386	3018.1205	3049.0877	3076.153	3117.9978	3128.8603	3194.3704	3229.4963
CC1C(C=O)C=CC1=O	C[C@H]1[C@@H](C=O)C=CC1=O	
InChI=1S/C7H8O2/c1-5-6(4-8)2-3-7(5)9/h2-6H,1H3	InChI=1S/C7H8O2/c1-5-6(4-8)2-3-7(5)9/h2-6H,1H3/t5-,6+/m0/s1
