16
gdb 97834	4.03782	0.68774	0.62469	2.949	76.33	-0.2435	0.0168	0.2603	1735.4826	0.12339	-437.86503	-437.855599	-437.854655	-437.901986	32.249	
O	 0.2051373118	 1.3820419578	 0.409895296	-0.400732
C	 0.07718004	 0.0990110231	-0.1865957772	-0.1966
C	-1.2942460117	-0.4095445065	-0.1931448771	 0.068191
C	-2.4289684656	-0.8133302176	-0.1468874645	 0.07065
C	-3.7784067189	-1.3239067487	-0.1086998064	-0.329878
C	-4.5198822168	-1.5683050191	-1.4682436769	-0.167152
N	-4.6475789424	-2.9707477075	-1.0712667859	-0.316076
C	-3.9595167281	-2.8742977577	 0.1090316306	 0.42581
O	-3.6452916497	-3.6656462702	 0.9507014849	-0.346241
H	-0.1839304435	 1.3303440806	 1.2892498927	 0.288728
H	 0.4406849815	 0.2117587137	-1.2141045578	 0.140514
H	 0.7333833794	-0.6389706492	 0.3017609638	 0.124021
H	-4.3942891114	-0.7656224785	 0.6031889361	 0.133033
H	-5.4715117942	-1.0402406575	-1.5787241108	 0.119839
H	-3.8938319507	-1.4043326547	-2.3490642031	 0.128447
H	-5.0476956398	-3.770019668	-1.5392715146	 0.257445
11.3371	77.6701	82.8079	128.4101	166.5502	250.0752	330.0709	370.3833	406.3627	484.7747	511.3534	560.8395	664.6949	741.3478	800.9203	892.0658	932.9123	986.3484	996.7378	1050.6451	1052.6658	1145.458	1157.7478	1175.4186	1189.6435	1214.6907	1293.2274	1330.1895	1361.0567	1393.9061	1417.7405	1489.7062	1526.7125	1909.5445	2357.7988	2979.2718	3051.2813	3062.5976	3067.7237	3106.346	3617.7218	3815.0202
OCC#CC1CNC1=O	OCC#C[C@H]1CNC1=O	
InChI=1S/C6H7NO2/c8-3-1-2-5-4-7-6(5)9/h5,8H,3-4H2,(H,7,9)	InChI=1S/C6H7NO2/c8-3-1-2-5-4-7-6(5)9/h5,8H,3-4H2,(H,7,9)/t5-/m0/s1
