21
gdb 83878	2.02617	1.84075	1.30236	1.9009	77.56	-0.2394	0.0622	0.3016	1080.0833	0.184084	-424.211325	-424.202827	-424.201882	-424.243921	33.518	
C	-0.0645745928	 1.5510888569	-0.0644175246	-0.403803
C	 0.009944596	 0.0201809939	-0.0112694132	 0.00178
C	 0.5637139794	-0.561504649	-1.3241674133	-0.092654
O	 0.7809361455	-1.958163697	-1.227117932	-0.24561
C	 1.8523410843	-2.2674582842	-0.3533728667	-0.090831
C	 1.6879524028	-1.6956733865	 1.0505331281	-0.131121
C	 2.2555962304	-0.3256361519	 1.3776677162	 0.074106
O	 2.9527567444	 0.3987990868	 0.4040697146	-0.407389
C	 0.7763083237	-0.4868320934	 1.2049381225	-0.059582
H	 0.9352539414	 1.9828965364	-0.1614484127	 0.139463
H	-0.6699193036	 1.8855151755	-0.9146938081	 0.106357
H	-0.520505725	 1.9546121838	 0.8456964468	 0.10814
H	-1.0093607108	-0.3762858669	 0.0900804282	 0.077724
H	-0.1674361561	-0.4215444853	-2.1267901203	 0.09873
H	 1.4922658076	-0.0467678552	-1.6093602747	 0.100489
H	 1.8878856932	-3.3587904898	-0.3027799657	 0.106082
H	 2.8006739729	-1.9236477984	-0.8012760036	 0.072366
H	 1.6904461503	-2.4265400635	 1.8530197716	 0.086496
H	 2.6203670246	-0.1718123634	 2.3935036945	 0.083454
H	 3.8377744263	 0.025553836	 0.3253380467	 0.289776
H	 0.2055707056	-0.4341686349	 2.1284460955	 0.086025
118.5981	165.5586	214.0239	233.68	280.3761	299.0088	330.2679	390.163	436.0907	475.7101	561.043	655.6761	682.7179	738.1368	790.8287	847.4631	904.1625	941.3645	959.769	994.1693	1023.4226	1034.97	1062.8341	1089.897	1120.0026	1125.411	1144.8347	1169.8011	1196.4767	1253.4879	1264.6939	1289.2565	1327.8633	1333.3463	1351.2057	1373.7148	1380.772	1395.7737	1408.0073	1428.5748	1464.9127	1488.9397	1495.3141	1503.6245	1508.5339	2950.5481	3003.0834	3013.8515	3031.3138	3077.9804	3086.233	3092.4633	3092.7906	3120.3402	3133.8473	3153.9577	3792.4615
CC1COCC2C(O)C12	C[C@H]1COC[C@H]2[C@@H](O)[C@@H]12	
InChI=1S/C7H12O2/c1-4-2-9-3-5-6(4)7(5)8/h4-8H,2-3H2,1H3	InChI=1S/C7H12O2/c1-4-2-9-3-5-6(4)7(5)8/h4-8H,2-3H2,1H3/t4-,5+,6-,7+/m0/s1
