16
gdb 47466	3.11651	1.13607	0.89003	4.5228	69.44	-0.2654	-0.0493	0.216	1252.5517	0.124093	-437.919883	-437.911531	-437.910587	-437.953913	29.78	
O	-0.0777252463	 0.0357129031	 0.4578440605	-0.300879
C	-0.0679086751	 1.1794430842	 0.0913141517	 0.37222
C	-1.2533923221	 2.0778502526	-0.2453599356	-0.336344
C	-0.6393156537	 3.4737732214	-0.121814885	-0.096782
O	 0.7400414714	 3.3186938541	-0.4880105159	-0.255872
C	 1.1933282892	 2.0459451509	-0.0837367208	 0.009233
C	 2.0023625964	 2.0702818593	 1.2337917316	-0.355477
C	 3.2558206643	 2.8059165528	 1.1046032274	 0.26598
N	 4.2508229912	 3.3825566012	 0.9952561803	-0.299029
H	-1.5566731523	 1.8705950214	-1.2786195938	 0.150395
H	-2.1034989589	 1.8778376515	 0.4085785882	 0.143433
H	-1.0701852318	 4.2138387013	-0.7980036595	 0.131424
H	-0.7269949237	 3.8544423579	 0.9065336064	 0.109194
H	 1.8235454829	 1.6302777771	-0.8784698638	 0.13443
H	 1.4053660857	 2.5214776202	 2.0340792328	 0.15332
H	 2.2099399527	 1.0352082708	 1.5264760857	 0.174755
51.6131	91.4807	128.2	175.8772	223.29	376.7904	396.3276	439.8007	522.6406	567.4965	641.1403	654.3294	821.7314	831.6537	863.4214	927.729	962.4519	993.2354	1012.9438	1078.0863	1107.3036	1150.7642	1205.5507	1233.6206	1238.4248	1254.1257	1283.7858	1333.6814	1363.6266	1393.6928	1448.7191	1455.7833	1524.6692	1858.9419	2366.5359	2998.0017	3045.0703	3050.6516	3053.8514	3095.9316	3115.947	3131.5085
O=C1CCOC1CC#N	O=C1CCO[C@H]1CC#N	
InChI=1S/C6H7NO2/c7-3-1-6-5(8)2-4-9-6/h6H,1-2,4H2	InChI=1S/C6H7NO2/c7-3-1-6-5(8)2-4-9-6/h6H,1-2,4H2/t6-/m0/s1
