16
gdb 85792	2.5094	1.21513	1.17555	4.0135	70.69	-0.2583	-0.0573	0.2011	1153.276	0.121783	-437.898505	-437.889258	-437.888313	-437.932962	32.98	
C	-0.9418554654	 1.1222934046	 0.1733398627	-0.414859
C	 0.0188619356	-0.042354054	-0.0304141591	-0.099022
C	 0.974891107	-0.059733408	-1.2677849681	-0.279678
C	 2.1836476145	-0.4479021316	-0.3697726481	 0.157423
O	 2.3898962692	-1.8464434161	-0.4378254482	-0.45149
C	 3.422361669	 0.3131259193	-0.5226036286	 0.233403
N	 4.3982684529	 0.9271096302	-0.6088450514	-0.325869
C	 1.2653823818	-0.0919019466	 0.8628803358	 0.349986
O	 1.4937599277	 0.0980809255	 2.0169081701	-0.278592
H	-0.4231852379	 2.0823616043	 0.0875018731	 0.130633
H	-1.7424914305	 1.0999432465	-0.5718907045	 0.130272
H	-1.3976469019	 1.0736111994	 1.1662223622	 0.143303
H	-0.5128658981	-0.9974636361	 0.0557714095	 0.126819
H	 0.7674924775	-0.7964159686	-2.0433497587	 0.137796
H	 1.1000802723	 0.92828472	-1.7147107823	 0.135606
H	 2.9656044663	-2.1021538487	 0.2939382657	 0.304268
43.0847	117.2445	177.9202	190.4916	200.0016	223.867	288.9615	347.0302	383.2822	417.6243	514.2585	584.3948	602.9124	716.1177	721.9374	829.7353	883.3179	928.5555	970.9969	977.8183	1062.9692	1106.8375	1134.9801	1173.8085	1194.5517	1251.0479	1264.4099	1324.9556	1360.5182	1409.8523	1469.616	1494.586	1495.1675	1900.3717	2347.4518	3040.4016	3045.1206	3088.288	3111.4389	3119.1267	3155.3961	3786.0324
CC1CC(O)(C#N)C1=O	C[C@H]1C[C@@](O)(C#N)C1=O	
InChI=1S/C6H7NO2/c1-4-2-6(9,3-7)5(4)8/h4,9H,2H2,1H3	InChI=1S/C6H7NO2/c1-4-2-6(9,3-7)5(4)8/h4,9H,2H2,1H3/t4-,6+/m0/s1
