15
gdb 20765	3.35144	2.01334	1.27768	3.5173	64.62	-0.2049	0.0224	0.2273	917.863	0.119379	-395.978435	-395.970348	-395.969404	-396.01052	29.711	
C	 0.0053509722	 1.4866474623	 0.0100113564	-0.499007
C	 0.027647712	-0.0074824981	 0.0321090579	 0.369766
N	 0.0004429781	-0.6789624356	-1.0947500108	-0.238225
O	 0.034372159	-2.0496856656	-0.7098730114	-0.224769
C	 0.0655148263	-2.1181070654	 0.620801402	 0.482959
N	 0.1567100367	-3.3540761473	 1.2050415356	-0.591888
C	 0.0636277181	-0.8639645319	 1.1731658186	-0.097238
N	 0.0735459908	-0.6014356917	 2.5696496496	-0.620864
H	 0.8911697654	 1.8995525049	 0.5049312807	 0.13008
H	-0.0201550212	 1.847221468	-1.0198816078	 0.151557
H	-0.8727082267	 1.8759012604	 0.5374507665	 0.128427
H	-0.2938865239	-4.1019024793	 0.6971382887	 0.263345
H	-0.0810888458	-3.3288722933	 2.1876371232	 0.266609
H	 0.9485813683	-0.1888827717	 2.8787004844	 0.240722
H	-0.6689398594	 0.0343723944	 2.8421691064	 0.238526
118.3712	161.316	202.8508	228.9904	257.8351	293.8366	355.3009	366.8515	519.9846	576.9562	618.1152	664.8863	720.9473	747.0564	786.3815	819.3286	899.265	1019.5852	1056.6373	1063.5175	1104.834	1217.1893	1308.1237	1373.9235	1412.3974	1473.1282	1481.326	1488.7987	1556.2788	1620.2521	1650.3247	1710.5533	3035.4064	3087.9036	3138.6	3489.8369	3554.6499	3556.4567	3663.4832
CC1=NOC(N)=C1N	Cc1noc(N)c1N	
InChI=1S/C4H7N3O/c1-2-3(5)4(6)8-7-2/h5-6H2,1H3	InChI=1S/C4H7N3O/c1-2-3(5)4(6)8-7-2/h5-6H2,1H3
