20
gdb 120576	4.02709	0.7328	0.70176	3.8438	81.86	-0.2762	0.0169	0.2931	1681.1675	0.169045	-403.152101	-403.142006	-403.141062	-403.187612	36.558	
C	-0.096673994	 1.5690978342	-0.0645623747	-0.381196
C	-0.1500368832	 0.0434681295	-0.1782485608	-0.163687
C	 0.9551018522	-0.5212646197	-1.0815899753	-0.196515
C	 0.9065979771	-2.0319552451	-1.178604835	-0.044334
C	-0.0007862298	-2.7281566456	-2.161343309	-0.34008
C	 1.505744616	-2.7406486133	-2.3768922354	 0.225023
O	 2.0567198548	-1.9245134011	-3.3665783675	-0.441777
C	 2.2161089534	-3.9835486807	-2.1583123966	 0.245434
N	 2.7812511573	-4.9814110415	-2.0051938696	-0.345111
H	 0.8598751134	 1.9019576358	 0.3531223118	 0.117697
H	-0.2106711009	 2.0432333802	-1.04563845	 0.115981
H	-0.8928916922	 1.9479219575	 0.5834141859	 0.114562
H	-0.0666060682	-0.4030366004	 0.8211738033	 0.098209
H	-1.1281828722	-0.2657944227	-0.5679962951	 0.099121
H	 0.8781232033	-0.088948056	-2.0841284672	 0.112893
H	 1.9358531818	-0.2183785857	-0.6929136366	 0.108145
H	 1.0544815736	-2.55252848	-0.2363162625	 0.113903
H	-0.4919328173	-3.6513757704	-1.8769896601	 0.136078
H	-0.5487132882	-2.1048308132	-2.8605836217	 0.127855
H	 1.9262976828	-2.353133172	-4.2203144839	 0.297798
63.4636	80.3228	102.6555	149.6299	194.1378	245.7686	263.7804	309.7855	319.8743	378.7118	425.0418	489.0836	580.6221	614.1298	698.7591	746.0071	844.7612	857.1295	896.5512	902.0288	925.2641	981.8012	1043.5259	1059.5065	1085.2378	1091.723	1137.5236	1195.1121	1238.2257	1253.4484	1277.2158	1305.6423	1330.4061	1351.4703	1389.6249	1411.7751	1420.1145	1474.2115	1485.788	1495.0781	1499.6493	1511.3712	2345.6597	3018.226	3029.1974	3032.5964	3049.1787	3085.6793	3099.5593	3104.845	3135.2	3149.6452	3230.4645	3795.7998
CCCC1CC1(O)C#N	CCC[C@H]1C[C@]1(O)C#N	
InChI=1S/C7H11NO/c1-2-3-6-4-7(6,9)5-8/h6,9H,2-4H2,1H3	InChI=1S/C7H11NO/c1-2-3-6-4-7(6,9)5-8/h6,9H,2-4H2,1H3/t6-,7-/m0/s1
