20
gdb 100799	4.0273	0.72342	0.69864	2.6238	75.67	-0.271	0.0289	0.2999	1630.4008	0.169171	-440.297458	-440.287005	-440.286061	-440.333388	37.501	
C	 0.0686898807	 1.6236965456	-0.0143800172	-0.428926
C	 0.0030937473	 0.0899537551	-0.054524388	-0.000545
C	 0.7292635316	-0.5365491422	 1.1626061705	-0.343775
C	 2.1295737445	-0.1365413112	 1.2667283063	 0.260187
N	 3.2365545771	 0.1900873495	 1.3296698394	-0.313505
C	-1.4312584101	-0.471433292	-0.1064436119	 0.09189
O	-2.2022296918	-0.1172846765	 1.0483293882	-0.446248
C	-2.2214478386	-0.1145129513	-1.3677853454	-0.08345
O	-3.4851969769	-0.7422234435	-1.3535495646	-0.419813
H	 1.1073414886	 1.9615456173	 0.0275247458	 0.155835
H	-0.3907183513	 2.0717772626	-0.8988983982	 0.130967
H	-0.4334156774	 2.0258100104	 0.8739626881	 0.113876
H	 0.5138964056	-0.2543405979	-0.9625357682	 0.102062
H	 0.2044733707	-0.2546210886	 2.0817660098	 0.161482
H	 0.6872406294	-1.6299404308	 1.1015947186	 0.151386
H	-1.3799315378	-1.5662053748	-0.0615421473	 0.100042
H	-2.2927231297	 0.8430733669	 1.0612724176	 0.287911
H	-2.3221714712	 0.9819124505	-1.4512078933	 0.081143
H	-1.6915021298	-0.4629572562	-2.2611466062	 0.112775
H	-3.8175787508	-0.6423085029	-0.4522876241	 0.286707
58.4914	69.1835	115.0149	132.733	207.1537	230.6504	271.8244	300.2377	321.238	363.2871	395.924	409.7026	485.3944	517.4132	545.2206	664.6624	828.0793	863.0416	888.937	944.4692	964.6104	1011.616	1057.2002	1081.9964	1108.8911	1123.8956	1139.1549	1204.2156	1243.1513	1274.6233	1296.4442	1318.3798	1361.923	1370.0027	1392.504	1417.4208	1429.4281	1441.7614	1466.9838	1498.0287	1507.9062	1511.1138	2359.5569	2951.456	3030.232	3036.2777	3042.9098	3048.8478	3070.191	3090.5458	3104.5942	3126.89	3771.6384	3790.4084
CC(CC#N)C(O)CO	C[C@@H](CC#N)[C@@H](O)CO	
InChI=1S/C6H11NO2/c1-5(2-3-7)6(9)4-8/h5-6,8-9H,2,4H2,1H3	InChI=1S/C6H11NO2/c1-5(2-3-7)6(9)4-8/h5-6,8-9H,2,4H2,1H3/t5-,6-/m0/s1
