17
gdb 50867	5.06355	0.7103	0.66745	3.0638	71.69	-0.2582	-0.0317	0.2264	1661.2403	0.132886	-458.98511	-458.975752	-458.974808	-459.021693	32.158	
O	 0.4764552438	-0.2241282314	-0.142409334	-0.234
C	 0.2382713975	 0.9367220984	-0.3402778751	 0.164635
C	 1.2513402006	 2.0518026287	-0.1095002524	-0.395919
C	 1.101247899	 3.1590386464	-1.1324246156	 0.426799
O	 0.0418814797	 3.6195577226	-1.4763556859	-0.356081
O	 2.29991814	 3.5387526052	-1.6153462549	-0.239721
C	 2.2924842452	 4.586332068	-2.5758627257	 0.142875
C	 2.8975964759	 5.8954177517	-2.1694620733	-0.279976
C	 3.6335890396	 4.9610823408	-3.1113367165	-0.296239
H	-0.7510287247	 1.289713021	-0.6963082989	 0.112963
H	 1.0138681939	 2.4914119042	 0.869797485	 0.16346
H	 2.2627712578	 1.6477752921	-0.069217862	 0.14807
H	 1.4188388253	 4.5687404993	-3.2138240165	 0.130531
H	 2.4563831603	 6.8048820831	-2.5608685897	 0.127383
H	 3.2741380346	 5.9688501231	-1.1557294528	 0.127283
H	 4.4874116941	 4.4275096867	-2.7099442303	 0.131743
H	 3.7104781272	 5.2201030502	-4.1609853615	 0.126194
28.9979	38.2852	87.2394	104.5913	164.9938	246.1419	329.2714	398.2312	434.2736	476.0424	592.9749	730.1912	753.634	785.5078	820.0705	841.4541	918.525	974.1439	1006.5063	1049.2577	1056.1799	1060.9123	1077.2993	1119.0627	1162.4916	1174.2535	1193.133	1227.8445	1241.7691	1325.0022	1393.6315	1409.8993	1437.5402	1455.8712	1498.0906	1810.3875	1842.4942	2934.8631	3029.5123	3142.0155	3142.9945	3144.9022	3204.1003	3225.7882	3239.8262
O=CCC(=O)OC1CC1	O=CCC(=O)OC1CC1	
InChI=1S/C6H8O3/c7-4-3-6(8)9-5-1-2-5/h4-5H,1-3H2	InChI=1S/C6H8O3/c7-4-3-6(8)9-5-1-2-5/h4-5H,1-3H2
