17
gdb 55765	4.04911	1.05927	0.9942	2.5565	69.08	-0.2422	0.0044	0.2466	1232.0439	0.13355	-458.944863	-458.93613	-458.935186	-458.97966	31.176	
C	 0.0062871263	 1.4599260561	-0.113062063	-0.48543
C	-0.0235877242	-0.0353980663	 0.0723964173	 0.399183
O	-0.0473950132	-0.6238632188	 1.1201964408	-0.336948
O	-0.0334716422	-0.6640511699	-1.1375798885	-0.279636
C	-0.0111735499	-2.0596607765	-1.0834086916	 0.402258
C	 1.2435719358	-2.8691701732	-1.2776949307	-0.343467
C	 0.0687234692	-3.0408145156	-2.2120954068	-0.00363
O	-0.9222435191	-3.8906947053	-1.6292980528	-0.285181
C	-1.1314609891	-2.9362233193	-0.5457330218	-0.131963
H	 0.9188630244	 1.751340684	-0.6411889981	 0.15345
H	-0.8400155339	 1.7797190742	-0.7271475818	 0.154259
H	-0.0311231586	 1.947038878	 0.860283276	 0.152224
H	 2.0670030032	-2.2995375564	-1.6981568109	 0.122132
H	 1.5186871241	-3.660849017	-0.5863012482	 0.124411
H	 0.0991322434	-2.9429331192	-3.2903108609	 0.117957
H	-0.9977152167	-3.3773618064	 0.4452051843	 0.125872
H	-2.1193550995	-2.4708251782	-0.6295293632	 0.114511
39.0942	64.0496	98.9346	141.5261	277.8344	328.983	364.0167	412.3932	449.6503	575.5162	606.4482	722.4972	758.1651	845.8034	914.6874	922.0711	941.3634	981.2536	1001.1979	1008.8809	1030.3131	1063.641	1070.6255	1078.243	1110.4134	1152.1088	1232.6925	1249.2484	1280.3685	1308.3119	1392.7282	1400.8622	1468.7106	1474.9909	1479.8081	1513.3249	1835.3334	3044.3156	3057.6406	3108.7211	3115.7165	3122.4919	3171.0652	3192.7138	3213.0078
CC(=O)OC12CC1OC2	CC(=O)O[C@]12C[C@H]1OC2	
InChI=1S/C6H8O3/c1-4(7)9-6-2-5(6)8-3-6/h5H,2-3H2,1H3	InChI=1S/C6H8O3/c1-4(7)9-6-2-5(6)8-3-6/h5H,2-3H2,1H3/t5-,6+/m1/s1
