18
gdb 86649	3.35962	1.15532	0.88692	6.1882	74.51	-0.2453	-0.0297	0.2156	1289.5816	0.147699	-439.156789	-439.148081	-439.147136	-439.190492	31.637	
C	-0.7897690205	 1.242749886	-0.017311035	-0.40945
C	 0.1738449184	 0.0601140603	-0.0025918704	 0.011202
C	 1.2352718762	 0.1051711416	-1.1198634269	-0.184982
N	 2.3300763234	-0.7194102628	-0.5985773596	-0.125636
C	 3.3081943653	-1.2456198554	-1.4351480506	 0.158011
O	 4.2572875145	-1.9005459496	-1.1004399797	-0.266692
C	 2.2720369702	-0.8501081812	 0.8111381892	 0.417279
O	 3.053361435	-1.4462773012	 1.4983160429	-0.318309
C	 1.0344456123	-0.0764654529	 1.2620766179	-0.344172
H	-0.2537516239	 2.1895737666	 0.1130904451	 0.121918
H	-1.3407615035	 1.2958351491	-0.9623100501	 0.122179
H	-1.5230785656	 1.1598153588	 0.7904138852	 0.128185
H	-0.3960690072	-0.8691251219	-0.1263442903	 0.09625
H	 0.8678714567	-0.2909022725	-2.0705281229	 0.126613
H	 1.5747790504	 1.1362599401	-1.290826454	 0.117192
H	 3.0952628687	-0.9835420085	-2.4926111398	 0.079043
H	 1.3657682721	 0.9066502793	 1.6231870758	 0.132679
H	 0.5503689874	-0.5862935658	 2.0964402832	 0.13869
71.0521	113.1232	191.0984	201.5031	233.8904	240.5562	283.0442	403.4653	463.2738	489.1708	530.8061	619.6831	743.1701	767.0745	860.0874	899.2468	945.0387	967.0319	1031.221	1072.6393	1107.4624	1116.9484	1170.6302	1187.3451	1208.5903	1245.6118	1276.7915	1296.5162	1354.7509	1366.3788	1398.0366	1419.0363	1456.68	1465.3575	1497.622	1499.5203	1520.3805	1804.4815	1881.8528	2912.2385	3007.6884	3025.4011	3031.1857	3038.0397	3086.4492	3099.1031	3108.3214	3123.6696
CC1CN(C=O)C(=O)C1	C[C@H]1CN(C=O)C(=O)C1	
InChI=1S/C6H9NO2/c1-5-2-6(9)7(3-5)4-8/h4-5H,2-3H2,1H3	InChI=1S/C6H9NO2/c1-5-2-6(9)7(3-5)4-8/h4-5H,2-3H2,1H3/t5-/m1/s1
