21
gdb 56583	2.74779	1.00133	0.98478	4.2063	83.6	-0.2295	0.0331	0.2626	1360.4114	0.181237	-383.255598	-383.245591	-383.244647	-383.290563	36.696	
C	-0.045409735	 1.4916632243	 0.290624268	-0.403835
C	 0.0747200516	 0.0037881547	-0.1115570974	-0.102608
C	-1.2542186032	-0.6354496235	-0.0630580873	 0.285554
N	-2.3037837217	-1.1163196618	-0.015744298	-0.330122
N	 0.7055428228	-0.279613312	-1.4034615695	-0.065916
C	 0.0487078342	 0.3226897923	-2.55798586	-0.341218
C	 2.1286865896	-0.0941693531	-1.3967128435	 0.047582
C	 2.9810872875	-1.1533688527	-0.7473703413	-0.280805
C	 2.9567492067	-1.0177569734	-2.2503734633	-0.274947
H	 0.944037634	 1.9562666846	 0.291885892	 0.128867
H	-0.6916957833	 2.0408536243	-0.3979007706	 0.138808
H	-0.4675805654	 1.5788443936	 1.2952732127	 0.137926
H	 0.6897158606	-0.5010304291	 0.6427358301	 0.130806
H	 0.1609780245	 1.4187927651	-2.6135744962	 0.100632
H	 0.478411778	-0.1029535161	-3.4684428896	 0.129357
H	-1.0190343699	 0.085702401	-2.542027764	 0.142278
H	 2.4943445293	 0.9348851904	-1.320850704	 0.075156
H	 3.8678522961	-0.8397442771	-0.2084266893	 0.11617
H	 2.4669495799	-2.0089241491	-0.3243264982	 0.124764
H	 2.4226129668	-1.7812884732	-2.8037612051	 0.126085
H	 3.8269906068	-0.609848359	-2.7516992554	 0.115466
60.9853	105.2222	139.602	184.2878	212.9795	215.6177	245.4695	262.0523	332.2214	366.3045	457.1697	471.2458	570.426	596.8247	752.9959	789.0361	817.7331	846.4403	904.5146	965.1563	971.3314	1024.5985	1057.0806	1074.925	1083.7659	1107.939	1129.0325	1143.3531	1167.8115	1197.5505	1207.8521	1238.6044	1280.5546	1331.6814	1381.4163	1397.0081	1403.9542	1456.3648	1458.725	1486.9746	1491.0703	1495.3248	1501.7638	1515.3281	2358.667	2961.6668	3035.854	3046.7168	3052.6072	3075.4797	3119.5389	3126.8114	3134.4758	3138.5175	3143.6333	3222.7827	3236.8467
CC(C#N)N(C)C1CC1	C[C@@H](C#N)N(C)C1CC1	
InChI=1S/C7H12N2/c1-6(5-8)9(2)7-3-4-7/h6-7H,3-4H2,1-2H3	InChI=1S/C7H12N2/c1-6(5-8)9(2)7-3-4-7/h6-7H,3-4H2,1-2H3/t6-/m0/s1
