16
gdb 128010	2.46895	1.64217	0.99831	2.5445	79.13	-0.2472	-0.0884	0.1588	1148.7342	0.12194	-434.029442	-434.020554	-434.01961	-434.063524	31.416	
C	 0.1113854327	 1.3991088713	 0.091715603	-0.322847
N	 0.2110561264	-0.0524124529	 0.1089927309	-0.312136
C	 0.4751416431	-0.6534155592	-0.9766877494	 0.401325
O	 0.6675953164	 0.0268730784	-2.154866018	-0.30752
N	 0.9727484833	-0.6696607301	-3.418644666	 0.038925
N	 1.0540264194	-1.8902559589	-3.3949108585	-0.105047
C	 0.8738767796	-2.6558142899	-2.2395747969	-0.068654
C	 0.5920219752	-2.1091357438	-1.0436422788	 0.188438
C	 0.3939067473	-2.9015803636	 0.2060334808	-0.478492
H	 1.048770097	 1.8679660982	-0.2352332041	 0.130062
H	-0.6730032947	 1.746046746	-0.5936652875	 0.130043
H	-0.1229112373	 1.7513914105	 1.098472329	 0.12046
H	 0.9814356484	-3.7213021673	-2.3966877491	 0.137657
H	 0.5098949622	-3.9716925822	 0.0210736895	 0.12587
H	 1.1077393498	-2.5818218435	 0.9713009771	 0.16098
H	-0.5996198488	-2.7067504929	 0.6213448782	 0.160936
59.1916	111.5798	145.981	185.05	198.7857	216.6245	299.5698	440.2901	448.6333	498.2604	573.849	606.7192	609.0645	753.2764	820.6386	887.8932	901.7254	1006.9961	1052.3719	1060.2724	1085.2303	1106.2718	1124.6851	1173.6939	1280.443	1403.5866	1418.4411	1437.1468	1460.3415	1470.8681	1484.8142	1496.2254	1611.2227	1682.3401	1724.5067	3007.2941	3047.5094	3058.3897	3107.6629	3113.8499	3135.651	3218.6434
CN=C1ON=NC=C1C	C[N]C1=C(C=N[N]O1)C	
InChI=1S/C5H7N3O/c1-4-3-7-8-9-5(4)6-2/h3H,1-2H3	InChI=1S/C5H7N3O/c1-4-3-7-8-9-5(4)6-2/h3H,1-2H3
