16
gdb 23271	2.65437	1.50005	1.08151	2.0947	67.08	-0.2526	-0.0043	0.2483	1085.7245	0.123683	-474.964352	-474.956284	-474.95534	-474.997386	30.504	
O	-0.0706599664	 1.3315033866	 0.1598390216	-0.387799
N	 0.0267221624	-0.0660864264	 0.2107577537	-0.196733
C	-1.0989038247	-0.6189491727	 0.0086549036	 0.321682
C	-2.4242947343	 0.0443850114	-0.2995234729	-0.332901
C	-3.2424984761	-1.0901239362	-0.8840632176	 0.034474
O	-2.582374392	-1.7369249018	-1.9823658761	-0.26503
C	-2.5507359753	-2.3710597891	-0.6932328478	 0.010198
C	-1.2168303046	-2.1481976633	 0.0039306326	 0.044976
O	-0.136753796	-2.827117191	-0.5909309082	-0.418724
H	 0.8433589447	 1.6047849117	 0.2942721549	 0.310237
H	-2.8903399664	 0.4405125381	 0.611946585	 0.128673
H	-2.3001668126	 0.8847814305	-0.9884796249	 0.144935
H	-4.3228819011	-1.0157083415	-0.9692779051	 0.103028
H	-3.0568332093	-3.3296290197	-0.6254420634	 0.104778
H	-1.2716600624	-2.5249228463	 1.0335978749	 0.108345
H	-0.0354155659	-2.4637114202	-1.4789793302	 0.28986
48.0587	170.2226	193.9373	251.5205	324.0157	362.8526	373.1803	416.7949	513.1776	543.6057	590.7094	664.6645	741.5111	817.1867	845.4873	871.0645	900.0718	957.2041	1011.7981	1014.5771	1059.8077	1101.4685	1105.6737	1179.071	1205.5627	1254.2143	1272.6637	1289.1361	1301.0752	1333.4519	1404.5861	1427.7818	1433.9782	1460.5713	1756.5553	3033.1729	3037.2469	3093.5335	3154.2433	3167.237	3793.1546	3814.5995
ON=C1CC2OC2C1O	ON=C1C[C@H]2O[C@H]2[C@H]1O	
InChI=1S/C5H7NO3/c7-4-2(6-8)1-3-5(4)9-3/h3-5,7-8H,1H2	InChI=1S/C5H7NO3/c7-4-2(6-8)1-3-5(4)9-3/h3-5,7-8H,1H2/t3-,4+,5-/m1/s1
