17
gdb 129772	3.22676	1.50548	1.05388	3.8968	75.85	-0.2072	0.0144	0.2216	1106.4187	0.138891	-418.016393	-418.008913	-418.007969	-418.048163	29.305	
N	 0.0783831857	 1.390849232	 0.1129635982	-0.596534
C	-0.0739569817	 0.0268303671	 0.0130416176	 0.288778
C	-1.1456745352	-0.8160807877	 0.0033984706	 0.118458
C	-2.6417759701	-0.9072562198	 0.0397942603	-0.370006
C	-2.8746078108	-2.3955110156	-0.388470519	-0.200975
C	-1.5758299199	-3.1854303165	-0.0344953456	-0.336561
C	-0.5441710115	-2.094343699	-0.0432814181	 0.386733
N	 0.760557784	-2.0828035391	-0.067785022	-0.277645
O	 1.0686324095	-0.6875668186	-0.0333496525	-0.222201
H	 0.9689584136	 1.7282232842	-0.2254541901	 0.265554
H	-0.6990397642	 1.9255626841	-0.2449225853	 0.262338
H	-3.0383615659	-0.7221356088	 1.0469840654	 0.112732
H	-3.1578698544	-0.2141781282	-0.6333159424	 0.10253
H	-3.7648052098	-2.827634919	 0.0750345626	 0.102542
H	-3.0242038873	-2.4297721593	-1.4722685446	 0.113338
H	-1.6410550347	-3.6330336161	 0.9645171959	 0.125544
H	-1.3669036673	-3.9949537296	-0.7380027211	 0.125376
136.4615	173.0937	234.197	265.8365	299.8807	358.3494	521.8067	559.7586	586.7494	613.4974	659.9966	708.6031	715.078	798.392	842.8492	876.8313	893.7014	905.0431	991.7343	1046.8683	1061.042	1081.3059	1152.0212	1208.6628	1225.0017	1248.1255	1305.7559	1312.9354	1334.2857	1374.7084	1459.3533	1479.4128	1491.8338	1506.7773	1577.8497	1636.7446	1711.9363	3014.0899	3039.6425	3050.1026	3063.5368	3097.7815	3109.6867	3565.0409	3669.6477
NC1=C2CCCC2=NO1	Nc1c2CCCc2no1	
InChI=1S/C6H8N2O/c7-6-4-2-1-3-5(4)8-9-6/h1-3,7H2	InChI=1S/C6H8N2O/c7-6-4-2-1-3-5(4)8-9-6/h1-3,7H2
