17
gdb 18389	3.32562	2.27545	1.52279	2.255	69.33	-0.2245	0.0282	0.2526	838.6546	0.144928	-363.852065	-363.845379	-363.844435	-363.882919	26.15	
C	-0.1463864993	 1.3859175588	 0.1102011157	-0.297322
C	 1.3193379476	 1.0193836186	 0.0591401581	-0.041937
C	 2.1614534829	 0.9505592177	 1.3199596639	-0.248439
C	 2.7077101145	-0.4516642995	 1.5659866585	-0.06018
O	 1.7603313611	-1.3275587081	 2.1913507248	-0.223416
C	 0.5411260982	-1.5731548874	 1.6528107177	 0.123871
N	-0.1151184911	-1.0889304905	 0.6901910949	-0.26173
C	 0.2610928981	-0.0355494679	-0.1953408435	 0.029245
H	-0.5722778049	 1.5670862932	 1.0921070835	 0.117431
H	-0.5741622922	 1.9870245993	-0.6844201088	 0.111829
H	 1.8637195879	 1.3419851246	-0.82479318	 0.084405
H	 3.005249231	 1.6451498186	 1.2406624604	 0.108197
H	 1.5930730522	 1.2572797029	 2.2053909386	 0.11485
H	 3.0524942718	-0.9029766091	 0.6265695507	 0.111863
H	 3.5482927631	-0.4340075719	 2.2652689613	 0.113879
H	 0.0818954739	-2.3652094092	 2.245311361	 0.118974
H	 0.1228095953	-0.33276723	-1.2318575468	 0.098479
89.5902	225.5034	295.0422	340.4436	367.665	435.2892	558.3571	613.1299	742.3447	751.0413	806.2727	844.3277	871.4079	943.3326	955.7672	980.2751	993.0379	1045.8932	1052.8998	1087.6829	1127.5355	1136.9351	1157.9492	1183.7665	1243.388	1248.1637	1302.3231	1351.3916	1392.9644	1407.6132	1416.6758	1445.5953	1472.258	1487.5654	1503.6095	1761.8608	3024.2318	3037.4682	3076.7938	3092.4009	3127.2716	3128.6819	3133.7857	3138.6773	3217.6411
C1C2CCOC=NC12	C1[C@H]2CCOC=N[C@@H]12	
InChI=1S/C6H9NO/c1-2-8-4-7-6-3-5(1)6/h4-6H,1-3H2	InChI=1S/C6H9NO/c1-2-8-4-7-6-3-5(1)6/h4-6H,1-3H2/t5-,6+/m1/s1
