15
gdb 76083	2.25821	1.42149	1.24077	7.3182	66.58	-0.2666	-0.0102	0.2564	1062.0152	0.113482	-453.97417	-453.965898	-453.964954	-454.007392	30.291	
N	-0.0769758261	 1.1100613015	 0.0216526328	-0.527396
H	-0.7054722333	 0.7676016173	-0.6979613886	 0.265927
H	 1.1906416911	 0.0747583555	 0.8043334559	 0.322785
H	 0.4179951892	 1.918013062	-0.3413090357	 0.262903
C	-0.782936977	 1.4362731705	 1.2369177049	-0.044278
C	-1.3503845697	 0.2709176242	 2.0204502064	-0.196616
C	-1.2383598484	-1.0601515263	 1.4920550115	 0.299509
N	-1.196937103	-2.1248142071	 1.042428685	-0.329088
C	-0.1349203885	 1.0446713819	 2.5481668984	-0.183742
C	 1.2355675728	 0.4116209323	 2.6789829463	 0.429662
O	 1.8053095266	 0.4186167441	 3.7377553363	-0.334791
O	 1.7578924816	-0.1430386511	 1.5827770892	-0.37534
H	-1.3857737537	 2.342733157	 1.2492116148	 0.118453
H	-2.2786545197	 0.4482762629	 2.5527172724	 0.153954
H	-0.3554688419	 1.6694395953	 3.4045252903	 0.138058
81.0903	108.4312	139.9219	255.3477	276.6718	315.7544	380.3241	413.6657	492.5626	537.4677	615.9783	705.3882	764.6075	785.5204	812.3269	847.9576	890.014	911.7942	979.6284	1025.0339	1039.4871	1122.8285	1135.4721	1225.5427	1255.9744	1287.2605	1347.8515	1373.1349	1422.427	1466.3262	1651.1394	1855.3125	2358.3016	3115.2976	3174.5796	3202.9088	3341.4721	3508.635	3589.4484
[NH3+]C1C(C#N)C1C([O-])=O	N[C@H]1[C@@H](C#N)[C@H]1C(=O)O	
InChI=1S/C5H6N2O2/c6-1-2-3(4(2)7)5(8)9/h2-4H,7H2,(H,8,9)	InChI=1S/C5H6N2O2/c6-1-2-3(4(2)7)5(8)9/h2-4H,7H2,(H,8,9)/t2-,3+,4-/m0/s1
