15
gdb 45391	2.16687	1.82628	1.23983	4.9986	71.07	-0.2487	-0.047	0.2017	1012.2444	0.112894	-416.79052	-416.782783	-416.781838	-416.823038	28.782	
O	-0.0451950437	 0.1146361012	-0.7950446136	-0.270775
C	-0.0798214234	 1.1707678029	-0.2500803172	 0.401653
C	-1.1678010241	 1.9861818901	 0.4787988106	-0.358512
C	-0.1994788362	 3.1999399067	 0.5712013172	-0.103271
C	 0.6552611062	 3.2778145119	 1.8526258183	-0.16869
N	 1.505155698	 2.1750060539	 1.3415150383	-0.347849
C	 0.9633781729	 2.3168693103	-0.0379545179	 0.11102
C	 1.8647615006	 2.7227111476	-1.0874813145	 0.180966
N	 2.5881095033	 3.0424212673	-1.9320783243	-0.331184
H	-2.0429446438	 2.1493871215	-0.1567869314	 0.148605
H	-1.5026090885	 1.5632623782	 1.4295152493	 0.146528
H	-0.5295929731	 4.1233709327	 0.1036118352	 0.111829
H	 1.1754402413	 4.239056432	 1.9450141579	 0.116928
H	 0.1521255896	 3.0516090393	 2.7986296475	 0.116271
H	 2.5083451109	 2.2830736245	 1.4244774346	 0.246481
88.6597	119.4535	175.0862	236.3872	317.066	387.3961	482.5325	510.7011	548.5749	589.4335	624.6715	663.7471	799.205	819.1733	928.1084	952.8774	997.1848	1019.9659	1043.6275	1056.1944	1066.8805	1117.5945	1162.2468	1183.3749	1202.7215	1230.8109	1309.0152	1326.1965	1381.9541	1434.1561	1518.0308	1912.2456	2342.4263	3023.259	3066.6952	3074.4349	3119.6091	3157.9201	3565.0908
O=C1CC2CNC12C#N	O=C1C[C@H]2CN[C@@]12C#N	
InChI=1S/C6H6N2O/c7-3-6-4(2-8-6)1-5(6)9/h4,8H,1-2H2	InChI=1S/C6H6N2O/c7-3-6-4(2-8-6)1-5(6)9/h4,8H,1-2H2/t4-,6+/m0/s1
