16
gdb 64752	2.73174	1.31022	1.11472	2.8519	70.95	-0.2376	0.0215	0.2591	1121.5376	0.122039	-437.865663	-437.856505	-437.85556	-437.899727	33.403	
O	-0.0520591596	 1.4294028974	 0.0704137078	-0.466936
C	 0.0143197032	 0.0304587261	 0.0292162432	 0.254775
C	 0.9340510596	-0.5403574682	 1.1244124359	-0.405844
C	 2.2695633698	 0.0405204508	 1.0546258782	 0.277578
C	 3.3459510191	 0.570390957	 0.9787108394	-0.422188
C	-1.4025590958	-0.6076608672	-0.0527144852	-0.204524
N	-1.0013735208	-1.1826837221	-1.3409725677	-0.329531
C	 0.2285503632	-0.5745631028	-1.4042094362	 0.37623
O	 1.0839247645	-0.5242830867	-2.2450005555	-0.356279
H	 0.8523327109	 1.7588964755	-0.0181946379	 0.296459
H	 0.4860258813	-0.3145985853	 2.1003933183	 0.140821
H	 0.9851324243	-1.6319613413	 1.0335730343	 0.140213
H	 4.3109666642	 1.008657653	 0.9098733465	 0.204819
H	-1.6428263864	-1.3478552403	 0.7169569785	 0.111621
H	-2.1916918995	 0.1463204083	-0.1156373624	 0.128971
H	-1.5383064379	-1.6624762544	-2.0482993872	 0.253815
68.3309	94.0444	139.5963	176.4091	252.9679	292.8213	348.072	361.8942	376.6503	464.0165	503.3542	550.1829	627.1598	664.2937	737.6963	756.152	781.8208	896.3779	925.7438	975.8853	987.3705	1020.2348	1132.4634	1151.5485	1173.7199	1208.7522	1260.4737	1301.7601	1314.1698	1374.0434	1417.6773	1458.9816	1520.4861	1897.9349	2236.8586	3024.6952	3045.8046	3066.2243	3102.9409	3504.5309	3609.9786	3764.9458
OC1(CC#C)CNC1=O	O[C@@]1(CC#C)CNC1=O	
InChI=1S/C6H7NO2/c1-2-3-6(9)4-7-5(6)8/h1,9H,3-4H2,(H,7,8)	InChI=1S/C6H7NO2/c1-2-3-6(9)4-7-5(6)8/h1,9H,3-4H2,(H,7,8)/t6-/m0/s1
