19
gdb 90411	2.30687	1.58459	1.32394	2.2815	71.6	-0.227	0.0548	0.2818	1071.9517	0.156335	-460.116156	-460.106911	-460.105966	-460.149203	35.784	
C	-0.0971581819	 1.595117278	 0.020385569	-0.42539
C	 0.1625181572	 0.1032343007	 0.0399295767	 0.079538
O	 1.3097308649	-0.3462954946	-0.7600429302	-0.324248
C	 1.7691643305	-1.1957119978	 0.3049466015	-0.099078
C	 2.2099796734	-0.3221659401	 1.4436445668	 0.372757
C	 2.8670151746	-0.993708209	 2.6245578848	-0.438537
O	 2.7845252748	 0.9249104326	 1.1695697729	-0.474264
C	 0.7269898623	-0.6041498349	 1.270246941	 0.223924
O	-0.0322965808	-1.1180072836	 2.2986145664	-0.450156
H	 0.7446484022	 2.1534160253	 0.4319267307	 0.141493
H	-0.2975996707	 1.9357786425	-1.0006275973	 0.125622
H	-0.9831486768	 1.812439404	 0.6265987651	 0.127321
H	-0.7248300799	-0.4387054127	-0.3233815017	 0.075289
H	 2.1212760151	-2.1903729699	 0.0531813737	 0.10519
H	 3.9378870972	-1.1081218569	 2.4344754474	 0.12278
H	 2.7392912541	-0.3834035493	 3.5234087017	 0.135813
H	 2.4269307565	-1.9738092941	 2.8196613879	 0.124073
H	 2.7043941424	 1.0452295911	 0.2131926799	 0.290823
H	-0.6920790353	-1.7160793712	 1.9272318838	 0.287051
155.6617	182.2	186.9584	214.2182	229.3878	248.78	310.9021	337.2192	373.0887	425.9714	443.2759	493.0835	578.1352	600.0261	669.457	682.2495	760.5915	841.1663	925.8539	939.9904	954.9976	1013.9073	1015.8722	1089.1175	1111.5587	1121.9268	1138.14	1168.8673	1227.4569	1261.4129	1286.5053	1320.6493	1377.1994	1396.7909	1407.4343	1430.5143	1461.1045	1478.6309	1486.8124	1502.6935	1511.3717	2977.9467	3042.1399	3048.6592	3105.2705	3115.5945	3136.3321	3145.2711	3170.5248	3746.5599	3773.7535
CC1OC2C(C)(O)C12O	C[C@H]1O[C@H]2[C@@](C)(O)[C@@]12O	
InChI=1S/C6H10O3/c1-3-6(8)4(9-3)5(6,2)7/h3-4,7-8H,1-2H3	InChI=1S/C6H10O3/c1-3-6(8)4(9-3)5(6,2)7/h3-4,7-8H,1-2H3/t3-,4+,5-,6-/m1/s1
