16
gdb 9199	7.8084	0.78954	0.72688	3.6697	67.71	-0.2478	-0.016	0.2318	1474.3424	0.126353	-383.713603	-383.704022	-383.703078	-383.749793	32.425	
O	 0.0772368156	 1.4012612884	 0.0693521113	-0.393325
C	-0.010154016	 0.0052231258	-0.025756173	-0.168236
C	-1.4724788459	-0.4270698353	 0.0507114509	 0.371626
O	-2.3776095363	 0.3666686656	 0.1119971808	-0.274613
C	-1.7011863911	-1.933869928	 0.0429019621	-0.305289
C	-3.193499609	-2.2990251917	-0.0134453425	-0.355495
C	-3.411331536	-3.7395836737	 0.0043285424	 0.284371
C	-3.5637695295	-4.9318093936	 0.0200314567	-0.42912
H	 1.0044600206	 1.6474890537	 0.0047928007	 0.294249
H	 0.3961739243	-0.3847042426	-0.9760190503	 0.110085
H	 0.5374616807	-0.5148037871	 0.7797506634	 0.107843
H	-1.1618568968	-2.3802064366	-0.8017450771	 0.131193
H	-1.2399455263	-2.3619730847	 0.9422775303	 0.137366
H	-3.7098975555	-1.8251374544	 0.8281312472	 0.150269
H	-3.6391027714	-1.8606698521	-0.9134736379	 0.14532
H	-3.7182902774	-5.9820524637	 0.0337696951	 0.193758
20.4447	57.6492	85.1877	106.0027	215.9999	227.1256	289.0148	343.6438	371.2971	467.8264	511.0117	620.4275	641.9211	673.7861	735.4065	848.296	907.7792	958.5708	1013.0106	1066.7209	1082.5841	1149.223	1173.6877	1237.1826	1257.6277	1294.984	1308.9549	1381.3481	1443.3307	1452.3879	1470.335	1494.9975	1827.9032	2240.1021	2948.0897	2969.4551	3031.5546	3048.2017	3060.6736	3084.3885	3507.7296	3836.62	20.4385	57.6482	85.1866	106.0023	215.9997	227.1219	289.0148	343.6447	371.2972	467.8264	511.0121	620.428	641.9214	673.7861	735.4065	848.2958	907.7793	958.5708	1013.0106	1066.7211	1082.5843	1149.2228	1173.6882	1237.1828	1257.628	1294.9845	1308.9555	1381.3484	1443.3309	1452.3884	1470.3356	1494.9977	1827.9037	2240.1025	2948.0896	2969.455	3031.5545	3048.2016	3060.6735	3084.3885	3507.7293	3836.6194
OCC(=O)CCC#C	OCC(=O)CCC#C	
InChI=1S/C6H8O2/c1-2-3-4-6(8)5-7/h1,7H,3-5H2	InChI=1S/C6H8O2/c1-2-3-4-6(8)5-7/h1,7H,3-5H2
