23
gdb 88750	3.5858	1.0292	0.89955	0.1851	89.8	-0.2476	0.087	0.3346	1396.6956	0.206613	-351.113501	-351.104684	-351.10374	-351.147353	34.583	
C	-0.0100290414	 1.5548881867	-0.2386245092	-0.405958
C	 0.0331410253	 0.0506833215	-0.0730601194	 0.005873
C	 1.3334004933	-0.7102004585	-0.1696564088	-0.30937
C	 0.604543058	-0.6313087	 1.1540728352	-0.002734
C	 1.1882602664	 0.1305148289	 2.3163039365	 0.013987
C	 0.2475855676	 0.6140462754	 3.4813419034	-0.261613
C	 1.1478174456	-0.1113408977	 4.4886679665	-0.035825
C	 1.1883806677	-1.5777792812	 4.1688592552	-0.275916
C	 2.0313548566	-0.6345458066	 3.3540387974	-0.060788
H	 0.8884669466	 2.0375787444	 0.156453726	 0.115218
H	-0.0840570964	 1.8255717198	-1.2979150698	 0.114238
H	-0.8740230134	 1.9905408427	 0.2760157465	 0.115841
H	-0.8285177568	-0.4537137949	-0.5042686361	 0.078581
H	 1.3572540144	-1.6547011352	-0.7025331237	 0.105435
H	 2.2435574564	-0.1250986255	-0.2691610642	 0.103641
H	 0.0825913491	-1.5392163802	 1.4469718655	 0.074509
H	 1.7626144685	 0.9852345914	 1.9484242548	 0.066484
H	 0.2418842751	 1.7010511947	 3.5883371825	 0.098578
H	-0.789987172	 0.2642955178	 3.4407908257	 0.090814
H	 1.4428722715	 0.272236222	 5.4576894541	 0.080559
H	 1.7431817944	-2.1951521262	 4.8684219451	 0.107224
H	 0.3183541345	-2.0722242434	 3.7422182122	 0.102734
H	 3.1100507991	-0.7360263858	 3.3205385147	 0.078488
47.8564	123.6041	152.1717	205.46	214.7127	333.4352	372.1965	391.0702	460.0297	528.5163	685.1729	764.886	779.5635	801.7553	807.1648	854.2114	891.5522	906.2425	942.2027	951.9371	972.2223	999.5917	1021.6136	1030.4783	1042.089	1059.2165	1066.1483	1079.4341	1085.7371	1112.2082	1136.7046	1148.7942	1183.3425	1198.124	1216.972	1236.7047	1256.0851	1262.2857	1299.2299	1312.5333	1365.7507	1396.9947	1421.8651	1439.0024	1482.847	1492.4418	1494.9163	1499.0221	1505.9572	3027.9781	3040.6222	3060.0854	3084.3372	3101.6396	3104.2122	3104.8311	3120.6917	3125.2789	3136.6834	3169.654	3182.1241	3197.8442	3204.7118
CC1CC1C1CC2CC12	C[C@H]1C[C@H]1[C@H]1C[C@H]2C[C@@H]12	
InChI=1S/C9H14/c1-5-2-7(5)9-4-6-3-8(6)9/h5-9H,2-4H2,1H3	InChI=1S/C9H14/c1-5-2-7(5)9-4-6-3-8(6)9/h5-9H,2-4H2,1H3/t5-,6+,7+,8+,9+/m0/s1
