17
gdb 32182	2.07101	1.64119	0.97951	3.6023	76.88	-0.2392	-0.0517	0.1875	1191.8447	0.137079	-418.068774	-418.060444	-418.0595	-418.102055	30.204	
C	 0.0359840324	 1.5155016898	 0.2746320459	-0.374839
C	-0.0255516428	 0.0206363479	-0.0927506403	-0.307741
C	-1.4049379091	-0.556980213	-0.0938957758	 0.29487
C	-2.2431186041	-0.8710009203	-1.1209191708	-0.162573
N	-3.4620375562	-1.3554248782	-0.6628667276	-0.267445
C	-3.3746251043	-1.338905155	 0.6327413824	 0.031299
N	-2.1433255555	-0.8616003315	 1.0627883247	-0.119033
C	-1.7439870004	-0.7674904791	 2.3960495903	 0.172242
O	-2.4496768567	-1.0571577504	 3.3251975506	-0.279336
H	 1.0648188782	 1.8826194735	 0.2151299871	 0.123615
H	-0.5802670005	 2.105532375	-0.409463574	 0.133319
H	-0.3267026388	 1.7012202774	 1.2904471403	 0.120701
H	 0.3777477173	-0.1167281396	-1.1011726529	 0.126974
H	 0.634004673	-0.5519707539	 0.5717240282	 0.115198
H	-2.0420031512	-0.7805878378	-2.1781084387	 0.119481
H	-4.1226216838	-1.6508754989	 1.3439628158	 0.164006
H	-0.7095819176	-0.4019917058	 2.5030848847	 0.109263
94.3628	134.7391	153.3379	188.0211	233.0827	256.624	335.8655	390.7936	552.4545	618.3666	665.4888	691.8014	790.0465	822.1606	851.9219	866.9585	926.1026	971.3883	1038.0228	1063.9344	1085.4398	1121.403	1174.4687	1245.4983	1269.0997	1283.2618	1338.1087	1358.9296	1408.2353	1416.7135	1446.8675	1485.3358	1497.8077	1505.0519	1531.8564	1619.1882	1825.2769	3006.2909	3027.7975	3042.3287	3076.5676	3113.0587	3121.1989	3247.9825	3277.6763
CCC1=CN=CN1C=O	CCc1cncn1C=O	
InChI=1S/C6H8N2O/c1-2-6-3-7-4-8(6)5-9/h3-5H,2H2,1H3	InChI=1S/C6H8N2O/c1-2-6-3-7-4-8(6)5-9/h3-5H,2H2,1H3
