17
gdb 93208	2.85309	1.35267	0.95561	4.4109	71.82	-0.266	-0.0447	0.2213	1194.7427	0.135375	-459.006011	-458.997278	-458.996334	-459.039448	32.009	
C	 0.0563991005	 1.5215414278	-0.0930569147	-0.473774
C	-0.02356546	 0.022873616	-0.0638096937	 0.14937
C	-1.1581568924	-0.6787915217	 0.0243208424	-0.187411
C	-1.1614797312	-2.184809125	 0.0556558925	 0.038197
O	-2.262738384	-2.7464100796	-0.6441392322	-0.421716
C	 0.0852952484	-2.6832141886	-0.6642573646	-0.083132
O	 1.2729543675	-2.045694482	-0.1863573955	-0.238858
C	 1.2873966546	-0.6944400001	-0.045164466	 0.393169
O	 2.3366678802	-0.1324360366	 0.1359307665	-0.331223
H	 0.6466089557	 1.8920725194	 0.7502613991	 0.151188
H	 0.5657395412	 1.8658947504	-0.9992219951	 0.143501
H	-0.9400397753	 1.9685757852	-0.0586821805	 0.116935
H	-2.1209231841	-0.1746791368	 0.0862148328	 0.099731
H	-1.1474434379	-2.5353157972	 1.1013194173	 0.095354
H	-3.0585181432	-2.6092163586	-0.1212751595	 0.292569
H	 0.2347083504	-3.752910815	-0.5108643973	 0.130412
H	-0.0374188404	-2.4948942477	-1.7380945513	 0.125687
84.3346	141.7211	178.4546	207.9702	211.3165	279.0505	336.3945	358.2422	431.4273	447.9669	543.6535	592.2145	635.7726	773.8195	785.0125	874.6168	934.5984	997.8546	1046.2507	1070.9132	1076.7226	1080.2042	1118.5257	1154.5275	1209.897	1228.1591	1282.6336	1352.2831	1361.1812	1400.1338	1414.3076	1439.1561	1469.4588	1485.2605	1507.0232	1717.8451	1820.3072	2960.2145	3039.0536	3042.9255	3102.1944	3125.4994	3127.5227	3146.738	3829.3518
CC1=CC(O)COC1=O	CC1=C[C@@H](O)COC1=O	
InChI=1S/C6H8O3/c1-4-2-5(7)3-9-6(4)8/h2,5,7H,3H2,1H3	InChI=1S/C6H8O3/c1-4-2-5(7)3-9-6(4)8/h2,5,7H,3H2,1H3/t5-/m1/s1
