14
gdb 29896	3.35423	1.49403	1.04034	5.1981	68.1	-0.2682	-0.0589	0.2093	1066.2587	0.102236	-470.068671	-470.060965	-470.060021	-470.101418	27.707	
C	 0.3019198844	 1.4185747053	 0.0214942999	-0.327298
N	-0.0183331558	-0.0061399604	 0.0124460928	-0.109744
C	-0.3743989413	-0.664107487	-1.1163419036	 0.120588
N	-0.6730917469	-1.9139080322	-1.2200568786	-0.353508
C	-0.6326858213	-2.6823738404	-0.073832154	 0.445621
O	-0.8769026201	-3.8440188411	 0.0080328492	-0.309809
O	-0.2625608951	-2.0253426879	 1.1342496386	-0.25368
C	 0.0478217829	-0.7088561197	 1.2212267696	 0.483417
N	 0.3771265565	-0.1158294663	 2.2861712928	-0.564225
H	 1.3225984039	 1.5703734225	 0.3775067262	 0.167911
H	 0.1996505237	 1.8019073006	-0.9948992379	 0.139118
H	-0.3761048848	 1.9502336806	 0.6917188082	 0.167923
H	-0.4016283891	-0.0451542848	-2.0114318671	 0.148194
H	 0.3765518428	-0.7657724791	 3.0696500939	 0.245491
81.0859	114.7056	146.0786	226.766	335.3696	387.3184	426.2743	486.1114	548.894	626.3675	728.5459	731.3773	790.2089	830.583	843.7594	921.6426	993.9785	1006.9705	1098.0374	1133.8029	1160.3848	1208.8133	1362.0917	1408.8587	1442.0547	1466.4614	1470.4974	1520.7695	1682.7635	1753.6394	1895.1623	3063.3825	3140.3464	3152.958	3159.5159	3530.9367
CN1C=NC(=O)OC1=N	CN1C=NC(=O)O[C]1[NH]	
InChI=1S/C4H5N3O2/c1-7-2-6-4(8)9-3(7)5/h2,5H,1H3	InChI=1S/C4H5N3O2/c1-7-2-6-4(8)9-3(7)5/h2,5H,1H3
