20
gdb 102914	2.98947	0.75394	0.6323	4.2952	80.73	-0.2637	-0.0395	0.2243	1749.0143	0.16828	-403.18256	-403.171909	-403.170965	-403.219965	36.358	
C	 0.1065226718	 1.5883633015	-0.0460069382	-0.394556
C	 0.0284105008	 0.0587047008	-0.0109058855	-0.205075
C	-1.4128753345	-0.4782280387	 0.0153014275	-0.056431
C	-1.4421047847	-2.0207162549	-0.0814481187	-0.21446
C	-2.8624138839	-2.5778831148	-0.3125075488	-0.350653
C	-2.8754498568	-4.0373993991	-0.3719064338	 0.258054
N	-2.862718617	-5.1919803499	-0.4168686489	-0.30312
C	-2.1150862502	-0.0709483749	 1.2989475715	 0.16411
O	-3.2555869491	 0.3071021405	 1.3775613162	-0.25151
H	 1.1463283803	 1.9263328776	-0.0723351871	 0.124036
H	-0.3990781225	 1.9884777766	-0.9311585575	 0.125952
H	-0.3658131752	 2.0394516319	 0.8335043242	 0.127517
H	 0.5402298172	-0.3579776907	-0.8858346395	 0.10867
H	 0.5684139504	-0.3226716963	 0.8664099208	 0.106913
H	-1.9876746134	-0.0560309207	-0.8181252189	 0.096662
H	-0.7932846062	-2.3368506894	-0.9045655544	 0.128639
H	-1.0215066439	-2.4617225981	 0.8304071594	 0.126774
H	-3.5428136602	-2.2498235752	 0.4805169897	 0.171756
H	-3.271944157	-2.1864130459	-1.2507473707	 0.157076
H	-1.4862724056	-0.1905477003	 2.2146241927	 0.079646
40.5929	56.7621	80.7675	107.6782	114.6588	203.8921	214.9141	267.0847	331.969	352.2408	399.1777	423.4105	517.3212	578.8608	756.8954	769.4184	889.2916	927.3787	944.8135	966.1939	1013.1022	1019.8522	1043.6548	1113.0416	1130.7418	1148.578	1200.041	1263.2318	1280.0323	1306.3345	1330.1838	1358.9641	1374.9776	1383.7909	1416.6149	1423.6276	1467.8183	1482.8149	1495.6285	1500.2514	1503.1614	1829.3052	2363.6751	2840.7566	3018.5853	3034.1032	3035.8239	3042.6867	3052.3617	3061.3661	3077.1023	3097.0192	3101.4063	3112.4319
CCC(CCC#N)C=O	CC[C@@H](CCC#N)C=O	
InChI=1S/C7H11NO/c1-2-7(6-9)4-3-5-8/h6-7H,2-4H2,1H3	InChI=1S/C7H11NO/c1-2-7(6-9)4-3-5-8/h6-7H,2-4H2,1H3/t7-/m0/s1
