20
gdb 40254	2.75169	1.61004	1.22158	2.4078	78.52	-0.2223	0.0798	0.302	1071.2327	0.172869	-403.108951	-403.101343	-403.100399	-403.140904	30.684	
C	 0.1241403124	 1.4868865267	-0.0000105474	-0.243103
O	 1.2261262511	 0.5773366218	-0.018582147	-0.281838
C	-0.1121632138	 0.0379575073	 0.0109550928	 0.419608
C	-0.4523004832	-0.6988940581	 1.2899000016	-0.289378
C	-0.0218156249	-2.1629951449	 1.1376095922	-0.205364
C	-0.7954458014	-2.8455738344	 0.004005379	-0.147814
N	-0.8068250882	-2.0994270051	-1.2718344241	-0.099412
C	-1.8884545642	-1.1442557167	-1.4842227824	-0.260126
C	-0.4989543245	-0.6600792684	-1.2610491169	-0.062986
H	 0.0010945687	 2.0578746739	 0.9204947928	 0.108682
H	-0.0297427314	 2.0549000116	-0.9173701828	 0.111292
H	 0.0682078782	-0.213143173	 2.1199868391	 0.110393
H	-1.5288896723	-0.6384045852	 1.4958565285	 0.099275
H	 1.0533715413	-2.1913988641	 0.9251613511	 0.120881
H	-0.1796764688	-2.7198947095	 2.0670772203	 0.097479
H	-0.358397686	-3.8298225941	-0.1978589418	 0.108637
H	-1.8312813946	-3.0215677285	 0.322871061	 0.097196
H	-2.3204160014	-1.1268943142	-2.4821917197	 0.113718
H	-2.6110617383	-0.9987419162	-0.6818377642	 0.104617
H	 0.0860977813	-0.3251121687	-2.1154425922	 0.098244
86.0752	195.5373	234.1284	306.2564	360.138	398.5216	429.7753	465.2857	507.6298	616.2425	698.2506	735.739	809.935	849.7612	881.5551	895.6737	909.1341	948.2985	985.5785	1007.1291	1038.2518	1067.367	1088.0372	1113.9751	1120.4822	1134.6177	1157.2748	1166.9825	1204.6503	1227.8126	1277.0606	1304.2231	1310.9309	1331.8389	1370.8763	1379.8072	1391.1139	1443.6264	1477.4194	1489.5455	1501.5009	1519.6194	1530.6653	3013.3945	3025.7638	3037.0333	3056.4952	3072.4768	3083.4108	3084.8202	3091.8986	3123.7434	3156.7133	3166.5897
C1OC11CCCN2CC12	C1O[C@]21CCCN1C[C@@H]21	
InChI=1S/C7H11NO/c1-2-7(5-9-7)6-4-8(6)3-1/h6H,1-5H2	InChI=1S/C7H11NO/c1-2-7(5-9-7)6-4-8(6)3-1/h6H,1-5H2/t6-,7-,8?/m0/s1
