21
gdb 94372	2.93617	1.36678	1.19923	1.8805	81.56	-0.2394	0.0826	0.322	1136.471	0.182618	-387.043706	-387.035361	-387.034417	-387.076852	32.549	
C	-0.3966179973	 1.3974358041	 0.0103858009	-0.40511
C	 0.1145520121	-0.0284069066	-0.0518277385	 0.10407
O	 1.3671096982	-0.1229481968	-0.7769120646	-0.299243
C	 2.0169858895	-0.773212401	 0.3300348259	-0.141087
C	 0.755105254	-0.670236414	 1.2068260837	 0.292687
C	 0.8489237169	 0.0110240266	 2.6104020809	-0.321353
C	 0.2902858614	-1.2666801653	 3.2493172338	-0.035945
C	-1.0513499472	-1.5875221176	 2.6584805466	-0.285126
C	 0.1877220488	-1.9233259489	 1.8711483108	-0.122571
H	 0.3274734491	 2.0548932731	 0.5009094435	 0.119413
H	-0.5684035558	 1.7748354039	-1.0027898054	 0.126274
H	-1.3441617822	 1.4490962525	 0.5578481725	 0.113851
H	-0.6431835198	-0.6816708977	-0.509908526	 0.06934
H	 2.3278438763	-1.7979151832	 0.0823958619	 0.095284
H	 2.8942602226	-0.2132718569	 0.6809808614	 0.095485
H	 1.8870577283	 0.2175556416	 2.8846045468	 0.10424
H	 0.2605823251	 0.9216762161	 2.7656392401	 0.09821
H	 0.622787486	-1.6983881779	 4.1850160695	 0.087122
H	-1.563399028	-2.4398991189	 3.0936652705	 0.112582
H	-1.7173992182	-0.790678152	 2.333873277	 0.106525
H	 0.4171599601	-2.9402054309	 1.5724724487	 0.085351
55.6842	124.1358	185.2593	240.8485	265.7937	339.2306	395.3481	430.7863	488.2047	513.8222	732.4092	785.4948	788.9854	827.8357	875.4723	887.9359	922.3527	939.2953	971.0616	982.8427	1012.4285	1026.5432	1040.7741	1062.5366	1082.474	1084.4629	1108.8603	1136.6375	1155.334	1168.3907	1194.533	1200.0255	1242.5471	1253.2679	1282.7099	1310.4867	1360.5996	1370.5579	1381.7283	1402.4614	1477.8999	1483.5001	1491.9656	1496.7535	1522.0388	2985.0325	2994.888	3032.6067	3033.343	3042.386	3095.1278	3102.8417	3105.1699	3112.7278	3168.3981	3185.9466	3199.4357
CC1OCC11CC2CC12	C[C@H]1OC[C@]21C[C@H]1C[C@@H]21	
InChI=1S/C8H12O/c1-5-8(4-9-5)3-6-2-7(6)8/h5-7H,2-4H2,1H3	InChI=1S/C8H12O/c1-5-8(4-9-5)3-6-2-7(6)8/h5-7H,2-4H2,1H3/t5-,6-,7-,8+/m1/s1
