18
gdb 46736	2.77247	1.84519	1.3483	3.8036	74.82	-0.233	0.0127	0.2457	971.4379	0.150397	-401.947909	-401.940973	-401.940029	-401.979245	27.986	
O	-0.1782333337	 0.0571024194	 0.58634263	-0.352939
C	-0.1399718316	 1.1911447233	 0.1743195566	 0.365663
C	-1.312483727	 2.0493025864	-0.3405608383	-0.320594
C	-0.9147586655	 3.4885059761	 0.0656877274	-0.259055
C	 0.6262052925	 3.4377436869	-0.0012399721	 0.031564
C	 1.5636653057	 3.730576086	 1.1887166272	-0.097593
C	 1.2549175938	 2.84703074	 2.3741091625	-0.292459
C	 1.9445577162	 2.2506400807	 1.1837239497	-0.011993
N	 0.9845944331	 2.0037172778	 0.0992816066	-0.093413
H	-1.386982454	 1.9462759692	-1.429524815	 0.12958
H	-2.2500183391	 1.697048221	 0.0914946058	 0.130459
H	-1.3430714863	 4.255841833	-0.5825610686	 0.107937
H	-1.2447136723	 3.6952048847	 1.0888852211	 0.114925
H	 1.0118720572	 3.8793211518	-0.9270594672	 0.088707
H	 2.214444218	 4.5910168804	 1.2621729248	 0.100673
H	 1.8942759664	 3.0197583129	 3.2341650661	 0.123074
H	 0.2401795912	 2.5521896807	 2.6252926689	 0.123076
H	 2.9102728654	 1.7640229697	 1.2041976244	 0.112387
118.8099	152.2346	233.3664	345.8665	455.5072	508.972	564.7051	620.8493	642.0541	694.5839	750.6989	801.2246	825.4505	840.865	928.5751	943.1795	963.3946	985.2941	1022.9611	1031.7589	1057.3956	1072.2651	1079.5951	1092.0788	1135.6035	1166.5942	1192.6866	1217.1063	1251.1186	1280.4402	1288.0732	1298.3904	1324.3309	1348.0856	1373.2513	1469.1482	1483.5516	1500.7546	1830.1135	3036.0598	3048.3188	3057.4976	3109.984	3121.8372	3129.7099	3201.6977	3204.5471	3215.9985
O=C1CCC2C3CC3N12	O=C1CC[C@H]2[C@H]3C[C@H]3N12	
InChI=1S/C7H9NO/c9-7-2-1-5-4-3-6(4)8(5)7/h4-6H,1-3H2	InChI=1S/C7H9NO/c9-7-2-1-5-4-3-6(4)8(5)7/h4-6H,1-3H2/t4-,5+,6-/m1/s1
