19
gdb 79342	3.37319	1.51765	1.43424	1.7866	73.31	-0.2335	0.0953	0.3287	1007.8328	0.160189	-423.026707	-423.019158	-423.018214	-423.058267	30.361	
C	-0.081547101	 1.5458041112	 0.020917848	-0.41297
C	 0.0282877822	 0.0256702727	-0.0287992039	 0.005517
C	 0.9736658283	-0.5378987136	-1.0856482316	-0.223526
C	 2.3259269492	-0.6056264825	-0.3751059441	-0.005477
O	 2.1481403258	-0.1405586731	 0.9509401607	-0.251704
C	 0.8184793215	-0.6149056681	 1.1419023655	 0.129066
O	 0.8728031924	-1.9897013432	 0.7875362243	-0.280684
C	 1.4798370359	-1.8506307303	-0.4935677624	 0.41052
C	 1.7938269629	-3.1239523378	-1.2066981887	-0.502734
H	 0.9050012621	 2.0016446243	 0.1370047283	 0.13339
H	-0.5341000783	 1.9358873469	-0.8961443619	 0.115083
H	-0.7076087938	 1.8674118451	 0.8605699651	 0.113025
H	-0.9590464151	-0.4427229069	-0.0893158223	 0.083301
H	 0.8672570176	-0.3660987502	-2.1479819076	 0.091578
H	 3.3030026289	-0.4321993917	-0.8016323296	 0.109936
H	 0.4930621782	-0.477672313	 2.1699015846	 0.095019
H	 0.8803719851	-3.6802722469	-1.4408805423	 0.131051
H	 2.314187842	-2.9142482487	-2.1455762257	 0.123753
H	 2.436629126	-3.7616826741	-0.5918151965	 0.135855
176.9161	200.5271	211.5312	225.3815	273.8651	329.7175	503.7247	576.1504	613.5551	644.12	721.0625	730.866	791.7211	849.7285	870.1585	887.6134	913.2918	936.2994	947.0067	1006.4576	1021.3458	1029.372	1058.5302	1086.984	1098.7869	1122.225	1131.0348	1184.6574	1213.255	1233.941	1281.4044	1294.1268	1338.518	1371.4092	1407.7361	1409.4494	1450.0692	1478.209	1497.0217	1501.4002	1502.784	3035.7973	3037.7757	3064.9569	3096.9606	3103.5	3116.0655	3124.5347	3170.6438	3211.2409	3231.2402
CC1C2C3OC1OC23C	C[C@H]1[C@H]2[C@H]3O[C@@H]1O[C@@]23C	
InChI=1S/C7H10O2/c1-3-4-5-7(4,2)9-6(3)8-5/h3-6H,1-2H3	InChI=1S/C7H10O2/c1-3-4-5-7(4,2)9-6(3)8-5/h3-6H,1-2H3/t3-,4-,5+,6+,7-/m0/s1
