16
gdb 18334	3.30566	2.45666	1.59658	4.4022	64.1	-0.2341	0.053	0.2872	798.9184	0.133887	-379.948446	-379.941692	-379.940748	-379.979955	25.141	
O	-0.1364416209	 0.2062686372	 0.7754561156	-0.395829
C	-0.1034343102	 1.2823434459	 0.2232666403	 0.403388
N	-1.186369223	 2.053634269	-0.1460253999	-0.332491
C	-0.8621871768	 3.4302659365	-0.4702075595	-0.194187
C	 0.6844282104	 3.4061201109	-0.3958832074	 0.035232
C	 1.4336248566	 3.8247150988	 0.8988751355	-0.251469
C	 1.9834251952	 2.3701723253	 0.9508696307	-0.173046
N	 1.0578643184	 1.98692828	-0.1542776019	-0.136049
H	-2.1115938095	 1.7396028085	 0.0910427587	 0.25568
H	-1.2125236709	 3.7057348758	-1.4717617296	 0.114383
H	-1.2943172042	 4.1442988086	 0.244570917	 0.109282
H	 1.1373621379	 3.8076381838	-1.3061887011	 0.091121
H	 2.165265976	 4.6289425963	 0.8010509478	 0.109736
H	 0.7565520284	 4.0561029955	 1.7259989695	 0.113449
H	 3.0297378714	 2.2748073434	 0.6492059462	 0.116337
H	 1.819434411	 1.7967377944	 1.8659702382	 0.134462
60.5669	112.17	251.9031	333.6722	419.6868	493.6894	637.6609	690.3068	724.7315	773.3421	792.4255	813.8316	912.6103	935.5972	959.4178	1039.2735	1049.069	1095.5157	1112.0063	1141.9756	1192.1609	1210.9353	1222.3101	1249.5142	1260.8662	1277.4857	1307.6617	1343.8459	1386.7695	1439.9708	1485.2524	1518.0844	1538.0271	1836.6223	3002.9938	3039.4854	3061.1281	3063.9838	3068.0065	3112.379	3128.7449	3674.089
O=C1NCC2CCN12	O=C1NC[C@H]2CCN12	
InChI=1S/C5H8N2O/c8-5-6-3-4-1-2-7(4)5/h4H,1-3H2,(H,6,8)	InChI=1S/C5H8N2O/c8-5-6-3-4-1-2-7(4)5/h4H,1-3H2,(H,6,8)/t4-/m1/s1
