19
gdb 86898	2.95095	1.18807	0.95257	1.2883	71.44	-0.2428	-0.0297	0.2131	1247.5441	0.15742	-460.174451	-460.165094	-460.16415	-460.209377	33.895	
C	 0.2563206719	 1.8057512032	 0.234805441	-0.385678
C	 0.1694061895	 0.3369207867	-0.166412681	 0.118396
O	 0.9851985774	 0.0737428172	-1.31941484	-0.29309
C	 2.1572021215	-0.6577912837	-0.9533422353	 0.025358
C	 2.1758009575	-0.7635877465	 0.5718335723	-0.295047
C	 0.6800196901	-0.6446538455	 0.9103108548	 0.094521
O	 0.3908320966	-0.1518811169	 2.2016694948	-0.430745
C	 2.1020066235	-2.0146570494	-1.6528866112	 0.138845
O	 2.6074916656	-3.0226373116	-1.2316297117	-0.242619
H	 1.2705966696	 2.0797781801	 0.5394856598	 0.115434
H	-0.0280462327	 2.4317954231	-0.6151825381	 0.119649
H	-0.416833192	 2.0117928794	 1.0704599203	 0.13207
H	-0.8623651587	 0.0995722668	-0.4486148467	 0.086967
H	 3.0419929605	-0.1337211451	-1.3455114533	 0.10788
H	 2.6282180335	-1.7043329993	 0.8928035362	 0.126646
H	 2.7183834397	 0.0699656646	 1.0254182883	 0.114797
H	 0.1957635253	-1.6204368351	 0.7511961441	 0.081907
H	 0.676307157	-0.8080155318	 2.8444966341	 0.290397
H	 1.5368074641	-1.9880549361	-2.6105319184	 0.094312
40.2824	88.8682	109.2654	218.4116	233.1873	264.9274	270.4787	322.5868	392.2799	421.97	534.0423	584.1444	629.0402	703.9754	796.9601	835.8563	890.5715	936.9215	954.1441	1027.6133	1049.9677	1067.5675	1095.1358	1123.8128	1133.1562	1141.6564	1196.5625	1248.8442	1268.0921	1296.4528	1334.177	1346.9418	1369.8295	1388.209	1397.1353	1403.8097	1435.2462	1486.5831	1488.2102	1498.1458	1831.0807	2900.0637	2980.0791	2991.8152	3044.4013	3048.1428	3070.5293	3120.3055	3126.5055	3132.8586	3828.5574
CC1OC(CC1O)C=O	C[C@H]1O[C@@H](C[C@H]1O)C=O	
InChI=1S/C6H10O3/c1-4-6(8)2-5(3-7)9-4/h3-6,8H,2H2,1H3	InChI=1S/C6H10O3/c1-4-6(8)2-5(3-7)9-4/h3-6,8H,2H2,1H3/t4-,5+,6-/m1/s1
