17
gdb 43839	2.94898	1.5881	1.20685	4.3999	72.98	-0.2537	0.0102	0.2639	1036.3297	0.136814	-421.845435	-421.83821	-421.837266	-421.877079	28.812	
O	-0.0153056452	 0.0361783326	 0.2716157382	-0.34497
C	 0.0251762981	 1.2051529788	 0.0215195916	 0.42556
O	-1.1077242133	 1.9328261048	-0.2461277449	-0.264486
C	-0.7821166493	 3.2199172638	-0.7636526048	 0.449445
C	-1.5091074095	 3.6484364811	-2.0007785757	-0.334876
C	-1.8434839852	 4.2661829173	-0.6512462043	-0.327921
C	 0.6866798135	 3.4442633837	-0.5409033837	-0.133335
C	 1.1529627452	 3.3116290623	 0.8766270555	-0.296547
C	 1.211612873	 2.1121278362	-0.0551376944	-0.179842
H	-0.9732761883	 4.2474662219	-2.7297567218	 0.119642
H	-2.2225198084	 2.9470184665	-2.417541367	 0.136169
H	-2.7778201489	 3.9705231876	-0.1881980826	 0.135387
H	-1.5362966322	 5.2873592199	-0.453174078	 0.122369
H	 1.2337846513	 4.0567321781	-1.2464618521	 0.107422
H	 2.1082328163	 3.754697854	 1.1329904655	 0.127403
H	 0.4186268194	 3.3152968262	 1.6752459104	 0.137245
H	 2.1638619635	 1.6804171353	-0.3296675918	 0.121334
106.0616	175.7119	250.731	272.4131	361.8641	458.2551	505.4625	539.7271	635.1783	751.4566	759.3146	779.0969	803.3257	840.7048	898.1034	920.8454	947.2766	964.7736	975.69	998.0723	1017.8174	1052.0307	1068.5596	1077.6604	1078.5731	1098.2152	1174.5437	1187.9789	1196.996	1276.7966	1305.5526	1336.3634	1413.8744	1451.1156	1485.9953	1501.5745	1883.7041	3133.9872	3136.6338	3137.8066	3192.2413	3217.0483	3221.3863	3229.2722	3234.7632
O=C1OC2(CC2)C2CC12	O=C1OC2(CC2)[C@H]2C[C@@H]12	
InChI=1S/C7H8O2/c8-6-4-3-5(4)7(9-6)1-2-7/h4-5H,1-3H2	InChI=1S/C7H8O2/c8-6-4-3-5(4)7(9-6)1-2-7/h4-5H,1-3H2/t4-,5+/m1/s1
