23
gdb 85935	2.5164	1.2361	1.0789	2.4823	80.33	-0.2484	0.0473	0.2957	1261.4548	0.205304	-425.444119	-425.434394	-425.43345	-425.478186	38.326	
C	-0.3189362374	 1.6059292084	 0.0449186832	-0.433005
C	 0.035626546	 0.1123488879	 0.0259501816	 0.327172
C	-1.2639293331	-0.7127438199	 0.0104170915	-0.428102
C	 0.9263567932	-0.2562835173	-1.2174690105	-0.302035
C	 2.216030574	-0.9020156491	-0.6866514026	 0.097408
O	 3.3173014324	 0.0129989518	-0.5879235885	-0.450808
C	 1.8434688926	-1.4000988006	 0.7270346694	 0.130426
O	 2.9700239506	-1.6618633534	 1.528020986	-0.44461
C	 0.9135005261	-0.2855266704	 1.2424619798	-0.280504
H	 0.580355535	 2.2329408274	 0.0359842476	 0.09667
H	-0.9222321954	 1.8806826925	-0.8278499356	 0.113575
H	-0.892691883	 1.8655779053	 0.9415340744	 0.115453
H	-1.8534856506	-0.4991473402	-0.88825364	 0.111518
H	-1.0603537768	-1.7888157957	 0.0239163691	 0.115032
H	-1.8859463295	-0.4808537888	 0.8818227415	 0.113084
H	 0.3977026888	-0.9543232826	-1.8739100971	 0.105657
H	 1.1696013914	 0.618436324	-1.8298414941	 0.101967
H	 2.588715501	-1.7078859308	-1.3236005965	 0.086772
H	 2.9807449477	 0.8602528803	-0.2774922948	 0.285163
H	 1.28236354	-2.3391954536	 0.6404318936	 0.081579
H	 3.6470365394	-1.0448871421	 1.2148530645	 0.27943
H	 1.5337496252	 0.5606608628	 1.5678520411	 0.078201
H	 0.3244845925	-0.5940402157	 2.1102357063	 0.099956
52.1702	137.5073	240.2233	260.3908	274.1959	280.0075	305.6641	313.4371	337.8412	385.7543	417.5961	463.188	510.8382	532.9346	612.2628	665.1278	774.8546	830.6564	857.8864	902.7214	931.9935	952.0558	973.2045	990.6964	1023.5496	1044.1344	1069.5872	1118.1575	1134.1588	1165.631	1207.5067	1213.0566	1251.7279	1272.1855	1287.1829	1305.1798	1321.9329	1340.1253	1378.6028	1401.2155	1423.8551	1426.8712	1448.1979	1482.4175	1485.75	1488.0332	1502.5455	1505.2495	1506.3503	3015.9518	3018.7921	3025.3868	3033.0659	3046.2949	3080.0749	3082.9381	3087.2189	3091.5934	3092.6189	3095.3109	3096.9706	3731.4964	3814.0918
CC1(C)CC(O)C(O)C1	CC1(C)C[C@@H](O)[C@@H](O)C1	
InChI=1S/C7H14O2/c1-7(2)3-5(8)6(9)4-7/h5-6,8-9H,3-4H2,1-2H3	InChI=1S/C7H14O2/c1-7(2)3-5(8)6(9)4-7/h5-6,8-9H,3-4H2,1-2H3/t5-,6+
