18
gdb 77884	2.16581	1.6665	1.30326	1.2222	73.37	-0.2233	-0.0259	0.1974	1064.3975	0.144876	-439.049779	-439.040332	-439.039388	-439.083735	34.252	
C	-0.1404029051	 1.5330839623	 0.0658180285	-0.316902
N	 0.1301846628	 0.0933416122	 0.0755360864	-0.119782
C	 1.3809220837	-0.5044632161	-0.3042136407	-0.121413
C	 2.6060237062	 0.3083321516	 0.1135639027	-0.011381
O	 2.8366368053	 1.5033521243	-0.590471509	-0.423728
C	 2.0215340977	 0.3037199108	 1.5622615842	 0.314121
O	 2.4249254776	 0.7300195871	 2.6078915912	-0.31401
C	 0.8605683156	-0.5802766923	 1.1447995121	 0.199853
C	 0.219446863	-1.6752103508	 1.9421231356	-0.497547
H	 0.6868125527	 2.1676958213	 0.3983095037	 0.129484
H	-0.3994174612	 1.8209709772	-0.9570872476	 0.1313
H	-1.010800314	 1.714396178	 0.7033014568	 0.124073
H	 1.3759702916	-1.2994141467	-1.0422433313	 0.107147
H	 3.5047395056	-0.3321980005	 0.131138931	 0.098636
H	 3.522458659	 1.9928845929	-0.1222908289	 0.296408
H	-0.3645860241	-1.2555293037	 2.7681562402	 0.138885
H	-0.4557617412	-2.2572901976	 1.3102049563	 0.136851
H	 0.9718090846	-2.3429918301	 2.372996709	 0.128005
94.8845	134.3518	158.8343	179.1886	197.8894	227.0627	248.4069	278.1166	352.785	387.7561	515.5512	571.7216	635.8647	698.3491	724.9048	795.4359	836.441	930.8031	957.9616	972.4337	992.2683	1089.0934	1127.901	1135.9001	1162.4612	1178.4837	1190.1103	1261.8887	1281.403	1290.8488	1390.5003	1409.9414	1428.1272	1461.5141	1481.3394	1491.0315	1491.1798	1495.2063	1876.1168	2960.9646	3033.2607	3039.5645	3102.347	3104.411	3114.6962	3126.5018	3173.8833	3803.5915
CN1C2C(O)C(=O)C12C	CN1[C@H]2[C@@H](O)C(=O)[C@@]12C	
InChI=1S/C6H9NO2/c1-6-4(7(6)2)3(8)5(6)9/h3-4,8H,1-2H3	InChI=1S/C6H9NO2/c1-6-4(7(6)2)3(8)5(6)9/h3-4,8H,1-2H3/t3-,4+,6+,7?/m1/s1
