16
gdb 19710	5.52458	1.77538	1.62258	1.7167	63.61	-0.2342	0.0778	0.312	801.6397	0.13236	-383.686082	-383.680011	-383.679067	-383.715942	24.737	
O	-0.0329186853	 1.4487380753	-0.0713528878	-0.437475
C	 0.0227538544	 0.0431873511	 0.0032969373	 0.120927
C	 0.0159080642	-0.6338940741	 1.395460643	-0.14252
C	-1.48500121	-0.2019072034	 1.5697651261	-0.053545
C	-2.1803464804	-1.3487417291	 2.2888209481	-0.108864
O	-1.5598833468	-2.4820349313	 1.6561006655	-0.281804
C	-0.6715798007	-1.8677888503	 0.7428139904	 0.14107
C	-1.3491688438	-0.6402081437	 0.0657348378	-0.109878
H	 0.8556579689	 1.7914726008	 0.0653520127	 0.284174
H	 0.734493592	-0.3665977372	-0.7269371422	 0.063224
H	 0.7945052337	-0.6374661457	 2.1599060707	 0.06922
H	-1.7332945881	 0.8265173998	 1.8170428389	 0.08976
H	-1.9867239867	-1.3684207833	 3.3686592139	 0.101657
H	-3.264776525	-1.3734812926	 2.1241610427	 0.103153
H	-0.1195580871	-2.6171733759	 0.177365269	 0.084933
H	-2.1325426493	-0.6464801603	-0.692297246	 0.075966
224.5064	268.019	300.9745	311.7168	479.1082	524.3508	715.3855	737.3322	742.3762	790.1023	872.6609	930.6787	931.7976	958.3241	965.2575	987.4138	990.2313	1044.2601	1059.0756	1112.3278	1124.8152	1130.0968	1149.8569	1167.0847	1197.9456	1212.0176	1224.5309	1263.9945	1279.403	1314.5009	1322.4511	1383.888	1442.6587	1522.4197	3003.1479	3017.6308	3055.171	3101.3036	3114.7844	3139.3168	3165.6501	3820.9505
OC1C2C3COC2C13	O[C@H]1[C@H]2[C@@H]3CO[C@H]2[C@H]13	
InChI=1S/C6H8O2/c7-5-3-2-1-8-6(3)4(2)5/h2-7H,1H2	InChI=1S/C6H8O2/c7-5-3-2-1-8-6(3)4(2)5/h2-7H,1H2/t2-,3+,4-,5-,6+
