14
gdb 127693	3.27375	1.51948	1.04464	5.0329	71.15	-0.2401	-0.0684	0.1717	1066.3517	0.101569	-466.169736	-466.161773	-466.160828	-466.203555	28.493	
C	-0.0198095481	 1.4535419966	 0.0131056555	-0.327151
N	-0.000465518	 0.0003908297	 0.0696994534	-0.087393
N	-0.0650067314	-0.6586219577	-1.1466091881	-0.053885
N	-0.052217784	-1.9040376319	-1.1676532293	-0.209523
C	 0.0291890656	-2.6838732338	 0.0496572844	 0.400922
N	 0.0409254005	-3.9536265785	-0.0139571044	-0.498862
N	 0.0922305032	-2.0111334778	 1.2649022395	-0.384999
C	 0.0748950683	-0.7315916497	 1.2165245979	 0.532992
O	 0.1311833916	 0.0115523303	 2.32638604	-0.39809
H	 0.8924023153	 1.8706958193	 0.4469611839	 0.155485
H	-0.0849440626	 1.72288719	-1.0411118902	 0.165913
H	-0.8836080864	 1.8511837534	 0.5517311783	 0.155499
H	-0.0135723524	-4.2281758292	-0.9956989838	 0.229735
H	 0.1815726384	-0.6181103208	 3.0625207131	 0.319357
22.8102	117.7597	172.3034	208.3547	307.4648	375.4316	459.6841	512.712	546.9296	566.4019	590.9295	726.8997	731.8643	784.7681	811.9056	900.6641	925.9584	959.3336	1094.1218	1155.829	1215.1896	1258.3897	1288.2819	1325.8051	1439.7633	1482.3919	1503.7848	1509.8629	1585.4514	1707.6879	1726.7231	3054.6649	3122.9849	3163.6596	3485.6819	3741.177
CN1N=NC(=N)N=C1O	CN1N=NC(=N[C@@H]1O)[NH]	
InChI=1S/C3H5N5O/c1-8-3(9)5-2(4)6-7-8/h1H3,(H2,4,5,9)	InChI=1S/C3H6N5O/c1-8-3(9)5-2(4)6-7-8/h3-4,9H,1H3/t3-/m0/s1
