20
gdb 108973	4.01756	1.19488	1.08194	1.7192	84.86	-0.2097	0.0008	0.2105	1202.0518	0.17235	-365.936458	-365.928796	-365.927852	-365.968814	30.504	
C	 0.1888912199	 1.5281609224	-0.1444260311	-0.374169
C	-0.0788842039	 0.033429117	 0.1103125717	-0.31093
C	 0.6402261025	-0.4954222182	 1.3065894621	 0.35807
C	 0.1981058272	-1.0096270811	 2.4594786088	-0.23139
C	 1.4681783885	-1.3719198977	 3.192217262	-0.021018
C	 2.5299915594	-0.2546782128	 2.9437329763	-0.063248
C	 3.5730312712	-1.3713106276	 2.8531436985	-0.18626
N	 2.3984402515	-2.0057594636	 2.1043638028	-0.147489
C	 2.1496579114	-0.5990651305	 1.4706775592	-0.091972
H	 1.2556112785	 1.7212206101	-0.2983234532	 0.119934
H	-0.3445116225	 1.871781505	-1.0358678271	 0.115569
H	-0.140089876	 2.1336025222	 0.7056992707	 0.121613
H	-1.1549829957	-0.1329110609	 0.2316469477	 0.106429
H	 0.2262266141	-0.5363509503	-0.7784561678	 0.112487
H	-0.815301079	-1.178714076	 2.7959021724	 0.10457
H	 1.4308042329	-1.9083032199	 4.1414912699	 0.069324
H	 2.5934268813	 0.736090365	 3.4129133525	 0.059792
H	 4.4532128433	-1.2071540151	 2.2245725495	 0.095657
H	 3.843171605	-1.9025344962	 3.7706252897	 0.096416
H	 2.8131012602	-0.3387665518	 0.6434809054	 0.066615
74.3249	122.131	195.554	277.1935	343.9113	446.9098	469.5541	547.6707	605.3597	719.3002	738.5608	777.5738	790.4074	834.7658	852.6129	867.8689	910.9405	924.9457	957.1662	983.2315	998.2657	1046.4151	1060.4419	1088.7576	1102.4209	1106.9831	1129.2051	1172.2816	1202.1395	1211.9139	1240.0075	1244.0575	1258.1909	1285.2059	1323.2666	1344.6916	1352.2374	1407.5368	1479.501	1498.1557	1506.3286	1527.1159	1689.651	3011.5461	3014.3381	3036.5103	3046.7322	3063.0994	3099.993	3104.3887	3107.6895	3111.8126	3112.2611	3229.8597
CCC1=CC2C3CN2C13	CCC1=C[C@@H]2[C@H]3CN2[C@@H]13	
InChI=1S/C8H11N/c1-2-5-3-7-6-4-9(7)8(5)6/h3,6-8H,2,4H2,1H3	InChI=1S/C8H11N/c1-2-5-3-7-6-4-9(7)8(5)6/h3,6-8H,2,4H2,1H3/t6-,7-,8+/m1/s1
