15
gdb 14144	4.37044	1.67909	1.45626	1.834	62.33	-0.2295	0.0205	0.25	862.1944	0.11955	-399.78861	-399.781586	-399.780642	-399.819928	26.335	
O	-0.117396068	 1.350045009	-0.1893382275	-0.423314
C	-0.0339455485	-0.0391188098	-0.0568260547	 0.046895
C	-0.3877705343	-0.6831151422	 1.2635133181	-0.381898
C	-1.3486435173	-0.746534027	 0.0991014035	 0.316263
C	-2.6779803701	 0.0137273733	 0.0616748301	-0.171059
O	-3.5460397399	-0.8900713844	-0.6698970461	-0.224428
C	-2.7815170055	-1.9687938426	-0.9596168571	 0.10511
N	-1.5685364251	-2.0024784524	-0.5864278469	-0.304924
H	 0.6153874487	 1.7439339084	 0.2954588139	 0.29258
H	 0.7156739646	-0.5292823434	-0.6756745315	 0.102979
H	 0.1206410298	-1.5990752091	 1.5423444498	 0.127222
H	-0.652159566	-0.0208396022	 2.0826347927	 0.114188
H	-3.1196166789	 0.1870650917	 1.0475195193	 0.118397
H	-2.6141559235	 0.9606725084	-0.4791777675	 0.140895
H	-3.2927994662	-2.7481921977	-1.5125998259	 0.141094
89.1567	185.429	226.8518	278.5516	348.0441	438.7507	466.1678	550.3136	596.2596	802.192	838.9128	866.8312	902.0579	931.8548	957.9652	960.8136	1016.419	1036.0808	1087.9759	1090.393	1126.6188	1168.7443	1204.0086	1219.0801	1288.5435	1302.4085	1337.2452	1379.2459	1417.5047	1483.8991	1521.3212	1691.3507	3054.2121	3109.2041	3121.4732	3126.4514	3222.2492	3225.1156	3806.6604
OC1CC11COC=N1	O[C@H]1C[C@]21COC=N2	
InChI=1S/C5H7NO2/c7-4-1-5(4)2-8-3-6-5/h3-4,7H,1-2H2	InChI=1S/C5H7NO2/c7-4-1-5(4)2-8-3-6-5/h3-4,7H,1-2H2/t4-,5+/m0/s1
