21
gdb 111564	3.33702	1.45812	1.28376	0.9848	82.02	-0.2455	0.0912	0.3367	1076.2716	0.184925	-387.045707	-387.038276	-387.037332	-387.077539	30.266	
C	 0.2014809806	 1.2451600787	 0.1462249688	-0.243962
O	-0.1964762861	-0.0703035424	-0.1663041849	-0.258043
C	 0.5455082795	-0.6468375556	-1.2179815662	 0.187919
C	 1.9974541921	-1.0742515427	-0.874951164	-0.097153
C	 1.7642660433	-1.9859262673	 0.3596125637	-0.234194
C	 1.0930975227	-2.9060108676	-0.669880438	-0.020053
C	 2.0689309184	-2.3876874799	-1.7740461417	-0.026324
C	 0.9155704387	-2.3911238735	-2.7905130312	-0.246841
C	 0.0550959544	-2.0692725241	-1.54038099	-0.085281
H	 1.2292907022	 1.2895771777	 0.5357579621	 0.107703
H	 0.138918564	 1.9059411163	-0.733148992	 0.102685
H	-0.480406105	 1.617389541	 0.9147954717	 0.12485
H	 0.5011991982	 0.0148956277	-2.0968852765	 0.056113
H	 2.7821274947	-0.3184327184	-0.8996526264	 0.057849
H	 2.6968944734	-2.4270973369	 0.7236694867	 0.089591
H	 1.1817159029	-1.5839509407	 1.1902850186	 0.105739
H	 0.8767769797	-3.9614020972	-0.5077952102	 0.063252
H	 3.0536767247	-2.81675843	-1.9584175135	 0.064643
H	 0.9051576525	-1.679412476	-3.6227981537	 0.087454
H	 0.7406103581	-3.4017367967	-3.1707629408	 0.096393
H	-1.0197816091	-2.2391659222	-1.5034740225	 0.067661
88.7058	182.7307	199.7726	297.2839	375.6133	420.3656	440.7157	544.9074	678.4594	721.3415	780.7269	828.4469	835.446	851.2363	892.4146	928.1781	943.211	972.3498	993.8076	996.15	1003.4707	1035.2488	1058.7826	1075.4274	1086.2307	1127.7975	1152.8885	1159.5378	1183.4841	1194.3084	1209.3071	1218.5974	1232.5882	1242.3296	1260.4193	1271.8675	1284.1637	1314.6756	1332.9167	1403.0642	1479.5365	1487.5217	1492.0118	1502.5942	1509.5748	2971.4745	2979.2488	3022.6059	3040.1586	3059.039	3096.1312	3108.3162	3112.083	3115.181	3122.1914	3123.3417	3132.8631
COC1C2CC3C2CC13	CO[C@H]1[C@H]2C[C@@H]3[C@H]2C[C@H]13	
InChI=1S/C8H12O/c1-9-8-6-2-4-5(6)3-7(4)8/h4-8H,2-3H2,1H3	InChI=1S/C8H12O/c1-9-8-6-2-4-5(6)3-7(4)8/h4-8H,2-3H2,1H3/t4-,5-,6+,7+/m1/s1
