18
gdb 125874	3.63098	1.11948	1.0961	3.2946	77.26	-0.2464	0.0115	0.258	1187.9105	0.150108	-398.148768	-398.140648	-398.139704	-398.18312	30.013	
C	-0.1419707083	 1.4939586561	-0.1084383662	-0.410652
C	 0.004635158	-0.0042912468	 0.0199233684	 0.02309
C	 1.3342507921	-0.6754479736	-0.1917451206	-0.320853
C	 0.7370480624	-0.6371773552	 1.197646774	-0.121932
C	 1.3150705913	 0.1716736306	 2.2853997582	 0.380244
N	 0.7622763827	 0.3823766954	 3.4721458956	-0.323622
C	 1.6751785021	 1.1669447056	 4.105718594	 0.022476
N	 2.756174298	 1.4615916119	 3.4034514021	-0.218631
N	 2.5058899983	 0.8136615595	 2.2384788538	-0.245116
H	 0.7544924857	 2.0186528384	 0.2358150664	 0.118712
H	-0.3142484214	 1.7786507359	-1.151829441	 0.120745
H	-0.9855082514	 1.8596432052	 0.4858245162	 0.134166
H	-0.8639862241	-0.5689299887	-0.3072753965	 0.097129
H	 1.3777650373	-1.6337684249	-0.6965685363	 0.123178
H	 2.1810452169	-0.0308281143	-0.4091406911	 0.104634
H	 0.3007717633	-1.559805167	 1.5648609379	 0.11802
H	 1.5400037991	 1.531811457	 5.1131576358	 0.123115
H	 3.195899538	 0.820355605	 1.5063151994	 0.275297
15.048	105.1635	172.9609	216.0451	271.086	345.3358	433.6196	492.0676	563.4745	638.6811	696.9907	764.5478	788.678	850.2335	879.792	913.4203	930.4603	982.3663	1009.6688	1045.5566	1076.2028	1086.4616	1108.7426	1132.9666	1147.1127	1194.1335	1209.64	1225.1399	1293.3126	1312.3591	1339.0023	1395.8076	1423.0715	1437.4832	1485.4316	1492.6044	1496.554	1501.5118	1591.6599	3035.0157	3099.3862	3105.2485	3126.5763	3147.0986	3169.5426	3211.8982	3258.6749	3671.9313
CC1CC1C1=NC=NN1	C[C@H]1C[C@H]1c1ncn[nH]1	
InChI=1S/C6H9N3/c1-4-2-5(4)6-7-3-8-9-6/h3-5H,2H2,1H3,(H,7,8,9)	InChI=1S/C6H9N3/c1-4-2-5(4)6-7-3-8-9-6/h3-5H,2H2,1H3,(H,7,8,9)/t4-,5+/m0/s1
