22
gdb 89527	2.35393	1.63169	1.23982	1.4615	82.55	-0.2102	0.0858	0.296	1132.5902	0.19438	-404.340231	-404.331415	-404.330471	-404.37331	34.258	
C	-0.0563515982	 1.5101019393	 0.0533607953	-0.326124
N	 0.0344260632	 0.0700739263	 0.1059043973	-0.079271
C	-1.1841141	-0.7074127881	 0.4068530089	-0.218106
C	-0.3616174358	-1.6074470509	 1.3741455001	 0.413118
C	-0.9576591679	-1.9204990707	 2.7300297332	-0.453605
O	 0.122901546	-2.8144248871	 0.8009778585	-0.3122
C	 1.3110477203	-2.5512869268	 0.0530571392	-0.080654
C	 1.9939022788	-1.3695692908	 0.7589137821	-0.231316
C	 0.7838671913	-0.5602767116	 1.2164358262	-0.040791
H	 0.9396999548	 1.9430196636	-0.0890161169	 0.118673
H	-0.6748884451	 1.8134859738	-0.7982300448	 0.120783
H	-0.4953560412	 1.9579238721	 0.9665673845	 0.086528
H	-1.9595797067	-0.1278652114	 0.9329066206	 0.080403
H	-1.6357182961	-1.2070697495	-0.4573599149	 0.1019
H	-1.7855585028	-2.6295662057	 2.6252017909	 0.127174
H	-0.2053636909	-2.3763639556	 3.3809774036	 0.119405
H	-1.3389813708	-1.0163518784	 3.212638943	 0.111856
H	 1.9062438176	-3.4684688599	 0.0443530196	 0.102464
H	 1.0638764849	-2.2814096934	-0.9823776896	 0.103356
H	 2.5704944986	-1.7117009629	 1.6254876929	 0.099426
H	 2.6551980738	-0.8062968858	 0.0954524952	 0.102656
H	 0.965959956	 0.0957582835	 2.0773833952	 0.054325
83.4948	183.6631	208.5931	219.3821	231.4032	275.9428	311.6394	342.9046	383.6496	458.755	592.308	628.1844	656.4228	758.0112	850.235	887.9285	896.1345	915.6442	943.2207	966.0117	989.5295	1019.3492	1059.0953	1086.4202	1109.2696	1147.7682	1164.436	1174.0948	1177.5251	1223.07	1231.1593	1232.9219	1275.1875	1287.5984	1319.2727	1341.3242	1352.5252	1390.3347	1411.2712	1453.3168	1468.334	1483.3657	1485.9526	1492.9791	1499.9924	1508.4355	1513.7456	2913.4483	2972.3031	3015.0668	3018.2983	3037.3238	3048.2284	3052.5287	3056.9605	3090.8026	3094.5655	3106.5237	3108.1896	3117.0131
CN1CC2(C)OCCC12	CN1C[C@@]2(C)OCC[C@@H]12	
InChI=1S/C7H13NO/c1-7-5-8(2)6(7)3-4-9-7/h6H,3-5H2,1-2H3	InChI=1S/C7H13NO/c1-7-5-8(2)6(7)3-4-9-7/h6H,3-5H2,1-2H3/t6-,7-/m1/s1
