21
gdb 39330	2.73474	1.73958	1.3025	1.6576	80.89	-0.2397	0.0805	0.3202	1036.8491	0.186063	-387.096391	-387.088961	-387.088017	-387.128171	30.091	
C	-0.0473933621	 1.4242265394	 0.060094627	-0.38724
C	 1.3307734045	 0.7950009797	 0.0103034123	-0.063011
C	 2.0858081648	 0.533310889	 1.3057996704	-0.220261
C	 1.0841172	-0.224844415	 2.2170727895	-0.257313
C	 0.0702906011	-0.8930943332	 1.2671475603	-0.066624
C	 0.4569198767	-2.2563023174	 0.6747022506	-0.079057
O	-0.1622486783	-2.3198319788	-0.6086859313	-0.267025
C	-0.3346479645	-0.996438569	-1.1292699415	-0.162629
C	 0.0858967595	-0.0652125241	-0.0140854976	 0.344008
H	-0.402948797	 1.8751186573	 0.9827975146	 0.108034
H	-0.3733113124	 1.9465834951	-0.8342211599	 0.112576
H	 1.9048144067	 0.9459397273	-0.898597428	 0.081493
H	 2.9584288486	-0.0927239883	 1.086901087	 0.103173
H	 2.4635339043	 1.4434485281	 1.7844189928	 0.098501
H	 1.5828410522	-0.9439390776	 2.8744101089	 0.101408
H	 0.5597572692	 0.4791051284	 2.8705661446	 0.104523
H	-0.9274088268	-0.9590718942	 1.7160415159	 0.071605
H	 1.5528803293	-2.3393037381	 0.5829236303	 0.083198
H	 0.0994137032	-3.1095581938	 1.2591214822	 0.102192
H	 0.2707772281	-0.8628198816	-2.0371027308	 0.093736
H	-1.3903637269	-0.873407333	-1.4068967874	 0.098712
102.3726	174.1257	203.8743	295.6773	343.6192	382.0277	509.107	560.9678	660.7138	664.0881	772.7402	810.2345	816.7508	849.9065	897.4295	925.0395	936.7979	958.1644	991.9551	1009.0084	1040.2754	1058.5485	1071.1082	1081.2871	1098.4077	1105.2959	1132.0619	1189.6527	1204.2018	1216.3358	1233.6369	1259.9079	1291.8049	1296.9251	1319.3296	1340.9893	1341.8537	1363.1551	1403.4074	1419.5972	1488.3724	1490.7435	1507.8828	1517.8853	1530.2011	2963.1615	2994.4519	3023.8504	3034.7008	3035.5433	3053.1868	3066.8373	3077.2885	3090.5526	3113.5817	3155.6509	3196.0644
C1C2CCC3COCC123	C1[C@H]2CC[C@@H]3COC[C@]123	
InChI=1S/C8H12O/c1-2-7-4-9-5-8(7)3-6(1)8/h6-7H,1-5H2	InChI=1S/C8H12O/c1-2-7-4-9-5-8(7)3-6(1)8/h6-7H,1-5H2/t6-,7-,8-/m1/s1
