20
gdb 90339	2.40204	1.60018	1.43965	3.8113	78.81	-0.2417	0.02	0.2617	1052.198	0.17145	-403.138729	-403.130346	-403.129402	-403.17117	32.734	
C	-0.2692937738	 1.4653427108	-0.1798293083	-0.401764
C	 0.041285204	-0.0050903016	-0.0300895133	 0.047105
O	 1.3193926557	-0.3512979201	-0.7404017911	-0.293011
C	 1.904385985	-0.4855417318	 0.4857959295	 0.406768
N	 3.0358298098	-0.2165365085	 0.9759756094	-0.317151
C	 2.7252270029	-0.0711091413	 2.4335766303	-0.156931
C	 1.1836009916	 0.2536020482	 2.5252072711	-0.318433
C	 0.6655410726	-0.5443624219	 1.3123237109	 0.18796
C	 0.1428303796	-1.9378696219	 1.6675680181	-0.460962
H	 0.5555491444	 2.0841868464	 0.1837402774	 0.137505
H	-0.4429420932	 1.7125373378	-1.2308750618	 0.137363
H	-1.1723785476	 1.716248084	 0.3864273238	 0.125686
H	-0.7599160826	-0.6373360561	-0.4206947649	 0.093145
H	 2.9843057353	-0.9830096967	 2.9870608205	 0.107599
H	 3.3368632997	 0.7381077937	 2.840648845	 0.114491
H	 0.7346501986	-0.0443265529	 3.4766067259	 0.100263
H	 1.0364525376	 1.3309796337	 2.4016839884	 0.110405
H	-0.8586906701	-1.8705452567	 2.1069932959	 0.120888
H	 0.0837462164	-2.5805014548	 0.7837998488	 0.130242
H	 0.7947507643	-2.4290599902	 2.3961994142	 0.128831
118.7071	201.3367	215.5005	231.459	243.4351	258.1311	329.0493	388.3233	481.9191	527.342	626.1989	679.3093	712.3786	755.6525	796.6659	850.4402	858.6896	900.2845	960.8222	986.7109	1008.1237	1026.576	1042.9818	1106.5336	1135.9041	1148.0374	1203.6183	1212.2243	1231.6281	1257.8409	1295.141	1315.0013	1356.3262	1369.0103	1412.5898	1414.0856	1477.4315	1481.9063	1493.9009	1497.8655	1498.5159	1505.9131	1767.5333	3024.5218	3031.3562	3041.8363	3053.2805	3079.8418	3091.0939	3098.4407	3105.629	3111.3178	3114.3196	3125.1709
CC1OC2=NCCC12C	C[C@H]1O[C]2[N]CC[C@@]12C	
InChI=1S/C7H11NO/c1-5-7(2)3-4-8-6(7)9-5/h5H,3-4H2,1-2H3	InChI=1S/C7H11NO/c1-5-7(2)3-4-8-6(7)9-5/h5H,3-4H2,1-2H3/t5-,7+/m1/s1
