21
gdb 126190	1.86888	1.78713	0.99314	2.5328	86.42	-0.2178	0.0285	0.2463	1261.0619	0.18249	-383.308785	-383.298647	-383.297702	-383.344953	35.514	
C	-0.1415823709	 1.6029938326	 0.0281967214	-0.370793
C	-0.0150784023	 0.067586166	 0.0198362133	-0.301756
C	 0.7681918564	-0.4802349181	 1.1725940977	 0.278488
C	 2.1198687692	-0.7779224864	 1.2858491961	 0.112218
C	 3.1865006527	-0.6339097806	 0.2430093801	-0.512168
C	 2.261786588	-1.2373526882	 2.6121379438	-0.075537
N	 1.11022672	-1.2307818236	 3.276001063	-0.278883
N	 0.2098091289	-0.7619267341	 2.3855949648	-0.012239
C	-1.1805425642	-0.6667415217	 2.7748828559	-0.332226
H	 0.8453771182	 2.0739532931	 0.0029268697	 0.127616
H	-0.7094062349	 1.9510609889	-0.8404245435	 0.11465
H	-0.6525997796	 1.9569734727	 0.929081392	 0.121358
H	-1.0158080098	-0.3804496252	-0.0014194082	 0.10637
H	 0.4756620218	-0.2447972591	-0.9083765072	 0.114973
H	 3.6342082729	 0.3678182625	 0.2378362965	 0.126241
H	 3.9984704468	-1.347417085	 0.4136575775	 0.126853
H	 2.7972919828	-0.8165171487	-0.7644044419	 0.120735
H	 3.1616953127	-1.5773703144	 3.105709293	 0.101706
H	-1.5575447796	 0.3542492151	 2.6595653697	 0.135344
H	-1.8082864818	-1.3425859026	 2.183938075	 0.135549
H	-1.2373186275	-0.9542153433	 3.8240251614	 0.161501
51.7707	55.7913	75.6932	132.2669	172.261	193.6333	265.217	289.4983	295.9434	393.3592	477.5623	581.3307	664.5373	676.844	724.2577	751.3039	803.9927	871.1013	968.0115	994.0947	1001.7292	1046.0277	1061.7169	1081.1679	1147.9648	1149.7455	1207.9307	1222.0899	1292.8556	1336.9445	1353.8963	1390.6284	1407.6563	1419.7352	1426.6286	1453.6309	1479.916	1484.8362	1487.6708	1489.7255	1496.9047	1501.9004	1508.3764	1526.8893	1609.9208	3021.281	3031.2823	3035.4018	3037.7585	3069.038	3072.7789	3090.9469	3101.1198	3107.6347	3115.4596	3164.2253	3232.0624
CCC1=C(C)C=NN1C	CCc1c(C)cnn1C	
InChI=1S/C7H12N2/c1-4-7-6(2)5-8-9(7)3/h5H,4H2,1-3H3	InChI=1S/C7H12N2/c1-4-7-6(2)5-8-9(7)3/h5H,4H2,1-3H3
