16
gdb 132487	3.10491	1.33449	0.93962	4.0149	76.51	-0.209	-0.0194	0.1896	1182.2717	0.124793	-442.104572	-442.096379	-442.095435	-442.137311	30.903	
C	-0.0359790089	 1.5296406043	 0.0221200601	-0.497475
C	 0.0061086241	 0.0269964901	-0.0225176259	 0.138767
C	 0.0188880548	-0.70210837	-1.2035584682	-0.220126
C	 0.0571303832	-2.1041170888	-1.180647412	 0.276237
N	 0.1367303062	-2.8519980337	-2.3589402749	-0.594401
C	 0.0780080599	-2.7152339708	 0.0752768987	-0.067498
N	 0.068564495	-2.0325024639	 1.2242458327	-0.317102
C	 0.0350685689	-0.7278087175	 1.155232696	 0.264067
F	 0.0236406009	-0.0651288585	 2.3198878035	-0.080896
H	 0.8362919678	 1.9332307049	 0.5467854179	 0.143884
H	-0.0565916547	 1.9524096916	-0.9852583436	 0.1207
H	-0.9193912115	 1.8845460195	 0.5631168888	 0.142501
H	 0.0035338512	-0.1785891629	-2.1559955162	 0.093871
H	-0.296850118	-2.4178169932	-3.1613361061	 0.248058
H	-0.1664336811	-3.8109815885	-2.2624324068	 0.249653
H	 0.1061713923	-3.7998882226	 0.1565787859	 0.099758
91.3622	141.5025	208.9456	261.091	269.3211	330.1813	390.7721	468.3864	485.3577	498.6692	584.099	592.1103	648.532	731.3935	770.3453	797.2596	907.0071	914.5013	989.2641	1018.8452	1063.5307	1111.8361	1168.2673	1261.7258	1315.8516	1329.8462	1355.1623	1415.3445	1472.1889	1478.0898	1478.7647	1521.5838	1623.1158	1650.5562	1661.7807	3038.7291	3094.3735	3121.7942	3145.4584	3161.352	3557.105	3652.5544
CC1=CC(N)=CN=C1F	Cc1cc(N)cnc1F	
InChI=1S/C6H7FN2/c1-4-2-5(8)3-9-6(4)7/h2-3H,8H2,1H3	InChI=1S/C6H7FN2/c1-4-2-5(8)3-9-6(4)7/h2-3H,8H2,1H3
