21
gdb 103792	2.80259	0.90407	0.78287	1.137	90.26	-0.2223	0.0585	0.2808	1591.0713	0.178731	-387.047417	-387.036392	-387.035447	-387.085237	38.532	
C	-0.3418294621	 1.286194886	 0.1055942175	-0.245212
O	 0.2816759007	 0.0287898416	-0.0650223372	-0.271383
C	 0.7929732781	-0.5349186749	 1.1051445922	 0.441259
C	 2.0609545944	 0.1074838918	 1.6260439487	-0.455655
C	-0.1946900322	-1.145127014	 2.0633411107	-0.350337
C	 0.6666319832	-2.0473211376	 1.1747076104	-0.291588
C	 0.0730550009	-2.7995404767	 0.1089273415	 0.099794
C	-0.4052582877	-3.4569811074	-0.7799515433	 0.084701
C	-0.9844752879	-4.2396687661	-1.8618029207	-0.498978
H	 0.3703628227	 2.0701277273	 0.3995103326	 0.10754
H	-0.7750589044	 1.554997246	-0.8606026889	 0.128219
H	-1.1424331376	 1.2445217384	 0.8577075448	 0.106759
H	 1.883453029	 1.1367210706	 1.9563147938	 0.118953
H	 2.4556602819	-0.4479992179	 2.4813378845	 0.118851
H	 2.8251381785	 0.1266284475	 0.8425715089	 0.129818
H	 0.0146511907	-1.1277484827	 3.1275571794	 0.111767
H	-1.2430878776	-1.0836573067	 1.7963405411	 0.126138
H	 1.4920803981	-2.5444796717	 1.6782546183	 0.105876
H	-0.4276687741	-5.1701271413	-2.0209837749	 0.144248
H	-2.0250086829	-4.5115824255	-1.6502392213	 0.142625
H	-0.9733661215	-3.6839072766	-2.806343218	 0.146605
15.535	70.1093	90.1985	104.1076	184.1656	205.3181	219.2505	249.6815	292.8165	331.7838	366.4528	398.8344	441.2034	523.5551	619.4723	688.009	725.8086	854.5565	908.5756	936.0607	946.7325	1026.8035	1051.6443	1054.1081	1056.0706	1102.8866	1111.5741	1123.5659	1180.4233	1210.581	1220.6335	1256.8288	1306.6941	1400.6532	1414.171	1418.0188	1471.9774	1474.2041	1478.0056	1479.8163	1480.397	1492.7636	1504.7522	1510.6253	2372.0636	2990.5785	3022.2608	3034.2318	3042.5136	3080.2647	3082.5546	3099.1018	3114.592	3117.797	3131.7892	3135.9222	3230.6681
COC1(C)CC1C#CC	CO[C@@]1(C)C[C@H]1C#CC	
InChI=1S/C8H12O/c1-4-5-7-6-8(7,2)9-3/h7H,6H2,1-3H3	InChI=1S/C8H12O/c1-4-5-7-6-8(7,2)9-3/h7H,6H2,1-3H3/t7-,8+/m1/s1
