19
gdb 94185	2.38891	1.33623	1.22255	5.2692	71.02	-0.2369	0.0232	0.2601	1131.7509	0.160735	-456.365566	-456.356629	-456.355685	-456.399227	34.074	
N	-0.2435048992	 1.5260238465	-0.1023319503	-0.603643
C	-0.0927274403	 0.0746362438	-0.0082708372	 0.149811
C	 0.1680131514	-0.4973651198	 1.4151729768	-0.264675
C	-1.3476181387	-0.7787298071	 1.5720457532	-0.245794
C	-1.4885046277	-0.674410651	 0.0374135242	 0.009423
N	-2.622852515	 0.0802337866	-0.4637498825	-0.522971
H	-1.2307067628	 1.7364988061	-0.2577781903	 0.249028
H	-2.8605783748	-0.1847977694	-1.4137587546	 0.242538
H	-3.4429016411	-0.0822592848	 0.1099287348	 0.240264
C	 0.8532475784	-0.4358408222	-1.1010070473	 0.400603
O	 1.3207098029	 0.5244308461	-1.9026471845	-0.377758
O	 1.1286321601	-1.6035972628	-1.2288446042	-0.366907
H	 0.0637743676	 1.9995271266	 0.739002863	 0.237707
H	 0.9109674909	 1.3473059991	-1.5397902971	 0.304629
H	 0.7557555675	-1.4143503571	 1.3509884736	 0.13932
H	 0.6373488282	 0.1843000737	 2.1295458552	 0.099581
H	-1.650332769	-1.7171748761	 2.0409904193	 0.108735
H	-1.8650011111	 0.0488089162	 2.0677036434	 0.100555
H	-1.3582026074	-1.6554396644	-0.4313686756	 0.099554
63.6255	117.548	175.4832	215.7991	263.6116	307.909	358.7789	377.7592	412.2166	438.9651	521.4573	590.3822	680.0684	713.4937	752.8165	818.9988	837.2153	889.1095	914.0487	935.1686	954.8133	961.2538	984.3109	1070.4304	1099.7162	1150.2239	1188.2571	1221.5329	1237.8859	1261.838	1272.5152	1275.7566	1300.8596	1330.1259	1396.6588	1447.1454	1476.7608	1494.0972	1637.9802	1651.72	1848.2895	3049.1244	3056.4151	3065.2712	3111.6621	3136.6398	3379.3014	3433.1626	3510.119	3575.591	3590.7775
NC1(CCC1[NH3+])C([O-])=O	N[C@]1(CC[C@H]1N)C(=O)O	
InChI=1S/C5H10N2O2/c6-3-1-2-5(3,7)4(8)9/h3H,1-2,6-7H2,(H,8,9)	InChI=1S/C5H10N2O2/c6-3-1-2-5(3,7)4(8)9/h3H,1-2,6-7H2,(H,8,9)/t3-,5+/m1/s1
