19
gdb 83558	2.97164	1.34217	1.15789	1.7692	81.06	-0.2514	0.051	0.3024	1120.8519	0.160138	-385.845506	-385.837467	-385.836523	-385.87762	32.388	
O	 0.1129641775	 1.5678573761	-0.0835429837	-0.449603
C	 0.0376242014	 0.1725160963	-0.010810408	 0.169068
C	 0.2031738452	-0.5844774278	 1.34288062	-0.06428
C	-0.9142979939	 0.0318651026	 2.2036859969	-0.251763
C	-2.0760466116	 0.0396180655	 1.148775493	-0.251763
C	-1.3312014591	-0.5742560711	-0.0503803985	-0.064273
C	-0.5671677465	-1.7614825055	 0.6410552664	-0.187514
C	 0.2142843891	-2.6192724132	-0.2258060853	 0.299579
C	 0.8526904435	-3.3522712308	-0.9346223997	-0.431692
H	-0.4785304351	 1.9526839686	 0.5705750964	 0.283922
H	 0.7225720668	-0.2088585339	-0.7679272684	 0.106063
H	 1.1775017415	-0.7443113142	 1.8027641898	 0.074321
H	-1.1467712515	-0.5767830143	 3.0811757505	 0.10649
H	-0.653675736	 1.0323301043	 2.5645335247	 0.097011
H	-2.9315492849	-0.5648699496	 1.4605349367	 0.10649
H	-2.4529554191	 1.0443371859	 0.9307235827	 0.097011
H	-1.8837926312	-0.7239203133	-0.976986213	 0.074319
H	-1.182486657	-2.366940737	 1.3142506397	 0.095718
H	 1.4175717707	-3.9954125685	-1.5627174102	 0.190895
137.0458	150.4705	243.6115	257.6369	279.7303	367.1741	395.4125	470.8924	494.5818	611.1476	612.1461	637.7275	697.7802	772.1625	836.3624	838.964	881.9301	884.4945	904.9139	970.8843	982.6842	1007.5572	1019.4539	1041.3882	1103.1942	1128.7633	1156.6642	1178.5536	1194.5623	1200.7947	1253.8648	1262.1506	1274.9482	1299.627	1310.2762	1316.5656	1368.0388	1454.6061	1497.5003	1515.3005	2231.8373	3043.2898	3051.0032	3054.3824	3085.2147	3102.8385	3123.2282	3127.2753	3134.3461	3504.9068	3822.6842
OC1C2CCC1C2C#C	O[C@H]1[C@H]2CC[C@@H]1[C@H]2C#C	
InChI=1S/C8H10O/c1-2-5-6-3-4-7(5)8(6)9/h1,5-9H,3-4H2	InChI=1S/C8H10O/c1-2-5-6-3-4-7(5)8(6)9/h1,5-9H,3-4H2/t5-,6-,7+,8-
