17
gdb 61789	3.73801	0.77799	0.74705	4.3658	71.86	-0.2425	-0.019	0.2235	1521.2145	0.131436	-458.924025	-458.913752	-458.912808	-458.960088	36.1	
O	-0.0662598868	 1.5674530573	-0.0513146458	-0.433748
C	 0.0467660232	 0.1602031459	-0.046038367	 0.122704
C	 0.7375495189	-0.3581369045	-1.3242171615	-0.303836
C	 0.0135772544	 0.0751035842	-2.5812102036	 0.14912
O	-0.2588587408	-0.6641829689	-3.4932258813	-0.244518
C	 0.8147549558	-0.3021392093	 1.2144034288	-0.089181
O	 2.061111167	 0.403125163	 1.173388512	-0.438438
C	 0.080643637	-0.0216783221	 2.446292233	 0.303078
C	-0.4889935271	 0.1959634787	 3.4818446592	-0.431439
H	 0.7984828611	 1.9003139604	 0.2252982187	 0.29029
H	-0.9718579904	-0.2377455328	 0.0107347515	 0.109899
H	 1.7532225427	 0.0594734786	-1.3534638736	 0.135397
H	 0.817256941	-1.4495953572	-1.3266672443	 0.116704
H	-0.2542417599	 1.1521485251	-2.6076405913	 0.097001
H	 0.9931379896	-1.3856417762	 1.1428760342	 0.10807
H	 2.4163118106	 0.4375129013	 2.0670344337	 0.300897
H	-1.0079107463	 0.3924775464	 4.3879217671	 0.208
48.6139	80.7569	93.4087	119.6743	185.9635	230.3645	266.3842	283.9596	323.2687	391.3002	452.7432	468.0083	545.5343	573.6787	636.3026	685.1941	731.3598	821.3021	863.0124	913.2747	994.0044	1033.216	1062.0125	1092.5093	1125.2975	1198.3648	1215.7687	1267.3384	1326.1402	1345.0279	1354.1275	1396.9226	1419.2655	1434.7021	1458.3253	1828.324	2236.3299	2919.4986	2991.7744	3027.5841	3064.3148	3098.0815	3500.1105	3757.6934	3833.1125
OC(CC=O)C(O)C#C	O[C@@H](CC=O)[C@@H](O)C#C	
InChI=1S/C6H8O3/c1-2-5(8)6(9)3-4-7/h1,4-6,8-9H,3H2	InChI=1S/C6H8O3/c1-2-5(8)6(9)3-4-7/h1,4-6,8-9H,3H2/t5-,6-/m0/s1
