17
gdb 72314	2.56214	1.73652	1.1051	3.177	78.16	-0.1969	0.0051	0.202	1065.645	0.137363	-414.130995	-414.122692	-414.121748	-414.163389	32.387	
N	-0.27995078	 1.3125512842	-1.1304251382	-0.573851
C	-0.2219527749	 0.0958417581	-0.4904907072	 0.336571
C	 1.1140037337	-0.6541324709	-0.5661110095	-0.257741
N	 0.9009354468	-2.1191651982	-0.5432240429	-0.296482
C	 0.0193175101	-2.3581545894	 0.329662936	 0.329791
N	-1.0850491403	-3.1297880051	 0.5871831931	-0.389531
C	-0.965378627	-1.5893968705	 1.044234944	-0.227679
C	-1.2638862526	-0.3831925713	 0.2460826567	 0.123827
N	-2.483199819	 0.3717354162	 0.3167863219	-0.613732
H	 0.2822111536	 1.408643489	-1.963115232	 0.246664
H	-1.2235360654	 1.6711983016	-1.217669907	 0.256672
H	 1.6172892416	-0.3993379115	-1.5059861073	 0.105476
H	 1.7807196471	-0.3183839761	 0.2420156163	 0.12489
H	-1.6067603099	-3.3346993537	-0.2675054107	 0.244285
H	-1.0496691284	-1.5784443741	 2.1259005408	 0.119334
H	-3.2918951602	-0.240492743	 0.3466860557	 0.235365
H	-2.5239088752	 0.9462393748	 1.1558362202	 0.236142
113.065	168.5253	192.427	276.5791	301.2225	340.565	393.2437	434.1733	449.8751	492.7881	548.9051	578.4492	660.8842	700.9241	731.1629	753.6025	838.2702	875.8828	920.4416	987.6845	999.6844	1025.4952	1091.8252	1156.9382	1184.4809	1218.2681	1233.1405	1240.1705	1248.6859	1310.1868	1328.5918	1383.968	1480.3078	1610.8452	1637.9118	1694.0074	1838.7894	2995.8982	3052.3609	3160.0332	3443.5607	3469.1556	3528.7479	3552.7234	3651.1227
NC12CN=C3NC1C23N	NC1=C([C@@H]2[C]([N]C1)N2)N	
InChI=1S/C5H8N4/c6-4-1-8-3-5(4,7)2(4)9-3/h2H,1,6-7H2,(H,8,9)	InChI=1S/C5H8N4/c6-2-1-8-5-4(9-5)3(2)7/h4H,1,6-7H2,(H,8,9)/t4-/m1/s1
