15
gdb 49193	3.64689	1.3613	1.25458	1.9508	67.95	-0.2586	-0.0745	0.184	998.5128	0.113845	-457.760479	-457.753681	-457.752736	-457.792022	26.035	
O	 0.0084924573	-0.0128805935	 0.1495957733	-0.273102
C	 0.0238883947	 1.1906067097	 0.0028814337	 0.05652
C	 1.2469997601	 1.9778745986	-0.0995449068	 0.257573
C	 1.4014575214	 3.312354533	-0.0729477613	-0.186422
C	 2.9142228596	 3.5097983106	-0.013504474	 0.14423
O	 3.295367041	 3.1620635384	 1.3361677069	-0.273744
C	 3.205869206	 1.728570597	 1.3586817177	-0.086981
C	 2.6676085266	 1.424816422	-0.0722331085	-0.090169
O	 3.3920218801	 2.4419933654	-0.7929602279	-0.231428
H	-0.9168283802	 1.7782955559	-0.0685584795	 0.079603
H	 0.6477400449	 4.0812951882	 0.0321923812	 0.135225
H	 3.3539495504	 4.4648178477	-0.29000933	 0.107114
H	 4.2035039647	 1.3032562061	 1.5022436668	 0.121727
H	 2.5349358079	 1.3961322998	 2.1553253506	 0.122213
H	 2.8434635757	 0.4308489111	-0.4719778423	 0.11764
93.5905	168.5072	230.0555	298.7813	449.3468	496.7091	527.5835	650.7961	711.9553	753.6807	835.7818	848.1566	853.1526	881.1928	903.2272	938.5959	970.1766	1028.0247	1035.4	1053.893	1067.0769	1183.2409	1212.8908	1236.593	1248.5001	1280.5875	1327.0486	1339.1926	1358.6297	1414.8058	1511.7899	1651.8713	1775.0808	2898.2464	3052.1425	3107.2047	3165.4967	3182.2061	3230.8855
O=CC1=CC2OCC1O2	O=CC1=C[C@H]2OC[C@@H]1O2	
InChI=1S/C6H6O3/c7-2-4-1-6-8-3-5(4)9-6/h1-2,5-6H,3H2	InChI=1S/C6H6O3/c7-2-4-1-6-8-3-5(4)9-6/h1-2,5-6H,3H2/t5-,6-/m0/s1
