19
gdb 101280	2.26024	1.19192	0.90327	0.7098	77.53	-0.2633	0.014	0.2774	1338.2614	0.155723	-422.964877	-422.954838	-422.953894	-423.00054	36.538	
C	-0.6779245342	 1.544045285	 0.2176164432	-0.386885
C	-0.9561806343	 0.0532165669	 0.423333628	-0.195601
C	-1.3746333134	-0.6462354077	-0.8736335203	 0.081943
O	-0.3732180046	-0.534088891	-1.8852496265	-0.430119
C	-1.7392784256	-2.1199058022	-0.6967869122	 0.025048
O	-1.4874560823	-2.7680239916	 0.5504237281	-0.237002
C	-2.8553788949	-2.6345072609	 0.1280395913	-0.15634
C	-3.7346594089	-1.7892431336	 0.8909370226	 0.331866
C	-4.5244357107	-1.123700788	 1.5067604689	-0.415492
H	-0.3263432036	 2.0079405158	 1.1438657265	 0.110674
H	 0.0802912816	 1.6982639882	-0.5546333796	 0.1241
H	-1.5837675553	 2.0735346742	-0.0981387277	 0.114899
H	-0.0657505537	-0.4543565165	 0.8175050791	 0.097001
H	-1.737745646	-0.0888131689	 1.1744613718	 0.122408
H	-2.2452590046	-0.1327441948	-1.3014402415	 0.102355
H	 0.4509293516	-0.8748257151	-1.5183906	 0.281005
H	-1.4758520057	-2.7165903487	-1.5721755704	 0.104522
H	-3.3073190509	-3.5756919278	-0.1861414964	 0.119619
H	-5.2115169445	-0.529329033	 2.0573391351	 0.205999
33.1268	79.8467	134.0257	175.7736	208.6101	226.8421	271.0322	314.266	330.3418	389.9064	462.6181	527.5758	585.0896	619.9301	635.4614	674.5468	771.3534	811.6045	836.2315	881.9109	968.1756	989.5137	1022.7488	1063.4139	1089.1203	1118.0733	1146.7698	1151.3852	1250.8455	1273.9109	1311.2736	1333.4218	1370.0324	1386.9002	1408.629	1419.803	1439.5759	1478.7898	1496.4374	1509.002	2236.9365	3023.5536	3036.4954	3040.4415	3094.7151	3095.1289	3104.9245	3108.6019	3122.9561	3501.0456	3791.7811
CCC(O)C1OC1C#C	CC[C@@H](O)[C@H]1O[C@H]1C#C	
InChI=1S/C7H10O2/c1-3-5(8)7-6(4-2)9-7/h2,5-8H,3H2,1H3	InChI=1S/C7H10O2/c1-3-5(8)7-6(4-2)9-7/h2,5-8H,3H2,1H3/t5-,6+,7-/m1/s1
