17
gdb 37673	3.09529	2.4435	2.08108	0.4229	71.75	-0.2114	0.0731	0.2844	753.909	0.141135	-380.816446	-380.811234	-380.81029	-380.845633	23.5	
C	-0.0131048748	 1.5561274464	-0.0685823022	-0.245104
C	 1.4598759115	 1.8997944408	-0.0008236708	-0.041618
C	 2.3936589921	 1.0343000059	-0.7653451745	-0.044132
C	 1.8771218681	-0.1943707892	-1.4723842183	-0.053478
C	 1.6193185809	-1.2525613488	-0.4723679673	-0.038928
C	 1.3309540939	-0.3651753223	 0.7610278205	-0.06639
C	 0.0195127468	 0.0413063435	 0.0245642701	 0.014058
N	 0.472007279	-0.6474996332	-1.2405173622	-0.166739
N	 2.2301955932	 0.8252238097	 0.697381939	-0.127064
H	-0.546917674	 1.9969606645	 0.780439094	 0.109208
H	-0.4937045853	 1.896571012	-0.9917992189	 0.118619
H	 1.7543786542	 2.9167722573	 0.2432968943	 0.090411
H	 3.3536306135	 1.4227603272	-1.0962177667	 0.091372
H	 2.2394046409	-0.4315548343	-2.4658229795	 0.098531
H	 1.8805267368	-2.3023864219	-0.5304469248	 0.097933
H	 1.296514915	-0.7960096377	 1.7595999178	 0.08001
H	-0.9005199217	-0.4314891597	 0.3696402195	 0.08331
316.2561	425.7256	528.901	628.2179	650.3985	704.2753	731.5943	757.3607	765.367	787.13	840.1136	871.7848	872.6175	916.8531	922.2471	940.9698	985.1709	996.0063	1039.7	1047.2612	1054.6027	1057.2112	1093.8816	1107.615	1179.9549	1191.2371	1218.576	1228.2306	1246.8303	1266.0784	1287.0443	1301.768	1332.0317	1363.4883	1375.8856	1417.8025	1475.5496	3043.0098	3088.2349	3105.5583	3133.3562	3134.703	3149.0366	3180.2597	3191.4234
C1C2C3C4C5C(C1N45)N23	C1[C@@H]2[C@@H]3[C@H]4[C@H]5[C@H]([C@@H]1N45)N23	
InChI=1S/C7H8N2/c1-2-4-6-7-5(8(2)4)3(1)9(6)7/h2-7H,1H2	InChI=1S/C7H8N2/c1-2-4-6-7-5(8(2)4)3(1)9(6)7/h2-7H,1H2/t2-,3-,4-,5+,6+,7-,8?,9?/m1/s1
