19
gdb 37866	3.15158	2.16126	1.73779	0.2569	83.07	-0.2286	0.015	0.2436	851.525	0.16361	-348.701467	-348.695714	-348.69477	-348.731016	26.272	
C	-0.0680370398	 1.562248211	 0.0305499321	-0.33562
C	 1.474967618	 1.2577733981	 0.0348369895	-0.095735
C	 1.2268122898	 0.0410250471	 0.9583673515	-0.022974
C	 2.166178057	-1.0999968587	 0.587328478	-0.24181
C	 1.7763350703	-1.2092660042	-0.9299159267	-0.129212
C	 0.4671619855	-2.0129233112	-0.9844526454	-0.071781
C	-0.5541671803	-1.2856527657	-0.4924233984	-0.246334
C	 0.0497363535	 0.0303237955	-0.1310045246	 0.321527
C	 1.2330559981	 0.2248268321	-1.108910369	 0.009961
H	-0.4891555329	 1.9442225629	 0.9652379702	 0.090776
H	-0.4550932726	 2.1173945083	-0.8291574791	 0.09337
H	 2.2819226921	 1.9883873845	 0.1204149008	 0.064194
H	 0.9617591908	 0.2046677848	 2.0036651163	 0.061083
H	 3.2207351496	-0.8318999466	 0.7131818662	 0.096076
H	 1.9752200976	-2.0229849755	 1.141923088	 0.095202
H	 2.5711573735	-1.5647049811	-1.5863895197	 0.056175
H	 0.4262198772	-3.06303204	-1.2517319143	 0.092276
H	-1.5621381092	-1.6305426145	-0.2995311729	 0.099435
H	 0.9974066016	 0.5688916733	-2.1180658928	 0.063391
344.6122	365.8173	401.1485	445.9447	537.8369	627.0781	697.4575	712.9382	734.2995	798.3103	807.3046	845.5227	865.5265	878.2173	901.2868	923.7485	934.4702	963.8942	978.9323	992.4704	1016.5254	1039.7588	1049.3379	1074.8943	1106.6366	1132.3401	1139.0171	1164.923	1188.8442	1194.4666	1205.8698	1218.0518	1252.553	1272.957	1288.7709	1308.6687	1356.4789	1361.5215	1489.9224	1515.5119	1593.4703	3043.4083	3044.4374	3085.0019	3092.9147	3095.3448	3104.0544	3107.3062	3112.0629	3188.2232	3216.4602
C1C2C3CC4C=CC13C24	C1[C@H]2[C@@H]3C[C@H]4C=C[C@@]13[C@@H]24	
InChI=1S/C9H10/c1-2-9-4-6-7(9)3-5(1)8(6)9/h1-2,5-8H,3-4H2	InChI=1S/C9H10/c1-2-9-4-6-7(9)3-5(1)8(6)9/h1-2,5-8H,3-4H2/t5-,6+,7+,8-,9-/m1/s1
