19
gdb 90974	3.86065	1.42598	1.34349	0.597	75.47	-0.2477	0.0792	0.3269	1026.1843	0.160038	-422.951133	-422.943886	-422.942942	-422.982712	29.664	
C	-0.0984962996	 1.5470758516	-0.0230705779	-0.397814
C	 0.0622449968	 0.0468729031	 0.019748173	 0.198207
O	 0.6846434914	-0.4165143049	-1.1966478406	-0.301215
C	 1.3762822055	-1.5793489279	-0.7680335213	 0.097846
C	 2.9157366262	-1.8758117688	-0.7858059519	-0.125907
C	 3.1488111255	-0.4972078464	-0.1336312239	-0.282161
C	 1.8903142334	-1.1123470607	 0.5649416481	 0.413077
C	 2.6707590298	-2.4536129525	 0.6775917789	-0.305206
O	 0.8870417423	-0.3592041746	 1.1630609847	-0.3474
H	 0.8773051093	 2.028514363	-0.1206659319	 0.132546
H	-0.7238263175	 1.8286073223	-0.8747445153	 0.130016
H	-0.5773390523	 1.8944150548	 0.8958951877	 0.130881
H	-0.9050581191	-0.4627289189	 0.1438669586	 0.084859
H	 0.7251458101	-2.4610777859	-0.7954899208	 0.070573
H	 3.5044716383	-2.3560377245	-1.5642101725	 0.088387
H	 4.0471060975	-0.3940349012	 0.4785223728	 0.090548
H	 2.972125683	 0.3741948452	-0.7622492537	 0.109878
H	 2.0806652061	-3.3698322791	 0.7551520749	 0.105072
H	 3.5511453032	-2.4748982248	 1.3221120913	 0.107814
77.9071	214.9617	259.0369	342.9707	397.4782	454.2118	457.3052	534.7791	581.9081	703.6759	741.6993	761.3007	794.1187	826.6959	858.9808	904.0344	933.0465	956.9426	988.3869	1007.4028	1042.6799	1062.3962	1083.3944	1095.373	1114.5252	1127.1054	1150.0191	1160.7327	1175.952	1201.1197	1225.1285	1250.5593	1272.0434	1363.1004	1380.0088	1401.0564	1425.3985	1483.1362	1483.6815	1489.4024	1531.6674	2991.0083	3035.7907	3052.9862	3067.0131	3077.3486	3131.1361	3138.6409	3139.6872	3142.3507	3157.3218
CC1OC2C3CC2(C3)O1	C[C@H]1O[C@H]2[C@H]3C[C@@]2(C3)O1	
InChI=1S/C7H10O2/c1-4-8-6-5-2-7(6,3-5)9-4/h4-6H,2-3H2,1H3	InChI=1S/C7H10O2/c1-4-8-6-5-2-7(6,3-5)9-4/h4-6H,2-3H2,1H3/t4-,5-,6-,7-/m0/s1
