20
gdb 74260	2.53395	1.38316	1.11651	3.488	82.08	-0.2102	0.0066	0.2168	1198.1288	0.169577	-403.215624	-403.205985	-403.205041	-403.249481	36.259	
C	 0.057058967	 1.5435358835	 0.0048154312	-0.497759
C	-0.0431627235	 0.056250859	 0.0084300355	 0.34691
C	-1.1124774677	-0.7460503387	-0.0559921606	-0.261504
C	-0.678936646	-2.1946380799	-0.0177594735	 0.120151
C	-1.1961799514	-2.9510642536	 1.2211103085	-0.412856
C	-1.0311395811	-2.9682658962	-1.3030520503	-0.412849
C	 0.8608529961	-2.0690044306	 0.082036309	 0.407134
O	 1.6716552828	-2.9662331514	 0.1411443712	-0.390719
N	 1.1348283954	-0.7171895225	 0.0907378257	-0.388654
H	 0.6539741507	 1.9011664286	-0.8431868513	 0.135161
H	-0.9362237699	 1.9913486253	-0.0632261549	 0.141114
H	 0.5386969741	 1.9130677973	 0.9184692011	 0.135166
H	-2.1391223678	-0.4153452452	-0.1253140853	 0.095376
H	-2.2807551267	-3.0871599227	 1.1607600516	 0.110586
H	-0.7213906012	-3.9349837823	 1.2807024602	 0.135423
H	-0.9727758004	-2.404664022	 2.1420989187	 0.118355
H	-0.6892376857	-2.4342158507	-2.1944425466	 0.118353
H	-0.5535030939	-3.9524798487	-1.2869600527	 0.135424
H	-2.1144601562	-3.1044928724	-1.3825894861	 0.110586
H	 2.0713766755	-0.3516917467	 0.1493271286	 0.254601
87.2317	149.1843	184.7777	209.2	220.6317	234.9885	278.7338	290.1927	331.9655	372.663	460.5573	537.516	584.3375	617.1206	617.8773	738.4484	741.5289	779.3917	895.4952	955.966	967.7531	992.6247	1013.7778	1027.2266	1066.3496	1148.9556	1158.9531	1180.2908	1250.3748	1267.7975	1336.4301	1388.0603	1407.3005	1412.4833	1422.9697	1476.6221	1480.9515	1485.2794	1492.5862	1498.7678	1508.0326	1715.4317	1828.4409	3023.225	3032.2998	3035.6633	3071.4751	3105.2448	3108.1404	3113.7835	3116.8803	3131.7348	3229.0837	3652.7181
CC1=CC(C)(C)C(=O)N1	CC1=CC(C)(C)C(=O)N1	
InChI=1S/C7H11NO/c1-5-4-7(2,3)6(9)8-5/h4H,1-3H3,(H,8,9)	InChI=1S/C7H11NO/c1-5-4-7(2,3)6(9)8-5/h4H,1-3H3,(H,8,9)
