20
gdb 100705	2.83049	1.00842	0.7843	5.313	71.53	-0.2488	0.0281	0.2769	1431.3376	0.170444	-477.455558	-477.445613	-477.444669	-477.490585	36.614	
C	-0.0478040359	 1.5866169003	-0.0417827	-0.401793
C	-0.0357608488	 0.0536593548	-0.0564546017	-0.148724
C	-1.4337099633	-0.5780585499	 0.1310988057	-0.015618
N	-1.2941371885	-2.0427280223	 0.2751650587	-0.523409
H	-2.2209644439	-2.4492095266	 0.3701010518	 0.249666
H	-0.1833642001	-2.1251275775	-1.0350358164	 0.317418
H	-0.8072545063	-2.2503268263	 1.1457903636	 0.239588
C	-2.2400383611	 0.0151508949	 1.2973324046	-0.087797
O	-3.4614881498	-0.6918028325	 1.4828281145	-0.417502
C	 0.6801805624	-0.4501113294	-1.3390216754	 0.418672
O	 0.4671050078	-1.7242751219	-1.6747939385	-0.381554
O	 1.4080856198	 0.261458682	-1.9833526811	-0.336413
H	 0.9361956653	 1.9572346592	-0.3289627963	 0.152698
H	-0.7678951816	 1.9816149839	-0.7665498292	 0.120256
H	-0.3007851491	 1.9803775083	 0.9459957124	 0.110245
H	 0.5899350694	-0.2943662796	 0.7816980245	 0.099772
H	-2.011525009	-0.4148192897	-0.7908018881	 0.094308
H	-1.6765792559	-0.1013512395	 2.2319260689	 0.11096
H	-2.4204591793	 1.0863117597	 1.1504569168	 0.109029
H	-4.094484962	-0.369432228	 0.833438855	 0.290199
57.933	99.1236	134.9148	185.3772	226.7677	287.3355	295.7922	327.836	340.6074	362.8362	393.5436	425.091	504.9164	540.6824	627.1332	734.0532	829.9874	859.7642	924.1317	935.2632	1006.6818	1034.0266	1050.6608	1073.1188	1100.6971	1107.7001	1136.2804	1197.0421	1218.7986	1255.5679	1312.2523	1339.2518	1350.8576	1400.123	1402.6063	1409.8355	1413.7836	1492.6178	1497.0257	1503.8635	1517.4479	1657.8122	1845.1929	2978.954	3004.3749	3023.8376	3045.3399	3073.0161	3111.2919	3153.0819	3163.5804	3471.0722	3554.4121	3820.8301
CC(C([NH3+])CO)C([O-])=O	C[C@@H]([C@@H](N)CO)C(=O)O	
InChI=1S/C5H11NO3/c1-3(5(8)9)4(6)2-7/h3-4,7H,2,6H2,1H3,(H,8,9)	InChI=1S/C5H11NO3/c1-3(5(8)9)4(6)2-7/h3-4,7H,2,6H2,1H3,(H,8,9)/t3-,4-/m0/s1
