23
gdb 115282	3.42734	1.01011	0.96467	1.0399	81.95	-0.2435	0.0817	0.3252	1397.6015	0.203924	-425.450582	-425.440425	-425.43948	-425.485941	37.755	
C	-0.1106233578	 1.5449121963	 0.063958095	-0.385121
C	-0.0513219486	 0.046964842	-0.2408661032	-0.193595
C	-1.3600531004	-0.6636027648	 0.0798066238	 0.218344
O	-2.4416770837	-0.1863374198	-0.719021882	-0.275542
C	-2.829384982	-1.2351087983	-1.5923048693	-0.121743
C	-2.4209864327	-2.5072386323	-0.8327233998	 0.367745
C	-3.4739819742	-2.9131476223	 0.2061684698	-0.424374
C	-2.0344486923	-3.6698650802	-1.7375144187	-0.43457
O	-1.2274878408	-2.0466513262	-0.1766329933	-0.305978
H	 0.8347583158	 2.0344549105	-0.1865806548	 0.112468
H	-0.9080344601	 2.0237199447	-0.5110841542	 0.132782
H	-0.3080230818	 1.7272011286	 1.126392296	 0.113702
H	 0.1759076262	-0.1268654124	-1.2988609779	 0.09832
H	 0.7418805537	-0.4367213414	 0.3411781849	 0.10431
H	-1.641858626	-0.4898162085	 1.1322956779	 0.06969
H	-3.9056133543	-1.1563086181	-1.7704258303	 0.107652
H	-2.3022829955	-1.1698862206	-2.5557611241	 0.088827
H	-4.3644241534	-3.3241716803	-0.2807864647	 0.112014
H	-3.0653792515	-3.6736120274	 0.877524386	 0.122221
H	-3.7818012225	-2.0509915661	 0.8048079835	 0.127951
H	-1.2353063705	-3.3725289466	-2.421585676	 0.121999
H	-1.6803350921	-4.516383572	-1.1422815496	 0.126429
H	-2.8949920356	-4.0047632349	-2.3254506688	 0.116469
35.6402	105.5772	129.9558	202.7923	212.9188	234.7275	249.6019	302.0577	309.7576	360.948	441.8399	460.0007	480.139	616.7795	726.8069	782.8845	810.056	872.0407	896.4221	927.1643	945.5274	957.3765	993.4731	1034.1267	1050.682	1051.7355	1106.1776	1155.4038	1156.9428	1193.5004	1217.5607	1271.5593	1279.301	1282.2205	1323.0031	1358.862	1391.2514	1401.1382	1409.0193	1418.5579	1426.9929	1477.1781	1478.4386	1484.8937	1497.7936	1498.5591	1506.2786	1510.2704	1521.4614	2955.2465	2991.4495	3036.5925	3037.309	3037.7912	3043.4441	3076.4219	3086.4272	3103.9144	3108.2912	3114.2638	3119.9696	3120.6881	3122.8995
CCC1OCC(C)(C)O1	CC[C@H]1OCC(C)(C)O1	
InChI=1S/C7H14O2/c1-4-6-8-5-7(2,3)9-6/h6H,4-5H2,1-3H3	InChI=1S/C7H14O2/c1-4-6-8-5-7(2,3)9-6/h6H,4-5H2,1-3H3/t6-/m0/s1
