14
gdb 56134	4.26714	0.85849	0.84559	5.567	60.19	-0.2656	-0.0837	0.1819	1354.2753	0.098053	-511.012758	-511.003361	-511.002417	-511.0488	31.618	
N	-0.0878388039	 1.058533624	 0.295850497	-0.524112
C	-0.1623688668	-0.2793363646	 0.042052848	 0.404644
O	 0.7116257604	-1.0706994578	 0.3127769682	-0.337324
C	-1.4525359325	-0.6962755221	-0.6872496623	-0.193604
O	-1.5113297324	-2.1099601544	-0.8100671132	-0.215506
C	-1.8394274688	-2.7718811546	 0.3188196563	 0.369619
O	-2.1804028243	-2.2679725773	 1.351358483	-0.334103
C	-1.7327809103	-4.2804295017	 0.0571543046	 0.086771
O	-2.0506727206	-5.0875030555	 0.8826194311	-0.201079
H	 0.6886208018	 1.3789057473	 0.8529748403	 0.271597
H	-0.9024904591	 1.6476513434	 0.2526631251	 0.264138
H	-2.330892868	-0.3243380053	-0.1505885769	 0.144724
H	-1.4498597501	-0.3035130715	-1.706640233	 0.149875
H	-1.3411616854	-4.5462721799	-0.9442681482	 0.114358
31.8744	54.3297	82.6829	118.0736	218.0798	297.9417	307.4725	324.1796	377.7162	472.0605	511.8689	586.3654	622.073	675.2134	739.1407	825.7948	903.1726	1016.6894	1036.2849	1068.4195	1099.802	1208.5983	1295.3067	1312.6968	1400.1515	1410.264	1463.2966	1624.4342	1821.9756	1843.6898	1849.8824	2947.8605	3059.4847	3121.999	3591.6841	3719.7797
NC(=O)COC(=O)C=O	NC(=O)COC(=O)C=O	
InChI=1S/C4H5NO4/c5-3(7)2-9-4(8)1-6/h1H,2H2,(H2,5,7)	InChI=1S/C4H5NO4/c5-3(7)2-9-4(8)1-6/h1H,2H2,(H2,5,7)
