18
gdb 33467	2.49718	1.45837	1.16176	1.851	76.11	-0.2316	0.0084	0.24	1114.3556	0.149224	-398.08604	-398.0776	-398.076656	-398.119585	31.213	
N	-0.4200760267	-1.0966698287	 0.1786622129	-0.349841
C	-0.2760136819	 0.050895723	 0.1364047006	 0.243789
C	-0.09708455	 1.4852350572	 0.0563045668	 0.147667
C	 0.6297411293	 2.1226124592	 1.2025958103	-0.267504
N	 1.2849819047	 1.991515206	-0.0987641366	-0.334954
C	-1.1655202025	 2.2587952538	-0.7021610537	 0.000578
C	-1.5490469119	 1.7020990097	-2.1015779721	-0.260369
C	-2.8772041617	 1.2322976667	-1.4545407526	-0.154206
N	-2.5590996476	 2.0485284895	-0.2538842614	-0.322404
H	 0.3561986882	 3.1369889765	 1.4788438213	 0.140866
H	 0.9469957369	 1.485950784	 2.0229644111	 0.139407
H	 1.9482046738	 1.2204754131	-0.0898520003	 0.254042
H	-0.8505625956	 3.3085261171	-0.681614435	 0.086215
H	-1.6715869189	 2.4854886088	-2.8503499537	 0.117282
H	-0.9003607923	 0.9227685314	-2.5040893635	 0.118032
H	-3.8019608949	 1.5363955553	-1.9550900569	 0.102859
H	-2.9113257937	 0.151476914	-1.2777420078	 0.118171
H	-2.6707847252	 1.5844572734	 0.6411674706	 0.22037
58.65	119.42	154.0435	177.4449	245.8135	278.3156	350.4723	447.4748	578.4077	605.3926	639.256	683.3457	776.286	853.9873	871.907	904.8017	923.7512	953.324	977.3764	1004.567	1023.008	1060.1875	1093.7847	1105.308	1142.7198	1162.1926	1213.9258	1246.5866	1253.3864	1267.5237	1287.643	1321.9786	1342.6473	1372.2582	1413.0694	1484.9312	1504.5568	1527.3199	2342.4879	3031.2752	3035.5622	3074.044	3086.1583	3116.3719	3140.5068	3209.4062	3510.7656	3528.2716
N#CC1(CN1)C1CCN1	N#C[C@]1(CN1)[C@H]1CCN1	
InChI=1S/C6H9N3/c7-3-6(4-9-6)5-1-2-8-5/h5,8-9H,1-2,4H2	InChI=1S/C6H9N3/c7-3-6(4-9-6)5-1-2-8-5/h5,8-9H,1-2,4H2/t5-,6+/m1/s1
