18
gdb 57855	2.33117	1.2169	0.93854	3.4762	72.87	-0.2808	-0.0552	0.2256	1289.0955	0.14458	-439.118356	-439.10811	-439.107166	-439.154229	35.981	
C	-0.4594641051	 1.6466343392	 0.182040011	-0.406215
C	 0.0558121751	 0.1988060199	 0.1641123599	 0.054184
O	 0.7371922459	-0.0903960517	 1.3526869939	-0.433969
C	-1.0564400646	-0.8197452269	-0.0600301958	 0.367042
O	-1.2544572029	-1.6979637038	 0.7450649713	-0.313351
C	-1.8891489941	-0.731754581	-1.3635491842	-0.229474
C	-2.2757685119	-2.134786468	-1.8684988463	-0.393186
C	-3.0763098606	 0.0888424401	-1.109625008	 0.284328
N	-4.0148783288	 0.7319945471	-0.9058204419	-0.316407
H	 0.385645208	 2.3080154538	 0.3860229487	 0.142139
H	-0.9054319943	 1.9405913528	-0.7720077105	 0.126122
H	-1.201438286	 1.7790841714	 0.9735101892	 0.14543
H	 0.7398012752	 0.0864160451	-0.6987312046	 0.095457
H	 0.3106402253	-0.8782278652	 1.723331537	 0.296871
H	-1.2908781039	-0.2092938464	-2.1192234704	 0.139732
H	-2.9045115266	-2.0589263958	-2.7577304082	 0.141578
H	-1.3734702592	-2.697632571	-2.1201966718	 0.1349
H	-2.8149393414	-2.6760307595	-1.0902540195	 0.164822
41.5046	62.8644	133.4721	184.9777	211.8021	212.7776	237.1938	279.0584	327.92	365.292	389.1704	437.9269	461.9549	562.6943	678.1865	693.0696	811.5279	856.2827	926.8112	995.9527	1026.2959	1054.3381	1090.7821	1120.638	1123.3762	1189.4436	1275.6981	1308.3031	1321.4418	1350.2886	1405.7563	1410.4124	1424.176	1484.5853	1491.02	1495.682	1499.0012	1807.6945	2355.2672	2927.4876	3048.8757	3052.2077	3061.9809	3129.6801	3136.1417	3138.3564	3158.7714	3705.0802
CC(O)C(=O)C(C)C#N	C[C@@H](O)C(=O)[C@@H](C)C#N	
InChI=1S/C6H9NO2/c1-4(3-7)6(9)5(2)8/h4-5,8H,1-2H3	InChI=1S/C6H9NO2/c1-4(3-7)6(9)5(2)8/h4-5,8H,1-2H3/t4-,5+/m0/s1
