18
gdb 101050	2.26038	1.18104	1.04287	2.6823	72.28	-0.2787	0.0004	0.2791	1244.6302	0.14518	-439.06855	-439.058694	-439.05775	-439.10358	34.973	
C	-0.0700739094	 1.6458097856	 0.3966117882	-0.41697
C	-0.0507417591	 0.1482176937	 0.0660873686	-0.06035
C	 0.8304839936	-0.6450767025	 1.0375019398	-0.092121
O	 2.1536999023	-0.1515774838	 0.9058394811	-0.422094
C	-1.4527585715	-0.4417265029	 0.0250971328	 0.253407
C	-2.212928068	-0.5330691435	-1.2385299728	-0.213845
O	-1.602364677	-1.687068559	-0.6687351934	-0.2615
C	-2.2181881029	-0.3604015804	 1.2621449902	 0.272198
N	-2.8034993928	-0.2760511786	 2.2553332608	-0.339952
H	 0.9533472481	 2.0221495229	 0.4359596671	 0.147627
H	-0.6242083144	 2.2129172095	-0.3574904448	 0.115167
H	-0.5379392857	 1.8282687974	 1.3699251682	 0.137137
H	 0.3676587667	 0.0026177926	-0.9364882636	 0.101412
H	 0.4544245193	-0.519570968	 2.0651567356	 0.106713
H	 0.7738323555	-1.7143920517	 0.785960989	 0.108465
H	 2.7108644005	-0.6077314131	 1.5427523071	 0.292652
H	-3.3003587028	-0.517839739	-1.2158969195	 0.140388
H	-1.7475130327	-0.1519101392	-2.1458554545	 0.131667
59.4744	100.4416	138.9942	166.3709	218.6772	236.9821	243.5104	267.4197	292.8652	393.5677	437.1727	472.7443	584.4534	612.81	711.7263	857.0526	868.2829	919.5129	935.78	965.8507	1020.3378	1085.1629	1112.6668	1137.2087	1164.0444	1174.6975	1231.5727	1264.6932	1273.4654	1303.4169	1354.6143	1390.9128	1407.0844	1462.2693	1494.2142	1505.9227	1521.1343	1525.1607	2355.2655	2977.3917	3015.2551	3042.1386	3051.7494	3093.929	3107.7392	3142.7249	3190.377	3837.8339
CC(CO)C1(CO1)C#N	C[C@@H](CO)[C@]1(CO1)C#N	
InChI=1S/C6H9NO2/c1-5(2-8)6(3-7)4-9-6/h5,8H,2,4H2,1H3	InChI=1S/C6H9NO2/c1-5(2-8)6(3-7)4-9-6/h5,8H,2,4H2,1H3/t5-,6+/m0/s1
