16
gdb 82733	2.79589	1.90285	1.42476	2.4305	67.87	-0.2469	-0.0386	0.2083	907.2266	0.125792	-437.855577	-437.848727	-437.847783	-437.886728	27.383	
O	 0.0111442411	 1.4528305088	 0.0697301999	-0.441305
C	-0.0086868402	 0.0536974923	 0.0303820313	 0.058238
C	-1.4035611737	-0.5703817212	-0.0632448141	-0.102695
C	-2.0215841576	-0.2580077357	-1.4436931956	-0.162566
N	-1.5168924281	-1.5611000082	-2.0134089672	-0.137746
C	-1.1431744067	-1.9904269631	-0.6370834956	-0.060322
C	-0.0641477091	-1.72833444	-1.6320807311	-0.142991
C	 0.67877309	-0.5006861083	-1.2222093689	 0.368897
O	 1.6272861892	 0.0267314834	-1.7536624413	-0.344383
H	 0.7895574635	 1.7207685575	-0.4408366815	 0.295211
H	 0.5139054463	-0.3847012881	 0.9017436873	 0.096847
H	-2.0214421668	-0.4550527611	 0.8249591219	 0.091962
H	-3.1120625712	-0.301309375	-1.4535897209	 0.122818
H	-1.6818332727	 0.6475414522	-1.9543334417	 0.125511
H	-1.3912461339	-2.9610491022	-0.2249486875	 0.110083
H	 0.4232724699	-2.5121959012	-2.1981414949	 0.122441
113.3647	210.4772	256.8593	361.7535	418.8431	464.8569	530.9969	570.2154	639.2372	682.5	754.446	776.3867	820.0977	884.3104	903.2514	931.1448	946.3972	995.8429	1032.1018	1056.336	1080.1732	1140.3684	1152.2395	1170.6664	1195.6898	1208.6227	1217.6858	1268.4177	1301.4899	1317.1104	1334.6395	1360.3154	1413.3292	1507.8117	1827.6836	2929.4883	3063.9322	3124.4261	3136.7864	3187.7668	3202.4557	3725.8386
OC1C2CN3C2C3C1=O	O[C@H]1[C@H]2CN3[C@H]2[C@@H]3C1=O	
InChI=1S/C6H7NO2/c8-5-2-1-7-3(2)4(7)6(5)9/h2-5,8H,1H2	InChI=1S/C6H7NO2/c8-5-2-1-7-3(2)4(7)6(5)9/h2-5,8H,1H2/t2-,3+,4+,5-,7?/m0/s1
