14
gdb 26741	3.49929	1.29219	0.94844	3.0944	66.84	-0.2172	-0.0446	0.1726	1142.049	0.102045	-470.048927	-470.040835	-470.03989	-470.0816	29.435	
N	-0.1633489666	 1.4276124022	-0.0490865302	-0.614706
C	-0.047968941	 0.0194630183	-0.0106725307	 0.094441
C	-1.1154808507	-0.8193518633	-0.0838866257	 0.380151
O	-2.4355364918	-0.5932840143	-0.2001266339	-0.437812
N	-0.6178599589	-2.1136918557	-0.0154323368	-0.124762
C	-1.3432905211	-3.3062286172	-0.0524843988	 0.176464
O	-0.8320097984	-4.3918364113	 0.0128422579	-0.28566
C	 0.7687026721	-1.9718182177	 0.0988291749	 0.006909
N	 1.1272513074	-0.7245859234	 0.1038334565	-0.297805
H	 0.3587354953	 1.816777003	-0.8296766176	 0.24857
H	 0.2209823147	 1.8497512221	 0.7920049977	 0.248567
H	-2.5317137438	 0.3701690222	-0.2280654938	 0.315192
H	-2.4261552399	-3.1269771028	-0.1476557144	 0.127572
H	 1.4011057024	-2.8414894021	 0.1699672249	 0.162878
102.1147	184.7928	188.4984	220.0965	250.6394	298.0175	326.4347	412.8124	477.1792	553.0677	664.3343	688.0964	697.8273	772.8014	810.6089	838.4275	878.8606	1036.5158	1043.9934	1162.838	1220.9576	1238.4266	1246.2445	1315.5978	1399.9728	1436.2464	1510.5651	1546.8803	1648.599	1713.4734	1827.7247	3020.435	3281.5776	3483.8576	3544.0694	3749.8168
NC1=C(O)N(C=O)C=N1	Nc1c(O)n(C=O)cn1	
InChI=1S/C4H5N3O2/c5-3-4(9)7(2-8)1-6-3/h1-2,9H,5H2	InChI=1S/C4H5N3O2/c5-3-4(9)7(2-8)1-6-3/h1-2,9H,5H2
