19
gdb 61937	2.13692	0.97998	0.71486	1.5908	83.73	-0.2528	0.0331	0.2859	1584.4049	0.154192	-385.809975	-385.799261	-385.798317	-385.846902	38.074	
C	-0.0223612865	 1.5166999905	-0.0148055311	-0.40474
C	-0.0159639799	-0.0132725715	 0.0006971411	 0.152893
C	 0.6689184178	-0.563419822	 1.2644027713	-0.363942
C	 0.8693484574	-2.0060748808	 1.2266522692	 0.30696
C	 1.0506477432	-3.1928571923	 1.1774328065	-0.441068
O	-1.3385761122	-0.5369409577	 0.0042411741	-0.253781
C	-1.9169510453	-0.66039148	-1.2813088858	-0.212914
C	-3.2681436994	-1.193430577	-1.1643320101	 0.28475
C	-4.3851881704	-1.6287944104	-1.0991528886	-0.418643
H	 0.9988924653	 1.9101103853	-0.0393401524	 0.11797
H	-0.5469927929	 1.9013175277	-0.8939474011	 0.120347
H	-0.525357835	 1.9033450555	 0.8769974078	 0.129028
H	 0.5257864879	-0.390918088	-0.8803981009	 0.079397
H	 1.6336006691	-0.0578802064	 1.3941577565	 0.126726
H	 0.049577153	-0.2916018622	 2.1282394117	 0.140854
H	 1.2006252	-4.2432748163	 1.1436434144	 0.193848
H	-1.9572921833	 0.3121288704	-1.798518876	 0.117482
H	-1.3076255542	-1.33002053	-1.9110164307	 0.124671
H	-5.3713680545	-2.0170410047	-1.0332532759	 0.20016
33.5976	58.6587	94.5753	127.3262	158.3169	220.2884	277.5195	312.0298	329.5634	343.506	393.3841	452.3715	539.0926	552.5042	607.6682	614.1191	642.1577	674.8712	851.1968	887.157	917.2541	974.4094	986.348	1030.8704	1075.4	1112.563	1119.5734	1152.4327	1253.6855	1255.8667	1310.3226	1365.5597	1377.5865	1406.0308	1432.6204	1457.1128	1489.8292	1493.0773	1503.4045	2242.5206	2248.5951	2961.7962	2982.3256	2985.9985	3028.0573	3040.132	3066.2937	3111.5878	3116.4768	3506.8139	3508.0396
CC(CC#C)OCC#C	C[C@@H](CC#C)OCC#C	
InChI=1S/C8H10O/c1-4-6-8(3)9-7-5-2/h1-2,8H,6-7H2,3H3	InChI=1S/C8H10O/c1-4-6-8(3)9-7-5-2/h1-2,8H,6-7H2,3H3/t8-/m0/s1
