21
gdb 89152	2.1891	1.57367	1.24148	2.2619	78.25	-0.2349	0.0669	0.3018	1138.5089	0.180633	-424.200485	-424.191038	-424.190093	-424.234458	35.763	
C	 0.3702101484	 1.6024179334	 0.0290090096	-0.40719
C	 0.0902663554	 0.1080052704	 0.0285722996	 0.030005
C	 0.8740609396	-0.804545292	-0.9763995143	-0.334762
C	 1.294687467	-1.7376494043	 0.1980558622	 0.320607
O	 0.9136971393	-3.0793523196	 0.1383535101	-0.482313
C	 2.6225444757	-1.3854133346	 0.9092433638	 0.118331
C	 3.8682474367	-0.9427981825	 0.1736729083	-0.422382
O	 1.9602797927	-0.3081429726	 1.6299600539	-0.317919
C	 0.6503847994	-0.7387387642	 1.1966889148	 0.063404
H	 1.4288833932	 1.7928571542	 0.2237992704	 0.130249
H	 0.1059447147	 2.0515791708	-0.9343242669	 0.109211
H	-0.208973638	 2.1124484606	 0.8065605049	 0.115273
H	-0.985161846	-0.0790500532	-0.0651613471	 0.076131
H	 0.2354811365	-1.3102525755	-1.705217038	 0.099655
H	 1.6934794229	-0.316260139	-1.5096540461	 0.100082
H	 1.159518001	-3.4274859731	-0.7251994099	 0.281299
H	 2.8671461168	-2.2012803728	 1.6063508328	 0.077648
H	 3.6607917204	-0.1347452476	-0.5330276061	 0.122414
H	 4.6163977796	-0.5815107523	 0.8865039896	 0.13112
H	 4.306449763	-1.7852948546	-0.3731616866	 0.114674
H	-0.0005103284	-1.0148174315	 2.030515725	 0.074462
64.3418	139.8839	184.3878	208.0125	211.5211	244.6416	263.8225	313.2348	374.1542	408.2162	510.268	537.2143	606.55	646.7672	767.6732	847.8718	861.2819	882.0714	896.2689	951.2215	968.9526	974.2379	1042.4791	1084.0723	1093.772	1118.1617	1137.1646	1181.0721	1191.0688	1195.1161	1225.1558	1254.3729	1280.8863	1301.8202	1333.2088	1353.7828	1378.0486	1398.3362	1403.9494	1416.4357	1471.374	1480.9723	1490.3578	1501.7811	1502.0287	2988.5945	3032.3903	3035.2477	3042.6434	3060.0089	3076.0604	3094.5753	3102.4606	3112.3977	3117.4385	3120.8182	3808.1453
CC1CC2(O)C(C)OC12	C[C@H]1C[C@@]2(O)[C@@H](C)O[C@@H]12	
InChI=1S/C7H12O2/c1-4-3-7(8)5(2)9-6(4)7/h4-6,8H,3H2,1-2H3	InChI=1S/C7H12O2/c1-4-3-7(8)5(2)9-6(4)7/h4-6,8H,3H2,1-2H3/t4-,5+,6-,7+/m0/s1
