18
gdb 69136	2.61195	1.65495	1.30969	3.697	75.83	-0.2257	-0.0223	0.2033	1025.3229	0.148634	-401.934997	-401.927399	-401.926454	-401.966744	30.414	
C	-0.0496701064	 1.503158897	-0.0192809431	-0.492023
C	-0.0236226658	-0.0050036611	 0.0142951935	 0.350327
C	-0.8406429669	-0.7917678815	 0.9909582938	-0.329769
C	 0.682742668	-0.7947194765	 1.1102086675	-0.207029
C	 1.5014586917	-1.8743550171	 0.4547008331	 0.442818
O	 2.3758197968	-2.5189335811	 0.9803166938	-0.330806
C	 1.2044652862	-1.8726592328	-1.0359567751	-0.162499
N	-0.2272566162	-2.1067037601	-1.3764045652	-0.338721
C	 0.2905360517	-0.7318216962	-1.3010205762	-0.109
H	 0.8802203072	 1.911171339	-0.4319396043	 0.122078
H	-0.8789600606	 1.8704339776	-0.6354414259	 0.123371
H	-0.1761589231	 1.914233393	 0.9865510314	 0.12335
H	-1.3523807834	-0.2363709127	 1.7702641305	 0.113165
H	-1.3401045473	-1.6881340455	 0.6498168856	 0.151347
H	 1.1224481282	-0.3275987242	 1.9839703045	 0.104172
H	 1.9776333771	-2.2196918656	-1.7118636568	 0.106513
H	-0.2741084273	-2.403090213	-2.3489918646	 0.240227
H	 0.3602440602	-0.1403160192	-2.2078084724	 0.092477
122.2366	200.4933	215.7795	282.1448	316.9369	378.8095	445.0999	506.4674	566.2118	573.7375	695.0326	750.3089	778.459	832.213	849.8118	872.0677	916.8206	927.159	953.2775	969.6265	1018.1778	1054.2504	1076.7545	1086.7729	1118.2272	1131.253	1147.2195	1188.3335	1237.5734	1251.4541	1298.0863	1347.2915	1377.4548	1411.0191	1422.0057	1480.7571	1488.7965	1500.7983	1828.3223	3023.7948	3082.4837	3105.9667	3141.5632	3167.0157	3181.4067	3185.1505	3245.8322	3492.2347
CC12CC1C(=O)C1NC21	C[C@]12C[C@H]1C(=O)[C@H]1N[C@@H]21	
InChI=1S/C7H9NO/c1-7-2-3(7)5(9)4-6(7)8-4/h3-4,6,8H,2H2,1H3	InChI=1S/C7H9NO/c1-7-2-3(7)5(9)4-6(7)8-4/h3-4,6,8H,2H2,1H3/t3-,4+,6+,7-/m0/s1
