20
gdb 109620	2.68174	1.04909	0.979	1.1062	83.4	-0.226	0.0399	0.2659	1330.1679	0.167082	-403.071683	-403.061005	-403.060061	-403.107208	38.685	
C	-0.5523267878	 0.6364974049	-2.0901277878	-0.314706
N	-0.1216653381	-0.3281742345	-1.0869075333	-0.113785
C	 1.2817902838	-0.452030306	-0.7244292969	-0.067332
C	 2.3854327718	 0.3691194724	-1.3564328804	-0.092361
O	 2.6364481019	-0.0299332625	-2.6987225592	-0.413928
C	 0.2820574858	 0.1067031083	 0.2649602333	 0.05447
C	 0.2963604097	 1.5722866556	 0.6819009079	-0.465522
C	-0.1743121613	-0.7671765696	 1.32530517	 0.305135
C	-0.5371496533	-1.466550442	 2.2336530632	-0.425084
H	-0.0599930276	 1.6173754808	-2.0588725713	 0.102314
H	-0.3636301445	 0.2044872963	-3.0765159373	 0.138665
H	-1.6295135362	 0.7940383955	-1.9804065593	 0.125297
H	 1.5806149813	-1.4900884698	-0.561107337	 0.087847
H	 2.1360653344	 1.4297436557	-1.4130487703	 0.110156
H	 3.2914761882	 0.2818814127	-0.7361612372	 0.097917
H	 2.8501044454	-0.9690733208	-2.6924105577	 0.285273
H	 0.6513750774	 2.2389778672	-0.1040064017	 0.122474
H	-0.7122790785	 1.8874598221	 0.965960803	 0.135559
H	 0.9417483852	 1.701787996	 1.5554204176	 0.135711
H	-0.8652871676	-2.0963042026	 3.0230031744	 0.191901
73.5792	103.1445	125.6138	139.4805	158.0384	199.0717	251.9133	288.5239	311.8071	331.1716	398.756	421.8303	508.9401	544.2849	606.7563	620.0372	643.0333	689.6641	759.9898	822.6526	938.9753	1008.2766	1033.883	1078.3115	1085.1043	1114.3391	1143.0559	1157.3181	1172.7281	1214.2989	1254.6223	1345.9973	1369.8473	1400.96	1414.6016	1435.0024	1454.5932	1479.8232	1488.6738	1498.4521	1505.1991	1515.38	2235.1841	2982.8998	3008.6644	3051.3981	3072.1495	3078.9344	3111.2605	3114.142	3116.8211	3149.6578	3503.1035	3808.5839
CN1C(CO)C1(C)C#C	CN1[C@@H](CO)[C@]1(C)C#C	
InChI=1S/C7H11NO/c1-4-7(2)6(5-9)8(7)3/h1,6,9H,5H2,2-3H3	InChI=1S/C7H11NO/c1-4-7(2)6(5-9)8(7)3/h1,6,9H,5H2,2-3H3/t6-,7-,8?/m0/s1
