19
gdb 50325	3.01185	1.50768	1.4774	2.6576	77.46	-0.2428	-0.0162	0.2267	986.6162	0.1612	-385.881048	-385.873822	-385.872878	-385.912971	28.784	
O	-0.6648099838	 0.7604073486	-0.5483942716	-0.247411
C	 0.1840692585	 0.9641810006	 0.2825620653	 0.160887
C	 1.3307792768	 1.947419429	 0.1613472491	-0.111705
C	 1.3547907855	 2.785117642	-1.1418878174	-0.23492
C	 0.9473785716	 4.1950937733	-0.6876277766	-0.039961
C	-0.4793141609	 4.1881119251	-0.0446038466	-0.243297
C	 0.1855717651	 4.0340955346	 1.3257700152	-0.062537
C	 1.5465832745	 4.3707104055	 0.7389573296	-0.082259
C	 1.3015447209	 2.996387486	 1.2888999457	-0.058568
H	 0.1714063314	 0.4105222328	 1.2507876033	 0.073728
H	 2.2450414937	 1.3474199003	 0.2742091072	 0.090944
H	 2.3645874124	 2.7941758928	-1.5649767909	 0.094618
H	 0.6725475971	 2.3731911481	-1.8901442191	 0.123505
H	 1.1330810536	 4.9764897879	-1.4240351336	 0.067501
H	-0.9605490355	 5.165520209	-0.1336709544	 0.099761
H	-1.1753269384	 3.4137531311	-0.3803364559	 0.114613
H	-0.2360364577	 4.3434923857	 2.27554988	 0.082623
H	 2.3156270039	 5.0551396716	 1.0719139524	 0.085621
H	 1.7247534713	 2.739998606	 2.2537983983	 0.086858
72.0776	135.0896	223.2961	308.5907	377.8645	451.2618	588.3619	648.077	695.4436	749.3032	765.5428	804.4763	831.15	839.9061	882.0864	934.7216	965.8887	968.6353	990.4587	1000.1406	1033.1844	1045.7257	1059.4871	1080.1934	1101.1715	1120.5895	1148.7141	1184.9056	1229.0982	1233.3083	1247.0091	1279.9096	1291.1823	1313.4193	1337.3862	1350.5181	1393.5996	1429.6045	1484.1509	1502.344	1824.7353	2855.9283	3005.8224	3050.2167	3054.6219	3103.2961	3107.3343	3116.0265	3167.1409	3175.6829	3200.0452
O=CC1CC2CC3C2C13	O=C[C@H]1C[C@H]2C[C@@H]3[C@H]2[C@H]13	
InChI=1S/C8H10O/c9-3-5-1-4-2-6-7(4)8(5)6/h3-8H,1-2H2	InChI=1S/C8H10O/c9-3-5-1-4-2-6-7(4)8(5)6/h3-8H,1-2H2/t4-,5+,6+,7-,8+/m0/s1
