17
gdb 110191	2.45707	1.2076	0.85828	2.0388	73.39	-0.2489	-0.0392	0.2097	1315.0225	0.133947	-455.123582	-455.114278	-455.113334	-455.158472	32.639	
C	-0.0453069123	 1.2383252933	 0.1811831331	-0.252527
O	-0.2071453916	-0.1642300833	 0.3574305266	-0.238323
C	 0.7544587635	-0.7231692873	 1.1868506516	 0.028701
C	 0.6040597423	-2.2786802801	 1.3340539053	-0.081386
N	 2.0251885065	-2.3754568846	 0.9635614644	-0.352131
C	 2.1356875665	-1.0397238484	 0.5775631261	 0.377421
N	 2.9640182155	-0.3200899564	-0.0450301725	-0.547041
C	 0.2872651319	-2.7890480749	 2.7210796586	 0.152747
O	-0.7549190728	-3.3013901142	 3.0339016821	-0.23922
H	 0.9189609194	 1.4705627075	-0.283301564	 0.153445
H	-0.8592584354	 1.5662338998	-0.4681473776	 0.1318
H	-0.1178961481	 1.7665673465	 1.1437119423	 0.109548
H	 0.8271936094	-0.1945808393	 2.1506571633	 0.094983
H	-0.1082653255	-2.6690656671	 0.6017816173	 0.117533
H	 2.4708259349	-3.1694108127	 0.5246153782	 0.247601
H	 3.765490178	-0.8538378947	-0.386915689	 0.215325
H	 1.1164701479	-2.6345678244	 3.449779914	 0.081525
66.203	80.475	109.9136	173.5576	195.1467	239.6397	279.3662	363.6419	395.098	445.5549	475.627	511.1198	686.1377	776.7144	838.005	896.8068	917.3403	1017.4167	1023.4227	1055.2183	1065.0389	1109.7865	1176.5859	1179.5365	1185.3882	1224.8303	1244.8521	1283.0497	1327.6542	1349.3589	1381.4843	1412.8362	1481.2241	1486.0658	1513.5172	1803.7471	1835.9231	2871.8953	2981.2034	2994.7792	3078.6717	3083.0442	3134.4719	3455.364	3589.3379
COC1C(NC1=N)C=O	CO[C@H]1[C@@H](N[C]1[NH])C=O	
InChI=1S/C5H8N2O2/c1-9-4-3(2-8)7-5(4)6/h2-4H,1H3,(H2,6,7)	InChI=1S/C5H8N2O2/c1-9-4-3(2-8)7-5(4)6/h2-4H,1H3,(H2,6,7)/t3-,4-/m0/s1
