18
gdb 100342	2.53217	1.15532	0.96676	5.6343	68.08	-0.2742	0.0361	0.3103	1249.5449	0.144838	-476.223466	-476.212986	-476.212042	-476.259086	37.147	
O	 0.0284037878	 1.4355475446	-0.0984209012	-0.430031
C	 0.0495259345	 0.0171458618	 0.005360858	-0.125097
C	-1.405068396	-0.4798302867	 0.0359914486	 0.343351
O	-1.4112989331	-1.8944966398	 0.0539789212	-0.475141
C	-2.1316918385	 0.0518335637	 1.2808593681	-0.122554
O	-1.535726486	-0.6098688827	 2.3931769106	-0.438195
C	-2.1710956949	-0.0293127342	-1.2241718829	-0.357795
C	-1.5505741175	-0.4891981664	-2.4643150969	 0.279438
N	-1.0593666687	-0.8339184468	-3.4515676339	-0.322311
H	 0.9255854141	 1.7440295524	-0.2515768119	 0.297582
H	 0.5524316715	-0.449436908	-0.8508581161	 0.123732
H	 0.547899757	-0.3132949858	 0.9268502066	 0.104064
H	-1.2720268302	-2.1463923914	 0.9769020128	 0.292959
H	-2.0108049642	 1.1398772632	 1.3488268976	 0.121196
H	-3.2014406399	-0.1907594122	 1.2089534368	 0.094187
H	-2.060156718	-0.4335325912	 3.1786558665	 0.300142
H	-3.192436326	-0.4200725643	-1.1792507351	 0.149682
H	-2.2154751818	 1.0634248239	-1.2455729388	 0.164789
50.2624	105.3847	124.5579	165.6222	201.1376	214.2004	229.8034	273.8111	339.9823	350.6784	387.5285	415.5666	445.5963	466.5287	514.7855	654.2859	787.8555	882.0529	915.7663	950.4001	991.2819	1070.1213	1075.0518	1125.9288	1131.1702	1160.8674	1225.3165	1239.2038	1254.24	1270.2951	1324.2961	1333.5774	1411.5126	1445.1584	1446.7805	1457.9387	1506.0189	1515.9506	2364.8844	2999.1096	3010.1629	3057.5367	3058.7873	3060.2599	3111.6278	3761.3887	3842.689	3849.4505
OCC(O)(CO)CC#N	OCC(O)(CO)CC#N	
InChI=1S/C5H9NO3/c6-2-1-5(9,3-7)4-8/h7-9H,1,3-4H2	InChI=1S/C5H9NO3/c6-2-1-5(9,3-7)4-8/h7-9H,1,3-4H2
