13
gdb 129523	5.28083	1.01304	0.88198	4.8142	61.63	-0.2527	-0.0261	0.2266	1220.8377	0.091708	-482.261189	-482.253494	-482.25255	-482.294473	27.544	
N	-0.1507879555	 1.3502447443	-0.0469835135	-0.566495
C	 0.1167894802	-0.0015848834	 0.096497321	 0.449027
O	 1.1781464288	-0.4494766453	 0.4515817358	-0.338379
N	-1.0193335785	-0.7818474216	-0.1792386359	-0.448127
C	-1.0464957834	-2.1597193161	-0.0861680601	 0.508435
N	-2.1263331548	-2.8080518462	 0.3423195586	-0.302646
N	-1.7240252136	-4.0673771876	 0.1891694046	-0.066741
N	-0.4983922387	-4.205161705	-0.2813746789	-0.091619
N	-0.0465939997	-2.9923827695	-0.4755210203	-0.237985
H	 0.6825230285	 1.9173190397	-0.0061248196	 0.269423
H	-0.8087722463	 1.6289650485	-0.7592497826	 0.255781
H	-1.918705695	-0.3436205092	-0.0484943634	 0.266096
H	-2.306807792	-4.8574912986	 0.4200256743	 0.303231
45.9298	86.4441	144.7914	333.2437	383.8314	409.1017	418.4197	490.1674	541.0618	562.8889	632.582	721.9668	751.7412	777.5632	854.6306	990.4926	1033.6485	1080.5333	1106.5779	1140.7585	1197.5142	1261.4223	1302.8826	1364.1805	1477.5693	1515.7271	1605.8505	1627.607	1847.0246	3577.0024	3624.5646	3655.5894	3691.9919
NC(=O)NC1=NNN=N1	NC(=O)Nc1n[nH]nn1	
InChI=1S/C2H4N6O/c3-1(9)4-2-5-7-8-6-2/h(H4,3,4,5,6,7,8,9)	InChI=1S/C2H4N6O/c3-1(9)4-2-5-7-8-6-2/h(H4,3,4,5,6,7,8,9)
