18
gdb 39994	3.40585	1.53303	1.29093	1.662	75.28	-0.2423	0.0205	0.2628	1009.7172	0.149771	-401.93725	-401.930142	-401.929198	-401.969015	28.252	
C	-0.3828155377	 1.3252913375	 0.0184367103	-0.310742
C	 1.0804198404	 0.9770833158	-0.0890227596	-0.334313
C	 0.052319368	-0.1109453241	 0.0315616649	 0.3574
C	-0.1148368696	-1.1411679113	 1.1665415106	-0.320206
C	-0.5863137907	-2.1798728492	 0.107490048	-0.006861
N	-2.042621549	-2.3735712771	 0.057365758	-0.26648
C	-2.4547593285	-1.67848752	-0.9204200616	 0.117311
O	-1.5800294299	-0.9653227648	-1.6771751694	-0.225196
C	-0.2983547014	-1.1517372131	-1.0323060113	-0.011311
H	-0.7418640685	 1.7493232436	 0.9506546553	 0.116515
H	-0.8965884494	 1.6841861385	-0.8667835342	 0.125483
H	 1.5715228629	 1.1096456174	-1.0481093842	 0.115387
H	 1.7177612116	 1.1654464899	 0.7692097668	 0.115178
H	 0.8205379649	-1.4144544757	 1.6639422519	 0.10386
H	-0.8682394691	-0.9084532727	 1.923028569	 0.112665
H	-0.0708473417	-3.1424360136	 0.1089105169	 0.08451
H	-3.4877417476	-1.5984395586	-1.2411675913	 0.139838
H	 0.4426008554	-1.3563449425	-1.8066524402	 0.086963
64.7138	204.4247	240.8627	315.5097	329.3398	485.0385	492.6291	610.5885	725.6697	776.3491	795.1177	849.9491	864.3726	869.9228	899.7053	914.5877	958.0707	963.0746	988.3335	1004.0026	1033.0337	1051.4774	1072.3875	1089.9798	1105.6734	1155.4177	1189.1141	1203.4365	1230.938	1263.5626	1276.7317	1304.556	1313.1066	1349.6775	1378.9441	1464.6316	1479.3356	1501.4458	1687.5103	3052.3366	3083.4612	3101.4491	3110.1766	3122.514	3131.1088	3202.8871	3214.2348	3220.4487
C1CC11CC2N=COC12	C1CC21C[C@H]1N=CO[C@@H]21	
InChI=1S/C7H9NO/c1-2-7(1)3-5-6(7)9-4-8-5/h4-6H,1-3H2	InChI=1S/C7H9NO/c1-2-7(1)3-5-6(7)9-4-8-5/h4-6H,1-3H2/t5-,6-/m1/s1
