18
gdb 126169	4.00598	0.93451	0.91911	2.2098	74.52	-0.2606	-0.0161	0.2446	1353.8439	0.147182	-439.082793	-439.07388	-439.072936	-439.11722	32.239	
C	 0.0803785767	 1.5398494309	 0.1580384077	-0.38766
C	 0.0224279728	 0.0169594185	 0.0286003595	-0.189433
C	 0.6640485376	-0.487069105	-1.277302023	 0.002567
O	 2.0208454208	-0.0748644707	-1.4022214722	-0.425867
C	 0.5452658662	-1.9768738919	-1.4145656364	 0.457209
C	-0.1231180627	-2.8086281074	-2.25723344	-0.359994
C	 0.2351639159	-4.1049100529	-1.7983970796	 0.038437
N	 1.0498828064	-4.0646321139	-0.7742451655	-0.13916
O	 1.2451673097	-2.7060273055	-0.5228788732	-0.230423
H	 1.1123657148	 1.8926778079	 0.0911990968	 0.13347
H	-0.4909870253	 2.0264724832	-0.6403196599	 0.114891
H	-0.3369054154	 1.8669113015	 1.1146624268	 0.114744
H	 0.5365619771	-0.4603152142	 0.8724618149	 0.109916
H	-1.0162442327	-0.3338855467	 0.062995047	 0.104829
H	 0.1464966555	-0.0338149006	-2.1299113873	 0.103649
H	 2.5344298001	-0.5672005505	-0.7511196335	 0.293095
H	-0.7636655617	-2.5415228694	-3.0807220106	 0.12361
H	-0.0702518758	-5.0676333635	-2.1838144314	 0.136117
48.5537	96.2271	114.3817	188.5677	222.1654	282.5624	328.2662	356.8718	405.9945	512.2423	647.0096	731.986	741.1236	790.1644	815.8143	895.1636	919.3639	927.898	945.0443	984.1578	1012.448	1051.9806	1061.3486	1108.9132	1116.0237	1207.3457	1234.1884	1262.9255	1289.4481	1332.7044	1371.8356	1388.7552	1406.5662	1424.7209	1482.2102	1494.7943	1508.0234	1513.037	1635.5463	3027.4496	3038.7152	3053.5029	3070.9721	3105.2237	3127.4863	3244.2922	3282.0728	3799.4087
CCC(O)C1=CC=NO1	CC[C@@H](O)c1ccno1	
InChI=1S/C6H9NO2/c1-2-5(8)6-3-4-7-9-6/h3-5,8H,2H2,1H3	InChI=1S/C6H9NO2/c1-2-5(8)6-3-4-7-9-6/h3-5,8H,2H2,1H3/t5-/m1/s1
