12
gdb 25287	8.3195	0.6715	0.62135	3.0539	83.95	-0.2563	-0.0897	0.1666	1631.9179	0.077728	-435.49219	-435.484592	-435.483648	-435.525607	25.772	
O	-0.1295413628	 0.0118398562	-0.0016949326	-0.229502
C	-0.0164533099	 1.2174781979	 0.0076146036	-0.006738
C	 1.2393244596	 1.9138534849	-0.0007203531	 0.226846
C	 2.2850144538	 2.5271712521	-0.0073315533	-0.07496
C	 3.5093252751	 3.1924919039	-0.0156309291	 0.179695
C	 4.8138569625	 2.7777069842	-0.0340843291	-0.191357
N	 5.648904259	 3.8727139903	-0.0341949878	-0.239608
C	 4.8385369541	 4.8865905247	-0.0162796948	 0.074991
O	 3.5319853103	 4.5740034233	-0.0040481633	-0.163691
H	-0.8996349613	 1.8873483109	 0.0234771423	 0.106082
H	 5.1868662008	 1.7662183397	-0.0469978236	 0.152803
H	 5.0867752887	 5.936718882	-0.0101412793	 0.165438
74.0504	74.4345	116.81	206.2833	255.7723	420.048	497.4042	511.2037	654.5519	689.8952	707.1587	864.5707	892.6157	928.9078	960.9657	1010.1966	1014.0901	1139.9512	1161.7415	1239.7103	1295.9925	1340.0512	1418.8601	1509.9949	1603.2033	1754.5843	2298.2472	2925.4478	3273.6921	3278.1095
O=CC#CC1=CN=CO1	O=CC#Cc1cnco1	
InChI=1S/C6H3NO2/c8-3-1-2-6-4-7-5-9-6/h3-5H	InChI=1S/C6H3NO2/c8-3-1-2-6-4-7-5-9-6/h3-5H
