17
gdb 80378	2.32309	1.76755	1.22895	1.0665	73.68	-0.2531	0.0254	0.2785	1029.6932	0.133547	-421.747322	-421.738573	-421.737629	-421.780154	33.877	
O	 0.1025299066	 1.3710826756	 0.2767012698	-0.428804
C	-0.0218744467	-0.0130151332	 0.1308032887	 0.105928
C	-0.4528143488	-0.8724999711	 1.2752774404	-0.096287
C	-1.5065812469	-0.1288864693	 2.1044172394	-0.291663
C	-2.4342874209	-0.0555340403	 0.8323673665	 0.256388
O	-3.5293640935	-0.956777068	 0.9080688592	-0.467345
C	-2.8881834095	 1.2655548732	 0.3918321718	 0.277399
C	-3.2941316523	 2.3427321658	 0.0393569976	-0.485585
C	-1.3313329675	-0.7367094215	 0.0124965101	-0.160944
H	-0.5646984113	 1.8012723076	-0.269070547	 0.292574
H	 0.7621404816	-0.4551093855	-0.4842437344	 0.096196
H	 0.1266941447	-1.721770896	 1.6144892259	 0.091754
H	-1.9883131256	-0.7537635373	 2.8575208538	 0.110471
H	-1.1847699873	 0.82085222	 2.5352931714	 0.115145
H	-4.223313172	-0.5306909631	 1.4242484157	 0.281796
H	-3.6540813896	 3.2928643412	-0.2712329181	 0.20331
H	-1.5551302811	-1.4392687081	-0.7811693308	 0.099667
119.9451	134.5817	192.9785	218.4775	256.947	293.2028	325.9726	401.6166	488.6343	502.8666	545.4464	613.6208	628.9508	664.4165	674.6423	746.5448	793.757	852.6794	912.5766	945.2517	987.0319	1002.5772	1018.7947	1061.1494	1076.9749	1098.1425	1145.6181	1203.6123	1212.1457	1249.7795	1275.648	1331.1027	1347.5224	1374.1779	1430.784	1466.6626	2219.0448	3077.6924	3106.6277	3143.185	3185.0533	3195.9786	3496.3566	3798.3804	3803.1023
OC1C2CC(O)(C#C)C12	O[C@H]1[C@H]2C[C@@](O)(C#C)[C@@H]12	
InChI=1S/C7H8O2/c1-2-7(9)3-4-5(7)6(4)8/h1,4-6,8-9H,3H2	InChI=1S/C7H8O2/c1-2-7(9)3-4-5(7)6(4)8/h1,4-6,8-9H,3H2/t4-,5+,6-,7-/m0/s1
