13
gdb 24920	5.30629	1.37534	1.09303	3.793	67.05	-0.1862	0.0185	0.2047	1003.1345	0.092161	-448.947587	-448.940706	-448.939762	-448.978925	26.271	
N	-0.0594699208	 1.2714621346	 0.0041667814	-0.582711
C	-0.0243526498	 0.0110706549	 0.0181630272	 0.443602
N	-1.1142474038	-0.851857327	 0.0458022431	-0.455139
C	-0.6306719415	-2.1603241489	-0.0716275222	 0.313944
C	 0.713856852	-2.058557172	-0.0802805143	 0.363776
N	 1.2113279487	-3.3271955473	-0.0138578145	-0.393892
C	 0.0857074303	-4.1381466288	-0.009256774	-0.015345
N	-1.0492661749	-3.452332708	-0.0239731974	-0.345157
O	 1.1623176481	-0.7751055701	 0.0044134264	-0.26369
H	 0.8741438746	 1.6704708498	-0.0184686029	 0.232447
H	-2.0340030873	-0.5094560976	-0.1712037609	 0.281002
H	 2.170386029	-3.6282361559	-0.0406117548	 0.281981
H	 0.1702676952	-5.2125779436	-0.0251146472	 0.139181
93.7573	174.4096	324.3438	333.6983	359.2363	449.9161	554.8942	594.5493	640.811	697.9801	698.9012	729.4447	746.1303	774.9577	836.0695	865.9585	973.6246	1032.2	1069.0453	1144.8049	1236.2656	1289.2792	1305.4442	1370.249	1449.7849	1486.815	1561.0404	1664.6054	1801.0196	3274.5399	3555.2287	3678.5894	3686.2883
N=C1NC2=C(NC=N2)O1	[NH][C@H]1Nc2c([nH]cn2)O1	
InChI=1S/C4H4N4O/c5-4-8-2-3(9-4)7-1-6-2/h1H,(H2,5,8)(H,6,7)	InChI=1S/C4H5N4O/c5-4-8-2-3(9-4)7-1-6-2/h1,4-5,8H,(H,6,7)/t4-/m0/s1
