16
gdb 97342	2.82862	0.85548	0.66219	1.6913	77.69	-0.2643	-0.0321	0.2323	1628.8246	0.122993	-434.116709	-434.107096	-434.106151	-434.152597	32.74	
C	-0.3409466538	 1.6053634532	 0.5328126172	-0.314374
N	 0.0716077962	 0.2362538572	 0.765279097	-0.223945
C	-0.247276951	-0.6264610134	-0.0993910924	 0.113159
N	 0.1240164196	-1.9595746477	 0.0746435805	-0.359271
C	-0.1862136821	-2.944516243	-0.8220330384	 0.450393
O	-0.8074980061	-2.7672166624	-1.8461366661	-0.350274
C	 0.3060311426	-4.3655955516	-0.4699794142	-0.465772
C	 1.0457870728	-4.4957572657	 0.7776207032	 0.267194
N	 1.6267836435	-4.5450052587	 1.7757415789	-0.301566
H	 0.5432976824	 2.2520683978	 0.5105633703	 0.135311
H	-0.9044668365	 1.748473998	-0.401911872	 0.107009
H	-0.9607173067	 1.9448758202	 1.3702239935	 0.135316
H	-0.8099434596	-0.4533905012	-1.0208999705	 0.136638
H	 0.6480220916	-2.174101014	 0.9133806952	 0.285867
H	-0.57634783	-5.0130562474	-0.4501741271	 0.19215
H	 0.9232223671	-4.7058964813	-1.3075004153	 0.192165
39.4456	91.1512	96.0607	129.3003	171.2776	215.1817	330.6827	333.4116	368.5237	371.7181	507.2529	537.0422	584.0106	673.1637	690.858	931.3417	946.2874	979.6886	1004.2632	1064.3175	1139.8632	1142.6878	1199.4435	1216.3664	1251.096	1301.0535	1361.1411	1437.004	1444.9849	1478.4487	1494.9705	1530.4599	1764.3579	1803.6627	2359.4413	2983.8835	3066.6864	3068.2541	3083.9016	3099.903	3106.0358	3589.1191
CN=CNC(=O)CC#N	CN=CNC(=O)CC#N	
InChI=1S/C5H7N3O/c1-7-4-8-5(9)2-3-6/h4H,2H2,1H3,(H,7,8,9)	InChI=1S/C5H7N3O/c1-7-4-8-5(9)2-3-6/h4H,2H2,1H3,(H,7,8,9)
