21
gdb 82551	2.85585	1.45527	1.32611	1.9244	81.07	-0.2281	0.0796	0.3077	1073.7227	0.183941	-387.07071	-387.062598	-387.061654	-387.102906	32.92	
O	-0.608009861	 1.7235221073	 0.4472658606	-0.433758
C	-0.2339306369	 0.4068009673	 0.1692979206	 0.124745
C	-0.2979657751	-0.7380549533	 1.1473364409	-0.103069
C	-1.1996058018	-0.6029872654	 2.3674983886	-0.299452
C	-2.5630384524	-0.1548970415	 1.8234374941	 0.333487
C	-3.783914994	-0.149398518	 2.6931336417	-0.345106
C	-3.1739261266	 1.16626576	 2.2700084426	-0.320469
C	-2.6352479735	-0.5855650251	 0.3520315686	-0.299477
C	-1.1885527198	-0.7271884723	-0.1029444748	-0.103071
H	-1.3929101353	 1.7131994102	 1.0057327113	 0.300257
H	 0.6503779464	 0.4264685856	-0.4604511621	 0.099854
H	 0.5601205158	-1.3976699114	 1.2269592331	 0.07912
H	-1.2886608616	-1.5808935002	 2.856964662	 0.104264
H	-0.8074933673	 0.0946675212	 3.1169513923	 0.10346
H	-4.7313001504	-0.4339121152	 2.2464138101	 0.11444
H	-3.6736968094	-0.4467545183	 3.7311492771	 0.114442
H	-2.6555748817	 1.7474119386	 3.0271911846	 0.121751
H	-3.7153636278	 1.7602795132	 1.5394315289	 0.121739
H	-3.1348525438	-1.558520306	 0.2650597174	 0.10427
H	-3.209723358	 0.1237708226	-0.2554050381	 0.103451
H	-0.9887403059	-1.3787515494	-0.9475067892	 0.079122
122.3942	148.6715	213.3067	265.9908	278.9029	347.3102	386.7744	473.0495	484.8926	595.4453	694.5465	749.0691	759.205	780.4386	797.7494	854.0449	885.9688	902.1761	932.2421	970.9564	980.2388	1027.3066	1034.5238	1042.1729	1058.515	1075.8063	1083.6503	1097.1268	1111.4375	1190.4163	1196.201	1202.8827	1225.2075	1263.9271	1276.2726	1310.6922	1335.0668	1340.1344	1363.3196	1392.3479	1463.0282	1468.6514	1488.167	1499.0567	1503.1501	3019.9897	3023.3407	3056.3288	3057.5918	3112.9037	3123.8471	3151.5269	3151.9098	3167.1691	3195.5041	3212.2215	3795.8532
OC1C2CC3(CC3)CC12	O[C@H]1[C@H]2CC3(CC3)C[C@@H]12	
InChI=1S/C8H12O/c9-7-5-3-8(1-2-8)4-6(5)7/h5-7,9H,1-4H2	InChI=1S/C8H12O/c9-7-5-3-8(1-2-8)4-6(5)7/h5-7,9H,1-4H2/t5-,6+,7-
