22
gdb 120006	2.42289	1.05084	0.80068	2.6074	83.93	-0.2581	0.0305	0.2887	1515.2144	0.193351	-404.365644	-404.355632	-404.354688	-404.401116	36.487	
C	-0.1113448502	 1.5615819046	 0.2005069469	-0.38507
C	 0.0060768621	 0.0381472394	 0.1126476106	-0.170655
C	 0.5368405121	-0.4385403044	-1.2463001488	-0.194257
C	 0.6820767011	-1.9587869529	-1.3099512627	-0.158143
C	 1.310085263	-2.6491454702	-2.5563374234	 0.115291
C	 1.8754961804	-1.8161680347	-3.6852166784	-0.402883
O	 2.373696135	-3.2010759117	-1.7004056618	-0.269963
C	 1.8601614966	-2.5800214709	-0.5842869648	 0.440498
N	 2.2789066942	-2.5580729708	 0.5995399584	-0.548559
H	 0.8636894058	 2.0424242617	 0.063648188	 0.115342
H	-0.7850200433	 1.9558085315	-0.5690492057	 0.109277
H	-0.5002740903	 1.873495505	 1.1746281747	 0.114485
H	 0.6680497468	-0.3366019242	 0.9007791027	 0.139487
H	-0.9764160866	-0.4181666105	 0.2935100359	 0.091655
H	-0.141329635	-0.1093584707	-2.0452767289	 0.094814
H	 1.504319617	 0.0388665207	-1.4426024133	 0.102007
H	-0.2618234049	-2.4305269316	-1.0174437257	 0.10239
H	 0.7065386079	-3.4744608601	-2.9473543838	 0.091664
H	 2.5131774221	-1.0115873249	-3.3107647544	 0.130819
H	 2.4734143703	-2.4447621952	-4.3518026928	 0.131957
H	 1.0644165147	-1.3739101376	-4.2731390613	 0.125162
H	 3.1378164813	-3.1025493825	 0.6988597188	 0.224682
75.2037	88.9087	91.5971	127.1719	214.3821	227.3136	246.8944	275.9204	363.9384	367.3861	455.2068	509.1315	660.9573	729.9684	747.5677	822.9851	844.0131	868.0619	882.1063	903.3966	928.3117	1020.5309	1032.7627	1051.7534	1068.8088	1083.7868	1117.1511	1163.0083	1168.1829	1229.0853	1236.9554	1262.6813	1301.6181	1330.892	1343.6688	1371.1135	1386.655	1397.9329	1413.2235	1413.5796	1480.0717	1488.3915	1495.4439	1497.0494	1500.3364	1512.0761	1813.8638	3013.5254	3020.0785	3028.0871	3042.657	3046.4995	3056.8205	3066.7967	3075.4711	3098.2523	3103.1561	3111.7075	3127.6323	3469.6801
CCCC1C(C)OC1=N	CCC[C@H]1[C@@H](C)O[C]1[NH]	
InChI=1S/C7H13NO/c1-3-4-6-5(2)9-7(6)8/h5-6,8H,3-4H2,1-2H3	InChI=1S/C7H13NO/c1-3-4-6-5(2)9-7(6)8/h5-6,8H,3-4H2,1-2H3/t5-,6+/m1/s1
