21
gdb 93523	2.78511	1.31454	1.02006	4.0947	79.72	-0.2276	0.0371	0.2647	1228.7079	0.184385	-420.450779	-420.441768	-420.440823	-420.484212	34.793	
C	-0.0711175534	 1.56011276	-0.062203853	-0.42753
C	 0.0248448532	 0.0381139802	-0.010330128	 0.058183
N	 0.706265367	-0.4737201914	-1.1962735499	-0.309005
C	 0.5443679291	-1.9171031441	-1.329429758	-0.279261
C	 0.916536284	-2.6709185606	-0.0563853148	 0.41064
O	 1.1514409734	-3.8651920218	-0.0702413231	-0.380185
N	 0.9047133601	-1.9394339411	 1.0967226616	-0.31762
C	 0.7903312398	-0.4856941939	 1.2215743783	 0.050479
C	 2.1677962069	 0.1586671011	 1.424979521	-0.386926
H	 0.9095859282	 2.0133343582	-0.2287866041	 0.133976
H	-0.729583797	 1.8699767797	-0.8807617375	 0.115671
H	-0.4885266195	 1.9601774854	 0.8666898908	 0.121272
H	-1.0024876554	-0.3684598601	 0.0676243134	 0.061179
H	 0.3642470541	-0.0069783481	-2.0291367115	 0.220781
H	-0.4912399545	-2.2232362841	-1.5698612956	 0.108922
H	 1.1861763731	-2.3003936438	-2.126407406	 0.132657
H	 1.2010020933	-2.4627724133	 1.9092869546	 0.241742
H	 0.1689312935	-0.2826843229	 2.1038095822	 0.080458
H	 2.7595335164	 0.0761278233	 0.5099725612	 0.139572
H	 2.0777449252	 1.2144476154	 1.6967012309	 0.115029
H	 2.7051087526	-0.3468136983	 2.2334830574	 0.109965
84.7092	114.1027	214.4884	225.8489	264.5534	292.5765	308.2961	395.9049	427.2072	429.863	508.0549	546.0515	607.7915	661.5605	702.9139	738.6407	781.3021	863.8512	941.8245	974.9427	1010.1633	1023.836	1041.129	1101.7716	1115.2846	1140.8552	1159.4364	1199.0208	1255.2376	1293.9945	1314.8718	1356.935	1373.2754	1391.797	1399.7906	1412.3641	1415.5803	1470.1636	1473.8863	1487.285	1491.6051	1500.9708	1504.1204	1514.8767	1791.5482	2900.8888	2931.2228	3014.6392	3038.629	3042.7148	3098.649	3102.598	3108.281	3123.872	3132.5252	3524.5721	3592.7691
CC1NCC(=O)NC1C	C[C@H]1NCC(=O)N[C@H]1C	
InChI=1S/C6H12N2O/c1-4-5(2)8-6(9)3-7-4/h4-5,7H,3H2,1-2H3,(H,8,9)	InChI=1S/C6H12N2O/c1-4-5(2)8-6(9)3-7-4/h4-5,7H,3H2,1-2H3,(H,8,9)/t4-,5+/m1/s1
