20
gdb 99321	5.40649	0.63271	0.59025	4.5045	77.78	-0.2529	0.0236	0.2765	1879.318	0.170325	-440.301121	-440.291234	-440.29029	-440.337782	35.186	
O	 0.2864947022	 1.1547838273	-0.2126726155	-0.419876
C	-0.0415698846	-0.0458141186	 0.4187292264	-0.144197
C	-1.4696218952	-0.4585842302	 0.0389434988	 0.38898
O	-2.1240237733	 0.2586246165	-0.7057039727	-0.390173
N	-1.9206096553	-1.6186246505	 0.5697700812	-0.315126
C	-3.2323619858	-2.1848207356	 0.2810620739	-0.182188
C	-3.1372878469	-3.6127436976	-0.2036934239	 0.020263
C	-3.0201777943	-4.7442847734	 0.7926160761	-0.268145
C	-4.2934042778	-4.5534493157	 0.0071077225	-0.267011
H	-0.5155921375	 1.386693241	-0.7127879761	 0.294066
H	 0.652099835	-0.8514228039	 0.1276060486	 0.106101
H	 0.0206847942	 0.04929995	 1.5152667693	 0.10732
H	-1.2963128587	-2.1563346033	 1.151276681	 0.249483
H	-3.8657941431	-2.1411886349	 1.1780315961	 0.105039
H	-3.6848761346	-1.5349617668	-0.4714506388	 0.152347
H	-2.5805975005	-3.729268023	-1.1293862455	 0.09584
H	-2.3821746699	-5.5854220274	 0.5462731295	 0.118343
H	-3.0422560266	-4.4986330819	 1.8501619361	 0.11076
H	-5.1628657127	-4.1781735324	 0.5368753112	 0.117495
H	-4.5264340548	-5.2614127997	-0.7797184682	 0.12068
29.9723	69.2019	71.037	82.2591	199.5072	249.9545	289.6076	370.1119	397.6338	447.5066	482.9477	524.6548	611.6531	701.9893	776.3638	808.4039	836.5825	899.8336	916.3983	957.0499	1036.7218	1042.3747	1057.7831	1075.269	1086.763	1139.8608	1143.875	1182.1323	1199.0626	1226.8743	1245.6923	1248.2064	1289.8971	1315.3926	1359.392	1427.0067	1464.9538	1469.5557	1495.1615	1508.2784	1509.515	1558.3919	1767.3362	2969.1397	2987.3862	3009.1949	3113.2205	3127.8012	3136.8681	3149.2134	3209.315	3225.3108	3622.9462	3641.459
OCC(=O)NCC1CC1	OCC(=O)NCC1CC1	
InChI=1S/C6H11NO2/c8-4-6(9)7-3-5-1-2-5/h5,8H,1-4H2,(H,7,9)	InChI=1S/C6H11NO2/c8-4-6(9)7-3-5-1-2-5/h5,8H,1-4H2,(H,7,9)
