14
gdb 17904	3.10522	2.49213	2.27044	2.5798	61.58	-0.2314	-0.0157	0.2158	691.1377	0.109075	-382.542998	-382.537155	-382.536211	-382.572762	23.194	
O	-0.0052477065	 0.0591364481	-0.0313193258	-0.316265
C	-0.0066219463	 1.2492883011	 0.000728972	 0.434425
C	-1.1617505035	 2.3009947833	 0.0470293397	-0.20574
C	-0.679032959	 3.0671347742	 1.3076256149	-0.073559
O	 0.7578692701	 3.0250193808	 1.2267284459	-0.281706
C	 1.1042193481	 2.3261924026	 0.0010076415	-0.040866
C	 0.6283196403	 3.1120182613	-1.1906832547	-0.080706
C	-0.7187244872	 3.0847501853	-1.1644423102	-0.083988
H	-2.1817437296	 1.9265242868	 0.0758197714	 0.09553
H	-1.0177025628	 4.1090518449	 1.3218121535	 0.107329
H	-1.0067842746	 2.567488506	 2.2274596607	 0.114152
H	 2.1417156257	 2.0101549173	 0.0575501983	 0.099291
H	 1.2639649211	 3.60153499	-1.916109074	 0.116668
H	-1.3970116457	 3.5459646082	-1.870769713	 0.115436
166.9521	244.3712	377.0821	404.0113	533.6356	617.458	669.8424	733.5271	759.0676	802.4528	848.6876	890.0547	900.8469	949.4271	957.8654	974.7374	1007.4095	1058.3133	1092.3755	1128.7743	1165.2266	1202.6578	1216.7031	1271.1965	1289.3991	1350.2518	1373.7835	1523.8992	1604.2754	1906.7078	3020.1737	3064.3253	3158.3297	3173.5036	3208.574	3232.2874
O=C1C2COC1C=C2	O=C1[C@H]2CO[C@@H]1C=C2	
InChI=1S/C6H6O2/c7-6-4-1-2-5(6)8-3-4/h1-2,4-5H,3H2	InChI=1S/C6H6O2/c7-6-4-1-2-5(6)8-3-4/h1-2,4-5H,3H2/t4-,5-/m1/s1
