15
gdb 130439	3.18305	1.46107	1.03166	6.4549	70.23	-0.2427	-0.045	0.1978	1088.3871	0.114674	-450.112971	-450.105589	-450.104645	-450.144967	27.961	
N	-1.0513596518	 0.8240119327	 0.6718489959	-0.534542
H	-0.8380551092	-0.1590010239	 0.8018690221	 0.25541
H	-1.3311867943	 0.9423817425	-0.2977452251	 0.25647
H	-2.1725410435	 1.7600481633	 1.7178194325	 0.315398
C	 0.1332220234	 1.6562818787	 0.9716842367	-0.264338
C	-0.2532852759	 3.1080868554	 1.132554664	 0.251733
N	 0.642741946	 4.0157842758	 0.7418080517	-0.252232
N	 0.4259037233	 5.3096797707	 0.8998939736	-0.092028
N	-0.6966862651	 5.7396250284	 1.4568157269	-0.197774
C	-1.6297114353	 4.8741518238	 1.8450800268	-0.0075
C	-1.4746659135	 3.4975411061	 1.7000644793	 0.271465
O	-2.4264696745	 2.6463070512	 2.0884195881	-0.421197
H	 0.5465335472	 1.2968748018	 1.922589381	 0.143234
H	 0.9336572295	 1.5896757234	 0.2258483646	 0.140251
H	-2.5309947861	 5.28747579	 2.2883352019	 0.135648
103.2684	142.57	268.7846	282.0083	337.5672	415.0516	428.4888	456.4122	583.1685	604.5259	646.6258	762.8895	804.5857	873.4372	915.6467	952.771	960.6826	997.245	1027.2794	1054.9108	1128.5822	1165.9659	1224.2446	1265.4227	1314.2525	1359.3354	1406.5639	1435.686	1461.5667	1489.8744	1586.1902	1628.1536	1654.2359	3027.71	3069.3446	3179.1577	3235.172	3502.203	3584.4313
[NH3+]CC1=N[N-]N=CC1=O	NCc1nnncc1O	
InChI=1S/C4H6N4O/c5-1-3-4(9)2-6-8-7-3/h2H,1,5H2,(H,8,9)	InChI=1S/C4H6N4O/c5-1-3-4(9)2-6-8-7-3/h2H,1,5H2,(H,8,9)
