21
gdb 22182	2.47338	1.2344	1.01765	0.8938	83.68	-0.2128	0.0095	0.2223	1282.7216	0.179327	-420.344997	-420.33473	-420.333786	-420.379546	38.211	
C	-0.1475095083	 1.5094745659	-0.0097388351	-0.330746
N	-0.0233681352	 0.0734979742	 0.0956757249	-0.104902
C	-1.238317205	-0.7261369153	 0.3579725437	-0.270315
C	-0.4054344521	-1.5707254455	 1.2917082071	 0.386087
N	-0.5026987164	-2.6722205293	 1.9005298273	-0.254253
O	-1.7550051846	-3.2735256865	 1.6644896133	-0.392301
C	 0.738038721	-0.5675460693	 1.2270679332	 0.214189
C	 2.0978683106	-1.1074241292	 0.791422859	-0.413349
C	 0.8482624214	 0.2665143114	 2.5120609593	-0.43249
H	 0.8435689797	 1.9651386322	-0.1037141304	 0.121726
H	-0.7079759321	 1.7557303999	-0.9183912955	 0.123137
H	-0.665624347	 1.9870128792	 0.8418670559	 0.093547
H	-2.0453438751	-0.1863527628	 0.8830363272	 0.105913
H	-1.6694688091	-1.2235879471	-0.51795419	 0.125505
H	-1.6829163442	-4.0942427864	 2.1634143954	 0.306444
H	 1.9995354976	-1.6961784305	-0.1231276128	 0.121603
H	 2.7913595194	-0.2817413596	 0.5964692842	 0.110939
H	 2.5302793859	-1.7396880031	 1.5732295625	 0.12292
H	 1.2538514014	-0.3516271103	 3.3179893481	 0.131202
H	 1.5194502107	 1.1197701289	 2.3676441059	 0.116257
H	-0.1244953686	 0.6453441832	 2.8385687065	 0.118889
85.9563	139.4398	162.8927	192.3743	220.8797	231.4802	244.86	286.6847	320.3058	345.5	384.1756	386.3148	457.1227	539.3124	564.2493	621.88	726.6308	789.9099	933.4783	952.6556	963.4971	975.7989	987.0189	1018.444	1111.6944	1122.5142	1160.153	1169.8669	1190.2111	1206.6434	1249.6829	1299.002	1310.9204	1392.3545	1404.6665	1413.556	1452.8081	1476.0418	1478.5158	1484.0116	1496.6489	1500.1964	1501.3478	1510.878	1808.6351	2937.9186	2957.1498	3033.4078	3038.1652	3052.9915	3054.6289	3095.8301	3102.0917	3108.3709	3116.9577	3128.659	3817.8863
CN1CC(=NO)C1(C)C	CN1CC(=NO)C1(C)C	
InChI=1S/C6H12N2O/c1-6(2)5(7-9)4-8(6)3/h9H,4H2,1-3H3	InChI=1S/C6H12N2O/c1-6(2)5(7-9)4-8(6)3/h9H,4H2,1-3H3
