23
gdb 89233	2.84049	1.56597	1.23243	0.1645	89.39	-0.2766	0.0957	0.3723	1131.196	0.207426	-351.13357	-351.125458	-351.124514	-351.1656	33.517	
C	-0.1244480771	 1.5416707991	-0.030503355	-0.403813
C	 0.0302783997	 0.0196327356	-0.0029874251	 0.003202
C	 0.9552892166	-0.558100953	-1.1094923082	-0.301055
C	 2.0123252545	-1.2864352916	-0.2682450116	 0.383257
C	 3.1086425938	-1.9933351319	-1.0372668615	-0.500753
C	 1.2773399145	-1.9616121392	 0.9506572762	-0.101346
C	 2.5018231622	-1.6767647066	 1.8517427499	-0.256717
C	 2.3212189118	-0.4004690526	 0.9961285722	-0.09104
C	 0.7764329912	-0.5081797306	 1.2225796258	 0.007338
H	 0.8511466325	 2.0382722016	 0.0228135394	 0.112069
H	-0.6161688176	 1.8743537632	-0.9508225452	 0.110979
H	-0.7246217633	 1.8966738016	 0.8146823406	 0.108899
H	-0.9667000819	-0.4352410665	-0.0571103671	 0.062745
H	 0.4340384038	-1.2433827681	-1.7874232419	 0.08986
H	 1.4045236937	 0.2281473943	-1.7285802884	 0.088575
H	 3.6627155498	-1.2822011499	-1.6611981744	 0.114136
H	 3.8304614413	-2.4944653492	-0.3865545862	 0.115772
H	 2.6848388409	-2.7504616644	-1.7074649173	 0.113958
H	 0.6628157392	-2.8652387118	 0.9191725312	 0.057322
H	 2.3007002079	-1.5736028704	 2.9220200013	 0.085348
H	 3.4021088555	-2.2735584445	 1.6893010649	 0.088267
H	 2.9263647862	 0.5091477816	 1.0206001159	 0.058933
H	 0.3806528448	-0.2726247867	 2.2135616645	 0.054065
121.3893	205.621	222.1603	237.2416	303.2669	341.5223	373.1676	455.6363	469.0182	613.2568	654.8935	696.0145	737.4749	822.5886	863.761	877.2709	900.8357	909.9289	928.7423	934.6447	963.835	1006.8196	1030.1251	1048.9897	1060.907	1065.1739	1085.1766	1117.4647	1137.2917	1165.1575	1180.6344	1189.3315	1220.2745	1220.7639	1239.7211	1254.2833	1270.7635	1294.3164	1330.4632	1347.867	1379.277	1408.9527	1414.3301	1491.0413	1493.0485	1497.073	1499.5423	1500.2851	1527.7378	3018.5441	3023.7135	3025.3314	3030.5173	3051.757	3066.536	3072.6575	3076.0742	3080.8984	3090.2626	3092.7566	3094.2234	3104.7887	3112.5622
CC1CC2(C)C3CC2C13	C[C@H]1C[C@]2(C)[C@H]3C[C@@H]2[C@@H]13	
InChI=1S/C9H14/c1-5-4-9(2)6-3-7(9)8(5)6/h5-8H,3-4H2,1-2H3	InChI=1S/C9H14/c1-5-4-9(2)6-3-7(9)8(5)6/h5-8H,3-4H2,1-2H3/t5-,6-,7+,8-,9+/m0/s1
