17
gdb 34755	5.10109	1.19281	1.0998	0.8403	78.05	-0.2389	0.0462	0.2852	1097.4066	0.136893	-384.607595	-384.600643	-384.599699	-384.638817	28.28	
C	-0.0767619572	-1.2505639637	-0.1272066847	-0.441256
C	-0.0368375193	-0.0505308052	-0.0540900826	 0.313404
C	-0.0044792176	 1.3961559233	 0.0182478137	-0.210024
C	 0.0274999476	 2.0814223578	 1.4147453772	-0.090814
C	 1.5375965938	 1.6880830928	 1.5743773641	-0.065296
C	 2.2121854515	 2.8529944304	 2.2836870292	-0.109756
O	 1.555035931	 3.970246194	 1.6547521669	-0.283305
C	 0.6756791265	 3.3336942285	 0.7544314458	 0.131637
C	 1.3724988644	 2.118328877	 0.0749705811	-0.090815
H	-0.111611281	-2.3098169534	-0.1914003172	 0.192381
H	-0.7190805723	 1.834992026	-0.687050567	 0.095697
H	-0.7464951071	 2.0528813062	 2.1819191709	 0.081885
H	 1.8156382856	 0.6664988	 1.8253617136	 0.091899
H	 2.0295099479	 2.870797313	 3.3650042157	 0.106187
H	 3.2932374319	 2.905474486	 2.1061857555	 0.106186
H	 0.0941052826	 4.0621310961	 0.1906556896	 0.090106
H	 2.1428802217	 2.1321651511	-0.6962360616	 0.081885
129.218	147.2285	306.1644	348.9492	392.606	488.3727	544.2875	612.3633	643.164	714.6671	737.1919	751.6155	797.9737	859.3834	924.5459	932.3126	956.2456	967.1879	985.1857	988.888	1034.1846	1039.5624	1093.4598	1101.539	1121.4424	1151.0088	1164.6036	1202.1436	1212.6928	1233.2512	1247.4854	1277.2208	1321.9079	1362.4278	1399.5717	1520.7825	2232.6791	3022.2231	3043.1809	3061.1824	3113.5073	3114.1095	3138.0215	3149.1196	3504.3127
C#CC1C2C3COC2C13	C#C[C@H]1[C@H]2[C@@H]3CO[C@H]2[C@H]13	
InChI=1S/C8H8O/c1-2-4-6-5-3-9-8(6)7(4)5/h1,4-8H,3H2	InChI=1S/C8H8O/c1-2-4-6-5-3-9-8(6)7(4)5/h1,4-8H,3H2/t4-,5-,6-,7+,8+
