21
gdb 88968	3.34901	0.92555	0.87077	1.4461	78.93	-0.2575	0.0733	0.3308	1442.5753	0.180169	-424.192011	-424.182245	-424.1813	-424.2274	36.455	
C	 0.2171167371	 1.3689331305	-0.1994450988	-0.41783
C	 0.1054666585	-0.0965151341	 0.134249544	 0.077317
O	 1.3225875016	-0.8226300997	 0.3446829921	-0.267546
C	 0.4083979345	-0.6961198313	 1.4450107799	 0.055964
C	 0.8839295814	 0.0561976505	 2.6663745279	-0.297613
C	 1.9026936341	-0.7366911126	 3.4703143972	 0.435399
O	 1.4141862425	-1.9571563034	 3.9735248779	-0.476458
C	 3.3628312103	-0.6665654003	 3.1104375136	-0.308794
C	 2.8489307745	-0.0177973688	 4.3832290675	-0.309354
H	 0.9447258905	 1.8792711888	 0.4342211669	 0.127386
H	 0.5331128573	 1.4924675303	-1.2406230232	 0.130371
H	-0.7546994697	 1.8612949651	-0.0846810838	 0.123044
H	-0.6155691267	-0.6365611805	-0.484341213	 0.085922
H	-0.1131213936	-1.6269941229	 1.6809971472	 0.084573
H	 1.3203761167	 1.0163061985	 2.379566659	 0.098656
H	 0.0163820773	 0.2633594082	 3.3067974617	 0.107864
H	 1.4828146336	-2.6128291374	 3.2713026055	 0.286939
H	 3.9420787958	-1.5767559097	 3.2201550548	 0.111759
H	 3.6591539568	-0.0363046867	 2.2799657182	 0.120996
H	 2.8015316915	 1.0647200289	 4.434304738	 0.109299
H	 3.080373726	-0.5113062934	 5.3197328575	 0.122106
35.0278	72.1704	125.159	172.907	223.7872	285.6323	321.4379	338.9407	372.1173	424.8361	440.3199	506.1236	528.6021	743.3739	761.3782	775.6693	823.0615	898.4556	917.3152	925.4625	930.2085	975.8924	999.3645	1011.0284	1046.0431	1075.1108	1090.9879	1096.956	1170.8832	1181.4559	1185.4668	1215.3032	1282.0661	1301.7206	1317.129	1334.2117	1373.4119	1405.1897	1419.9693	1453.496	1461.8884	1470.577	1490.354	1500.3138	1512.1702	3027.6555	3039.8807	3068.7768	3082.5687	3099.9082	3100.9909	3135.966	3136.9325	3139.905	3220.938	3234.4352	3804.0397
CC1OC1CC1(O)CC1	C[C@H]1O[C@H]1CC1(O)CC1	
InChI=1S/C7H12O2/c1-5-6(9-5)4-7(8)2-3-7/h5-6,8H,2-4H2,1H3	InChI=1S/C7H12O2/c1-5-6(9-5)4-7(8)2-3-7/h5-6,8H,2-4H2,1H3/t5-,6+/m1/s1
