19
gdb 102431	2.35975	0.7556	0.59157	2.9919	84.24	-0.2643	-0.0593	0.2051	1833.8144	0.155806	-423.003959	-422.99292	-422.991976	-423.042276	36.919	
C	-1.5009304424	-0.2291073924	 0.0450727137	-0.390191
C	 0.0231389808	-0.13177841	 0.1141572923	-0.173049
C	 0.7344796918	-0.6095414826	-1.1756221796	-0.15544
C	 2.2412034384	-0.2935561789	-1.1512483647	-0.088913
O	 2.3736308066	 1.1157780902	-1.0892826396	-0.417384
C	 0.523670862	-2.0308578137	-1.4197345768	 0.116585
C	 0.3808263475	-3.2168877695	-1.6060182099	 0.005566
C	 0.1677902266	-4.6222866123	-1.8311473715	 0.019377
O	 1.0477692572	-5.4262962612	-2.0408185103	-0.231449
H	-1.9003836643	 0.3850121325	-0.7696368026	 0.117867
H	-1.8280811412	-1.2599596272	-0.1222231449	 0.125011
H	-1.9544875664	 0.1205278513	 0.9771627938	 0.118225
H	 0.3334745401	 0.9029528397	 0.2818757323	 0.12682
H	 0.4010173484	-0.7213649835	 0.9582287705	 0.103577
H	 0.3086131267	-0.0528852302	-2.0233405014	 0.124102
H	 2.700160905	-0.7863590682	-0.2805748521	 0.102035
H	 2.71208598	-0.704867553	-2.0553287765	 0.105873
H	 3.3082575073	 1.33041418	-1.0211528508	 0.294008
H	-0.8975043543	-4.929999151	-1.7979551219	 0.09738
21.8024	62.5212	87.2866	100.4294	143.9734	188.2989	203.8246	220.6159	243.4538	307.5281	341.031	411.7304	498.5296	550.0899	640.6671	759.92	825.4618	871.4977	981.6115	1012.124	1022.3813	1045.4559	1081.8059	1102.6657	1138.6628	1177.9272	1231.0817	1251.6142	1279.6506	1316.8809	1353.3896	1363.9687	1413.3129	1422.9985	1452.2203	1492.1402	1497.3425	1507.5377	1521.1695	1765.7474	2322.4259	2914.9473	2984.2997	3005.2059	3025.9772	3034.8486	3041.0106	3092.0306	3106.6212	3115.9657	3837.339
CCC(CO)C#CC=O	CC[C@@H](CO)C#CC=O	
InChI=1S/C7H10O2/c1-2-7(6-9)4-3-5-8/h5,7,9H,2,6H2,1H3	InChI=1S/C7H10O2/c1-2-7(6-9)4-3-5-8/h5,7,9H,2,6H2,1H3/t7-/m1/s1
