16
gdb 48669	3.5543	1.22137	1.09388	2.0529	72.19	-0.2615	-0.0394	0.2221	1110.2123	0.125034	-437.90432	-437.896677	-437.895733	-437.936737	28.691	
N	-0.0901639218	 1.2369273536	 0.3593520689	-0.544265
C	-0.0307847886	 0.0188143037	 0.0378179607	 0.431094
O	 1.1163760841	-0.6604270468	-0.2777816119	-0.25158
C	 0.8246052384	-1.9123728198	-0.9257706602	-0.158918
C	-0.6504764066	-2.1808188767	-0.6918124909	 0.211654
C	-1.1065170515	-2.1654662746	 0.7504564515	-0.336753
C	-1.1991621907	-0.901773869	-0.0489190103	-0.164043
C	-1.4290559509	-2.9230293144	-1.7042851918	 0.08331
O	-0.9605403529	-3.3803627168	-2.7179017112	-0.261056
H	 0.835703985	 1.6656930457	 0.3156816065	 0.228397
H	 1.0308279341	-1.8319099161	-1.9974554633	 0.141448
H	 1.4810254935	-2.6734111605	-0.4947347477	 0.127945
H	-2.0419233859	-2.666517291	 0.9767486196	 0.136551
H	-0.3423534652	-2.2513562303	 1.5157813821	 0.145055
H	-2.1648433146	-0.4834720731	-0.2976152297	 0.132011
H	-2.5097569163	-3.0356653941	-1.4597649623	 0.079149
85.5267	153.2503	196.2477	205.3	332.5023	357.0753	439.9773	478.5764	607.9908	684.2584	713.0364	778.944	819.022	843.3034	892.0753	940.781	963.9612	1007.185	1011.7411	1044.7896	1071.8821	1077.7407	1097.7904	1117.2549	1211.4192	1252.2093	1273.0875	1318.9726	1382.2835	1408.2743	1436.8038	1479.8612	1522.0313	1780.2137	1811.3907	2875.352	3056.3712	3102.6592	3132.1219	3216.2478	3225.0979	3479.0652
N=C1OCC2(CC12)C=O	[NH][C]1OC[C@]2(C[C@@H]12)C=O	
InChI=1S/C6H7NO2/c7-5-4-1-6(4,2-8)3-9-5/h2,4,7H,1,3H2	InChI=1S/C6H7NO2/c7-5-4-1-6(4,2-8)3-9-5/h2,4,7H,1,3H2/t4-,6-/m0/s1
