19
gdb 88056	2.1795	1.42537	1.08651	2.5014	75.86	-0.2422	-0.0329	0.2092	1191.6763	0.156833	-422.998327	-422.989116	-422.988172	-423.032986	33.142	
C	-0.1078864295	 1.3317524132	-0.2391529948	-0.409762
C	 0.0196237466	-0.1594810471	-0.0203508835	-0.058742
C	 1.36628355	-0.8423434284	-0.1107959759	-0.351144
C	 0.684766175	-0.696031047	 1.2147260817	 0.264394
C	 1.146027017	 0.0380586742	 2.4701079745	-0.140971
O	 0.6408124129	-1.0315423203	 3.3066947751	-0.294423
C	 0.2029475694	-1.7989295408	 2.1707954798	-0.021195
C	-1.2927001138	-2.0377821304	 2.173055667	 0.128689
O	-1.8602146795	-2.6815102316	 1.3274706013	-0.247913
H	 0.7656431598	 1.8673187245	 0.1480591544	 0.115396
H	-0.1911786276	 1.5650260856	-1.3057376811	 0.12611
H	-0.9948824906	 1.7360033768	 0.2607889706	 0.123296
H	-0.8218776159	-0.7491372342	-0.3757228635	 0.112628
H	 1.4181288166	-1.8323634297	-0.5525117129	 0.123625
H	 2.2403330163	-0.2227523043	-0.2928299458	 0.113498
H	 2.2305697846	 0.1610578321	 2.5812221739	 0.108342
H	 0.6500541269	 0.9926578017	 2.6870415733	 0.109018
H	 0.7291570668	-2.7589423139	 2.0788842739	 0.107047
H	-1.829439725	-1.5349439203	 3.009169712	 0.092108
56.5591	83.269	131.6863	171.2527	192.6369	209.2198	315.7323	390.1001	425.9192	453.8282	495.0248	587.6951	789.0704	826.6565	868.0901	894.4428	916.9714	965.509	996.883	1030.0091	1039.5001	1057.1437	1079.8288	1108.7851	1125.0009	1132.5222	1156.6706	1186.9403	1216.4109	1231.2342	1301.7609	1317.3858	1363.0786	1391.0524	1413.0919	1432.7046	1489.3952	1490.9242	1507.2808	1524.8818	1823.1099	2884.8546	3008.902	3017.5637	3029.0982	3053.7296	3093.2095	3096.8015	3117.5894	3145.7573	3204.8233
CC1CC11COC1C=O	C[C@H]1C[C@]21CO[C@H]2C=O	
InChI=1S/C7H10O2/c1-5-2-7(5)4-9-6(7)3-8/h3,5-6H,2,4H2,1H3	InChI=1S/C7H10O2/c1-5-2-7(5)4-9-6(7)3-8/h3,5-6H,2,4H2,1H3/t5-,6-,7+/m0/s1
