19
gdb 117265	3.39657	0.9362	0.85569	3.0897	71.91	-0.2293	-0.0219	0.2074	1419.1303	0.156887	-460.13709	-460.127363	-460.126418	-460.173719	33.298	
C	-0.7625260349	 0.5863613724	-0.5396976665	-0.241197
O	 0.2904825549	 0.5609078689	-1.4852026623	-0.215698
C	 0.7455862449	-0.7191420468	-1.806146666	-0.174626
C	 1.6291090132	-1.3549258624	-0.7342021248	 0.313061
O	 1.8348639402	-0.8505132447	 0.3444708869	-0.303347
C	 2.2598267484	-2.6970645851	-1.0819932001	 0.054754
C	 1.6639546484	-3.9434536754	-0.3799470561	-0.280425
C	 1.4125956532	-4.4456957999	-1.8164879387	-0.064951
O	 1.9013817656	-3.2073223046	-2.3835275904	-0.287658
H	-1.6237637832	-0.0057888756	-0.8888049255	 0.096373
H	-0.4419946293	 0.2140514754	 0.4392191092	 0.132095
H	-1.0723993153	 1.6293611506	-0.442096132	 0.129052
H	-0.0801323705	-1.4168058392	-2.0325969953	 0.110029
H	 1.3324524383	-0.6466003071	-2.7299726277	 0.145492
H	 3.3474472452	-2.5972018312	-0.9672406588	 0.11185
H	 2.3646102367	-4.5229247944	 0.2204956741	 0.126707
H	 0.7673679243	-3.7436817384	 0.2087583216	 0.124392
H	 2.0267166153	-5.2991610213	-2.1263738183	 0.112165
H	 0.3699638645	-4.637405801	-2.0932778796	 0.111931
26.3504	56.2723	83.322	130.7854	158.6092	203.1827	243.2043	294.0309	405.1988	465.8737	491.5303	627.1619	775.5389	800.2065	841.6435	918.3934	942.0986	953.4285	981.64	1030.1506	1047.9068	1097.9186	1137.7887	1165.6507	1175.7253	1193.1085	1208.7883	1230.7825	1251.7215	1254.9421	1297.5224	1335.8596	1355.0235	1389.2053	1431.1661	1479.1295	1482.9095	1495.0088	1513.5978	1530.6931	1813.8381	2959.5257	2978.6084	3018.5888	3028.3651	3061.1085	3069.858	3071.0263	3090.6124	3123.0583	3147.8213
COCC(=O)C1CCO1	COCC(=O)[C@H]1CCO1	
InChI=1S/C6H10O3/c1-8-4-5(7)6-2-3-9-6/h6H,2-4H2,1H3	InChI=1S/C6H10O3/c1-8-4-5(7)6-2-3-9-6/h6H,2-4H2,1H3/t6-/m1/s1
