17
gdb 83198	2.96631	1.42922	1.25546	4.1449	68.65	-0.2223	0.0257	0.248	1032.4919	0.13876	-455.149279	-455.141744	-455.140799	-455.18141	29.696	
O	-0.0027753225	 1.3924738941	 0.0820204361	-0.424769
C	 0.0399863491	 0.0141401679	 0.0129357944	 0.111521
C	-1.2841810775	-0.7285050208	 0.0093321621	-0.105065
N	-2.439144494	 0.1329982559	-0.0472862216	-0.32281
C	-3.1843443676	 0.0151780888	-1.3059541552	-0.283541
C	-2.2920720512	 0.4095378587	-2.4839901857	 0.413448
O	-2.7137139959	 0.9994785958	-3.4580279562	-0.369501
N	-0.9807387737	 0.0514895712	-2.3377450861	-0.287173
C	-0.4450422178	-0.6993155118	-1.2482509814	-0.065159
H	-0.950494424	 1.6134196666	 0.102462644	 0.286089
H	 0.8861256834	-0.4182644514	 0.5380183807	 0.105208
H	-1.3815757186	-1.6785337477	 0.5308701616	 0.092556
H	-3.0393785213	 0.00471648	 0.7572903344	 0.239709
H	-3.5757758259	-1.0001599549	-1.4866257852	 0.11376
H	-4.0285262228	 0.706470431	-1.3044767816	 0.138182
H	-0.3546995301	 0.4060704192	-3.0467862028	 0.25449
H	 0.0544857505	-1.6241449726	-1.5271877973	 0.103057
76.3511	156.4512	224.1363	307.7834	408.7439	439.6885	480.8451	529.5713	562.6479	601.3698	647.9272	661.7431	704.8869	745.5048	802.4084	816.5711	926.4002	947.046	1022.9308	1034.1526	1051.8597	1065.6237	1120.3889	1160.5574	1172.1163	1234.5477	1242.9655	1300.8115	1337.7313	1346.5369	1387.3152	1414.786	1438.2072	1470.5086	1489.2301	1489.5805	1806.6569	2965.8831	3112.576	3121.3362	3126.2749	3161.113	3558.4632	3604.2193	3632.0402
OC1C2NCC(=O)NC12	O[C@H]1[C@H]2NCC(=O)N[C@@H]12	
InChI=1S/C5H8N2O2/c8-2-1-6-3-4(7-2)5(3)9/h3-6,9H,1H2,(H,7,8)	InChI=1S/C5H8N2O2/c8-2-1-6-3-4(7-2)5(3)9/h3-6,9H,1H2,(H,7,8)/t3-,4+,5-/m0/s1
