19
gdb 26397	4.41485	0.94274	0.80851	4.9335	78.21	-0.208	0.0422	0.2502	1415.5695	0.160691	-419.253456	-419.244675	-419.243731	-419.287204	32.919	
C	-0.1480451144	 1.5347594173	 0.0793334971	-0.403702
C	-0.1591601329	 0.0131169357	-0.0431323004	 0.125816
O	-1.4356117951	-0.447670724	-0.5144586738	-0.437884
C	 0.8798687329	-0.5001454811	-1.0491776694	-0.317628
C	 1.0049897727	-1.9884042484	-1.0959375961	 0.30158
C	 2.0846094492	-2.836396927	-1.0643012009	-0.178401
N	 1.6861469583	-4.1501405502	-1.1641825778	-0.261169
C	 0.3760315022	-4.1025423237	-1.2532333908	 0.005756
N	-0.0867376573	-2.8223124182	-1.2252404337	-0.2797
H	 0.8143951342	 1.8895214191	 0.4615370673	 0.123009
H	-0.3313730146	 1.9995529845	-0.8945006567	 0.128291
H	-0.9255960404	 1.8762792276	 0.7721141796	 0.107511
H	 0.0530098992	-0.4368989554	 0.9387794604	 0.080151
H	-2.1046216827	-0.1803113502	 0.1234769838	 0.287115
H	 0.6065187313	-0.0962996506	-2.0346500608	 0.11698
H	 1.8571037645	-0.0788459914	-0.7952082104	 0.116494
H	 3.1281457483	-2.5702753445	-0.9792531819	 0.096804
H	-0.2841392398	-4.9530502484	-1.3379201845	 0.121188
H	-1.0381497955	-2.4885438911	-1.2053296209	 0.267787
72.0107	94.4309	145.7401	237.0805	287.0198	300.506	320.4719	328.739	463.8909	466.8555	612.5809	671.4468	703.9545	744.8477	808.2843	840.003	845.1695	902.0299	937.1042	945.5213	1024.3412	1051.1986	1112.4391	1114.2689	1121.0889	1146.9988	1198.7593	1259.4925	1268.4772	1304.5025	1328.9406	1384.4432	1387.4436	1408.3249	1418.7672	1429.4948	1466.0007	1491.7708	1496.6138	1509.3552	1611.8836	2985.4677	3009.3007	3030.2068	3088.8856	3097.5024	3115.306	3238.1297	3247.9941	3637.4724	3822.5711
CC(O)CC1=CN=CN1	C[C@@H](O)Cc1cnc[nH]1	
InChI=1S/C6H10N2O/c1-5(9)2-6-3-7-4-8-6/h3-5,9H,2H2,1H3,(H,7,8)	InChI=1S/C6H10N2O/c1-5(9)2-6-3-7-4-8-6/h3-5,9H,2H2,1H3,(H,7,8)/t5-/m1/s1
