15
gdb 125452	5.86158	0.94727	0.81963	4.4872	71.18	-0.232	0.0003	0.2323	1338.2622	0.114043	-450.185327	-450.176857	-450.175912	-450.220316	29.218	
C	 0.0163137491	 1.509663997	-0.0327741269	-0.494839
C	-0.0034583111	 0.0195637938	-0.0423798058	 0.375013
N	 0.1195584005	-0.7660803769	-1.1011729396	-0.37956
C	 0.0339181084	-2.0165746163	-0.5628281503	 0.454179
N	 0.1259783325	-3.1116921513	-1.4113402165	-0.39509
C	 0.0674849544	-4.4494385219	-1.0972026218	 0.146018
O	-0.0781908082	-4.9202640128	 0.001659809	-0.276312
N	-0.1326968956	-2.0723771184	 0.7472884209	-0.273357
N	-0.1532220995	-0.7445146763	 1.0562705595	-0.228825
H	 0.9625305403	 1.8821404681	-0.4355516145	 0.159435
H	-0.7875939256	 1.906736133	-0.6591369907	 0.159454
H	-0.1074942775	 1.9021483165	 0.9797169645	 0.129035
H	 0.2521543995	-2.8611456229	-2.380493208	 0.265693
H	 0.175256444	-5.0602905072	-2.016263742	 0.078299
H	-0.2708572214	-0.4657064743	 2.0163765822	 0.280858
25.0379	44.8624	149.004	180.4262	262.624	270.6477	410.2901	423.0126	529.7576	589.5025	600.2993	692.9496	735.2954	769.4542	881.5962	996.1354	1017.4068	1020.6709	1059.4308	1078.7469	1146.1986	1193.707	1276.4368	1354.5331	1415.5536	1439.0015	1443.0676	1471.1459	1497.7955	1539.5209	1588.2532	1607.9957	1832.0193	2929.0225	3049.1582	3114.4391	3127.8524	3629.782	3666.34
CC1=NC(NC=O)=NN1	Cc1nc(NC=O)n[nH]1	
InChI=1S/C4H6N4O/c1-3-6-4(5-2-9)8-7-3/h2H,1H3,(H2,5,6,7,8,9)	InChI=1S/C4H6N4O/c1-3-6-4(5-2-9)8-7-3/h2H,1H3,(H2,5,6,7,8,9)
