16
gdb 72629	2.56283	1.50107	1.21527	2.1222	70.76	-0.247	0.0101	0.2571	1050.8805	0.122096	-437.854955	-437.846178	-437.845234	-437.888192	32.183	
C	 0.0798125486	 1.5624803119	-0.0649777379	-0.502468
C	 0.1312741719	 0.07989157	 0.0708875158	 0.37815
O	 0.520081098	-0.7028551854	-1.056646355	-0.314904
C	 1.1803332804	-1.6780102243	-0.1965031841	-0.146412
C	 0.680325207	-0.9441227004	 1.0328298351	 0.301881
O	 1.3826421581	-0.9104467422	 2.2067674572	-0.44607
C	-0.8437867074	-0.7911078328	 0.9077459824	-0.334207
C	-1.448453673	-0.1748554678	 2.0480723514	 0.268529
N	-1.8687680434	 0.3245676825	 3.0059431449	-0.343719
H	 1.0595147739	 1.9512111849	-0.3570063949	 0.142019
H	-0.6479488555	 1.8491021152	-0.831784614	 0.144468
H	-0.2177118261	 2.0255075263	 0.8790001913	 0.152684
H	 0.8315196611	-2.7007928226	-0.3702948344	 0.119887
H	 2.2677193418	-1.6192721891	-0.3084463709	 0.133788
H	 0.7950063774	-0.6563368333	 2.9299926287	 0.311028
H	-1.4392468429	-1.5472777329	 0.4019327344	 0.135345
115.796	118.6313	179.8142	187.4479	219.1991	262.7986	357.7481	361.5144	401.6743	498.0887	519.96	562.9551	689.4946	712.6102	727.2747	872.0454	914.8751	969.3414	971.7487	1045.3868	1058.7437	1087.0444	1114.6078	1142.2911	1170.5567	1269.1816	1288.1397	1325.1215	1397.6891	1424.4707	1459.3063	1478.3447	1497.1109	1517.5982	2332.3581	3041.6605	3043.9419	3101.6101	3108.8364	3131.9917	3140.2662	3774.4689
CC12OCC1(O)C2C#N	C[C@@]12OC[C@]1(O)[C@H]2C#N	
InChI=1S/C6H7NO2/c1-5-4(2-7)6(5,8)3-9-5/h4,8H,3H2,1H3	InChI=1S/C6H7NO2/c1-5-4(2-7)6(5,8)3-9-5/h4,8H,3H2,1H3/t4-,5-,6-/m0/s1
