18
gdb 92034	2.91004	1.6091	1.22296	2.7377	70.27	-0.2468	0.0632	0.31	1024.3376	0.149793	-439.041577	-439.03423	-439.033286	-439.073172	29.622	
O	-0.0004923158	 1.4247917409	-0.0027012098	-0.436691
C	 0.043770896	 0.0037891939	-0.0376823078	 0.108094
C	 0.8557609488	-0.5588954022	 1.1442384121	-0.241505
C	 0.833129398	-2.0811879279	 1.2093675876	-0.060471
N	-0.0151607663	-2.6852576274	 2.2565796779	-0.321391
C	-0.4279680866	-2.7814732428	 0.8479620526	-0.053688
C	-1.6001119665	-1.9540629721	 0.3924409177	 0.049466
O	-1.971377167	-0.8266939654	 1.1831979312	-0.24733
C	-1.354214528	-0.5836923123	-0.0898295119	 0.008083
H	-0.4582100781	 1.6744732001	 0.8086985763	 0.285637
H	 0.5440963712	-0.2353732337	-0.9854230665	 0.090251
H	 1.8802199443	-0.1849865254	 1.0676381411	 0.105132
H	 0.4240279085	-0.1688663285	 2.070999243	 0.122051
H	 1.7637132143	-2.5894547172	 0.9692075419	 0.087458
H	 0.379122186	-3.5738656079	 2.5553607261	 0.232326
H	-0.357741878	-3.7494010845	 0.3562638341	 0.083947
H	-2.4457834888	-2.5089648927	-0.013848071	 0.092337
H	-2.0121944221	-0.1472831849	-0.8410459047	 0.096295
115.7156	199.0092	247.2214	335.3409	376.8746	404.1376	416.3969	487.8867	577.3636	620.7275	692.7846	761.8048	823.2926	842.6167	878.3965	911.6209	926.3499	968.1124	977.6691	1013.9885	1062.3267	1078.649	1099.2007	1129.5181	1138.2397	1166.0794	1191.4218	1233.2175	1246.4125	1276.208	1285.8817	1330.3864	1364.2862	1374.5157	1402.0036	1428.0019	1456.2703	1462.2828	1476.4524	3028.5167	3057.1136	3103.2751	3105.484	3119.7512	3128.5346	3138.3503	3499.2851	3792.6296
OC1CC2NC2C2OC12	O[C@H]1C[C@H]2N[C@H]2[C@H]2O[C@@H]12	
InChI=1S/C6H9NO2/c8-3-1-2-4(7-2)6-5(3)9-6/h2-8H,1H2	InChI=1S/C6H9NO2/c8-3-1-2-4(7-2)6-5(3)9-6/h2-8H,1H2/t2-,3+,4-,5+,6-/m1/s1
