21
gdb 94468	2.6635	1.45186	1.22208	1.0529	78.36	-0.2327	0.0722	0.3048	1123.6367	0.183371	-424.226024	-424.217408	-424.216464	-424.259291	33.292	
O	 0.2284477885	 0.8580489262	-0.8179725834	-0.434782
C	 0.0303290957	-0.2285066422	 0.0581062935	 0.082724
C	-0.0605039843	 0.0161724916	 1.5889468581	-0.273487
C	-1.2383451963	-0.9962202179	 1.6224037268	-0.297828
C	-1.4154459758	-0.7937151618	 0.0944664945	 0.425302
C	-2.5040829998	 0.1929334179	-0.3485250719	-0.27599
C	-2.7556537439	-0.2411951817	-1.7988194777	-0.233212
C	-2.5923265383	-1.7596599264	-1.6909142711	-0.071984
O	-1.6223615907	-1.9769824558	-0.6641905253	-0.315311
H	 1.1623492516	 1.0884992892	-0.8170211524	 0.285563
H	 0.7168130801	-1.0567873004	-0.1645456556	 0.075671
H	 0.821620333	-0.2054037195	 2.1930624792	 0.094907
H	-0.3912602925	 1.0375061887	 1.7959938814	 0.106737
H	-0.9040283515	-2.0145135038	 1.8345381865	 0.112394
H	-2.0955316832	-0.7613572047	 2.2575202024	 0.097098
H	-3.4032067376	 0.0466517458	 0.2614752402	 0.094802
H	-2.1885459357	 1.2332114487	-0.2607177772	 0.119441
H	-3.7357142535	 0.0544245575	-2.1813506818	 0.095207
H	-1.9842851612	 0.1816481887	-2.4489025347	 0.122882
H	-3.5408306887	-2.2425798048	-1.410488516	 0.088887
H	-2.2353848558	-2.2273919353	-2.6145944555	 0.100981
73.8813	120.8368	182.5026	208.5801	257.8435	278.1485	335.1383	439.276	472.4847	535.206	615.9095	677.679	752.4703	797.1172	863.1343	878.5828	899.3139	923.1746	935.7322	957.1847	977.07	1013.1874	1043.6585	1099.4303	1112.1175	1141.2113	1152.5	1164.6059	1195.4022	1210.6435	1220.2064	1240.6083	1261.3246	1269.0841	1276.3806	1323.5062	1339.0195	1343.1918	1392.6724	1425.3125	1479.1456	1480.9159	1494.5534	1498.7109	1530.3426	2986.4163	3012.586	3040.1867	3056.9909	3062.6714	3068.0933	3068.3827	3113.038	3113.3929	3127.837	3129.1863	3822.7257
OC1CCC11CCCO1	O[C@H]1CC[C@]21CCCO2	
InChI=1S/C7H12O2/c8-6-2-4-7(6)3-1-5-9-7/h6,8H,1-5H2	InChI=1S/C7H12O2/c8-6-2-4-7(6)3-1-5-9-7/h6,8H,1-5H2/t6-,7-/m0/s1
