16
gdb 124711	4.70377	1.05344	0.86541	4.4681	82.13	-0.205	-0.0209	0.1841	1279.6132	0.124419	-434.080915	-434.072328	-434.071384	-434.11545	31.124	
C	-0.4830684157	 1.4857035536	 0.2327023874	-0.464975
C	-0.0403209448	 0.059101192	 0.0003521001	 0.383141
N	 0.0437773214	-0.7089410391	 1.1202645547	-0.519274
N	 0.2401808143	-0.5156149137	-1.1238627298	-0.406137
C	 0.1649562441	 0.0738036067	-2.3442595947	 0.512806
C	 0.4513643253	-0.4638996725	-3.5742384869	-0.357684
C	 0.1993056126	 0.5916244655	-4.4763150939	 0.039451
N	-0.2063922096	 1.6881306849	-3.8791167479	-0.161667
O	-0.2311824062	 1.3659063477	-2.5162934199	-0.235492
H	 0.2581166628	 2.1806636116	-0.1672574928	 0.167339
H	-1.4135885597	 1.6821286574	-0.3041371014	 0.170478
H	-0.6354244255	 1.6910468029	 1.2950417568	 0.109491
H	 0.0289235768	-0.2928025806	 2.0334676939	 0.26335
H	 0.4278822555	-1.6349545219	 1.0216116787	 0.265035
H	 0.7886372281	-1.4655638084	-3.7758341562	 0.111029
H	 0.2980439905	 0.5974881638	-5.5534092781	 0.123108
18.7111	125.4983	161.4141	172.7144	228.4316	350.5615	356.5131	410.7554	517.7179	537.3415	635.6175	639.0405	729.648	739.0662	797.4294	866.2444	921.2349	923.7115	930.9915	996.2189	1020.0757	1052.1895	1055.6669	1123.3442	1217.742	1286.3735	1365.5716	1392.9014	1409.2739	1471.533	1483.0342	1519.6841	1607.4684	1648.2577	1693.8558	3057.1152	3136.0094	3138.3049	3233.8374	3289.3838	3607.0286	3746.034
CC(N)=NC1=CC=NO1	CC(=Nc1ccno1)N	
InChI=1S/C5H7N3O/c1-4(6)8-5-2-3-7-9-5/h2-3H,1H3,(H2,6,8)	InChI=1S/C5H7N3O/c1-4(6)8-5-2-3-7-9-5/h2-3H,1H3,(H2,6,8)
