16
gdb 126046	3.77396	1.06586	1.05478	3.8379	70.95	-0.2549	-0.037	0.2179	1186.974	0.124533	-434.019976	-434.012112	-434.011168	-434.05314	28.873	
C	 1.0425790939	 1.2063732556	-0.6462443968	-0.3992
C	 0.125507056	 0.1526045647	-0.081816099	 0.021247
N	 0.7325409623	-1.106816262	 0.3692183302	-0.340606
C	 0.0910296834	-0.2357287523	 1.366688728	-0.169302
C	 0.9867611726	 0.3365746112	 2.3871203783	 0.291829
C	 2.3190685964	 0.1744741688	 2.6061153279	-0.043296
O	 2.6770477354	 0.8934049384	 3.6666892119	-0.162731
N	 1.4857445341	 1.5338888125	 4.1344999576	-0.005412
N	 0.5434945688	 1.1910313395	 3.3771876325	-0.188976
H	 1.9681019945	 1.2743378022	-0.0701472821	 0.126034
H	 1.3052690119	 0.9695915305	-1.6823913699	 0.125506
H	 0.555550258	 2.1868762795	-0.633749907	 0.126807
H	-0.8380316953	 0.0743207005	-0.584277084	 0.093253
H	 0.1383690781	-1.9026665808	 0.1567763236	 0.240043
H	-0.8845555574	-0.5197645781	 1.7550745514	 0.104049
H	 3.0765499071	-0.4036379203	 2.1053745776	 0.180755
55.3249	115.4149	161.9203	203.536	284.4933	386.9239	431.7133	520.91	623.9319	638.4744	681.234	752.3276	790.7822	851.9296	872.2822	938.3638	980.482	1000.9637	1021.2844	1045.5753	1076.2087	1134.1666	1144.0557	1187.2494	1225.9669	1246.0229	1260.0136	1324.2351	1399.1039	1422.2282	1448.6439	1481.5895	1489.2664	1499.6517	1629.093	3041.2528	3104.5601	3109.0372	3131.0291	3135.3445	3299.7683	3517.2405
CC1NC1C1=CON=N1	C[C@H]1N[C@H]1c1conn1	
InChI=1S/C5H7N3O/c1-3-5(6-3)4-2-9-8-7-4/h2-3,5-6H,1H3	InChI=1S/C5H7N3O/c1-3-5(6-3)4-2-9-8-7-4/h2-3,5-6H,1H3/t3-,5-/m1/s1
