18
gdb 127063	5.66577	0.74392	0.67118	1.3143	74.58	-0.254	-0.0015	0.2526	1652.2272	0.14862	-435.263289	-435.254317	-435.253373	-435.29917	30.989	
C	-0.1148427685	 1.4947015058	 0.1262251667	-0.387053
C	 0.0311876283	-0.0137201828	 0.0268277808	-0.022357
O	 0.6358332227	-0.4861326862	 1.2151374431	-0.246777
C	 0.8239199429	-1.8828959659	 1.2231208826	-0.167418
C	 1.5320417283	-2.2506321741	 2.4874940165	 0.291758
N	 1.4834555501	-3.4814145213	 3.0003918053	-0.279686
N	 2.2494375591	-3.3876093198	 4.0808695937	-0.073868
N	 2.7881773565	-2.2029750854	 4.3283033159	-0.195663
C	 2.3439541036	-1.4558802988	 3.3166065613	-0.111676
H	 0.863531818	 1.9677048288	 0.2495817226	 0.127245
H	-0.5812022086	 1.8922567007	-0.7799847617	 0.116917
H	-0.7368002665	 1.7641547156	 0.9843947048	 0.129709
H	-0.9534507135	-0.491150955	-0.1116899219	 0.08951
H	 0.647202444	-0.2887774238	-0.8462083158	 0.088279
H	-0.1355391146	-2.4207127285	 1.1608261682	 0.110869
H	 1.4191767706	-2.1939812429	 0.3463827916	 0.105457
H	 2.3998788158	-4.1752767821	 4.6898651661	 0.291941
H	 2.6022993318	-0.4144684142	 3.2275681403	 0.132813
19.6469	73.3387	99.8002	111.6193	243.8451	265.9254	296.781	353.8873	493.4491	517.1257	697.978	722.4319	751.5012	821.7472	889.1325	907.8533	996.5602	1025.359	1044.2171	1047.619	1145.1436	1153.3909	1170.162	1189.09	1206.4108	1240.3319	1247.7207	1296.848	1341.116	1383.509	1402.1626	1417.2168	1450.5617	1483.6683	1488.5865	1499.3034	1509.6391	1534.1523	1573.7078	2944.9519	2957.7761	2980.809	2989.7647	3045.5233	3120.2738	3122.4084	3290.9185	3671.8145
CCOCC1=NNN=C1	CCOCc1n[nH]nc1	
InChI=1S/C5H9N3O/c1-2-9-4-5-3-6-8-7-5/h3H,2,4H2,1H3,(H,6,7,8)	InChI=1S/C5H9N3O/c1-2-9-4-5-3-6-8-7-5/h3H,2,4H2,1H3,(H,6,7,8)
