17
gdb 77050	3.43052	0.96343	0.80022	3.345	74.53	-0.2572	-0.0388	0.2184	1383.8592	0.133915	-418.009542	-418.000411	-417.999467	-418.044186	32.295	
C	 0.0427352756	 1.6002915574	-0.068648909	-0.397984
C	 0.0841065768	 0.0848372394	 0.0235625115	-0.065236
N	 0.7195360002	-0.642629546	-1.1119316824	-0.100145
C	-0.1705040736	-1.2762566767	-2.06370514	-0.295443
C	 0.5766320445	-1.9430273861	-3.1364255975	 0.278897
N	 1.1625535397	-2.4863377375	-3.9701329612	-0.297406
C	 1.5222340845	-1.5178964659	-0.2216041632	-0.295763
C	 1.1299966304	-0.5857557316	 0.9337772315	 0.387422
O	 1.4976180716	-0.4161918769	 2.0552364677	-0.27972
H	 1.0312143744	 1.996944942	-0.3129872949	 0.136479
H	-0.6615811781	 1.9299110431	-0.8389699592	 0.124641
H	-0.2788276181	 2.020976598	 0.8888091933	 0.140324
H	-0.9147807118	-0.3181495298	 0.2720015937	 0.093521
H	-0.841384328	-2.0268668756	-1.6010944551	 0.130571
H	-0.8116767909	-0.5113644792	-2.5165757249	 0.160985
H	 1.1086060655	-2.5299774015	-0.0809003908	 0.126832
H	 2.5821812274	-1.5985748331	-0.4776077394	 0.152025
58.1173	86.7824	124.3586	176.8351	192.2346	275.9585	288.856	382.9139	389.6453	467.7917	511.6451	575.0193	676.3742	753.7785	824.0659	902.0788	930.795	965.3447	1018.7146	1047.0045	1080.0759	1103.7016	1139.6909	1150.4326	1201.7833	1244.4194	1275.7005	1297.8633	1350.5545	1390.1279	1403.9592	1465.5447	1479.0391	1483.9612	1495.2039	1923.4756	2368.867	2914.6993	2942.2515	2982.2763	3042.5291	3062.9871	3092.1706	3112.57	3129.8087
CC1N(CC#N)CC1=O	C[C@H]1N(CC#N)CC1=O	
InChI=1S/C6H8N2O/c1-5-6(9)4-8(5)3-2-7/h5H,3-4H2,1H3	InChI=1S/C6H8N2O/c1-5-6(9)4-8(5)3-2-7/h5H,3-4H2,1H3/t5-/m1/s1
