19
gdb 58905	3.28443	1.27038	1.06803	2.3373	70.6	-0.2557	0.0718	0.3276	1165.5528	0.158434	-460.144448	-460.135722	-460.134778	-460.178156	32.813	
C	-1.0790154251	 0.2380837609	-0.0174531371	-0.418214
C	 0.4276991873	 0.1273500805	-0.2436077826	 0.029978
O	 0.9952004278	 1.3797064019	-0.6278193833	-0.431199
C	 1.1892133796	-0.4037748056	 0.9501737805	 0.3764
C	 2.6654835792	-0.7402662817	 0.829434163	-0.132832
O	 3.0095541954	-1.4352057587	 2.0230613384	-0.256421
C	 1.8451265496	-2.0236475727	 2.5871509804	-0.102234
C	 0.684313926	-1.2025382269	 2.0711943362	-0.063371
O	 0.8944469133	 0.2076851949	 2.224225772	-0.297142
H	-1.2881946791	 0.8139470068	 0.8893441273	 0.131519
H	-1.5354167019	 0.7441388237	-0.8712541131	 0.127622
H	-1.5409635145	-0.7485945957	 0.087494716	 0.115359
H	 0.6231244484	-0.5349250522	-1.0957056458	 0.093399
H	 0.8924851482	 1.9767162831	 0.123268145	 0.289494
H	 2.8252585155	-1.3641506243	-0.0654099114	 0.093631
H	 3.3042125325	 0.1438482034	 0.7549014415	 0.125678
H	 1.7182628868	-3.073294628	 2.2725221589	 0.094893
H	 1.9487774358	-1.9970886794	 3.6768266048	 0.121131
H	-0.339257855	-1.5537993999	 2.1631057793	 0.102311
41.7597	150.5295	190.6199	223.6664	246.0822	294.434	329.4499	375.6604	431.0451	467.3508	496.5379	681.3734	694.3341	774.8677	871.211	904.1949	910.577	934.5352	974.9193	992.3259	1038.2208	1055.4951	1083.3644	1102.8984	1118.039	1138.3903	1195.6507	1221.5203	1242.7052	1274.6782	1298.8544	1349.1117	1375.0388	1382.3327	1400.7677	1421.9236	1468.4144	1490.5159	1499.1358	1503.2345	1510.9995	2967.145	2976.2745	3041.6006	3042.9008	3072.7466	3092.5525	3112.9002	3130.1011	3163.1398	3788.1642
CC(O)C12COCC1O2	C[C@@H](O)[C@]12COC[C@H]1O2	
InChI=1S/C6H10O3/c1-4(7)6-3-8-2-5(6)9-6/h4-5,7H,2-3H2,1H3	InChI=1S/C6H10O3/c1-4(7)6-3-8-2-5(6)9-6/h4-5,7H,2-3H2,1H3/t4-,5-,6-/m1/s1
