19
gdb 8215	5.11297	1.17936	1.05041	1.1815	73.37	-0.254	0.0345	0.2885	1178.0327	0.165326	-365.068455	-365.059972	-365.059028	-365.102039	30.817	
C	 0.2301261206	 1.4134317767	 0.2095422183	-0.46113
C	-0.0757054189	-0.0610658158	 0.1309634742	 0.389468
N	-0.6033404677	-0.8090470164	 1.0122150335	-0.523578
O	 0.2995727034	-0.5473806733	-1.0707715721	-0.251139
C	 0.1032855914	-1.9413468613	-1.2970844036	 0.193461
C	-1.3050608754	-2.4375016426	-1.6956788832	-0.232476
C	-0.6164350473	-3.3358404143	-2.7626112283	-0.221046
C	 0.6437754846	-2.4299325939	-2.6523388736	-0.256337
H	 1.3014838945	 1.5838997944	 0.0659359184	 0.145439
H	-0.2911809996	 1.9486070182	-0.5900172257	 0.145017
H	-0.0727571829	 1.8265392283	 1.1729239823	 0.124754
H	-0.8111886569	-0.2752336569	 1.8529945802	 0.217346
H	 0.4982090439	-2.501262108	-0.4459601482	 0.099626
H	-1.9106467921	-2.9053319066	-0.9192037981	 0.112144
H	-1.8754151677	-1.6288599131	-2.1620589028	 0.103028
H	-0.4284452552	-4.3454730541	-2.3879963341	 0.106314
H	-1.0933873491	-3.4120333732	-3.7413153722	 0.101086
H	 0.6172324045	-1.6171068321	-3.3835876541	 0.109779
H	 1.6308001599	-2.8970293659	-2.6728009207	 0.098245
71.5923	87.2517	118.2705	137.362	212.1329	344.1471	371.6134	465.7486	570.0287	579.3838	671.4478	770.0804	789.7088	856.1402	908.5581	915.3122	921.4832	952.305	965.4286	1025.5146	1067.5035	1073.3669	1095.6047	1129.3587	1160.3785	1192.8258	1242.1372	1247.6165	1253.791	1272.5817	1296.4443	1361.6902	1394.4716	1426.8603	1471.6877	1475.3703	1482.3178	1488.2993	1510.7571	1723.0779	3048.4346	3061.7395	3065.6396	3068.5218	3082.4786	3111.6646	3111.7861	3123.948	3138.2399	3143.6269	3514.1941
CC(=N)OC1CCC1	C[C]([NH])OC1CCC1	
InChI=1S/C6H11NO/c1-5(7)8-6-3-2-4-6/h6-7H,2-4H2,1H3	InChI=1S/C6H11NO/c1-5(7)8-6-3-2-4-6/h6-7H,2-4H2,1H3
