14
gdb 127813	2.5444	1.89794	1.09449	1.2379	69.43	-0.2471	-0.053	0.1941	1017.9141	0.102271	-466.167407	-466.159655	-466.158711	-466.199891	28.209	
C	-0.3805124363	 1.3593955543	-0.0394916776	-0.315107
N	 0.0628763862	-0.0290344606	 0.0039439706	-0.065363
N	 0.28680314	-0.6038741745	-1.2043562609	-0.074793
N	 0.6707875503	-1.7941043239	-1.2916279092	-0.093809
N	 0.8604770234	-2.5062101804	-0.1291652627	-0.297833
C	 0.6793618484	-2.0745267564	 1.1603506442	 0.409644
O	 0.8688696067	-2.7681705389	 2.1347427809	-0.349876
C	 0.2212138497	-0.6510346829	 1.2385584756	 0.297329
N	-0.0138680332	-0.027774516	 2.3216905351	-0.517635
H	 0.3279645306	 1.9928987249	 0.4999302807	 0.158014
H	-0.4394440752	 1.6501076583	-1.0867321505	 0.155891
H	-1.3555764986	 1.4534437468	 0.4449196073	 0.15802
H	 1.1695815219	-3.4564378298	-0.2829261187	 0.284644
H	 0.1643519461	-0.6649189208	 3.1002890652	 0.250874
98.0885	144.531	162.1519	213.6002	324.5973	343.4358	477.9324	490.4487	541.913	576.5422	606.4847	686.4488	698.52	785.686	904.1588	909.3682	983.0848	1050.3303	1087.6217	1155.0163	1226.3191	1283.0612	1300.8304	1414.2926	1434.2629	1466.2714	1471.8466	1506.4244	1582.5079	1705.6314	1810.7872	3059.5269	3124.1855	3179.9483	3477.8282	3608.1641
CN1N=NNC(=O)C1=N	CN1N=NNC(=O)[C]1[NH]	
InChI=1S/C3H5N5O/c1-8-2(4)3(9)5-6-7-8/h4H,1H3,(H,5,7,9)	InChI=1S/C3H5N5O/c1-8-2(4)3(9)5-6-7-8/h4H,1H3,(H,5,7,9)
