19
gdb 115544	2.42678	1.20094	1.03106	4.1647	77.16	-0.2242	0.0161	0.2403	1260.9067	0.158523	-419.193679	-419.184112	-419.183168	-419.228015	35.154	
C	 0.0511374341	 1.446038534	-0.3216847016	-0.319898
N	-0.0556794919	 0.1166102093	 0.2635240756	-0.290706
C	-1.3299070772	-0.5098279954	 0.0886387547	 0.048749
C	-1.8840493953	-1.0244729743	-1.2885432542	-0.263125
C	-2.4565659852	-2.2532023106	-0.5354397477	-0.269546
C	-1.4477356929	-1.9722979956	 0.6202250207	 0.237542
O	-0.1991011666	-2.6080313964	 0.4136279131	-0.467542
C	-1.9187587061	-2.1709977527	 1.9951705949	 0.226393
N	-2.3153950383	-2.349955096	 3.0663385355	-0.33869
H	 1.0560555306	 1.8391729131	-0.1448802339	 0.124724
H	-0.1461488999	 1.4869128752	-1.4068894009	 0.099489
H	-0.6600214361	 2.1197691676	 0.169961717	 0.124603
H	 0.6772561049	-0.4960020447	-0.0747235274	 0.233089
H	-2.0984078228	 0.1033934389	 0.5725605693	 0.102443
H	-2.593071039	-0.3866953924	-1.8181449226	 0.106553
H	-1.0723333931	-1.3049541767	-1.9637992825	 0.113682
H	-3.4900274496	-2.1083901626	-0.2131493648	 0.126133
H	-2.3575329347	-3.2357909861	-1.0012981294	 0.110544
H	-0.3026657509	-3.5505811844	 0.584653694	 0.295564
79.5121	119.8846	156.2187	167.2504	202.2005	225.563	278.6487	319.9353	378.1654	397.2065	486.575	532.0181	604.4213	616.1771	726.6276	762.0544	814.744	910.3109	930.8136	967.773	985.4476	1037.2198	1077.5712	1113.8734	1136.077	1158.841	1181.0534	1209.5202	1234.6921	1257.8219	1275.9845	1294.9059	1339.0418	1383.2048	1461.2847	1468.363	1488.9056	1489.429	1503.7526	1521.6443	2348.4239	2954.9969	3049.995	3056.3628	3071.4038	3075.944	3107.3449	3124.5729	3139.6896	3549.9537	3810.1513
CNC1CCC1(O)C#N	CN[C@H]1CC[C@]1(O)C#N	
InChI=1S/C6H10N2O/c1-8-5-2-3-6(5,9)4-7/h5,8-9H,2-3H2,1H3	InChI=1S/C6H10N2O/c1-8-5-2-3-6(5,9)4-7/h5,8-9H,2-3H2,1H3/t5-,6-/m0/s1
