17
gdb 7961	3.34642	1.89028	1.39421	4.5723	65.59	-0.2499	0.0581	0.308	921.4093	0.14249	-401.034	-401.026249	-401.025305	-401.066031	28.964	
C	 0.3022124118	 1.3901690009	-0.3997810317	-0.405579
C	-0.1203996745	 0.0554761701	 0.2006512643	 0.091908
O	-0.0696584175	-0.9698095669	-0.807766596	-0.236299
C	 1.0719155498	-1.6840047428	-0.6612115374	 0.4818
N	 1.4600276222	-2.5192655356	-1.5172805592	-0.579183
O	 1.6923028222	-1.3537145034	 0.5081422895	-0.264588
C	 0.8012085376	-0.5347702534	 1.2884576942	 0.10209
C	 1.600858024	 0.4263267712	 2.145714911	-0.416832
H	 1.3406331561	 1.3598667102	-0.7423066744	 0.137214
H	-0.3336943583	 1.6186036456	-1.2585252449	 0.140107
H	 0.1977538257	 2.1975278849	 0.3312178029	 0.122305
H	-1.1552160938	 0.1069737632	 0.5496783994	 0.100348
H	 2.3097581882	-2.9759943875	-1.1944090811	 0.228525
H	 0.2118717827	-1.2033080394	 1.9306303112	 0.096186
H	 2.2251832877	 1.0820435158	 1.5347622181	 0.135837
H	 0.9284576078	 1.0428704929	 2.7503600899	 0.127062
H	 2.2499052484	-0.1323966158	 2.8247363443	 0.1391
100.3699	121.0383	228.5631	260.4644	267.6512	313.0746	410.4247	499.0276	504.4953	685.8067	720.1394	730.9924	783.1416	806.541	897.0076	910.716	982.7931	1021.4643	1032.3882	1066.5807	1118.3388	1125.3861	1162.0735	1181.5666	1267.4928	1343.9332	1377.1074	1386.0028	1404.5809	1414.6592	1421.3051	1479.8391	1490.2162	1496.8499	1505.9711	1799.2126	3011.2762	3045.5663	3051.6192	3076.0363	3119.5278	3122.793	3129.016	3138.1895	3534.4375
CC1OC(=N)OC1C	C[C@H]1O[C]([NH])O[C@H]1C	
InChI=1S/C5H9NO2/c1-3-4(2)8-5(6)7-3/h3-4,6H,1-2H3	InChI=1S/C5H9NO2/c1-3-4(2)8-5(6)7-3/h3-4,6H,1-2H3/t3-,4+
