23
gdb 83044	2.05017	1.74141	1.3167	0.2612	90.36	-0.2322	0.0313	0.2635	1130.5187	0.207436	-351.164026	-351.155204	-351.154259	-351.196905	35.048	
C	-0.5115939579	 1.3077967041	-0.1176685658	-0.417785
C	-0.0254610492	-0.1227137912	-0.0004544751	-0.005615
C	 1.3832330258	-0.5523969716	-0.3565490008	-0.072379
C	 2.4510047243	 0.4702605659	-0.7152049852	-0.276054
C	 2.8425178942	 1.3943061946	 0.4048981701	-0.070729
C	 2.4338307531	 1.269508185	 1.6657878613	-0.044617
C	 1.5315571427	 0.1772869239	 2.1799472751	-0.040675
C	 0.4923433672	 0.7139938385	 3.1832831691	-0.392078
C	 0.8989628459	-0.6620803412	 1.0755199509	-0.05624
H	-0.7815472416	 1.5343854046	-1.156071904	 0.109349
H	-1.4087553494	 1.46624281	 0.4909745386	 0.11337
H	 0.23812936	 2.0353839775	 0.1971642046	 0.130213
H	-0.7865594419	-0.8400387552	-0.301407571	 0.076711
H	 1.4650839582	-1.4805532779	-0.9149181742	 0.075603
H	 3.351247564	-0.062709564	-1.053831169	 0.109115
H	 2.1343193874	 1.0660034199	-1.5842423067	 0.104739
H	 3.5187281466	 2.2045381048	 0.1403585966	 0.081429
H	 2.7851483166	 1.9794863952	 2.4126978264	 0.077824
H	 2.1787025992	-0.509863276	 2.7496311285	 0.084366
H	-0.1841953469	 1.4322015424	 2.7123545953	 0.122778
H	-0.112626994	-0.1034570422	 3.5889656061	 0.109076
H	 0.9852167326	 1.2158117633	 4.0233504388	 0.106645
H	 0.6465396031	-1.6644802105	 1.4125996403	 0.074953
109.3294	166.0732	186.2373	218.4649	228.197	282.2711	300.7379	436.4801	451.5096	475.4259	539.2128	641.6401	701.5734	730.8117	761.0371	786.5653	852.5226	892.7868	916.7866	956.4014	975.7125	1007.1714	1013.3787	1045.2353	1061.1994	1083.3641	1102.8736	1115.5911	1145.1691	1157.4821	1174.2494	1210.0798	1239.0482	1265.6054	1324.08	1352.7592	1360.0317	1367.6939	1382.512	1402.4905	1421.2264	1429.5658	1451.3783	1477.4473	1493.7194	1498.0646	1506.3342	1507.6502	1729.9591	2959.3728	2994.1001	3012.0546	3027.9606	3032.7392	3078.1558	3096.1029	3110.2274	3118.7589	3124.0502	3130.4548	3135.691	3143.4166	3155.8761
CC1C2CC=CC(C)C12	C[C@H]1[C@H]2CC=C[C@@H](C)[C@@H]12	
InChI=1S/C9H14/c1-6-4-3-5-8-7(2)9(6)8/h3-4,6-9H,5H2,1-2H3	InChI=1S/C9H14/c1-6-4-3-5-8-7(2)9(6)8/h3-4,6-9H,5H2,1-2H3/t6-,7+,8-,9+/m1/s1
