17
gdb 112686	3.36686	1.11975	0.89757	3.374	65.47	-0.2719	0.0019	0.2738	1276.2928	0.135177	-496.13677	-496.127997	-496.127053	-496.170793	31.566	
C	 0.0425661705	 1.3397715736	-0.0534890784	-0.250105
O	 0.0845087433	-0.0821997759	-0.0182031443	-0.218867
C	 0.7291150321	-0.6068747444	 1.0746218578	 0.221999
C	 0.5977958505	-2.1327274297	 1.0933617586	-0.293799
C	 1.9425542402	-2.5838642178	 1.6587056229	 0.012772
O	 2.3734215526	-3.837327013	 1.2050930374	-0.43403
C	 2.8742508314	-1.4645717771	 1.1984726586	 0.40132
O	 4.0589472311	-1.5625243846	 1.0375918968	-0.35449
O	 2.1654547889	-0.3378612642	 0.9867361023	-0.234748
H	 1.0466075611	 1.7629269625	-0.1630786057	 0.142556
H	-0.5651904401	 1.6130356761	-0.9173659712	 0.139739
H	-0.4215175861	 1.7428991138	 0.8576097926	 0.1157
H	 0.3934623897	-0.12272223	 2.0039810649	 0.084598
H	-0.268539203	-2.4646462425	 1.6660498614	 0.124486
H	 0.5015635179	-2.4834967547	 0.0623605781	 0.144652
H	 1.9202054485	-2.5474396416	 2.7626249681	 0.100025
H	 3.3346498514	-3.7715754103	 1.1128598702	 0.298193
68.1558	114.1797	119.1691	175.2156	254.2427	267.1419	360.2701	391.0645	434.1376	487.69	559.284	603.052	662.1616	741.2572	807.3175	905.8418	973.1457	1014.3526	1032.6672	1081.6144	1147.9419	1169.6336	1179.5394	1186.8438	1198.8298	1247.5082	1272.0208	1289.9844	1368.3603	1396.2165	1415.1436	1426.5511	1482.3186	1486.3939	1494.1221	1509.5419	1872.1534	2945.894	2994.5942	3007.0957	3081.5358	3083.7338	3141.0012	3142.3217	3744.4638
COC1CC(O)C(=O)O1	CO[C@H]1C[C@@H](O)C(=O)O1	
InChI=1S/C5H8O4/c1-8-4-2-3(6)5(7)9-4/h3-4,6H,2H2,1H3	InChI=1S/C5H8O4/c1-8-4-2-3(6)5(7)9-4/h3-4,6H,2H2,1H3/t3-,4-/m1/s1
