25
gdb 91734	2.80425	1.32944	1.2567	0.0997	91.05	-0.2793	0.0798	0.3591	1199.7939	0.23251	-352.391149	-352.382728	-352.381784	-352.423557	34.94	
C	-0.2648371189	 1.553199496	-0.0257483733	-0.418618
C	 0.0125832008	 0.0504590635	-0.0048487023	 0.066733
C	 0.7603840073	-0.4958477243	-1.269676752	-0.243308
C	 1.9321001216	-1.3108679543	-0.674474726	 0.006322
C	 1.2930482918	-1.8667924796	 0.6178173203	-0.229885
C	 0.8998355859	-0.4747724231	 1.1558696055	-0.008732
C	 2.2739690965	 0.2326242934	 1.1662648871	-0.231645
C	 2.983687538	-0.3116358043	-0.1194307658	 0.063178
C	 4.3483484238	-0.9439943304	 0.163929832	-0.418195
H	 0.6486029299	 2.1369997908	-0.1793247194	 0.114564
H	-0.9520470893	 1.8085289832	-0.8397822122	 0.110585
H	-0.7233150405	 1.8891321602	 0.9113189008	 0.108205
H	-0.9541082613	-0.4615445524	 0.0770632408	 0.06517
H	 0.1034331964	-1.1271646064	-1.8761750878	 0.087724
H	 1.1170960774	 0.3133039101	-1.9165855507	 0.087863
H	 2.3537750516	-2.0469177181	-1.363411029	 0.047728
H	 0.4332011174	-2.5176058408	 0.4285505269	 0.085322
H	 1.9971640587	-2.3995666383	 1.2639300223	 0.087385
H	 0.3928368483	-0.4562746638	 2.1240559467	 0.047928
H	 2.2000984282	 1.3229382678	 1.1813386822	 0.092429
H	 2.8339286002	-0.0571876957	 2.0628008725	 0.088153
H	 3.1311360204	 0.4985792665	-0.8430606461	 0.059879
H	 4.262351396	-1.7970997736	 0.8461977126	 0.112963
H	 4.8212650141	-1.3008343434	-0.7577052887	 0.108342
H	 5.026591646	-0.219967343	 0.6290275938	 0.109911
97.9615	198.1725	228.5666	262.3406	273.6059	323.8861	376.6405	428.4886	458.1122	479.5373	573.1229	720.9769	739.2451	797.523	800.332	850.5675	900.8959	920.0683	927.8033	937.7379	944.5882	965.6971	974.5901	1024.0279	1038.0088	1051.7938	1072.7821	1095.0767	1118.82	1144.5419	1153.6048	1192.7542	1208.3128	1209.4634	1252.4242	1273.5865	1283.8985	1308.6274	1317.106	1334.4292	1342.6636	1355.5431	1376.2721	1387.1047	1408.7033	1411.6752	1487.4398	1492.1099	1496.6006	1498.1078	1500.7158	1509.0374	1519.4573	3015.2476	3023.8526	3024.9744	3027.5811	3037.3849	3038.2094	3047.4348	3074.9628	3077.8026	3084.1026	3089.0891	3090.1034	3091.0227	3092.7092	3098.2103	3102.3627
CC1CC2CC1CC2C	C[C@H]1C[C@@H]2C[C@H]1C[C@H]2C	
InChI=1S/C9H16/c1-6-3-9-5-8(6)4-7(9)2/h6-9H,3-5H2,1-2H3	InChI=1S/C9H16/c1-6-3-9-5-8(6)4-7(9)2/h6-9H,3-5H2,1-2H3/t6-,7+,8-,9-/m1/s1
