22
gdb 102577	2.50751	1.023	0.8229	2.39	79.	-0.2253	0.0573	0.2827	1460.5081	0.192891	-441.437219	-441.426875	-441.425931	-441.472756	37.891	
C	-0.5078965168	 1.3169891272	 0.0202502521	-0.316776
N	-0.017759341	-0.0509212571	 0.1003144235	-0.09196
C	 1.3669594635	-0.2896868031	-0.2872146271	-0.262187
C	 0.9468659205	-0.4385753337	 1.1360867621	 0.010479
C	 1.4753723445	 0.4897347874	 2.2173243226	-0.051864
C	 0.4623909599	 0.567335438	 3.364341419	-0.088977
O	 0.9602667281	 1.454736242	 4.3688328747	-0.42639
C	 2.8531601678	-0.0033070287	 2.7078619952	-0.051872
O	 3.5360052668	 0.9372057719	 3.5078431798	-0.433655
H	 0.240117699	 2.0921599864	 0.247827677	 0.106408
H	-0.8696935442	 1.4932891986	-0.9978266384	 0.125555
H	-1.3549988052	 1.4440279547	 0.7025751335	 0.120671
H	 1.5503381998	-1.1593177858	-0.9132015178	 0.114345
H	 1.9830258464	 0.5778755511	-0.5256657729	 0.108424
H	 0.768943866	-1.4536868387	 1.4948260354	 0.087689
H	 1.6233624806	 1.4984442902	 1.8167989925	 0.092004
H	-0.5089446014	 0.9211245117	 2.9912161593	 0.102416
H	 0.3116681744	-0.4417263891	 3.7795222389	 0.094737
H	 0.3962267493	 1.3910551379	 5.1448172144	 0.294911
H	 2.7201070383	-0.9665288426	 3.2343087358	 0.073528
H	 3.4930819438	-0.2015903757	 1.8412019921	 0.104606
H	 2.8955898198	 1.2499166776	 4.1607122181	 0.287909
60.2119	99.74	120.2948	143.3603	212.3554	241.1558	246.9287	270.277	337.9231	381.0686	389.5091	416.4571	489.1667	554.5818	569.1845	755.2514	859.1773	875.4721	914.6883	926.7397	1026.6078	1041.7089	1071.2177	1084.0891	1097.609	1115.6924	1128.9304	1133.5382	1162.3276	1182.6172	1204.8075	1222.5293	1235.5291	1278.3168	1287.4889	1339.3972	1347.6669	1390.3297	1424.8813	1450.5805	1456.6219	1469.2546	1489.5312	1500.6374	1507.8576	1512.8162	1521.0251	2933.4279	2978.3813	2980.5474	3021.13	3056.5238	3064.3757	3066.875	3081.6539	3088.3805	3097.7269	3169.4438	3748.9478	3835.0062
CN1CC1C(CO)CO	CN1C[C@H]1C(CO)CO	
InChI=1S/C6H13NO2/c1-7-2-6(7)5(3-8)4-9/h5-6,8-9H,2-4H2,1H3	InChI=1S/C6H13NO2/c1-7-2-6(7)5(3-8)4-9/h5-6,8-9H,2-4H2,1H3/t6-,7?/m0/s1
