23
gdb 52709	3.99985	0.64659	0.58671	0.0927	95.7	-0.2383	0.0647	0.303	1981.0113	0.203789	-351.126125	-351.115125	-351.11418	-351.164444	38.983	
C	 0.0178915452	 1.4773349836	 0.0625903253	-0.497788
C	-0.0049240707	 0.021556168	 0.0214250684	 0.078289
C	-0.0214763021	-1.1828297134	-0.0015677951	 0.053854
C	-0.0474297098	-2.6452208191	-0.0620082271	-0.16156
C	-1.49617322	-3.1650747149	-0.1510898821	-0.37965
C	 0.8475462401	-3.1531594325	-1.2221758006	-0.194146
C	 1.0472262972	-4.6544248953	-1.2421883985	 0.029742
C	 0.1593282909	-5.561233035	-2.0612093163	-0.250597
C	 1.5893070832	-5.3267873671	-2.4784643266	-0.287276
H	 1.0441622981	 1.8614932079	 0.0529059995	 0.144681
H	-0.5036914622	 1.9102293148	-0.7984733745	 0.144393
H	-0.4680268028	 1.8591071207	 0.9676115537	 0.144923
H	 0.3870054909	-3.029609322	 0.8730785762	 0.096331
H	-2.0901820303	-2.7943888413	 0.6885179147	 0.118871
H	-1.9709884511	-2.821943538	-1.0759636315	 0.117309
H	-1.516997697	-4.2575252992	-0.1374115566	 0.121339
H	 0.4154994127	-2.8223244533	-2.1753881846	 0.096908
H	 1.8220591747	-2.6572608501	-1.13867647	 0.104886
H	 1.3950766467	-5.0676891787	-0.2974392534	 0.07885
H	-0.107510321	-6.5314571369	-1.6562460906	 0.109149
H	-0.6223597914	-5.1006248469	-2.6563673114	 0.11141
H	 1.7661239012	-4.7071524279	-3.3519275227	 0.110613
H	 2.3021145375	-6.1351043834	-2.358116436	 0.109469
14.216	53.056	76.3128	101.8287	147.7941	199.8501	257.5343	277.3747	295.4044	340.3334	355.3052	420.5615	511.7464	536.4974	732.1477	776.9264	802.0804	836.8285	881.027	887.5271	934.106	981.9021	1024.4862	1051.4747	1053.8695	1054.1118	1075.251	1081.3096	1112.0495	1140.7765	1164.5269	1196.3701	1199.6704	1228.8934	1262.59	1300.8535	1340.9322	1364.6761	1405.6657	1415.5712	1417.1683	1469.6511	1479.5822	1480.0663	1482.436	1495.2463	1500.8844	1509.5281	2368.2198	2989.1865	3022.741	3024.1894	3042.6305	3061.075	3083.3323	3083.48	3112.8539	3123.781	3126.2822	3128.1088	3133.5092	3205.1904	3220.4693
CC#CC(C)CC1CC1	CC#C[C@@H](C)CC1CC1	
InChI=1S/C9H14/c1-3-4-8(2)7-9-5-6-9/h8-9H,5-7H2,1-2H3	InChI=1S/C9H14/c1-3-4-8(2)7-9-5-6-9/h8-9H,5-7H2,1-2H3/t8-/m1/s1
