18
gdb 54572	3.54774	1.39983	1.15712	2.9439	76.65	-0.24	-0.0176	0.2224	1083.505	0.147292	-401.903315	-401.895349	-401.894405	-401.936319	30.18	
C	 0.3036906891	 0.9377085353	-0.9209602489	-0.48914
C	-0.107088414	 0.1343333223	 0.2941440401	 0.26384
O	 0.5157071738	 0.149575874	 1.3354820685	-0.306374
C	-1.328266623	-0.7048362318	 0.1869407658	 0.279852
C	-1.9651973547	-1.5427025968	 1.2926395389	-0.297518
C	-2.8165597631	-2.1873825927	 0.1667462269	-0.093749
C	-3.6319176332	-0.9864221316	-0.3487350646	-0.148603
N	-2.3669625959	-0.3677222564	-0.8727327413	-0.183839
C	-1.7297423465	-1.6978979767	-0.8638147742	-0.093727
H	 1.2238081097	 1.4804241039	-0.7017320654	 0.135547
H	 0.456088068	 0.2826230604	-1.7858610663	 0.135529
H	-0.4973176332	 1.6298323753	-1.1965897677	 0.158438
H	-1.2281510791	-2.2321674431	 1.7077712481	 0.124328
H	-2.4958375623	-1.0322695385	 2.1022977776	 0.104484
H	-3.235487603	-3.1856585351	 0.2716134804	 0.083029
H	-4.27070886	-1.2210910736	-1.2035130176	 0.115827
H	-4.1827386388	-0.3813055093	 0.3799098303	 0.10559
H	-1.1860286237	-2.1335017757	-1.6924019807	 0.106485
57.2975	112.9037	160.3601	179.1654	351.0638	422.2424	442.975	466.8004	594.3639	614.8031	706.7905	750.5332	804.9859	851.8396	906.1969	924.8975	947.6173	961.7811	973.9002	987.8398	1014.5626	1041.2689	1080.9611	1113.5972	1124.3774	1148.8769	1164.7375	1189.6288	1237.3657	1249.8459	1276.0852	1315.8636	1370.7286	1401.1944	1456.5763	1468.3996	1493.4848	1513.391	1786.129	3041.6659	3044.32	3057.7242	3108.5266	3110.3621	3127.6672	3142.5798	3156.622	3198.865
CC(=O)C12CC3CN1C23	CC(=O)[C@@]12C[C@H]3CN1[C@@H]23	
InChI=1S/C7H9NO/c1-4(9)7-2-5-3-8(7)6(5)7/h5-6H,2-3H2,1H3	InChI=1S/C7H9NO/c1-4(9)7-2-5-3-8(7)6(5)7/h5-6H,2-3H2,1H3/t5-,6+,7+,8?/m0/s1
