14
gdb 20144	4.37136	2.4624	2.02214	3.4248	62.99	-0.2208	-0.0111	0.2097	676.3528	0.109232	-345.371935	-345.366667	-345.365723	-345.401072	22.102	
O	 0.0043182569	 0.0323242026	 0.188901046	-0.342642
C	-0.014276403	 1.2271107865	 0.0413460632	 0.465904
C	-1.1993242761	 2.144506612	-0.0583771273	-0.203763
C	-0.8208280042	 3.4996404726	 0.5249844445	-0.084782
C	-0.8383027318	 3.3151272933	-0.963495691	-0.084826
C	 0.7240541588	 3.3370241759	-0.9844458551	-0.084773
C	 0.7415415907	 3.5212057215	 0.504075103	-0.084835
C	 1.1417030809	 2.1770293787	-0.0900497735	-0.203763
H	-2.2121302646	 1.7716991293	-0.0002568395	 0.108449
H	-1.4729546993	 4.0759904174	 1.1656245023	 0.101645
H	-1.5067181008	 3.7194820403	-1.710213383	 0.101647
H	 1.3606244084	 3.7597099389	-1.748633799	 0.101649
H	 1.3944178608	 4.115534966	 1.1272881405	 0.101643
H	 2.1656739333	 1.8325150649	-0.0595066211	 0.108449
173.0721	434.3182	500.6518	595.0321	671.24	744.378	756.8983	766.8449	771.9461	818.6858	835.4338	871.6389	899.4702	916.8058	937.5433	942.8375	1002.5333	1016.4104	1041.2751	1053.3939	1061.4653	1090.0336	1164.0274	1205.0039	1266.033	1276.9736	1277.291	1314.784	1370.0749	1852.6778	3207.1384	3215.2881	3215.8753	3220.2245	3227.5378	3232.5503
O=C1C2C3C2C2C3C12	O=C1[C@H]2[C@@H]3[C@H]2[C@H]2[C@@H]3[C@@H]12	
InChI=1S/C7H6O/c8-7-5-1-2(5)4-3(1)6(4)7/h1-6H	InChI=1S/C7H6O/c8-7-5-1-2(5)4-3(1)6(4)7/h1-6H/t1-,2+,3-,4+,5+,6-
