16
gdb 86932	3.19003	0.92881	0.81464	2.2454	68.17	-0.251	-0.0408	0.2103	1384.5945	0.122054	-475.036188	-475.02688	-475.025936	-475.071882	31.57	
O	-0.0035012172	 1.439185197	 0.2110636361	-0.426279
C	-0.0631327578	 0.0396455179	 0.1308065915	-0.010223
C	-1.4816400771	-0.4991482893	-0.2016738264	-0.191145
N	-0.903258931	-1.0752960365	-1.4273166816	-0.095085
C	-1.4623581703	-1.8611524259	-2.4938491304	-0.261518
C	-2.4305154256	-1.0687739321	-3.3684956173	 0.152184
O	-3.4148241432	-1.5372508424	-3.8723508527	-0.223195
C	 0.3639967644	-0.5840731999	-1.2272947241	 0.37596
O	 1.3677027292	-0.6284107752	-1.8900167572	-0.372814
H	 0.9054323739	 1.7034104976	 0.0286605049	 0.302144
H	 0.4027642938	-0.4531490441	 0.9949483595	 0.099403
H	-1.8891236566	-1.2419572123	 0.4909400459	 0.119525
H	-2.2094082968	 0.298052214	-0.3770867963	 0.132056
H	-0.6209825621	-2.1733553239	-3.1276314291	 0.166437
H	-1.9682943891	-2.7608785312	-2.1262084537	 0.138489
H	-2.1378490044	-0.0038400038	-3.5123305892	 0.094062
50.5237	54.2289	93.1031	144.0393	178.5026	224.8794	287.7417	354.7028	382.5915	455.2746	540.5665	667.0638	740.3842	778.9143	834.3669	881.1839	986.9612	1011.5309	1044.2518	1072.8527	1145.2966	1158.6532	1174.9363	1201.1202	1262.6936	1304.547	1320.1703	1334.8258	1409.4278	1413.5633	1415.7962	1441.3193	1519.8133	1842.9544	1876.804	2882.2667	3016.4987	3026.9269	3049.2372	3082.9017	3105.1977	3806.6955
OC1CN(CC=O)C1=O	O[C@H]1CN(CC=O)C1=O	
InChI=1S/C5H7NO3/c7-2-1-6-3-4(8)5(6)9/h2,4,8H,1,3H2	InChI=1S/C5H7NO3/c7-2-1-6-3-4(8)5(6)9/h2,4,8H,1,3H2/t4-/m0/s1
