20
gdb 78195	2.84857	1.2402	1.03127	4.2351	83.59	-0.2715	0.0307	0.3023	1233.8864	0.170946	-366.005687	-365.996758	-365.995814	-366.039087	33.851	
C	 0.0132798353	 1.5586559286	 0.009348839	-0.421111
C	 0.0953351681	 0.0481626965	-0.0609224291	-0.029965
C	 0.6594868464	-0.7564164452	-1.2010280779	-0.060426
C	 1.3277850828	-0.7839757075	 0.1767679633	-0.064565
C	 2.5874344729	-0.0979099918	-0.3967525617	-0.187942
C	 3.8013849511	-0.8885520374	-0.2820786688	 0.275862
N	 4.7658316482	-1.5187495604	-0.1802081198	-0.33638
C	 1.9055691523	-0.1070786831	-1.8279043988	-0.007812
C	 2.588721835	-0.961868126	-2.8863006486	-0.407808
H	 0.8829842856	 2.0535164205	-0.4305972692	 0.120874
H	-0.8708197929	 1.92056287	-0.5261145756	 0.12345
H	-0.06620146	 1.8947845335	 1.0486504138	 0.124283
H	-0.7791214362	-0.4394969518	 0.3672022238	 0.095169
H	 0.0879627735	-1.5373920861	-1.6896187391	 0.089491
H	 1.3637105766	-1.5780427785	 0.9119306324	 0.105173
H	 2.7942456448	 0.8976498764	 0.0101093926	 0.117432
H	 1.7473232752	 0.9031751373	-2.2204302453	 0.081041
H	 2.7576422723	-1.9829845071	-2.5316883381	 0.136955
H	 1.9615997134	-1.0139442597	-3.7825542171	 0.116286
H	 3.5576585958	-0.542731168	-3.1733367562	 0.129995
95.8885	144.746	170.2991	184.0175	229.7806	253.1158	300.5026	349.5234	439.6876	498.1118	553.8161	592.8886	718.0986	752.3582	799.2324	828.9138	891.1906	911.6307	947.6763	997.7407	1013.0537	1025.1624	1066.094	1088.7495	1099.5129	1110.1421	1130.0374	1151.6191	1195.5852	1212.6467	1247.4275	1294.132	1316.9792	1348.8435	1371.2968	1415.8244	1418.7652	1441.5442	1490.7892	1494.7484	1497.5745	1504.5996	2351.6188	3036.6487	3037.3279	3041.3199	3053.4309	3096.0194	3106.045	3108.5619	3116.486	3128.5618	3173.1496	3193.0173
CC1C2C1C(C#N)C2C	C[C@H]1[C@@H]2[C@H]1[C@@H](C#N)[C@H]2C	
InChI=1S/C8H11N/c1-4-6(3-9)8-5(2)7(4)8/h4-8H,1-2H3	InChI=1S/C8H11N/c1-4-6(3-9)8-5(2)7(4)8/h4-8H,1-2H3/t4-,5+,6+,7-,8-/m1/s1
