17
gdb 88917	3.10903	0.95698	0.82889	4.9833	74.95	-0.254	-0.0844	0.1696	1402.6017	0.133735	-417.990282	-417.980846	-417.979902	-418.025999	32.854	
C	 0.1280480124	 1.2426877363	-0.5883808479	-0.415806
C	-0.316891017	 0.3155715552	 0.5204439644	 0.031024
C	 0.2823386438	-1.0402441325	 0.6871959338	-0.25857
N	 0.524324153	 0.0062560586	 1.6793981353	-0.088075
C	 1.8558341008	 0.5630811222	 1.7861666297	-0.26148
C	 2.5798868938	-0.0389021534	 2.9811113127	 0.303661
O	 3.7627236077	-0.2589402621	 3.0168001008	-0.257656
C	 1.7358269548	-0.3277110722	 4.1621300818	 0.245035
N	 1.1430662408	-0.5458049113	 5.1306793075	-0.310529
H	 1.157102858	 1.0529723648	-0.9045940225	 0.123502
H	-0.5164776114	 1.1077571108	-1.4628687884	 0.133221
H	 0.0508713857	 2.29193695	-0.2827111912	 0.1297
H	-1.3628420489	 0.4337473941	 0.799322429	 0.105345
H	-0.314387611	-1.8833177716	 1.0232209894	 0.130269
H	 1.1024690307	-1.2996521021	 0.0180814919	 0.116195
H	 2.5131861738	 0.4285034931	 0.9156052977	 0.127011
H	 1.7782071529	 1.6429914201	 1.9807163261	 0.147152
32.6382	59.0059	105.6674	168.6077	201.4263	249.6516	283.0843	326.2986	423.1907	438.0289	491.5495	593.2671	656.1272	733.9055	763.5586	840.7151	905.7651	945.6868	997.8375	1045.1751	1065.042	1122.3487	1147.5807	1158.7558	1189.3021	1191.8375	1259.1665	1338.4941	1351.4501	1405.249	1423.8886	1457.3636	1489.8212	1500.6582	1514.2714	1803.0829	2338.2022	2994.2824	3036.5923	3041.3663	3092.7428	3098.86	3108.2534	3127.3047	3185.8517
CC1CN1CC(=O)C#N	C[C@H]1CN1CC(=O)C#N	
InChI=1S/C6H8N2O/c1-5-3-8(5)4-6(9)2-7/h5H,3-4H2,1H3	InChI=1S/C6H8N2O/c1-5-3-8(5)4-6(9)2-7/h5H,3-4H2,1H3/t5-,8?/m0/s1
