22
gdb 101032	1.96939	1.25925	1.12582	3.678	77.62	-0.242	0.0619	0.3038	1277.2105	0.193389	-441.454751	-441.444578	-441.443634	-441.489931	38.056	
C	-0.4684291373	 1.2402218447	-0.1980210998	-0.384659
C	 0.0536734001	-0.1945699208	-0.041548864	-0.266639
C	 0.7780002468	-0.7325597464	-1.2675414007	 0.332655
C	 0.527340368	-2.1500250322	-1.655093135	-0.302932
N	-0.0253187103	-1.0501833498	-2.4683350208	-0.366899
C	 2.1522110495	-0.1071609704	-1.5269675587	 0.024614
O	 3.0480075538	-0.4738489815	-0.4801016637	-0.42471
C	 2.7660447411	-0.4056058666	-2.9053441152	-0.10102
O	 2.0276824858	 0.1439301085	-3.9694016148	-0.422157
H	 0.3436486967	 1.9555248942	-0.3555692006	 0.13334
H	-1.1565607188	 1.3290270001	-1.045896609	 0.115265
H	-1.0084491355	 1.5498521748	 0.701545443	 0.118891
H	 0.7451733646	-0.2460953793	 0.8065170527	 0.123737
H	-0.7858961761	-0.8603552888	 0.1955175113	 0.087443
H	 1.2869723407	-2.7444658759	-2.1539928293	 0.124675
H	-0.1579315208	-2.7269764358	-1.0402636288	 0.118129
H	-1.0163960118	-0.9250406652	-2.2779981581	 0.236269
H	 2.0595009592	 0.9814204235	-1.4521045905	 0.10005
H	 3.1480491338	-1.4323910652	-0.5076583226	 0.280502
H	 3.7620696182	 0.0482607187	-2.9201754333	 0.112869
H	 2.915229174	-1.4954701579	-3.0195732273	 0.066321
H	 1.1356420383	-0.2289529691	-3.8755841246	 0.294256
47.507	94.3224	162.1169	192.4608	203.0909	248.4635	259.8996	304.0203	315.7054	377.6642	408.9857	450.1068	522.3938	578.0701	644.9749	675.2053	781.5706	865.7876	881.4061	918.1466	978.2382	988.0337	1020.9464	1028.7934	1069.1239	1081.4143	1099.7938	1116.1932	1119.4128	1147.8735	1207.5952	1247.1643	1260.2447	1273.3673	1298.1778	1350.4689	1380.6694	1387.4443	1409.586	1414.6395	1421.8593	1473.5133	1479.066	1499.5888	1500.892	1505.8489	1520.6343	2930.3813	3023.9138	3037.5287	3058.8532	3072.9228	3077.2831	3104.581	3113.5389	3116.2208	3196.3696	3499.3566	3651.5553	3793.0675
CCC1(CN1)C(O)CO	CC[C@]1(CN1)[C@@H](O)CO	
InChI=1S/C6H13NO2/c1-2-6(4-7-6)5(9)3-8/h5,7-9H,2-4H2,1H3	InChI=1S/C6H13NO2/c1-2-6(4-7-6)5(9)3-8/h5,7-9H,2-4H2,1H3/t5-,6-/m0/s1
