18
gdb 24640	4.33677	1.13563	0.96877	1.7045	86.86	-0.2377	-0.0162	0.2215	1232.2407	0.150736	-364.862531	-364.855206	-364.854262	-364.89471	28.721	
C	-0.2352485358	 1.2813076369	-0.3645159258	-0.269041
C	 1.1570758881	 1.1911816129	 0.1815329575	-0.269054
C	 0.2957391909	-0.056586873	 0.1163239575	-0.066706
C	-0.2284682675	-0.7076549387	 1.3453249329	 0.352566
N	-0.2979802971	-2.0471319665	 1.3008218321	-0.326142
C	-0.7607140416	-2.6924379679	 2.3740395328	-0.000924
C	-1.1771578172	-2.061193162	 3.5405486676	-0.130654
C	-1.1051215058	-0.6714895179	 3.5869770828	-0.072923
C	-0.6264758804	 0.0138861148	 2.479848344	-0.190817
H	-0.9965793768	 1.7622366687	 0.2402776897	 0.117198
H	-0.3676034094	 1.4109206647	-1.4328397221	 0.118919
H	 1.9914224579	 1.2582081067	-0.5076752116	 0.118917
H	 1.3547908396	 1.6100670941	 1.1624189395	 0.117198
H	 0.5484113277	-0.7820473483	-0.647703272	 0.099229
H	-0.7996667094	-3.7768932456	 2.2937797496	 0.104286
H	-1.5441776785	-2.6393711447	 4.3807618274	 0.098409
H	-1.4176608009	-0.1294049163	 4.4737919632	 0.104258
H	-0.5619207938	 1.0965756322	 2.494541555	 0.095282
66.0294	147.8028	189.4747	325.5887	394.7986	418.7981	548.4488	548.8984	636.1198	756.2548	769.7494	795.0439	799.832	829.1321	903.5912	920.3833	933.3146	983.4897	1003.9056	1004.9585	1053.962	1059.2539	1073.3616	1076.6066	1118.4707	1141.2163	1179.4545	1203.4924	1215.7507	1246.3997	1306.3375	1320.185	1400.9418	1463.6965	1471.2583	1499.5707	1514.7227	1609.0153	1633.6117	3132.6555	3135.6065	3146.7198	3172.834	3184.5652	3188.4166	3202.7717	3211.5413	3227.3822
C1CC1C1=NC=CC=C1	C1CC1c1ncccc1	
InChI=1S/C8H9N/c1-2-6-9-8(3-1)7-4-5-7/h1-3,6-7H,4-5H2	InChI=1S/C8H9N/c1-2-6-9-8(3-1)7-4-5-7/h1-3,6-7H,4-5H2
