17
gdb 31994	5.75531	0.80157	0.72053	0.1453	73.02	-0.216	0.0091	0.2251	1516.2699	0.135625	-458.978312	-458.969342	-458.968398	-459.012954	32.074	
O	 0.3138108199	 0.9866118031	-0.8017010562	-0.405008
C	-0.0599089667	 0.2071698074	 0.3192171573	-0.164992
C	-1.4054359134	-0.4198283919	 0.136338485	 0.289952
C	-2.1448800256	-0.7171810455	-0.9654927728	-0.255692
C	-3.3624455876	-1.3065840707	-0.4879597007	-0.255676
C	-3.2723742806	-1.3256273919	 0.8687803105	 0.289964
C	-4.1938442438	-1.8104721431	 1.9424860391	-0.165024
O	-5.1103036783	-2.7724215724	 1.4541867542	-0.405005
O	-2.0817043265	-0.7864203059	 1.264829426	-0.212917
H	-0.3825922491	 1.6371909842	-0.9434989272	 0.284918
H	 0.7222461031	-0.555852468	 0.4186419387	 0.130529
H	-0.0575031947	 0.7855024194	 1.2568782543	 0.108176
H	-1.849479701	-0.5490249031	-1.9888248366	 0.118567
H	-4.1996719295	-1.6565215453	-1.0704924875	 0.118572
H	-3.5948198025	-2.1867832484	 2.7870184628	 0.108182
H	-4.8103492002	-0.9919248336	 2.3346005448	 0.130532
H	-4.5952707535	-3.4840469444	 1.0583755983	 0.284922
49.1911	65.0881	147.5757	169.9852	247.2244	263.8661	344.2903	344.4876	380.7747	525.7675	623.4315	646.8813	699.3119	724.5457	815.1379	848.5371	967.7747	975.6939	996.7395	1006.2484	1031.0379	1083.0358	1091.8441	1185.1736	1199.2233	1215.5961	1221.3128	1251.9599	1337.2969	1377.2381	1401.9776	1417.669	1443.3605	1503.5288	1503.8245	1588.3991	1646.9456	2981.0604	2982.2427	3042.6271	3042.7913	3259.7106	3272.301	3804.8033	3804.8697
OCC1=CC=C(CO)O1	OCc1ccc(CO)o1	
InChI=1S/C6H8O3/c7-3-5-1-2-6(4-8)9-5/h1-2,7-8H,3-4H2	InChI=1S/C6H8O3/c7-3-5-1-2-6(4-8)9-5/h1-2,7-8H,3-4H2
