16
gdb 87551	2.59986	1.58362	1.16688	3.4084	70.88	-0.2349	-0.0185	0.2165	1048.54	0.12329	-437.822749	-437.814766	-437.813822	-437.855348	30.244	
O	-0.1194711355	 1.4438309079	-0.0436123744	-0.417337
C	-0.0191909086	 0.0528164474	-0.0633622254	 0.044839
C	-0.3918162576	-0.7281402993	 1.1696118671	-0.398514
C	-1.3195107635	-0.6807948187	-0.0261699523	 0.256972
C	-2.7367593049	-0.1435941579	-0.1117584259	-0.158646
N	-3.0150152428	 0.0034922238	-1.5462222274	-0.327367
C	-3.1835077595	-1.3465124639	-0.9009621978	-0.191273
C	-1.7770975585	-1.9174118369	-0.7914190579	 0.393403
O	-1.2679920947	-2.9726378226	-1.0374846679	-0.325699
H	 0.6452505561	 1.789792355	 0.4289627555	 0.292115
H	 0.75683449	-0.3579564485	-0.7093168476	 0.106064
H	 0.1065392155	-1.6719031241	 1.3673906224	 0.13509
H	-0.6890279562	-0.1561062915	 2.0426263869	 0.122883
H	-3.285922799	 0.3929549235	 0.6496750874	 0.113643
H	-3.9598862098	 0.3789846712	-1.6438593891	 0.238438
H	-4.1333225609	-1.8639335356	-0.9303068037	 0.115389
102.4455	132.6326	169.9942	222.4847	295.1085	310.4741	421.9264	450.2668	570.7123	622.5743	687.1294	770.9672	804.146	828.0957	846.0282	867.5812	902.6131	943.2092	962.7151	1017.5831	1036.8965	1055.9012	1075.8897	1096.3794	1111.9269	1162.0495	1177.5695	1262.6912	1281.2063	1296.024	1327.2219	1373.4774	1424.1024	1487.5091	1887.8351	3104.8085	3124.9023	3205.648	3218.0949	3220.6964	3454.9219	3803.7715
OC1CC11C2NC2C1=O	O[C@H]1C[C@]21[C@H]1N[C@H]1C2=O	
InChI=1S/C6H7NO2/c8-2-1-6(2)4-3(7-4)5(6)9/h2-4,7-8H,1H2	InChI=1S/C6H7NO2/c8-2-1-6(2)4-3(7-4)5(6)9/h2-4,7-8H,1H2/t2-,3+,4-,6-/m0/s1
