17
gdb 10843	4.57424	1.44999	1.15284	3.64	64.75	-0.2386	0.0288	0.2673	1001.2598	0.144187	-401.045262	-401.037648	-401.036704	-401.077203	28.741	
O	-0.0772630445	 1.4649847093	-0.0462628674	-0.429284
C	 0.0032998536	 0.0511731141	 0.0060562778	 0.120745
C	-1.4130221971	-0.5068151744	 0.0531569836	-0.213405
C	-1.3732203318	-2.0354940006	 0.1523177126	-0.319662
C	-0.4086974665	-2.721765842	-0.8121310363	 0.398776
O	-0.4985963966	-3.9038648073	-1.0854799578	-0.376288
N	 0.6108433065	-1.9475656774	-1.3037666903	-0.31148
C	 0.7198085774	-0.4989629683	-1.2333472922	-0.180915
H	 0.8136169599	 1.8242941301	 0.0159357148	 0.285547
H	 0.5461032392	-0.2776207666	 0.9074279903	 0.075226
H	-1.9528497027	-0.0747244562	 0.9008323716	 0.111464
H	-1.9391519954	-0.1901825636	-0.8558942202	 0.112501
H	-1.0641821157	-2.3413615284	 1.160288767	 0.131782
H	-2.3572941922	-2.4802487348	-0.0113642661	 0.133831
H	 1.2094190745	-2.4394573695	-1.9519728839	 0.245817
H	 0.279457994	-0.0120705047	-2.1163690251	 0.11572
H	 1.7824024174	-0.2262942097	-1.2071691686	 0.099625
81.9718	156.2658	219.5478	278.2515	326.3897	399.297	420.7535	461.5801	516.0532	551.6825	656.6647	710.9489	772.3489	828.1129	929.5248	964.113	988.6567	1073.8904	1096.5053	1112.2479	1124.0966	1181.2481	1210.8888	1259.6223	1296.2011	1305.4685	1339.0001	1347.9613	1383.706	1391.1534	1443.2255	1465.9127	1482.6706	1503.1679	1527.4404	1790.8562	2967.7016	2992.8577	3034.2955	3038.9023	3041.9418	3089.8983	3110.0762	3602.2122	3815.3144
OC1CCC(=O)NC1	O[C@H]1CCC(=O)NC1	
InChI=1S/C5H9NO2/c7-4-1-2-5(8)6-3-4/h4,7H,1-3H2,(H,6,8)	InChI=1S/C5H9NO2/c7-4-1-2-5(8)6-3-4/h4,7H,1-3H2,(H,6,8)/t4-/m0/s1
