15
gdb 14676	8.24069	0.6369	0.62771	3.672	68.82	-0.25	0.0215	0.2715	1713.6527	0.117109	-399.779718	-399.770335	-399.769391	-399.816323	30.632	
O	 0.2886677753	 0.6657676372	 0.91250924	-0.40979
C	-0.1113226815	 0.101345276	-0.3302053474	-0.21457
C	-1.4761865978	-0.3973858826	-0.2256501469	 0.103444
C	-2.6042140724	-0.8124590901	-0.1679155466	 0.048299
C	-3.9689172285	-1.3142800216	-0.059284713	-0.289629
N	-4.0340956821	-2.6231032773	 0.5828459031	-0.268919
C	-4.7141175179	-3.6646302211	 0.0340706222	 0.161284
O	-5.3720521286	-3.6094855959	-0.9831902027	-0.321225
H	 1.1869583374	 0.9941224356	 0.8024953496	 0.291452
H	-0.0668709801	 0.8459157369	-1.1416435474	 0.122001
H	 0.5519078493	-0.7283713519	-0.6244923872	 0.12001
H	-4.5870463153	-0.5887763067	 0.4868244898	 0.14367
H	-4.4254733894	-1.4406013536	-1.0463633427	 0.176756
H	-3.4734747707	-2.7806220478	 1.4049372124	 0.256619
H	-4.6038013876	-4.5878056771	 0.6358994069	 0.080598
23.2075	27.7754	98.6932	127.2937	222.9386	245.7118	255.8539	319.3103	330.1078	479.7322	525.557	574.8832	728.5521	819.6804	967.9013	1024.3297	1032.2607	1038.7139	1051.3424	1153.8452	1204.0176	1246.0618	1257.3769	1259.6352	1373.4318	1426.0461	1459.5787	1482.9248	1501.2311	1519.9069	1804.0096	2373.8861	2943.6278	2965.0497	2983.9772	3013.3471	3083.7965	3641.7818	3817.7036
OCC#CCNC=O	OCC#CCNC=O	
InChI=1S/C5H7NO2/c7-4-2-1-3-6-5-8/h5,7H,3-4H2,(H,6,8)	InChI=1S/C5H7NO2/c7-4-2-1-3-6-5-8/h5,7H,3-4H2,(H,6,8)
