19
gdb 17486	3.37597	2.38261	1.87095	1.8363	73.41	-0.2205	0.0823	0.3027	799.7861	0.167821	-327.897904	-327.891245	-327.890301	-327.928115	27.53	
C	-0.0060598402	 1.5099923722	 0.063660332	-0.494137
C	-0.0036566298	-0.0040915398	 0.0277051728	 0.314243
C	 0.2584283857	-0.7085665933	-1.3318145086	-0.192924
N	-0.927406317	-1.6150328764	-1.164313278	-0.153035
C	-0.8770525221	-2.1680402478	 0.2242565139	-0.010065
C	 0.450235779	-2.200062556	 0.9749282684	-0.251354
C	 0.833074303	-0.7034965866	 1.1133955802	-0.242631
C	-1.3499977445	-0.7864424679	 0.0207048569	-0.091604
H	 1.0039254224	 1.9081567491	-0.0869907085	 0.116901
H	-0.6484215484	 1.9272917182	-0.7190307372	 0.117922
H	-0.3673192731	 1.8828889458	 1.029172891	 0.115093
H	 0.0724736808	-0.0615724121	-2.1934156183	 0.10422
H	 1.2203563954	-1.2173011238	-1.4704938402	 0.09145
H	-1.584705121	-2.9805350198	 0.3518444082	 0.092201
H	 0.3281700034	-2.6864767161	 1.9471446419	 0.103014
H	 1.2062256114	-2.7737367908	 0.4275938631	 0.107422
H	 1.9058612537	-0.5244015436	 0.9801400094	 0.093567
H	 0.5528544008	-0.3228179779	 2.1030032306	 0.094969
H	-2.3570220195	-0.4040695032	 0.1468738727	 0.084748
213.5385	223.3955	271.9628	322.5658	390.6816	430.503	559.0096	633.4589	701.569	748.3156	785.769	821.6359	857.0615	894.613	912.5146	941.1224	965.5215	977.8472	993.5434	1037.6216	1051.842	1070.1362	1138.821	1160.8763	1177.4951	1212.5535	1241.1222	1241.4527	1252.474	1280.293	1294.7719	1317.7241	1371.7321	1389.2533	1414.4338	1481.2895	1491.2368	1495.1015	1495.7561	1516.0247	3021.4511	3025.5443	3028.9863	3045.6705	3069.4794	3085.5288	3088.3201	3090.951	3094.9004	3162.7588	3174.6552
CC12CN3C(CC1)C23	C[C@@]12CN3[C@@H](CC1)[C@@H]23	
InChI=1S/C7H11N/c1-7-3-2-5-6(7)8(5)4-7/h5-6H,2-4H2,1H3	InChI=1S/C7H11N/c1-7-3-2-5-6(7)8(5)4-7/h5-6H,2-4H2,1H3/t5-,6-,7-,8?/m0/s1
