13
gdb 5712	5.04304	2.07765	1.49923	1.3613	59.17	-0.2348	-0.0055	0.2293	770.8476	0.098295	-398.606351	-398.600467	-398.599523	-398.636603	21.612	
C	-0.0746479279	 1.4938261099	 0.1060367905	-0.173897
O	 1.2456198422	 1.9046172635	-0.2977894446	-0.28631
C	 2.1209246538	 0.7937326065	-0.6125664366	-0.173412
C	 1.2496786095	-0.3941332287	-0.3773318327	 0.209424
C	 0.0373201048	 0.0154656419	 0.0202541876	 0.265461
O	-0.7526728558	-1.0654284373	 0.2333656255	-0.190483
C	 0.0843172498	-2.1107289408	-0.0667784709	 0.037122
N	 1.2826351382	-1.7778585815	-0.4349365448	-0.334001
H	-0.2850131758	 1.8680014081	 1.1181655876	 0.123115
H	-0.8210836965	 1.9257044813	-0.575855104	 0.123118
H	 2.4654305672	 0.8918185911	-1.6505771812	 0.122738
H	 3.001190973	 0.8341512446	 0.0426233326	 0.122735
H	-0.3371351126	-3.0983419086	 0.0330175208	 0.15439
120.1468	186.7507	258.2531	426.4847	597.5391	638.3811	681.4599	718.9127	813.0091	855.9118	872.214	950.0635	1021.0163	1039.1304	1071.8496	1073.0189	1119.3344	1150.3045	1207.3865	1279.3074	1307.9986	1324.8962	1416.7523	1436.7584	1519.5475	1521.3447	1528.9373	1672.3811	2993.2677	3009.0104	3016.8053	3036.4029	3281.9173
C1OCC2=C1OC=N2	C1OCc2c1ocn2	
InChI=1S/C5H5NO2/c1-4-5(2-7-1)8-3-6-4/h3H,1-2H2	InChI=1S/C5H5NO2/c1-4-5(2-7-1)8-3-6-4/h3H,1-2H2
