21
gdb 86894	3.13588	0.99847	0.85609	2.4553	79.21	-0.2471	-0.0187	0.2283	1386.3894	0.181822	-424.250095	-424.240545	-424.239601	-424.284999	35.326	
C	 0.1901692706	 1.6218815669	 0.0830105385	-0.390647
C	 0.0542977294	 0.0971564564	-0.0088984276	-0.008205
C	 0.7602113853	-0.4968869319	-1.2411459711	-0.248067
C	 2.264501011	-0.5987368446	-0.8448464872	-0.048633
C	 2.2574844701	-0.6861458023	 0.7112204672	-0.284474
C	 0.7694820752	-0.638450938	 1.1394596513	 0.137568
O	 0.538998223	 0.0126673753	 2.3751445433	-0.435978
C	 2.9115325089	-1.806301276	-1.4776153531	 0.154072
O	 3.8067002732	-1.7848718756	-2.2811354294	-0.252307
H	 1.236630095	 1.9436600341	 0.0566679502	 0.114952
H	-0.3249776871	 2.1001585211	-0.7560684734	 0.110081
H	-0.2444428287	 1.9916021669	 1.0139536415	 0.136405
H	-1.0108852713	-0.1574536944	-0.0125045458	 0.075259
H	 0.3635952815	-1.5004397934	-1.4452813173	 0.099325
H	 0.6173880868	 0.0944653538	-2.1488613339	 0.111972
H	 2.814609443	 0.2805719739	-1.185933219	 0.0966
H	 2.7554363346	-1.5905458519	 1.0791466347	 0.097971
H	 2.784117295	 0.1688375244	 1.1434344603	 0.120256
H	 0.3773371674	-1.6677129711	 1.1780799791	 0.064814
H	 0.9619169351	-0.4990685261	 3.0712302762	 0.285458
H	 2.473198612	-2.7762980378	-1.1326330045	 0.063578
49.2939	72.2519	142.6642	215.6576	261.7065	266.786	282.4772	304.2771	355.5914	406.1594	421.588	545.0371	630.3983	668.9818	792.598	857.3326	866.742	918.4852	937.4536	967.7683	988.03	1044.6799	1056.5022	1078.0115	1098.5254	1111.262	1157.347	1191.879	1220.5383	1260.5397	1264.3026	1288.0637	1309.0068	1313.5021	1349.2092	1367.7294	1385.2582	1406.0674	1426.5326	1437.5624	1483.3168	1493.7108	1498.4985	1504.3226	1835.8213	2819.9145	2961.1925	3019.3013	3039.6662	3041.7116	3051.2061	3083.1356	3095.8975	3102.3516	3105.6328	3131.2751	3826.0058
CC1CC(CC1O)C=O	C[C@H]1C[C@@H](C[C@H]1O)C=O	
InChI=1S/C7H12O2/c1-5-2-6(4-8)3-7(5)9/h4-7,9H,2-3H2,1H3	InChI=1S/C7H12O2/c1-5-2-6(4-8)3-7(5)9/h4-7,9H,2-3H2,1H3/t5-,6-,7+/m0/s1
