22
gdb 96126	2.14151	1.80709	1.22473	2.5182	82.05	-0.236	0.0716	0.3076	1125.0732	0.195295	-404.34129	-404.332523	-404.331579	-404.374122	34.646	
C	-0.0215617811	 1.502015862	-0.0335758822	-0.41027
C	 0.031874964	-0.0199616964	 0.0155671796	 0.104545
O	 0.658239963	-0.4397220447	-1.1870007537	-0.254442
C	 0.8546601302	-1.838026136	-1.2551049139	-0.077077
C	 1.9370931863	-2.2969476749	-0.274621102	-0.213391
C	 1.7072649602	-1.6756338496	 1.0944969358	-0.084335
N	 2.198749287	-0.2927454516	 1.273787341	-0.35518
C	 0.7491961072	-0.5438714843	 1.2634504323	 0.297024
C	-0.0274020882	-0.4198130607	 2.5571616344	-0.48184
H	 0.9938559951	 1.904081045	 0.0074239481	 0.140182
H	-0.4923300848	 1.8264797253	-0.9650825956	 0.120503
H	-0.5984195186	 1.9052095774	 0.8037596276	 0.107961
H	-0.995906976	-0.4290046558	 0.0380403319	 0.053928
H	-0.0929363276	-2.3630379345	-1.0425105067	 0.079683
H	 1.1355139865	-2.0617672343	-2.2884925897	 0.10327
H	 1.924933133	-3.3903717192	-0.2024864986	 0.091601
H	 2.923853277	-1.9983421586	-0.6426037191	 0.116877
H	 1.8153088452	-2.3448477423	 1.9460115882	 0.077107
H	 2.520419379	-0.1580684392	 2.2296676285	 0.222064
H	-0.1954468974	 0.6291368656	 2.8261428578	 0.125751
H	-1.0082181747	-0.9024510226	 2.4809858207	 0.123203
H	 0.514118305	-0.8940818405	 3.3823895753	 0.11284
95.9943	194.285	211.0579	238.6274	248.5123	277.1061	338.021	376.8886	411.7361	476.9778	496.7822	567.8881	638.9198	707.7193	791.6829	849.6136	881.2683	902.2521	919.4925	974.5483	978.4801	1006.7341	1051.2644	1086.6998	1110.4691	1127.0757	1131.5414	1146.078	1162.4029	1186.1498	1257.5141	1287.7689	1298.7764	1334.6777	1362.411	1369.7506	1383.4738	1402.0243	1416.1002	1419.0527	1453.9549	1470.7509	1482.4845	1490.7786	1497.7782	1501.0657	1504.6482	2922.439	2954.1504	3025.0598	3039.5715	3048.7721	3078.4911	3088.3326	3089.515	3097.2115	3118.7682	3121.784	3133.0692	3488.2042
CC1OCCC2NC12C	C[C@H]1OCC[C@H]2N[C@@]12C	
InChI=1S/C7H13NO/c1-5-7(2)6(8-7)3-4-9-5/h5-6,8H,3-4H2,1-2H3	InChI=1S/C7H13NO/c1-5-7(2)6(8-7)3-4-9-5/h5-6,8H,3-4H2,1-2H3/t5-,6-,7+/m1/s1
