17
gdb 85717	2.1114	1.54902	1.00243	4.3571	79.86	-0.2424	0.0057	0.2481	1193.912	0.134454	-380.818938	-380.809851	-380.808907	-380.852955	32.941	
C	 0.0158873508	 1.556504367	 0.1041708319	-0.335744
N	 0.0022038806	 0.1106754702	 0.1357969761	-0.050799
C	-1.2565865983	-0.6011527826	 0.4090492824	-0.174986
C	-0.4569461133	-1.6647057434	 1.2259791473	-0.238241
C	-0.1544244793	-2.8946571438	 0.5289860939	 0.368652
C	 0.0904785896	-3.9208560917	-0.0457019483	-0.458474
C	 0.6813180133	-0.5750707602	 1.2429493923	-0.131167
C	 2.0664204303	-0.9700576498	 0.997534938	 0.315215
N	 3.1682655337	-1.2695856158	 0.8214460484	-0.325081
H	 1.041839154	 1.9115961318	-0.0331417955	 0.141688
H	-0.5779108991	 1.9077021367	-0.7451881857	 0.134152
H	-0.3923107225	 2.0136012527	 1.0251118963	 0.097019
H	-1.9513854089	-0.03881166	 1.0534716314	 0.094597
H	-1.7855691365	-0.9553702024	-0.4788336458	 0.128124
H	-0.8593164729	-1.872752671	 2.219003117	 0.121581
H	 0.3194896619	-4.8237068992	-0.5560566978	 0.207743
H	 0.6445290466	-0.0157615885	 2.1934463581	 0.105719
73.5098	100.3898	145.2697	192.0478	229.7046	241.027	316.6621	337.6141	432.2577	473.3236	555.2361	584.8387	637.2826	653.0367	754.9553	784.6603	842.1858	932.6289	988.3075	1024.3014	1063.2333	1096.5141	1137.3333	1156.3018	1185.4571	1225.6378	1244.2449	1268.9505	1321.3518	1350.0502	1371.4535	1452.7477	1487.7422	1496.4574	1518.2998	2243.6264	2360.9585	2933.5887	2954.8883	2975.752	3069.7634	3091.8163	3096.8788	3112.7167	3503.3944
CN1CC(C#C)C1C#N	CN1C[C@@H](C#C)[C@H]1C#N	
InChI=1S/C7H8N2/c1-3-6-5-9(2)7(6)4-8/h1,6-7H,5H2,2H3	InChI=1S/C7H8N2/c1-3-6-5-9(2)7(6)4-8/h1,6-7H,5H2,2H3/t6-,7-/m1/s1
