19
gdb 41319	3.15882	1.73214	1.34537	1.5416	79.4	-0.2325	0.0203	0.2528	985.102	0.161414	-385.869075	-385.862087	-385.861143	-385.900409	28.536	
C	 0.0234215982	 1.4763610215	-0.0026215782	-0.093047
O	 1.4735906086	 1.4682804799	 0.0108187687	-0.337034
C	 1.5033178702	 0.0368473839	 0.053343828	 0.485907
C	 2.5213995598	-0.6860626001	-0.8173812058	-0.371591
C	 2.8023328779	-1.9352702433	-0.0097549021	-0.065945
C	 2.2539486928	-1.9062195667	 1.2084471438	-0.080769
C	 1.4913980473	-0.6372002022	 1.4654570999	-0.112951
C	-0.0728524068	-0.7275363941	 1.4036170386	-0.253753
C	-0.049485435	-0.0640616152	 0.0017187483	-0.136242
H	-0.3974292936	 1.979924526	 0.8773367015	 0.097988
H	-0.3578638224	 1.962301719	-0.9085733798	 0.103346
H	 2.1409834344	-0.8986948028	-1.8240671483	 0.1058
H	 3.4197349059	-0.0659631439	-0.9479656812	 0.119899
H	 3.4017340223	-2.751464296	-0.3989097991	 0.093434
H	 2.3390266419	-2.7004794634	 1.943407465	 0.091877
H	 1.8925946447	-0.0449587972	 2.2939275694	 0.079449
H	-0.448719893	-1.7535803111	 1.3989070625	 0.1021
H	-0.6099576229	-0.1647528111	 2.1726446134	 0.097638
H	-0.6037564801	-0.5356440131	-0.8098857947	 0.073894
88.8535	215.8091	253.112	355.6913	389.6188	455.4276	481.0315	645.4116	711.168	746.8527	767.9444	810.5483	844.7194	874.4401	907.1937	923.9938	952.1946	978.3361	1001.2514	1023.3202	1032.6502	1068.8673	1075.5316	1097.6596	1107.6039	1139.2496	1156.2194	1185.7516	1197.7535	1218.8218	1257.9107	1265.4739	1288.9527	1308.4572	1333.244	1355.0379	1374.8423	1475.5102	1478.4988	1519.3427	1669.3191	3009.999	3011.8948	3047.0552	3050.8421	3054.8127	3059.2847	3101.8068	3112.4207	3172.1416	3198.5312
C1OC23CC=CC2CC13	C1O[C@@]23CC=C[C@@H]2C[C@@H]13	
InChI=1S/C8H10O/c1-2-6-4-7-5-9-8(6,7)3-1/h1-2,6-7H,3-5H2	InChI=1S/C8H10O/c1-2-6-4-7-5-9-8(6,7)3-1/h1-2,6-7H,3-5H2/t6-,7+,8+/m1/s1
