17
gdb 31109	3.78166	0.83842	0.6891	3.6947	80.59	-0.1993	-0.049	0.1504	1609.7769	0.13254	-455.185056	-455.174211	-455.173266	-455.221717	37.933	
N	 0.6391214655	 1.4066327731	 0.6642047019	-0.584571
C	 0.097266011	 0.180260469	 0.4055410081	 0.442563
C	-0.9787691605	-0.4776024331	 0.8897479457	-0.408313
C	-0.9815727658	-1.7906830333	 0.2787297196	 0.225069
C	-1.8045762522	-2.8449091712	 0.3920304708	-0.439534
N	-0.733199755	-5.4673774354	-1.6356017452	-0.728697
H	-1.0380068092	-5.6801907227	-2.5815934443	 0.229665
H	-0.1254845663	-4.6525372807	-1.7067116047	 0.270649
H	-0.1395730793	-6.2424664158	-1.3528437774	 0.229973
C	 0.2148075527	-1.8050075558	-0.6180126912	 0.389802
O	 0.6709267715	-2.633127208	-1.3522907359	-0.325984
O	 0.8355102639	-0.5597287901	-0.4906824996	-0.234928
H	 1.2179939887	 1.7822316042	-0.0725224309	 0.270444
H	 0.020149459	 2.0802758493	 1.0876041921	 0.267541
H	-1.6954368536	-0.0941404875	 1.5980143315	 0.105311
H	-1.6336147576	-3.7602568706	-0.1673582029	 0.178434
H	-2.665771473	-2.8062375115	 1.0507872625	 0.112574
34.9913	90.5123	113.9683	130.0488	152.9748	182.1491	198.2327	294.8036	319.8609	341.9536	360.8455	429.3805	528.5627	572.0454	620.3832	643.7932	679.8624	687.7219	762.5193	810.7206	827.0832	971.4429	971.8317	979.6938	1064.5269	1092.2281	1119.6358	1247.9306	1289.3258	1404.7322	1475.1466	1624.4565	1674.4109	1685.9982	1701.7851	1721.4225	1874.1133	3134.5452	3232.6386	3258.506	3452.7524	3566.1925	3579.4906	3581.8377	3691.0611
NC1=CC(C[NH3+])=C([O-])O1	NC1=CC(=C)C(=O)O1.N	
InChI=1S/C5H8N2O2/c6-2-3-1-4(7)9-5(3)8/h1,8H,2,6-7H2	InChI=1S/C5H5NO2.H3N/c1-3-2-4(6)8-5(3)7;/h2H,1,6H2;1H3
