20
gdb 100510	3.03396	0.95183	0.82709	1.1191	76.22	-0.2372	-0.0616	0.1756	1468.7211	0.168665	-440.347419	-440.336757	-440.335812	-440.383725	37.884	
C	 0.0460759172	 1.5533957761	 0.0073703473	-0.397128
C	 0.000948407	 0.024480523	-0.0626353607	-0.173985
C	-1.4208137605	-0.5568751687	-0.02135184	-0.058982
C	-2.2694139748	-0.1976280535	-1.2643373634	-0.410541
C	-1.386900144	-2.0654286684	 0.1042066726	 0.284764
O	-0.4395498814	-2.7580986341	-0.1974658726	-0.321787
C	-2.6748108604	-2.7384220909	 0.653256606	 0.332804
N	-2.5711624164	-4.0845697374	 0.6747167586	-0.516348
O	-3.6395804179	-2.0909104549	 1.0159457509	-0.355848
H	 1.0810733414	 1.9072996446	 0.0389318576	 0.115928
H	-0.4315896258	 2.0202821748	-0.8593791835	 0.119204
H	-0.4590797425	 1.925574808	 0.9058997666	 0.116048
H	 0.5045342219	-0.3282838638	-0.9696972602	 0.109023
H	 0.5729334537	-0.3929906265	 0.7739676556	 0.102055
H	-1.9631199617	-0.1820275983	 0.8550457647	 0.111282
H	-1.7940392273	-0.5669320082	-2.179351218	 0.12266
H	-3.27074211	-0.626273928	-1.1868504547	 0.145361
H	-2.3747198151	 0.8865852848	-1.3486875218	 0.12811
H	-1.708535787	-4.5071613619	 0.3714332443	 0.278973
H	-3.3280388465	-4.6429909269	 1.0304261106	 0.268407
57.7472	63.3231	77.6813	153.0076	198.9512	213.7968	258.9357	273.5604	326.7154	331.3582	357.778	423.1832	491.3978	536.816	611.0916	670.1397	754.1761	782.7487	823.4741	850.261	971.5008	980.6196	1019.7319	1063.2103	1092.2623	1105.26	1137.2434	1196.6656	1288.2503	1313.6726	1333.8708	1363.2749	1395.4339	1399.5526	1414.9609	1482.1553	1496.6917	1498.3026	1507.7897	1514.6823	1584.0606	1789.5997	1802.9583	3033.7784	3037.5323	3041.123	3047.6553	3071.4336	3101.4521	3107.2746	3118.131	3135.8784	3595.5226	3737.7028
CCC(C)C(=O)C(N)=O	CC[C@@H](C)C(=O)C(=O)N	
InChI=1S/C6H11NO2/c1-3-4(2)5(8)6(7)9/h4H,3H2,1-2H3,(H2,7,9)	InChI=1S/C6H11NO2/c1-3-4(2)5(8)6(7)9/h4H,3H2,1-2H3,(H2,7,9)/t4-/m1/s1
