14
gdb 46244	2.85641	1.36359	1.08204	4.7974	69.28	-0.2611	-0.015	0.2461	1092.6536	0.099779	-436.632877	-436.624963	-436.624019	-436.665683	29.102	
O	-0.1260131902	 0.0648298573	-0.1691739852	-0.317603
C	-0.0296298494	 1.2250524816	 0.0455835498	 0.454131
O	-1.0102361155	 2.0962686482	 0.4909007615	-0.249855
C	-0.0969017043	 3.235205621	 0.5176530753	-0.152932
C	 1.0065104604	 2.330464332	-0.0245387635	 0.1187
N	 2.409405674	 2.213420857	 0.3059208267	-0.345104
C	 2.0392037171	 2.6094552504	-1.0716836467	-0.34025
C	 2.3254326705	 1.6930157022	-2.1380877564	 0.39495
C	 2.5592539922	 0.9553100295	-3.0565493304	-0.409614
H	-0.4467068373	 4.0364255714	-0.1370640099	 0.134136
H	 0.0433204941	 3.5995837527	 1.5390932178	 0.131588
H	 2.7228196084	 3.0246988551	 0.8351338336	 0.248647
H	 2.1447384832	 3.6623804929	-1.3295349387	 0.124211
H	 2.7591333068	 0.2848774888	-3.8558396738	 0.208995
88.8993	105.7138	182.6961	244.7615	256.9334	328.5843	466.0354	501.2245	546.0777	633.5244	669.9566	676.7151	744.527	782.2209	824.8398	902.0071	920.6721	956.0871	983.006	1061.6042	1072.5049	1108.6542	1149.863	1184.4176	1252.1792	1307.1943	1365.4668	1466.6335	1512.6324	1956.3437	2248.8147	3060.3401	3117.0579	3121.6985	3495.5076	3502.4774
O=C1OCC11NC1C#C	O=C1OC[C@]21N[C@H]2C#C	
InChI=1S/C6H5NO2/c1-2-4-6(7-4)3-9-5(6)8/h1,4,7H,3H2	InChI=1S/C6H5NO2/c1-2-4-6(7-4)3-9-5(6)8/h1,4,7H,3H2/t4-,6-/m0/s1
