19
gdb 122795	4.37518	0.58241	0.52062	1.3028	74.66	-0.2543	-0.0969	0.1574	2068.6103	0.154804	-460.175542	-460.164845	-460.163901	-460.213465	35.544	
C	-0.2687875964	 1.514484256	 0.2865472004	-0.38548
C	-0.0965454362	 0.0285523519	 0.0232225863	-0.030409
O	-1.3638610824	-0.5944462954	 0.1057663864	-0.246975
C	-1.315007791	-1.9828998027	-0.1245024986	-0.057228
C	-2.7329990596	-2.5205137841	-0.0067641216	-0.320505
C	-2.8226246996	-4.0060799152	-0.2326536577	 0.282139
O	-1.8848458491	-4.7291974684	-0.4838569772	-0.278508
C	-4.2152013435	-4.64757823	-0.1352991972	 0.094857
O	-5.2176959115	-4.0304636025	 0.1082322961	-0.215616
H	 0.6967743399	 2.0256645073	 0.229679862	 0.116272
H	-0.9417819596	 1.9599123669	-0.4515852665	 0.127311
H	-0.6924809773	 1.6817636439	 1.2808673907	 0.127317
H	 0.3441513945	-0.14082812	-0.9738512756	 0.087908
H	 0.5936648957	-0.4188603688	 0.758406785	 0.087909
H	-0.9052559943	-2.2049282129	-1.1228459595	 0.100777
H	-0.656608946	-2.4825893422	 0.6039938344	 0.100781
H	-3.1571313568	-2.2907276041	 0.9790615645	 0.150415
H	-3.4014227049	-2.0179932239	-0.7175535054	 0.150411
H	-4.1934317819	-5.7435195459	-0.3145994866	 0.108624
36.1596	49.9962	83.8852	107.7296	132.7324	139.5452	192.3596	231.3471	248.5664	402.6415	447.3351	462.2611	517.9193	649.7286	763.6667	820.7045	825.2988	908.5135	950.7242	1043.4314	1075.456	1094.642	1130.6721	1167.3518	1179.205	1183.7513	1217.4207	1291.331	1296.876	1341.8987	1363.7871	1393.0651	1410.7793	1438.1416	1459.5083	1483.9215	1499.0225	1515.0151	1535.9183	1798.8135	1826.6122	2923.9169	2954.2257	2975.4083	2980.393	2999.8278	3041.7131	3045.4653	3070.4316	3120.3003	3121.6172
CCOCCC(=O)C=O	CCOCCC(=O)C=O	
InChI=1S/C6H10O3/c1-2-9-4-3-6(8)5-7/h5H,2-4H2,1H3	InChI=1S/C6H10O3/c1-2-9-4-3-6(8)5-7/h5H,2-4H2,1H3
