18
gdb 114501	2.77179	1.41293	1.10147	3.6176	73.7	-0.2554	0.0257	0.2811	1139.5911	0.147435	-439.052751	-439.044515	-439.04357	-439.086047	30.65	
C	-0.0014938055	 1.4970195908	 0.1718523467	-0.239458
O	 0.5562482787	 0.2315838625	-0.1108362731	-0.2249
C	 0.7668205794	-0.5476896316	 1.0256879872	 0.137655
C	-0.4656386512	-1.2564799368	 1.6929653378	-0.283582
C	 0.2039159081	-2.6157633832	 1.4189946574	 0.100601
O	-0.2137255157	-3.170943694	 0.1351502357	-0.270913
C	 0.8836394767	-2.6134165674	-0.5090318328	 0.458754
N	 1.2692607853	-2.7235580594	-1.6944586824	-0.543942
C	 1.4171007883	-1.9294594988	 0.7280980704	-0.222821
H	 0.6470364649	 2.0836444572	 0.8411585647	 0.106931
H	-0.1005903962	 2.0243608999	-0.7791099388	 0.136326
H	-0.9948967849	 1.4147129211	 0.6374207829	 0.11007
H	 1.3544244326	 0.005658766	 1.7739811964	 0.074779
H	-0.5976697874	-1.0186294839	 2.750877889	 0.108336
H	-1.4136904866	-1.1338447406	 1.1658183518	 0.124589
H	 0.2603347573	-3.3821310878	 2.1904304558	 0.0963
H	 0.6318795288	-3.3071371002	-2.239233178	 0.22756
H	 2.4679234474	-2.0699939637	 0.9693992591	 0.103716
81.8689	112.2207	117.9927	192.6685	275.7447	362.2394	410.4594	449.0174	457.619	596.9933	731.2215	759.7121	810.8294	861.4653	870.3869	880.4379	933.2833	972.6713	1007.3884	1029.3963	1042.0469	1059.9619	1121.4647	1161.8905	1177.2459	1183.6559	1193.4421	1220.9004	1242.6993	1254.8949	1273.8695	1314.8684	1337.4023	1387.6767	1456.4002	1481.3386	1487.8853	1507.7718	1827.0623	2975.0263	2984.0571	3026.6479	3071.821	3124.6053	3126.2982	3135.9948	3149.9441	3476.0497
COC1CC2OC(=N)C12	CO[C@H]1C[C@H]2O[C]([NH])[C@@H]12	
InChI=1S/C6H9NO2/c1-8-3-2-4-5(3)6(7)9-4/h3-5,7H,2H2,1H3	InChI=1S/C6H9NO2/c1-8-3-2-4-5(3)6(7)9-4/h3-5,7H,2H2,1H3/t3-,4+,5-/m0/s1
