17
gdb 36513	4.25472	0.96804	0.83167	5.7322	73.96	-0.265	0.0078	0.2728	1331.5081	0.138007	-418.037919	-418.029851	-418.028907	-418.071232	29.534	
N	-0.0453721251	-1.2029114407	 0.0274361687	-0.307908
C	-0.0226347211	-0.0483539867	 0.0574492312	 0.278743
C	-0.0062582123	 1.4124639178	 0.0565618483	-0.349784
C	 1.4218188965	 1.997333117	 0.0792390385	 0.04246
C	 1.404335165	 3.5188186482	-0.1163691502	-0.250002
C	 2.7996567809	 4.0586956007	 0.1725036564	-0.081584
O	 3.2570316253	 3.6525129932	 1.471860887	-0.220675
C	 2.8495766642	 2.4325059644	 1.8877993772	 0.13495
N	 2.0602073868	 1.6133263172	 1.3344954978	-0.268487
H	-0.5390980684	 1.7639552024	-0.8344736236	 0.144255
H	-0.5560390022	 1.7736532636	 0.9325466589	 0.153787
H	 1.9823001088	 1.5337550617	-0.7437380683	 0.109458
H	 1.1032406241	 3.7930346696	-1.1326973839	 0.113278
H	 0.6861531506	 3.9732665304	 0.5769415822	 0.117939
H	 3.5186835002	 3.6962539786	-0.57304543	 0.121194
H	 2.82811562	 5.1503803884	 0.1744992437	 0.127113
H	 3.3077755465	 2.1981526243	 2.8467496661	 0.135263
71.228	93.7627	141.0111	252.4835	304.4217	362.8061	390.5566	414.492	523.1754	570.9314	593.5031	794.0681	823.8839	869.5065	911.0956	944.3097	964.578	974.3743	1019.6873	1073.5495	1102.022	1123.0553	1181.9068	1222.7502	1244.469	1268.3825	1306.3752	1352.8603	1359.2261	1381.4854	1402.7225	1417.565	1457.3932	1480.3153	1511.5571	1729.9968	2367.0483	3014.3994	3029.4389	3037.3374	3045.5355	3085.2372	3091.0273	3108.9536	3163.5147
N#CCC1CCOC=N1	N#CC[C@H]1CCOC=N1	
InChI=1S/C6H8N2O/c7-3-1-6-2-4-9-5-8-6/h5-6H,1-2,4H2	InChI=1S/C6H8N2O/c7-3-1-6-2-4-9-5-8-6/h5-6H,1-2,4H2/t6-/m0/s1
