19
gdb 63877	2.51479	1.44032	1.21868	4.1632	76.87	-0.2361	-0.0191	0.2171	1106.6064	0.157004	-423.0127	-423.003689	-423.002745	-423.045934	34.393	
C	-0.1073361496	 1.5977154476	-0.1588005376	-0.454878
C	 0.0304171636	 0.0866122901	-0.0260683987	 0.31214
O	-1.2305290213	-0.5481002285	-0.1915312266	-0.472996
C	 1.1552120947	-0.6301508041	-0.8600308638	-0.287891
C	 1.7269999295	-1.2268670329	 0.4297355998	-0.073967
C	 2.1170184794	-0.1619459805	 1.3845152833	-0.338274
C	 0.6427856848	-0.4806619051	 1.2673778076	 0.238666
C	-0.0998711837	-1.0587370333	 2.4007551074	 0.054432
O	 0.4295319396	-1.5612179608	 3.368904247	-0.287303
H	 0.8407967318	 2.111947799	 0.0204755283	 0.122066
H	-0.4369372152	 1.8645597885	-1.1710255694	 0.10946
H	-0.8482915963	 1.9744937372	 0.5528799172	 0.129533
H	-1.6053791974	-0.252959261	-1.0283875282	 0.278803
H	 0.7122346288	-1.3748640461	-1.5232584585	 0.111213
H	 1.8404058796	 0.0078885607	-1.4284238994	 0.095905
H	 2.0190943884	-2.2592774113	 0.573829366	 0.111383
H	 2.5410299365	-0.4992606474	 2.3241996158	 0.147819
H	 2.4884578639	 0.7938415683	 1.0244450278	 0.112144
H	-1.2026253171	-1.0256057604	 2.2992479921	 0.091745
99.8281	146.4076	189.3621	217.4776	241.6705	276.1697	307.6358	350.5331	384.5728	437.4531	474.5148	573.7505	619.1175	733.3574	779.7098	837.7121	851.3687	899.8114	937.2403	955.9093	968.2021	1022.1686	1052.9629	1066.2247	1088.3288	1091.7489	1149.9012	1191.4053	1219.3751	1223.9852	1255.0426	1283.7478	1366.0489	1390.527	1407.3428	1432.3141	1465.6103	1482.7624	1491.2734	1492.2805	1785.4511	2938.5081	3023.7532	3044.4952	3091.4888	3114.8946	3118.8323	3122.6993	3197.9984	3218.4137	3805.5129
CC1(O)CC2CC12C=O	C[C@@]1(O)C[C@H]2C[C@@]12C=O	
InChI=1S/C7H10O2/c1-6(9)2-5-3-7(5,6)4-8/h4-5,9H,2-3H2,1H3	InChI=1S/C7H10O2/c1-6(9)2-5-3-7(5,6)4-8/h4-5,9H,2-3H2,1H3/t5-,6+,7-/m0/s1
