19
gdb 40525	3.98274	1.15737	1.11903	1.9972	81.83	-0.215	0.0089	0.2239	1169.4905	0.160685	-385.827859	-385.820513	-385.819568	-385.859969	29.576	
C	-0.1539237003	 1.4224369539	-0.1215047772	-0.274158
C	 1.2478542983	 0.9745859148	 0.1615741006	-0.26941
C	 0.1330698052	-0.0572320442	 0.0803547716	-0.13536
C	-0.3304796113	-0.7569167102	 1.2790727972	 0.42623
C	-0.7230464535	-2.0204909316	 1.4881690336	-0.249205
C	-1.0573349229	-2.0001888476	 2.9874281052	 0.030193
C	-1.9042937947	-0.6973005267	 3.1065025234	-0.21756
C	-0.494460927	-0.1705209117	 2.7063784592	-0.051431
O	 0.0739510983	-1.2338245074	 3.5354676002	-0.285535
H	-0.6949399878	 1.942468875	 0.6616309697	 0.117679
H	-0.4034646807	 1.7496152948	-1.1246193091	 0.118098
H	 1.9709820196	 0.9886891956	-0.6460413132	 0.118714
H	 1.667951042	 1.1825612058	 1.1392263008	 0.124441
H	 0.1238387836	-0.6628669208	-0.8208315104	 0.087171
H	-0.796448494	-2.8563041991	 0.8083723922	 0.102732
H	-1.2793261502	-2.9251732744	 3.5175469492	 0.07898
H	-2.7399593456	-0.5494833261	 2.4192092572	 0.096755
H	-2.1654158482	-0.4507588887	 4.1386465343	 0.104755
H	-0.1291857107	 0.8297397185	 2.9382587856	 0.076913
79.012	136.0575	163.6105	344.2698	412.638	490.301	536.9043	619.4898	661.5051	773.0093	784.0063	786.372	822.8175	831.9964	845.0779	889.184	894.3754	910.7854	929.0112	935.0543	1017.91	1027.7727	1059.225	1074.121	1078.0704	1089.8031	1129.678	1157.6092	1198.1053	1199.4028	1220.2966	1227.4062	1242.5753	1258.0474	1297.4304	1321.6677	1384.229	1471.8194	1485.6606	1502.0756	1676.5877	3060.8844	3123.3649	3133.0851	3134.9715	3136.6482	3140.1857	3151.2696	3214.495	3230.6631	3241.8678
C1CC1C1=CC2CC1O2	C1CC1C1=C[C@@H]2C[C@H]1O2	
InChI=1S/C8H10O/c1-2-5(1)7-3-6-4-8(7)9-6/h3,5-6,8H,1-2,4H2	InChI=1S/C8H10O/c1-2-5(1)7-3-6-4-8(7)9-6/h3,5-6,8H,1-2,4H2/t6-,8-/m1/s1
