12
gdb 130826	4.6314	1.06251	0.86424	4.6838	63.14	-0.254	-0.1051	0.149	1199.3031	0.078321	-468.81465	-468.80716	-468.806216	-468.847911	25.488	
O	-0.0855978747	 0.0202492548	 0.0016403701	-0.210101
C	-0.0379105625	 1.2191495829	 0.0083740943	 0.080338
C	 1.3209562642	 1.9623430581	-0.0011732051	 0.196319
O	 2.3618933519	 1.347213051	-0.0160029229	-0.276848
C	 1.2843480131	 3.4339430086	 0.0085132496	 0.233052
N	 0.1442626916	 4.1447932829	 0.0250691714	-0.270307
N	 0.5687797625	 5.3895822329	 0.0283208355	-0.055889
N	 1.8887716205	 5.577904619	 0.0156520634	-0.185153
C	 2.3674173405	 4.33971474	 0.0029477339	-0.099901
H	-0.942844171	 1.8567228372	 0.0216379602	 0.119517
H	-0.0729944876	 6.16804154	 0.0399087908	 0.307218
H	 3.4254909016	 4.1379990225	-0.0094175511	 0.161757
57.0283	83.1559	153.0199	204.4909	291.3757	389.5365	498.6475	563.3615	588.8078	723.5013	736.6755	837.5455	920.318	945.226	990.195	1013.9265	1050.205	1146.7959	1224.4077	1245.7682	1368.8221	1393.443	1405.6913	1483.5569	1547.5268	1784.0002	1836.1949	2954.5214	3290.8705	3650.4077
O=CC(=O)C1=NNN=C1	O=CC(=O)c1n[nH]nc1	
InChI=1S/C4H3N3O2/c8-2-4(9)3-1-5-7-6-3/h1-2H,(H,5,6,7)	InChI=1S/C4H3N3O2/c8-2-4(9)3-1-5-7-6-3/h1-2H,(H,5,6,7)
