18
gdb 90385	2.12841	1.54006	1.30813	3.2358	76.29	-0.2654	0.0289	0.2943	1077.1528	0.146993	-401.935357	-401.926621	-401.925677	-401.968339	33.161	
C	-0.3026437737	 1.5518368868	-0.027903076	-0.437655
C	 0.021526908	 0.0636379488	-0.0217385946	-0.04009
C	 1.1850763745	-0.5193688056	-0.9031754906	-0.270338
C	 1.7250532315	-1.2590534623	 0.3285994593	-0.119115
C	 2.1511415569	-0.2530576335	 1.3915873704	-0.253869
C	 2.7765026778	 1.0034630885	 1.0831701211	 0.304861
N	 3.2849250333	 2.0135767914	 0.834256176	-0.360735
C	 0.6755902418	-0.6061691666	 1.1982348728	 0.367988
O	-0.0195846616	-1.1950707695	 2.2324252909	-0.454527
H	 0.5804988874	 2.1675352032	 0.156423874	 0.154316
H	-0.7206772922	 1.8472594849	-0.9960955612	 0.121402
H	-1.0514612658	 1.7905800528	 0.7361761874	 0.110888
H	-0.8855970832	-0.5117210303	-0.2351330067	 0.093608
H	 0.8324999398	-1.1857181087	-1.6916116871	 0.114254
H	 1.8680751702	 0.2164414329	-1.336166868	 0.127359
H	 2.1161009014	-2.2682560864	 0.3573999561	 0.110928
H	 2.5446742879	-0.7272061677	 2.2860422073	 0.136351
H	-0.296763794	-0.5086619586	 2.8503498789	 0.294374
128.6623	134.5655	188.4225	201.9881	231.0017	276.212	346.2137	384.4368	407.1844	464.6735	570.952	585.2999	640.0302	719.4929	802.94	824.1216	869.229	896.5752	948.606	984.915	1015.3792	1049.1254	1106.1168	1117.4587	1119.4226	1180.3548	1197.2213	1229.19	1241.0506	1286.8253	1308.8123	1324.3477	1378.75	1416.4273	1451.3991	1496.6641	1500.0787	1504.2593	2340.6897	3033.5508	3051.4264	3068.9488	3091.6531	3126.6937	3132.1715	3161.4224	3197.0679	3790.2688
CC1CC2C(C#N)C12O	C[C@H]1C[C@H]2[C@@H](C#N)[C@@]12O	
InChI=1S/C7H9NO/c1-4-2-5-6(3-8)7(4,5)9/h4-6,9H,2H2,1H3	InChI=1S/C7H9NO/c1-4-2-5-6(3-8)7(4,5)9/h4-6,9H,2H2,1H3/t4-,5-,6+,7+/m0/s1
