21
gdb 109312	2.20972	1.5715	1.07729	1.611	86.12	-0.2055	0.0202	0.2257	1208.7979	0.181953	-387.0855	-387.076485	-387.075541	-387.119462	34.227	
C	 0.1487473107	 1.6394029262	 0.0882142304	-0.369571
C	-0.0325744142	 0.1166488826	-0.058650592	-0.307131
C	 0.6790831975	-0.4505775598	-1.2539407181	 0.267449
C	 1.9270614131	-0.9166892401	-1.317230841	-0.228063
C	 2.2506093254	-1.3547923972	-2.7162249385	-0.132362
O	 1.0851690574	-1.0405077573	-3.477990056	-0.312514
C	 0.0741237776	-0.569497114	-2.6100596245	 0.385908
C	-1.3306048193	-1.0662810465	-2.8651082368	-0.328369
C	-0.9468697368	 0.3598545671	-3.2078746424	-0.329954
H	 1.2064593034	 1.8904740083	 0.210704757	 0.12265
H	-0.2176816711	 2.1759069176	-0.791669887	 0.126137
H	-0.3952520651	 2.0110405071	 0.962278643	 0.113389
H	 0.3402120196	-0.3746770863	 0.8465719338	 0.110157
H	-1.1029338328	-0.116201331	-0.1152154748	 0.104918
H	 2.6274728586	-0.9918130945	-0.4944559602	 0.095894
H	 3.116597724	-0.827113677	-3.1445512584	 0.105267
H	 2.4659457378	-2.4344348385	-2.7813059056	 0.10146
H	-1.4414391541	-1.7654786851	-3.6861403899	 0.124011
H	-1.9915766768	-1.240629254	-2.0224823469	 0.111647
H	-1.3484996058	 1.1646775634	-2.6018359369	 0.113416
H	-0.8105180892	 0.603494319	-4.255621845	 0.125661
76.0683	78.3062	154.0623	189.6966	252.4634	257.0791	306.4271	383.2738	431.8765	529.0085	614.7026	670.7255	765.4944	772.4676	797.6959	812.8013	864.3027	884.1825	920.7812	943.353	964.5626	983.9473	1043.7481	1045.4956	1065.3672	1067.854	1084.5632	1094.7604	1161.2591	1192.9183	1194.6212	1235.2215	1270.3993	1313.0583	1349.8514	1382.3126	1400.8711	1410.76	1449.4725	1483.9163	1493.5112	1495.2736	1508.9442	1523.2959	1710.8885	2961.1569	2989.2572	3030.6818	3039.7145	3067.6948	3110.7033	3117.2026	3130.1309	3134.718	3208.3233	3215.9851	3230.9417
CCC1=CCOC11CC1	CCC1=CCOC21CC2	
InChI=1S/C8H12O/c1-2-7-3-6-9-8(7)4-5-8/h3H,2,4-6H2,1H3	InChI=1S/C8H12O/c1-2-7-3-6-9-8(7)4-5-8/h3H,2,4-6H2,1H3
