14
gdb 33280	3.30769	0.83863	0.70587	5.4591	89.53	-0.26	-0.046	0.214	1521.7949	0.099202	-362.350706	-362.34197	-362.341026	-362.384615	31.719	
C	 0.0256482	-1.1822996654	 0.0005694222	-0.440475
C	-0.0001452987	 0.0189241767	 0.0006287773	 0.251085
C	-0.0222657902	 1.4589900865	 0.0067794259	-0.015233
C	 0.4987695962	 2.1886175735	 1.2606907414	-0.281158
C	 1.3256577435	 2.206589551	 0.0245597396	-0.28116
C	-1.1035095963	 2.0735982929	-0.7076028545	 0.054143
C	-2.0129137139	 2.5974448213	-1.3082612197	 0.053474
C	-3.0362140313	 3.1946571594	-1.9839518017	 0.195297
N	-3.9065332076	 3.7075711939	-2.5585614174	-0.33769
H	 0.0412543325	-2.2442717644	-0.0041021396	 0.206473
H	-0.0332773805	 3.0884835832	 1.544271699	 0.147844
H	 0.796975279	 1.5452373973	 2.0791963459	 0.149779
H	 2.2045638401	 1.5758154908	-0.0250691002	 0.149778
H	 1.3725001372	 3.1190378332	-0.5572440082	 0.147843
68.2641	98.909	163.5592	206.7196	233.1278	242.0937	417.7423	456.1176	510.6281	554.0959	556.578	589.256	593.4511	605.9494	674.076	780.7851	816.7337	838.3138	964.1564	970.2343	1067.4904	1076.9982	1095.7667	1199.8571	1267.7797	1338.5938	1461.1728	1487.2647	2243.9201	2263.739	2392.9112	3152.37	3155.1949	3242.5179	3256.7327	3501.5463
C#CC1(CC1)C#CC#N	C#CC1(CC1)C#CC#N	
InChI=1S/C8H5N/c1-2-8(5-6-8)4-3-7-9/h1H,5-6H2	InChI=1S/C8H5N/c1-2-8(5-6-8)4-3-7-9/h1H,5-6H2
