19
gdb 76580	2.90005	1.20506	1.18893	1.0966	71.44	-0.2143	0.0495	0.2638	1153.9944	0.1592	-460.1365	-460.127849	-460.126905	-460.169949	32.992	
O	 0.2058716096	 1.1660915766	-0.1797877612	-0.427754
C	-0.0164557824	-0.2018395524	-0.0162110357	 0.000445
C	-0.5693709255	-0.6741498989	 1.3203941797	-0.07199
O	-0.8728250064	 0.329310364	 2.2584361797	-0.427377
C	-1.4412914827	-0.7170963238	 0.1051378823	 0.381838
C	-2.6331135334	 0.206297007	-0.1382590431	-0.314383
C	-3.5991125102	-0.698186234	-0.9409108732	-0.213483
C	-2.6752183512	-1.8154759589	-1.4426380119	-0.091734
O	-1.7354409451	-2.0035395575	-0.387064326	-0.28632
H	-0.0813030077	 1.5845494959	 0.6438827854	 0.285186
H	 0.7151087796	-0.8204259409	-0.5278237204	 0.106401
H	-0.2358352461	-1.6261725953	 1.7284680911	 0.103162
H	-0.1067177746	 0.4353552681	 2.8334992098	 0.298096
H	-3.077054445	 0.5617114297	 0.794055639	 0.121774
H	-2.3146011555	 1.0822534686	-0.7102294719	 0.121653
H	-4.3643635264	-1.1192193155	-0.2826258428	 0.110104
H	-4.1035487616	-0.1692654096	-1.7529719568	 0.10295
H	-3.1761215531	-2.7708601973	-1.6162397547	 0.107132
H	-2.1604853022	-1.5142604557	-2.3686149195	 0.094299
57.8721	148.88	183.183	214.1833	244.8489	288.224	324.1417	425.2924	483.3642	519.5363	583.4823	627.7267	653.2171	766.4677	835.539	864.5427	882.7229	924.9524	936.0546	961.2794	1022.5366	1041.0973	1068.5834	1107.7831	1139.1711	1155.6912	1179.9833	1214.3397	1216.3921	1246.1528	1255.8243	1281.4299	1314.7856	1327.8278	1342.7534	1386.117	1399.6808	1483.5725	1489.1124	1508.1737	1521.4984	2982.1531	3060.1908	3066.03	3099.2356	3104.1149	3119.4906	3125.9775	3157.185	3738.8329	3799.5116
OC1C(O)C11CCCO1	O[C@H]1[C@@H](O)[C@]21CCCO2	
InChI=1S/C6H10O3/c7-4-5(8)6(4)2-1-3-9-6/h4-5,7-8H,1-3H2	InChI=1S/C6H10O3/c7-4-5(8)6(4)2-1-3-9-6/h4-5,7-8H,1-3H2/t4-,5+,6+
