22
gdb 8456	3.7543	1.69454	1.52618	0.0764	81.66	-0.2855	0.0877	0.3732	970.2513	0.202022	-313.075988	-313.068278	-313.067333	-313.10722	31.573	
C	-0.1505021889	 1.521516754	 0.0106665343	-0.415962
C	 0.0599569197	 0.008993266	 0.042613677	 0.056156
C	 1.0004630817	-0.5588128129	-1.0750390813	-0.261738
C	 2.0350273825	-1.3115240626	-0.2071211848	 0.360117
C	 3.1445369095	-2.0512971136	-0.9181946951	-0.497102
C	 1.1073571411	-1.9990833065	 0.8451787781	-0.262196
C	 0.8272377332	-0.5314283587	 1.2725425231	-0.019715
C	 2.314153292	-0.2564804187	 0.9083171228	-0.258889
H	 0.7972357986	 2.0658430198	 0.0799331745	 0.113471
H	-0.638822165	 1.8303232878	-0.9201758164	 0.11131
H	-0.7840421235	 1.8498508499	 0.8422992245	 0.108941
H	-0.9225374288	-0.4751099677	-0.0110043461	 0.062913
H	 0.4802622246	-1.2261748086	-1.7700154338	 0.087844
H	 1.469308993	 0.2363058422	-1.6662302089	 0.087869
H	 3.7468222001	-1.3688493663	-1.5297191715	 0.112286
H	 3.8171847723	-2.5434725989	-0.2073871071	 0.109536
H	 2.7421685913	-2.8223828278	-1.5859002089	 0.112172
H	 0.2671031977	-2.5995322077	 0.4799369581	 0.080647
H	 1.6734327889	-2.5601380693	 1.593681716	 0.0879
H	 0.4215427065	-0.2865744025	 2.255490442	 0.051197
H	 3.0051955654	-0.631287642	 1.6681613258	 0.089123
H	 2.6093138679	 0.7526726841	 0.6053236477	 0.084119
166.6282	217.4488	222.7245	244.6367	308.9487	345.3186	424.1657	470.7487	515.0365	582.1196	663.6877	796.1413	820.8898	832.9951	868.731	898.5302	918.7379	930.0906	967.3781	984.8815	1011.1753	1039.5463	1050.5247	1063.531	1089.5327	1128.3388	1161.6856	1172.0394	1196.899	1226.3383	1243.2391	1258.2437	1262.049	1286.1733	1322.6786	1347.5534	1381.0816	1412.6458	1414.2171	1485.0121	1490.6076	1494.0582	1496.2295	1499.9154	1500.9207	1528.5265	3019.0022	3023.0885	3026.3103	3033.8482	3038.3127	3050.7188	3075.8877	3081.7361	3089.1452	3090.6391	3096.2009	3099.2151	3102.2843	3108.3866
CC1CC2(C)CC1C2	C[C@H]1C[C@]2(C)C[C@H]1C2	
InChI=1S/C8H14/c1-6-3-8(2)4-7(6)5-8/h6-7H,3-5H2,1-2H3	InChI=1S/C8H14/c1-6-3-8(2)4-7(6)5-8/h6-7H,3-5H2,1-2H3/t6-,7-,8+/m0/s1
