16
gdb 117617	2.14958	1.09561	0.9187	3.9071	69.64	-0.288	-0.0255	0.2625	1313.0458	0.122669	-434.059873	-434.049808	-434.048864	-434.095161	35.068	
N	-0.1094596341	 1.4841464662	 0.2047907155	-0.513994
C	-0.0002914129	 0.0354283527	-0.0091837269	-0.094109
C	 0.7219270137	-0.413049573	-1.3200810627	-0.22496
C	 0.0391151091	 0.0654145715	-2.6076808869	-0.091234
O	 0.7899434354	-0.2933513031	-3.7507275012	-0.408199
C	 0.7516732121	-0.5313273978	 1.1339493237	 0.334883
N	 1.3916090933	-0.9702112158	 1.9884325685	-0.315683
C	-1.3695456315	-0.5291842348	 0.0086333556	 0.331609
N	-2.4366698133	-0.9670918034	-0.0363398849	-0.322496
H	 0.812298301	 1.9067369352	 0.1435289801	 0.254971
H	-0.6972249741	 1.900038935	-0.5101546019	 0.257959
H	 1.7437914332	-0.0218355306	-1.2841795576	 0.133714
H	 0.7925011857	-1.5069360432	-1.3227282024	 0.130003
H	-0.9910246052	-0.3152598776	-2.6570910533	 0.124946
H	-0.0143894729	 1.1589519221	-2.6228753515	 0.111126
H	 0.7111810606	-1.2442525834	-3.878018624	 0.291464
80.3573	96.8902	120.6486	135.1793	194.5144	204.6839	258.8472	297.5785	308.4911	353.1246	409.248	492.1964	535.1069	575.8301	624.2393	739.5666	784.1281	822.3672	956.2625	991.3237	1058.4404	1064.859	1088.4397	1121.0243	1220.1605	1282.2819	1330.6422	1350.4484	1407.7496	1425.6667	1475.4471	1514.1222	1646.5845	2366.7129	2371.7869	3009.2283	3042.9875	3072.1463	3099.6527	3501.8451	3595.611	3818.9142
NC(CCO)(C#N)C#N	NC(CCO)(C#N)C#N	
InChI=1S/C5H7N3O/c6-3-5(8,4-7)1-2-9/h9H,1-2,8H2	InChI=1S/C5H7N3O/c6-3-5(8,4-7)1-2-9/h9H,1-2,8H2
