14
gdb 8830	3.07155	1.59762	1.14191	3.9089	58.68	-0.2748	-0.0161	0.2587	1015.281	0.105895	-415.887385	-415.878323	-415.877379	-415.922966	29.672	
C	 0.1034130557	 1.3375876942	 0.1502895286	-0.24336
O	 0.2213449287	-0.0898198876	 0.0119695167	-0.218405
C	 0.5824667915	-0.5290996376	-1.1950835328	 0.432963
O	 0.7838576762	 0.1576953355	-2.1606710672	-0.351718
C	 0.6711351647	-2.0780232982	-1.2190138061	-0.234346
N	 1.0215654093	-2.6374991794	-2.5130129939	-0.485993
C	 1.6127032113	-2.5383525907	-0.1884945247	 0.302348
N	 2.3696674497	-2.8860028745	 0.6111762063	-0.311819
H	 1.0589793128	 1.8191258505	-0.068381362	 0.152279
H	-0.6569567447	 1.7235391215	-0.5324966508	 0.147437
H	-0.185384661	 1.5089393813	 1.1862806297	 0.147937
H	-0.3226159498	-2.4465448501	-0.9317950758	 0.161918
H	 0.3541269359	-2.2969008289	-3.1994787957	 0.24906
H	 1.9227806896	-2.2673023458	-2.8031574624	 0.251698
14.0061	103.8196	109.3824	157.579	168.4782	226.303	266.9309	326.4595	413.559	468.345	597.3287	608.6896	787.8029	865.363	908.6055	957.1188	1011.956	1151.3907	1177.8057	1200.9163	1213.9708	1251.9282	1298.8381	1398.0867	1473.0838	1483.1102	1494.057	1669.7581	1834.7977	2368.4969	3035.7447	3058.6336	3137.6401	3172.15	3497.9767	3572.2819
COC(=O)C(N)C#N	COC(=O)[C@@H](N)C#N	
InChI=1S/C4H6N2O2/c1-8-4(7)3(6)2-5/h3H,6H2,1H3	InChI=1S/C4H6N2O2/c1-8-4(7)3(6)2-5/h3H,6H2,1H3/t3-/m0/s1
