13
gdb 24889	3.60533	1.27206	0.9403	6.1336	78.94	-0.2406	-0.0826	0.1579	1140.1464	0.090509	-415.639454	-415.63217	-415.631225	-415.671457	27.37	
O	-0.081774452	-0.0455343492	 0.0033283023	-0.377708
C	 0.0109766727	 1.159984416	 0.0095683409	 0.440166
N	-1.1731839792	 1.9436381707	 0.0295393687	-0.415369
C	-1.2038818346	 3.3053816289	 0.0369804451	 0.274023
C	-0.0078000308	 3.9744485143	 0.0240296989	-0.243436
C	 1.1663720798	 3.1756098146	 0.003562465	 0.037214
N	 1.2043727536	 1.8714472182	-0.0037404417	-0.311284
C	-2.4732771245	 3.9422556987	 0.0576426079	 0.233437
C	-3.5569257465	 4.4643713586	 0.0751704306	-0.38143
H	-2.036381659	 1.4179751787	 0.0385334979	 0.274455
H	 0.0296975937	 5.0533319675	 0.0290820072	 0.123119
H	 2.1326069075	 3.6813131079	-0.0072702186	 0.126481
H	-4.5104603608	 4.933893965	 0.0906474959	 0.220331
124.135	135.472	141.8263	344.6258	441.1146	456.0299	464.1923	565.7047	600.6376	643.7514	666.2497	681.0281	720.2438	759.3834	800.8556	824.2017	899.5789	1012.1043	1027.4006	1076.2091	1137.3538	1218.2616	1355.4915	1410.3714	1461.952	1580.7642	1646.7881	1818.0323	2236.284	3125.3528	3249.0459	3494.7823	3609.6289
O=C1NC(=CC=N1)C#C	O=c1[nH]c(ccn1)C#C	
InChI=1S/C6H4N2O/c1-2-5-3-4-7-6(9)8-5/h1,3-4H,(H,7,8,9)	InChI=1S/C6H4N2O/c1-2-5-3-4-7-6(9)8-5/h1,3-4H,(H,7,8,9)
