18
gdb 91084	3.44826	1.42073	1.2397	2.4302	77.39	-0.2305	0.0037	0.2342	1039.3586	0.149953	-401.89444	-401.887332	-401.886388	-401.925803	29.203	
O	-0.1154195623	 1.3638491715	-0.2048119249	-0.424515
C	 0.0271833445	-0.0187968351	-0.0623423178	 0.076606
C	 0.2824569626	-0.6611889599	 1.3628530987	-0.292881
C	-0.6547565972	-1.854029289	 0.9675524259	-0.046311
C	-1.9084508079	-2.291667712	 1.7049845557	-0.072513
N	-2.6888795882	-1.2045032257	 2.3263144476	-0.338887
C	-3.0787514781	-1.7022687611	 0.9711588162	-0.065982
C	-2.5225103419	-0.7903195735	-0.080643744	-0.211992
C	-1.1916041439	-0.9130104945	-0.0932980862	 0.186714
H	-0.8640023385	 1.6305634041	 0.3418773338	 0.282877
H	 0.8135956062	-0.3218885251	-0.7611344433	 0.100884
H	 1.3189387218	-0.8964971801	 1.6132033484	 0.102489
H	-0.1756231766	-0.0496157055	 2.1430902303	 0.124215
H	-0.0849910437	-2.7082285005	 0.5889094795	 0.076807
H	-1.9666482082	-3.2827790391	 2.1414388142	 0.084786
H	-3.311025418	-1.6194556161	 3.0178220839	 0.228626
H	-4.028076265	-2.2176203169	 0.8672852331	 0.089508
H	-3.1082832257	-0.0193493115	-0.5672536411	 0.099569
113.2204	192.0489	249.6362	373.5065	409.5013	449.0216	507.0193	546.0704	661.7995	680.6225	689.8215	800.9931	819.9624	834.6501	855.241	864.7599	904.3848	951.4389	964.9529	997.2793	1026.8643	1052.7147	1079.7033	1090.9327	1120.4034	1146.8539	1161.5349	1182.805	1217.8977	1230.4574	1246.1802	1265.374	1314.6122	1345.1262	1362.5224	1395.6798	1434.465	1467.6678	1687.8786	3055.2449	3062.1503	3067.4347	3138.8987	3160.3487	3171.485	3199.7803	3481.3568	3789.6062
OC1CC2C3NC3C=C12	O[C@H]1C[C@H]2[C@H]3N[C@H]3[CH][C]12	
InChI=1S/C7H9NO/c9-6-2-4-3(6)1-5-7(4)8-5/h1,4-9H,2H2	InChI=1S/C7H9NO/c9-6-2-4-3(6)1-5-7(4)8-5/h1,4-9H,2H2/t4-,5+,6+,7-/m1/s1
