18
gdb 63389	3.114	1.15456	0.98158	4.1339	73.	-0.2746	0.0156	0.2902	1222.3911	0.145037	-439.087871	-439.078508	-439.077564	-439.121438	35.662	
C	 0.5867280363	 1.4244273128	 0.1152681896	-0.462304
C	-0.1369494017	 0.0935324276	-0.0431283323	 0.414525
O	-1.5222223132	 0.2727228235	-0.2486139826	-0.474805
C	 0.5692328539	-0.9044969862	-1.0209893047	-0.300375
C	 1.1632145343	-1.6466381818	 0.2061193539	 0.252525
O	 2.493408969	-1.2014435758	 0.4047460843	-0.462307
C	 0.1141083088	-0.9196057523	 1.1049667836	-0.308272
C	 1.1049000424	-3.1131421565	 0.198377062	 0.236676
N	 1.0627697136	-4.2683712587	 0.218158063	-0.338128
H	 1.6488366098	 1.2679601055	 0.3169912007	 0.142218
H	 0.5032703924	 2.0188203608	-0.8036238548	 0.10966
H	 0.1470742207	 1.9974178343	 0.9378371108	 0.12506
H	-1.6455455783	 0.9742479325	-0.8972432398	 0.278152
H	-0.1680980595	-1.512913092	-1.5461153791	 0.129147
H	 1.3172137003	-0.5203457627	-1.7172443784	 0.121107
H	 2.7961580715	-1.522732003	 1.2623220984	 0.291924
H	 0.4910107518	-0.5366061405	 2.056397588	 0.109252
H	-0.7748583121	-1.5301153075	 1.2725836375	 0.135946
86.4626	141.6135	193.6473	256.0699	266.0042	272.3623	306.7083	355.3135	368.6629	401.4547	426.226	452.4363	519.5356	591.0346	612.0289	712.4175	843.2396	851.4917	909.3624	927.1799	955.0751	984.2509	1002.2579	1062.2065	1094.2214	1137.1883	1190.177	1229.0316	1245.3805	1266.6412	1302.0623	1358.4147	1381.8461	1407.9573	1450.4007	1472.2037	1492.861	1500.6363	2349.2864	3023.3866	3070.1703	3080.6596	3093.0396	3131.3349	3139.7465	3150.1282	3795.0801	3804.8168
CC1(O)CC(O)(C1)C#N	C[C@@]1(O)C[C@@](O)(C1)C#N	
InChI=1S/C6H9NO2/c1-5(8)2-6(9,3-5)4-7/h8-9H,2-3H2,1H3	InChI=1S/C6H9NO2/c1-5(8)2-6(9,3-5)4-7/h8-9H,2-3H2,1H3/t5-,6-
