22
gdb 58281	3.00473	0.87602	0.76561	15.5352	82.66	-0.1602	-0.0006	0.1596	1554.0247	0.19279	-441.446778	-441.43614	-441.435196	-441.48341	38.564	
C	 0.218479628	 1.9559822521	-0.0590147346	-0.430621
C	 0.1352842276	 0.4374599625	-0.0266131214	 0.067397
C	-1.2790082964	-0.0443010798	 0.2199111938	-0.414047
C	-1.6827783089	 0.1744725597	 1.7798363687	 0.378028
O	-0.758894134	 0.6555444384	 2.468275928	-0.468099
O	-2.8309184051	-0.1803358265	 2.0337957583	-0.447577
N	 0.6914028739	-0.1972921037	-1.3634994581	-0.081433
H	-0.0922415734	-0.1308850706	-2.0155513266	 0.287322
C	 1.8617508935	 0.5052484241	-1.9669768376	-0.347037
C	 1.0029877066	-1.6462794141	-1.1753343873	-0.352421
H	 1.2386134055	 2.3416705578	-0.1315930905	 0.106199
H	-0.3931205318	 2.3856736506	-0.861262731	 0.107685
H	-0.1901721005	 2.2588785929	 0.9081447189	 0.207371
H	 0.7941892759	 0.0510684507	 0.7543579931	 0.137859
H	-1.9959857144	 0.4980469924	-0.4080279987	 0.099373
H	-1.4138649054	-1.1134263004	 0.0296603021	 0.098901
H	 2.1919239138	-0.0421982465	-2.8520171505	 0.157474
H	 1.5768402041	 1.518504202	-2.2407705739	 0.180871
H	 2.665397141	 0.5346026335	-1.2299292156	 0.18172
H	 0.1427581488	-2.1420163679	-0.7317013081	 0.194803
H	 1.2424690246	-2.0954308822	-2.1407712811	 0.156355
H	 1.8594464468	-1.723571915	-0.5044838781	 0.179875
40.5609	55.4768	68.8795	187.829	206.0949	247.5139	263.9085	286.8619	340.5125	369.9217	379.04	419.8282	462.1221	511.6062	584.0854	630.1155	715.508	788.1337	889.1453	890.2805	931.7346	1001.7935	1024.7377	1047.4624	1054.4893	1116.3676	1124.2731	1179.8734	1201.0823	1231.4185	1248.4605	1272.62	1326.5115	1359.4072	1371.4362	1393.7996	1428.0338	1434.4334	1454.6339	1468.4755	1481.5321	1484.7491	1496.5372	1500.0415	1511.2218	1526.6782	1812.948	3027.8679	3036.0938	3071.8882	3077.4287	3085.898	3099.6622	3116.0791	3135.3909	3156.8581	3162.5254	3189.5676	3195.1673	3448.2414
CC(CC([O-])=O)[NH+](C)C	C[C@@H](CC(=O)[O])[NH](C)C	
InChI=1S/C6H13NO2/c1-5(7(2)3)4-6(8)9/h5H,4H2,1-3H3,(H,8,9)	InChI=1S/C6H13NO2/c1-5(7(2)3)4-6(8)9/h5,7H,4H2,1-3H3/t5-/m0/s1
