21
gdb 114619	2.20347	1.43105	1.00732	2.5047	79.43	-0.2441	0.0752	0.3193	1274.7844	0.180224	-424.183068	-424.173385	-424.172441	-424.218008	35.241	
C	 0.0891474007	 1.4700252727	 0.4298196334	-0.376172
C	 0.0845930869	 0.0070833155	-0.0392174625	-0.312502
C	-1.304387011	-0.5311441328	-0.1866250415	 0.410363
O	-2.050588244	-0.813851274	 1.008335035	-0.287423
C	-1.9231711898	-1.8551488168	 0.0356144327	-0.061282
C	-3.0257871681	-1.6076307861	-0.9993265253	-0.293713
C	-2.3230979918	-0.225183831	-1.2952485045	 0.087543
O	-3.0279834152	 0.9696765776	-1.1291910674	-0.241013
C	-3.9568245175	 1.2202216602	-2.1603769159	-0.235029
H	 1.1110635528	 1.8533395128	 0.5034862664	 0.107699
H	-0.4695323866	 2.1048647543	-0.2640256244	 0.131556
H	-0.3829665867	 1.5572087671	 1.4124475564	 0.135499
H	 0.6015046611	-0.0801120593	-1.0032756291	 0.098688
H	 0.6295157547	-0.6203032519	 0.6749662673	 0.108536
H	-1.4743781002	-2.7888166577	 0.3552084543	 0.102581
H	-3.023398193	-2.2874212558	-1.8541659853	 0.101351
H	-4.0266578316	-1.5427055235	-0.5669881136	 0.115479
H	-1.8359170501	-0.2572230849	-2.2838772902	 0.065879
H	-4.429895373	 2.1810763661	-1.9450944172	 0.129839
H	-3.4660965601	 1.2769571296	-3.1452195335	 0.102296
H	-4.7359554272	 0.444962838	-2.2085880352	 0.109827
67.8114	86.7592	123.1815	152.2782	198.2596	200.4908	276.4301	308.1211	354.117	431.7292	495.2463	560.8706	672.8441	734.039	785.8092	825.493	889.0566	921.6917	941.1082	972.0262	998.4246	1029.1026	1058.0852	1069.1247	1104.7556	1142.6328	1172.3334	1183.8653	1199.3663	1201.9244	1237.2667	1256.3237	1273.3647	1319.8502	1351.1489	1383.7764	1406.9704	1451.1177	1469.258	1476.4028	1485.1594	1488.3458	1494.7592	1508.0841	1510.3652	2964.8378	2974.8759	3022.7841	3027.2917	3043.0916	3068.6243	3069.4456	3115.678	3117.4641	3121.5798	3129.9211	3184.2264
CCC12OC1CC2OC	CC[C@]12O[C@H]1C[C@H]2OC	
InChI=1S/C7H12O2/c1-3-7-5(8-2)4-6(7)9-7/h5-6H,3-4H2,1-2H3	InChI=1S/C7H12O2/c1-3-7-5(8-2)4-6(7)9-7/h5-6H,3-4H2,1-2H3/t5-,6+,7-/m1/s1
