20
gdb 50351	3.34976	1.2974	1.21196	4.3485	79.69	-0.2328	0.036	0.2688	1107.2473	0.174927	-403.197663	-403.190253	-403.189309	-403.230063	29.359	
O	-0.027074304	-0.0177193728	 0.1858294826	-0.347285
C	 0.0283719044	 1.1947064685	 0.1107108878	 0.127966
N	 1.1731714204	 1.9063579103	 0.0167802952	-0.014303
C	 2.5118832849	 1.2981344391	 0.0462332625	-0.162943
C	 3.405175748	 2.5540745073	-0.0317893157	-0.03706
C	 3.2652179775	 3.1681126577	-1.4485351567	-0.208937
C	 1.8132928107	 3.753287484	-1.4428675722	-0.205425
C	 1.3148908452	 3.366476657	-0.0316097347	-0.009383
C	 2.5868712228	 3.5530848428	 0.8192189804	-0.221701
H	-0.8698443262	 1.8457045087	 0.1152258628	 0.063621
H	 2.6540333103	 0.7283038495	 0.9716830194	 0.118828
H	 2.6557727318	 0.6116479234	-0.7941703638	 0.120073
H	 4.4332891194	 2.3715875182	 0.2815257926	 0.072592
H	 4.0084152917	 3.9553521216	-1.6030707614	 0.101386
H	 3.4131786931	 2.421317816	-2.2332011911	 0.105518
H	 1.8138564711	 4.8402178348	-1.5696080866	 0.101407
H	 1.1775044742	 3.3252751962	-2.2208947012	 0.108869
H	 0.4034366077	 3.8652025377	 0.2991713812	 0.078548
H	 2.4527551996	 3.2429193118	 1.8585547149	 0.106653
H	 2.9796005773	 4.5726362582	 0.786291554	 0.101575
44.2886	185.8655	222.8397	310.7793	380.8272	391.087	470.1574	503.2909	629.9667	765.5167	783.4946	816.2132	851.6836	860.8828	887.1977	934.8258	954.7399	958.6178	962.7338	975.8441	1031.2147	1050.5732	1084.1894	1126.8737	1142.6086	1172.3117	1197.2412	1213.0694	1242.6033	1260.1485	1280.1898	1303.2528	1321.3164	1324.444	1343.2245	1360.0405	1416.3776	1452.7399	1486.6644	1490.9429	1507.1178	1525.7382	1784.8439	2920.8158	3036.699	3052.2364	3060.8234	3065.3232	3077.1435	3094.333	3113.9577	3115.0865	3118.4274	3120.6697
O=CN1CC2CCC1C2	O=CN1C[C@H]2CC[C@@H]1C2	
InChI=1S/C7H11NO/c9-5-8-4-6-1-2-7(8)3-6/h5-7H,1-4H2	InChI=1S/C7H11NO/c9-5-8-4-6-1-2-7(8)3-6/h5-7H,1-4H2/t6-,7+/m0/s1
