16
gdb 76603	2.98563	1.08805	1.03885	3.9158	74.03	-0.2688	-0.0914	0.1774	1207.374	0.122409	-437.892581	-437.883603	-437.882659	-437.926507	32.525	
C	-0.18238393	 1.5205088525	-0.0207545333	-0.427493
C	 0.0307404268	 0.0259509138	 0.0400728783	-0.06463
C	 1.325132422	-0.6252859586	-0.2539742827	 0.132303
O	 2.4775415282	 0.062405003	-0.5367169366	-0.40451
C	 0.7701938399	-0.667416347	 1.2212150884	-0.242578
C	 1.5263728774	 0.1074295549	 2.1926902909	 0.327346
O	 2.1718295122	 1.1187043683	 1.9499788433	-0.359087
C	 1.5249692775	-0.4298077444	 3.566250099	 0.237851
N	 1.5112467471	-0.8493132879	 4.6437203208	-0.300959
H	 0.6848813788	 2.0809457188	 0.3286881829	 0.150172
H	-0.3857207436	 1.8160245337	-1.0550456732	 0.135565
H	-1.0408761434	 1.8133940489	 0.5905792575	 0.131979
H	-0.8391063078	-0.5590977696	-0.2483092228	 0.114363
H	 1.3167276963	-1.5900493377	-0.7518077565	 0.130117
H	 2.5956441973	 0.7599225562	 0.131435819	 0.316273
H	 0.3492299111	-1.5964692649	 1.5853089651	 0.12329
61.4664	143.9655	160.6461	183.3719	196.7767	269.2068	299.0318	375.5462	417.6645	517.9988	531.1054	597.3172	620.1302	639.8592	793.9182	808.0908	855.0954	901.8675	941.8981	1018.7729	1070.4038	1082.2417	1134.2067	1143.439	1175.1737	1257.2362	1358.7378	1389.4971	1406.2419	1422.8903	1467.0412	1501.3168	1505.6552	1707.2519	2339.1622	3048.9056	3109.2816	3136.2846	3153.9928	3167.7281	3191.1785	3629.9132
CC1C(O)C1C(=O)C#N	C[C@H]1[C@@H](O)[C@H]1C(=O)C#N	
InChI=1S/C6H7NO2/c1-3-5(6(3)9)4(8)2-7/h3,5-6,9H,1H3	InChI=1S/C6H7NO2/c1-3-5(6(3)9)4(8)2-7/h3,5-6,9H,1H3/t3-,5-,6-/m1/s1
