15
gdb 24533	3.9808	1.66558	1.17426	2.8599	85.05	-0.1886	-0.0469	0.1417	973.5449	0.117703	-379.734238	-379.728141	-379.727197	-379.76446	25.198	
N	 0.0058164272	 1.3452846532	 0.0097191348	-0.374675
C	 1.1654760007	 2.0436908484	 0.0021281369	 0.075522
N	 2.3553014086	 1.5008840947	-0.01266054	-0.289712
C	 2.4296863991	 0.1405274187	-0.0209649887	-0.099626
C	 1.3240170146	-0.6733010637	-0.0145569999	 0.248428
C	 1.0764553886	-2.0743376856	-0.0199211037	-0.286464
C	-0.2963345075	-2.243758264	-0.0072634869	-0.072155
C	-0.9796252266	-0.9801497249	 0.0065402096	-0.314023
C	 0.0054638671	-0.0252974899	 0.0020969472	 0.331338
H	-0.8699029794	 1.8501301151	 0.0211943369	 0.270659
H	 1.0633840778	 3.1241869285	 0.0091549227	 0.130839
H	 3.4366955458	-0.2692392186	-0.0332171615	 0.116327
H	 1.8269777705	-2.8505009606	-0.0316786976	 0.088777
H	-0.8049062601	-3.2001743518	-0.0075537876	 0.092489
H	-2.0491742363	-0.8298952495	 0.017966268	 0.082275
207.0604	244.1911	384.4838	411.6818	562.1305	570.3803	608.2362	620.3788	695.6987	721.0545	745.7306	762.8627	781.2212	862.4397	891.4966	909.9353	911.657	978.3593	1033.5132	1088.5026	1098.927	1174.3557	1225.7837	1280.7686	1312.135	1363.79	1388.4695	1421.7927	1458.4096	1510.231	1528.8713	1630.9527	1651.1557	3160.7652	3186.8427	3206.474	3234.5611	3245.2706	3595.1734
N1C=NC=C2C=CC=C12	[nH]1cncc2cccc12	
InChI=1S/C7H6N2/c1-2-6-4-8-5-9-7(6)3-1/h1-5H,(H,8,9)	InChI=1S/C7H6N2/c1-2-6-4-8-5-9-7(6)3-1/h1-5H,(H,8,9)
