19
gdb 69561	2.76228	1.527	1.37262	1.4612	74.59	-0.2424	0.0731	0.3155	1032.0742	0.158175	-422.966535	-422.958392	-422.957448	-422.998554	32.636	
C	-0.124721598	 1.4971353272	-0.0320186048	-0.4785
C	 0.0499659382	 0.0040544348	 0.0397371239	 0.461666
O	-1.2176298482	-0.7244019739	-0.0193723772	-0.337313
C	-0.9359803611	-1.4090142191	 1.2275853127	-0.117079
C	 0.4725809632	-0.7934811238	 1.2955353789	-0.201735
C	 1.6110520336	-1.4334232519	 0.4618603173	 0.387946
O	 2.8852754303	-1.6278894472	 0.96437444	-0.463224
C	 1.117621011	-2.1224148351	-0.7767334063	-0.367998
C	 1.2169309012	-0.6140213003	-0.7676483631	-0.155712
H	 0.833786863	 2.0052260265	 0.1152140305	 0.123654
H	-0.5134827907	 1.7831114387	-1.0160347856	 0.129567
H	-0.8296018341	 1.8456054167	 0.7281744376	 0.121795
H	-1.6121180876	-1.0735283112	 2.0237677776	 0.100567
H	-1.0081452063	-2.4990158266	 1.1317030998	 0.096799
H	 0.8063178462	-0.2998777923	 2.2072354979	 0.083602
H	 2.9672752593	-2.5473286621	 1.2407613308	 0.286352
H	 1.9086344033	-2.6059863494	-1.3416723281	 0.111958
H	 0.1470494973	-2.6020622198	-0.8393057434	 0.129368
H	 1.8338440194	-0.0785191712	-1.4800209484	 0.088287
141.5702	210.2367	239.7388	248.8269	298.2228	308.5609	339.6766	395.1704	481.778	516.8934	582.532	645.9391	737.6857	811.5167	846.2782	873.405	895.592	932.1001	946.047	982.0296	991.8398	1005.0462	1016.4721	1068.9981	1074.5089	1101.7803	1146.6127	1164.6976	1177.1324	1194.4595	1238.5827	1274.3202	1299.7495	1331.3326	1356.2457	1400.853	1408.7195	1480.879	1486.1339	1492.8169	1521.4666	3013.6732	3032.1031	3056.8515	3100.2467	3114.6187	3126.9861	3130.4094	3179.5179	3217.906	3792.1075
CC12OCC1C1(O)CC21	C[C@]12OC[C@H]1[C@@]1(O)C[C@@H]21	
InChI=1S/C7H10O2/c1-6-4-2-7(4,8)5(6)3-9-6/h4-5,8H,2-3H2,1H3	InChI=1S/C7H10O2/c1-6-4-2-7(4,8)5(6)3-9-6/h4-5,8H,2-3H2,1H3/t4-,5+,6+,7+/m0/s1
