14
gdb 127657	3.63046	1.7772	1.20222	2.133	69.05	-0.2373	-0.012	0.2253	951.2586	0.10477	-429.059139	-429.052195	-429.051251	-429.092495	24.804	
C	 0.081126819	 1.41283912	-0.0371114358	-0.339557
N	 0.0817662987	-0.0313313397	 0.0337265294	-0.135106
N	 0.1454236789	-0.8020167797	-1.1010630922	-0.243729
C	 0.1291389722	-2.0496182545	-0.7006315162	 0.023313
N	 0.0567202493	-2.1037029419	 0.6653111767	 0.023588
N	 0.0042704803	-2.977724459	 1.7141885217	-0.286835
C	-0.0534465186	-2.1196243876	 2.7341527045	 0.039889
N	-0.043582633	-0.7810898759	 2.4500190274	-0.407542
C	 0.0268963438	-0.8229119928	 1.1294070305	 0.537924
H	 1.0008276548	 1.7713874941	-0.5064511712	 0.155156
H	-0.7784058845	 1.7645046852	-0.6133509814	 0.155339
H	 0.0184971738	 1.7958011905	 0.9824031084	 0.172706
H	 0.1671664783	-2.9050747434	-1.3526883936	 0.173489
H	-0.1060827631	-2.4857257153	 3.7496378619	 0.131366
11.3791	147.2748	241.7201	259.5114	348.9192	540.2588	629.6217	633.0427	654.8375	738.8271	766.7796	817.3009	880.8786	919.9994	970.3618	1014.2821	1149.7862	1156.7969	1193.9055	1221.5283	1253.4391	1269.2573	1311.2921	1400.7305	1438.1824	1456.123	1477.6474	1485.2735	1511.4104	1542.1625	1660.5481	3053.1618	3122.1377	3157.2054	3253.6749	3299.354
CN1N=CN2N=CN=C12	Cn1ncn2ncnc12	
InChI=1S/C4H5N5/c1-8-4-5-2-6-9(4)3-7-8/h2-3H,1H3	InChI=1S/C4H5N5/c1-8-4-5-2-6-9(4)3-7-8/h2-3H,1H3
