21
gdb 95638	2.02805	1.79112	1.02955	3.6826	79.49	-0.2139	0.0315	0.2454	1195.7877	0.184543	-420.44226	-420.433151	-420.432207	-420.476079	34.354	
C	 0.0364146599	 1.5793441469	-0.0524641512	-0.396475
C	 0.0435343618	 0.0473704168	 0.0268686468	 0.038292
C	 0.625804582	-0.5415404867	-1.2660678358	-0.179177
N	 0.9302708283	-1.9616754168	-1.1910908011	-0.290656
C	 1.902305738	-2.1954024053	-0.1301068132	-0.286064
C	 1.6379391047	-1.506231937	 1.2105468761	 0.392082
O	 2.1942279068	-1.9047074646	 2.2213967374	-0.389636
N	 0.7735401742	-0.4372484751	 1.2082774134	-0.097388
C	 0.3856643888	 0.1193270242	 2.4985125488	-0.349809
H	 1.0597377666	 1.9680964076	-0.0802133008	 0.126464
H	-0.4761122154	 1.8963825042	-0.9663620843	 0.121244
H	-0.48263298	 2.037455796	 0.7922382832	 0.124581
H	-1.0034599252	-0.29219706	 0.116990372	 0.073356
H	-0.0783450712	-0.3547268808	-2.0833824841	 0.108131
H	 1.5562198825	-0.0136517094	-1.5161624531	 0.109609
H	 0.0802413857	-2.4821262797	-0.9933981822	 0.219732
H	 1.9873966365	-3.2636791694	 0.0811888854	 0.134065
H	 2.8927817098	-1.8676213286	-0.4746885461	 0.132688
H	 0.8108300782	-0.5129671761	 3.276232691	 0.168291
H	 0.7588524046	 1.140244263	 2.6316048964	 0.125862
H	-0.7077082068	 0.136444661	 2.5896989915	 0.114808
69.8973	110.8575	168.2704	193.8046	252.1342	306.0726	323.6157	374.257	415.4533	456.7014	473.2926	541.0794	573.73	657.618	712.6527	808.7455	897.1342	921.3328	960.1377	982.8976	1026.6699	1081.9282	1111.7295	1131.7026	1150.4997	1159.1625	1182.3644	1224.46	1266.8055	1329.4677	1334.0382	1353.7973	1363.7426	1393.8292	1409.2776	1421.042	1444.4177	1461.7203	1481.9524	1486.866	1492.3584	1497.7371	1510.3666	1525.2704	1756.3111	2940.0391	3018.3817	3020.3057	3023.1932	3040.4466	3075.4426	3077.6721	3108.9379	3110.5538	3126.033	3165.3543	3501.6692
CC1CNCC(=O)N1C	C[C@H]1CNCC(=O)N1C	
InChI=1S/C6H12N2O/c1-5-3-7-4-6(9)8(5)2/h5,7H,3-4H2,1-2H3	InChI=1S/C6H12N2O/c1-5-3-7-4-6(9)8(5)2/h5,7H,3-4H2,1-2H3/t5-/m0/s1
