21
gdb 85997	2.43429	1.25048	1.14397	1.9999	79.21	-0.2428	-0.0195	0.2233	1204.99	0.179683	-424.229776	-424.219701	-424.218757	-424.264485	37.28	
C	-0.7238746801	 1.1075325019	-0.1346712538	-0.413442
C	 0.0675946906	-0.1900297267	-0.133866812	-0.018393
C	 1.3866725499	-0.2812465509	-0.9458280096	 0.099862
O	 1.9603853425	 1.0111729655	-1.0623235035	-0.429653
C	 2.0031388086	-1.1356953417	 0.1908930106	-0.302701
C	 0.8815374435	-0.658749065	 1.1519825808	 0.229029
C	 1.287979127	 0.4698570738	 2.100448394	-0.476389
C	 0.1550111075	-1.748398818	 1.8988979081	 0.097156
O	 0.3170622925	-2.9328389013	 1.7380994058	-0.260216
H	-0.0979569758	 1.9645541062	 0.1194149142	 0.136999
H	-1.1455658781	 1.2913611096	-1.1286196716	 0.12086
H	-1.5570213765	 1.0607836814	 0.5745238364	 0.11212
H	-0.5783879692	-1.0176814019	-0.4463764033	 0.088076
H	 1.3086453927	-0.7582865235	-1.9319465017	 0.065074
H	 2.8603770959	 0.9059945762	-1.3871544722	 0.285467
H	 1.9321072478	-2.210241014	 0.0080388391	 0.124147
H	 3.0277266704	-0.8802293417	 0.4754233137	 0.092759
H	 1.7617651568	 1.2818551186	 1.5455091542	 0.14332
H	 0.4240604603	 0.8770358987	 2.6379793421	 0.117087
H	 2.0036895294	 0.1047190127	 2.8459510009	 0.119512
H	-0.6070905558	-1.3754025598	 2.6245931578	 0.069326
65.7212	98.8959	187.298	193.7606	223.3767	239.6083	264.8458	274.9035	297.1529	334.7815	394.2216	419.0067	540.1776	575.0594	691.4624	755.3886	843.7968	854.8489	868.111	933.5105	960.6675	988.4448	1019.7394	1025.2872	1080.1111	1114.6223	1165.0068	1177.3783	1184.7468	1224.4895	1251.5338	1273.288	1301.405	1331.1775	1365.1982	1401.6828	1404.3362	1420.5388	1428.7495	1472.6937	1484.1156	1493.4779	1498.9761	1512.5719	1817.8246	2845.0955	3003.5963	3028.4772	3037.912	3048.2408	3060.065	3088.2378	3096.864	3123.766	3131.6656	3137.7402	3816.117
CC1C(O)CC1(C)C=O	C[C@H]1[C@@H](O)C[C@]1(C)C=O	
InChI=1S/C7H12O2/c1-5-6(9)3-7(5,2)4-8/h4-6,9H,3H2,1-2H3	InChI=1S/C7H12O2/c1-5-6(9)3-7(5,2)4-8/h4-6,9H,3H2,1-2H3/t5-,6-,7+/m0/s1
