21
gdb 104872	2.38697	1.37823	1.12392	2.0853	79.6	-0.2414	0.0192	0.2606	1196.9483	0.182023	-424.22116	-424.211743	-424.210799	-424.255487	35.281	
C	 0.8204985306	-0.5699165202	-1.0597563622	-0.257455
O	-0.06814917	-0.0310659212	-0.0978880927	-0.303248
C	-1.4256699977	-0.516750402	-0.1241182613	 0.330951
C	-2.0809702089	-0.0565314166	-1.4397325073	-0.087474
O	-1.9369922635	 1.3373571709	-1.6226962178	-0.4348
C	-1.5521062035	-2.0456840161	 0.1199051506	-0.285663
C	-2.654906093	-2.2197577817	 1.1964219432	-0.266852
C	-2.7898389897	-0.8354152935	 1.7790645311	-0.072041
C	-2.1252354856	 0.0775384789	 1.077798439	-0.092018
H	 1.814722468	-0.1921502917	-0.8078385664	 0.13028
H	 0.8484373625	-1.667102292	-1.0322214513	 0.112331
H	 0.5791200782	-0.2548791154	-2.0842640001	 0.115302
H	-1.6517644525	-0.6193675591	-2.2856639355	 0.080097
H	-3.1524282205	-0.2810047965	-1.4120573559	 0.108562
H	-1.0560782404	 1.5535318863	-1.2912858957	 0.287766
H	-1.7632238851	-2.6061542266	-0.7953806827	 0.097708
H	-0.5971738126	-2.4049854135	 0.5135199254	 0.117837
H	-3.6040164972	-2.55153604	 0.7543078838	 0.111245
H	-2.3915528108	-2.9732023847	 1.9475572302	 0.107464
H	-3.3966123225	-0.6283086106	 2.6540324729	 0.096579
H	-2.0937998959	 1.1420959452	 1.270904003	 0.103429
63.1593	106.6496	133.5183	182.4804	204.5986	266.3496	309.9049	363.8339	394.5056	449.166	473.0799	523.9328	648.7198	725.2429	772.5691	796.2422	844.038	898.5349	933.9582	959.1362	980.1023	991.3903	1069.712	1077.8188	1096.3427	1109.3557	1150.3199	1175.7703	1182.7545	1201.7068	1226.7967	1235.0052	1273.3739	1302.1358	1323.2126	1350.4682	1390.7585	1433.19	1473.8687	1479.4589	1491.1379	1498.2867	1509.114	1521.8614	1695.6343	2963.961	2999.657	3017.3872	3049.7638	3053.3332	3058.9789	3070.9982	3101.9155	3111.4792	3187.3873	3224.7136	3770.0076
COC1(CO)CCC=C1	CO[C@@]1(CO)CCC=C1	
InChI=1S/C7H12O2/c1-9-7(6-8)4-2-3-5-7/h2,4,8H,3,5-6H2,1H3	InChI=1S/C7H12O2/c1-9-7(6-8)4-2-3-5-7/h2,4,8H,3,5-6H2,1H3/t7-/m1/s1
