15
gdb 72808	2.80766	1.62192	1.31658	5.0613	67.56	-0.2389	-0.0641	0.1748	967.8255	0.112179	-457.758709	-457.751107	-457.750163	-457.790867	28.548	
O	 0.0832094113	 1.4405037865	-0.1089405324	-0.466688
C	 0.0342054562	 0.0439861727	 0.0187244648	 0.286822
C	 0.1886335911	-0.8069234727	-1.2742757565	-0.117946
O	-1.070093895	-1.4635544104	-1.0260494644	-0.288016
C	-1.3674675461	-0.5854939964	 0.0921351138	-0.025773
C	-1.4071479817	-1.390980336	 1.4037900757	 0.383889
O	-2.3516921412	-1.9959464456	 1.846023922	-0.315953
C	-0.0383878378	-1.2979469841	 1.9803535081	-0.173306
C	 0.7401125194	-0.5041992702	 1.2352789117	-0.142879
H	 0.995503765	 1.7330455741	-0.0058137083	 0.28614
H	 0.1525787199	-0.1836713983	-2.1763076843	 0.112503
H	 1.024580426	-1.5128756887	-1.3310175374	 0.106965
H	-2.2390956512	 0.0506926366	-0.0782507274	 0.108724
H	 0.2407018642	-1.8131016113	 2.8910294223	 0.128498
H	 1.78019526	-0.2673113863	 1.4431590222	 0.117021
95.7289	160.7753	209.1577	228.8019	311.1515	358.3393	405.177	507.3488	586.906	647.8328	714.1771	718.5017	830.8367	860.8227	888.3021	934.0306	993.8131	1002.0205	1013.181	1026.1907	1107.2522	1134.3895	1147.8967	1167.7234	1203.2452	1257.6745	1290.2528	1321.3412	1362.9187	1394.5344	1505.4068	1642.104	1827.6995	3018.9211	3078.2881	3094.268	3169.2382	3222.4523	3802.317
OC12COC1C(=O)C=C2	O[C@]12CO[C@H]1C(=O)C=C2	
InChI=1S/C6H6O3/c7-4-1-2-6(8)3-9-5(4)6/h1-2,5,8H,3H2	InChI=1S/C6H6O3/c7-4-1-2-6(8)3-9-5(4)6/h1-2,5,8H,3H2/t5-,6+/m0/s1
