15
gdb 30980	2.39062	1.51351	0.96067	3.253	66.61	-0.2074	0.0337	0.2411	1178.2826	0.111763	-491.079988	-491.071265	-491.070321	-491.113849	31.209	
C	-0.0073034185	 1.4159282285	-0.0864971036	-0.259943
O	 0.6567549408	 0.1644458759	 0.1574130004	-0.260228
C	 0.9124220226	-0.5672799285	-0.9171178048	 0.395341
C	 0.7019702322	-1.8560582203	-1.1867351597	 0.10802
N	 0.08781082	-2.8674932512	-0.476514508	-0.591905
O	 1.2987270907	-2.1119659721	-2.4537341365	-0.247234
C	 1.8109176408	-0.9340460318	-2.9066705929	 0.499543
N	 2.3943236523	-0.688631043	-3.992959857	-0.577737
O	 1.5979208261	 0.0328711803	-1.960308949	-0.236966
H	 0.5982397805	 2.0581021119	-0.7311200873	 0.154562
H	-0.9866448127	 1.244708055	-0.5468086302	 0.131227
H	-0.1331458997	 1.8800159176	 0.8914967993	 0.145878
H	-0.6738544245	-3.3028993156	-0.9863576161	 0.252675
H	 0.7314459283	-3.5910779052	-0.172000566	 0.254126
H	 2.4558048912	-1.5315260714	-4.5582936887	 0.23264
62.8929	130.2301	152.8289	192.7723	207.4837	284.389	297.6815	377.8533	423.5243	590.8466	622.4965	650.278	682.2529	735.7739	755.2295	778.1339	829.0389	953.0171	983.0091	1032.6478	1071.4161	1173.5868	1196.7009	1219.8118	1242.0029	1318.0375	1380.1773	1487.2389	1489.8387	1502.3058	1659.8496	1784.481	1874.4832	3034.6849	3115.553	3159.204	3497.9704	3543.9578	3564.7495
COC1=C(N)OC(=N)O1	COC1=C(N)O[C@H]([NH])O1	
InChI=1S/C4H6N2O3/c1-7-3-2(5)8-4(6)9-3/h6H,5H2,1H3	InChI=1S/C4H7N2O3/c1-7-3-2(5)8-4(6)9-3/h4,6H,5H2,1H3/t4-/m0/s1
