12
gdb 9971	3.24274	1.43601	1.03627	5.5567	64.57	-0.308	-0.0148	0.2932	1043.904	0.082311	-340.367273	-340.359171	-340.358226	-340.400334	27.824	
C	 0.0420647431	-1.1973267324	 0.0307412937	-0.394819
C	-0.010959668	 0.0004735873	-0.0083682521	 0.311259
C	-0.0342365871	 1.4620590841	-0.0398823484	-0.328714
C	 1.4216391318	 2.0296501576	-0.0393380991	-0.339812
C	 1.4566289967	 3.4811827721	 0.1109676586	 0.268786
N	 1.4763748798	 4.6276328229	 0.2486001724	-0.284401
C	-0.7912551891	 1.9550256526	-1.2021460142	 0.306957
N	-1.3768928315	 2.345093874	-2.1172352593	-0.302593
H	 0.0721385324	-2.25930992	 0.0618364872	 0.220629
H	-0.5398217179	 1.8346337834	 0.8602496818	 0.181338
H	 1.9648392606	 1.567345552	 0.7897137845	 0.17736
H	 1.9248363994	 1.7400413064	-0.9658866351	 0.184009
68.7598	115.0434	132.0165	203.7496	227.3093	354.2215	394.0539	460.5993	495.0547	573.5361	590.2848	664.8913	685.1752	814.685	946.6771	970.0031	1030.8434	1056.0824	1206.6406	1276.3694	1331.1068	1350.1527	1464.0318	2252.3879	2370.1652	2371.5265	3036.3824	3071.1451	3118.1912	3499.375
C#CC(CC#N)C#N	C#C[C@@H](CC#N)C#N	
InChI=1S/C6H4N2/c1-2-6(5-8)3-4-7/h1,6H,3H2	InChI=1S/C6H4N2/c1-2-6(5-8)3-4-7/h1,6H,3H2/t6-/m0/s1
