13
gdb 16717	6.66754	1.52005	1.3653	1.3196	67.39	-0.2445	-0.0348	0.2096	874.0635	0.095632	-361.418745	-361.41235	-361.411406	-361.449163	24.674	
C	 0.093123504	-1.1301792709	 0.052535354	-0.356919
C	 0.0021887878	 0.0675056356	 0.0263661286	 0.271159
C	-0.0914361546	 1.4846250316	-0.00549265	 0.23595
N	-1.1723140252	 2.1704538669	-0.01221641	-0.310841
C	-0.7709981987	 3.5522648157	 0.0063979284	-0.028358
C	 0.0238747839	 3.9983859038	 1.2207568312	-0.318512
C	 0.7522467091	 3.5333515368	-0.0027073206	 0.05606
O	 1.1009859057	 2.1602501419	-0.0410539604	-0.242312
H	 0.1648442996	-2.1899667975	 0.0744515227	 0.207849
H	-1.3995106207	 4.252874958	-0.5287802096	 0.108384
H	 0.0523822961	 5.0652364779	 1.4123902379	 0.126445
H	 0.0143222373	 3.3653230954	 2.1016355717	 0.133435
H	 1.4228725857	 4.1573677648	-0.5781941639	 0.117658
127.9225	165.8111	328.422	378.6729	504.0189	524.4673	597.5642	645.5169	677.1297	714.6574	746.1548	759.7829	819.7973	912.0925	941.4004	979.3082	1026.0727	1044.0182	1081.2039	1123.9703	1132.5553	1184.5051	1242.9174	1332.736	1364.7945	1460.1621	1652.1645	2251.2609	3134.1046	3189.5552	3204.452	3229.4517	3501.0955
C#CC1=NC2CC2O1	C#CC1=N[C@H]2C[C@H]2O1	
InChI=1S/C6H5NO/c1-2-6-7-4-3-5(4)8-6/h1,4-5H,3H2	InChI=1S/C6H5NO/c1-2-6-7-4-3-5(4)8-6/h1,4-5H,3H2/t4-,5+/m0/s1
