16
gdb 53590	4.80342	0.6722	0.6271	3.8936	79.38	-0.258	-0.0067	0.2513	1753.6673	0.121744	-400.711948	-400.702214	-400.70127	-400.749413	32.685	
C	-0.0360216248	 1.42868562	-0.280763362	-0.497293
C	-0.0223770611	 0.0029386692	 0.0123420254	 0.108589
C	 0.0009932133	-1.1765412415	 0.2497914398	 0.035435
C	-0.0012424914	-2.6074625098	 0.5343714288	-0.398919
C	-1.3614839979	-3.232462843	 0.2861227032	 0.083917
O	-1.6784705821	-3.613175244	-1.04783046	-0.220611
C	-1.5296301173	-4.6558099541	-0.08209302	-0.107933
C	-0.3872840797	-5.5313003749	-0.2370339769	 0.304712
N	 0.5136793437	-6.2481572203	-0.3395928303	-0.325981
H	 0.8535994926	 1.7240442244	-0.8475398801	 0.153145
H	-0.913728682	 1.7015562906	-0.8766743562	 0.152247
H	-0.0585874728	 2.0253900244	 0.6376053809	 0.149242
H	 0.7457427324	-3.1269288936	-0.0763973676	 0.158129
H	 0.2718583477	-2.7857341584	 1.5834986522	 0.142678
H	-2.1894682372	-2.7718645824	 0.8254185624	 0.11968
H	-2.4486654436	-5.1696604167	 0.1936149603	 0.142962
13.2741	41.7835	70.4813	129.2467	207.2087	217.9432	271.6157	345.0349	379.5518	389.7909	500.3158	577.3799	599.5393	775.21	811.6063	820.0258	933.5261	990.187	1029.9074	1052.8764	1054.7048	1116.1371	1143.5074	1171.0232	1242.5161	1279.3137	1326.4634	1378.9361	1414.998	1453.2815	1457.5399	1477.5225	1478.1372	2360.1411	2378.7153	3019.398	3028.9827	3068.5791	3090.5275	3091.3899	3116.1928	3134.9411
CC#CCC1OC1C#N	CC#CC[C@H]1O[C@H]1C#N	
InChI=1S/C7H7NO/c1-2-3-4-6-7(5-8)9-6/h6-7H,4H2,1H3	InChI=1S/C7H7NO/c1-2-3-4-6-7(5-8)9-6/h6-7H,4H2,1H3/t6-,7+/m1/s1
