17
gdb 70647	2.47405	1.63605	1.18219	5.6393	72.25	-0.2463	0.025	0.2713	1061.7794	0.136236	-418.001718	-417.993496	-417.992551	-418.034467	30.874	
C	-0.3974862567	 1.3422134288	 0.0192780262	-0.495715
C	 0.0772754488	-0.0802584403	 0.0853539289	 0.414768
O	-0.5801111681	-0.9573761726	 1.0005404107	-0.272265
C	 0.822192668	-0.7191377498	 1.1767562478	-0.022576
C	 1.7005640463	-1.8096709383	 0.6054389575	-0.197706
N	 1.1247905267	-2.0419866619	-0.7241180223	-0.306626
C	 0.5102113595	-0.8024402818	-1.2016849919	-0.192415
C	-0.6054831296	-1.0728584029	-2.1211422268	 0.306571
N	-1.4748943641	-1.2451760297	-2.8619460015	-0.326968
H	 0.3574022878	 1.9884302336	-0.4404533	 0.1268
H	-1.3132994523	 1.4128712829	-0.5766402805	 0.153893
H	-0.6136459284	 1.712166879	 1.0238360846	 0.139986
H	 1.1090715937	-0.1960705139	 2.084738352	 0.105213
H	 2.7416964771	-1.4438935279	 0.5935953166	 0.095576
H	 1.6728324068	-2.7328568222	 1.1951264384	 0.126445
H	 1.7754760319	-2.4390943621	-1.3877565574	 0.237546
H	 1.2051828423	-0.1239138709	-1.7286579522	 0.107472
97.1185	129.5331	186.4832	237.1147	259.2155	309.8496	383.1135	442.952	508.0121	520.241	565.2478	643.7137	710.7819	831.3755	871.8404	887.7897	935.7691	985.5327	1002.6415	1011.2517	1047.0867	1104.0229	1116.3554	1130.127	1207.7292	1233.6661	1267.1565	1301.332	1347.9048	1363.5472	1414.1455	1443.3177	1466.2712	1487.3034	1500.0307	1510.8195	2362.2213	2937.077	2959.5276	3041.2351	3057.415	3105.9447	3132.4172	3158.8957	3585.693
CC12OC1CNC2C#N	C[C@]12O[C@H]1CN[C@H]2C#N	
InChI=1S/C6H8N2O/c1-6-4(2-7)8-3-5(6)9-6/h4-5,8H,3H2,1H3	InChI=1S/C6H8N2O/c1-6-4(2-7)8-3-5(6)9-6/h4-5,8H,3H2,1H3/t4-,5-,6+/m0/s1
