18
gdb 12251	3.21714	1.58085	1.23009	3.2657	69.18	-0.2381	-0.017	0.2211	1031.4407	0.151406	-384.940458	-384.931679	-384.930735	-384.974086	31.288	
C	 0.2324678449	 1.4350611985	 0.0616830247	-0.237655
O	-0.2257712782	 0.1304773167	-0.2152657419	-0.237341
C	 0.5429287643	-0.5447122326	-1.1788473549	 0.104345
C	 1.867250012	-1.1514458458	-0.6068580968	-0.372834
C	 1.1295177951	-2.5008951631	-0.5284500127	 0.392757
O	 1.331188259	-3.5273798945	 0.0512067079	-0.295518
C	-0.0299902288	-1.9817754303	-1.3978270967	-0.114905
C	-1.4623742814	-2.3149894781	-1.008013323	-0.406083
H	 1.2508004385	 1.4381012236	 0.4778301039	 0.109121
H	 0.2289941735	 2.0633110354	-0.842546346	 0.10803
H	-0.4491957937	 1.8674764327	 0.7975799334	 0.132361
H	 0.6544896667	 0.0687505274	-2.0828522057	 0.065196
H	 2.6956341764	-1.1735535635	-1.3222706085	 0.127135
H	 2.2256271232	-0.7442018358	 0.3415637598	 0.132648
H	 0.172489353	-2.2876711277	-2.4331359836	 0.103861
H	-1.6897852042	-1.9344474061	-0.0105775599	 0.139427
H	-2.1771648629	-1.8762757618	-1.7104352965	 0.118377
H	-1.6028025274	-3.399760865	-1.0066927834	 0.131076
57.2297	123.5417	160.89	185.7844	196.6575	206.06	322.5053	411.0185	420.883	525.2307	533.6068	701.6836	728.5615	812.1303	896.8774	913.192	968.3073	1014.915	1046.6999	1089.7812	1124.1616	1155.1208	1168.1138	1185.3662	1188.6102	1232.145	1253.9761	1276.8639	1334.0446	1381.5488	1406.2227	1425.7902	1482.1832	1487.4378	1490.0455	1499.82	1508.9071	1894.8931	2978.9305	3009.8432	3027.9183	3028.9197	3048.5621	3060.4597	3114.3981	3119.5627	3121.6311	3138.5745
COC1CC(=O)C1C	CO[C@H]1CC(=O)[C@H]1C	
InChI=1S/C6H10O2/c1-4-5(7)3-6(4)8-2/h4,6H,3H2,1-2H3	InChI=1S/C6H10O2/c1-4-5(7)3-6(4)8-2/h4,6H,3H2,1-2H3/t4-,6+/m1/s1
