17
gdb 25704	4.62987	0.80963	0.71161	4.1325	82.4	-0.2157	0.0345	0.2502	1569.9179	0.136843	-380.888253	-380.879248	-380.878304	-380.92419	31.344	
C	 0.0498892275	 1.4276683794	-0.5401307564	-0.497926
C	 0.0240549509	 0.0075192807	-0.2172598183	 0.072041
C	 0.0219999816	-1.1617554317	 0.0716156966	 0.044146
C	-0.0070699267	-2.5906461641	 0.3840707123	-0.472571
C	-1.3787377689	-3.1971112267	 0.2725241008	 0.31974
C	-1.9881598405	-4.2464798209	 0.9116955371	-0.172751
N	-3.2561268611	-4.4549381698	 0.4167146484	-0.257366
C	-3.4170856706	-3.5401319106	-0.5107926224	 0.010375
N	-2.3083916229	-2.757368341	-0.6434924061	-0.288469
H	 0.7993884752	 1.9540159821	 0.0608605256	 0.154068
H	 0.2950341456	 1.5949402361	-1.5947018783	 0.148428
H	-0.9195253991	 1.8990328196	-0.3447662049	 0.150153
H	 0.6952239522	-3.1135377864	-0.2822820176	 0.145265
H	 0.3673442005	-2.7622707121	 1.4002198425	 0.149396
H	-1.5833069493	-4.8632701909	 1.7003568055	 0.103445
H	-4.3025079703	-3.3917798473	-1.1107357437	 0.126392
H	-2.1899190441	-1.9515168962	-1.2360663309	 0.265635
30.496	35.3276	73.3355	196.0968	220.1588	267.2326	334.2378	379.6887	459.4545	557.9645	649.8328	686.7332	728.0415	773.5921	804.523	841.5938	935.2023	941.5962	1017.9614	1052.4287	1055.2161	1110.5417	1144.6738	1160.6986	1211.0037	1255.416	1269.2798	1326.4617	1386.3009	1415.6808	1436.2465	1468.3404	1478.629	1479.2529	1504.259	1607.4117	2371.5436	2992.5224	3028.6606	3051.4099	3089.2413	3090.8625	3242.6674	3251.8208	3653.3427
CC#CCC1=CN=CN1	CC#CCc1cnc[nH]1	
InChI=1S/C7H8N2/c1-2-3-4-7-5-8-6-9-7/h5-6H,4H2,1H3,(H,8,9)	InChI=1S/C7H8N2/c1-2-3-4-7-5-8-6-9-7/h5-6H,4H2,1H3,(H,8,9)
