20
gdb 91834	3.40211	1.14154	0.9814	1.1746	86.59	-0.2302	0.0366	0.2668	1272.7086	0.171141	-365.972936	-365.96424	-365.963295	-366.006191	34.102	
C	 0.140769701	 1.6020196209	-0.008752978	-0.406598
C	 0.0571358914	 0.0774656653	-0.0202865345	 0.055434
C	 0.8051312417	-0.5964535576	-1.2040592175	-0.227951
C	 1.2260701495	-1.9647613025	-0.6865324794	-0.096782
N	 2.4282128935	-1.9184247968	 0.1598281504	-0.370687
C	 1.0863842771	-1.9839243553	 0.8094347967	 0.188659
C	 0.6071456501	-0.600921875	 1.2627435033	-0.294998
C	 0.7201086172	-3.1641034697	 1.5316175277	 0.181243
C	 0.418354349	-4.1481708869	 2.1557483688	-0.401631
H	 1.1816162352	 1.9346724082	 0.0772018772	 0.119523
H	-0.272064234	 2.0302139223	-0.9285224159	 0.11241
H	-0.4163764355	 2.0259112168	 0.8335953958	 0.113331
H	-0.9988746195	-0.2111689964	-0.104742424	 0.075286
H	 0.1666047638	-0.6756323184	-2.0887695769	 0.098788
H	 1.6948743397	-0.0222911549	-1.4853132404	 0.110737
H	 1.0345238353	-2.8597080881	-1.2695070524	 0.098285
H	 2.8492545102	-2.8451859754	 0.1987905849	 0.235089
H	 1.4555014114	-0.0438579139	 1.6737924058	 0.113058
H	-0.1564453755	-0.675502679	 2.0405566871	 0.107775
H	 0.1502580281	-5.0183032735	 2.7018795111	 0.189031
63.0711	139.2999	156.9801	244.5786	302.6029	328.324	395.902	432.3897	465.2576	519.7718	568.8458	584.3362	604.3353	653.4596	725.4724	797.8442	842.452	881.9767	897.4185	933.1865	958.3053	968.2031	1020.7184	1066.6713	1079.3928	1121.4891	1131.823	1161.3494	1208.3429	1251.2016	1267.3882	1278.7867	1312.8914	1335.9374	1353.2944	1374.2539	1409.4118	1414.9172	1478.4515	1487.5548	1497.7269	1500.296	2231.6131	3010.6628	3025.805	3042.9296	3052.1597	3089.6602	3094.7702	3096.0214	3107.7473	3166.0978	3485.8356	3503.0367
CC1CC2NC2(C1)C#C	C[C@H]1C[C@H]2N[C@]2(C1)C#C	
InChI=1S/C8H11N/c1-3-8-5-6(2)4-7(8)9-8/h1,6-7,9H,4-5H2,2H3	InChI=1S/C8H11N/c1-3-8-5-6(2)4-7(8)9-8/h1,6-7,9H,4-5H2,2H3/t6-,7+,8-/m0/s1
