18
gdb 73648	2.36674	1.70754	1.46766	4.2722	71.74	-0.2319	0.0261	0.258	993.4648	0.148533	-439.119721	-439.111655	-439.110711	-439.152168	30.903	
C	-0.104445159	 1.5148221155	 0.0079513315	-0.46881
C	-0.0189469431	 0.0078518927	 0.0388202607	 0.26444
O	-1.3088253874	-0.5565404228	-0.0451481628	-0.282639
C	-1.2533559314	-1.8721248662	 0.5021104183	-0.098412
C	-0.2769970225	-1.77491933	 1.6894638547	-0.237946
C	 0.7426370915	-0.7475141307	 1.1933393154	-0.031772
N	 1.6828782418	-1.2167707619	 0.1703838853	-0.333758
C	 1.0536589107	-0.6455786492	-0.9118232546	 0.374073
O	 1.2709758943	-0.6688712137	-2.0924350756	-0.364272
H	 0.8866933011	 1.9620263155	 0.1248026323	 0.125867
H	-0.5144796299	 1.8402447843	-0.9521633399	 0.148361
H	-0.7581098886	 1.8774835464	 0.8064563598	 0.124213
H	-2.2685292093	-2.1582465699	 0.7849553647	 0.115517
H	-0.8872023184	-2.5878422464	-0.2477749195	 0.11059
H	-0.7888451528	-1.3793138505	 2.5727504049	 0.113674
H	 0.1693619805	-2.7372423913	 1.9539732564	 0.106062
H	 1.2033173804	-0.1447156167	 1.9790915461	 0.087359
H	 2.4654588619	-1.8528668751	 0.2236295925	 0.247453
90.3754	178.619	202.1854	228.6539	277.76	292.0936	386.8072	424.8743	525.6935	620.1261	645.7609	693.5041	742.5726	796.7059	837.1081	874.2006	903.5825	928.5157	970.0605	1025.0068	1054.6654	1101.6235	1121.5565	1131.2562	1195.6996	1200.9768	1220.6003	1264.6771	1301.8475	1315.9134	1355.5329	1373.7109	1392.0104	1409.4913	1476.4232	1479.6414	1492.5282	1520.2603	1892.6505	3006.0405	3044.7362	3053.9933	3085.8597	3103.7818	3112.0798	3121.0734	3123.7022	3601.7604
CC12OCCC1NC2=O	C[C@]12OCC[C@H]1NC2=O	
InChI=1S/C6H9NO2/c1-6-4(2-3-9-6)7-5(6)8/h4H,2-3H2,1H3,(H,7,8)	InChI=1S/C6H9NO2/c1-6-4(2-3-9-6)7-5(6)8/h4H,2-3H2,1H3,(H,7,8)/t4-,6+/m1/s1
