21
gdb 107036	3.9016	1.07412	0.96224	1.8277	83.48	-0.2308	0.0084	0.2392	1302.8916	0.182586	-387.088095	-387.079144	-387.0782	-387.121513	34.74	
C	-0.3554917972	 1.4870511743	-0.0557740451	-0.376727
C	 0.120217808	 0.0331709361	 0.0607500152	-0.281755
C	 0.8493847653	-0.4665870956	-1.1692210546	 0.347547
C	 0.0784674694	-0.9687535355	-2.3782642781	-0.333892
C	 0.9290058737	-1.9250283151	-1.5676626861	-0.13344
C	 2.3493141613	-2.2203122127	-2.0578225831	 0.081356
O	 2.4359234171	-2.8838492412	-3.3133948055	-0.432981
C	 3.0062488137	-0.8481283935	-2.0354972535	-0.130331
C	 2.1976896873	 0.087197612	-1.5369295441	-0.144041
H	 0.4843607409	 2.1755468644	-0.1961433086	 0.11736
H	-1.0319421314	 1.6119534731	-0.9076892178	 0.118604
H	-0.8884521229	 1.7985542387	 0.8478227379	 0.112382
H	 0.7739897857	-0.0707198629	 0.9365466884	 0.100154
H	-0.7441676484	-0.6162046033	 0.2455914851	 0.096126
H	-0.997167132	-1.082584933	-2.2802815357	 0.110271
H	 0.4065691012	-0.6501499329	-3.363280057	 0.100718
H	 0.4114292228	-2.6851990001	-0.9942728373	 0.085738
H	 2.8544219141	-2.9051853641	-1.364996233	 0.091849
H	 1.932004011	-2.3612588476	-3.9473926049	 0.27517
H	 4.0061113059	-0.6929178149	-2.4244222494	 0.098818
H	 2.4426336944	 1.1385246438	-1.4275150828	 0.097076
82.4148	120.7822	179.3555	209.2216	236.2793	295.5543	335.3973	367.7475	398.0158	494.7116	571.0032	635.1977	710.4211	752.0092	781.7428	797.9025	855.852	897.7393	934.9609	955.49	957.2797	980.4353	994.4931	1032.5708	1061.9084	1072.3127	1080.0989	1088.6471	1120.1853	1140.2155	1244.0628	1253.4299	1262.304	1308.2594	1313.065	1355.0756	1373.6073	1401.7533	1411.0983	1426.4241	1476.3075	1487.7259	1497.67	1507.0917	1671.9293	3018.4777	3028.6655	3034.3576	3052.8311	3102.014	3105.9532	3112.7824	3174.9842	3179.5265	3199.42	3208.8926	3798.4067
CCC12CC1C(O)C=C2	CC[C@]12C[C@H]1[C@@H](O)C=C2	
InChI=1S/C8H12O/c1-2-8-4-3-7(9)6(8)5-8/h3-4,6-7,9H,2,5H2,1H3	InChI=1S/C8H12O/c1-2-8-4-3-7(9)6(8)5-8/h3-4,6-7,9H,2,5H2,1H3/t6-,7-,8-/m0/s1
