20
gdb 18293	2.93831	2.01557	1.78949	1.2716	73.97	-0.2421	0.0795	0.3216	875.2297	0.179689	-348.999352	-348.992	-348.991055	-349.030528	29.188	
C	-0.2161552822	 1.5369051923	 0.1093739617	-0.42313
C	-0.0170789523	 0.040125607	-0.0038400208	-0.006215
C	 0.6639217381	-0.6196073881	-1.1899571368	-0.054239
C	 1.3070224311	 0.2083285379	-2.3009927456	-0.228421
C	 2.7505250532	 0.5812612243	-1.9525434697	-0.068456
O	 2.8389700164	 1.1314616597	-0.6480024822	-0.238952
C	 2.6126561009	 0.1546023443	 0.3579223599	-0.101327
C	 1.3238122743	-0.6292674453	 0.1788819933	-0.064874
H	 0.6603898424	 2.0912214967	-0.2302177341	 0.141813
H	-1.0814613093	 1.8631967576	-0.4795699165	 0.109648
H	-0.4049098432	 1.8204668308	 1.1509088328	 0.111648
H	-0.8528430421	-0.5333419588	 0.3912543171	 0.077465
H	 0.2236224667	-1.5562107055	-1.5169866417	 0.080261
H	 1.3013319195	-0.3595119584	-3.2375753771	 0.095888
H	 0.7337038235	 1.123513579	-2.4878526297	 0.106938
H	 3.4003098123	-0.3071071896	-2.0269323496	 0.08449
H	 3.1407556498	 1.3431677016	-2.6338415734	 0.102657
H	 3.4570970979	-0.55626206	 0.3708431836	 0.088003
H	 2.6239195158	 0.6995541369	 1.308261466	 0.106962
H	 1.3265102771	-1.5726825325	 0.7183774328	 0.079837
143.364	174.4029	230.1087	256.3829	341.8214	421.8654	449.1735	493.9056	542.5218	721.9928	744.2631	760.3249	810.3429	858.2044	916.3555	950.2919	959.9913	1023.5725	1031.3544	1077.2609	1083.5067	1104.5376	1124.5618	1144.6348	1152.6111	1167.0549	1248.8441	1251.2074	1270.948	1320.8725	1352.7889	1370.164	1374.5997	1386.6724	1414.5856	1422.6617	1452.1843	1484.295	1492.2171	1501.616	1506.5664	1516.498	2952.202	2964.1346	3028.852	3035.5347	3059.9472	3073.0567	3081.0182	3083.4196	3117.4604	3135.2926	3139.8569	3152.5816
CC1C2CCOCC12	C[C@H]1[C@H]2CCOC[C@@H]12	
InChI=1S/C7H12O/c1-5-6-2-3-8-4-7(5)6/h5-7H,2-4H2,1H3	InChI=1S/C7H12O/c1-5-6-2-3-8-4-7(5)6/h5-7H,2-4H2,1H3/t5-,6+,7-/m0/s1
