17
gdb 84604	2.56751	1.61503	1.24666	1.6189	79.25	-0.2466	-0.0069	0.2397	1046.1658	0.135633	-380.820241	-380.812144	-380.811199	-380.852577	31.356	
C	-0.1255827745	 1.5606077812	 0.0140732228	-0.397262
C	 0.0704864338	 0.0462642996	 0.0134067296	-0.0203
N	 0.8770117402	-0.4106810493	-1.1330748166	-0.209384
C	 1.7961139702	-1.1635968985	-0.686418066	 0.031352
N	 1.8736664108	-1.4293243709	 0.7183705993	-0.156605
C	 2.2257183569	-0.1879211548	 1.4498617737	-0.275363
C	 0.7899248182	-0.5408842368	 1.2507166673	 0.112252
C	-0.0062088386	-1.0036587843	 2.3488419255	 0.200274
C	-0.7170985555	-1.3445299535	 3.2565312617	-0.363192
H	 0.8317897887	 2.085465651	 0.0804306678	 0.117861
H	-0.62117234	 1.8743222788	-0.9080184752	 0.134136
H	-0.7456227454	 1.8617538561	 0.8636896095	 0.127104
H	-0.9146605193	-0.4309207034	-0.06006094	 0.10378
H	 2.5332011465	-1.6461457009	-1.322354221	 0.132555
H	 2.6727267515	-0.3509149017	 2.4247118075	 0.136714
H	 2.6418415598	 0.6314138712	 0.8700660227	 0.131184
H	-1.3324987631	-1.6608445839	 4.0621638314	 0.194894
111.1958	147.6629	207.2172	223.1329	265.5457	374.5152	406.7578	512.0586	528.4031	572.6499	596.2919	620.9174	656.6329	719.9452	791.4399	840.3523	862.4402	913.0402	926.3348	955.9884	1043.8524	1068.8819	1106.6795	1117.8972	1131.3053	1152.8194	1220.9576	1277.7626	1322.4201	1339.2737	1379.1279	1406.007	1485.5001	1490.3702	1497.6087	1682.0856	2241.5457	3031.2712	3045.5028	3115.5597	3119.4103	3126.7237	3183.9733	3215.1292	3501.6843
CC1N=CN2CC12C#C	C[C@H]1N=CN2C[C@@]12C#C	
InChI=1S/C7H8N2/c1-3-7-4-9(7)5-8-6(7)2/h1,5-6H,4H2,2H3	InChI=1S/C7H8N2/c1-3-7-4-9(7)5-8-6(7)2/h1,5-6H,4H2,2H3/t6-,7+,9?/m1/s1
