21
gdb 83282	2.67309	1.40048	1.30616	2.4234	77.56	-0.2283	0.0714	0.2997	1109.4178	0.184225	-424.220594	-424.212339	-424.211394	-424.253043	33.092	
C	 0.1171249526	 1.5234879923	 0.0889691434	-0.404981
C	 0.0537472717	 0.0064390013	 0.0128669802	 0.141129
C	 0.6724044351	-0.5626727397	-1.2715020345	-0.239536
C	 0.9628967137	-2.0572756132	-1.1745825682	-0.110882
C	 2.2216525816	-2.4935870905	-0.4510693067	 0.128963
O	 3.123506844	-1.5604910353	 0.0612557856	-0.434662
C	 0.8839000516	-2.7399656805	 0.1909570777	-0.111875
C	 0.4710952016	-1.8909311039	 1.3756967762	-0.121165
O	 0.7429760163	-0.5066741701	 1.1626704722	-0.275782
H	 1.15739175	 1.8635901655	 0.0702303865	 0.126417
H	-0.4046767524	 1.9699377957	-0.7629770593	 0.117825
H	-0.3461380617	 1.8841751048	 1.0110170182	 0.123147
H	-0.9964475923	-0.322248073	 0.0809494102	 0.070041
H	-0.0060721728	-0.3663804011	-2.1074541791	 0.100986
H	 1.6052248033	-0.0233399791	-1.4833631689	 0.112082
H	 0.6673892512	-2.6497695966	-2.0345316608	 0.084511
H	 2.7587690896	-3.3466776639	-0.8530201093	 0.097741
H	 2.6160491666	-0.9206352491	 0.582179107	 0.293628
H	 0.5153677463	-3.7614585653	 0.2254614012	 0.085899
H	-0.6018590118	-2.0253256482	 1.5861747036	 0.099694
H	 1.0286880958	-2.1675398998	 2.2771613848	 0.116816
97.3146	183.4853	218.6053	240.386	282.5834	313.1868	422.4989	449.15	506.8052	528.1365	576.9332	603.3283	730.2303	758.7143	782.2567	817.8663	877.5178	908.1022	914.4516	995.1975	1015.7613	1043.2345	1063.532	1100.6431	1104.2965	1124.672	1134.9158	1148.3921	1161.897	1219.4127	1256.115	1291.638	1316.6425	1340.2006	1349.3147	1368.5168	1387.1988	1396.0094	1413.7041	1426.9192	1476.7564	1480.516	1487.6452	1496.2134	1503.3003	2965.6904	2978.6485	3021.129	3041.7684	3064.9379	3078.3835	3114.0198	3122.6751	3140.5457	3150.0375	3165.6574	3707.8961
CC1CC2C(O)C2CO1	C[C@H]1C[C@H]2[C@@H](O)[C@H]2CO1	
InChI=1S/C7H12O2/c1-4-2-5-6(3-9-4)7(5)8/h4-8H,2-3H2,1H3	InChI=1S/C7H12O2/c1-4-2-5-6(3-9-4)7(5)8/h4-8H,2-3H2,1H3/t4-,5+,6-,7+/m0/s1
