19
gdb 111026	2.54605	1.3517	1.04171	1.5456	84.21	-0.2509	0.0464	0.2972	1214.1812	0.158183	-385.796687	-385.78803	-385.787086	-385.830124	33.067	
C	-0.2099228056	 1.3724504101	 0.1295792034	-0.242901
O	 0.3965469555	 0.1257416173	-0.1380582162	-0.255059
C	 0.882640935	-0.5078077679	 1.0035890206	 0.154607
C	-0.0674100048	-1.3880642509	 1.8813551838	-0.128554
C	-0.1262279608	-2.3868229008	 0.6889422772	-0.258191
C	 1.383763547	-1.9700085442	 0.7990703585	 0.218905
C	 1.2179593507	-2.1231464304	 2.3478335695	-0.26223
C	 2.4822383515	-2.4087076666	-0.0115552308	 0.053627
C	 3.4047347727	-2.7786519676	-0.6893029875	-0.364861
H	 0.4870430391	 2.060581704	 0.6321233497	 0.10841
H	-0.500334631	 1.8032648585	-0.8311691854	 0.131099
H	-1.1059747479	 1.2674208899	 0.7586177786	 0.109343
H	 1.5651372086	 0.1526029356	 1.5594137116	 0.065899
H	-0.8937837792	-1.0571301111	 2.5088627891	 0.076826
H	-0.3467333359	-3.4278365879	 0.9364923352	 0.095067
H	-0.6453366663	-2.0558092554	-0.2090416752	 0.117732
H	 1.9225933433	-1.5646520325	 2.9702928083	 0.098201
H	 1.0866515016	-3.1462468282	 2.704082329	 0.105357
H	 4.2173860766	-3.102916752	-1.2906388094	 0.176723
73.1798	117.0509	169.9306	183.9159	224.5395	339.4188	372.1025	489.6368	505.1836	539.7077	599.6775	625.5616	630.7178	634.2228	776.6629	832.1805	911.2854	926.9751	948.8415	960.7338	1012.5017	1044.731	1068.4542	1089.5044	1139.1382	1153.2787	1159.6018	1167.6386	1185.1321	1215.8214	1226.5493	1238.643	1248.2805	1299.2137	1406.4376	1481.8479	1488.5309	1493.874	1508.086	1533.8535	2234.438	2979.4805	2994.9218	3030.3091	3059.0977	3073.9571	3120.0606	3125.2174	3131.7145	3159.0746	3503.2495
COC1C2CC1(C2)C#C	CO[C@H]1[C@H]2C[C@@]1(C2)C#C	
InChI=1S/C8H10O/c1-3-8-4-6(5-8)7(8)9-2/h1,6-7H,4-5H2,2H3	InChI=1S/C8H10O/c1-3-8-4-6(5-8)7(8)9-2/h1,6-7H,4-5H2,2H3/t6-,7-,8+/m0/s1
