16
gdb 75865	3.14331	1.28689	0.96404	4.1218	76.03	-0.2399	-0.0587	0.1811	1165.4806	0.12427	-437.954982	-437.94663	-437.945686	-437.988152	30.516	
C	-0.0830887962	 1.5833499737	-0.0221899513	-0.39831
C	 0.0228003288	 0.0499932603	 0.0194609381	-0.257634
C	 0.8362710234	-0.4968334769	-1.1656446185	 0.442461
O	 0.6847359702	-0.3111544656	-2.3456674868	-0.352417
N	 1.853992409	-1.2783508267	-0.5985032769	-0.331128
C	 1.7832741234	-1.2716064618	 0.7781714656	-0.076919
C	 0.7458033539	-0.5231806152	 1.2183277035	 0.167123
C	 0.3882261205	-0.340285973	 2.6078840107	 0.073577
O	-0.5578122409	 0.314085131	 3.0018028791	-0.297884
H	 0.9056631376	 2.045506977	 0.0561857513	 0.119564
H	-0.5357595046	 1.8966943677	-0.9662049364	 0.138646
H	-0.6940164	 1.9299233644	 0.8127322405	 0.154127
H	-0.9888199195	-0.3698427339	-0.0531974605	 0.135305
H	 2.5510616126	-1.7487978014	-1.1534638671	 0.271445
H	 2.5044039917	-1.8280933722	 1.362693377	 0.151647
H	 1.0626170501	-0.8615611774	 3.3258815415	 0.060398
76.8315	150.0542	166.3493	233.2516	236.091	247.6554	357.7442	454.1417	493.4661	530.8449	587.6395	664.8248	706.9548	776.0353	821.8331	832.9809	895.8812	1022.7956	1033.9999	1079.3871	1089.4649	1114.0915	1165.6469	1233.0294	1292.8538	1314.348	1360.9156	1399.0893	1418.3596	1430.7005	1492.6097	1504.3845	1653.1128	1765.155	1852.1123	2860.9225	3035.3822	3049.6801	3121.9039	3149.0098	3225.9684	3650.5726
CC1C(=O)NC=C1C=O	C[C@H]1C(=O)NC=C1C=O	
InChI=1S/C6H7NO2/c1-4-5(3-8)2-7-6(4)9/h2-4H,1H3,(H,7,9)	InChI=1S/C6H7NO2/c1-4-5(3-8)2-7-6(4)9/h2-4H,1H3,(H,7,9)/t4-/m1/s1
