19
gdb 93589	4.69245	0.96882	0.83028	1.1398	88.17	-0.2301	-0.017	0.2131	1388.6829	0.158447	-385.875492	-385.866643	-385.865699	-385.908775	33.848	
C	-0.0313627277	 1.5211892809	 0.1024951342	-0.405202
C	 0.0238288828	 0.0065185116	-0.0148033241	 0.132863
C	 0.7502956799	-0.4807887429	-1.2747383195	-0.253331
C	 1.0677431009	-1.945774315	-1.179672803	-0.15886
C	 1.0025569203	-2.6123017454	-0.0180009816	 0.121557
C	 0.6439279778	-1.8830701924	 1.2668748255	-0.169561
O	 0.6960932936	-0.4809975569	 1.1425469005	-0.257168
C	 1.242758949	-4.0074440574	 0.0944181335	 0.226574
C	 1.4334471692	-5.1865599834	 0.2559274526	-0.416236
H	 0.9808599742	 1.9333870878	 0.1599388112	 0.12583
H	-0.5360922827	 1.9568521665	-0.7651753689	 0.114449
H	-0.5724654511	 1.815343009	 1.0055755996	 0.124203
H	-1.0028542367	-0.3990373538	-0.0282388974	 0.06773
H	 0.1301974494	-0.2884743218	-2.159866969	 0.10816
H	 1.6741147277	 0.0987845664	-1.418133175	 0.116838
H	 1.3479941803	-2.4725082503	-2.0868487716	 0.097133
H	-0.3547172358	-2.2138279126	 1.6040395373	 0.104429
H	 1.3544592986	-2.1525453581	 2.0550769192	 0.126596
H	 1.6045611903	-6.2274441322	 0.3765291664	 0.193995
77.8332	140.6083	196.1325	205.7063	237.0619	307.1978	356.2222	393.7678	465.6392	505.1263	531.2292	561.9274	589.0974	640.6211	644.8137	786.215	852.813	887.1035	920.8248	939.7996	1032.156	1038.4033	1065.8029	1106.1041	1144.597	1161.3593	1174.8409	1234.1833	1274.3265	1322.1101	1339.3209	1381.166	1391.0281	1403.5317	1412.4005	1463.9703	1483.8467	1487.5186	1501.3578	1697.985	2218.7458	2946.6346	2951.5831	3003.166	3041.8093	3044.3931	3071.8026	3115.5559	3122.7045	3174.7415	3503.3679
CC1CC=C(CO1)C#C	C[C@H]1CC=C(CO1)C#C	
InChI=1S/C8H10O/c1-3-8-5-4-7(2)9-6-8/h1,5,7H,4,6H2,2H3	InChI=1S/C8H10O/c1-3-8-5-4-7(2)9-6-8/h1,5,7H,4,6H2,2H3/t7-/m0/s1
