18
gdb 10130	2.50282	1.46918	0.99808	0.5327	75.3	-0.2215	-0.067	0.1545	1204.8839	0.151654	-381.131102	-381.121276	-381.120332	-381.166987	33.253	
C	 0.0785194503	 1.5348490207	 0.1105848483	-0.358721
C	-0.1028400391	 0.0271615774	-0.1021566195	-0.147561
N	 0.6737132272	-0.4304619891	-1.2379973265	-0.291213
C	 1.7552025638	-1.1126628344	-1.123099283	 0.260442
N	 2.4281627028	-1.5598924652	-2.2183818289	-0.304626
C	 2.0252422884	-1.2187727261	-3.5614263653	-0.308353
C	 2.4546623772	-1.5014697447	 0.1583506202	 0.114959
O	 3.5102350878	-2.0914341638	 0.1661318604	-0.267463
H	 1.1062247267	 1.7649629182	 0.4110438703	 0.110897
H	-0.1285807237	 2.0758844716	-0.8169809937	 0.129295
H	-0.598274596	 1.9012072414	 0.8891146082	 0.110704
H	 0.0967576137	-0.5029026217	 0.8403116195	 0.086037
H	-1.1572519107	-0.1671963917	-0.3373710072	 0.107649
H	 3.3270067303	-1.9765268244	-2.038595563	 0.259694
H	 2.6689943311	-1.7434192198	-4.2702410733	 0.121011
H	 0.9854279971	-1.5149393933	-3.7328186237	 0.141661
H	 2.0899641036	-0.138738324	-3.748469603	 0.128425
H	 1.9675841394	-1.1944946313	 1.0989397004	 0.107163
28.5663	80.0201	94.4499	156.392	177.6532	191.6592	232.0238	280.6166	370.0055	427.9998	449.2692	546.3638	577.7366	661.8891	793.799	811.8238	936.0823	1013.1793	1052.5	1102.4419	1131.7891	1158.6627	1166.0811	1211.611	1276.8011	1323.6531	1365.9328	1401.0077	1409.1073	1455.2469	1472.7128	1487.6381	1497.221	1511.774	1524.5296	1550.738	1699.9562	1793.0576	2977.1257	3008.5386	3016.5983	3029.5442	3035.6423	3076.5607	3105.0585	3118.7232	3130.7864	3647.8212
CCN=C(NC)C=O	CCN=C(NC)C=O	
InChI=1S/C5H10N2O/c1-3-7-5(4-8)6-2/h4H,3H2,1-2H3,(H,6,7)	InChI=1S/C5H10N2O/c1-3-7-5(4-8)6-2/h4H,3H2,1-2H3,(H,6,7)
