18
gdb 34120	3.39089	1.4653	1.3672	4.4412	80.13	-0.2912	0.0268	0.318	995.4305	0.15101	-364.801361	-364.794704	-364.79376	-364.832245	27.694	
N	 0.0522007156	-1.1147569424	-0.066056247	-0.34791
C	 0.0291240372	 0.0414691292	-0.0332064354	 0.149394
C	 0.0122484945	 1.4826614606	 0.0185398128	 0.214495
C	-0.4150623301	 2.2532103321	 1.3056613799	-0.273222
C	 0.4065884023	 3.3881763476	 0.6834256881	-0.043215
C	-0.0255373485	 3.5898288665	-0.8376450147	-0.048946
C	 1.4188758559	 3.1973656808	-1.2491898009	-0.2409
C	 1.3656375474	 2.3474220829	 0.0240058948	-0.05777
C	-0.7757184175	 2.2619174396	-1.0676286154	-0.251472
H	-1.4880877978	 2.372966142	 1.4798252744	 0.106603
H	 0.0703081795	 1.8587511786	 2.2017757927	 0.118168
H	 0.7601836307	 4.2565454379	 1.2354029989	 0.080339
H	-0.4967109096	 4.5068103829	-1.1879060309	 0.073757
H	 1.5677205931	 2.7203273652	-2.2226578623	 0.101844
H	 2.1291795424	 4.0202762982	-1.1269112072	 0.106656
H	 2.2254035918	 1.9059209002	 0.5245863868	 0.08803
H	-0.6384158278	 1.8681401483	-2.0773450143	 0.114968
H	-1.8443647291	 2.2937913999	-0.8426260304	 0.109181
143.5939	161.0823	370.3437	415.1015	465.2171	513.7926	550.3838	554.103	638.3958	710.8743	805.7602	826.9492	850.6486	880.5201	900.0449	938.3206	959.0314	982.9611	994.3369	1006.1286	1035.1512	1048.6177	1071.4724	1116.4591	1142.5548	1153.5134	1193.	1197.0113	1226.895	1242.6504	1253.6337	1262.2902	1280.3129	1298.3878	1330.4893	1484.2244	1496.2943	1517.8012	2348.9981	3047.812	3056.1262	3067.809	3103.9551	3115.7005	3120.0775	3127.287	3135.0908	3144.4189
N#CC12CC3C(CC13)C2	N#C[C@@]12C[C@@H]3[C@@H](C[C@H]13)C2	
InChI=1S/C8H9N/c9-4-8-2-5-1-7(8)6(5)3-8/h5-7H,1-3H2	InChI=1S/C8H9N/c9-4-8-2-5-1-7(8)6(5)3-8/h5-7H,1-3H2/t5-,6+,7-,8+/m0/s1
