20
gdb 11029	4.03506	1.70961	1.42937	0.2222	80.1	-0.2229	0.023	0.2459	963.7268	0.177577	-311.87637	-311.868542	-311.867598	-311.907822	31.073	
C	-0.1635207316	 1.5899220123	 0.0289389468	-0.389324
C	 0.0312398239	 0.0661537379	 0.0128486192	-0.035915
C	 0.8174974723	-0.4504633468	-1.180176688	-0.083365
C	 1.811319923	-1.2646968438	-0.8216021705	-0.14682
C	 1.9152622766	-1.4110332106	 0.666052906	 0.326223
C	 2.2820808151	-2.7461872201	 1.2692006513	-0.486763
C	 2.2735513869	-0.1121007668	 1.3657422584	-0.321188
C	 0.8213700135	-0.4984106609	 1.1992454626	-0.088065
H	 0.7978436405	 2.111947602	 0.0568517383	 0.116755
H	-0.7028710743	 1.9265409567	-0.8630024157	 0.109403
H	-0.741567614	 1.8998689815	 0.9054538795	 0.112663
H	-0.9704475606	-0.3906192898	 0.0053184824	 0.077328
H	 0.5848405753	-0.1513142461	-2.1969917707	 0.087508
H	 2.4986492226	-1.7591205133	-1.500773863	 0.087842
H	 3.2978021341	-3.0458854248	 0.9840013732	 0.115431
H	 2.2462235309	-2.7077056394	 2.3624972638	 0.113677
H	 1.59823153	-3.5361891843	 0.9384663733	 0.117071
H	 2.6781049845	-0.1826293252	 2.371339544	 0.102707
H	 2.6870794166	 0.6948797358	 0.7700695196	 0.107705
H	 0.2766556647	-0.7680614942	 2.0976678694	 0.077128
146.6	203.5227	209.4591	230.2959	270.7255	341.1514	383.0671	471.0004	524.6287	616.1205	697.1906	757.4483	778.6152	811.2441	840.2506	912.1052	933.4118	954.5181	972.2632	981.7848	1016.4564	1052.8974	1065.5542	1084.4967	1104.9162	1116.8775	1129.5416	1153.7542	1260.9722	1277.4088	1317.6527	1333.6402	1357.3298	1397.728	1414.1083	1420.5233	1479.0229	1489.174	1497.2967	1498.9613	1501.1655	1672.0804	2979.5118	3021.3181	3032.5243	3079.3393	3097.8516	3098.3149	3108.5698	3117.1461	3162.8481	3171.0991	3197.0194	3204.9764
CC1C=CC2(C)CC12	C[C@H]1C=C[C@@]2(C)C[C@@H]12	
InChI=1S/C8H12/c1-6-3-4-8(2)5-7(6)8/h3-4,6-7H,5H2,1-2H3	InChI=1S/C8H12/c1-6-3-4-8(2)5-7(6)8/h3-4,6-7H,5H2,1-2H3/t6-,7-,8-/m0/s1
