16
gdb 127269	5.64016	0.93776	0.80829	5.6035	76.43	-0.214	0.0075	0.2214	1361.7058	0.125741	-434.108385	-434.099908	-434.098964	-434.142533	29.887	
C	-0.0300699161	 1.4565608137	 0.0132578746	-0.321706
N	 0.0286830188	 0.0112984386	-0.0153039042	 0.066409
C	 0.1225748917	-0.7916533244	-1.1071654936	-0.151872
C	 0.0538161188	-2.0921230584	-0.640535651	 0.255462
N	 0.1258301643	-3.252345338	-1.4223656619	-0.410503
C	 0.0637140547	-4.5358463833	-0.9594155032	 0.140518
O	-0.0618835115	-4.8630222342	 0.1997761032	-0.307392
C	-0.0876859208	-1.9679299131	 0.7610981163	-0.063414
N	-0.1051992624	-0.6869600492	 1.1239245079	-0.257031
H	 0.6522825192	 1.8715582595	-0.732716262	 0.1373
H	-1.0439255553	 1.8204859669	-0.187113959	 0.142151
H	 0.2748804113	 1.7834636057	 1.0072715131	 0.163472
H	 0.2323825387	-0.3914589856	-2.1026981231	 0.124755
H	 0.2310643632	-3.1331984077	-2.417809923	 0.252445
H	 0.1438143937	-5.2622462326	-1.7915541382	 0.07865
H	-0.1654340982	-2.7582186578	 1.4868695743	 0.150756
53.1225	63.075	157.5704	166.3975	233.566	281.2498	399.159	429.2969	535.0549	574.525	638.577	672.5794	740.1935	744.4857	866.0868	887.5565	1001.7071	1011.4184	1021.7799	1075.5202	1139.1405	1147.648	1205.1009	1226.0762	1350.6631	1390.6415	1416.4681	1436.6113	1448.5259	1464.2651	1488.6714	1510.9902	1541.6861	1637.5374	1805.5917	2942.6566	3037.5168	3107.1073	3159.6681	3254.2794	3302.1695	3627.8569
CN1C=C(NC=O)C=N1	Cn1cc(NC=O)cn1	
InChI=1S/C5H7N3O/c1-8-3-5(2-7-8)6-4-9/h2-4H,1H3,(H,6,9)	InChI=1S/C5H7N3O/c1-8-3-5(2-7-8)6-4-9/h2-4H,1H3,(H,6,9)
