20
gdb 53470	4.54736	0.69146	0.6093	3.1862	87.09	-0.2343	0.0331	0.2674	1867.2698	0.167462	-403.152049	-403.140493	-403.139549	-403.191456	38.122	
C	 0.0830475176	 1.5320878072	 0.0519830516	-0.499006
C	 0.0350241244	 0.0789221014	-0.010699412	 0.142037
C	-0.0257464282	-1.1209053328	-0.0600063618	 0.0661
C	-0.0600244208	-2.5732364343	-0.1242524927	-0.555666
C	-1.4867220227	-3.1495669775	 0.0142711773	 0.443187
O	-2.4509829781	-2.4242188768	 0.1602471415	-0.361272
N	-1.5980902137	-4.5189037121	-0.0370982223	-0.095185
C	-2.9169920429	-5.1178465149	 0.0878890144	-0.342605
C	-0.5101144115	-5.4605497387	-0.2075724811	-0.338357
H	 0.7022268696	 1.87674539	 0.8877327607	 0.143643
H	 0.5000276544	 1.9591263852	-0.8669376291	 0.143639
H	-0.9197803986	 1.9518743725	 0.1872584667	 0.153743
H	 0.3735064306	-2.9162426195	-1.0730553958	 0.14623
H	 0.575170531	-2.9978595656	 0.6644508512	 0.146229
H	-3.1606918148	-5.7051295141	-0.8067870616	 0.118846
H	-2.9560919661	-5.787740476	 0.956480786	 0.118847
H	-3.6461543391	-4.3193288795	 0.2099123577	 0.171775
H	 0.4500921065	-4.9577418187	-0.2955637646	 0.143546
H	-0.4559009813	-6.1488709214	 0.646883484	 0.127134
H	-0.6601639262	-6.0664996345	-1.1115216601	 0.127135
24.7988	29.3048	61.3191	77.6313	114.4212	148.5552	218.6694	233.6938	242.645	292.5053	377.453	384.7622	419.5026	459.6522	565.2866	614.3314	776.1909	822.7275	954.4306	970.313	1051.8933	1055.444	1082.0137	1131.2314	1137.8108	1178.1457	1179.6457	1231.5528	1282.4345	1326.1443	1414.0141	1421.1109	1431.8499	1455.2407	1478.5783	1478.9063	1479.0112	1483.3548	1502.953	1504.7988	1543.168	1770.6859	2386.3815	3002.4103	3011.4869	3012.6143	3025.7547	3041.1454	3042.855	3056.6823	3084.5162	3088.3931	3173.0335	3173.9555
CC#CCC(=O)N(C)C	CC#CCC(=O)N(C)C	
InChI=1S/C7H11NO/c1-4-5-6-7(9)8(2)3/h6H2,1-3H3	InChI=1S/C7H11NO/c1-4-5-6-7(9)8(2)3/h6H2,1-3H3
