21
gdb 40259	2.78886	1.48758	1.14218	0.9201	83.97	-0.2335	0.0204	0.2539	1143.4923	0.183918	-387.079485	-387.071338	-387.070394	-387.112036	32.654	
C	 0.0496289871	 1.5376754295	-0.1723233943	-0.315919
C	 1.3399710555	 0.7434442109	-0.0951736783	-0.318821
C	 0.02251145	 0.0471953184	 0.0657405237	 0.439033
C	-0.3584093239	-0.4968637361	 1.4313853921	-0.31179
C	-1.8373753223	-0.6341755862	 1.7166857134	-0.056082
C	-2.7809724453	-1.1025901203	 0.8997014524	-0.0552
C	-2.5982219901	-1.5915669257	-0.5171545551	-0.251483
C	-1.686793626	-0.7392294851	-1.4034317199	-0.080729
O	-0.3184182122	-0.7661089323	-1.0250048319	-0.294816
H	-0.2057886394	 2.2009942664	 0.6471201934	 0.111063
H	-0.2522521748	 1.893264153	-1.1509191142	 0.115848
H	 1.8670958915	 0.5643953659	-1.0249958573	 0.121227
H	 1.9753061166	 0.8621246002	 0.7759128667	 0.107706
H	 0.1236659767	-1.4794765006	 1.5483233257	 0.117691
H	 0.0918004607	 0.1489688386	 2.1926245568	 0.09806
H	-2.1399565946	-0.3564966292	 2.7242709625	 0.083384
H	-3.7929649162	-1.1749646258	 1.2927484718	 0.083793
H	-2.2049629203	-2.6187744047	-0.5089060611	 0.118071
H	-3.5769874616	-1.6475928308	-1.0089597437	 0.098641
H	-1.710651683	-1.1327202991	-2.4253304371	 0.098485
H	-2.0531217684	 0.297147723	-1.4278124855	 0.091838
85.1854	116.8782	268.0261	280.5562	323.7487	333.356	372.0277	449.5616	476.4147	558.5837	645.446	710.3857	765.9867	780.5644	809.9451	869.2831	882.7704	941.0081	949.2333	983.9294	989.257	999.7506	1020.4568	1048.4734	1058.4227	1078.0103	1087.3088	1112.9368	1187.3302	1205.5512	1237.969	1266.4158	1288.1825	1308.8689	1325.6221	1374.3662	1389.0511	1411.3892	1432.2892	1454.6416	1464.9497	1466.8217	1487.1139	1501.0276	1728.4016	2996.4998	3000.761	3007.2968	3054.5641	3066.6826	3070.7764	3131.9849	3133.3792	3137.2314	3156.7386	3216.5535	3230.9147
C1CC11CC=CCCO1	C1CC21CC=CCCO2	
InChI=1S/C8H12O/c1-2-4-8(5-6-8)9-7-3-1/h1-2H,3-7H2	InChI=1S/C8H12O/c1-2-4-8(5-6-8)9-7-3-1/h1-2H,3-7H2
