18
gdb 52280	3.87423	0.77353	0.6793	4.967	74.15	-0.2479	-0.0195	0.2284	1595.6702	0.146573	-439.116918	-439.107608	-439.106664	-439.152552	32.314	
O	-0.1368766453	 0.0057295282	 0.1180473451	-0.238179
C	-0.0193485316	 1.1995671458	 0.0174716753	 0.156638
C	 1.2930104278	 1.9424811296	-0.0579094457	-0.276657
C	 1.3866431016	 2.8098300698	-1.3286694197	-0.225947
C	 2.6115084777	 3.7197649234	-1.3020271537	-0.141143
C	 2.7273163888	 4.8355723707	-2.386591561	-0.190433
N	 2.7028490541	 5.809465585	-1.2908345812	-0.318817
C	 2.5476188376	 4.8909995708	-0.2841083801	 0.433444
O	 2.389871434	 4.9910894187	 0.9050225951	-0.364991
H	-0.9186181056	 1.8595874455	-0.0313508262	 0.070221
H	 1.3618557401	 2.6033040973	 0.8169998935	 0.157891
H	 2.1105722401	 1.2174335805	-0.0068941762	 0.119194
H	 1.4205076346	 2.1668168042	-2.2163679576	 0.115953
H	 0.481202875	 3.4248723713	-1.4208723333	 0.108627
H	 3.5300027296	 3.1352867016	-1.194903886	 0.107692
H	 3.6529280315	 4.8363711349	-2.969875168	 0.117569
H	 1.8673435497	 4.9022172406	-3.0616712956	 0.115268
H	 2.6823381303	 6.8184874219	-1.2831794547	 0.25367
52.9475	67.399	91.6995	121.5808	161.0324	231.1227	319.8409	329.3323	466.1338	492.7421	530.6446	711.5303	759.5245	773.5038	813.2716	881.1898	914.3271	985.898	1001.562	1024.4886	1089.0761	1093.4803	1144.9959	1166.4559	1177.7308	1183.6164	1227.3847	1268.2278	1297.7164	1317.383	1347.8784	1384.5798	1397.4133	1431.8283	1470.3741	1496.631	1527.5082	1837.1869	1881.8528	2845.5679	3015.5529	3030.0606	3039.8362	3055.4078	3075.5535	3090.9994	3102.4578	3611.3846
O=CCCC1CNC1=O	O=CCC[C@H]1CNC1=O	
InChI=1S/C6H9NO2/c8-3-1-2-5-4-7-6(5)9/h3,5H,1-2,4H2,(H,7,9)	InChI=1S/C6H9NO2/c8-3-1-2-5-4-7-6(5)9/h3,5H,1-2,4H2,(H,7,9)/t5-/m0/s1
