19
gdb 71799	3.67155	1.67727	1.52812	1.3404	77.23	-0.2387	0.0796	0.3183	922.4333	0.162611	-385.87405	-385.867694	-385.866749	-385.904197	28.1	
O	-0.1016028163	 1.3539629372	-0.0189162507	-0.481655
C	 0.0545763429	-0.0251728392	-0.0508878036	 0.386569
C	 1.1009086493	-0.7102663948	-0.915152827	-0.312083
C	 0.7025260606	-2.1390955797	-0.5847243824	-0.032718
C	 0.4478114688	-2.2750048407	 0.9635868137	-0.053428
C	-0.746263168	-3.2064944073	 0.6060072031	-0.224874
C	-0.8649173718	-2.2662870914	-0.6275711888	-0.051689
C	-1.1785272273	-0.8925913956	-0.0137121755	-0.093849
C	-0.2063917592	-0.9005427752	 1.1673726213	-0.139044
H	 0.6530311888	 1.7289339786	 0.4482601704	 0.2813
H	 0.9849712808	-0.4639225743	-1.9764168438	 0.101496
H	 2.1267266414	-0.4708450612	-0.6077078217	 0.085817
H	 1.2558547589	-2.9570049743	-1.0434530101	 0.067947
H	 1.2344810455	-2.5768735066	 1.6557437457	 0.056836
H	-0.4213053803	-4.2146909997	 0.3313093997	 0.09051
H	-1.5888572476	-3.2573199351	 1.3016741925	 0.088478
H	-1.3989474001	-2.5564052573	-1.5326172825	 0.059716
H	-2.1702642855	-0.4661067372	 0.0500836013	 0.088692
H	-0.4631966809	-0.4841197864	 2.1324121583	 0.081979
256.2765	301.216	333.6695	384.4508	448.6698	521.9545	566.6421	677.2948	677.5478	737.1034	805.6154	823.1171	829.3329	871.1989	900.4186	917.3672	934.6456	953.374	956.9446	993.4275	1005.88	1023.9693	1047.8195	1054.2561	1088.5752	1102.2151	1130.4031	1152.4743	1203.6596	1215.0847	1220.8704	1244.6772	1252.3755	1274.7324	1283.6019	1293.7935	1316.5207	1344.899	1433.3076	1491.1046	1498.5019	3027.0377	3047.0647	3076.7128	3104.4322	3106.6647	3110.2429	3131.4289	3199.0259	3210.7753	3795.6848
OC12CC3C4CC3C1C24	O[C@]12C[C@H]3[C@@H]4C[C@H]3[C@H]1[C@H]24	
InChI=1S/C8H10O/c9-8-2-5-3-1-4(5)7(8)6(3)8/h3-7,9H,1-2H2	InChI=1S/C8H10O/c9-8-2-5-3-1-4(5)7(8)6(3)8/h3-7,9H,1-2H2/t3-,4+,5-,6+,7-,8-
