15
gdb 49341	2.36148	1.81788	1.0381	2.7397	70.94	-0.2555	-0.0248	0.2307	1076.4857	0.114381	-450.178054	-450.169919	-450.168975	-450.211399	29.2	
N	 0.1023883942	 1.302146621	-0.1890140398	-0.402153
C	-0.0001972368	 0.069345576	 0.0742631773	 0.072734
N	-1.1972254647	-0.6438123326	-0.0286078992	-0.184824
C	-1.2533646257	-2.0487102529	-0.0423314666	 0.394197
N	-0.3370098156	-2.9216383477	-0.0746641856	-0.533745
C	-2.7278318062	-2.4183477267	-0.0326604777	-0.235156
N	-3.3730462004	-1.1317766215	-0.1652344305	-0.368811
C	-2.5155301995	-0.0673308421	-0.0465228198	 0.485907
O	-2.7953117859	 1.0952268081	 0.0368888015	-0.357791
H	 1.057312717	 1.6123075902	-0.0124535011	 0.236817
H	 0.8153208276	-0.5761539722	 0.4190035423	 0.104013
H	 0.6014816506	-2.5270434816	-0.1055594642	 0.223955
H	-2.9504827324	-3.0962670452	-0.8620909841	 0.15112
H	-2.9801138699	-2.9305936587	 0.9043824994	 0.145244
H	-4.3504352123	-0.9756007241	 0.0130350481	 0.268494
71.3223	99.3104	145.4669	191.3547	232.7378	374.7869	428.8342	472.3807	552.1806	576.1319	629.1263	732.0372	746.9934	770.7073	829.3582	855.0178	970.5815	1031.1874	1069.4756	1081.1042	1115.3067	1191.0465	1198.7756	1213.7386	1300.4402	1335.4712	1409.7016	1433.7056	1438.1294	1511.3397	1724.7639	1755.7348	1893.5444	3029.3972	3050.2503	3079.6977	3493.9558	3498.5811	3673.9075
N=CN1C(=N)CNC1=O	[NH][CH]N1[C]([NH])CNC1=O	
InChI=1S/C4H6N4O/c5-2-8-3(6)1-7-4(8)9/h2,5-6H,1H2,(H,7,9)	InChI=1S/C4H6N4O/c5-2-8-3(6)1-7-4(8)9/h2,5-6H,1H2,(H,7,9)
