17
gdb 48705	3.83234	1.14123	1.00856	2.3591	74.88	-0.2511	-0.0316	0.2195	1179.5331	0.136148	-417.94323	-417.935377	-417.934433	-417.975827	29.885	
O	-0.554708155	 0.7842062694	 0.6818036117	-0.266995
C	 0.2275757668	 0.9837832266	-0.2166077321	 0.086324
C	 1.3771685411	 1.899225872	-0.1135132666	 0.230696
C	 1.7727932149	 2.7353261786	 1.1131152617	-0.40521
C	 2.105992885	 3.8935101126	 0.147931698	 0.34895
C	 1.8900213878	 5.3352866452	 0.3687681506	-0.306221
N	 3.2541471419	 4.7973889339	 0.1581202122	-0.365564
C	 1.7192086329	 3.057393491	-1.0578759638	-0.14146
N	 2.4464885357	 1.8100258693	-1.1069089274	-0.353075
H	 0.1318513851	 0.4969901865	-1.210786541	 0.087054
H	 0.9234055779	 2.9437224743	 1.7664989547	 0.140663
H	 2.5966327602	 2.3265093775	 1.7082394135	 0.106017
H	 1.5228696888	 5.9636876624	-0.4384346177	 0.12656
H	 1.6003711668	 5.6608174802	 1.3646376954	 0.120451
H	 3.7385119225	 4.7307013136	 1.050638355	 0.234755
H	 1.1982575035	 3.3905372999	-1.9483253003	 0.113129
H	 3.371151014	 1.8732807972	-0.6841385641	 0.243926
78.1188	150.1068	174.3634	271.8757	286.5194	355.5404	405.1982	480.7101	517.8326	595.1118	733.4115	760.4946	829.3544	849.893	899.4577	941.4962	953.3654	980.2788	985.3755	996.6968	1053.3821	1069.4689	1106.145	1127.8211	1129.5588	1142.1606	1228.6708	1255.211	1258.8434	1271.3127	1301.0852	1386.2794	1420.8237	1440.1578	1482.0758	1515.3791	1806.7935	2909.7905	3044.9224	3105.7935	3121.267	3184.8215	3191.0521	3471.0891	3492.7878
O=CC12CC3(CN3)C1N2	O=C[C@]12C[C@]3(CN3)[C@H]1N2	
InChI=1S/C6H8N2O/c9-3-6-1-5(2-7-5)4(6)8-6/h3-4,7-8H,1-2H2	InChI=1S/C6H8N2O/c9-3-6-1-5(2-7-5)4(6)8-6/h3-4,7-8H,1-2H2/t4-,5+,6-/m1/s1
