18
gdb 55095	3.99635	1.03126	1.02381	2.2703	72.14	-0.2329	0.0295	0.2624	1218.5997	0.147097	-439.085061	-439.076122	-439.075177	-439.118962	33.701	
N	 0.2819915693	 0.8097897468	 0.8683056707	-0.529507
C	 0.0686373117	 0.0590550826	-0.2542822894	 0.414677
O	 0.9218813865	-0.0743083436	-1.1141118363	-0.36887
C	-1.2958294085	-0.6060544635	-0.330792929	-0.102652
C	-1.7774825245	-1.059898766	-1.7464782357	-0.315571
C	-1.805179413	-2.5122685476	-1.2468366233	 0.403058
O	-2.8158239981	-3.4079622388	-1.5471103522	-0.467058
C	-0.457731879	-2.94183033	-0.7450435612	-0.3427
C	-1.3453061885	-2.0814799041	 0.1357666818	-0.135668
H	 1.2133111588	 1.1568187358	 1.0327452826	 0.258313
H	-0.3717011001	 0.8185346597	 1.6316137689	 0.256671
H	-2.049169839	-0.001602309	 0.1817991441	 0.077791
H	-2.7802937229	-0.6883619946	-1.9666294184	 0.106541
H	-1.1005579636	-0.831906597	-2.5726984584	 0.118112
H	-2.5276682573	-3.9502174405	-2.2893967414	 0.286462
H	-0.4204651267	-3.9798573913	-0.4291097475	 0.108689
H	 0.461561579	-2.5432431659	-1.1627804716	 0.140992
H	-1.6725866141	-2.4149752731	 1.1127976165	 0.09072
44.7739	117.4672	170.1717	223.3632	241.6681	292.9269	346.1478	405.139	420.0033	455.4194	570.5244	599.9224	640.4538	697.0525	741.6113	812.3649	854.5212	918.4388	945.1366	959.5935	993.9856	1025.3793	1035.6668	1070.7687	1089.5851	1092.283	1138.6671	1213.4887	1224.4973	1243.871	1276.352	1289.7884	1322.386	1391.0018	1416.9192	1469.5858	1501.3312	1616.6073	1781.6942	3063.1199	3071.9817	3122.6521	3131.1648	3187.1807	3215.3381	3596.4198	3732.3688	3797.2275
NC(=O)C1CC2(O)CC12	NC(=O)[C@H]1C[C@@]2(O)C[C@@H]12	
InChI=1S/C6H9NO2/c7-5(8)3-1-6(9)2-4(3)6/h3-4,9H,1-2H2,(H2,7,8)	InChI=1S/C6H9NO2/c7-5(8)3-1-6(9)2-4(3)6/h3-4,9H,1-2H2,(H2,7,8)/t3-,4-,6+/m0/s1
