13
gdb 27469	2.5413	1.76568	1.12643	3.6141	69.12	-0.2568	-0.0962	0.1606	1005.5125	0.090915	-452.788145	-452.781145	-452.780201	-452.819873	26.206	
O	-0.1087848903	 1.2187059446	-0.3856349607	-0.358644
C	 0.0425962726	-0.0473857248	 0.0227992989	 0.448678
N	 1.2286571592	-0.541596717	 0.0559746487	-0.363646
C	 1.550307771	-1.8651090469	 0.3077513873	 0.345091
O	 2.5484037931	-2.1939159601	 0.9109034546	-0.325896
C	 0.6748303059	-2.9113828472	-0.2938822955	-0.15285
C	-0.670317056	-2.8885043015	-0.2482454623	-0.080057
C	-1.4635230984	-1.8049849581	 0.3038774782	 0.015553
N	-1.1755397856	-0.558161839	 0.4358276015	-0.245998
H	 0.7753511729	 1.534486001	-0.6225155639	 0.31395
H	 1.1962107947	-3.7958959919	-0.6492312131	 0.143651
H	-1.229246186	-3.7674699994	-0.5592488906	 0.123895
H	-2.4645962432	-2.0842562996	 0.6407651669	 0.136274
97.162	151.5205	252.6879	326.0128	415.6248	435.2497	475.0391	559.9166	619.4029	631.5724	699.9036	751.5631	821.2106	837.0271	896.0416	957.9308	996.4507	1013.8981	1026.1685	1182.5086	1215.6335	1310.8994	1402.3861	1415.5405	1455.106	1599.4597	1668.283	1694.8955	1779.3471	3105.7554	3161.1997	3184.4808	3767.2085
OC1=NC(=O)C=CC=N1	Oc1nc(=O)cccn1	
InChI=1S/C5H4N2O2/c8-4-2-1-3-6-5(9)7-4/h1-3H,(H,7,8,9)	InChI=1S/C5H4N2O2/c8-4-2-1-3-6-5(9)7-4/h1-3H,(H,7,8,9)
