17
gdb 83394	2.80509	1.31182	1.11966	2.5251	69.63	-0.2431	-0.0227	0.2204	1129.8409	0.133697	-458.930828	-458.922052	-458.921108	-458.964769	32.063	
C	-0.5229945006	 1.3918062991	 0.1381613052	-0.496808
C	 0.1698520469	 0.0466337799	 0.025552139	 0.279753
O	 0.7784776	-0.4483852617	 0.9539217031	-0.32545
C	 0.0857924701	-0.6440586598	-1.2781394414	 0.124872
C	-0.831375816	-0.4177448027	-2.4739677683	-0.174294
O	-0.9185593804	-1.8539643497	-2.7321738353	-0.302532
C	-0.1436396718	-2.1421780033	-1.5652325673	-0.008536
C	 1.215580221	-1.6000096986	-1.7370058019	 0.086858
O	 1.7990097764	-1.4931569887	-2.9864313388	-0.427521
H	-0.1788784991	 2.0705816584	-0.6506585727	 0.141089
H	-1.6055565047	 1.2752264652	 0.010864763	 0.14131
H	-0.3188964465	 1.8266787402	 1.1170084995	 0.146738
H	-1.8214804869	-0.0255878303	-2.2217186081	 0.122001
H	-0.4149283457	 0.1288136773	-3.326884903	 0.121124
H	-0.467625063	-2.9466764452	-0.9144375962	 0.126195
H	 1.9201922228	-1.7904565853	-0.9340779567	 0.144476
H	 1.1476426574	-1.8225094549	-3.6213085301	 0.300725
54.3029	113.3501	149.0415	173.5017	239.7902	257.1532	341.8485	439.7318	469.2875	502.075	592.6007	616.7567	656.6756	771.6038	814.7294	890.3466	926.6025	965.1228	986.0551	1019.9584	1034.3511	1055.9154	1069.3822	1105.6146	1156.7332	1164.0242	1218.3385	1281.6796	1318.1779	1325.5677	1375.5508	1395.1375	1456.9239	1462.2238	1474.1187	1510.2807	1774.6233	3032.7334	3038.4481	3090.6434	3093.8022	3154.1017	3179.1352	3187.6216	3750.5955
CC(=O)C12COC1C2O	CC(=O)[C@]12CO[C@H]1[C@H]2O	
InChI=1S/C6H8O3/c1-3(7)6-2-9-5(6)4(6)8/h4-5,8H,2H2,1H3	InChI=1S/C6H8O3/c1-3(7)6-2-9-5(6)4(6)8/h4-5,8H,2H2,1H3/t4-,5+,6+/m1/s1
