18
gdb 84640	2.71278	1.72796	1.16383	2.9463	79.28	-0.206	0.0009	0.2069	1062.1189	0.149552	-401.98706	-401.979088	-401.978144	-402.019802	30.408	
C	 0.0178121631	 1.4772175076	-0.0043572695	-0.355183
N	 0.0802215643	 0.0204952492	 0.0019319318	-0.134739
C	 0.0525738388	-0.6486758238	-1.2283676336	 0.019351
C	 0.0030381255	-1.9773087824	-1.3612149924	-0.144817
C	 0.0651439454	-2.8574071518	-0.1781900175	-0.09338
C	 1.3127065663	-2.8269051886	 0.6720948217	-0.289898
C	 0.0613600528	-2.1351146617	 1.1674385578	-0.147743
C	-0.0288048827	-0.6454395405	 1.2162900242	 0.430293
O	-0.203596483	-0.0519213264	 2.2663133796	-0.387758
H	 0.8560966526	 1.8903400364	-0.5743061032	 0.127094
H	-0.919740003	 1.829297173	-0.4500837608	 0.129845
H	 0.0692593949	 1.8182081444	 1.027811746	 0.172347
H	 0.0615026299	 0.0145674039	-2.0855034294	 0.112521
H	-0.0478711164	-2.4125492891	-2.3515804869	 0.098669
H	-0.4654499067	-3.8024751773	-0.2359890257	 0.096659
H	 1.5984793031	-3.7312846547	 1.1965713734	 0.124598
H	 2.1392900439	-2.2159239132	 0.3276744918	 0.127685
H	-0.442881529	-2.5911755849	 2.0106287127	 0.114456
74.2834	110.6553	160.8515	272.3205	309.9531	360.2244	429.8278	500.8152	552.4126	589.8012	693.7983	718.2057	745.5713	803.753	826.7322	852.6771	930.8713	945.7418	982.2129	1005.6959	1035.6362	1071.0676	1103.9892	1125.4297	1156.3023	1182.2369	1202.5166	1215.3297	1276.5458	1358.3219	1376.3556	1400.3467	1426.7829	1461.2776	1483.1076	1500.7325	1512.0845	1718.576	1762.744	3029.2372	3086.1692	3139.3127	3155.3033	3175.0868	3188.8325	3191.8374	3212.4621	3231.6173
CN1C=CC2CC2C1=O	CN1C=C[C@H]2C[C@H]2C1=O	
InChI=1S/C7H9NO/c1-8-3-2-5-4-6(5)7(8)9/h2-3,5-6H,4H2,1H3	InChI=1S/C7H9NO/c1-8-3-2-5-4-6(5)7(8)9/h2-3,5-6H,4H2,1H3/t5-,6+/m0/s1
