22
gdb 6758	5.72677	0.66207	0.61538	0.1753	88.89	-0.2389	0.0623	0.3012	1922.9043	0.198067	-313.06282	-313.052193	-313.051249	-313.099956	37.153	
C	 0.004430301	 1.5844384528	 0.0082106316	-0.381369
C	 0.0085343995	 0.054821891	-0.0184137416	-0.150842
C	-1.4135707705	-0.5386782083	 0.0485508865	-0.333023
C	-1.4323486759	-1.9977087828	 0.0226742729	-0.025628
C	-1.4143085007	-3.2028132549	 0.0056666107	 0.153706
C	-1.4144536123	-4.6662226988	-0.0354841007	-0.121168
C	-2.8522806827	-5.2223158624	-0.0167029039	-0.371615
C	-0.629709589	-5.1887218249	-1.2552819822	-0.371957
H	 1.0218068769	 1.984110108	-0.0412811568	 0.113339
H	-0.5561277343	 1.9953704092	-0.8390501116	 0.114759
H	-0.4582635219	 1.9650689658	 0.9257880391	 0.11481
H	 0.4990357911	-0.3055582206	-0.9296153873	 0.106796
H	 0.5942793286	-0.3359329869	 0.8211908775	 0.106995
H	-1.9112455023	-0.1788036661	 0.9596874776	 0.121506
H	-2.006640343	-0.1466559301	-0.7892343998	 0.12129
H	-0.9053118674	-5.0302780649	 0.8683445444	 0.099852
H	-2.8372123872	-6.3171165022	-0.0053879278	 0.108779
H	-3.3968279826	-4.8742617906	 0.8649643903	 0.121333
H	-3.4025899157	-4.8955796018	-0.9046056679	 0.121575
H	 0.3975955019	-4.8149428513	-1.251369632	 0.120789
H	-0.6004261293	-6.2832972926	-1.2494035546	 0.10869
H	-1.104541904	-4.8630858877	-2.1861264243	 0.121384
17.3026	69.8856	77.515	149.4219	168.7544	226.6578	243.4357	261.6775	286.8621	334.2891	367.0389	453.5164	520.0632	552.8406	714.3865	743.6087	872.1988	873.8362	900.7534	930.282	963.1871	1037.463	1070.8382	1108.6781	1120.4687	1121.5978	1150.2435	1208.2669	1259.7199	1306.4826	1321.801	1327.5191	1351.1905	1381.4512	1394.2543	1413.0693	1416.4251	1474.4857	1485.3425	1488.9726	1492.4071	1497.8381	1499.5252	1509.6666	1510.0862	2361.7907	2999.9169	3005.7272	3029.2642	3031.3489	3033.8883	3037.6981	3040.7283	3072.2006	3099.4357	3104.0249	3104.4285	3109.4529	3117.1409	3119.1095
CCCC#CC(C)C	CCCC#CC(C)C	
InChI=1S/C8H14/c1-4-5-6-7-8(2)3/h8H,4-5H2,1-3H3	InChI=1S/C8H14/c1-4-5-6-7-8(2)3/h8H,4-5H2,1-3H3
