19
gdb 81406	2.55994	1.58708	1.32007	1.9655	74.18	-0.2462	-0.0267	0.2195	1035.0209	0.159343	-423.01355	-423.005447	-423.004503	-423.046385	30.89	
C	-0.4150776324	 1.5292796442	-0.1610658097	-0.433445
C	-0.0649648656	 0.0575911941	-0.0199327892	 0.04331
C	 1.0802520943	-0.6340100175	-0.8022790334	 0.061286
C	 2.3524735937	 0.1714522162	-0.4503076525	-0.26563
C	 2.1355235238	 0.1847244629	 1.105398928	-0.070901
C	 2.1964554507	 1.5224780046	 1.7904774601	 0.131135
O	 1.3207256188	 1.9829692135	 2.4811182913	-0.251723
C	 0.7817649977	-0.5602531452	 1.1268671502	 0.038276
O	 1.0848124556	-1.6731750676	 0.2246839923	-0.300668
H	 0.4601967856	 2.1818425815	-0.1838365999	 0.117173
H	-0.9745068281	 1.6928524798	-1.0885419987	 0.114632
H	-1.0405449287	 1.8595190896	 0.6731471293	 0.13882
H	-0.9583044413	-0.5634601249	-0.1236931319	 0.092571
H	 0.9735155662	-1.0083508704	-1.8207432983	 0.081003
H	 3.2585373117	-0.3611787846	-0.7425644882	 0.11573
H	 2.371923698	 1.1670547616	-0.9031281402	 0.107879
H	 2.9039985982	-0.4383000368	 1.5812664836	 0.110897
H	 3.1525120075	 2.0769356852	 1.6406808244	 0.080071
H	 0.3662299844	-0.8549817663	 2.0888141329	 0.089585
75.3376	130.3691	184.0681	213.4367	261.8688	315.7341	380.2177	488.5514	568.9339	663.5495	688.1273	748.4957	800.8519	815.1874	868.5128	900.8941	920.9453	939.6161	979.1778	1004.1457	1047.8155	1055.2589	1083.5269	1099.3981	1149.4048	1159.9513	1192.0185	1205.1749	1227.7979	1271.8415	1287.2007	1297.23	1333.0362	1341.4038	1395.8028	1419.9512	1424.9683	1482.2564	1498.4515	1500.774	1816.8216	2857.8965	3030.7451	3043.9965	3066.3259	3081.3162	3108.3537	3118.4966	3124.1804	3131.7483	3142.3807
CC1C2CC(C=O)C1O2	C[C@H]1[C@H]2C[C@@H](C=O)[C@@H]1O2	
InChI=1S/C7H10O2/c1-4-6-2-5(3-8)7(4)9-6/h3-7H,2H2,1H3	InChI=1S/C7H10O2/c1-4-6-2-5(3-8)7(4)9-6/h3-7H,2H2,1H3/t4-,5-,6+,7+/m0/s1
