21
gdb 108177	3.1616	1.4191	1.31927	1.2872	82.27	-0.2349	0.0122	0.247	1089.5382	0.184117	-387.097629	-387.089715	-387.088771	-387.129759	32.149	
C	-0.0967667092	 1.5479121047	-0.0225463974	-0.386562
C	 0.0001676926	 0.0179848933	-0.0445371057	-0.280063
C	 0.7963381637	-0.5305584929	-1.2107646604	 0.418413
C	 0.851888178	-2.0540892057	-1.4343926333	-0.262441
C	 1.659681757	-1.8913923963	-2.7464783051	-0.108942
C	 0.679189228	-0.9359822084	-3.4951985165	-0.069702
O	 0.1628184288	-0.0935498739	-2.4632795168	-0.314123
C	 2.7898198551	-0.9999051344	-2.2607489297	-0.088985
C	 2.2767580459	-0.1754377173	-1.341188478	-0.114124
H	 0.8873502098	 2.0140810903	 0.0913453492	 0.112607
H	-0.5367421183	 1.9162357259	-0.9522395517	 0.139808
H	-0.7193181387	 1.8839879507	 0.8121072103	 0.108489
H	 0.4588948179	-0.3461639361	 0.8829841199	 0.096998
H	-1.0078179363	-0.4109027917	-0.089891645	 0.101139
H	 1.4043057521	-2.5889614142	-0.6602543463	 0.100312
H	-0.1425005399	-2.4906660668	-1.5697855693	 0.094692
H	 1.9325389346	-2.789027824	-3.3003389344	 0.066851
H	 1.1813977971	-0.3352818504	-4.2627712307	 0.094723
H	-0.144663011	-1.491405485	-3.9620708557	 0.095569
H	 3.7850052995	-0.9765635504	-2.6873357455	 0.096878
H	 2.7614919233	 0.6644822924	-0.8606084278	 0.098461
90.1309	175.2614	202.4713	276.2097	332.5594	369.5358	422.7246	502.2545	521.843	612.2766	676.2701	738.5442	769.389	801.4773	819.1433	865.7676	873.9945	923.1574	934.0723	950.2569	967.2806	994.7479	1021.4717	1036.54	1057.5091	1095.1996	1113.8551	1142.2535	1178.9059	1192.5563	1210.2961	1253.5442	1281.2282	1294.5789	1304.9549	1353.3753	1371.9567	1390.6571	1405.2765	1474.3287	1489.2695	1497.4178	1509.1591	1522.5341	1636.2036	3010.8201	3028.7399	3041.3519	3053.1955	3058.5013	3065.5605	3104.0777	3122.5364	3128.705	3129.8688	3197.926	3224.3157
CCC12CC(CO1)C=C2	CC[C@@]12C[C@@H](CO1)C=C2	
InChI=1S/C8H12O/c1-2-8-4-3-7(5-8)6-9-8/h3-4,7H,2,5-6H2,1H3	InChI=1S/C8H12O/c1-2-8-4-3-7(5-8)6-9-8/h3-4,7H,2,5-6H2,1H3/t7-,8+/m0/s1
