12
gdb 21365	5.60904	2.32372	1.64304	6.0599	60.27	-0.2147	0.0049	0.2196	701.875	0.087729	-373.719115	-373.713605	-373.712661	-373.748474	21.496	
N	-0.0119176436	 1.35158896	 0.0098502396	-0.414599
C	 1.2971880781	 1.8184263563	-0.0003722752	-0.06804
C	 2.1490098764	 0.760511971	-0.0145875653	-0.139015
N	 1.3495213512	-0.3848043059	-0.0130035991	-0.025087
C	 1.2951732348	-1.7606759864	-0.0199826267	-0.025766
N	 0.0409030887	-2.1506066883	-0.0098996572	-0.217083
N	-0.7915388044	-1.0435416056	 0.0043907179	-0.361466
C	 0.0266059231	-0.0184282143	 0.0019916879	 0.518212
H	-0.8473414887	 1.9072263584	 0.0213894021	 0.28537
H	 1.5166484877	 2.8728299223	 0.0032792985	 0.152168
H	 3.223504722	 0.7293395849	-0.0253361715	 0.153222
H	 2.1608255547	-2.4010750524	-0.031985511	 0.142084
206.9423	297.2861	357.2324	477.6675	595.5201	648.8036	691.0444	720.8702	747.3166	764.678	780.7649	794.6152	935.3834	991.2168	1034.6994	1090.114	1113.2543	1220.2398	1229.29	1295.5226	1358.2562	1406.4215	1434.8618	1483.5764	1599.3705	1649.2322	3280.4827	3286.2453	3306.849	3710.854
N1C=CN2C=NN=C12	[nH]1ccn2cnnc12	
InChI=1S/C4H4N4/c1-2-8-3-6-7-4(8)5-1/h1-3H,(H,5,7)	InChI=1S/C4H4N4/c1-2-8-3-6-7-4(8)5-1/h1-3H,(H,5,7)
