19
gdb 94089	4.19855	0.95021	0.80954	2.6167	72.13	-0.255	-0.0293	0.2257	1375.1016	0.158614	-460.175214	-460.166371	-460.165427	-460.209148	32.812	
O	-0.2363173573	 1.4713860266	-0.0242774461	-0.428371
C	-0.1210054426	 0.059685641	 0.0627635508	 0.110309
C	-1.492778666	-0.5444685136	-0.2307682831	-0.223942
C	-1.3951925942	-2.0731130012	-0.3128367212	-0.213974
C	-0.2849998167	-2.4734882705	-1.2902250106	 0.040998
O	 0.9602929798	-1.8866107609	-0.9527270048	-0.264255
C	 0.9039571431	-0.4697619399	-0.9516490564	-0.103748
C	-0.0551042856	-3.9750522301	-1.3508381923	 0.13535
O	-0.9408970948	-4.788845618	-1.3418673085	-0.248415
H	 0.5904174718	 1.8628678618	 0.2756083083	 0.285518
H	 0.1983505213	-0.2495004557	 1.071088431	 0.073328
H	-2.2086639815	-0.2342511426	 0.5362284299	 0.109175
H	-1.8468395456	-0.1344756157	-1.1856656573	 0.108265
H	-1.1602959437	-2.4925406952	 0.6727310626	 0.109518
H	-2.3375118092	-2.5220214131	-0.6374274978	 0.123744
H	-0.5779331429	-2.1564163506	-2.310990052	 0.094144
H	 0.637464514	-0.0868313316	-1.9510007321	 0.097404
H	 1.9140459624	-0.1214369528	-0.7107502699	 0.099239
H	 1.0181598179	-4.2588595279	-1.4157111205	 0.095714
54.2091	107.2741	181.4425	229.0917	251.1584	284.0326	326.5715	367.1961	444.6094	459.7534	481.581	571.3361	635.6316	797.9376	824.6842	894.5811	927.3982	982.7813	1001.554	1036.3967	1090.8033	1098.9385	1110.3117	1134.1439	1141.1182	1194.0213	1239.4969	1258.3256	1291.0669	1316.5286	1342.0452	1347.9485	1349.9399	1375.0691	1400.7974	1406.432	1441.4329	1480.7119	1489.4513	1502.4633	1838.8675	2901.2135	2912.1897	2967.86	2979.5234	3030.6496	3042.7879	3071.3449	3087.8151	3104.9322	3815.9332
OC1CCC(OC1)C=O	O[C@H]1CC[C@@H](OC1)C=O	
InChI=1S/C6H10O3/c7-3-6-2-1-5(8)4-9-6/h3,5-6,8H,1-2,4H2	InChI=1S/C6H10O3/c7-3-6-2-1-5(8)4-9-6/h3,5-6,8H,1-2,4H2/t5-,6+/m0/s1
