17
gdb 18038	3.53006	2.29305	1.73287	2.0727	68.12	-0.2404	0.0271	0.2675	790.8449	0.145521	-363.86494	-363.858541	-363.857597	-363.895444	25.113	
C	-0.0247402011	 1.5693724649	-0.1395409516	-0.239095
C	 1.5102037389	 1.5365268437	 0.0918144726	-0.207118
C	 1.3704472906	 0.0875279126	 0.653501634	 0.008399
N	 1.3839252284	 0.0833721427	 2.1062976651	-0.263984
C	 0.2922435329	-0.0157461915	 2.7373629353	 0.12297
O	-0.9687872278	-0.1962816621	 2.2719022577	-0.224143
C	-1.0824766279	-0.6294622065	 0.9065918784	-0.103307
C	-0.0488867423	 0.0214280335	 0.0121840173	-0.020256
H	-0.559592768	 2.0691708719	 0.6725416396	 0.114212
H	-0.3798693856	 1.9735184614	-1.0898207174	 0.098242
H	 2.0724519156	 1.5549389668	-0.84564596	 0.100176
H	 1.937759119	 2.265165614	 0.7824009964	 0.110083
H	 2.1124260894	-0.6329392477	 0.2984606447	 0.077276
H	 0.27349541	 0.0561562997	 3.8239653188	 0.121446
H	-0.9614560182	-1.7212035024	 0.889125439	 0.111523
H	-2.1076271894	-0.3924569924	 0.6077466732	 0.117655
H	-0.0401980043	-0.4805435186	-0.9599254232	 0.075919
122.4345	172.1581	312.5917	326.5634	481.5148	539.1013	606.0028	683.7028	755.698	821.3865	845.6584	872.8009	900.2661	943.6128	949.005	966.1908	989.9951	1057.6736	1086.1264	1113.2553	1137.8775	1183.5011	1201.6294	1238.596	1249.1283	1263.8854	1277.5707	1307.6153	1344.9617	1354.5662	1403.4723	1420.0665	1475.6085	1495.5384	1501.1891	1725.6864	3014.9091	3055.0607	3062.4193	3064.8957	3071.7449	3085.8397	3113.3644	3130.9667	3150.4891
C1CC2N=COCC12	C1C[C@H]2N=COC[C@@H]12	
InChI=1S/C6H9NO/c1-2-6-5(1)3-8-4-7-6/h4-6H,1-3H2	InChI=1S/C6H9NO/c1-2-6-5(1)3-8-4-7-6/h4-6H,1-3H2/t5-,6-/m1/s1
