17
gdb 51535	5.91015	0.69903	0.66754	2.1471	70.07	-0.2518	-0.0409	0.2109	1613.0164	0.132661	-458.955911	-458.946607	-458.945663	-458.992223	31.411	
O	-0.1729662662	 0.6063019557	 1.2337488494	-0.235046
C	 0.2082987459	 0.9396841193	 0.1412941916	 0.154033
C	 1.4922115679	 1.7033393213	-0.1196646558	-0.294605
C	 1.2512370474	 2.9683252237	-0.9369703823	 0.139631
C	 2.4840322336	 3.677661184	-1.5409886075	-0.319664
C	 1.8079269588	 3.388858507	-2.8922999534	 0.057136
O	 0.7259931408	 2.6667284104	-2.2622305556	-0.315275
C	 1.2717647713	 4.5880582703	-3.6530317562	 0.132493
O	 1.801208438	 5.6681409336	-3.671531353	-0.230963
H	-0.375822546	 0.7012503709	-0.7735983698	 0.09907
H	 1.9593772327	 1.9485880787	 0.8392935399	 0.126822
H	 2.1686457992	 1.0479909314	-0.6857343399	 0.121846
H	 0.5672262913	 3.6402615264	-0.402890206	 0.100139
H	 2.6019119397	 4.7368725664	-1.3125135661	 0.139441
H	 3.4286458803	 3.1573318011	-1.3785294008	 0.119102
H	 2.3664291451	 2.7531555115	-3.5953889943	 0.109213
H	 0.3219901603	 4.3799085881	-4.1942560799	 0.09663
33.3382	60.7917	76.6861	89.7519	147.2789	232.6481	298.1798	395.0846	448.1391	504.7708	587.0465	734.1668	792.8126	831.5333	898.3001	916.994	939.1882	996.0325	1029.867	1042.74	1085.1609	1096.4142	1129.4937	1160.4336	1228.4861	1251.3472	1258.151	1279.6535	1329.6917	1344.1441	1394.0974	1401.7918	1424.032	1448.3907	1492.6911	1832.1897	1834.5203	2894.3708	2906.3251	2998.6205	3016.823	3028.6304	3090.9609	3098.7601	3151.0113
O=CCC1CC(O1)C=O	O=CC[C@H]1C[C@@H](O1)C=O	
InChI=1S/C6H8O3/c7-2-1-5-3-6(4-8)9-5/h2,4-6H,1,3H2	InChI=1S/C6H8O3/c7-2-1-5-3-6(4-8)9-5/h2,4-6H,1,3H2/t5-,6+/m0/s1
