15
gdb 45395	2.22607	1.74384	1.24796	1.7782	72.68	-0.2476	-0.038	0.2096	1018.5877	0.110549	-420.569379	-420.561412	-420.560468	-420.602129	29.814	
O	 0.0090839732	 0.0430313846	-0.4175486427	-0.273897
C	-0.0344994009	 1.1835111817	-0.0756945471	 0.346709
C	-1.1354222367	 2.1082579802	 0.4755569198	-0.358802
C	-0.0878651836	 3.2366185837	 0.5915074926	 0.059515
O	 0.5910833424	 3.2223072791	 1.855782063	-0.281468
C	 1.6923943117	 2.4546001607	 1.3330892911	-0.114931
C	 1.024985546	 2.3315394376	-0.0701761973	 0.000817
C	 1.7860825588	 2.5960403155	-1.2524052861	 0.177793
C	 2.4150931105	 2.8084372878	-2.2555073767	-0.396318
H	-1.8904082758	 2.2988443778	-0.2961161137	 0.144831
H	-1.6304958585	 1.8036024212	 1.4000408923	 0.145726
H	-0.3461948472	 4.2387079344	 0.2479238378	 0.100433
H	 2.6168665869	 3.0406740742	 1.303398936	 0.126952
H	 1.8618099327	 1.5197784464	 1.8780258152	 0.124875
H	 2.9720094605	 2.9947364552	-3.1404446244	 0.197765
80.2799	117.5139	160.2459	219.9919	343.1335	372.7006	476.4678	486.2539	533.805	606.2339	621.823	642.7782	655.4341	749.1992	840.3857	904.3927	924.783	997.886	1007.6128	1028.095	1052.9139	1100.7723	1116.5061	1162.5887	1174.2768	1226.0717	1265.9262	1313.6177	1355.8327	1416.0922	1522.2776	1902.5709	2233.647	3033.1027	3052.7046	3087.6281	3114.4734	3124.9732	3500.496
O=C1CC2OCC12C#C	O=C1C[C@H]2OC[C@@]12C#C	
InChI=1S/C7H6O2/c1-2-7-4-9-6(7)3-5(7)8/h1,6H,3-4H2	InChI=1S/C7H6O2/c1-2-7-4-9-6(7)3-5(7)8/h1,6H,3-4H2/t6-,7+/m1/s1
