15
gdb 129703	2.36586	1.922	1.06167	1.7653	75.66	-0.1904	-0.0267	0.1637	1050.2122	0.115497	-450.149082	-450.141392	-450.140447	-450.180852	30.247	
N	 0.0052959056	 1.4163154758	 0.141750012	-0.598078
C	-0.014765153	 0.0279491542	 0.0464549395	 0.167193
C	-1.1763789957	-0.6885113697	 0.037612036	 0.338655
O	-2.3912506818	-0.1115756199	 0.0555495702	-0.446464
C	-1.1636671314	-2.1327297146	 0.0026706836	 0.312142
N	-2.3065993024	-2.7381712226	-0.0083284648	-0.620142
N	 0.1031625842	-2.6840480879	-0.0258548579	-0.317023
N	 1.2799673623	-2.0210648838	-0.0222432672	-0.220732
C	 1.2062461737	-0.7243598831	 0.0162695791	-0.025482
H	 0.7760132879	 1.8630920523	-0.3344553664	 0.251177
H	-0.8798114055	 1.846250137	-0.0895007186	 0.265699
H	-3.0089529813	-0.874086717	 0.0329621534	 0.30669
H	-2.2387286054	-3.7518107578	-0.0445954692	 0.205023
H	 0.2014673504	-3.6873049836	-0.0534327987	 0.264608
H	 2.1592136724	-0.2035972593	 0.028464909	 0.116734
145.4846	194.1553	276.8667	293.4594	300.5065	325.6203	500.8883	522.3545	528.4769	573.9115	590.39	632.1222	651.3899	681.9853	707.2031	711.8314	756.0035	881.1897	893.9912	1040.1909	1078.5532	1144.3687	1176.1095	1312.6064	1338.2051	1378.4728	1432.5053	1444.0548	1488.9301	1602.5488	1647.1993	1676.2634	1725.8616	3174.3185	3508.8969	3521.9638	3555.1033	3626.8595	3656.4115
NC1=C(O)C(=N)NN=C1	N[C@@H]1C(=C([NH])NN=C1)O	
InChI=1S/C4H6N4O/c5-2-1-7-8-4(6)3(2)9/h1H,(H,7,9)(H4,5,6,8)	InChI=1S/C4H7N4O/c5-2-1-7-8-4(6)3(2)9/h1-2,6,8-9H,5H2/t2-/m0/s1
