16
gdb 27567	3.42726	1.2133	0.90108	2.7553	89.81	-0.241	-0.0403	0.2007	1253.4584	0.124609	-363.647625	-363.639422	-363.638477	-363.681148	30.42	
C	-0.0210470717	 1.5247267149	 0.0087612429	-0.498084
C	-0.0024681305	 0.0183721215	 0.0061958137	 0.316085
C	-0.0145242021	-0.7101994268	-1.1799211717	-0.247253
C	 0.0225899037	-2.1110178642	-1.1390129975	 0.170891
N	 0.0684115993	-2.8070010308	 0.0103188946	-0.326114
C	 0.0772186732	-2.1014390821	 1.1408362532	-0.004205
C	 0.0429265127	-0.7118765224	 1.1963413976	-0.18804
C	 0.0100376918	-2.8559665759	-2.3612271008	 0.229154
C	-0.0012320273	-3.4507729894	-3.4072899214	-0.373244
H	 0.9704492065	 1.9257138978	 0.2496980066	 0.143833
H	-0.3126183044	 1.92324136	-0.9660837988	 0.132145
H	-0.7158933457	 1.9106175663	 0.7609833263	 0.136794
H	-0.0540324662	-0.2075734237	-2.1399555794	 0.105876
H	 0.1114808153	-2.6816712386	 2.0602551642	 0.108875
H	 0.0495755242	-0.2063914334	 2.1567376903	 0.098398
H	-0.0105506587	-3.9914875533	-4.3212211197	 0.19489
37.5548	132.0125	143.86	210.7431	332.0396	351.7452	471.4768	489.4961	523.1022	557.7435	602.084	625.3882	650.7465	757.1803	778.7031	855.2806	923.3006	926.0949	991.1353	1003.6928	1019.1939	1063.7701	1129.1242	1179.1735	1287.0349	1290.8267	1321.0567	1411.7014	1414.127	1484.7627	1489.9852	1501.2288	1595.0164	1632.3771	2231.0346	3035.6793	3093.9911	3123.3527	3151.6586	3184.1882	3191.6485	3502.7871
CC1=CC(=NC=C1)C#C	Cc1cc(ncc1)C#C	
InChI=1S/C8H7N/c1-3-8-6-7(2)4-5-9-8/h1,4-6H,2H3	InChI=1S/C8H7N/c1-3-8-6-7(2)4-5-9-8/h1,4-6H,2H3
