12
gdb 130301	3.60447	1.69545	1.15463	4.1645	62.23	-0.2425	-0.0362	0.2063	944.6004	0.080458	-468.786483	-468.780148	-468.779204	-468.817164	24.428	
N	-0.0499776172	 1.4012958072	 0.1697798727	-0.597222
C	 0.0690203526	 0.0344280051	 0.0392437796	 0.274788
N	-1.0038078147	-0.7485672299	-0.0097702355	-0.219782
O	-0.5596787175	-2.1079536981	-0.0432830677	-0.234265
C	 0.7687865222	-2.053574478	-0.0367415288	 0.412646
C	 1.2262317847	-0.7799621587	 0.0131263696	 0.164581
O	 2.5923522892	-0.8281521723	 0.0296212238	-0.203448
C	 2.8346611465	-2.1769068655	-0.0149336741	 0.051845
N	 1.7951061079	-2.9611970259	-0.053132267	-0.34791
H	 0.6496026213	 1.9341763433	-0.3267051051	 0.264205
H	-0.9873526074	 1.7346974078	-0.0130206826	 0.26891
H	 3.8740740823	-2.465561495	-0.0143654747	 0.165651
174.5043	260.8589	272.2901	326.014	433.9561	552.5997	610.2165	628.7822	640.2973	679.1868	700.2109	778.6309	807.2323	836.2932	908.3406	938.4298	1080.7845	1128.0807	1147.2985	1258.4302	1336.7117	1417.2885	1475.982	1534.155	1594.5848	1635.1744	1663.3706	3280.9768	3556.9102	3659.3892
NC1=NOC2=C1OC=N2	Nc1noc2c1ocn2	
InChI=1S/C4H3N3O2/c5-3-2-4(9-7-3)6-1-8-2/h1H,(H2,5,7)	InChI=1S/C4H3N3O2/c5-3-2-4(9-7-3)6-1-8-2/h1H,(H2,5,7)
