18
gdb 47903	2.79184	1.48685	1.101	4.6894	75.68	-0.23	-0.0354	0.1946	1104.7845	0.149938	-439.105266	-439.097409	-439.096464	-439.137643	30.407	
O	 0.1373287088	-0.0093711952	 0.6536616649	-0.323355
C	 0.1627337431	 1.0706719668	 0.1255967514	 0.369848
O	-0.936590415	 1.4677065187	-0.6017118202	-0.245055
C	-1.3178276553	 2.8456294509	-0.7776640518	-0.068171
C	-1.135636843	 3.332423679	-2.2214208339	-0.210071
C	 0.3147729458	 3.6610310161	-2.6171847079	-0.169989
N	 1.2503379512	 2.6255930808	-2.1516597247	-0.278172
C	 1.711267253	 2.7624198405	-0.8364287627	-0.020716
C	 1.3107680174	 2.0043247335	 0.1954517865	-0.232656
H	-2.3812688907	 2.8747946947	-0.5213326271	 0.122142
H	-0.779971783	 3.4836230753	-0.0711036811	 0.118633
H	-1.533636765	 2.5547900175	-2.8850241223	 0.120646
H	-1.7644035668	 4.2186698447	-2.3711418	 0.108293
H	 0.390714266	 3.7643690174	-3.7052389201	 0.113412
H	 0.6283207413	 4.615163295	-2.1798495122	 0.114327
H	 0.8345489071	 1.7111055271	-2.2893089209	 0.243968
H	 2.4800460911	 3.5227888394	-0.7031382247	 0.116008
H	 1.8490380941	 2.0145821376	 1.1359456668	 0.120908
86.0439	177.706	206.0669	266.2647	311.1491	345.3368	415.4168	457.8035	505.0827	549.6177	692.4227	745.8511	760.0975	806.4679	841.2756	863.0113	892.8798	922.3048	954.2887	1000.068	1042.7246	1079.077	1111.0355	1140.2329	1213.4175	1226.0569	1267.6903	1297.6776	1331.4634	1372.4452	1390.7818	1406.2332	1422.6241	1469.7713	1494.5788	1497.7704	1501.1872	1679.2896	1820.067	3028.2972	3038.7446	3051.3828	3067.8636	3086.209	3104.0304	3133.3092	3204.3682	3537.8795
O=C1OCCCNC=C1	O=C1OCCCNC=C1	
InChI=1S/C6H9NO2/c8-6-2-4-7-3-1-5-9-6/h2,4,7H,1,3,5H2/b4-2-	InChI=1S/C6H9NO2/c8-6-2-4-7-3-1-5-9-6/h2,4,7H,1,3,5H2/b4-2-
