18
gdb 79569	2.31194	1.77616	1.32758	2.8502	71.54	-0.2131	0.0645	0.2776	1019.0821	0.146177	-438.992497	-438.984147	-438.983202	-439.024736	33.217	
C	-0.040426801	 1.4881164787	 0.0278978968	-0.510767
C	 0.0935045966	 0.0006737848	 0.0068638875	 0.275366
N	-0.8536604936	-0.9172966845	 0.7040594767	-0.415711
C	 0.6217985972	-0.9704214183	 0.9826855189	-0.100256
C	 1.3263365821	-1.7915774003	-0.120903346	-0.197313
C	 0.4008852552	-2.252059285	-1.2392004426	 0.054858
O	-0.8442204131	-2.845240936	-1.135297332	-0.426415
C	 0.7705973595	-0.796287988	-1.1634066909	 0.256241
O	 1.4833080947	-0.115908316	-2.1374391031	-0.449787
H	 0.8814145205	 1.9550163855	-0.3307353932	 0.146146
H	-0.8587216017	 1.8246586438	-0.6198006968	 0.127687
H	-0.2401382445	 1.8500823838	 1.0422566437	 0.117084
H	-1.2907583331	-0.39011806	 1.4602529895	 0.228909
H	 0.9871419212	-0.8215342629	 1.9908602927	 0.099689
H	 2.3334740711	-2.1734829168	-0.0097833186	 0.096967
H	 0.9831082305	-2.7379152396	-2.0221414684	 0.106398
H	-1.2876722711	-2.3527125123	-0.4210111585	 0.299118
H	 0.9466255296	-0.0867635268	-2.9376013258	 0.291786
142.9513	195.347	218.4461	228.1538	277.7028	324.1289	345.8532	402.5349	466.4847	530.7557	593.6427	604.1933	679.5176	686.1547	755.1786	795.1628	845.4758	886.4632	915.1328	937.681	965.8181	999.1506	1017.9604	1040.6885	1106.7892	1123.3883	1144.0941	1196.7965	1214.8261	1274.1586	1290.9461	1313.2496	1327.5576	1404.8489	1413.3073	1453.2816	1477.7982	1497.8373	1502.5082	3026.0817	3087.1675	3112.7635	3119.6118	3187.8576	3197.9831	3460.372	3588.4599	3788.1708
CC12NC1C1C(O)C21O	C[C@]12N[C@H]1[C@H]1[C@@H](O)[C@@]21O	
InChI=1S/C6H9NO2/c1-5-3(7-5)2-4(8)6(2,5)9/h2-4,7-9H,1H3	InChI=1S/C6H9NO2/c1-5-3(7-5)2-4(8)6(2,5)9/h2-4,7-9H,1H3/t2-,3-,4+,5-,6+/m0/s1
