23
gdb 6897	2.26729	1.73748	1.3344	1.2011	82.84	-0.2099	0.0791	0.289	1112.6069	0.209285	-330.312389	-330.302164	-330.30122	-330.346812	37.7	
C	 0.8979531103	 2.2485036044	-0.7198883715	-0.371879
C	 1.5188972268	 0.9827056796	-0.129728497	-0.113392
N	 1.4224216054	-0.1154332127	-1.0837864882	-0.132562
C	 1.6676492058	-1.5006724885	-0.6652270373	-0.034787
C	 2.0526945804	-1.891670377	 0.7468527053	-0.41936
C	 0.2928426078	-1.0605324097	-1.0760996732	 0.311611
C	-0.830605173	-0.9568845377	-0.0593058902	-0.46003
C	-0.1967230003	-1.4262712207	-2.466363147	-0.43477
H	 1.3639156128	 2.4910841089	-1.6789615488	 0.124739
H	-0.1751403336	 2.1154928222	-0.8923383469	 0.114937
H	 1.0274086522	 3.0973153331	-0.0406916684	 0.106601
H	 2.5860905079	 1.1519789659	 0.0604607154	 0.098781
H	 1.0589100989	 0.7765506744	 0.8485653069	 0.077911
H	 2.234287552	-2.0598109296	-1.4124976272	 0.076124
H	 1.4706853752	-1.3819987345	 1.516140523	 0.117609
H	 1.9154174721	-2.9696590064	 0.8855601156	 0.119766
H	 3.110446704	-1.6717734591	 0.9308487232	 0.121943
H	-0.4935142423	-0.7080308763	 0.9474784049	 0.118774
H	-1.556498081	-0.1947022189	-0.3660137104	 0.119323
H	-1.3677175084	-1.9099940216	 0.000684772	 0.118951
H	-0.6889918989	-2.4059759078	-2.4663414681	 0.106681
H	-0.920970484	-0.6882588095	-2.8312398016	 0.110773
H	 0.6376531199	-1.4537727986	-3.1710788202	 0.122256
71.7479	134.4684	152.0022	171.1831	199.5333	213.441	235.2357	264.9082	310.3974	366.2338	376.7083	471.2864	481.7987	547.9552	691.3902	715.7088	792.4068	811.8563	948.9503	952.8813	973.3556	989.8493	1025.6735	1064.1666	1095.8449	1136.7393	1141.9436	1162.8427	1168.3505	1204.8265	1274.0575	1309.424	1362.189	1383.7589	1403.3492	1406.2521	1412.5141	1424.6	1439.0367	1476.4272	1483.6947	1487.0419	1489.7873	1495.726	1499.0415	1506.9406	1514.978	1521.0104	2982.6959	3023.1394	3033.1963	3036.2246	3037.5232	3039.7725	3072.717	3081.5542	3086.5298	3088.6948	3104.9684	3118.5554	3121.0796	3132.1444	3143.348
CCN1C(C)C1(C)C	CCN1[C@@H](C)C1(C)C	
InChI=1S/C7H15N/c1-5-8-6(2)7(8,3)4/h6H,5H2,1-4H3	InChI=1S/C7H15N/c1-5-8-6(2)7(8,3)4/h6H,5H2,1-4H3/t6-,8?/m0/s1
