27
gdb 95797	2.0932	1.4144	1.01735	0.1119	95.17	-0.2825	0.076	0.3585	1354.6755	0.253546	-353.593575	-353.583588	-353.582643	-353.627394	39.832	
C	-0.0790459131	 1.5566045059	-0.0592222374	-0.417799
C	 0.067072773	 0.0311982207	-0.0106902264	 0.041771
C	 0.6719278669	-0.5229372202	-1.3121948676	-0.182878
C	 0.7298499397	-2.0567964943	-1.308354673	-0.216566
C	 1.445211295	-2.5932816154	-0.0607428163	-0.182878
C	 0.8370579775	-2.030288585	 1.2354118898	 0.041769
C	 1.4898069944	-2.6436627542	 2.4797027616	-0.417798
C	 0.835747319	-0.4776349514	 1.2386985011	 0.031517
C	 2.2376391723	 0.1382886361	 1.3914056104	-0.407048
H	 0.877123213	 2.0526368899	-0.2564054673	 0.114585
H	-0.7687512479	 1.853797758	-0.8565544148	 0.107581
H	-0.4713988321	 1.9517299759	 0.8846660639	 0.10612
H	-0.9477782687	-0.3873988937	 0.0714693328	 0.062856
H	 0.0825686267	-0.1711086684	-2.1678131208	 0.085048
H	 1.6819937592	-0.1145077847	-1.4524007148	 0.091139
H	-0.295008962	-2.4533628738	-1.3311476373	 0.089578
H	 1.221938526	-2.4223127676	-2.217110276	 0.086372
H	 1.3964862374	-3.6889378571	-0.0414023045	 0.085048
H	 2.5128180022	-2.3389127727	-0.1078363101	 0.091139
H	-0.2220726012	-2.3303354513	 1.2459195924	 0.062856
H	 2.5740829722	-2.4905916233	 2.4898568341	 0.114585
H	 1.0831013877	-2.210180885	 3.4003950611	 0.10612
H	 1.3147791641	-3.7243381211	 2.5152330996	 0.107581
H	 0.2567188433	-0.1618038286	 2.1189829443	 0.05772
H	 2.9028232923	-0.1155682921	 0.560529772	 0.114884
H	 2.1835647861	 1.2290856209	 1.445086294	 0.113349
H	 2.7189002571	-0.2042161477	 2.311580479	 0.113349
121.2072	144.667	200.245	229.1311	238.8196	242.7909	270.9648	317.9766	318.3512	351.8071	415.3484	418.6696	520.3498	538.5288	585.3135	737.0519	799.7224	836.8848	859.1907	895.3829	929.0495	952.9891	986.4526	992.0272	1008.4692	1028.6808	1038.9574	1067.815	1077.3454	1112.8499	1133.4717	1181.6209	1186.3715	1212.7116	1249.3624	1274.5584	1307.9133	1335.5592	1340.6777	1347.0056	1354.9738	1376.9362	1382.6107	1394.167	1397.9811	1411.3498	1414.2565	1417.8736	1482.435	1484.6073	1494.2363	1495.3104	1496.1406	1503.5125	1507.9353	1509.7786	1516.3663	2976.2	2977.509	2994.8534	3007.4111	3014.7141	3014.8229	3025.7256	3026.2757	3047.6712	3050.9006	3052.0396	3061.592	3090.5422	3090.914	3093.7476	3096.0871	3112.8931	3113.0537
CC1CCCC(C)C1C	C[C@H]1CCC[C@@H](C)[C@H]1C	
InChI=1S/C9H18/c1-7-5-4-6-8(2)9(7)3/h7-9H,4-6H2,1-3H3	InChI=1S/C9H18/c1-7-5-4-6-8(2)9(7)3/h7-9H,4-6H2,1-3H3/t7-,8+,9-
