20
gdb 80175	2.1931	1.69849	1.40537	1.8546	77.97	-0.2201	-0.0205	0.1997	1049.3949	0.170625	-403.155009	-403.14634	-403.145396	-403.187936	33.394	
C	 0.2240103121	 2.4448225543	-0.6292336005	-0.438663
C	 0.0749399967	 0.937565084	-0.6778645358	 0.009519
C	 0.7638657416	 0.0700183976	-1.673151497	-0.053093
C	 1.9577980001	 0.640996213	-2.4122371757	-0.34505
C	 2.9300888144	 1.0539670922	-1.2974947782	 0.36962
O	 3.8944279942	 1.7647863677	-1.4129549701	-0.320603
C	 2.4492404934	 0.3799620697	-0.0008327998	-0.051094
C	 2.6988543517	 1.1844734812	 1.2698964283	-0.400467
N	 1.0637952435	-0.0613844135	-0.2167028324	-0.131921
H	 1.2167715277	 2.8058141342	-0.9049098941	 0.142441
H	-0.4929881653	 2.8985656915	-1.3228646044	 0.125975
H	-0.0038159887	 2.8255533009	 0.3713177061	 0.13201
H	-0.9283769418	 0.6181950893	-0.3991545686	 0.095601
H	 0.2328204251	-0.763571929	-2.124338268	 0.092141
H	 2.443877385	-0.1193987967	-3.035079315	 0.135958
H	 1.7376187954	 1.4934267008	-3.0605594575	 0.136206
H	 3.0425785336	-0.5468048746	 0.0676727556	 0.112321
H	 2.1163060937	 2.1077717369	 1.2882821112	 0.12443
H	 2.4367581802	 0.5946231962	 2.1516294299	 0.126252
H	 3.7572519975	 1.4525951641	 1.3226312459	 0.138416
92.8785	169.888	190.3363	211.8665	238.2263	247.7422	316.7419	427.0756	475.9688	528.3479	553.4297	658.1587	670.303	731.3748	751.6331	766.798	864.8611	910.3134	945.7917	990.6284	1018.7093	1037.8508	1082.0772	1111.652	1137.1097	1143.2014	1172.8186	1176.8757	1188.2157	1271.4788	1298.2544	1311.413	1341.1658	1371.8787	1404.3315	1417.9069	1428.9556	1454.2186	1487.5769	1492.3021	1503.0715	1505.072	1842.493	2971.3843	3037.5743	3047.1876	3057.4042	3094.5148	3097.6111	3106.6727	3130.7334	3131.6669	3139.2186	3140.8508
CC1C2CC(=O)C(C)N12	C[C@H]1[C@H]2CC(=O)[C@@H](C)N12	
InChI=1S/C7H11NO/c1-4-6-3-7(9)5(2)8(4)6/h4-6H,3H2,1-2H3	InChI=1S/C7H11NO/c1-4-6-3-7(9)5(2)8(4)6/h4-6H,3H2,1-2H3/t4-,5+,6+,8?/m0/s1
