18
gdb 46737	2.64277	1.81779	1.38267	3.7629	73.82	-0.2363	-0.0342	0.2021	968.776	0.149373	-401.920419	-401.913177	-401.912233	-401.952514	28.482	
O	 0.0254723276	 0.1355684934	-0.6077886771	-0.305446
C	 0.0122744692	 1.2301811173	-0.1082852117	 0.391491
C	-1.229466579	 1.9239750448	 0.4795207798	-0.326563
C	-0.8247555436	 3.3672313397	 0.8662960761	-0.251854
C	 0.7144159184	 3.4538707979	 0.7095134089	-0.041048
C	 1.6330463657	 3.0949590868	 1.8848005415	-0.03244
C	 1.4141584619	 1.7374006509	 2.416493952	-0.24983
N	 2.1973698198	 1.8677897872	 1.1703675213	-0.137103
C	 1.2188762546	 2.1628202829	 0.0377956044	-0.085516
H	-2.0399340749	 1.8827528481	-0.2543473384	 0.133783
H	-1.5722031576	 1.3318510899	 1.3361779349	 0.139114
H	-1.3053636553	 4.0849619321	 0.1954298232	 0.111342
H	-1.1382290858	 3.6253312342	 1.881656998	 0.111145
H	 1.0322753193	 4.3744917918	 0.2196009822	 0.086488
H	 2.2946944856	 3.7989698794	 2.3797785736	 0.099693
H	 2.0412222825	 1.436474694	 3.2504422095	 0.129837
H	 0.4366134627	 1.2651998931	 2.4165349041	 0.119921
H	 1.7706106888	 2.2432012764	-0.8995646824	 0.106987
68.5245	108.1082	220.5904	325.4169	443.5405	477.2349	560.7321	583.9087	651.4187	707.5467	729.7102	762.2547	798.2753	816.5118	898.0645	924.9377	954.5295	988.2507	996.7227	1036.3169	1060.7983	1093.1178	1106.4835	1136.4965	1141.9795	1158.4768	1201.5199	1217.2964	1244.3066	1263.4888	1269.2511	1295.4038	1320.7558	1350.3302	1376.725	1448.8566	1494.3236	1509.7817	1839.4695	3045.224	3056.5979	3083.4797	3097.5781	3103.8599	3112.2427	3124.0155	3159.0968	3203.7576
O=C1CCC2C3CN3C12	O=C1CC[C@H]2[C@H]3CN3[C@@H]12	
InChI=1S/C7H9NO/c9-6-2-1-4-5-3-8(5)7(4)6/h4-5,7H,1-3H2	InChI=1S/C7H9NO/c9-6-2-1-4-5-3-8(5)7(4)6/h4-5,7H,1-3H2/t4-,5+,7+,8?/m0/s1
