24
gdb 122220	4.3696	0.73391	0.67247	2.4369	86.95	-0.2341	0.0811	0.3152	1797.3428	0.216057	-405.523706	-405.512867	-405.511923	-405.560307	39.005	
C	 1.5535365376	-0.0251773426	-1.8541966901	-0.387856
C	 0.7313560936	-0.1561698751	-0.5837429645	-0.025802
O	 1.4977867599	-0.8507568018	 0.3809161508	-0.252917
C	 0.838133216	-1.0225337083	 1.6155932317	-0.1327
C	 1.7499673604	-1.744791536	 2.5952370465	 0.302909
C	 1.1520844316	-1.8250633768	 3.9933629071	-0.232843
C	 1.9909199883	-2.5857500908	 5.0226809364	-0.397548
C	 2.6715903354	-2.7743298138	 2.0538255555	-0.271124
N	 3.1904647534	-1.4658334657	 2.5112775956	-0.351423
H	 1.8210320459	-1.0121194973	-2.242258225	 0.128106
H	 0.9844814482	 0.5071337438	-2.622024519	 0.118009
H	 2.4763249803	 0.5289026338	-1.6600048419	 0.127547
H	 0.4506518117	 0.8378236267	-0.1973703601	 0.089932
H	-0.2064868277	-0.7008376557	-0.78275571	 0.08983
H	 0.5543153812	-0.0399278874	 2.0328811769	 0.088464
H	-0.0950035795	-1.5958247704	 1.4793820858	 0.092255
H	 0.9957957306	-0.7968313649	 4.3483165715	 0.097978
H	 0.1528296016	-2.2762271116	 3.9211907724	 0.092515
H	 1.5644108708	-2.4690191462	 6.0233080124	 0.107154
H	 2.0266198596	-3.6576230556	 4.8046390548	 0.113016
H	 3.0154000472	-2.2052529168	 5.035908276	 0.144258
H	 2.9703938037	-3.6218048596	 2.6628147887	 0.109175
H	 2.6401652423	-2.9598764725	 0.9850716059	 0.116665
H	 3.3536659476	-0.8872668353	 1.6896802027	 0.234399
55.047	70.6162	90.2761	111.0513	155.2058	222.8575	249.4829	253.9646	309.033	327.7874	348.883	405.8193	483.246	556.3558	708.8535	779.5553	822.426	856.033	893.3141	909.1657	959.0008	986.5043	995.0779	1041.6176	1047.653	1081.3229	1104.4961	1134.7658	1148.5294	1154.4709	1166.9183	1191.7673	1258.2192	1283.8638	1288.8801	1297.916	1318.874	1367.1945	1394.3962	1400.9756	1411.5767	1416.2126	1449.0421	1483.1637	1484.6114	1495.0415	1499.6474	1506.4809	1512.1263	1517.5617	1536.465	2941.7607	2962.6957	2971.1414	2986.9795	3005.9843	3035.9599	3043.1397	3045.752	3105.0053	3120.7422	3121.9157	3121.9527	3127.7016	3209.7262	3494.1121
CCOCC1(CC)CN1	CCOC[C@@]1(CC)CN1	
InChI=1S/C7H15NO/c1-3-7(5-8-7)6-9-4-2/h8H,3-6H2,1-2H3	InChI=1S/C7H15NO/c1-3-7(5-8-7)6-9-4-2/h8H,3-6H2,1-2H3/t7-/m1/s1
