18
gdb 123790	5.00552	0.94341	0.8476	2.659	78.59	-0.1838	0.0315	0.2153	1357.8376	0.149819	-398.116637	-398.108358	-398.107413	-398.150452	31.136	
C	-0.4023124799	 1.017924474	-0.2127594926	-0.25804
C	 1.0366556869	 1.1171765886	 0.2377088268	-0.295411
C	 0.4325347438	-0.2319348217	-0.0150932856	 0.052749
N	 0.2161604392	-1.11591941	 1.0900108625	-0.413122
C	-0.9657305393	-1.8525275151	 1.1638291706	 0.257791
C	-1.4542813557	-2.5734754899	 2.2406163108	-0.156219
N	-2.6059350416	-3.1613578803	 1.8076456043	-0.174288
N	-2.9007015764	-2.8807980618	 0.5344232422	-0.229545
C	-1.9101941478	-2.0831845508	 0.1321420196	-0.066131
H	-1.1733742339	 1.2169166244	 0.5227239171	 0.119991
H	-0.6506368336	 1.3209268382	-1.2241036548	 0.113564
H	 1.7816127313	 1.4854466707	-0.4584527462	 0.118513
H	 1.2202037881	 1.4010469679	 1.2696062538	 0.110079
H	 0.751033523	-0.7409896295	-0.9229308663	 0.096947
H	 0.5619240442	-0.7775254029	 1.9738723277	 0.230545
H	-1.0816879437	-2.7106081979	 3.242820208	 0.117747
H	-3.2239271204	-3.7537944435	 2.3339812396	 0.270876
H	-1.9010809443	-1.6995636404	-0.8760386175	 0.103953
52.3142	62.434	123.0693	286.2436	319.0408	354.3197	421.3334	458.24	487.6648	646.9189	687.7268	725.5545	735.3075	766.4206	826.3225	849.0882	854.4187	946.6471	967.9227	992.8199	1024.5052	1050.8619	1072.6074	1076.6861	1134.2898	1168.0254	1192.4552	1198.8301	1260.3769	1269.114	1324.6043	1372.1493	1395.7045	1407.3976	1462.9404	1488.9465	1501.9392	1519.0995	1637.4707	3114.4881	3128.1649	3138.0512	3209.9693	3229.3432	3258.9514	3261.851	3616.7108	3683.5589
C1CC1NC1=CNN=C1	C1CC1Nc1c[nH]nc1	
InChI=1S/C6H9N3/c1-2-5(1)9-6-3-7-8-4-6/h3-5,9H,1-2H2,(H,7,8)	InChI=1S/C6H9N3/c1-2-5(1)9-6-3-7-8-4-6/h3-5,9H,1-2H2,(H,7,8)
