21
gdb 92480	2.45585	1.65368	1.63767	1.0307	76.74	-0.2369	0.0764	0.3133	1000.0069	0.185398	-424.241749	-424.234	-424.233056	-424.273789	31.159	
C	-0.1930588047	 1.5261704899	-0.0294579573	-0.410802
C	 0.061114546	 0.0255647881	 0.016273783	 0.144664
O	 0.7931123192	-0.3561037485	-1.163828538	-0.302202
C	 1.8564862269	-1.2610130359	-0.8587932243	 0.086008
C	 2.9407717751	-0.5127615701	-0.0714567294	-0.212149
C	 2.285801136	 0.001206247	 1.2412373296	-0.21864
C	 0.8289359948	-0.4800343892	 1.247651031	 0.07522
O	 0.8155242676	-1.9113098388	 1.2257586012	-0.285047
C	 1.3090692435	-2.4164382166	-0.0203272605	-0.077992
H	 0.7410165265	 2.0943880362	-0.0004283273	 0.119669
H	-0.7109213207	 1.781571436	-0.958188073	 0.128896
H	-0.821701312	 1.8391394839	 0.8108122066	 0.112825
H	-0.9065476814	-0.4995552362	 0.007094191	 0.077277
H	 2.229461616	-1.6281792234	-1.8187064899	 0.076528
H	 3.7851895	-1.1787608477	 0.1343859351	 0.0987
H	 3.3147288247	 0.3125867815	-0.6829557914	 0.104632
H	 2.7866149302	-0.4057014809	 2.1235393078	 0.10632
H	 2.3348765286	 1.091264226	 1.3170384723	 0.102593
H	 0.3082461005	-0.1914704967	 2.1644729892	 0.07552
H	 0.4953196645	-2.9189971212	-0.5606104853	 0.100748
H	 2.0942729487	-3.1563980134	 0.1845999098	 0.097233
78.3176	210.3655	245.6568	277.6942	301.4791	382.7373	410.4379	465.9036	525.8958	569.2037	687.2734	792.203	816.9097	822.3256	859.129	886.2913	915.8765	944.0226	969.409	995.1353	1035.7736	1070.5546	1079.4145	1094.5626	1118.8904	1137.8002	1155.4751	1208.1396	1238.4251	1262.9338	1270.1404	1326.8012	1334.1568	1340.8445	1360.6257	1372.2381	1381.4532	1392.5724	1405.4628	1412.4088	1474.9218	1485.4516	1491.6882	1504.2898	1517.6738	2979.0632	3002.3172	3038.599	3039.9317	3046.339	3058.9148	3077.7952	3081.4141	3087.5082	3107.0309	3112.7833	3119.8678
CC1OC2CCC1OC2	C[C@H]1O[C@H]2CC[C@@H]1OC2	
InChI=1S/C7H12O2/c1-5-7-3-2-6(9-5)4-8-7/h5-7H,2-4H2,1H3	InChI=1S/C7H12O2/c1-5-7-3-2-6(9-5)4-8-7/h5-7H,2-4H2,1H3/t5-,6+,7+/m1/s1
