20
gdb 39351	2.8401	1.76415	1.32165	2.1688	77.33	-0.2361	0.0775	0.3137	1007.9711	0.174323	-403.134816	-403.127561	-403.126617	-403.166434	29.231	
C	-0.0922345957	 1.4154506149	 0.0439069836	-0.331397
N	 1.2568489882	 0.8290682175	-0.0257066463	-0.123675
C	 1.9475390345	 0.6897096964	 1.2696306611	-0.158646
C	 1.0267130047	-0.1066608636	 2.2345713452	-0.272822
C	 0.0565924413	-0.8531448603	 1.3030901741	-0.068306
C	 0.5006094114	-2.2188283384	 0.7561512922	-0.086525
O	-0.1092648004	-2.3323704117	-0.5256160674	-0.264269
C	-0.1932858112	-1.0334133865	-1.1207740827	-0.156897
C	 0.0746082833	-0.0519904677	 0.0043124924	 0.313611
H	-0.428396666	 1.8670544891	 0.9764758319	 0.106535
H	-0.388734703	 1.9614069616	-0.848039581	 0.118648
H	 2.8756171997	 0.1409327034	 1.0784298828	 0.111729
H	 2.2262576432	 1.6719389355	 1.664328606	 0.106948
H	 1.5973888136	-0.780304184	 2.8807948094	 0.106796
H	 0.4708317705	 0.5653660228	 2.8946326215	 0.107484
H	-0.9478976164	-0.9370582781	 1.7291477618	 0.081478
H	 1.6002441455	-2.2626596737	 0.6766649495	 0.088216
H	 0.1670185733	-3.0683761288	 1.358231801	 0.106863
H	 0.5510289023	-0.9139365162	-1.9192746298	 0.109883
H	-1.1944986188	-0.9261806423	-1.5542293252	 0.104347
103.9447	183.6221	208.0908	312.7052	363.2257	410.9928	514.7518	573.1615	666.1807	681.6396	767.0588	785.3198	813.0252	864.5287	917.4932	934.2434	940.6033	969.7363	1008.8822	1027.1325	1049.4574	1073.2489	1101.3902	1117.0626	1130.0068	1171.7961	1185.4768	1218.4209	1226.28	1240.8213	1256.3512	1284.9941	1321.1113	1329.9751	1340.607	1353.6957	1393.8503	1419.235	1490.6586	1498.8001	1511.2697	1515.8862	1522.4718	2960.0579	3013.315	3043.8428	3051.4871	3055.9426	3063.3526	3079.2438	3088.8454	3089.4048	3100.1335	3174.319
C1N2CCC3COCC123	C1N2CC[C@@H]3COC[C@]123	
InChI=1S/C7H11NO/c1-2-8-4-7(8)5-9-3-6(1)7/h6H,1-5H2	InChI=1S/C7H11NO/c1-2-8-4-7(8)5-9-3-6(1)7/h6H,1-5H2/t6-,7+,8?/m1/s1
