15
gdb 49301	2.6568	1.43228	0.95316	3.2392	70.25	-0.243	-0.0893	0.1537	1153.9912	0.111986	-457.791325	-457.783403	-457.782458	-457.82426	28.557	
O	-0.9400414231	 1.2544493343	-0.1686946404	-0.265688
C	 0.1850265124	 0.8704193258	 0.0548408415	 0.092126
C	 1.3771874243	 1.7640897148	 0.0174562095	 0.074396
C	 1.2534773901	 3.0666590951	-0.2939991902	-0.120979
C	 2.4188807611	 3.9993217848	-0.3015365086	-0.133771
O	 3.5322514746	 3.5044766546	 0.4066809107	-0.240467
C	 3.8812167879	 2.1779061462	 0.0605342066	-0.190684
C	 2.7267459866	 1.1922708629	 0.2400082183	 0.301388
O	 2.9208173671	 0.017917974	 0.4744659647	-0.310394
H	 0.4069609469	-0.1832845405	 0.3033215925	 0.115024
H	 0.2709402969	 3.4562793712	-0.5540197882	 0.147258
H	 2.6793171641	 4.2360325589	-1.3525845537	 0.12231
H	 2.1462329646	 4.9496585143	 0.1710819515	 0.143962
H	 4.2238363728	 2.111140148	-0.9882433914	 0.117832
H	 4.7103225136	 1.8802550054	 0.7051411172	 0.147687
77.5758	136.4366	199.2151	204.2999	278.1608	331.1696	340.956	482.1969	506.985	563.3427	647.114	765.0324	792.0221	842.9471	916.393	996.6588	1017.8783	1038.1055	1065.4198	1104.6494	1176.8027	1220.7799	1247.286	1294.1186	1351.5907	1356.9247	1400.6228	1427.1324	1459.8944	1470.3903	1664.6184	1788.1622	1798.7404	2916.4319	2949.0077	2978.1978	3065.2259	3120.688	3163.1041
O=CC1=CCOCC1=O	O=CC1=CCOCC1=O	
InChI=1S/C6H6O3/c7-3-5-1-2-9-4-6(5)8/h1,3H,2,4H2	InChI=1S/C6H6O3/c7-3-5-1-2-9-4-6(5)8/h1,3H,2,4H2
