12
gdb 12589	3.32709	2.21346	1.37305	3.2716	57.94	-0.2576	-0.1022	0.1553	813.0591	0.083252	-418.511252	-418.504385	-418.503441	-418.542578	24.838	
O	 0.1747764045	 1.3673362201	-0.3230884882	-0.419114
C	 0.0026197381	 0.0133802574	-0.0372619788	-0.059611
C	 0.5676183211	-0.409538488	 1.321914812	 0.335461
O	 1.5606753282	 0.0621238339	 1.8226447332	-0.320891
C	-0.3695267787	-1.407239806	 1.9018467102	-0.15986
C	-1.5161448736	-1.4170947297	 1.2014470837	-0.159575
C	-1.4642198429	-0.4399393217	 0.0678280774	 0.356566
O	-2.3890302498	-0.0895298154	-0.6161631386	-0.289536
H	 0.9798708915	 1.6398196664	 0.1392550578	 0.300875
H	 0.4727352699	-0.6369154853	-0.8004449434	 0.12176
H	-0.1341311341	-1.9843373835	 2.7878949484	 0.14709
H	-2.4006079842	-2.0100590582	 1.4021607664	 0.146836
74.6248	209.2429	263.5545	273.005	343.8992	388.7807	537.616	563.6311	680.4282	687.9735	697.0062	787.1273	884.1592	924.5375	1018.0623	1056.19	1117.2816	1138.5543	1185.5661	1240.4654	1339.3438	1342.0202	1398.5711	1616.3026	1812.3331	1855.5309	2924.3717	3206.755	3227.8523	3748.4894
OC1C(=O)C=CC1=O	O[C@H]1C(=O)C=CC1=O	
InChI=1S/C5H4O3/c6-3-1-2-4(7)5(3)8/h1-2,5,8H	InChI=1S/C5H4O3/c6-3-1-2-4(7)5(3)8/h1-2,5,8H
