25
gdb 123018	4.4796	0.56278	0.53151	0.9138	91.29	-0.2395	0.0909	0.3303	2220.5432	0.226904	-389.479339	-389.468214	-389.467269	-389.516672	39.886	
C	 0.0488645436	 1.5189529402	 0.0093665962	-0.379201
C	 0.4523147072	 0.0430299507	-0.0452168961	-0.164577
C	 0.4411622411	-0.6293671012	 1.3314180173	-0.179263
C	 0.8417229436	-2.0964103386	 1.2731268532	-0.05288
O	 0.7960971963	-2.6324311212	 2.5854185738	-0.250639
C	 1.140376526	-3.9794099025	 2.6445449116	 0.130806
C	 2.6008647428	-4.3686963662	 2.6809102338	-0.323417
C	 1.7376713149	-4.4809305861	 3.9251928479	-0.028777
C	 1.9565937928	-3.54840434	 5.0958574501	-0.395819
H	 0.7284998611	 2.0909982595	 0.6506220679	 0.115051
H	 0.066137171	 1.974913675	-0.9854052194	 0.111036
H	-0.9625914363	 1.6373041009	 0.4133209164	 0.115383
H	-0.2253991065	-0.4964528686	-0.7201161462	 0.096017
H	 1.4536438063	-0.0463765297	-0.4870167016	 0.095911
H	 1.1249017921	-0.1055111408	 2.0110510237	 0.101355
H	-0.5578990343	-0.5555187374	 1.7784453283	 0.103413
H	 0.1566576201	-2.6557944447	 0.6133714542	 0.082987
H	 1.8543722401	-2.2078037303	 0.8532550607	 0.087738
H	 0.4548389534	-4.635352149	 2.1044286309	 0.077702
H	 2.9241397903	-5.2698590384	 2.1709479056	 0.106604
H	 3.3163483236	-3.5526251076	 2.6596544581	 0.113466
H	 1.4435710537	-5.4905698477	 4.2006486618	 0.082841
H	 2.168469765	-2.5342055088	 4.7503688012	 0.127213
H	 1.0667552971	-3.5005086428	 5.7329712165	 0.116079
H	 2.7948591853	-3.8865555646	 5.714477934	 0.110971
50.5294	62.8698	85.1288	125.3953	140.2418	176.9472	197.6572	246.7963	256.0502	330.8961	354.4813	428.3598	494.0575	577.3023	745.7937	754.9996	813.9138	831.0166	873.3218	912.0409	925.5869	953.2922	976.7607	1020.9985	1031.988	1057.0007	1072.6518	1096.3193	1113.5656	1144.6439	1150.3895	1188.3072	1194.0107	1199.3513	1250.1174	1254.9845	1293.8076	1309.62	1323.6139	1369.2907	1387.3029	1401.5176	1414.7083	1418.8295	1441.988	1485.6862	1488.4891	1493.9254	1496.5308	1500.1133	1504.7126	1510.7171	1528.0647	2957.7194	2989.7119	3013.4012	3027.8612	3032.2072	3034.4091	3039.1108	3072.4233	3077.6011	3091.227	3098.0584	3102.6189	3121.8325	3127.5984	3141.5652	3215.1618
CCCCOC1CC1C	CCCCO[C@H]1C[C@H]1C	
InChI=1S/C8H16O/c1-3-4-5-9-8-6-7(8)2/h7-8H,3-6H2,1-2H3	InChI=1S/C8H16O/c1-3-4-5-9-8-6-7(8)2/h7-8H,3-6H2,1-2H3/t7-,8+/m1/s1
