18
gdb 84502	3.08264	1.41129	1.12211	1.9765	74.9	-0.233	0.0012	0.2341	1097.5329	0.148365	-439.054886	-439.046605	-439.045661	-439.087902	31.998	
O	-0.0297874132	 1.4886470981	 0.0439556993	-0.44011
C	 0.0455037079	 0.0718044859	-0.0208012257	 0.071542
C	 0.7111673175	-0.5666452586	 1.1748887281	-0.143794
C	-0.0015264208	-1.5856139916	 1.655209071	-0.134369
C	-1.2514196849	-1.8036348613	 0.8835650926	 0.330124
C	-1.697243789	-3.1865336775	 0.5392899001	-0.292902
N	-2.4689187835	-2.3669134515	 1.4774943959	-0.337393
C	-1.3771733522	-0.6022752839	-0.0609481579	-0.027523
O	-2.348694775	 0.285377669	 0.4617650267	-0.420603
H	-0.4738686248	 1.691459391	 0.8767710755	 0.280227
H	 0.5995793453	-0.1373260676	-0.9432212946	 0.096656
H	 1.6674834835	-0.2203702786	 1.5492098558	 0.105496
H	 0.2782047471	-2.2243047791	 2.487531209	 0.099064
H	-2.1856538084	-3.3726247979	-0.4141474229	 0.122031
H	-1.105738213	-4.018233271	 0.9158514022	 0.10914
H	-2.2940324706	-2.6502415863	 2.438939017	 0.231126
H	-1.6468746428	-0.9117134934	-1.0793257395	 0.066964
H	-2.305909303	 1.0772877244	-0.0879786226	 0.284325
52.9602	156.3092	208.5226	236.65	295.681	317.2148	364.1573	449.5234	490.1022	585.5872	612.476	636.7269	759.241	816.5043	827.1107	838.9536	871.9292	933.5962	952.0034	969.2772	978.1241	1015.179	1065.246	1083.0872	1109.9325	1133.4795	1136.9347	1212.1097	1257.3874	1267.3389	1285.6404	1305.3994	1325.6257	1345.4681	1393.6214	1428.4323	1447.8764	1509.497	1672.836	3007.9105	3045.4297	3096.6469	3175.1039	3182.275	3208.7595	3493.5236	3780.2814	3787.068
OC1C=CC2(CN2)C1O	O[C@H]1C=C[C@]2(CN2)[C@H]1O	
InChI=1S/C6H9NO2/c8-4-1-2-6(3-7-6)5(4)9/h1-2,4-5,7-9H,3H2	InChI=1S/C6H9NO2/c8-4-1-2-6(3-7-6)5(4)9/h1-2,4-5,7-9H,3H2/t4-,5-,6-/m0/s1
