15
gdb 11442	3.77754	1.60444	1.2497	4.3936	57.07	-0.2662	0.0472	0.3134	941.8502	0.120481	-436.983059	-436.975664	-436.97472	-437.01519	26.811	
O	 0.0733741699	 1.340455748	 0.1992948371	-0.418655
C	 0.0364338609	-0.058547971	 0.044991546	-0.063052
C	-1.3947947762	-0.5669042107	-0.1127204791	 0.091847
C	-1.511636448	-2.1074561805	-0.1080485272	-0.207791
N	-1.8879109434	-2.3340795034	 1.2719769089	-0.361568
C	-2.4021842694	-1.2055669857	 1.866396982	 0.475445
O	-2.963227893	-1.1074282059	 2.92015424	-0.385877
O	-2.152900141	-0.1387605384	 1.0377438044	-0.261234
H	-0.509459332	 1.5520604487	 0.9384328956	 0.297786
H	 0.6088861551	-0.2983420257	-0.8581322182	 0.113792
H	 0.5093691695	-0.5825541595	 0.8924694479	 0.099991
H	-1.8560618192	-0.1089095109	-0.9907219186	 0.109112
H	-2.2701640785	-2.4628894631	-0.8171983494	 0.119807
H	-0.5570912693	-2.5838870225	-0.3569641241	 0.124058
H	-2.1958536153	-3.2283888594	 1.6154002748	 0.26634
80.1482	143.1509	154.3052	230.47	376.371	433.9383	454.7807	493.7589	533.1386	699.2938	763.7562	773.7504	856.0513	924.8845	962.4566	1008.5991	1067.3116	1090.3833	1106.163	1138.9947	1210.6057	1222.1582	1251.2977	1297.7106	1343.0735	1388.0434	1401.6482	1434.3272	1444.9602	1498.5519	1533.1244	1898.624	2971.2562	3015.3533	3059.5541	3069.9464	3093.2662	3665.3098	3794.6478
OCC1CNC(=O)O1	OC[C@H]1CNC(=O)O1	
InChI=1S/C4H7NO3/c6-2-3-1-5-4(7)8-3/h3,6H,1-2H2,(H,5,7)	InChI=1S/C4H7NO3/c6-2-3-1-5-4(7)8-3/h3,6H,1-2H2,(H,5,7)/t3-/m1/s1
