17
gdb 93445	2.48044	1.55798	1.14698	2.2517	71.1	-0.2662	-0.0087	0.2575	1084.4752	0.137938	-455.211418	-455.203283	-455.202339	-455.244321	30.452	
C	-0.0922756973	 1.5348786516	 0.0474767914	-0.402878
C	 0.0221738607	 0.0005708109	 0.0021707396	-0.061568
C	 0.8169719971	-0.4928572688	-1.2024001854	-0.100174
O	 2.200937628	-0.1061906186	-1.1164263826	-0.236188
C	 2.8621524283	-0.3587475887	 0.0304185156	 0.473194
O	 4.0601532638	-0.3102107041	 0.0978584664	-0.371448
N	 2.0665384778	-0.6719289255	 1.1314465398	-0.416026
C	 0.6821805593	-0.530173176	 1.2564336912	 0.382406
N	 0.0041258812	-0.7828557024	 2.3011627564	-0.519244
H	 0.8927726348	 2.0098868848	 0.0648950756	 0.138062
H	-0.6263541321	 1.9001035473	-0.8351426641	 0.122803
H	-0.6420866641	 1.8440059053	 0.9389456488	 0.144486
H	-0.9807799409	-0.432677293	-0.0349080364	 0.117833
H	 0.7620152864	-1.5848413501	-1.2903612075	 0.125101
H	 0.4565623283	-0.0501394109	-2.132759409	 0.131156
H	 2.6063486105	-0.8960778774	 1.9557886457	 0.262488
H	 0.5918095981	-1.1032425642	 3.0740857747	 0.209998
85.0224	120.5313	200.2741	211.6257	258.2995	339.0524	380.5162	475.3403	537.0332	572.2427	623.2516	693.268	729.6499	771.4859	820.1173	878.5859	894.1508	910.6685	977.9366	1027.3961	1071.5151	1131.644	1139.0787	1154.8617	1243.0956	1282.9108	1322.436	1344.2052	1393.4453	1411.0756	1418.0763	1430.6765	1494.1506	1500.8978	1510.5815	1742.7714	1860.226	3035.8778	3045.8909	3084.2015	3116.0745	3118.5638	3135.0275	3445.3349	3608.6188
CC1COC(=O)NC1=N	C[C@H]1COC(=O)N[C]1[NH]	
InChI=1S/C5H8N2O2/c1-3-2-9-5(8)7-4(3)6/h3H,2H2,1H3,(H2,6,7,8)	InChI=1S/C5H8N2O2/c1-3-2-9-5(8)7-4(3)6/h3H,2H2,1H3,(H2,6,7,8)/t3-/m0/s1
