20
gdb 118280	6.03456	0.55553	0.52574	5.4492	77.74	-0.2776	0.0404	0.3181	2047.5139	0.169025	-440.291993	-440.28142	-440.280475	-440.328683	36.557	
C	 0.0004304901	 1.3539311351	 0.2378268521	-0.231948
O	-0.0476325471	-0.0509229027	 0.1218177425	-0.250935
C	-1.3479669613	-0.5554460352	-0.1115336713	-0.086058
C	-1.2366770544	-2.0764469521	-0.059581758	 0.112676
O	-0.6720244391	-2.4761880346	 1.1780790384	-0.444507
C	-2.5939823879	-2.7577905184	-0.198136025	-0.189695
C	-2.4592166958	-4.2911651111	-0.1197810705	-0.34406
C	-3.7470197117	-4.9704033548	-0.2317556278	 0.255562
N	-4.7743865815	-5.4915140072	-0.3244205893	-0.308595
H	 1.039833448	 1.6300664843	 0.4290925155	 0.133655
H	-0.3348197927	 1.8470298265	-0.6869092672	 0.112875
H	-0.6254948019	 1.7137263979	 1.0684241117	 0.113128
H	-2.0420841518	-0.2036897457	 0.6693521996	 0.096632
H	-1.7307964702	-0.2207404678	-1.0891677802	 0.093674
H	-0.5844493856	-2.3925504654	-0.8927589112	 0.074077
H	 0.0733157539	-1.8822983804	 1.3318588328	 0.294086
H	-3.2551382844	-2.4135589713	 0.6041049242	 0.126728
H	-3.0531710707	-2.473382077	-1.1505392326	 0.118097
H	-1.8022524459	-4.6564026047	-0.9180117775	 0.147958
H	-1.9880106999	-4.5649528655	 0.8286335238	 0.176653
54.007	77.5284	83.8672	114.6444	136.5529	186.3292	234.9409	261.2867	331.7439	382.681	398.3036	456.7624	472.0199	543.5206	595.3136	772.5278	890.5619	939.3129	964.8572	973.075	1035.9005	1067.0821	1112.3313	1133.1582	1166.0841	1179.6747	1200.4549	1222.9843	1260.623	1276.1276	1298.2461	1323.0445	1356.4133	1390.7574	1410.4385	1453.9984	1468.5821	1479.1801	1484.3101	1486.7743	1499.2241	1520.9066	2362.2743	2948.9977	2964.0699	2983.3155	3006.3453	3030.9863	3044.3563	3053.1703	3089.7629	3109.211	3120.7264	3784.1751
COCC(O)CCC#N	COC[C@@H](O)CCC#N	
InChI=1S/C6H11NO2/c1-9-5-6(8)3-2-4-7/h6,8H,2-3,5H2,1H3	InChI=1S/C6H11NO2/c1-9-5-6(8)3-2-4-7/h6,8H,2-3,5H2,1H3/t6-/m0/s1
