19
gdb 84441	3.24213	1.46882	1.31281	2.3639	75.57	-0.2408	-0.0018	0.2391	1039.7257	0.159911	-423.016822	-423.009012	-423.008068	-423.048571	31.778	
C	 0.0093766971	 1.493887333	 0.1347544559	-0.48948
C	-0.0111782595	-0.0037745287	-0.0412598805	 0.374189
C	 0.7208871843	-0.683039155	-1.2342280156	-0.291322
C	 1.0584704885	-1.7237400318	-0.1528647776	 0.045546
O	 0.9175705568	-0.6975847485	 0.874194669	-0.34041
C	-0.0659282523	-2.7412203551	 0.0965976563	 0.115686
O	 0.1719376353	-3.432039987	 1.3169997755	-0.441343
C	-1.3890520179	-1.9973626722	 0.14829803	-0.13454
C	-1.3716012782	-0.6650514823	 0.1072168301	-0.078557
H	 1.0274979222	 1.8782363876	 0.0359344646	 0.125839
H	-0.6230624154	 1.9740337592	-0.6197133688	 0.122299
H	-0.3713135342	 1.7701924914	 1.1236623461	 0.131036
H	 0.1239602949	-0.9848503497	-2.0961185171	 0.10349
H	 1.6072686559	-0.1264142705	-1.547874234	 0.105994
H	 2.0435559675	-2.1964152836	-0.135601397	 0.082524
H	-0.0728328445	-3.5096140552	-0.6855771621	 0.088194
H	 0.2678560124	-2.7367378198	 1.9819686871	 0.284205
H	-2.2970682059	-2.5773583129	 0.2799913155	 0.102385
H	-2.2677627972	-0.0543096189	 0.1615416627	 0.094267
125.7693	203.4199	256.1234	276.1614	310.2434	394.5569	427.573	479.883	492.4769	526.8181	614.0481	666.715	735.6131	755.4067	830.1672	844.8357	912.9151	919.8372	942.0288	958.4963	980.1384	1015.0904	1027.03	1059.5112	1113.4144	1124.6332	1152.6655	1230.7433	1235.5215	1248.0502	1276.7641	1295.4151	1318.7081	1347.2064	1394.6935	1410.4104	1429.5621	1478.6478	1487.9131	1494.2438	1687.0623	3036.5092	3045.0189	3066.3367	3087.1433	3104.7881	3123.2038	3133.4785	3165.0638	3189.7575	3761.1784
CC12CC(O1)C(O)C=C2	C[C@@]12C[C@@H](O1)[C@@H](O)C=C2	
InChI=1S/C7H10O2/c1-7-3-2-5(8)6(4-7)9-7/h2-3,5-6,8H,4H2,1H3	InChI=1S/C7H10O2/c1-7-3-2-5(8)6(4-7)9-7/h2-3,5-6,8H,4H2,1H3/t5-,6+,7+/m0/s1
