19
gdb 55043	3.90617	0.84644	0.78588	2.8844	83.44	-0.2457	-0.0175	0.2282	1503.618	0.156317	-385.86966	-385.859816	-385.858872	-385.905062	35.709	
C	 0.0609369102	 1.5099095983	-0.0090969619	-0.484122
C	 0.1396278746	-0.0027750554	 0.0821536673	 0.394299
O	 0.2806152007	-0.5690200131	 1.1484000604	-0.327548
C	 0.0378277481	-0.7389778607	-1.2122668499	-0.149782
C	 0.6883855717	-2.1110539616	-1.325352169	-0.273846
C	-0.7965046726	-2.0215025976	-1.3297378252	 0.008335
C	-1.6297219859	-2.5517079815	-0.1697580832	-0.39156
C	-1.9330486433	-3.9703892296	-0.3297990991	 0.305105
C	-2.1794521578	-5.1368753635	-0.4825661023	-0.447849
H	 0.874055325	 1.8923892967	-0.6370466265	 0.141306
H	-0.8773406089	 1.8140200013	-0.4872047627	 0.140151
H	 0.1287340443	 1.9475775108	 0.9872015209	 0.142024
H	 0.0441660616	-0.1123736424	-2.0979294879	 0.088412
H	 1.2121694876	-2.3447257057	-2.2449693194	 0.119163
H	 1.1596462781	-2.4662191855	-0.4148993124	 0.1429
H	-1.2789713574	-2.1329341791	-2.2965302447	 0.10462
H	-1.0962622243	-2.3811571996	 0.7699772483	 0.169082
H	-2.5685952914	-1.9864161871	-0.1007473844	 0.126278
H	-2.3968848003	-6.1690327147	-0.6021354085	 0.19303
51.3834	71.6438	114.3834	137.2227	182.3609	227.2278	317.5298	346.3856	379.0089	396.1604	503.4392	595.9862	611.9483	633.2772	639.8356	758.5735	809.3258	868.8277	876.4024	920.5818	959.3487	979.3487	1011.1431	1050.6192	1078.0846	1099.9589	1133.0944	1156.0836	1188.3687	1234.8854	1256.1372	1326.0887	1376.4049	1401.0568	1421.5339	1463.0291	1472.8439	1475.0492	1486.2264	1782.9642	2238.7426	3023.004	3033.5743	3089.2538	3093.1826	3136.9272	3149.5053	3154.2242	3164.8629	3230.4371	3507.8517
CC(=O)C1CC1CC#C	CC(=O)[C@H]1C[C@H]1CC#C	
InChI=1S/C8H10O/c1-3-4-7-5-8(7)6(2)9/h1,7-8H,4-5H2,2H3	InChI=1S/C8H10O/c1-3-4-7-5-8(7)6(2)9/h1,7-8H,4-5H2,2H3/t7-,8-/m1/s1
