18
gdb 105703	3.10951	0.92011	0.81736	3.1418	69.33	-0.2547	0.028	0.2826	1418.481	0.14649	-476.21859	-476.209071	-476.208126	-476.254234	33.702	
O	 0.3651492714	 0.8902559716	 0.7323900544	-0.412694
C	 0.0538800275	-0.1345936143	-0.1951489636	-0.130527
C	-1.4155089097	-0.5020398206	-0.1358903587	 0.351494
C	-2.3732869522	 0.6091584312	-0.5389721782	-0.232102
N	-3.7395506289	 0.317168868	-0.1601274925	-0.279602
C	-4.7858798301	 0.4036213056	-1.0238302018	 0.152176
O	-4.7114639125	 0.7573162263	-2.1816508217	-0.322714
C	-1.8211057594	-1.9098929005	-0.1600706732	-0.220485
O	-1.7715475565	-1.1897920584	 1.0835388146	-0.288798
H	 0.1523914681	 0.5451337562	 1.6073276583	 0.294635
H	 0.3072920484	 0.2582832469	-1.1857842448	 0.121365
H	 0.6605534815	-1.0347001232	-0.021397218	 0.09735
H	-2.0256429495	 1.5387292578	-0.0721614551	 0.132852
H	-2.3606971038	 0.7541653808	-1.6225802914	 0.154806
H	-3.8924547474	-0.0308320508	 0.7738845003	 0.257771
H	-5.7388470779	 0.1108187151	-0.5404766765	 0.076946
H	-2.8206959123	-2.1718121362	-0.499114091	 0.126029
H	-1.0679341266	-2.6875458555	-0.2734994414	 0.121496
36.5867	71.4547	95.7223	160.3594	213.2516	274.1329	296.5967	337.2528	367.7457	440.2797	477.7635	577.1997	591.2425	711.7739	782.6389	837.4113	898.238	942.9713	977.2514	1016.6972	1036.0037	1073.0729	1087.0208	1125.358	1171.1903	1193.7062	1219.4342	1261.0155	1271.0507	1354.7999	1394.5238	1417.2403	1428.1269	1436.9554	1489.0942	1497.239	1523.3406	1529.2789	1804.7497	2940.0569	3003.7188	3037.5613	3077.9499	3096.6632	3108.3476	3186.9786	3631.8875	3798.5973
OCC1(CNC=O)CO1	OC[C@@]1(CNC=O)CO1	
InChI=1S/C5H9NO3/c7-2-5(3-9-5)1-6-4-8/h4,7H,1-3H2,(H,6,8)	InChI=1S/C5H9NO3/c7-2-5(3-9-5)1-6-4-8/h4,7H,1-3H2,(H,6,8)/t5-/m0/s1
