21
gdb 67462	2.54848	1.64285	1.54729	1.5373	81.75	-0.2295	0.0855	0.315	1015.9292	0.184932	-387.07134	-387.06368	-387.062735	-387.102931	31.227	
C	-0.0048756306	 1.5311991561	-0.0223723512	-0.511236
C	 0.0128062552	 0.0308594078	-0.0099198793	 0.336265
C	 0.4931387096	-0.9804165458	-1.0589793411	-0.122915
C	 1.2974409586	-1.7417854395	-0.0014912418	-0.233732
C	 0.641440932	-0.8472885102	 1.1030034025	-0.093869
C	-0.4031577356	-1.5745781881	 1.9436545214	-0.090634
O	-1.1588383044	-2.4712555395	 1.1441175882	-0.244773
C	-1.8246684715	-1.8508128877	 0.0570169521	-0.105475
C	-0.9776773891	-0.8512409701	-0.711172848	-0.085794
H	 0.994234904	 1.9463494449	 0.1571624177	 0.115383
H	-0.3561889885	 1.9118817057	-0.9875516322	 0.11708
H	-0.6712263206	 1.93339169	 0.7511472419	 0.11769
H	 0.8297793437	-0.7812326505	-2.0709092294	 0.077725
H	 1.1422943999	-2.8199738561	 0.0783480601	 0.106483
H	 2.3669414246	-1.5362577583	-0.0948186132	 0.095236
H	 1.3574178754	-0.3176769182	 1.736380849	 0.066696
H	 0.0652633317	-2.1970373012	 2.7130045433	 0.103686
H	-1.0630193893	-0.8474634723	 2.4490376826	 0.082067
H	-2.1580094096	-2.6694942581	-0.5903886957	 0.10651
H	-2.7274624578	-1.3265307467	 0.4199063375	 0.082987
H	-1.5440404677	-0.3402851421	-1.4882447845	 0.08062
167.2891	197.7527	219.7751	281.5212	284.384	358.8105	398.9854	461.8083	564.7755	641.3192	721.2501	736.8689	787.9735	817.05	873.9881	889.2171	905.9713	950.0483	982.17	1004.2279	1035.1357	1056.6383	1076.8028	1090.595	1105.9429	1123.1957	1152.3123	1171.8646	1197.7295	1241.1271	1249.1517	1269.6717	1287.2264	1313.37	1324.4053	1341.8414	1384.3973	1410.4907	1423.6643	1470.9358	1484.4555	1490.0733	1493.847	1500.8545	1503.6672	2937.692	2953.5258	3014.2821	3057.6876	3058.9549	3067.9038	3070.0327	3079.3345	3089.4335	3112.7741	3125.0449	3164.3101
CC12C3CC1COCC23	C[C@@]12[C@H]3C[C@@H]1COC[C@@H]23	
InChI=1S/C8H12O/c1-8-5-2-6(8)7(8)4-9-3-5/h5-7H,2-4H2,1H3	InChI=1S/C8H12O/c1-8-5-2-6(8)7(8)4-9-3-5/h5-7H,2-4H2,1H3/t5-,6+,7-,8+/m1/s1
