15
gdb 124362	5.12376	0.96779	0.8182	4.881	69.69	-0.2335	-0.0157	0.2178	1327.2718	0.112582	-453.969414	-453.961096	-453.960152	-454.004074	29.271	
C	-0.1241166429	 1.540439278	 0.0291399683	-0.496279
C	 0.0930639438	 0.0385622424	 0.0493055166	 0.401346
O	 1.1900835246	-0.4706363719	 0.1703953087	-0.353138
N	-1.0524476138	-0.7160529222	-0.0598234857	-0.450932
C	-1.0755619298	-2.1100265731	-0.0283284917	 0.211726
C	-0.0561935629	-3.0080794475	 0.0991721701	 0.02376
O	-0.5570383305	-4.2578625852	 0.0768184968	-0.164434
N	-1.9304150098	-4.2081814315	-0.0673392817	-0.122481
C	-2.2309869306	-2.934707927	-0.1292803829	-0.0591
H	 0.6425605727	 1.9946791116	-0.6012928907	 0.161917
H	-1.1120661594	 1.8364240571	-0.3330681042	 0.118033
H	 0.007800836	 1.9322874686	 1.0425744125	 0.160392
H	-1.9360337339	-0.2440461599	-0.1577486243	 0.257729
H	 1.0069998661	-2.900538007	 0.2066617676	 0.183602
H	-3.2646109494	-2.6382793622	-0.2440963295	 0.127859
25.8971	77.8726	101.1025	163.6459	348.8084	357.1006	362.6077	460.0667	571.7645	613.566	622.1585	674.8777	790.7815	831.2315	883.4179	922.4467	935.6269	958.2154	1002.3096	1047.0419	1050.5508	1135.9933	1213.6435	1249.9817	1282.1889	1371.8356	1399.0267	1468.2813	1478.8226	1488.252	1556.773	1665.4601	1783.0618	3049.4052	3119.1599	3143.0423	3235.4508	3326.3424	3650.1764
CC(=O)NC1=CON=C1	CC(=O)Nc1conc1	
InChI=1S/C5H6N2O2/c1-4(8)7-5-2-6-9-3-5/h2-3H,1H3,(H,7,8)	InChI=1S/C5H6N2O2/c1-4(8)7-5-2-6-9-3-5/h2-3H,1H3,(H,7,8)
