18
gdb 78402	3.12598	1.42205	1.22404	3.6872	75.68	-0.2369	-0.0047	0.2322	1075.2164	0.148085	-401.912552	-401.90497	-401.904025	-401.944465	29.831	
C	-0.0426164473	 1.4316259851	 0.0785870714	-0.429567
C	 0.0697524672	-0.0775234539	 0.0190745837	-0.027631
C	 0.7047246722	-0.6563100356	-1.2254765617	-0.089014
C	 1.4508295101	-0.6604036582	 0.1151197441	-0.036884
N	 1.4414854853	-2.1500838254	 0.1304405718	-0.146698
C	 0.7748611623	-2.1954202122	-1.2112139353	 0.009108
C	-0.3449002277	-3.0976505265	-0.6342702824	-0.398259
C	 0.3408771781	-2.841075704	 0.7333645607	 0.379471
O	 0.070634152	-3.0414671384	 1.8792451026	-0.309977
H	 0.824761956	 1.9130727175	-0.3856014348	 0.120279
H	-0.9366621892	 1.7805779236	-0.4484573334	 0.125303
H	-0.1031959758	 1.7780024754	 1.1150434761	 0.130398
H	-0.7513387216	-0.6022629017	 0.5019705658	 0.1032
H	 0.8897374299	-0.044267608	-2.0995456776	 0.095723
H	 2.3188390418	-0.1073644981	 0.4526330618	 0.107336
H	 1.3803853773	-2.6173591608	-2.015986445	 0.09141
H	-1.3681575058	-2.7188260106	-0.6787019981	 0.13934
H	-0.3306417948	-4.1342302183	-0.9793691796	 0.136461
112.6775	184.9738	208.1952	256.2561	296.9145	366.77	469.8901	499.6122	556.7984	653.7356	732.8017	775.0401	830.448	862.926	876.5232	897.7551	951.8015	993.5807	1007.6715	1030.1564	1044.4474	1056.8228	1079.0217	1098.9741	1132.7868	1133.8287	1153.5438	1197.7323	1205.5427	1230.345	1260.081	1293.5655	1343.6864	1417.9204	1419.2322	1440.5582	1494.1823	1502.7373	1892.6515	3032.9591	3075.6424	3087.6858	3097.7161	3103.3935	3132.2444	3134.7234	3182.0668	3193.1424
CC1C2C1N1C2CC1=O	C[C@H]1[C@H]2[C@@H]1N1[C@H]2CC1=O	
InChI=1S/C7H9NO/c1-3-6-4-2-5(9)8(4)7(3)6/h3-4,6-7H,2H2,1H3	InChI=1S/C7H9NO/c1-3-6-4-2-5(9)8(4)7(3)6/h3-4,6-7H,2H2,1H3/t3-,4-,6+,7+/m0/s1
