18
gdb 15173	7.67702	0.65887	0.63641	2.1481	79.18	-0.2455	0.0295	0.275	1781.3757	0.151988	-347.757501	-347.748272	-347.747328	-347.793889	31.596	
C	-0.1551527894	 1.4835367143	-0.0158914295	-0.382005
C	-0.1975636811	-0.0215693691	-0.2859340607	-0.155214
C	 1.061452193	-0.5190437659	-1.0257099767	-0.339662
C	 1.0467620644	-1.9507408063	-1.2984732671	 0.052152
C	 1.0023846199	-3.1351213654	-1.5170170344	 0.134504
C	 0.9950436841	-4.5494130275	-1.7717972375	-0.115801
C	-0.2564638984	-5.3326717884	-1.80017235	-0.160262
O	 0.4156595556	-5.0049217835	-3.008384547	-0.216446
H	 0.7085116139	 1.7526519681	 0.6024622204	 0.116477
H	-0.0841021704	 2.0530915624	-0.9492443268	 0.117515
H	-1.0559637673	 1.8156901235	 0.5085578596	 0.116178
H	-0.2947498348	-0.5720931511	 0.6564257732	 0.109071
H	-1.0806598715	-0.2736607737	-0.883400803	 0.111064
H	 1.1676365451	 0.0288075812	-1.9719558483	 0.131828
H	 1.9534058878	-0.270638517	-0.4346435733	 0.128635
H	 1.9087737564	-5.0785340553	-1.5020312144	 0.113692
H	-0.2321549835	-6.3835539947	-1.5133399526	 0.116699
H	-1.201010694	-4.8185523319	-1.6324695617	 0.121575
11.749	69.0015	75.8547	146.3756	195.8747	240.7633	311.1189	347.4974	411.6532	528.3494	561.5667	732.9896	742.1318	830.8967	870.8722	880.3457	915.8682	997.1234	1042.7522	1085.4542	1108.5658	1120.9483	1148.6096	1159.918	1184.9889	1258.781	1282.6956	1307.5905	1321.8112	1380.8574	1408.9427	1413.2759	1469.4028	1491.754	1499.016	1508.6533	1519.2854	2364.0129	3010.2479	3029.9789	3037.5246	3041.5012	3073.7988	3082.2377	3100.6054	3106.4067	3109.8443	3175.3626
CCCC#CC1CO1	CCCC#C[C@H]1CO1	
InChI=1S/C7H10O/c1-2-3-4-5-7-6-8-7/h7H,2-3,6H2,1H3	InChI=1S/C7H10O/c1-2-3-4-5-7-6-8-7/h7H,2-3,6H2,1H3/t7-/m0/s1
