16
gdb 128211	2.13003	1.72779	1.01305	5.757	74.9	-0.2346	-0.0414	0.1932	1141.3081	0.125644	-434.087993	-434.079729	-434.078785	-434.121276	29.649	
C	-0.6900805324	 0.7184040598	-0.1283890114	-0.338679
N	 0.6749767623	 0.1663694492	-0.1291799744	-0.391537
C	 1.0789040353	-0.5103168179	 1.0253381351	 0.416554
C	 1.8843185915	-0.1513359527	 2.0757483443	-0.329823
C	 1.9178851177	-1.2990158735	 2.914008925	 0.033468
N	 1.1931704604	-2.2941794954	 2.4475525012	-0.234416
N	 0.6857656326	-1.8202954185	 1.2694254831	-0.070999
C	-0.0279066429	-2.647672076	 0.3895415835	 0.181249
O	-0.3659838381	-3.7709310136	 0.6317070435	-0.266173
H	-0.8628919124	 1.4419014441	 0.68091493	 0.123878
H	-0.8690236196	 1.2078838997	-1.0887081981	 0.134533
H	-1.4174040395	-0.0899094857	-0.0224354747	 0.142007
H	 1.3458848654	 0.8918966477	-0.3483394539	 0.246025
H	 2.3630473508	 0.8025054485	 2.2297504581	 0.110251
H	 2.443580515	-1.4193294188	 3.8511851947	 0.125819
H	-0.2192312461	-2.122930207	-0.5604806661	 0.117843
91.4419	134.7188	149.4765	164.5534	229.5644	273.5787	363.1517	402.4964	572.0601	630.6783	665.536	712.2946	764.0597	801.5999	845.3432	912.673	926.8573	1021.0175	1041.3382	1058.6135	1116.8189	1145.8731	1178.1516	1248.1282	1313.6286	1353.1256	1363.7085	1439.4656	1452.1554	1484.3274	1491.32	1511.9293	1516.8323	1623.4453	1842.7199	3003.8761	3015.0328	3095.1659	3132.5407	3235.078	3263.4736	3563.5062
CNC1=CC=NN1C=O	CNc1ccnn1C=O	
InChI=1S/C5H7N3O/c1-6-5-2-3-7-8(5)4-9/h2-4,6H,1H3	InChI=1S/C5H7N3O/c1-6-5-2-3-7-8(5)4-9/h2-4,6H,1H3
