19
gdb 124484	2.51122	1.29415	1.05677	4.1415	78.54	-0.2539	-0.0282	0.2257	1235.5061	0.157388	-419.209715	-419.200153	-419.199209	-419.244819	34.117	
C	-0.0307850044	 1.5931106002	-0.0540896942	-0.385664
C	-0.0534895323	 0.0529257235	-0.0164801738	-0.096551
C	-1.4963982798	-0.4868970416	 0.010119275	-0.385658
C	 0.7143745034	-0.5235842641	-1.1643920841	 0.370613
C	 1.8259467955	-1.3101858619	-1.2601218691	 0.132654
C	 2.7142238532	-1.9045108497	-0.2201971386	-0.496605
N	 2.045881114	-1.506642053	-2.6093337233	-0.164465
N	 1.1802597899	-0.9176669737	-3.302290933	-0.022314
O	 0.2838611028	-0.2581206547	-2.4037496319	-0.232983
H	 0.9933752251	 1.9766380386	-0.0374045605	 0.123995
H	-0.5168245377	 1.9640377877	-0.96101712	 0.138889
H	-0.5633511353	 1.9988203763	 0.8111607738	 0.118628
H	 0.4554512209	-0.2775064074	 0.8963400398	 0.093272
H	-2.0355539838	-0.1913792871	-0.8944926161	 0.138885
H	-1.511828847	-1.5787592814	 0.0723680935	 0.123993
H	-2.0324991243	-0.0861714093	 0.8755105649	 0.11863
H	 2.7289143285	-2.996769737	-0.2914629344	 0.147043
H	 3.7453295356	-1.5556563618	-0.3361040089	 0.14705
H	 2.3764291958	-1.6351904336	 0.783339271	 0.130589
39.9103	80.125	139.92	171.2298	223.1087	248.9481	261.9142	275.3623	368.4073	408.8521	494.7937	614.1324	657.4719	697.4811	730.5221	753.3056	884.8689	934.2075	967.1813	985.6906	1022.7014	1068.0256	1082.2192	1120.021	1149.0882	1203.2201	1235.4681	1331.5472	1367.4907	1378.6644	1397.9542	1418.461	1425.7458	1468.1555	1477.1276	1487.1157	1490.3952	1493.3444	1500.4229	1513.0263	1650.9607	3040.4927	3041.3191	3043.5428	3043.5717	3099.0874	3113.6493	3116.5825	3119.2428	3123.6204	3125.4641
CC(C)C1=C(C)N=NO1	CC(C)c1c(C)nno1	
InChI=1S/C6H10N2O/c1-4(2)6-5(3)7-8-9-6/h4H,1-3H3	InChI=1S/C6H10N2O/c1-4(2)6-5(3)7-8-9-6/h4H,1-3H3
