17
gdb 51191	4.39853	1.09843	1.04485	3.3402	71.72	-0.2414	-0.0258	0.2156	1159.3582	0.134623	-421.764413	-421.7567	-421.755755	-421.79769	29.084	
O	-0.1684961578	-0.0017035596	 0.0269242114	-0.239876
C	-0.0235057639	 1.1912565663	-0.0455620451	 0.158724
C	 1.3279538185	 1.8863104438	-0.0505258313	-0.411881
C	 1.4513600177	 2.8586393345	-1.1927810531	 0.417409
C	 1.4620111795	 2.4527062972	-2.6950216751	-0.26339
C	 2.0692008385	 3.8338405648	-2.9305126181	-0.119994
C	 1.4118502763	 4.7256810607	-1.8639933225	 0.104253
O	 0.4592319876	 3.9358286986	-1.154452283	-0.331144
C	 2.5978942808	 3.9047444254	-1.4995600785	-0.210383
H	-0.8931069453	 1.8790437938	-0.1088866472	 0.105136
H	 1.4218061171	 2.4424168266	 0.8922612613	 0.133993
H	 2.1160099161	 1.1295567779	-0.0915383137	 0.127304
H	 2.1865643001	 1.6584432327	-2.8914486373	 0.110803
H	 0.491777199	 2.2097874159	-3.1399985538	 0.105859
H	 2.5229906935	 4.2326230471	-3.8282418067	 0.097192
H	 1.2555239873	 5.7925382051	-1.9475489149	 0.112784
H	 3.5669463049	 4.1180989992	-1.0708642924	 0.103212
49.196	66.8345	157.0009	284.6524	333.3557	439.4191	474.5997	551.3751	658.9514	757.3289	764.2127	785.7477	806.6119	830.9271	868.1389	907.4805	933.4861	963.5785	998.9878	1017.0659	1031.4177	1040.7338	1066.0088	1089.8746	1106.4199	1145.277	1176.0798	1216.9719	1236.8822	1276.0734	1296.084	1349.6309	1371.3862	1425.7565	1449.8174	1486.6614	1831.5755	2915.596	3026.0222	3049.2763	3106.5106	3114.8532	3203.4093	3207.8606	3223.7473
O=CCC12CC3C(O1)C23	O=CC[C@@]12C[C@H]3[C@@H](O1)[C@@H]23	
InChI=1S/C7H8O2/c8-2-1-7-3-4-5(7)6(4)9-7/h2,4-6H,1,3H2	InChI=1S/C7H8O2/c8-2-1-7-3-4-5(7)6(4)9-7/h2,4-6H,1,3H2/t4-,5+,6-,7+/m1/s1
