18
gdb 65178	2.72379	1.33312	1.1204	3.8969	76.89	-0.2623	0.023	0.2853	1140.2966	0.147203	-401.93589	-401.927351	-401.926407	-401.969101	32.885	
O	 0.1136827299	 1.3698972031	 0.3472457649	-0.471042
C	 0.0520133986	-0.0029452137	 0.0802869307	 0.40769
C	 1.1142643238	-0.5995073501	-0.8107658661	-0.320946
C	 1.1632388929	-0.8086982778	 0.6894235881	-0.303083
C	-1.333159936	-0.5917845707	 0.0637250434	-0.06213
C	-2.4530196735	 0.0823088241	 0.7892685453	-0.299276
C	-2.4643464361	 0.0630625145	-0.7342991679	-0.189545
C	-2.2122793846	 1.2651875041	-1.4755951803	 0.290829
N	-1.9787494384	 2.2243455025	-2.0819133011	-0.357466
H	-0.1067552898	 1.8517117821	-0.4603395505	 0.301178
H	 0.8503748884	-1.4391284837	-1.4450729091	 0.114257
H	 1.8314152997	 0.0894232736	-1.2419300003	 0.124998
H	 1.9028408568	-0.247729234	 1.2481447445	 0.130416
H	 0.9381406751	-1.7927091789	 1.0860456433	 0.113772
H	-1.349097321	-1.676797032	 0.0267753366	 0.101657
H	-3.2050402842	-0.5171379181	 1.2883938234	 0.128083
H	-2.2183619033	 1.0301165012	 1.2576503862	 0.156102
H	-3.1693548684	-0.6055695463	-1.2161119013	 0.134507
62.8622	131.8981	182.8763	240.0068	259.546	331.6885	359.3479	452.2164	476.9432	503.9454	567.6061	634.1525	721.6466	769.8008	771.9639	828.4022	876.7629	909.3115	933.6754	950.1404	991.819	1011.8682	1036.2038	1057.86	1078.7803	1093.9617	1121.4442	1145.3355	1188.6456	1205.7012	1260.1934	1302.2238	1364.5335	1371.9631	1422.118	1453.7925	1476.5935	1499.4598	2339.4425	3134.1094	3139.2635	3150.3045	3157.6232	3172.5636	3220.6224	3235.4284	3248.2197	3769.9701
OC1(CC1)C1CC1C#N	OC1(CC1)[C@H]1C[C@H]1C#N	
InChI=1S/C7H9NO/c8-4-5-3-6(5)7(9)1-2-7/h5-6,9H,1-3H2	InChI=1S/C7H9NO/c8-4-5-3-6(5)7(9)1-2-7/h5-6,9H,1-3H2/t5-,6-/m0/s1
