20
gdb 116420	2.85005	1.29076	0.9395	5.2935	75.77	-0.2448	0.0171	0.2619	1252.5017	0.17403	-440.338151	-440.329715	-440.328771	-440.371443	32.344	
O	 0.0883592566	 1.4158533106	-0.1192754426	-0.429475
C	 0.0605188435	 0.0132431974	-0.048713113	-0.061268
C	-1.3694124442	-0.5558695754	 0.0472427935	-0.122309
C	-1.4121907416	-2.0777164385	-0.1457352595	-0.223656
C	-2.8097222778	-2.6221368143	 0.1544991501	-0.212748
C	-3.1821912169	-2.3320775782	 1.6068643733	-0.149409
N	-2.9131561856	-0.9391439164	 1.9449558642	-0.313461
C	-2.0240584346	-0.0977112463	 1.3515732446	 0.426748
O	-1.7893218917	 1.0050009466	 1.8395405515	-0.404988
H	-0.4441623783	 1.7102302632	 0.6378010909	 0.294658
H	 0.5294612553	-0.3691814657	-0.9632510153	 0.096312
H	 0.6523109691	-0.3695916498	 0.8017595917	 0.080323
H	-1.9520093657	-0.0777996679	-0.7532003227	 0.11334
H	-1.1101199097	-2.3250365454	-1.168697034	 0.107528
H	-0.6813593068	-2.5568192864	 0.5206093934	 0.104305
H	-3.5403880403	-2.1509882121	-0.514013707	 0.111733
H	-2.8612325878	-3.7017047924	-0.0170554565	 0.106954
H	-4.2444679115	-2.5344893059	 1.7813739215	 0.115643
H	-2.6141950293	-2.9987971459	 2.2732316957	 0.112033
H	-3.2866049526	-0.5790224972	 2.8124270102	 0.247734
64.9072	137.1309	168.9501	237.6314	277.5372	337.2316	360.3753	443.9173	476.1845	543.2704	603.6401	641.5963	666.363	702.4463	764.4962	874.5085	894.3628	935.0314	958.4154	1011.6117	1073.3005	1098.0971	1104.6186	1123.2686	1133.1192	1201.7871	1217.3424	1226.5738	1283.4885	1294.0279	1327.6415	1365.7805	1379.2033	1384.4354	1391.408	1408.1452	1478.7458	1485.1824	1490.0469	1500.8471	1512.3262	1530.1561	1742.9704	2945.5263	2988.9437	3011.2146	3020.8219	3036.0002	3049.9255	3060.0934	3074.2622	3088.4738	3595.8747	3667.1887
OCC1CCCNC1=O	OC[C@H]1CCCNC1=O	
InChI=1S/C6H11NO2/c8-4-5-2-1-3-7-6(5)9/h5,8H,1-4H2,(H,7,9)	InChI=1S/C6H11NO2/c8-4-5-2-1-3-7-6(5)9/h5,8H,1-4H2,(H,7,9)/t5-/m1/s1
