18
gdb 79722	2.45391	1.8277	1.44456	1.9597	74.73	-0.2301	-0.0278	0.2024	973.5742	0.147405	-401.889307	-401.881531	-401.880587	-401.921471	30.182	
C	-0.4665653172	 1.5303961144	 0.1885392953	-0.418443
C	 0.0038996896	 0.092373499	 0.0585646506	-0.067008
N	 0.5684552155	-0.4240001223	-1.2413996044	-0.145906
C	 1.5270262421	 0.4265956974	-1.992546406	-0.01173
C	 2.5721208763	 1.1735807385	-1.1946266017	-0.307779
C	 2.7370813122	-0.3025049195	-1.4136102262	-0.071874
C	 1.7342516746	-1.0807614112	-0.5462166249	-0.109211
C	 1.2629027582	-0.4416455272	 0.7905874763	 0.348736
O	 1.691119668	-0.3718354739	 1.9030395142	-0.291082
H	 0.3024405359	 2.2493298333	-0.0983799244	 0.132689
H	-1.3434243455	 1.6990549581	-0.4442900817	 0.131684
H	-0.7534434023	 1.7290093631	 1.2255806545	 0.13846
H	-0.8278524374	-0.5759744497	 0.3260806763	 0.116244
H	 1.3022844716	 0.694734515	-3.0183161064	 0.100501
H	 3.2141622606	 1.7957228372	-1.8107985073	 0.120929
H	 2.3965204088	 1.5783607037	-0.2035650375	 0.128567
H	 3.5890011286	-0.7420902318	-1.9144422272	 0.101539
H	 1.7893016904	-2.1714751342	-0.5803680897	 0.103682
115.2428	142.6754	181.8658	219.8065	264.6621	362.2571	487.2783	551.7564	584.4326	654.8359	723.3261	765.123	771.7963	826.4646	868.674	917.8089	950.1411	963.8845	982.9475	994.0857	1030.3301	1060.5997	1071.7582	1082.4328	1092.9927	1160.0993	1167.4699	1177.1319	1188.9716	1241.6746	1257.5704	1279.8746	1334.2253	1355.4988	1400.5558	1484.2867	1489.9098	1502.9972	1893.9646	2999.5165	3048.7002	3083.2124	3112.6511	3128.4617	3141.5154	3174.5194	3201.9168	3211.6269
CC1N2C3CC3C2C1=O	C[C@H]1N2[C@H]3C[C@H]3[C@H]2C1=O	
InChI=1S/C7H9NO/c1-3-7(9)6-4-2-5(4)8(3)6/h3-6H,2H2,1H3	InChI=1S/C7H9NO/c1-3-7(9)6-4-2-5(4)8(3)6/h3-6H,2H2,1H3/t3-,4-,5+,6+/m1/s1
