19
gdb 84118	2.46103	1.67824	1.16617	3.168	76.67	-0.2415	0.0133	0.2548	1092.732	0.160239	-423.021336	-423.013256	-423.012311	-423.053871	31.297	
C	 0.1036219723	 1.4802635804	 0.0512900142	-0.493786
C	-0.0032942585	-0.0110120029	-0.0223842814	 0.312891
C	-0.0205786611	-0.7742064667	-1.1186733149	-0.211951
C	-0.1367809037	-2.258415467	-0.8340367923	 0.091581
O	 0.8811330998	-3.0473134998	-1.4199288126	-0.436046
C	-0.0788527488	-2.3059995652	 0.7143506752	 0.073098
O	 1.2855095484	-2.5055910832	 1.1739851557	-0.304188
C	 1.2946459241	-1.2232762926	 1.8471069569	-0.079039
C	-0.0765978473	-0.8517496981	 1.2329396102	-0.170514
H	 0.9750751593	 1.7872897986	 0.6438734697	 0.126839
H	 0.1931654561	 1.9284455678	-0.9414506916	 0.12977
H	-0.7750662964	 1.9153224409	 0.5445324429	 0.127704
H	 0.050562707	-0.4018684501	-2.1354676134	 0.094861
H	-1.0845629061	-2.6644810436	-1.2101589255	 0.082359
H	 1.6433547576	-2.9524289229	-0.8303068487	 0.286734
H	-0.7576464922	-3.032556669	 1.169613462	 0.078111
H	 1.2933188267	-1.3514237407	 2.9363911531	 0.104144
H	 2.1522269297	-0.6081133974	 1.5521005784	 0.106673
H	-0.8492197568	-0.5388080185	 1.939123302	 0.080759
108.115	142.0194	186.5536	219.7095	279.1241	316.7128	428.8359	482.7087	534.9673	554.5425	574.8071	744.6328	794.2417	828.7614	858.8193	894.0556	916.7599	972.6431	1000.1163	1016.0191	1027.3477	1040.3688	1077.085	1083.6837	1094.2042	1166.1724	1170.1862	1228.3367	1254.7956	1261.8242	1285.9356	1312.5493	1337.0076	1352.1209	1359.6075	1414.11	1444.8616	1479.5168	1487.2398	1515.99	1713.1228	3016.5948	3018.7731	3022.7476	3062.1528	3066.2341	3069.216	3085.9415	3115.671	3188.6002	3730.8291
CC1=CC(O)C2OCC12	CC1=C[C@@H](O)[C@H]2OC[C@@H]12	
InChI=1S/C7H10O2/c1-4-2-6(8)7-5(4)3-9-7/h2,5-8H,3H2,1H3	InChI=1S/C7H10O2/c1-4-2-6(8)7-5(4)3-9-7/h2,5-8H,3H2,1H3/t5-,6+,7-/m0/s1
