15
gdb 77030	2.35828	1.24357	0.97716	6.0234	69.95	-0.2934	0.009	0.3023	1199.3535	0.111898	-416.815019	-416.806111	-416.805167	-416.849552	31.332	
O	-0.0184082049	 1.429130834	 0.0018015723	-0.398819
C	 0.0423926067	 0.0451587903	-0.0156246963	 0.065612
C	-1.2591566782	-0.6705279327	 0.1429221649	-0.050781
C	-2.5413186077	 0.1250246346	 0.329815897	-0.363532
C	-3.7278456203	-0.677623479	 0.0336835237	 0.264788
N	-4.6559453976	-1.3284206239	-0.188310247	-0.298475
C	-0.5480978766	-0.7128708202	-1.2124158822	-0.235308
C	-1.0351285243	 0.0626085406	-2.3147607719	 0.292319
N	-1.3992433812	 0.7124016828	-3.2003140482	-0.331677
H	 0.5557086964	 1.7832776927	-0.6869708393	 0.309908
H	 0.9287206926	-0.3960223128	 0.4384302096	 0.118293
H	-1.2300237035	-1.609673047	 0.6850845504	 0.130952
H	-2.605669827	 0.4756854312	 1.3660940468	 0.16514
H	-2.5378594296	 1.0159561243	-0.3028330713	 0.186072
H	-0.0804554047	-1.650518245	-1.4921997185	 0.145509
42.0732	116.5588	119.2679	154.0692	222.5998	284.503	341.3258	382.9926	396.7733	505.4849	564.0136	612.2609	659.6882	766.4527	801.7405	904.5175	921.9003	955.9387	1007.4594	1035.6992	1106.4467	1129.369	1162.2177	1235.3504	1238.2791	1303.0766	1316.0838	1363.9325	1395.059	1455.3204	1461.4428	2352.9546	2367.8047	3056.587	3112.1136	3114.5568	3170.7542	3179.2032	3801.4866
OC1C(CC#N)C1C#N	O[C@H]1[C@@H](CC#N)[C@H]1C#N	
InChI=1S/C6H6N2O/c7-2-1-4-5(3-8)6(4)9/h4-6,9H,1H2	InChI=1S/C6H6N2O/c7-2-1-4-5(3-8)6(4)9/h4-6,9H,1H2/t4-,5+,6-/m0/s1
