13
gdb 49378	2.20101	1.44124	0.98563	3.3652	66.25	-0.2796	-0.0564	0.2232	1146.0332	0.08651	-456.552206	-456.543953	-456.543009	-456.585889	28.942	
O	-0.3672955049	 0.7166033759	-0.696304751	-0.228664
C	 0.3651491485	 0.9271666317	 0.2343066937	 0.150294
C	 1.4322157678	 1.9989233486	 0.2371749212	-0.31813
C	 1.5051444847	 2.9222385637	-0.995934899	-0.068449
O	 1.1105687033	 4.0738180979	-0.1437019247	-0.234654
C	 1.0337681141	 3.2997728448	 0.974923246	 0.454754
O	 0.7388684418	 3.6147477184	 2.078893078	-0.304326
C	 2.7910130261	 3.1072582101	-1.6256136994	 0.321379
C	 3.8630579184	 3.2392987345	-2.1506627562	-0.410123
H	 0.2932655301	 0.351780021	 1.1798757952	 0.114387
H	 2.3854228656	 1.6002006437	 0.5924212232	 0.150637
H	 0.7107729011	 2.7217455473	-1.7173229649	 0.155848
H	 4.8071028436	 3.3639692924	-2.6225135619	 0.217045
71.2285	100.8436	146.9906	165.5482	221.3128	280.3402	431.5639	497.067	542.1086	626.5112	643.0825	683.7435	694.0835	740.5988	841.0522	885.2546	959.2442	1035.4564	1055.0161	1079.1643	1119.5788	1160.1115	1243.821	1300.362	1381.7361	1416.707	1822.4395	1944.2599	2246.8056	2929.3117	3101.1654	3108.3528	3498.6444
O=CC1C(OC1=O)C#C	O=C[C@H]1[C@@H](OC1=O)C#C	
InChI=1S/C6H4O3/c1-2-5-4(3-7)6(8)9-5/h1,3-5H	InChI=1S/C6H4O3/c1-2-5-4(3-7)6(8)9-5/h1,3-5H/t4-,5-/m0/s1
