15
gdb 42734	2.66661	1.86434	1.42655	4.0619	65.15	-0.2347	-0.0389	0.1958	916.6111	0.112703	-457.715619	-457.708739	-457.707795	-457.746939	26.715	
O	 0.0093606392	 0.0494348043	 0.0389900818	-0.31857
C	-0.0327303512	 1.2459702854	 0.0485447223	 0.385599
C	-1.2184345594	 2.2271916772	-0.0105520452	-0.05207
C	-0.8500268957	 3.2522422147	 1.0920223872	-0.256551
C	 0.2632142987	 3.531190122	 0.0537871653	-0.036324
O	-0.6926530929	 3.1685416208	-1.0072059548	-0.29218
C	 1.1090929541	 2.2693883319	 0.1055226943	 0.385713
C	 2.4169331256	 2.0401504686	 0.7228732311	-0.270735
O	 2.2640175378	 2.1096066645	-0.6975850915	-0.269888
H	-2.2177689928	 1.8456831227	-0.205801719	 0.109428
H	-1.5781122596	 4.0627382947	 1.1395205843	 0.132081
H	-0.5749493334	 2.8958173105	 2.0882560392	 0.116312
H	 0.7537174408	 4.4926967518	-0.0853929707	 0.104601
H	 2.9491329751	 2.8739659058	 1.1791294497	 0.12363
H	 2.6447959938	 1.0518078851	 1.1182898459	 0.138955
120.2589	203.0692	226.2085	264.9113	419.2238	454.3474	545.6985	580.5026	680.0415	753.7825	790.325	851.0202	867.6881	868.7397	914.2282	923.9947	979.8681	995.1925	1009.2374	1053.9185	1120.6113	1124.9769	1166.1221	1176.333	1222.8378	1224.3716	1261.6491	1270.5989	1279.3557	1440.8072	1480.6905	1525.3858	1890.6446	3068.0814	3084.9287	3143.2835	3147.5041	3161.3952	3179.0616
O=C1C2CC(O2)C11CO1	O=C1[C@H]2C[C@H](O2)[C@]21CO2	
InChI=1S/C6H6O3/c7-5-3-1-4(9-3)6(5)2-8-6/h3-4H,1-2H2	InChI=1S/C6H6O3/c7-5-3-1-4(9-3)6(5)2-8-6/h3-4H,1-2H2/t3-,4+,6+/m1/s1
