18
gdb 97601	5.04312	0.56496	0.53472	5.9267	83.09	-0.2695	0.0149	0.2844	2052.2914	0.145179	-401.936705	-401.926077	-401.925133	-401.974387	36.196	
C	 0.1773987198	 1.4520465631	-0.3771639513	-0.366299
C	-0.0589574993	 0.1369895561	 0.3885117289	-0.318993
C	-1.4332348653	-0.342659017	 0.2863272905	 0.122491
C	-2.5751368207	-0.7103245064	 0.1699132977	 0.006538
C	-3.9445949015	-1.2144587159	 0.063821307	-0.052317
O	-4.0131763491	-2.4905904702	-0.5486985141	-0.404176
C	-4.6142472636	-1.2240356811	 1.4676369905	-0.345809
C	-6.0036301963	-1.670271751	 1.4163176014	 0.265735
N	-7.107535473	-2.0085611354	 1.3800889619	-0.302183
H	 1.2188920911	 1.7687800484	-0.271939855	 0.120859
H	-0.0403355707	 1.3264872283	-1.4409095298	 0.134403
H	-0.4657617625	 2.2473722652	 0.0085110267	 0.131329
H	 0.6189384068	-0.6376143327	 0.0082539041	 0.137145
H	 0.2006928876	 0.2727298202	 1.4459926063	 0.134383
H	-4.5340425949	-0.5564816972	-0.5849272354	 0.137065
H	-3.3147734148	-3.037528763	-0.1718433007	 0.289011
H	-4.0456783056	-1.8838483888	 2.1319984222	 0.150705
H	-4.573341168	-0.2185638727	 1.8994006094	 0.160114
21.3824	55.7799	75.3863	117.3581	160.7062	200.3858	217.6493	286.2725	332.9924	364.3058	397.4691	469.6057	508.1289	547.3439	561.9014	775.3439	786.1446	861.4432	952.2645	961.6427	1015.1564	1065.5689	1080.5122	1105.5273	1160.7304	1202.6533	1272.294	1286.2165	1305.6261	1348.9029	1358.8232	1410.6203	1420.9778	1456.6032	1473.4859	1495.2549	1505.2151	2359.8923	2366.9536	3024.72	3046.0169	3048.1933	3053.3047	3055.3595	3096.7126	3122.8633	3128.1693	3806.3014
CCC#CC(O)CC#N	CCC#C[C@@H](O)CC#N	
InChI=1S/C7H9NO/c1-2-3-4-7(9)5-6-8/h7,9H,2,5H2,1H3	InChI=1S/C7H9NO/c1-2-3-4-7(9)5-6-8/h7,9H,2,5H2,1H3/t7-/m1/s1
