19
gdb 106355	3.38508	1.24326	1.11005	3.1661	75.2	-0.2304	-0.0165	0.2139	1159.5091	0.158946	-423.029545	-423.021362	-423.020418	-423.062374	31.726	
C	-0.2060345139	 1.5270711482	-0.0439225699	-0.388568
C	 0.0654345862	 0.0185513309	 0.0029800051	-0.289867
C	 0.8056632555	-0.4992118537	-1.2034753517	 0.428491
C	 0.8976368012	-2.0085367821	-1.5582364422	-0.297834
C	 0.956371023	-1.382589031	-2.9688628911	-0.035186
O	 0.1008570143	-0.2982767106	-2.4912415687	-0.333329
C	 2.3203505364	-0.6727527128	-2.9334717583	 0.446342
O	 3.2121750502	-0.6725082053	-3.7334389314	-0.322058
C	 2.2079984822	 0.0427943554	-1.5670789607	-0.388721
H	 0.7221963977	 2.1064663235	-0.0279340222	 0.120351
H	-0.7534141316	 1.7912007056	-0.9530112731	 0.142104
H	-0.8049283238	 1.8365639554	 0.817063182	 0.117562
H	 0.6474644151	-0.2381700458	 0.8974625629	 0.10481
H	-0.8835033409	-0.5250037916	 0.0776721675	 0.107896
H	 1.746090128	-2.5940690571	-1.1935892018	 0.108546
H	-0.0493284298	-2.5235363661	-1.3886258082	 0.118744
H	 0.6331305659	-1.869651665	-3.8860765843	 0.098966
H	 2.2195701983	 1.1284198618	-1.6858151012	 0.137497
H	 3.0123915461	-0.2509588396	-0.8865451128	 0.124252
83.6079	114.3031	198.3218	208.3945	300.2195	364.033	438.2587	461.3998	517.2444	558.6957	631.3549	675.7848	764.4227	773.632	818.9528	833.8126	889.8974	935.0857	964.752	980.7753	1012.3595	1026.0668	1059.5752	1096.9609	1104.1403	1168.3375	1187.3515	1206.4518	1223.1468	1251.0158	1256.0676	1300.1141	1332.8524	1392.083	1411.0071	1450.1282	1474.2758	1487.1682	1500.1789	1509.1786	1884.4442	3027.9777	3044.8093	3062.08	3065.6868	3069.2098	3112.6557	3122.8708	3124.242	3136.9108	3156.9199
CCC12CC(O1)C(=O)C2	CC[C@@]12C[C@@H](O1)C(=O)C2	
InChI=1S/C7H10O2/c1-2-7-3-5(8)6(4-7)9-7/h6H,2-4H2,1H3	InChI=1S/C7H10O2/c1-2-7-3-5(8)6(4-7)9-7/h6H,2-4H2,1H3/t6-,7-/m1/s1
