21
gdb 63261	2.05197	1.54635	1.37167	2.2062	78.44	-0.2443	-0.025	0.2193	1113.0787	0.17865	-424.244139	-424.233851	-424.232907	-424.27842	38.811	
C	-0.6112109948	 1.487336289	 0.1121857528	-0.460847
C	-0.0213266761	 0.081167767	 0.0573199409	 0.246463
C	-1.0585121916	-0.9268573635	-0.4449816394	-0.42933
C	 1.3378543357	-0.078343728	-0.7165818979	-0.383521
C	 1.7528932758	-1.0304744344	 0.4028195245	 0.334843
O	 2.3943906357	-2.0449599661	 0.4528251872	-0.321819
C	 0.7050922745	-0.4698358184	 1.3717999807	 0.280489
C	 1.2498945757	 0.6109791952	 2.3055431811	-0.43173
O	 0.0273077043	-1.4341003997	 2.1401717725	-0.473367
H	 0.1197164209	 2.2334342038	 0.4347794811	 0.113301
H	-0.97438932	 1.7859145065	-0.877512501	 0.117998
H	-1.4625759509	 1.5296302282	 0.8005278497	 0.124576
H	-1.4295169743	-0.6294891879	-1.4315094196	 0.111514
H	-0.6403902547	-1.9345807766	-0.5356256121	 0.115638
H	-1.906434993	-0.986313797	 0.2424795032	 0.130234
H	 1.3147370061	-0.5002957817	-1.7235944446	 0.126465
H	 1.9295488015	 0.8422924596	-0.7239299112	 0.124576
H	 1.8151103768	 1.3816211737	 1.7748333805	 0.116083
H	 0.4233565049	 1.091578043	 2.83708993	 0.132607
H	 1.9078014635	 0.1458638727	 3.0445158918	 0.131635
H	 0.4416343801	-2.2867108455	 1.9574952698	 0.294192
83.1543	148.8653	172.7337	207.5396	233.6801	241.3577	250.6247	298.402	305.0749	333.9874	363.2267	410.1575	444.9775	514.2607	581.4357	644.3386	690.1466	788.3628	818.0809	869.2681	943.3354	963.3557	981.448	1008.8282	1037.0631	1070.7923	1108.9616	1137.8451	1156.6134	1202.5925	1256.9547	1265.429	1282.7054	1364.1685	1400.5957	1406.997	1422.6594	1449.9835	1479.2646	1483.2914	1488.5762	1493.1072	1506.6355	1508.6358	1867.1024	3030.251	3035.5735	3044.3796	3058.7115	3091.7475	3099.4207	3112.0188	3116.7156	3119.1196	3121.7796	3125.7693	3775.9743
CC1(C)CC(=O)C1(C)O	CC1(C)CC(=O)[C@]1(C)O	
InChI=1S/C7H12O2/c1-6(2)4-5(8)7(6,3)9/h9H,4H2,1-3H3	InChI=1S/C7H12O2/c1-6(2)4-5(8)7(6,3)9/h9H,4H2,1-3H3/t7-/m0/s1
