17
gdb 34343	2.87519	1.60201	1.30341	4.0655	76.32	-0.2488	0.0179	0.2667	998.2613	0.137843	-380.817294	-380.810105	-380.809161	-380.84878	28.701	
N	-0.0021533329	-1.1628102641	-0.002416607	-0.346458
C	-0.0063854913	-0.0053428608	 0.0060736053	 0.189034
C	-0.0094266842	 1.4347586077	 0.0168906362	 0.204103
C	-0.465048257	 2.1986390272	-1.2737222816	-0.273908
C	 0.8723939021	 3.00013755	-1.2798913499	-0.223435
C	 1.3358964113	 2.2617073923	 0.0073910763	-0.07875
C	 0.9328272827	 2.8618042612	 1.3724609333	-0.046242
N	-0.3695930816	 3.544975373	 1.1901882942	-0.337721
C	-0.3356133165	 2.0846573338	 1.3948050885	-0.112902
H	-0.5893907162	 1.5321855146	-2.1283990919	 0.120484
H	-1.3670213068	 2.7936259831	-1.1339951272	 0.126421
H	 1.5040828852	 2.7843477248	-2.1438030749	 0.106926
H	 0.7633740058	 4.0792537267	-1.1706691447	 0.120936
H	 2.2913274776	 1.7396918661	 0.0008585202	 0.096636
H	 1.595155664	 3.1450353422	 2.180694981	 0.103864
H	-0.6231059273	 3.9692107465	 2.081079964	 0.240014
H	-0.8738022748	 1.6127142257	 2.2070822782	 0.110999
135.8593	155.4579	211.4143	299.4355	386.688	474.0089	531.2378	548.6497	609.8607	688.5725	734.3142	796.2652	814.8276	835.2502	874.9333	917.6424	936.9101	951.0622	976.6516	1015.5204	1029.4968	1069.6052	1081.0879	1129.9656	1141.8958	1149.0733	1217.0178	1238.818	1254.0497	1263.303	1271.379	1318.5089	1327.5947	1372.583	1457.7035	1476.822	2342.9928	3078.3118	3088.2502	3129.437	3138.0091	3155.3979	3189.2161	3201.8875	3488.9872
N#CC12CCC1C1NC21	N#C[C@]12CC[C@H]1[C@H]1N[C@@H]21	
InChI=1S/C7H8N2/c8-3-7-2-1-4(7)5-6(7)9-5/h4-6,9H,1-2H2	InChI=1S/C7H8N2/c8-3-7-2-1-4(7)5-6(7)9-5/h4-6,9H,1-2H2/t4-,5+,6+,7+/m0/s1
