23
gdb 107624	2.1357	1.49119	1.22286	1.524	84.91	-0.2452	0.082	0.3272	1196.9228	0.206021	-388.297739	-388.288477	-388.287533	-388.331472	35.796	
C	 0.8897695217	-0.4232654008	 1.4356394443	-0.38195
C	 0.0911870843	-0.0711574485	 0.1728615214	-0.286649
C	 0.7768476923	-0.4220349794	-1.1322565476	 0.356615
C	-0.0365791044	-0.8551049203	-2.3305740828	-0.349931
C	 0.8893231083	-1.8364968964	-1.6560821597	-0.104307
C	 2.2749322084	-1.9426363871	-2.2640774899	-0.097105
O	 2.6851483783	-0.6004000984	-2.5026689598	-0.272058
C	 2.112838323	 0.234989857	-1.4920195009	 0.073916
C	 2.0418929224	 1.6572545159	-2.0264250241	-0.403765
H	 1.1438399233	-1.4883422262	 1.4564026656	 0.116799
H	 1.8245537313	 0.141601676	 1.5018658907	 0.121009
H	 0.3081577847	-0.1993505007	 2.3352853735	 0.112492
H	-0.8739563183	-0.5907966972	 0.2062528134	 0.096473
H	-0.1498721296	 1.000685122	 0.1803321072	 0.099583
H	-1.1022761096	-0.9890895777	-2.1777540468	 0.10462
H	 0.2375759693	-0.4886157615	-3.3148664492	 0.119043
H	 0.4844116341	-2.6816115589	-1.1104307951	 0.083148
H	 2.9593791185	-2.4520174065	-1.5653680379	 0.087572
H	 2.3111453076	-2.4685089719	-3.2245285341	 0.104557
H	 2.7595510211	 0.2198189069	-0.5978914507	 0.06229
H	 1.3761466607	 1.7145862263	-2.8920415096	 0.120943
H	 1.6695379239	 2.3378806266	-1.2541291977	 0.112803
H	 3.0353379684	 1.9982731406	-2.3308356802	 0.1239
74.2231	140.0178	184.0707	198.8666	216.5826	257.2419	270.3717	350.6227	398.3487	442.6071	553.0445	556.0435	668.0035	718.3762	777.353	834.0069	859.7869	891.132	914.1791	931.9196	985.0315	1000.0518	1041.4593	1063.5659	1066.4335	1088.9079	1090.2897	1108.5095	1127.298	1130.8316	1153.0545	1237.0374	1258.4453	1264.6263	1326.0832	1341.1323	1358.6852	1378.0897	1388.6585	1410.0982	1412.7167	1417.6483	1480.1111	1485.4728	1488.3588	1495.8451	1499.077	1507.977	1515.734	2948.8351	2966.0538	3013.7123	3036.6889	3042.361	3049.2689	3060.5311	3103.7149	3107.4998	3113.0188	3122.1462	3125.7499	3172.7705	3212.1735
CCC12CC1COC2C	CC[C@]12C[C@H]1CO[C@H]2C	
InChI=1S/C8H14O/c1-3-8-4-7(8)5-9-6(8)2/h6-7H,3-5H2,1-2H3	InChI=1S/C8H14O/c1-3-8-4-7(8)5-9-6(8)2/h6-7H,3-5H2,1-2H3/t6-,7-,8+/m0/s1
