23
gdb 90076	2.958	1.52612	1.35914	0.0849	89.58	-0.2527	0.0858	0.3386	1083.4311	0.208799	-351.112268	-351.104654	-351.10371	-351.143736	32.36	
C	-0.236317017	 1.5510341463	-0.0610290054	-0.402406
C	-0.0267739443	 0.0409051999	-0.0221761224	-0.030623
C	 0.9570309531	-0.5690239499	-1.1046848028	-0.37839
C	 2.022871168	-0.6753425609	 0.0070397664	 0.3574
C	 3.0621876184	-1.5907178503	 0.7064229539	-0.319058
C	 3.149237096	-0.336808184	 1.6688356219	-0.01104
C	 2.9662133297	 0.5035951411	 0.3818565524	-0.25296
C	 1.7322887645	-0.1597981293	 2.3064730535	-0.274818
C	 0.9160362944	-0.6059757984	 1.0633400569	 0.034215
H	 0.6979216945	 2.1129097136	-0.1280784961	 0.119325
H	-0.8438502636	 1.8261632369	-0.930723982	 0.113102
H	-0.7677986091	 1.8934824227	 0.8339341191	 0.113901
H	-1.0125097924	-0.4344254454	-0.0303668323	 0.06741
H	 0.602180858	-1.539127201	-1.4647574015	 0.100227
H	 1.2035966543	 0.0567059956	-1.9676790504	 0.093658
H	 2.7024024699	-2.5427215573	 1.1083067183	 0.086041
H	 4.0059853361	-1.7344689837	 0.1733001907	 0.092091
H	 4.0126188305	-0.2002495147	 2.3216464544	 0.058753
H	 3.85790895	 0.5224233851	-0.2510480369	 0.089458
H	 2.5655734507	 1.5134466188	 0.4889820292	 0.088887
H	 1.5545819721	-0.798189572	 3.1766662828	 0.089133
H	 1.5797362269	 0.8787868141	 2.6175926429	 0.098449
H	 0.5176019595	-1.610945567	 1.2428998375	 0.067242
158.9111	193.7719	221.0512	289.4098	366.2983	402.557	434.4018	524.2227	577.3516	606.9348	728.5274	755.1802	790.3488	804.8132	852.3072	856.1592	875.6019	923.3078	946.7068	958.1559	983.1508	992.5822	1025.1225	1033.3108	1070.3329	1078.4038	1103.5325	1124.7763	1134.0199	1177.3448	1184.9027	1190.6383	1206.1374	1227.7989	1240.8209	1255.7138	1274.6187	1285.1857	1300.0759	1307.6474	1363.6783	1390.2248	1415.1404	1479.6134	1484.5804	1493.9643	1497.1321	1500.9311	1527.3974	3022.9057	3031.2157	3044.1253	3045.1522	3047.1335	3053.2133	3060.5434	3087.9857	3090.8139	3100.894	3104.6807	3107.6929	3112.8548	3128.3303
CC1CC23CC(C2)CC13	C[C@H]1C[C@@]23C[C@@H](C2)C[C@@H]13	
InChI=1S/C9H14/c1-6-3-9-4-7(5-9)2-8(6)9/h6-8H,2-5H2,1H3	InChI=1S/C9H14/c1-6-3-9-4-7(5-9)2-8(6)9/h6-8H,2-5H2,1H3/t6-,7-,8-,9+/m0/s1
