25
gdb 100106	2.43051	1.04648	0.89455	3.1318	85.77	-0.2418	0.0684	0.3102	1485.6631	0.225231	-426.630047	-426.618402	-426.617457	-426.66684	43.06	
C	 0.137706999	 1.3846984215	 0.0489686467	-0.249856
O	-0.0135922002	-0.0199439093	 0.0173585949	-0.283887
C	-1.3528032498	-0.5695208072	 0.0348579798	 0.343185
C	-2.1315954644	-0.0815954485	 1.2668834576	-0.426536
C	-2.0956746946	-0.1880414172	-1.2547215644	-0.421295
C	-1.1436042072	-2.0995004801	 0.0595774506	-0.220878
C	-0.3460663122	-2.6722792108	 1.2434746108	 0.137875
C	-0.3730290463	-4.1984096264	 1.2445906598	-0.381252
O	 1.0163714466	-2.2796526525	 1.202518321	-0.449733
H	 1.2118471954	 1.5796902525	-0.0002605525	 0.133141
H	-0.3409663342	 1.875221025	-0.8082456428	 0.113874
H	-0.2541450801	 1.8301208699	 0.9726635878	 0.113541
H	-2.3975383691	 0.9760936422	 1.183918314	 0.114139
H	-3.0644249589	-0.6443540936	 1.3671748993	 0.119767
H	-1.5512974709	-0.2175042592	 2.18298176	 0.131285
H	-1.5146135564	-0.4869473294	-2.1318394094	 0.123586
H	-3.0651775983	-0.6936129346	-1.2950776353	 0.118864
H	-2.2874246707	 0.8870988513	-1.3144105321	 0.113016
H	-2.1344228503	-2.5685636256	 0.037697436	 0.091369
H	-0.6272969885	-2.3894578462	-0.863790022	 0.103196
H	-0.8104638266	-2.3263977177	 2.1840263824	 0.052647
H	 0.0149056581	-4.5889644707	 0.2980321655	 0.115254
H	 0.2600558438	-4.5777219859	 2.0514278937	 0.12099
H	-1.3894686385	-4.5771808381	 1.3916217275	 0.101205
H	 1.0223635944	-1.3623954196	 0.8962570912	 0.286501
38.9092	70.9893	133.4305	161.023	186.9111	234.0559	237.2348	255.6628	267.916	306.0578	332.9512	363.3843	403.1636	438.5683	459.6591	495.8689	529.441	579.9979	731.1236	843.3424	851.9079	907.932	921.5297	954.642	978.4921	1004.018	1062.4612	1083.4896	1107.7626	1146.6538	1180.9101	1187.6749	1201.6759	1217.0673	1264.5504	1298.2652	1324.4648	1355.786	1387.8046	1395.1096	1405.5537	1412.914	1456.2138	1464.104	1478.0484	1480.8955	1482.5279	1489.2557	1497.1636	1500.4488	1503.411	1510.4059	1516.4477	2936.4537	3005.442	3026.7564	3036.8696	3040.0646	3047.0764	3061.8154	3073.9145	3107.861	3108.7515	3112.1815	3116.0145	3117.4841	3119.6059	3124.0273	3731.2234
COC(C)(C)CC(C)O	COC(C)(C)C[C@@H](C)O	
InChI=1S/C7H16O2/c1-6(8)5-7(2,3)9-4/h6,8H,5H2,1-4H3	InChI=1S/C7H16O2/c1-6(8)5-7(2,3)9-4/h6,8H,5H2,1-4H3/t6-/m1/s1
