17
gdb 93430	2.56496	1.52555	1.16392	4.2626	71.42	-0.2712	-0.0488	0.2225	1072.7067	0.136898	-458.99522	-458.987188	-458.986244	-459.028066	30.395	
O	 0.5064144862	 1.3568954104	 0.0070077514	-0.436003
C	 0.0763615678	 0.0106749712	-0.053817541	 0.111815
C	 0.5072503725	-0.7533837143	 1.2013791259	-0.121941
O	 0.3360194498	 0.0448815314	 2.3791031939	-0.24892
C	-0.8918968254	 0.2751027664	 2.9345509397	 0.384976
O	-0.9279534848	 0.7238007295	 4.0506431972	-0.321101
C	-2.1376978329	 0.0209847969	 2.1724522633	-0.177469
C	-2.36511724	-0.0814687316	 0.8574513824	-0.050566
C	-1.4328132752	-0.1089710496	-0.3145842287	-0.286074
H	 0.556114794	 1.6049413305	 0.9382493012	 0.298908
H	 0.5903940689	-0.4398055974	-0.9125071309	 0.092133
H	-0.0298373912	-1.7032515098	 1.2965123072	 0.121793
H	 1.5799823135	-0.9550780788	 1.1753942634	 0.134554
H	-2.9916939829	 0.0313943169	 2.8420603332	 0.124062
H	-3.4121331612	-0.1760916963	 0.5707202014	 0.114998
H	-1.7184567496	 0.6855369125	-1.0162431659	 0.139279
H	-1.6271504393	-1.0494434879	-0.8524856637	 0.119558
76.7829	94.8286	245.5515	310.5209	318.7835	344.1384	352.6604	406.5785	487.122	519.5597	646.1709	708.7462	765.1694	804.603	828.551	869.8836	907.3024	940.5678	991.5886	1036.6069	1061.8475	1115.4097	1123.6733	1189.3508	1226.7509	1265.7825	1283.7323	1322.387	1368.6538	1403.7333	1410.2649	1428.1419	1429.4364	1445.3216	1494.2871	1704.9977	1813.0471	2998.562	3027.8635	3047.5921	3053.3939	3118.3495	3132.4171	3187.9615	3782.6222
OC1COC(=O)C=CC1	O[C@H]1COC(=O)C=CC1	
InChI=1S/C6H8O3/c7-5-2-1-3-6(8)9-4-5/h1,3,5,7H,2,4H2	InChI=1S/C6H8O3/c7-5-2-1-3-6(8)9-4-5/h1,3,5,7H,2,4H2/t5-/m1/s1
