20
gdb 101397	3.15698	0.95158	0.86018	2.7334	75.73	-0.2439	-0.0279	0.216	1399.7042	0.169208	-440.271542	-440.261658	-440.260714	-440.306912	35.661	
C	 0.1210998923	 1.4949911744	-0.166829074	-0.430758
C	 0.0574782636	-0.0290113207	-0.0118934775	 0.020186
C	 0.7239044495	-0.5020059327	 1.2914690025	-0.0738
O	 2.0975666505	-0.161308893	 1.3823429478	-0.422813
C	-1.3771817147	-0.5659036471	-0.0724349537	-0.111739
N	-2.3682533373	 0.0535479817	 0.8603790952	-0.324491
C	-3.3681313482	 0.2787547355	-0.2179122215	-0.281601
C	-2.2881896244	-0.1244470554	-1.2346694245	 0.386249
O	-2.1797579124	-0.082633269	-2.4227020961	-0.29033
H	 1.1578085571	 1.8427963558	-0.1281682049	 0.108087
H	-0.2870181733	 1.8125099696	-1.1309233701	 0.131525
H	-0.4492851274	 1.989931615	 0.6253210172	 0.130257
H	 0.6000951797	-0.4922754171	-0.846541169	 0.096179
H	 0.157249958	-0.1123450472	 2.1516644823	 0.095948
H	 0.6878252421	-1.5965601609	 1.344055128	 0.101981
H	 2.1596180435	 0.7821269909	 1.5571121585	 0.286062
H	-1.3574767725	-1.6668051194	-0.0194307736	 0.091985
H	-2.6906046407	-0.57211524	 1.5885101187	 0.226757
H	-4.2250670245	-0.4088660304	-0.2290905385	 0.124984
H	-3.7423718912	 1.30593977	-0.288537037	 0.135333
54.4039	86.8626	117.2955	131.8385	224.3543	232.932	253.6308	301.4436	320.2945	414.5682	448.0876	548.6016	600.4135	654.2281	773.2454	780.7019	863.3833	911.7135	925.1881	987.3001	992.8191	1018.0979	1068.4462	1087.3893	1088.0189	1111.0426	1126.3613	1149.2958	1215.7231	1245.0677	1269.8569	1312.8149	1325.3247	1368.6507	1373.6585	1390.638	1403.9656	1422.3505	1472.6574	1500.0914	1501.8832	1512.1543	1911.3638	2972.0465	2983.6706	3013.8034	3030.2557	3039.3046	3059.9177	3070.0725	3106.6302	3115.5601	3551.2091	3832.8931
CC(CO)C1NCC1=O	C[C@@H](CO)[C@H]1NCC1=O	
InChI=1S/C6H11NO2/c1-4(3-8)6-5(9)2-7-6/h4,6-8H,2-3H2,1H3	InChI=1S/C6H11NO2/c1-4(3-8)6-5(9)2-7-6/h4,6-8H,2-3H2,1H3/t4-,6+/m0/s1
