23
gdb 94843	3.55724	1.08617	1.00264	1.5448	85.55	-0.2371	0.0811	0.3183	1318.4845	0.206627	-388.294704	-388.285775	-388.284831	-388.328636	34.41	
C	-0.3956557871	 1.3824861696	 0.0660472051	-0.398881
C	 0.0136312619	-0.0616280772	-0.1754032812	 0.159887
C	 1.2212012932	-0.2692688111	-1.0952085192	-0.293585
C	 1.7435976825	-1.6367301708	-0.6342650623	 0.33361
C	 1.1474377133	-2.8416383218	-1.431293336	-0.260579
C	 2.4742354389	-2.9320150207	-2.2308880102	-0.210244
C	 3.1501527486	-2.0539151335	-1.1431068776	-0.292624
C	 1.4847451511	-1.5527262861	 0.8729063905	-0.132946
O	 0.3950866993	-0.6548869482	 1.0727018359	-0.281056
H	 0.448927394	 1.9612019523	 0.4532988834	 0.116236
H	-0.7416430726	 1.8457311161	-0.8638689605	 0.109957
H	-1.2082178785	 1.4322730371	 0.7964164631	 0.124486
H	-0.8502975345	-0.6156332511	-0.5815346509	 0.063625
H	 0.9597609387	-0.2353293024	-2.156668488	 0.097531
H	 1.9728212945	 0.5076351113	-0.9039989888	 0.094706
H	 0.9940790109	-3.7143291114	-0.7893374309	 0.098075
H	 0.226500595	-2.6616535174	-1.9935444273	 0.095076
H	 2.8896909514	-3.9277423487	-2.4003634329	 0.097801
H	 2.4128073495	-2.4175489753	-3.1936036286	 0.103209
H	 3.8139523663	-1.250305238	-1.4748249121	 0.095049
H	 3.6849140182	-2.658997021	-0.4035015645	 0.099102
H	 1.2392712566	-2.530616407	 1.3074685473	 0.092911
H	 2.3731553486	-1.1672983648	 1.3970966956	 0.088656
61.8776	104.1053	111.2791	229.4354	251.4967	281.5146	358.9031	392.1717	442.9723	478.0591	606.5987	687.9902	764.1562	794.3234	835.9242	874.2307	901.9355	912.9675	926.6863	941.3157	948.9151	979.8557	1012.36	1043.7643	1073.7051	1087.3941	1152.2009	1161.7806	1179.8583	1193.3901	1206.8429	1216.1324	1254.6831	1258.6511	1274.0841	1291.8097	1294.2745	1311.7392	1357.007	1392.6363	1396.9848	1412.2892	1472.6242	1482.6116	1484.7778	1487.8041	1498.7653	1505.581	1523.5505	2946.7349	2978.9377	3025.0322	3027.4859	3036.8352	3041.6124	3047.2014	3062.4469	3089.2812	3090.8961	3095.63	3109.3726	3115.6248	3117.6691
CC1CC2(CCC2)CO1	C[C@H]1CC2(CCC2)CO1	
InChI=1S/C8H14O/c1-7-5-8(6-9-7)3-2-4-8/h7H,2-6H2,1H3	InChI=1S/C8H14O/c1-7-5-8(6-9-7)3-2-4-8/h7H,2-6H2,1H3/t7-/m0/s1
