15
gdb 28850	3.47007	1.25936	0.92401	5.2584	82.79	-0.2218	-0.0704	0.1514	1177.3752	0.114614	-420.676633	-420.669323	-420.668378	-420.708631	28.291	
O	-0.0776091462	 1.3925661905	 0.0110176694	-0.416745
C	 0.0534944197	 0.0393534176	 0.0026348205	 0.354576
C	 1.2840669767	-0.5532886762	-0.0081181356	-0.236182
C	 1.5849408119	-1.9442638249	-0.0176164327	-0.051629
C	 0.7763825956	-3.0367122634	-0.0190959929	-0.186899
C	-0.6812068057	-3.1375462818	-0.0116472757	 0.321966
O	-1.2276604271	-4.2383465939	-0.0143757747	-0.374535
C	-1.5289443668	-1.9296270339	 0.0010867423	-0.153113
C	-1.2270709914	-0.6130725991	 0.0068781111	-0.11003
H	 0.7947335248	 1.8030703498	 0.0080261708	 0.305639
H	 2.1448040079	 0.1133132642	-0.0095552941	 0.084918
H	 2.6520956487	-2.1569090789	-0.0249652569	 0.107489
H	 1.251803	-4.0135741928	-0.0272612572	 0.111052
H	-2.5835900679	-2.1934236428	 0.0061953717	 0.121928
H	-2.0564151103	 0.0894376157	 0.0161599943	 0.121566
70.2717	192.4347	319.1978	367.0388	373.9484	398.5646	402.6341	458.3688	531.9077	592.2505	695.1727	714.2287	755.5859	811.5457	851.9788	890.765	912.5144	916.1456	1033.1188	1055.0023	1071.9113	1199.3199	1229.821	1262.3384	1289.2789	1320.2867	1414.767	1449.0479	1503.1061	1583.2207	1655.9504	1670.7987	1709.4074	3131.6691	3150.3851	3160.7755	3177.7855	3179.4492	3807.6766
OC1=CC=CC(=O)C=C1	Oc1cccc(=O)cc1	
InChI=1S/C7H6O2/c8-6-2-1-3-7(9)5-4-6/h1-5,8H	InChI=1S/C7H6O2/c8-6-2-1-3-7(9)5-4-6/h1-5,8H
