17
gdb 36011	2.22106	1.3449	0.87715	3.9016	78.73	-0.2588	0.0157	0.2745	1279.4377	0.134021	-380.810837	-380.801599	-380.800655	-380.845377	33.365	
C	 0.0543906914	-1.2122363742	-0.1065204683	-0.438605
C	 0.0439027171	-0.0168085309	 0.0156302553	 0.303811
C	 0.0218162878	 1.4344412669	 0.1371617444	-0.357845
C	 1.435058169	 2.0716160623	 0.0573713923	-0.140115
C	 1.3070994606	 3.5331423627	-0.0668857363	 0.308078
N	 1.2001198594	 4.6770342063	-0.1849869589	-0.319612
N	 2.2056503158	 1.7630816696	 1.257891116	-0.062955
C	 3.0480011165	 0.5671334479	 1.1935193881	-0.214863
C	 3.6571831814	 1.9222054786	 1.1510783391	-0.223913
H	 0.0535982132	-2.2697165985	-0.2052518239	 0.203606
H	-0.5995117482	 1.861515854	-0.6579567762	 0.15168
H	-0.4242972518	 1.7325425123	 1.0917888571	 0.161256
H	 1.9274417276	 1.7108238981	-0.8632031106	 0.116669
H	 3.0742970995	-0.0251743115	 2.1023868813	 0.130093
H	 3.039642894	-0.0113336601	 0.2734465732	 0.127073
H	 4.0647905699	 2.2582236098	 0.1995317788	 0.123862
H	 4.1399162268	 2.3441790366	 2.0265194287	 0.131781
63.1437	90.7453	122.9575	153.1478	223.8848	249.1471	338.0827	367.304	399.8319	504.3693	533.836	566.7993	622.9838	655.3729	743.9609	819.0577	900.7183	938.0935	953.4631	981.8453	1021.1701	1053.2937	1078.0392	1114.7666	1122.7301	1173.5392	1178.6009	1242.4201	1290.4775	1315.2239	1347.5178	1368.4159	1460.0593	1494.4914	1520.6739	2240.8542	2364.8158	2945.6412	3044.9213	3087.6839	3106.2879	3118.7803	3194.9534	3209.9699	3504.1704
C#CCC(C#N)N1CC1	C#CC[C@@H](C#N)N1CC1	
InChI=1S/C7H8N2/c1-2-3-7(6-8)9-4-5-9/h1,7H,3-5H2	InChI=1S/C7H8N2/c1-2-3-7(6-8)9-4-5-9/h1,7H,3-5H2/t7-/m0/s1
