15
gdb 85348	3.08722	1.26648	0.94129	2.3574	79.07	-0.2685	-0.0849	0.1836	1184.9008	0.113256	-416.85348	-416.845463	-416.844518	-416.886279	29.415	
C	-0.0307604092	 1.5503920155	-0.0093761459	-0.403057
C	 0.0354689538	 0.0275777698	 0.0246970366	 0.006937
O	 0.7708295198	-0.4685152704	-1.1035022602	-0.25468
C	 1.829901512	-1.2402505773	-0.6929390644	 0.430552
N	 2.6629257135	-1.8192784344	-1.4482106424	-0.540307
C	 1.8222294718	-1.274386854	 0.7737305771	-0.287408
C	 0.7861810576	-0.5484417705	 1.2133343689	 0.193989
C	 0.3897764923	-0.3094515866	 2.5518913896	 0.233574
N	 0.0325143712	-0.0895143614	 3.6315795468	-0.322703
H	 0.974198167	 1.9790846587	 0.0293996379	 0.137162
H	-0.5202988634	 1.8793491177	-0.9290316917	 0.143145
H	-0.6059764341	 1.9206222535	 0.844215653	 0.14604
H	-0.9787075364	-0.3911668688	-0.0239569225	 0.124386
H	 2.4503369457	-1.6406992275	-2.4307415682	 0.232833
H	 2.5561623983	-1.8122323144	 1.3542052056	 0.159538
119.1622	123.2088	140.7946	231.4885	248.9697	339.3783	427.9249	466.415	515.8322	572.56	642.1382	683.7829	697.7721	809.9302	873.3532	896.9191	936.7809	953.2508	1045.8511	1082.5082	1100.6047	1122.5555	1168.2682	1244.0858	1318.9994	1346.4942	1370.0236	1407.1411	1484.9629	1493.5285	1666.7542	1753.9865	2341.2108	3021.7582	3049.315	3128.3578	3135.4687	3265.8452	3486.2325
CC1OC(=N)C=C1C#N	C[C@H]1OC(=C[C]1C#N)[NH]	
InChI=1S/C6H6N2O/c1-4-5(3-7)2-6(8)9-4/h2,4,8H,1H3	InChI=1S/C6H6N2O/c1-4-5(3-7)2-6(8)9-4/h2,4,8H,1H3/t4-/m1/s1
