25
gdb 53689	4.84593	0.4651	0.43911	0.1977	99.42	-0.2393	0.0646	0.3039	2593.5245	0.225866	-352.350885	-352.338696	-352.337752	-352.390938	42.211	
C	 0.0976311673	 1.5408642348	-0.025091387	-0.496879
C	 0.0783840297	 0.0847870256	-0.0061051851	 0.10735
C	 0.0730857203	-1.1194186891	 0.0094543829	 0.024976
C	 0.0300478214	-2.5777861816	 0.0288280269	-0.357357
C	-1.4044811747	-3.1450621785	 0.0543028444	-0.180051
C	-1.4238383735	-4.6769318271	 0.0792523035	-0.161579
C	-2.8244135835	-5.3131866642	 0.00817356	 0.035561
C	-2.7141078925	-6.8347512765	-0.1609902158	-0.387596
C	-3.6892417097	-4.9692319474	 1.2293750923	-0.380865
H	 0.5840674653	 1.9229418773	-0.9297046289	 0.144338
H	-0.9170242867	 1.9540014542	 0.0021460943	 0.144402
H	 0.6405686145	 1.9452115334	 0.8366823474	 0.144365
H	 0.5597966505	-2.9743333304	-0.8482216938	 0.121477
H	 0.580744896	-2.9512233301	 0.9031782042	 0.121901
H	-1.923856013	-2.7362981043	 0.9273271284	 0.108976
H	-1.9453927029	-2.7790452584	-0.8270282161	 0.103264
H	-0.8285722157	-5.0496982533	-0.7659104239	 0.087677
H	-0.9148695686	-5.0345305206	 0.9866743665	 0.088716
H	-3.3259365421	-4.9114607618	-0.8846724058	 0.070491
H	-2.2152084497	-7.289355658	 0.703561808	 0.110508
H	-3.7025785141	-7.2970766946	-0.2525356985	 0.108141
H	-2.136184078	-7.097462349	-1.0534218572	 0.108174
H	-3.2175292581	-5.3259665252	 2.1533594536	 0.10953
H	-3.8502254933	-3.8922638784	 1.331529093	 0.115302
H	-4.6734285289	-5.4439160167	 1.1568311066	 0.109175
16.4674	36.9214	62.0924	83.9571	119.3404	167.3888	217.4909	227.7599	248.1307	267.7665	301.0362	378.5137	386.9116	418.1211	435.5765	529.7723	739.4377	760.0615	821.8026	845.8784	927.2008	949.9658	965.0682	1005.7409	1017.2253	1053.2672	1053.9854	1055.5292	1136.7528	1144.4141	1168.4684	1193.1891	1222.1045	1264.83	1300.4032	1325.6671	1334.6091	1367.5785	1375.1413	1394.3338	1401.3095	1415.6661	1422.599	1474.644	1478.3917	1479.7134	1480.0309	1489.0847	1495.0696	1503.9307	1505.2912	1511.7606	2373.0304	2990.7037	2997.8801	3005.6478	3021.5369	3023.4572	3027.2412	3028.5005	3031.8645	3036.8739	3082.5687	3082.6061	3082.7412	3085.9044	3091.8224	3097.0641	3107.0637	16.4001	36.9213	62.0917	83.9609	119.3413	167.3887	217.491	227.7599	248.1306	267.7662	301.0361	378.5138	386.9121	418.1211	435.5765	529.7716	739.4376	760.0615	821.8024	845.8782	927.2007	949.9657	965.0681	1005.7406	1017.2253	1053.2684	1053.9868	1055.5295	1136.7516	1144.4138	1168.4683	1193.189	1222.1038	1264.829	1300.4013	1325.6654	1334.6082	1367.5779	1375.1407	1394.3332	1401.3094	1415.6677	1422.5989	1474.6413	1478.3909	1479.7164	1480.0337	1489.0845	1495.0692	1503.9294	1505.291	1511.7604	2373.0306	2990.7037	2997.8802	3005.6478	3021.5369	3023.4571	3027.2412	3028.5006	3031.8646	3036.874	3082.5686	3082.6061	3082.7413	3085.9044	3091.8224	3097.0642	3107.0637
CC#CCCCC(C)C	CC#CCCCC(C)C	
InChI=1S/C9H16/c1-4-5-6-7-8-9(2)3/h9H,6-8H2,1-3H3	InChI=1S/C9H16/c1-4-5-6-7-8-9(2)3/h9H,6-8H2,1-3H3
