15
gdb 112333	2.88279	1.39809	1.04547	3.4369	61.05	-0.2691	-0.0225	0.2467	1097.546	0.112618	-494.906838	-494.899211	-494.898267	-494.939378	28.289	
O	 0.0642454114	 1.3505652006	-0.1374854353	-0.417643
C	 0.0409681507	-0.0587237326	-0.0905400193	-0.071583
C	-1.3667661143	-0.5870800128	 0.167095551	 0.067094
O	-2.2217598087	-0.1206047684	-0.9082707938	-0.259545
C	-2.9999856593	-1.116841888	-1.4270275122	 0.466561
O	-3.8799136145	-0.9161904209	-2.2087733946	-0.330924
C	-2.5433416117	-2.4257128699	-0.8305256064	-0.129325
O	-1.1504078517	-2.6598387745	-1.1066511545	-0.23582
C	-1.5095507084	-2.0969539953	 0.1540372362	 0.002611
H	-0.526338723	 1.6186832785	-0.850757228	 0.298482
H	 0.4215379565	-0.5158666392	-1.0142701457	 0.118077
H	 0.6949863526	-0.3602929127	 0.7348277232	 0.116973
H	-1.7592336306	-0.167817116	 1.1008361172	 0.111744
H	-3.1984607499	-3.2883824726	-0.8165975235	 0.137
H	-1.3006842891	-2.6942081361	 1.0357862557	 0.126297
101.8737	135.5636	152.0466	233.0856	337.3635	407.6319	435.9031	486.9158	508.5123	645.0062	730.0617	783.0204	838.4327	857.1519	893.4888	935.3049	972.7136	1007.9581	1070.1473	1083.3474	1101.2701	1111.8138	1185.783	1228.3882	1240.6602	1301.3877	1315.5729	1363.7349	1398.984	1413.596	1432.8974	1498.8632	1892.2956	3016.386	3052.333	3082.3015	3174.1778	3202.861	3804.6526
OCC1OC(=O)C2OC12	OC[C@H]1OC(=O)[C@H]2O[C@@H]12	
InChI=1S/C5H6O4/c6-1-2-3-4(9-3)5(7)8-2/h2-4,6H,1H2	InChI=1S/C5H6O4/c6-1-2-3-4(9-3)5(7)8-2/h2-4,6H,1H2/t2-,3+,4+/m1/s1
