14
gdb 21287	7.09253	1.35634	1.14851	3.3948	60.08	-0.2118	0.0381	0.2499	992.7316	0.109153	-412.060653	-412.053046	-412.052102	-412.092397	27.331	
C	 0.0111658845	 1.3623411285	 0.048808269	-0.231517
O	 0.0075005156	-0.0626143142	 0.0521622867	-0.248853
C	 0.6266986637	-0.6326587739	 1.0869360229	 0.448361
N	 1.222348251	 0.0400955189	 2.053577659	-0.33225
N	 1.6969766847	-0.9968626816	 2.834745616	-0.273396
C	 1.3449779957	-2.1797149491	 2.2906815847	 0.432884
N	 1.6045775868	-3.4031626325	 2.8732905679	-0.597678
N	 0.6722242076	-1.9927194995	 1.169647813	-0.390582
H	 1.0345887074	 1.7506310232	 0.0234332696	 0.132852
H	-0.5288032083	 1.6605393896	-0.850541992	 0.129035
H	-0.4886265277	 1.7568521039	 0.9395586596	 0.133134
H	 2.1223291321	-0.7979340321	 3.7231360002	 0.271035
H	 2.5113266434	-3.4874792412	 3.3111712057	 0.255496
H	 1.4283111335	-4.1609330099	 2.2280762678	 0.271479
101.6949	170.8673	226.3773	244.4406	269.7526	314.1735	367.7279	426.8675	534.3587	642.9093	693.6262	737.7384	777.151	787.6171	1000.7854	1061.9221	1087.7963	1122.4211	1161.0499	1183.5824	1228.615	1323.323	1418.6114	1454.5993	1478.9777	1501.3145	1530.5473	1599.2619	1616.4152	1665.1584	3033.1212	3099.1923	3146.6885	3560.8095	3660.1403	3682.9522
COC1=NNC(N)=N1	COc1n[nH]c(N)n1	
InChI=1S/C3H6N4O/c1-8-3-5-2(4)6-7-3/h1H3,(H3,4,5,6,7)	InChI=1S/C3H6N4O/c1-8-3-5-2(4)6-7-3/h1H3,(H3,4,5,6,7)
