21
gdb 101754	3.35493	0.63303	0.5701	2.2859	85.33	-0.2464	0.0355	0.2819	2012.8766	0.178797	-424.189965	-424.178461	-424.177516	-424.229763	38.976	
C	-0.1121107344	 1.4284916569	-0.1382516007	-0.498521
C	-0.0967320571	-0.0197130199	 0.004148363	 0.132108
C	-0.0894344899	-1.2174545908	 0.1184303496	 0.00646
C	-0.0568515285	-2.6657735918	 0.2685428086	-0.215387
O	-1.3316844622	-3.2086530124	-0.0330231898	-0.277268
C	-1.3970933869	-4.6356022992	-0.0627848989	 0.135094
C	-1.3449309469	-5.2508678415	 1.3367155345	-0.401081
C	-2.7181460708	-4.9308254032	-0.7785338933	-0.063701
O	-3.8170456445	-4.354330434	-0.1002659655	-0.422483
H	 0.7270186252	 1.7771290877	-0.7501474976	 0.149819
H	-1.0357105161	 1.7640120603	-0.6224940952	 0.153547
H	-0.0467330845	 1.9280275494	 0.8344452979	 0.149386
H	 0.7026179759	-3.0975787506	-0.405602089	 0.11371
H	 0.2496233401	-2.92231827	 1.2945581155	 0.119448
H	-0.5676853605	-5.025816939	-0.6766423778	 0.062897
H	-2.2097155815	-4.9221118398	 1.917872855	 0.137778
H	-1.3706923843	-6.3431417136	 1.2662861032	 0.116644
H	-0.4314161252	-4.977598261	 1.8718490226	 0.114294
H	-2.647059273	-4.5612139308	-1.8128554721	 0.090616
H	-2.8924357171	-6.0112505295	-0.8136066885	 0.103548
H	-3.5877802178	-3.4248483273	 0.0213626384	 0.293092
12.1609	31.3249	64.0878	94.8254	127.3446	201.2962	209.0298	215.5639	293.3509	306.862	361.4027	376.0405	436.6559	456.0457	509.0115	666.3415	775.2534	843.2376	914.5224	930.2509	1010.3045	1026.2482	1051.4695	1057.3422	1083.3555	1095.5842	1140.3305	1156.4764	1178.7459	1240.1832	1256.3311	1336.2571	1359.5717	1385.2631	1411.0389	1414.5814	1424.7635	1437.8731	1476.4666	1478.8958	1488.2578	1494.5725	1500.5525	1506.9006	2380.1535	2955.8205	2961.7984	2989.8396	2991.7769	3028.9913	3045.1575	3078.3963	3090.1725	3091.4583	3109.5946	3133.273	3790.5478
CC#CCOC(C)CO	CC#CCO[C@@H](C)CO	
InChI=1S/C7H12O2/c1-3-4-5-9-7(2)6-8/h7-8H,5-6H2,1-2H3	InChI=1S/C7H12O2/c1-3-4-5-9-7(2)6-8/h7-8H,5-6H2,1-2H3/t7-/m0/s1
