17
gdb 18459	3.37703	1.71009	1.4141	2.3445	69.11	-0.229	-0.0209	0.2081	937.9391	0.141395	-363.831545	-363.823894	-363.822949	-363.863962	28.512	
C	-0.0136638847	 1.3783536096	 0.4083934785	-0.373497
C	 0.0487694628	 0.0184801866	-0.2804574311	-0.130739
N	-1.2365454172	-0.6718011776	-0.1376272342	-0.072953
C	-1.4195279525	-2.0827455085	-0.3031856825	-0.038288
C	-0.2145962379	-2.907995266	 0.1854743033	-0.379202
C	-0.437773566	-2.2443796462	 1.5732171645	 0.405946
O	 0.019325408	-2.4484387642	 2.6605514137	-0.304693
C	-1.6040273732	-1.4169141843	 1.0643782681	-0.17699
H	 0.9194554505	 1.9279043823	 0.2541507036	 0.11721
H	-0.8409048329	 1.9734312059	 0.0120228682	 0.128162
H	-0.1625322668	 1.2626048981	 1.4866990486	 0.129011
H	 0.213029631	 0.1479790561	-1.3564113048	 0.109689
H	 0.9027103197	-0.5531348301	 0.109090643	 0.102715
H	-2.2047270132	-2.4382232912	-0.9607725339	 0.111049
H	-0.4198620829	-3.9802737419	 0.2607195639	 0.13483
H	 0.7415458143	-2.7627849369	-0.3223392736	 0.126233
H	-2.493964449	-1.1282048216	 1.6127516846	 0.111517
53.7792	117.3592	208.105	227.075	304.8161	427.4459	445.5746	501.012	602.1467	655.3072	720.7036	813.7327	838.4109	857.2079	892.9911	939.3087	977.223	1001.5813	1023.7568	1048.0053	1091.4302	1112.7262	1137.8046	1173.4376	1198.0937	1236.3549	1278.317	1305.9288	1357.0797	1385.7969	1412.091	1459.5314	1489.2666	1495.0745	1513.2796	1882.4843	3003.8288	3042.7711	3057.9303	3064.0613	3113.6164	3116.4138	3123.5512	3174.656	3184.1977
CCN1C2CC(=O)C12	CCN1[C@H]2CC(=O)[C@@H]12	
InChI=1S/C6H9NO/c1-2-7-4-3-5(8)6(4)7/h4,6H,2-3H2,1H3	InChI=1S/C6H9NO/c1-2-7-4-3-5(8)6(4)7/h4,6H,2-3H2,1H3/t4-,6-,7?/m0/s1
