14
gdb 50031	3.18438	1.27367	1.05728	4.1983	64.39	-0.2727	-0.0303	0.2424	1098.1867	0.100142	-473.82791	-473.820098	-473.819154	-473.860895	27.655	
O	 0.1171336162	 0.2460877374	 0.6273017115	-0.263953
C	 0.1005888897	 1.3563381871	 0.170501063	 0.152932
N	 1.1538564483	 1.9104782352	-0.568580313	-0.121063
C	 2.5424241266	 1.7708590917	-0.1997716979	-0.289988
C	 1.859840077	 3.1068569384	-0.2161172123	 0.109261
C	 2.0717502805	 4.3864394027	-1.017459453	-0.14953
O	 1.8734366296	 5.1552582156	 0.2171996806	-0.246245
C	 1.6222522594	 4.0286056874	 0.9660636432	 0.436663
O	 1.3226558842	 3.9461439625	 2.1112856793	-0.325919
H	-0.7694764863	 2.035274065	 0.2169125228	 0.105561
H	 2.7580635798	 1.3309346083	 0.7707408078	 0.164242
H	 3.2289963949	 1.5206377891	-1.0033877423	 0.143852
H	 3.070285761	 4.5544682754	-1.4242247624	 0.140077
H	 1.2988321591	 4.6187816544	-1.7522157272	 0.144109
80.9053	113.9293	172.8144	192.2988	271.2081	335.0211	350.514	485.6948	591.327	670.235	764.5354	783.3819	855.0341	891.4973	949.5109	967.8415	1031.5761	1079.6671	1085.373	1117.5059	1131.9388	1145.9514	1183.4528	1201.54	1323.2695	1412.0324	1453.1352	1509.8936	1512.7729	1819.496	1944.0902	2982.5613	3079.639	3113.5277	3144.8042	3209.2172
O=CN1CC11COC1=O	O=CN1C[C@]21COC2=O	
InChI=1S/C5H5NO3/c7-3-6-1-5(6)2-9-4(5)8/h3H,1-2H2	InChI=1S/C5H5NO3/c7-3-6-1-5(6)2-9-4(5)8/h3H,1-2H2/t5-,6?/m0/s1
