17
gdb 30408	2.59099	1.61645	1.00255	4.9255	84.91	-0.1804	-0.0026	0.1778	1150.7103	0.138061	-414.224476	-414.215905	-414.214961	-414.258188	32.023	
C	-0.0375740884	 1.352201649	-0.0487061123	-0.306861
N	-0.0163996406	-0.0984531931	-0.0061516482	-0.343551
C	 0.565749849	-0.6630253139	 0.9903095535	 0.335767
N	 1.1809766777	 0.0250270521	 2.0365496672	-0.350818
C	 1.7707679554	-0.6489999429	 2.968535823	 0.082117
N	 1.8436001228	-1.9977274372	 3.0155963542	-0.295398
C	 1.240428725	-2.7677663938	 2.0218192383	-0.117961
C	 0.5877811286	-2.1414842543	 1.0127726159	 0.251789
N	-0.1028965704	-2.761257916	-0.0010008631	-0.584195
H	 0.9717403633	 1.7850601284	-0.0196222201	 0.112719
H	-0.5286511941	 1.6769774652	-0.9704896118	 0.100695
H	-0.5841163816	 1.7803557641	 0.8027650508	 0.114114
H	 2.2576569698	-0.1261858994	 3.7897014967	 0.121418
H	 2.3235358089	-2.4489166542	 3.7759116514	 0.264942
H	 1.3228277118	-3.8409497961	 2.1257755271	 0.111817
H	 0.2010240387	-3.6784558232	-0.2866055034	 0.240846
H	-0.3132899458	-2.1075722149	-0.7476112292	 0.262559
36.1078	114.0284	209.2167	217.0464	296.0227	338.875	394.1307	412.8896	486.1259	510.1588	556.6134	584.7215	592.8834	624.8572	776.2382	782.2388	802.3048	913.1063	936.2798	1052.6002	1060.1549	1106.9365	1113.616	1158.101	1200.2867	1249.4333	1319.775	1422.1208	1430.7365	1436.3031	1480.5644	1492.7356	1536.0078	1597.3546	1640.7555	1677.6625	1701.4141	2996.5113	3043.604	3091.2644	3148.1958	3220.841	3515.5022	3659.3802	3665.8891
CN=C1N=CNC=C1N	C[N]C1=NCNC=C1N	
InChI=1S/C5H8N4/c1-7-5-4(6)2-8-3-9-5/h2-3H,6H2,1H3,(H,7,8,9)	InChI=1S/C5H9N4/c1-7-5-4(6)2-8-3-9-5/h2,8H,3,6H2,1H3
