23
gdb 94582	3.17822	0.91379	0.77437	2.4661	86.02	-0.2407	-0.0075	0.2332	1564.4924	0.203639	-388.310155	-388.299806	-388.298862	-388.346611	37.569	
C	-0.1552927902	 1.5255826272	-0.0898776101	-0.391689
C	 0.0394049865	 0.0107910066	-0.0675514486	-0.016172
C	 1.2026589301	-0.4809852694	-0.9819726472	-0.222409
C	 2.110871281	-0.5957228614	 0.2713736138	-0.222154
C	 0.8338189309	-0.5660164737	 1.1534751969	 0.066458
C	 0.8570722265	 0.178417473	 2.47873268	-0.344652
C	 1.680296274	-0.520437621	 3.5568297054	 0.383526
C	 1.8553684491	 0.2369916558	 4.8628625209	-0.472521
O	 2.1652805543	-1.6160559385	 3.3873216779	-0.292247
H	 0.790345518	 2.0622646787	 0.047912897	 0.111157
H	-0.5703737172	 1.8414982617	-1.0531988104	 0.112792
H	-0.8449442995	 1.8597851042	 0.6930572859	 0.108804
H	-0.926310721	-0.4742871931	-0.2435627517	 0.061851
H	 0.9929503816	-1.4565605538	-1.4289289942	 0.099007
H	 1.5223747613	 0.2005933896	-1.7754023772	 0.089987
H	 2.7542237765	-1.4721803699	 0.3620274766	 0.109553
H	 2.7275872188	 0.2982559133	 0.4132795223	 0.089506
H	 0.5105049119	-1.5939326873	 1.3414881353	 0.08484
H	 1.240444011	 1.2013459967	 2.3638461604	 0.112225
H	-0.1610758494	 0.3011064552	 2.8793407829	 0.117967
H	 0.8855078115	 0.5498827974	 5.2648193222	 0.13396
H	 2.3744696175	-0.3894345216	 5.5892378704	 0.14126
H	 2.4359093067	 1.1506931502	 4.6900428515	 0.138956
33.6901	71.7993	110.0199	117.1904	133.4062	222.3432	255.7921	315.9222	345.3374	370.8771	473.7341	492.0416	568.7214	686.935	762.7854	808.2348	815.6141	833.9927	886.2961	913.2258	943.6074	955.585	963.6968	999.3225	1033.1226	1085.13	1126.6416	1151.6928	1161.1872	1180.9494	1210.944	1234.3388	1256.5992	1267.7509	1278.6927	1285.5399	1338.7921	1367.4564	1382.3398	1398.4998	1410.1708	1445.911	1465.1123	1478.3362	1480.5284	1497.087	1498.9003	1502.3801	1808.5877	3001.2437	3023.5267	3035.3985	3037.2002	3040.8464	3046.6902	3054.9912	3069.6174	3089.8734	3091.3978	3096.9513	3100.1427	3121.1158	3151.125
CC1CCC1CC(C)=O	C[C@H]1CC[C@H]1CC(=O)C	
InChI=1S/C8H14O/c1-6-3-4-8(6)5-7(2)9/h6,8H,3-5H2,1-2H3	InChI=1S/C8H14O/c1-6-3-4-8(6)5-7(2)9/h6,8H,3-5H2,1-2H3/t6-,8-/m0/s1
