20
gdb 116529	3.03589	0.91662	0.75266	1.7161	81.1	-0.2304	-0.0167	0.2137	1572.0828	0.170201	-436.516368	-436.505607	-436.504663	-436.552896	37.675	
C	 0.265042254	 1.5933376481	 0.0327913885	-0.368253
C	-0.0956367982	 0.1292118033	-0.2575683886	-0.154269
N	 0.6818960006	-0.4160704586	-1.3589947673	-0.312681
C	 1.8147511104	-0.9592857472	-1.1144397389	 0.280814
N	 2.4526659235	-1.1587169772	 0.0728588988	-0.549444
C	 2.6225157378	-1.5307124606	-2.2783429814	 0.394835
O	 3.7338972742	-2.0114425348	-2.0918987806	-0.409245
N	 1.9899100768	-1.4371455011	-3.4613468259	-0.307074
C	 2.5621262192	-1.8950602714	-4.7066414525	-0.334675
H	 1.3084269841	 1.6934674884	 0.3503292168	 0.111042
H	 0.133852565	 2.201355654	-0.8667890408	 0.128845
H	-0.372855613	 2.001304203	 0.8233440826	 0.113617
H	 0.0114958111	-0.471906067	 0.6608272632	 0.08437
H	-1.1534988241	 0.0749851908	-0.5377815891	 0.104205
H	 2.2042419138	-0.63253794	 0.8904497239	 0.260572
H	 3.3940182747	-1.5151132318	-0.0118919198	 0.274534
H	 1.0800933741	-0.9959042114	-3.41570343	 0.260739
H	 3.5425610084	-2.320048491	-4.485998991	 0.165436
H	 1.9360977306	-2.6644823975	-5.1722944318	 0.128554
H	 2.6830317371	-1.0694887782	-5.4172804958	 0.12808
60.8657	81.4883	93.9221	104.2675	152.5136	168.2752	227.9372	285.9139	314.3656	348.0124	381.6219	439.6705	503.2637	573.8488	624.3541	672.5158	707.5864	811.5064	816.5073	859.3141	897.1678	1017.0437	1076.3456	1094.2063	1141.0128	1153.7218	1185.3196	1196.1576	1239.5642	1305.6047	1358.551	1368.4099	1404.8169	1442.7268	1490.1236	1497.1103	1497.3214	1499.2787	1523.2449	1583.283	1595.2676	1732.6619	1778.6194	2962.8016	3026.5632	3035.271	3050.1495	3077.331	3104.0933	3116.1934	3146.4113	3572.7646	3579.029	3733.6222
CCN=C(N)C(=O)NC	CCN=C(N)C(=O)NC	
InChI=1S/C5H11N3O/c1-3-8-4(6)5(9)7-2/h3H2,1-2H3,(H2,6,8)(H,7,9)	InChI=1S/C5H11N3O/c1-3-8-4(6)5(9)7-2/h3H2,1-2H3,(H2,6,8)(H,7,9)
