21
gdb 119094	2.384	1.19508	0.94528	2.2721	75.23	-0.2377	0.0705	0.3082	1338.37	0.180987	-461.324935	-461.314972	-461.314027	-461.360334	35.733	
C	-0.1037960768	 1.4339442122	 0.23628988	-0.230807
O	-0.0773865788	 0.0258356498	 0.1581830826	-0.250367
C	 0.5796609129	-0.4529705902	-1.0020410419	-0.124013
C	 0.6997018122	-1.9727730414	-0.9492557209	 0.388701
C	-0.5371468562	-2.6246354565	-0.3191099649	-0.116561
O	-1.7546741959	-2.1037089359	-0.8208234915	-0.430452
C	 1.229439122	-2.5966648892	-2.2630340159	-0.337402
C	 2.3872676703	-3.1149881103	-1.3901624254	-0.06836
O	 1.8808917118	-2.4255088632	-0.2277382742	-0.320272
H	 0.9127300442	 1.8527057569	 0.2760321203	 0.114537
H	-0.6276772885	 1.8809374117	-0.6230215298	 0.107812
H	-0.6333444217	 1.7006824208	 1.1537986358	 0.132262
H	 0.009715636	-0.1695013527	-1.9022477164	 0.099169
H	 1.5875211544	-0.0190708295	-1.0846317744	 0.102056
H	-0.5331208027	-3.698123015	-0.5338125775	 0.100765
H	-0.4514491983	-2.5019717169	 0.7683317349	 0.111536
H	-1.8290809157	-1.2203008807	-0.4400249172	 0.288815
H	 0.5800254826	-3.3447632449	-2.7197806305	 0.119175
H	 1.5255864946	-1.8692173051	-3.0226017127	 0.106647
H	 2.4154457025	-4.2010081426	-1.238350159	 0.104124
H	 3.391346061	-2.7721336074	-1.6660116714	 0.102634
69.1151	90.7752	117.5125	121.1072	164.4833	230.9853	246.9798	319.1236	342.3618	399.8202	427.3019	482.1405	542.3906	757.2626	787.1845	862.2818	867.4228	940.1104	968.5522	989.2793	1000.5808	1024.8071	1076.0129	1114.0975	1142.0834	1147.6326	1162.2674	1186.5247	1204.1941	1215.951	1247.1044	1258.8982	1290.6588	1308.7541	1348.1421	1386.0919	1414.288	1428.0431	1474.1904	1486.3075	1486.6202	1492.9224	1497.2496	1518.2953	1531.8636	2965.5334	2979.7865	3014.9362	3017.7829	3023.7093	3028.3989	3056.288	3072.2954	3081.2938	3119.0005	3129.8159	3785.6873
COCC1(CO)CCO1	COC[C@@]1(CO)CCO1	
InChI=1S/C6H12O3/c1-8-5-6(4-7)2-3-9-6/h7H,2-5H2,1H3	InChI=1S/C6H12O3/c1-8-5-6(4-7)2-3-9-6/h7H,2-5H2,1H3/t6-/m0/s1
