22
gdb 123103	3.48309	0.64145	0.56691	3.7286	82.11	-0.2386	0.0399	0.2784	2008.1782	0.191717	-441.520783	-441.509397	-441.508453	-441.560192	38.5	
C	-0.0201777335	 1.4284758335	-0.1972430348	-0.385297
C	-0.0776854334	-0.0886371345	-0.146540996	-0.028276
O	-1.4191422829	-0.4842566617	 0.0675006577	-0.25343
C	-1.5942401056	-1.8863024938	 0.1313814677	-0.06321
C	-3.0817745302	-2.1578714819	 0.2954989	-0.167925
N	-3.8361737487	-1.5938780239	-0.8058929494	-0.309105
C	-4.7397409569	-2.3134716897	-1.5318369746	 0.409145
C	-5.409687355	-1.5499273356	-2.6648807445	-0.479987
O	-5.005443055	-3.4787542247	-1.2926430342	-0.377678
H	 1.0076981531	 1.765412277	-0.3605127633	 0.118813
H	-0.6426479851	 1.8107552665	-1.011538671	 0.122949
H	-0.3816105085	 1.8581196189	 0.7412738812	 0.128761
H	 0.2997331297	-0.5243156867	-1.0868324512	 0.089389
H	 0.5618806218	-0.4733661434	 0.6651650296	 0.090024
H	-1.2201176407	-2.3623120853	-0.7897484623	 0.095711
H	-1.0359344907	-2.3110830075	 0.9816548498	 0.091449
H	-3.2828472076	-3.2311245748	 0.3082016968	 0.146731
H	-3.4195820427	-1.7340954552	 1.2504993341	 0.112332
H	-3.6185752153	-0.6448230309	-1.0609451735	 0.249323
H	-5.298871679	-2.1241651625	-3.5879113879	 0.149894
H	-6.4802922148	-1.4753634925	-2.4541214116	 0.150926
H	-5.0087446992	-0.5442735011	-2.8159070628	 0.109461
26.291	40.9958	49.371	71.9506	113.3073	153.3589	180.5251	248.444	257.8275	318.7453	418.8139	447.4677	491.0578	536.1508	616.7577	645.0772	814.0326	822.5659	889.7459	934.7131	986.5098	1004.273	1050.3021	1065.1215	1113.6983	1137.7542	1151.6651	1168.9855	1190.5222	1250.551	1257.686	1291.8402	1297.3128	1377.929	1391.8338	1399.3269	1407.7457	1448.2917	1471.084	1484.2276	1485.0754	1487.6566	1498.9673	1508.7	1532.1944	1537.9652	1777.5453	2956.2819	2969.0949	2985.8248	2996.315	3025.6437	3045.083	3048.9866	3119.116	3121.9322	3123.4754	3124.1229	3132.1889	3654.0958
CCOCCNC(C)=O	CCOCCNC(=O)C	
InChI=1S/C6H13NO2/c1-3-9-5-4-7-6(2)8/h3-5H2,1-2H3,(H,7,8)	InChI=1S/C6H13NO2/c1-3-9-5-4-7-6(2)8/h3-5H2,1-2H3,(H,7,8)
