21
gdb 122589	4.22421	0.66189	0.60034	1.186	80.93	-0.2549	-0.0306	0.2243	1889.2639	0.180309	-424.231124	-424.221139	-424.220194	-424.267297	35.314	
C	-0.1464079562	 1.5885030809	 0.0745957793	-0.380561
C	 0.1410494905	 0.0909564268	-0.0617574324	-0.167696
C	 0.6986293081	-0.5304868555	 1.2231230761	-0.163064
C	 0.9833754606	-2.0311635877	 1.0917930599	-0.205276
C	 1.4990741351	-2.6432996952	 2.3857599907	 0.00457
O	 0.5309212754	-2.6277985515	 3.4708133168	-0.291893
C	 0.5324437443	-4.0592265265	 3.6354813255	-0.189195
C	 1.5370051714	-4.1763652182	 2.4820801451	 0.335679
O	 2.0866457338	-5.0594503894	 1.8992195705	-0.274098
H	 0.7635425924	 2.1453466503	 0.324538732	 0.114359
H	-0.5461650803	 2.0046457431	-0.8552987494	 0.112581
H	-0.8779342758	 1.7797215668	 0.8674403351	 0.116401
H	-0.7795952375	-0.43506436	-0.3469920529	 0.09707
H	 0.8508291615	-0.0742429348	-0.8833008671	 0.095409
H	 1.6225574643	-0.0096851693	 1.5109573051	 0.093114
H	-0.0096678414	-0.3767534142	 2.0462997596	 0.11704
H	 0.0712982826	-2.5588175716	 0.7853730292	 0.101697
H	 1.733885949	-2.2143970205	 0.3118825247	 0.113834
H	 2.4417535796	-2.1671514959	 2.6948598158	 0.104002
H	 0.9107642571	-4.3805770424	 4.6146379936	 0.132206
H	-0.4497890546	-4.5157963253	 3.4591947229	 0.133821
54.1534	76.7634	88.3801	124.7867	142.9169	194.4825	248.2885	286.0137	387.3513	398.7408	511.182	556.4849	694.1595	738.9597	790.6912	816.919	879.8176	899.1919	941.9278	989.11	1012.1246	1025.2832	1066.5264	1076.0247	1091.1209	1123.4162	1141.7673	1154.6341	1232.475	1239.8441	1276.1788	1303.7453	1309.6757	1332.4644	1344.3195	1380.1269	1399.4106	1414.4544	1471.5507	1482.4092	1486.0009	1498.1746	1500.3997	1512.2986	1922.9904	2997.3556	3009.3528	3015.0846	3016.8186	3024.8785	3030.421	3039.8817	3055.8682	3062.0994	3076.644	3097.5118	3103.0079
CCCCC1OCC1=O	CCCC[C@H]1OCC1=O	
InChI=1S/C7H12O2/c1-2-3-4-7-6(8)5-9-7/h7H,2-5H2,1H3	InChI=1S/C7H12O2/c1-2-3-4-7-6(8)5-9-7/h7H,2-5H2,1H3/t7-/m1/s1
