19
gdb 109442	2.18125	1.46213	1.09336	3.5669	72.22	-0.2488	0.0026	0.2515	1196.4233	0.156253	-460.188258	-460.178437	-460.177493	-460.222941	35.187	
C	 0.269382805	 1.4269511044	 0.0302924404	-0.250534
O	-0.2724766712	 0.1826522313	-0.390721771	-0.240972
C	 0.5653890666	-0.5122089221	-1.2599842181	-0.10064
C	 1.7704124495	-1.2554184689	-0.649391818	 0.425371
O	 2.7328865159	-0.990880217	 0.0009376354	-0.336732
O	 1.3663758642	-2.4792843414	-1.097731427	-0.278988
C	 0.0910818874	-1.9378045496	-1.6506028676	 0.364741
C	-1.0851478772	-2.4718886747	-0.85554543	-0.421253
C	 0.0115812831	-2.2295811731	-3.1373806073	-0.436951
H	 1.2175632515	 1.291060321	 0.5631064559	 0.146903
H	 0.4360818183	 2.0955462807	-0.8276824232	 0.11105
H	-0.4652757535	 1.8791551757	 0.6991006285	 0.134117
H	 0.8559833527	 0.1033660823	-2.1257076951	 0.092633
H	-0.9731201524	-2.2501201088	 0.2068141134	 0.139638
H	-2.0137875302	-2.0096880252	-1.202452441	 0.130743
H	-1.1627442418	-3.5548626099	-0.9883104862	 0.127488
H	-0.0620933911	-3.3067787073	-3.3131640313	 0.135371
H	-0.873151721	-1.7508550826	-3.5688013599	 0.130491
H	 0.8978164842	-1.8572662349	-3.6590865479	 0.127524
77.4693	100.6211	156.5681	176.0282	192.0184	223.0819	248.1668	302.2519	330.2989	349.8133	416.7525	469.5591	569.4728	620.1116	722.8638	831.2608	857.932	926.036	951.9889	986.0073	1012.1871	1036.4863	1093.1203	1163.1267	1183.3693	1195.7923	1224.3281	1256.8373	1283.3428	1288.5538	1385.8249	1408.1742	1421.2123	1473.2791	1478.7744	1480.6836	1487.1215	1495.8197	1501.7884	1513.2007	1921.7747	2984.5546	2993.7309	3040.684	3051.5157	3070.0969	3114.5482	3118.3126	3122.9326	3133.2733	3144.2848
COC1C(=O)OC1(C)C	CO[C@H]1C(=O)OC1(C)C	
InChI=1S/C6H10O3/c1-6(2)4(8-3)5(7)9-6/h4H,1-3H3	InChI=1S/C6H10O3/c1-6(2)4(8-3)5(7)9-6/h4H,1-3H3/t4-/m0/s1
