21
gdb 37227	3.86451	1.30865	1.16377	0.1953	85.76	-0.2011	0.0719	0.2731	1135.6744	0.183601	-349.864763	-349.857125	-349.856181	-349.89706	31.344	
C	 0.0110022751	 1.4766064782	-0.0260792928	-0.308154
C	 1.3950611595	 0.8786601579	-0.0910314964	-0.062571
C	 0.1839354372	-0.0080950467	 0.1369745703	-0.056602
C	 0.485424553	-0.7662187962	-1.1835424553	-0.138547
C	 1.7193204635	 0.1131437649	-1.4038835742	-0.131666
C	 0.6232621716	 0.0664450848	-2.4271464705	 0.356429
C	 0.8938838752	-0.6240485165	-3.7811798903	-0.295927
C	 0.2713696644	 0.6047611243	-4.5036226913	-0.228058
C	-0.2016455504	 1.1667470055	-3.1328685749	-0.299457
H	-0.1894052852	 1.9983473767	 0.9060711194	 0.106452
H	-0.4858651956	 1.9159557891	-0.8797506372	 0.117004
H	 2.1650438362	 1.1531739923	 0.6185010402	 0.085432
H	-0.1053701916	-0.525915165	 1.0424862956	 0.084686
H	 0.4133527868	-1.8457021833	-1.2555304607	 0.079121
H	 2.7286834561	-0.1982773835	-1.6485731356	 0.080002
H	 1.9401669429	-0.8453028585	-4.0115398955	 0.099133
H	 0.3125309217	-1.5420005552	-3.914136939	 0.099948
H	 1.0191461442	 1.238301907	-4.9862550077	 0.103259
H	-0.5128028359	 0.3854896935	-5.2312393464	 0.098593
H	-1.2794754088	 1.070534739	-2.970112551	 0.103882
H	 0.0914266501	 2.1978967515	-2.9224618367	 0.107041
51.8632	171.2615	206.7922	284.2207	365.0308	431.1774	458.7067	628.6724	693.55	715.5719	728.1396	752.9051	798.5919	833.2635	844.3258	880.022	884.8575	924.793	952.121	966.1733	970.9485	996.8925	1000.3409	1021.8526	1052.9945	1067.0879	1078.8456	1083.0163	1110.1363	1145.6446	1181.289	1216.4774	1234.3031	1246.0665	1248.643	1252.6524	1277.5197	1283.7178	1293.4427	1340.5809	1420.7803	1474.8996	1479.9102	1492.4003	1504.6225	3041.6842	3049.2046	3066.8545	3086.0029	3098.9253	3121.7857	3134.1509	3160.7294	3170.8387	3184.5842	3195.3244	3234.3977
C1C2C1C1C2C11CCC1	C1[C@H]2[C@@H]1[C@@H]1[C@H]2C21CCC2	
InChI=1S/C9H12/c1-2-9(3-1)7-5-4-6(5)8(7)9/h5-8H,1-4H2	InChI=1S/C9H12/c1-2-9(3-1)7-5-4-6(5)8(7)9/h5-8H,1-4H2/t5-,6+,7-,8+
