16
gdb 125540	4.76414	1.13319	0.96171	1.9542	72.66	-0.2513	0.0059	0.2572	1204.1596	0.125507	-434.052613	-434.044598	-434.043654	-434.085602	29.079	
C	-0.320238454	 1.4832864043	 0.067149303	-0.482405
C	 0.0768980843	 0.0461137085	 0.009142486	 0.330377
N	 0.1368868511	-0.6217283237	-1.1572591572	-0.327701
N	 0.5819597714	-1.8168331421	-0.718686281	 0.082593
C	 0.7813430874	-3.2569486593	-0.9574343436	-0.20756
C	 0.9777147984	-3.3525991327	 0.6321436494	 0.00727
O	 2.1825477161	-3.845779839	 1.1260058421	-0.407802
C	 0.7115448197	-1.8412476677	 0.6044754559	 0.286413
N	 0.4097345522	-0.6728334935	 1.1399964609	-0.406983
H	 0.5122521276	 2.1029319765	 0.4159419617	 0.139993
H	-0.6260274455	 1.8284127902	-0.9217536437	 0.140752
H	-1.1464926374	 1.6239480751	 0.7701629544	 0.141531
H	-0.0983952073	-3.7676058353	-1.3563224266	 0.142793
H	 1.6693501891	-3.4977419123	-1.5466746515	 0.134413
H	 0.1839258481	-3.9340395066	 1.1068524585	 0.131733
H	 2.8889594091	-3.2350834223	 0.8869886017	 0.294583
80.6525	104.4073	151.6633	231.5197	263.3286	334.7224	386.2556	458.1853	520.1999	617.0756	700.9964	728.4707	767.9856	841.0096	871.1733	973.9757	997.8204	1026.5575	1066.4891	1092.8343	1129.9668	1164.3459	1198.1512	1246.9298	1279.7689	1299.7032	1330.5415	1399.1747	1433.3065	1461.8135	1477.0512	1479.1415	1502.6014	1508.6907	1570.0822	3047.3664	3065.4893	3097.3122	3104.6532	3129.9689	3146.4214	3803.5043
CC1=NN2CC(O)C2=N1	Cc1nn2C[C@@H](O)c2n1	
InChI=1S/C5H7N3O/c1-3-6-5-4(9)2-8(5)7-3/h4,9H,2H2,1H3	InChI=1S/C5H7N3O/c1-3-6-5-4(9)2-8(5)7-3/h4,9H,2H2,1H3/t4-/m1/s1
