18
gdb 63562	2.66729	1.44426	1.12389	3.2547	73.05	-0.2657	-0.0047	0.261	1124.6505	0.146541	-439.094044	-439.085239	-439.084294	-439.127278	32.767	
C	-0.0719817136	 1.5282933304	-0.0585828449	-0.436072
C	-0.0369877326	 0.0153706212	 0.0038642571	 0.244356
C	-1.2184415733	-0.6984063203	-0.6213067936	-0.474478
N	 1.3083515759	-0.5648281001	-0.1523263496	-0.405597
C	 0.6618577765	-0.6353108134	 1.1511168159	 0.094925
C	 1.1925583306	-0.1345667165	 2.4885966297	-0.151543
O	 0.6930079368	-1.3676314451	 3.1146442784	-0.251561
C	 0.2545412738	-1.8708632092	 1.9116025359	 0.427839
O	-0.2349106782	-2.9338974755	 1.6897325888	-0.347284
H	 0.8407540187	 1.9593526255	 0.3592783564	 0.12943
H	-0.1559713216	 1.8616037724	-1.098639254	 0.128985
H	-0.9334534232	 1.9215206379	 0.4913625877	 0.122982
H	-1.2419653396	-0.5116617895	-1.7009341622	 0.124984
H	-1.1718360371	-1.7762493351	-0.4484647285	 0.152455
H	-2.1605274494	-0.3300569453	-0.2021100298	 0.12959
H	 1.2637974355	-1.47856261	-0.6022941333	 0.245703
H	 2.2789690484	-0.0683991545	 2.5712578703	 0.136729
H	 0.7076381227	 0.7420422271	 2.9226770457	 0.128558
124.8299	133.8027	156.7098	200.8087	226.1191	263.6483	309.2263	354.5471	419.3231	458.3133	533.7899	637.3887	683.5888	762.8948	790.9704	838.4031	926.578	963.608	974.5521	990.8623	1021.442	1062.7403	1095.6256	1107.135	1142.9404	1159.9855	1181.9634	1238.6751	1322.1893	1325.4857	1412.6242	1423.8444	1455.6156	1480.6568	1486.8704	1500.3197	1510.0536	1518.4818	1920.8392	3032.4929	3037.3872	3073.8157	3095.1294	3100.8172	3125.6444	3128.3764	3138.01	3475.0377
CC1(C)NC11COC1=O	CC1(C)N[C@]21COC2=O	
InChI=1S/C6H9NO2/c1-5(2)6(7-5)3-9-4(6)8/h7H,3H2,1-2H3	InChI=1S/C6H9NO2/c1-5(2)6(7-5)3-9-4(6)8/h7H,3H2,1-2H3/t6-/m1/s1
