19
gdb 82121	3.34099	1.18073	1.00172	4.3236	79.49	-0.217	0.0335	0.2506	1209.0514	0.159369	-382.033745	-382.025122	-382.024178	-382.067117	32.456	
C	-0.4387756673	 1.4474719313	 0.193275409	-0.344907
N	-0.0288670419	 0.0637972799	 0.0375931599	-0.08392
C	 0.430175043	-0.4055465131	-1.2632352476	 0.010153
C	 1.7851165581	 0.1214071464	-1.6502291796	-0.304278
C	 1.6832932639	-1.009412621	-0.6510280808	-0.115799
C	 1.1876501836	-0.4965441233	 0.7037625409	 0.038636
C	 2.1376765851	 0.4350091338	 1.4815597401	-0.359469
C	 1.5751343772	 0.9152809643	 2.7421047625	 0.265777
N	 1.1189166901	 1.2834693371	 3.7382231963	-0.313059
H	 0.3033969778	 2.1938169031	-0.1396714856	 0.091921
H	-1.3488507718	 1.6064251816	-0.3946557022	 0.126267
H	-0.6793890717	 1.6470335264	 1.2410117876	 0.149506
H	-0.2687479908	-0.8285080572	-1.9767734017	 0.099344
H	 2.1364237675	-0.182328628	-2.6315370672	 0.119566
H	 2.1065815922	 1.1165069987	-1.356478169	 0.109142
H	 2.1214448502	-1.9834742549	-0.8220435531	 0.099654
H	 0.8942204697	-1.3141282884	 1.3723119254	 0.102938
H	 3.0517810545	-0.1274862886	 1.7055788897	 0.157348
H	 2.4372664308	 1.296366482	 0.8777285153	 0.151178
76.629	113.6184	173.972	214.7178	242.4612	255.5768	384.2023	396.2384	464.3931	516.1086	559.4154	669.456	748.6594	792.2549	821.5494	903.3153	938.7632	943.2583	975.5677	999.6707	1038.6738	1064.0678	1069.4276	1076.4337	1094.833	1154.6006	1180.3017	1197.3378	1236.0591	1256.3775	1276.38	1291.9973	1317.0504	1360.0801	1389.2259	1452.0847	1457.179	1480.8524	1496.2175	1509.2688	2359.2748	2950.6379	3032.1609	3049.1404	3065.4663	3098.6069	3115.4851	3120.9134	3166.5741	3199.8187	3208.5207
CN1C2CC2C1CC#N	CN1[C@H]2C[C@H]2[C@H]1CC#N	
InChI=1S/C7H10N2/c1-9-6(2-3-8)5-4-7(5)9/h5-7H,2,4H2,1H3	InChI=1S/C7H10N2/c1-9-6(2-3-8)5-4-7(5)9/h5-7H,2,4H2,1H3/t5-,6+,7-/m0/s1
