21
gdb 40916	3.5682	1.32959	1.28903	2.0731	81.05	-0.2411	0.0682	0.3093	1079.4851	0.185324	-387.058465	-387.051142	-387.050198	-387.090415	29.71	
C	-0.0207629441	 1.6197672402	-0.0225637194	-0.233848
C	 1.5249320023	 1.4322059686	 0.0057650354	-0.009942
C	 1.2540854064	 0.2209897765	 0.9463835693	-0.233849
C	-0.0045277216	 0.0642940087	 0.04336986	-0.070792
C	 0.6181199996	-0.3076391633	-1.3127523262	 0.349812
C	 0.8979571688	-1.8037935775	-1.5729115333	-0.145826
O	-0.1213293494	-1.8664145717	-2.590037117	-0.275067
C	-0.3414330651	-0.4439809727	-2.5148910058	-0.145828
C	 1.7798747351	 0.7307695971	-1.3422880377	-0.306455
H	-0.4093464325	 2.0732782117	 0.8920838458	 0.097691
H	-0.468705801	 2.0988920541	-0.8990733155	 0.089778
H	 2.199328512	 2.2413632338	 0.2865599389	 0.060881
H	 1.9852270994	-0.593582752	 0.9660325452	 0.089779
H	 1.0028320803	 0.5238066706	 1.9654142505	 0.097691
H	-0.8758067853	-0.514140984	 0.3546863047	 0.063459
H	 1.8946216971	-2.0272518966	-1.9789690802	 0.091532
H	 0.6930198307	-2.4882003252	-0.7389051532	 0.097112
H	-1.3947440433	-0.1975833316	-2.3256724233	 0.097112
H	-0.0158101063	 0.0687980837	-3.4309604302	 0.091531
H	 1.701816075	 1.4146767563	-2.1937412276	 0.097615
H	 2.7628168716	 0.2505736433	-1.3873485406	 0.097613
79.0674	130.4318	231.8923	337.3687	402.55	422.3999	489.8797	512.5824	720.2824	809.41	840.2681	849.8273	851.1501	864.2198	900.8496	921.8044	952.998	957.6468	988.2541	1000.6849	1031.3242	1037.9128	1041.4329	1072.9428	1082.6631	1083.3913	1154.6315	1155.0958	1159.69	1192.2881	1207.5258	1225.6066	1228.9055	1242.0365	1276.3807	1278.7238	1308.8473	1309.1919	1347.8386	1385.0805	1489.2771	1491.0691	1506.7844	1525.2352	1532.5101	2985.6372	2997.8364	3035.3871	3035.5819	3041.0811	3046.0586	3050.3487	3083.3258	3102.4064	3110.3678	3111.2756	3118.549
C1C2CC1C1(COC1)C2	C1[C@H]2C[C@@H]1C1(COC1)C2	
InChI=1S/C8H12O/c1-6-2-7(1)8(3-6)4-9-5-8/h6-7H,1-5H2	InChI=1S/C8H12O/c1-6-2-7(1)8(3-6)4-9-5-8/h6-7H,1-5H2/t6-,7+
