20
gdb 12283	3.86468	1.29998	1.1086	1.1447	70.93	-0.2466	0.0569	0.3035	1134.5595	0.176225	-386.130021	-386.120985	-386.120041	-386.163659	33.445	
C	 0.0082585875	 1.515909036	-0.1810226175	-0.382133
C	 0.0203062187	-0.0053914816	-0.0002966479	-0.187256
C	-1.380508827	-0.6036931324	 0.0422680596	 0.03492
C	-2.2657721316	-0.5798572357	-1.2401969949	-0.286895
C	-2.7593844016	-2.0084281755	-0.8765997892	 0.146056
O	-2.8759852678	-2.9766136179	-1.8835945023	-0.442205
C	-1.5381747262	-2.1466775735	 0.0880061167	 0.032011
O	-0.4494868639	-2.7754413282	-0.5807649495	-0.436011
H	 1.0251373357	 1.9196384572	-0.2088210473	 0.11133
H	-0.4879505646	 1.8024362957	-1.1147262842	 0.118177
H	-0.5239554299	 2.0103582555	 0.6397260718	 0.110336
H	 0.5855700267	-0.4760078336	-0.8114026378	 0.109063
H	 0.5493958166	-0.2618798466	 0.9267108672	 0.093108
H	-1.9379052905	-0.1764739965	 0.8845422612	 0.070285
H	-3.016314692	 0.2070367833	-1.3406440136	 0.098384
H	-1.6540727372	-0.6012309906	-2.1482805013	 0.099835
H	-3.7103597778	-1.9910957447	-0.3370456692	 0.086702
H	-1.9878702733	-3.074981592	-2.2505833389	 0.274419
H	-1.7055309304	-2.6063971669	 1.0698002689	 0.058778
H	-0.5776815814	-3.7264151124	-0.5042035218	 0.291097
78.7679	97.2343	161.6199	169.7909	221.8593	257.8739	297.8878	381.3177	419.6941	481.317	541.1312	617.0105	689.5279	758.9494	786.74	857.7953	912.9736	946.8334	964.662	975.8696	1042.8466	1071.4686	1095.9994	1137.9631	1154.2762	1159.9559	1210.826	1225.4321	1248.1299	1272.7271	1286.4396	1315.6378	1323.4373	1345.9877	1388.9254	1410.9762	1419.0019	1440.7725	1479.6856	1489.9285	1499.4029	1508.2549	3017.6021	3025.7747	3028.4522	3035.706	3051.6136	3071.9436	3076.6438	3097.8181	3101.2644	3113.9856	3766.1189	3820.0561
CCC1CC(O)C1O	CC[C@H]1C[C@@H](O)[C@H]1O	
InChI=1S/C6H12O2/c1-2-4-3-5(7)6(4)8/h4-8H,2-3H2,1H3	InChI=1S/C6H12O2/c1-2-4-3-5(7)6(4)8/h4-8H,2-3H2,1H3/t4-,5+,6-/m0/s1
