21
gdb 39171	2.71211	2.09977	1.54433	0.4789	88.08	-0.2284	0.0793	0.3077	941.3837	0.185464	-349.794494	-349.788028	-349.787084	-349.82468	29.183	
C	-0.0915658154	 1.5984888433	 0.2653263004	-0.277935
C	 1.4935175899	 1.6886351738	-0.0891613319	-0.167633
C	 2.0021499452	 2.3583120892	-1.4208773023	-0.215198
C	 1.8455722488	 1.2609216678	-2.5668210994	-0.299766
C	 0.6685911208	 0.5274356121	-1.9269061542	 0.075075
C	 0.0748300284	-0.8188726576	-1.4410287874	-0.151554
C	 1.502300192	-1.2301410791	-0.9057516932	-0.342424
C	 1.2746393457	 0.2452897649	-0.5054914074	 0.388276
C	-0.1213608186	 0.0038217825	-0.033527152	-0.08731
H	-0.2549554085	 1.7377096753	 1.3379602869	 0.103841
H	-0.7522885574	 2.2812252408	-0.2724575359	 0.109847
H	 2.0946308073	 1.9643247185	 0.7815678837	 0.06434
H	 1.4155526074	 3.250098599	-1.6680538194	 0.101684
H	 3.0429586117	 2.6824580141	-1.3201849508	 0.099429
H	 1.6425275941	 1.7143772896	-3.5407739003	 0.092805
H	 2.758812321	 0.6638973847	-2.6508351919	 0.101192
H	-0.1365916896	 1.2624735861	-1.9353585307	 0.080654
H	-0.6278583389	-1.4809319301	-1.9583431582	 0.068667
H	 1.5346476914	-1.9443545131	-0.0787502513	 0.095075
H	 2.2391865076	-1.4775724633	-1.674970582	 0.097144
H	-0.302729663	-0.6104413985	 0.8530141172	 0.063792
233.7565	298.0537	373.4639	396.1388	457.8215	553.3979	571.8269	610.5026	661.1143	725.8826	780.7311	800.0306	808.4164	817.1712	857.5127	873.8548	898.5969	913.4204	955.0868	971.4471	1003.6638	1010.7733	1059.0149	1088.1081	1097.6506	1110.7441	1122.6886	1151.2708	1160.5463	1174.5133	1190.7118	1198.3199	1216.222	1231.9707	1253.7031	1264.017	1289.0882	1291.0455	1297.0803	1336.7142	1459.9523	1475.1397	1479.737	1495.8427	1513.0395	3040.4055	3040.9353	3049.9948	3053.2789	3055.8719	3064.2793	3069.5809	3077.3457	3084.966	3106.3451	3115.4495	3120.9106
C1C2CCC3C4CC23C14	C1[C@@H]2CC[C@H]3[C@H]4C[C@@]23[C@@H]14	
InChI=1S/C9H12/c1-2-7-6-4-9(7)5(1)3-8(6)9/h5-8H,1-4H2	InChI=1S/C9H12/c1-2-7-6-4-9(7)5(1)3-8(6)9/h5-8H,1-4H2/t5-,6+,7-,8-,9+/m0/s1
