17
gdb 85296	2.53092	1.52877	1.1502	3.3554	68.58	-0.2398	-0.0134	0.2264	1068.9269	0.135132	-458.973739	-458.965455	-458.964511	-459.006327	32.15	
O	-0.1311704125	 1.4640548877	 0.0889630173	-0.443921
C	-0.0098084631	 0.0521310592	-0.0181277861	 0.040196
C	 0.7456739372	-0.6377611576	 1.1372109932	-0.394573
C	 0.0206065015	-1.9808093972	 1.3319646512	 0.426315
O	 0.515705146	-2.9917136373	 1.7617330586	-0.327764
C	-1.3735319467	-1.8244546567	 0.815485345	-0.208896
C	-2.1215720157	-0.574450552	 1.2991268626	-0.345971
C	-1.4056952202	-0.5556035218	-0.0099555612	 0.422264
O	-2.1216929338	-0.5282866448	-1.20005336	-0.476475
H	 0.7290056468	 1.8570883896	-0.0885970877	 0.288542
H	 0.4508279105	-0.2208703793	-0.9786183656	 0.087762
H	 1.8085566697	-0.8021996605	 0.9504353899	 0.125392
H	 0.6545755194	-0.034974959	 2.0485551467	 0.13602
H	-1.9478495873	-2.7045669401	 0.557358444	 0.118137
H	-3.2009025035	-0.6555765468	 1.2434171449	 0.130277
H	-1.7435966454	-0.0144355027	 2.1468332179	 0.129136
H	-2.3785261528	 0.3879674592	-1.3569868008	 0.29356
106.6555	132.2483	234.0018	283.1552	298.9333	324.9679	349.346	428.4924	488.2995	498.8404	549.3576	558.9841	674.7584	706.1542	782.4042	868.8421	900.9909	925.3219	968.9869	997.3288	1026.2013	1055.9786	1060.145	1098.1914	1156.2725	1185.7047	1198.5081	1241.9854	1251.4618	1283.2137	1323.9291	1352.8337	1403.7599	1435.2024	1459.9022	1493.2291	1839.0417	3001.5034	3050.4278	3119.8002	3140.7048	3209.8059	3233.2758	3793.9787	3823.0372
OC1CC(=O)C2CC12O	O[C@H]1CC(=O)[C@H]2C[C@@]12O	
InChI=1S/C6H8O3/c7-4-1-5(8)6(9)2-3(4)6/h3,5,8-9H,1-2H2	InChI=1S/C6H8O3/c7-4-1-5(8)6(9)2-3(4)6/h3,5,8-9H,1-2H2/t3-,5+,6+/m1/s1
