20
gdb 127420	2.34245	1.57484	0.96098	2.894	84.53	-0.1984	0.044	0.2424	1256.5919	0.170494	-399.364379	-399.354027	-399.353082	-399.399659	36.556	
C	-0.0422976965	 1.3954806211	-0.0522976269	-0.331504
N	-0.0289128968	-0.0454620613	 0.0152509598	 0.004359
N	-0.0539911129	-0.7894484186	-1.1209450726	-0.352068
C	-0.0254255261	-2.0524361082	-0.7051648396	 0.292036
C	-0.0598344954	-3.1746403903	-1.6939987447	-0.494452
C	 0.0457812778	-2.1421507409	 0.7093608565	 0.075097
C	 0.1090588881	-3.3706947995	 1.5620243643	-0.520946
C	 0.0471673641	-0.8212380433	 1.1285114211	 0.28317
N	 0.0387743166	-0.2442391224	 2.4072411041	-0.613492
H	 0.9705639074	 1.8184249812	-0.0632956007	 0.125222
H	-0.5504138753	 1.6858471354	-0.9723486242	 0.15466
H	-0.5831353709	 1.7919908307	 0.810856968	 0.14534
H	 0.8046115841	-3.8399149213	-1.5815922004	 0.119668
H	-0.9572094102	-3.7934040636	-1.5749546629	 0.121792
H	-0.0533775744	-2.772361941	-2.7093515336	 0.136669
H	 0.5457588858	-3.1552629655	 2.5448044303	 0.104015
H	-0.8768373063	-3.8201195026	 1.739534312	 0.125396
H	 0.732085507	-4.1441940473	 1.0999332703	 0.127214
H	-0.0279704807	-0.9522879834	 3.1271135877	 0.249609
H	 0.8543176645	 0.3301366907	 2.5934483113	 0.248216
83.2411	108.014	116.9829	135.3247	169.8723	197.3046	236.0179	277.0445	284.1506	291.7958	358.8788	555.226	573.9475	617.7964	647.0275	700.0846	738.0954	795.9718	862.7547	1004.1387	1011.1929	1050.4604	1067.6218	1076.1732	1144.3346	1154.4469	1229.1286	1263.3544	1328.6456	1403.6613	1418.0459	1427.8078	1445.5988	1479.7695	1482.7226	1484.7537	1490.1574	1499.2959	1509.486	1516.5328	1557.1887	1615.9381	1661.618	3009.8631	3018.9519	3024.8184	3057.5594	3071.1659	3083.3765	3098.3496	3128.126	3153.2615	3510.1543	3610.7785
CN1N=C(C)C(C)=C1N	Cn1nc(C)c(C)c1N	
InChI=1S/C6H11N3/c1-4-5(2)8-9(3)6(4)7/h7H2,1-3H3	InChI=1S/C6H11N3/c1-4-5(2)8-9(3)6(4)7/h7H2,1-3H3
