21
gdb 63125	2.19751	1.54033	1.14533	3.36	85.22	-0.2388	-0.0173	0.2215	1172.256	0.18135	-387.083703	-387.074532	-387.073588	-387.11704	35.275	
C	-0.0102344183	 1.5470248814	-0.0388162196	-0.459081
C	 0.0363139881	 0.0284967987	 0.0068257411	 0.261195
C	-1.1972847863	-0.6009661603	-0.6272794025	-0.461824
C	 1.2952349902	-0.7518124894	-0.1881249482	-0.134205
C	 2.5420755438	-0.0706272678	 0.38417389	-0.24324
C	 1.8592514499	 0.0167008567	 1.7842956842	-0.304689
C	 0.6163023336	-0.6904159779	 1.2296992899	 0.230849
C	-0.0530517268	-1.7699250499	 1.9624558426	 0.047443
O	 0.2216333638	-2.0752818009	 3.1030680331	-0.278852
H	 0.8742865716	 2.0196390525	 0.3901656504	 0.125595
H	-0.098607081	 1.8876395983	-1.0767955103	 0.11934
H	-0.8842691261	 1.9188031014	 0.5069900689	 0.122686
H	-1.3110355417	-0.2314462093	-1.6522766493	 0.121594
H	-1.1349232107	-1.6909211073	-0.6781071577	 0.121925
H	-2.1078172439	-0.3393345463	-0.0777691833	 0.124684
H	 1.3105766878	-1.6101460352	-0.8513742833	 0.094605
H	 3.4105349787	-0.7317773676	 0.3896414609	 0.112048
H	 2.8296261128	 0.8714277586	-0.0924886865	 0.103317
H	 2.3501817078	-0.602378694	 2.5358414623	 0.130448
H	 1.7055465978	 1.0139126765	 2.2045799451	 0.102555
H	-0.8412817512	-2.3210168479	 1.4067165621	 0.063607
97.3115	169.0055	183.5288	217.3329	249.2325	265.1844	289.117	327.9691	369.9192	396.0861	490.3371	534.3944	631.0898	694.0615	753.0933	790.479	867.478	938.476	939.8517	956.0219	969.9181	998.5465	1023.8876	1036.5492	1070.3109	1099.8171	1138.3147	1153.9214	1196.7934	1222.3648	1236.5279	1265.0607	1290.8112	1338.1358	1398.208	1414.6622	1430.0636	1448.7826	1474.5359	1487.5006	1493.1876	1507.1202	1510.142	1515.5652	1780.8289	2900.3986	3031.9358	3036.2604	3054.976	3069.321	3089.5913	3094.3783	3109.5573	3114.6686	3133.6077	3137.2942	3169.8622
CC1(C)C2CCC12C=O	CC1(C)[C@H]2CC[C@@]12C=O	
InChI=1S/C8H12O/c1-7(2)6-3-4-8(6,7)5-9/h5-6H,3-4H2,1-2H3	InChI=1S/C8H12O/c1-7(2)6-3-4-8(6,7)5-9/h5-6H,3-4H2,1-2H3/t6-,8+/m1/s1
