16
gdb 31872	4.71885	0.98393	0.83242	1.4441	75.31	-0.2307	-0.0244	0.2063	1316.672	0.12632	-437.950296	-437.942443	-437.941499	-437.983227	29.609	
O	 0.2773580228	 1.1037298848	 0.7087106851	-0.406057
C	 0.0212274654	 0.0355445176	-0.1891454501	-0.156208
C	-1.4057226685	-0.4659995487	-0.140721074	 0.184044
C	-2.1330356583	-0.4596232709	 1.0469128431	-0.059143
N	-3.3892480266	-0.9065960029	 1.1589258309	-0.362622
C	-3.9712916075	-1.3902325505	 0.0683188131	 0.431316
O	-5.2364554647	-1.8440908478	 0.1886961116	-0.417197
C	-3.3492297527	-1.4469128566	-1.1837292832	-0.204162
C	-2.0529389835	-0.9719374441	-1.2740893535	-0.150648
H	-0.3336286786	 1.8168462858	 0.4936194275	 0.283294
H	 0.2788056435	 0.3057000494	-1.2256754775	 0.09364
H	 0.7175838225	-0.7572109525	 0.1100839863	 0.127881
H	-1.6805205335	-0.0639673993	 1.951746787	 0.122936
H	-5.4754415535	-1.7152917255	 1.1173838146	 0.297711
H	-3.8837899171	-1.8436031151	-2.0376963179	 0.111744
H	-1.5366197398	-0.9902878437	-2.230154193	 0.103472
51.6815	125.0989	204.9527	297.4169	365.1847	383.8345	432.8454	451.6916	504.5236	550.5756	588.7298	656.9492	763.0538	790.4932	857.3971	878.6413	958.8071	989.2994	1003.4914	1034.0257	1068.4003	1146.3238	1189.5847	1206.7133	1233.6243	1306.609	1335.2156	1361.5514	1375.8193	1416.0992	1457.8959	1502.8437	1526.8564	1630.5398	1652.7342	2976.7389	3048.0122	3166.5768	3174.3523	3212.9396	3764.2538	3805.5461
OCC1=CN=C(O)C=C1	OCc1cnc(O)cc1	
InChI=1S/C6H7NO2/c8-4-5-1-2-6(9)7-3-5/h1-3,8H,4H2,(H,7,9)	InChI=1S/C6H7NO2/c8-4-5-1-2-6(9)7-3-5/h1-3,8H,4H2,(H,7,9)
