20
gdb 61890	5.53545	0.65852	0.61658	3.173	76.73	-0.2441	-0.0198	0.2243	1772.8221	0.169341	-440.261736	-440.251861	-440.250917	-440.297721	35.149	
O	 0.2332871809	 1.4170932819	 0.2489116941	-0.441199
C	 0.0893273459	 0.0139673364	 0.0462624413	 0.10649
C	 0.8292775068	-0.3109204565	-1.2555029014	-0.278481
C	 0.1962515153	 0.3437352508	-2.4661923744	 0.150739
O	-0.0180741915	-0.2243624349	-3.5070903955	-0.24356
C	 0.6379555951	-0.7889398823	 1.2379642621	-0.228612
C	-0.0541590313	-0.4199822265	 2.5297738095	 0.00581
C	 0.6567368691	-0.4124797141	 3.8287284574	-0.249935
N	 0.2703884878	 0.8629698831	 3.1952049954	-0.328431
H	-0.3195140179	 1.6718631953	 0.9963276532	 0.303586
H	-0.9776234603	-0.2383295698	-0.0778300697	 0.079814
H	 1.853349557	 0.0775790553	-1.1604175701	 0.129105
H	 0.883056494	-1.3890334714	-1.4281032848	 0.118872
H	-0.0633736454	 1.4141723009	-2.3253599381	 0.097289
H	 0.5101883096	-1.8604306071	 1.037638305	 0.108941
H	 1.7159206391	-0.5997461644	 1.327175278	 0.098333
H	-1.1213153917	-0.6400571043	 2.5487253338	 0.095644
H	 0.1225352306	-0.6509591487	 4.7436143869	 0.124032
H	 1.7085568069	-0.6868044937	 3.8339149721	 0.115856
H	 1.0878389501	 1.2668908701	 2.7426333051	 0.235705
49.2961	66.8798	94.7239	126.5902	132.828	238.9948	291.7903	349.8024	414.9448	438.8805	443.9452	496.2122	555.9612	787.8308	810.1363	834.527	868.97	927.247	947.0377	973.236	1025.4355	1032.6562	1048.1791	1075.553	1123.1826	1141.3455	1161.372	1181.8591	1214.1443	1252.2257	1273.6098	1277.0561	1302.5397	1320.5579	1328.5866	1389.7184	1421.3151	1426.0567	1434.4162	1444.4604	1469.6405	1512.7952	1829.9637	2917.0258	2956.9617	3015.8479	3022.2508	3061.9574	3108.1381	3110.4038	3112.7138	3197.4498	3490.2984	3802.6597
OC(CC=O)CC1CN1	O[C@@H](CC=O)C[C@H]1CN1	
InChI=1S/C6H11NO2/c8-2-1-6(9)3-5-4-7-5/h2,5-7,9H,1,3-4H2	InChI=1S/C6H11NO2/c8-2-1-6(9)3-5-4-7-5/h2,5-7,9H,1,3-4H2/t5-,6-/m0/s1
