17
gdb 62551	2.54042	1.30762	1.12181	2.8279	71.68	-0.245	-0.0375	0.2075	1140.7677	0.133248	-455.141925	-455.132405	-455.131461	-455.176438	34.366	
C	-0.1017131766	 1.483440502	-0.2369721096	-0.438148
C	 0.0720863423	-0.0057865212	 0.0086698321	 0.315395
O	-1.1697110044	-0.6625427651	 0.1435292158	-0.465948
C	 1.061640047	-0.7403186782	-0.9887530498	-0.117948
N	 1.9837485684	-0.8530082004	 0.1535092689	-0.348679
C	 1.0766888581	-0.4054133932	 1.096985696	 0.335163
N	 0.9549377357	-0.3564958448	 2.3537103221	-0.561272
C	 0.531121765	-2.0646845994	-1.5023847205	 0.174499
O	 0.3478372788	-2.3001623234	-2.6672780313	-0.243304
H	 0.8615604473	 1.9754387424	-0.400942318	 0.125529
H	-0.7383270547	 1.643157209	-1.1118181587	 0.135529
H	-0.5813523313	 1.9428189998	 0.6324364007	 0.136972
H	-1.3334244823	-0.7521982924	 1.0909716102	 0.301036
H	 1.4343435869	-0.1412099623	-1.8232851915	 0.102216
H	 2.7580500948	-1.4915572894	 0.2700496137	 0.248543
H	 1.7411981633	-0.77744104	 2.8498928266	 0.217281
H	 0.3332169118	-2.8165199932	-0.7082607867	 0.083136
62.5721	80.2944	155.1012	211.1118	230.5402	262.7697	276.7676	303.1138	385.5925	400.2676	443.3925	480.517	550.0342	693.1225	708.749	790.6949	835.7391	853.7264	975.1504	986.2307	1034.0018	1059.8958	1062.9625	1114.5353	1159.2683	1231.6731	1239.9403	1292.9824	1328.7847	1356.1006	1370.7717	1404.4728	1418.7723	1484.0197	1487.4748	1804.8809	1833.8578	2902.5034	3041.2148	3086.5038	3118.9767	3123.0254	3472.658	3593.7746	3780.4848
CC1(O)C(NC1=N)C=O	C[C@@]1(O)[C@@H](N[C]1[NH])C=O	
InChI=1S/C5H8N2O2/c1-5(9)3(2-8)7-4(5)6/h2-3,9H,1H3,(H2,6,7)	InChI=1S/C5H8N2O2/c1-5(9)3(2-8)7-4(5)6/h2-3,9H,1H3,(H2,6,7)/t3-,5+/m0/s1
