20
gdb 108641	2.65185	1.37395	0.9826	1.7787	82.57	-0.2135	0.0239	0.2374	1232.8367	0.17102	-403.128728	-403.119683	-403.118739	-403.16272	33.931	
C	 0.2487870704	 1.544015187	-0.1387847038	-0.498588
C	 0.0529141036	 0.0644651511	-0.01390489	 0.198244
C	-1.0814499308	-0.6560425949	-0.0202582982	 0.253633
C	-2.5168879049	-0.2413449799	-0.1314166508	-0.19491
O	-2.713258767	 1.1193747742	 0.221133621	-0.407951
C	-0.7699321303	-2.1203044997	 0.0151648043	-0.143492
N	-0.0031705516	-2.5764912485	-1.1838868603	-0.336857
C	 0.7072475922	-2.2448315745	 0.0715605291	-0.04503
C	 1.2771995844	-0.836466418	 0.1004107812	-0.288985
H	 0.8331137999	 1.7758354377	-1.0392919639	 0.117577
H	-0.6986281647	 2.0764004883	-0.1867578883	 0.151238
H	 0.8289386943	 1.9298080315	 0.7103549764	 0.113814
H	-2.8640436266	-0.4363480067	-1.1617684548	 0.106754
H	-3.1184912009	-0.899124944	 0.5211258869	 0.088174
H	-3.6207233094	 1.3512327647	 0.0043756753	 0.287973
H	-1.4439306771	-2.8232452707	 0.4964085856	 0.07876
H	-0.0733972341	-3.5919265773	-1.2421689254	 0.222315
H	 1.1959446953	-3.0441268082	 0.6181390919	 0.084012
H	 1.9812182286	-0.6630720689	-0.7231145545	 0.113661
H	 1.8254436987	-0.6426451531	 1.0330421883	 0.099659
48.7068	154.0987	156.1471	191.9069	234.0984	247.5178	335.3185	347.0297	398.4264	433.2223	565.0273	639.5424	674.8352	759.8674	808.9263	850.6931	878.721	937.9745	952.5984	977.1451	1022.1339	1031.4826	1070.1772	1081.7304	1104.3061	1133.7222	1173.375	1175.7952	1195.2545	1223.3941	1238.5875	1266.0715	1279.5458	1338.9498	1368.536	1404.9636	1419.5537	1464.9494	1467.9723	1485.8001	1494.8309	1508.5009	1726.1517	2936.9664	2950.3265	3008.9025	3014.3257	3049.0053	3052.2155	3147.8581	3167.9598	3174.2058	3466.4992	3833.2995
CC1=C(CO)C2NC2C1	CC1=C(CO)[C@H]2N[C@H]2C1	
InChI=1S/C7H11NO/c1-4-2-6-7(8-6)5(4)3-9/h6-9H,2-3H2,1H3	InChI=1S/C7H11NO/c1-4-2-6-7(8-6)5(4)3-9/h6-9H,2-3H2,1H3/t6-,7+/m0/s1
