15
gdb 29484	3.32218	1.67574	1.12162	1.7245	73.93	-0.1983	0.003	0.2013	1022.8865	0.115375	-416.851356	-416.844155	-416.843211	-416.882949	27.417	
C	-0.0156734531	 1.5458260414	 0.0119901824	-0.509853
C	-0.0056299608	 0.0496809996	 0.0357903198	 0.079598
C	-0.0298550877	-0.8018632409	-1.0604509177	-0.134041
N	-0.0100929478	-2.1334829392	-0.6664624817	-0.398143
C	 0.0272442791	-2.142845831	 0.6990377115	 0.31444
C	 0.0304878515	-0.8436625477	 1.136129276	 0.258027
O	 0.0681096986	-0.883463535	 2.5055444384	-0.213435
C	 0.0847850448	-2.2274767071	 2.7757229364	 0.034971
N	 0.0617564339	-3.0282883259	 1.7492626172	-0.354961
H	 0.8807050538	 1.9655117618	 0.482871673	 0.131149
H	-0.0560823339	 1.9170334088	-1.0157819387	 0.123129
H	-0.8798735971	 1.9543249198	 0.5481655784	 0.131139
H	-0.0605300888	-0.546523575	-2.1080802356	 0.122603
H	-0.0221989011	-2.9278583071	-1.2804839447	 0.269596
H	 0.1151150587	-2.4983408925	 3.8188676153	 0.145783
122.5775	173.0992	236.4034	245.8213	338.5776	419.1704	525.3842	601.1501	604.1462	631.3814	694.4557	715.7852	761.2026	792.526	813.6337	937.3013	1000.6783	1065.5007	1078.8251	1092.0514	1128.9177	1189.6101	1271.3821	1308.7218	1359.5016	1422.5284	1460.0831	1481.3122	1481.7305	1507.5129	1545.3248	1568.7054	1621.597	3027.5747	3076.2142	3110.0721	3258.1331	3281.4504	3693.9102
CC1=CNC2=C1OC=N2	Cc1c[nH]c2c1ocn2	
InChI=1S/C6H6N2O/c1-4-2-7-6-5(4)9-3-8-6/h2-3,7H,1H3	InChI=1S/C6H6N2O/c1-4-2-7-6-5(4)9-3-8-6/h2-3,7H,1H3
