19
gdb 38684	2.67641	2.0022	1.72426	1.4056	76.94	-0.2386	0.0114	0.25	891.1122	0.163208	-385.878889	-385.872447	-385.871503	-385.90924	27.84	
C	 0.0013099464	 1.5459773436	-0.198828201	-0.295487
C	 1.2899902333	 0.7880135216	-0.0092213428	 0.000375
C	 2.1302723358	 0.8198226401	 1.2743592152	-0.241812
C	 1.4509338574	 0.064171643	 2.4474865196	 0.034456
O	 0.8244371367	-1.107818049	 1.9258177851	-0.25005
C	-0.3873108872	-0.5932597634	 1.3531186249	 0.023616
C	-0.820082191	 0.4401049865	 2.386250171	-0.088293
C	 0.2727937098	 0.8437032573	 3.0229733158	-0.085727
C	-0.0363866982	 0.0464142299	-0.0004262106	-0.044826
H	-0.3478817395	 2.1812832561	 0.6061877097	 0.112124
H	-0.2148258143	 1.9236515084	-1.1930563779	 0.103644
H	 1.8862739728	 0.6694912895	-0.9085940565	 0.0845
H	 3.0807212706	 0.3181164635	 1.0645903902	 0.104386
H	 2.3740714005	 1.8471571679	 1.5724053776	 0.09639
H	 2.1899015452	-0.243822262	 3.192704233	 0.079156
H	-1.079231984	-1.4292668233	 1.2283300027	 0.076465
H	-1.8283991872	 0.8211902849	 2.478832328	 0.105101
H	 0.3633616622	 1.6247496358	 3.766724619	 0.102964
H	-0.2702650991	-0.5619642105	-0.867751603	 0.083017
191.2378	249.0747	353.9478	424.2273	450.7572	461.8303	608.3482	669.4483	731.5646	735.2393	799.302	815.4003	830.8294	839.4667	893.7099	910.2466	932.822	953.6739	956.7296	978.2377	1012.0698	1042.4347	1062.8302	1081.6213	1090.6387	1129.6503	1139.9386	1144.5115	1210.1106	1244.1976	1278.8025	1284.6094	1311.4311	1326.3421	1360.8612	1365.1058	1376.9276	1408.2238	1476.8785	1487.2191	1671.3502	3026.8812	3063.9851	3073.2958	3082.9292	3132.1329	3143.6043	3159.2584	3208.9593	3222.0041	3235.2735
C1C2CC3OC(C=C3)C12	C1[C@H]2C[C@@H]3O[C@@H](C=C3)[C@@H]12	
InChI=1S/C8H10O/c1-2-8-7-4-5(7)3-6(1)9-8/h1-2,5-8H,3-4H2	InChI=1S/C8H10O/c1-2-8-7-4-5(7)3-6(1)9-8/h1-2,5-8H,3-4H2/t5-,6-,7+,8+/m1/s1
