22
gdb 33183	5.09968	0.65786	0.62934	1.8786	90.3	-0.193	0.0492	0.2422	1868.5873	0.195354	-367.262402	-367.252812	-367.251867	-367.298061	35.374	
C	 0.0610484928	 1.5653777531	-0.1851238564	-0.381697
C	 0.0126249342	 0.0464913708	 0.0012161296	-0.160811
C	-1.4114172476	-0.5173176479	-0.0154320828	-0.148004
C	-1.4618247586	-2.0470242446	 0.1711553409	-0.329373
C	-2.8442501809	-2.6188890262	 0.1664363781	 0.30889
C	-3.6206130031	-3.1285595783	 1.1851964388	-0.226982
C	-4.8767017299	-3.5107789126	 0.6345163085	-0.135602
C	-4.8365321653	-3.2251309505	-0.7087289294	-0.100514
N	-3.6028743388	-2.6849758278	-0.9810812627	-0.282546
H	 1.0901127476	 1.9379082678	-0.1695268484	 0.111529
H	-0.3856332105	 1.8617886868	-1.1408729285	 0.112123
H	-0.4914019255	 2.0791809684	 0.6093149725	 0.115796
H	 0.6048863273	-0.4391980404	-0.7861774859	 0.091938
H	 0.495870766	-0.2224139498	 0.9499942528	 0.096237
H	-2.0091828273	-0.0448337702	 0.7741809111	 0.10306
H	-1.8990184456	-0.2477376984	-0.9625609181	 0.083492
H	-0.8494212157	-2.5212381636	-0.6100101615	 0.095911
H	-0.9894472866	-2.3087990147	 1.124330148	 0.111477
H	-3.3129440301	-3.2169117341	 2.2165740037	 0.08351
H	-5.7094731474	-3.9486355586	 1.1631763411	 0.088099
H	-5.5681083101	-3.3610952063	-1.4889554381	 0.109651
H	-3.2923112449	-2.388004723	-1.8897036932	 0.253818
38.336	77.8654	87.5271	120.2651	230.7166	242.7784	313.4794	330.4275	420.6834	478.5007	629.1261	663.1285	702.989	731.9312	735.2645	788.1851	794.0781	846.8371	895.9576	907.749	926.956	972.2627	1010.8895	1051.5141	1060.9694	1087.0586	1120.537	1122.9718	1145.6834	1232.4792	1254.9844	1279.5972	1288.8643	1322.7329	1329.8796	1362.7562	1393.9917	1413.1662	1437.1774	1457.6056	1480.0641	1485.4166	1498.1665	1499.5548	1504.4321	1512.3111	1616.848	2996.7255	3008.1453	3015.4426	3029.3333	3035.901	3055.1157	3074.7177	3095.9338	3101.1923	3236.7544	3249.8235	3269.225	3677.3846
CCCCC1=CC=CN1	CCCCc1ccc[nH]1	
InChI=1S/C8H13N/c1-2-3-5-8-6-4-7-9-8/h4,6-7,9H,2-3,5H2,1H3	InChI=1S/C8H13N/c1-2-3-5-8-6-4-7-9-8/h4,6-7,9H,2-3,5H2,1H3
