21
gdb 58499	2.39373	1.1412	0.97422	4.2247	80.44	-0.2459	-0.0204	0.2255	1324.9108	0.178833	-424.228712	-424.218324	-424.21738	-424.263861	38.267	
C	 0.0486471382	 1.5006029487	-0.2865682516	-0.415617
C	 0.0684768135	 0.0199303641	 0.1274619899	-0.018038
C	 0.728648825	-0.1680173745	 1.5002095056	-0.395373
C	-1.3444635066	-0.5555442707	 0.1146187432	 0.414549
O	-2.2275432675	 0.0580878874	 1.0192168062	-0.470691
C	-1.9426483746	-1.1126370144	-1.134637003	-0.373147
C	-1.5998947367	-2.0555353611	 0.0253300867	-0.146125
C	-0.5070489741	-3.0390659238	-0.1401551501	 0.15931
O	-0.4727418174	-4.1160023874	 0.4036680948	-0.27227
H	 1.0660649112	 1.8976246788	-0.3477388506	 0.121351
H	-0.4255858163	 1.6398714312	-1.264153178	 0.113527
H	-0.4914293511	 2.1080496687	 0.4483377172	 0.11573
H	 0.6544087485	-0.5251417461	-0.6226039545	 0.074593
H	 0.1271000356	 0.3092808577	 2.2791705604	 0.131464
H	 0.825489234	-1.2276176749	 1.7562760409	 0.126636
H	 1.728465762	 0.2766552163	 1.5156554267	 0.109771
H	-2.4906706299	 0.9066289196	 0.6463679051	 0.28841
H	-2.9978075738	-0.9480034613	-1.3197258696	 0.126942
H	-1.3208506469	-1.1781195285	-2.0226714948	 0.121574
H	-2.4274018474	-2.4045352135	 0.632141338	 0.120634
H	 0.3053883442	-2.7280820662	-0.8376291026	 0.06677
67.4319	93.7077	146.236	207.389	210.9994	236.9456	247.4469	274.0751	284.8897	342.6594	396.7942	409.0699	457.5651	515.9275	599.5366	685.2417	847.2783	862.4227	897.0834	930.8725	932.7578	964.1544	976.0362	1037.1422	1047.8802	1069.8308	1088.5883	1132.7652	1171.7324	1190.4814	1221.8003	1286.4691	1313.557	1332.6421	1342.7877	1395.3732	1396.5977	1419.3587	1449.7707	1476.4678	1486.1382	1494.9806	1504.4261	1514.912	1813.8762	2854.9048	3028.2724	3031.2137	3039.9337	3095.0179	3105.6815	3108.5673	3118.9729	3127.4066	3190.0471	3223.336	3801.3702
CC(C)C1(O)CC1C=O	CC(C)[C@@]1(O)C[C@H]1C=O	
InChI=1S/C7H12O2/c1-5(2)7(9)3-6(7)4-8/h4-6,9H,3H2,1-2H3	InChI=1S/C7H12O2/c1-5(2)7(9)3-6(7)4-8/h4-6,9H,3H2,1-2H3/t6-,7-/m0/s1
