19
gdb 91629	2.94107	1.70121	1.49084	2.9964	72.32	-0.2509	0.078	0.3289	960.0866	0.161704	-423.011015	-423.004078	-423.003134	-423.042057	28.719	
C	-0.2174009035	 1.5589897379	-0.0207554807	-0.421333
C	 0.0385114719	 0.0516369187	 0.0008417675	 0.045903
C	 0.9216355939	-0.4981673765	-1.1724487493	-0.253918
C	 1.9819435609	-1.3225408442	-0.395301406	 0.022563
O	 1.2502760758	-1.779362502	 0.7456084975	-0.241428
C	 0.8262503337	-0.5027119503	 1.2265563685	-0.004837
C	 2.152910601	 0.2671591789	 1.3247391705	 0.03821
O	 3.2847623561	-0.5677928159	 1.5796884221	-0.241396
C	 2.9413888783	-0.2937045008	 0.223344577	 0.031189
H	 0.7142815555	 2.1318450441	-0.068484425	 0.117636
H	-0.8167369808	 1.8376409583	-0.8932367212	 0.121172
H	-0.7664777284	 1.882499272	 0.8705483149	 0.117022
H	-0.925040979	-0.4668069816	-0.0120693713	 0.084666
H	 0.3463388809	-1.1335653639	-1.8488782844	 0.108429
H	 1.3726501913	 0.3046136037	-1.7651547675	 0.098534
H	 2.4254808435	-2.1714083737	-0.9144119165	 0.086649
H	 0.2537746867	-0.6243832738	 2.1462784066	 0.083517
H	 2.215050545	 1.2930616609	 1.6694147456	 0.105621
H	 3.6565988371	 0.2642447583	-0.3729638183	 0.101801
142.6259	227.8699	261.3207	338.241	383.6841	433.2534	514.3424	584.3378	628.0608	768.5869	802.8574	828.2913	855.7424	877.2825	891.2067	921.4599	938.1134	950.2461	965.2429	984.9299	1030.7911	1039.2758	1052.7289	1092.5843	1119.6609	1132.1736	1185.2196	1231.6473	1245.9076	1252.2944	1271.558	1293.4993	1318.1954	1328.939	1343.8565	1370.5612	1413.8383	1416.5102	1493.7572	1499.3433	1505.0183	3031.5504	3051.9889	3053.9103	3095.6826	3103.1166	3108.9418	3120.487	3129.8096	3164.7388	3184.7009
CC1CC2OC1C1OC21	C[C@H]1C[C@@H]2O[C@H]1[C@H]1O[C@@H]21	
InChI=1S/C7H10O2/c1-3-2-4-6-7(9-6)5(3)8-4/h3-7H,2H2,1H3	InChI=1S/C7H10O2/c1-3-2-4-6-7(9-6)5(3)8-4/h3-7H,2H2,1H3/t3-,4-,5+,6-,7+/m0/s1
