19
gdb 14774	6.12373	0.75917	0.71063	4.0731	71.13	-0.2477	0.0353	0.283	1593.734	0.16423	-402.222052	-402.212415	-402.211471	-402.258204	32.573	
C	 0.1373959265	 1.3754123686	 0.2148145407	-0.385639
C	 0.1539291494	-0.1349343567	 0.0544139484	-0.029377
O	 0.6319998442	-0.4476833284	-1.2406783443	-0.254025
C	 0.6977813037	-1.8355432391	-1.5014413585	-0.062313
C	 1.2873932763	-2.014086205	-2.8922451897	-0.165674
N	 2.6005354578	-1.4028212213	-2.9799252488	-0.267664
C	 3.6981633861	-2.0536800099	-3.4422831075	 0.156574
O	 3.7145770967	-3.1906596352	-3.8668302105	-0.327463
H	 1.1440199314	 1.7866200716	 0.0954443919	 0.123808
H	-0.5120523528	 1.8344850166	-0.535829324	 0.129179
H	-0.2320005241	 1.6483681149	 1.2076089144	 0.119662
H	 0.7990829122	-0.6005044113	 0.8180729306	 0.090576
H	-0.8581242401	-0.5504116146	 0.1917339311	 0.090903
H	 1.3310735984	-2.3381541635	-0.7523162677	 0.097798
H	-0.3050377006	-2.2907075259	-1.4557556335	 0.09319
H	 1.4054927637	-3.0729047234	-3.1313891487	 0.147482
H	 0.6083683362	-1.5688221433	-3.6306677446	 0.117429
H	 2.6937804062	-0.468603764	-2.6137184955	 0.254099
H	 4.6030999887	-1.4157122102	-3.3909301842	 0.071455
30.702	55.5934	81.6245	137.0274	182.7349	242.5216	251.5727	254.4616	359.2887	434.6278	532.8037	579.5468	760.8871	819.9976	844.6473	890.3284	954.4336	1031.7708	1058.185	1075.4727	1115.7984	1150.0937	1164.3195	1189.3878	1218.4837	1255.5125	1285.1034	1296.7094	1376.9445	1394.8095	1407.6714	1429.3828	1448.153	1484.4048	1488.3168	1498.9968	1508.2851	1526.4356	1535.4069	1804.3915	2933.3615	2957.4601	2970.0169	2987.3693	2998.2205	3031.3897	3045.4262	3119.7517	3122.4352	3125.6267	3640.679
CCOCCNC=O	CCOCCNC=O	
InChI=1S/C5H11NO2/c1-2-8-4-3-6-5-7/h5H,2-4H2,1H3,(H,6,7)	InChI=1S/C5H11NO2/c1-2-8-4-3-6-5-7/h5H,2-4H2,1H3,(H,6,7)
