18
gdb 54858	3.08797	1.35679	1.25369	6.5506	71.27	-0.241	0.0247	0.2657	1059.7851	0.150753	-439.109756	-439.102386	-439.101442	-439.141834	28.903	
O	-0.0586774989	 0.1887185066	-0.8794296655	-0.347405
C	-0.0687778401	 1.1710806825	-0.1830671647	 0.409288
O	 1.0334812366	 1.6225076142	 0.4301251631	-0.388972
C	-1.3384172405	 1.9580938616	 0.0391346722	-0.179595
C	-2.0269518609	 2.1127057929	 1.3987134375	-0.059368
C	-1.2452473173	 1.8788481338	 2.6974371006	-0.244112
C	-0.5028230652	 3.2138238172	 2.9134815478	-0.156404
N	-0.2479670684	 3.6807336159	 1.5294678947	-0.343926
H	-0.0440823345	 4.6700541377	 1.4705795835	 0.240408
H	 0.8132022884	 2.4932711303	 0.8626199806	 0.316113
C	-1.4193684273	 3.3075025648	 0.7299732688	-0.049495
H	-2.0321430389	 1.8034435474	-0.7798600517	 0.117911
H	-3.0992298085	 1.9627686508	 1.4084350223	 0.105692
H	-1.9185741381	 1.6569822954	 3.5276730611	 0.114167
H	-0.5396632283	 1.0479323509	 2.6110405515	 0.137985
H	-1.1415375979	 3.9186683365	 3.4655355693	 0.104206
H	 0.4398607561	 3.1035971624	 3.4570358214	 0.12008
H	-2.0004982162	 4.108548839	 0.2856785975	 0.103428
87.705	148.8681	184.472	310.7928	371.8349	395.7384	510.6527	585.8665	680.4353	703.1247	729.7426	780.3371	794.538	843.767	865.0262	908.0877	935.5418	975.0955	990.769	1014.7462	1026.1416	1049.5216	1090.4261	1110.444	1119.8417	1169.695	1220.8971	1229.8618	1282.0607	1297.4612	1327.617	1333.7953	1358.8745	1401.6948	1440.3098	1499.6724	1508.482	1524.962	1847.6764	2996.8014	3068.921	3088.9579	3118.5357	3142.6419	3162.1739	3176.5637	3190.9245	3570.9521
[O-]C(=O)C1C2CC[NH2+]C12	O=C(O)[C@H]1[C@H]2CCN[C@@H]12	
InChI=1S/C6H9NO2/c8-6(9)4-3-1-2-7-5(3)4/h3-5,7H,1-2H2,(H,8,9)	InChI=1S/C6H9NO2/c8-6(9)4-3-1-2-7-5(3)4/h3-5,7H,1-2H2,(H,8,9)/t3-,4+,5-/m1/s1
