19
gdb 37984	3.01305	1.80235	1.35917	0.292	75.17	-0.2425	0.1031	0.3456	972.4806	0.162456	-422.965183	-422.958496	-422.957551	-422.996056	27.906	
C	 0.0133465427	 1.6566308448	 0.0076718099	-0.230988
C	 1.501496391	 1.198663337	 0.0201345895	-0.153794
C	 1.0358339511	 0.1830511392	 1.1147191901	 0.164578
O	 1.7905205773	-0.9077030225	 1.5556441273	-0.27395
C	 2.7066460762	-1.4961622166	 0.6550128723	-0.088827
C	 2.0526762443	-1.95443222	-0.6366462273	-0.088804
O	 1.8138474584	-0.8927490246	-1.5380391739	-0.273953
C	 1.047680149	 0.190331956	-1.098023397	 0.164587
C	-0.0664886872	 0.1016490781	-0.0038500786	-0.153786
H	-0.3480277262	 2.1518780899	 0.9102295863	 0.101981
H	-0.3276445961	 2.1653076797	-0.8953479932	 0.101983
H	 2.3821789315	 1.8419733119	 0.024281844	 0.075076
H	 0.6763692147	 0.6501654038	 2.0359001509	 0.080639
H	 3.5268827464	-0.8016551976	 0.415429597	 0.101325
H	 3.129674798	-2.3547846926	 1.1868596442	 0.108448
H	 2.7147335567	-2.6462314306	-1.1678162226	 0.108446
H	 1.1191860049	-2.4871086021	-0.3970976242	 0.101322
H	 0.7324461295	 0.6875901291	-2.0196236794	 0.080641
H	-0.972678692	-0.5052015829	-0.0080058351	 0.075076
128.0743	247.1688	357.0251	388.451	389.6801	444.3614	504.2736	594.6617	645.1237	732.7846	817.3271	837.7495	857.8687	886.484	905.5102	951.7637	989.7474	1004.3254	1013.2978	1052.5721	1071.2524	1087.2818	1090.1093	1111.8114	1127.0493	1164.6586	1165.8924	1204.5668	1215.7206	1250.8383	1250.944	1268.5697	1286.005	1329.9411	1397.1522	1418.5233	1441.2708	1463.5836	1488.1663	1488.8791	1526.7177	2986.1194	2996.1449	3067.1207	3069.2599	3074.668	3076.0443	3082.0207	3106.3363	3113.4729	3141.578
C1C2C3OCCOC2C13	C1[C@H]2[C@@H]3OCCO[C@H]2[C@H]13	
InChI=1S/C7H10O2/c1-2-9-7-4-3-5(7)6(4)8-1/h4-7H,1-3H2	InChI=1S/C7H10O2/c1-2-9-7-4-3-5(7)6(4)8-1/h4-7H,1-3H2/t4-,5+,6-,7+
