18
gdb 48272	2.91809	1.05527	0.84886	1.5218	79.49	-0.2218	-0.037	0.1849	1369.4584	0.144782	-401.88456	-401.874944	-401.874	-401.920099	34.641	
O	 0.4918544987	-0.3736804762	-0.6272573938	-0.242977
C	 0.24328547	 0.7754223859	-0.3785590129	 0.164118
C	 1.3288292762	 1.821960355	-0.0404223044	-0.244723
N	 2.6744829646	 1.2727151462	 0.0127817765	-0.282706
C	 3.1156966635	 0.8652269329	 1.3240381508	 0.050987
C	 2.5879673144	-0.3637196684	 2.0439954591	-0.282414
C	 3.9870348976	-0.343586422	 1.4654804178	-0.287565
C	 1.1827582311	 2.8985850111	-1.0281445593	 0.308029
C	 1.0104431043	 3.7402178764	-1.8685849848	-0.422033
H	-0.7914326217	 1.1766625214	-0.4139563877	 0.103913
H	 1.0710119732	 2.225201104	 0.9496408555	 0.129533
H	 2.738667964	 0.501383183	-0.6432751167	 0.230787
H	 3.3696992474	 1.7156448162	 1.952889593	 0.096114
H	 2.4750625741	-0.3243618805	 3.1224281442	 0.107393
H	 1.8513540005	-0.9666875606	 1.5267543698	 0.132763
H	 4.1665173463	-0.9405955533	 0.576738583	 0.118492
H	 4.8353046687	-0.2922215917	 2.1384857858	 0.116222
H	 0.885487517	 4.5011763004	-2.5990772859	 0.204067
37.3725	73.4881	106.3165	138.3994	190.3922	244.9608	272.4415	366.2814	438.1012	488.0921	513.9988	624.7593	660.9388	667.6153	719.9383	772.6995	808.3302	823.1386	868.0772	943.0964	983.2791	998.2805	1041.3947	1053.9026	1080.9018	1133.9951	1151.163	1196.5432	1204.5889	1238.2589	1256.0248	1322.7149	1385.1671	1403.6292	1461.8766	1495.6091	1518.1895	1830.717	2231.8247	2914.754	3012.9927	3127.1743	3131.3186	3137.1466	3212.8468	3233.7541	3502.527	3532.8227
O=CC(NC1CC1)C#C	O=C[C@@H](NC1CC1)C#C	
InChI=1S/C7H9NO/c1-2-6(5-9)8-7-3-4-7/h1,5-8H,3-4H2	InChI=1S/C7H9NO/c1-2-6(5-9)8-7-3-4-7/h1,5-8H,3-4H2/t6-/m0/s1
