23
gdb 114337	3.02749	1.10327	1.04964	1.2594	85.54	-0.2325	0.0823	0.3148	1321.1371	0.206067	-388.290871	-388.281588	-388.280644	-388.324976	35.479	
C	 0.0853748357	 1.5222529967	-0.093176197	-0.382367
C	 0.0379435191	-0.0057866966	-0.0066772659	-0.194954
C	 0.7049860492	-0.5590594894	 1.2440047025	 0.171497
C	 0.712406812	-2.0990415116	 1.3809616271	-0.278308
C	 2.0223076971	-2.3758893511	 2.1171997021	-0.096154
C	 3.3355786009	-2.3175789262	 1.3455690255	-0.032534
C	 3.4352751212	-2.4072323414	-0.1594184397	-0.415306
C	 2.8042512675	-1.0902564273	 2.0460446634	 0.069468
O	 2.0931449398	-0.175246138	 1.2534159903	-0.274909
H	 1.1198497311	 1.8748181432	-0.0860508579	 0.137092
H	-0.394735889	 1.8810731093	-1.0086510818	 0.107846
H	-0.4309213741	 1.9819050782	 0.7569998504	 0.110759
H	-1.0033614306	-0.3525265282	-0.0144495799	 0.094921
H	 0.5222507291	-0.4474029695	-0.8866722897	 0.101523
H	 0.2218488636	-0.1224949148	 2.1351174225	 0.063728
H	-0.1499652202	-2.4545992028	 1.9513974921	 0.101635
H	 0.6741148899	-2.5787096019	 0.3963731387	 0.101549
H	 1.991081599	-2.9665106604	 3.0252517996	 0.08541
H	 4.1549277237	-2.8007845122	 1.874281292	 0.080979
H	 2.7429915219	-1.7168592886	-0.6454103414	 0.131784
H	 4.4448349854	-2.1399384138	-0.4891289082	 0.116858
H	 3.2254815212	-3.4207553148	-0.5187017926	 0.112383
H	 3.3221981766	-0.6484374188	 2.8926801279	 0.087101
70.1001	111.5371	151.2375	180.8103	215.2849	231.9448	271.5396	386.1416	449.3265	454.2339	569.3932	616.0995	720.6536	753.7646	770.9109	790.4242	845.3574	897.0706	940.7089	961.8417	983.051	989.1171	1025.3871	1046.3225	1057.1351	1098.5081	1118.7775	1134.1416	1135.0487	1150.1467	1164.6527	1216.3721	1223.3906	1282.449	1299.3531	1319.2516	1339.5846	1353.3067	1377.6648	1406.8572	1409.2431	1417.4403	1428.3385	1474.9623	1486.9735	1497.2025	1497.6162	1502.9591	1509.3059	2950.3245	3022.6615	3034.667	3036.6115	3040.6267	3059.4297	3090.2583	3092.2066	3100.9225	3118.6646	3124.1444	3132.9766	3142.1135	3174.5319
CCC1CC2C(C)C2O1	CC[C@H]1C[C@H]2[C@@H](C)[C@H]2O1	
InChI=1S/C8H14O/c1-3-6-4-7-5(2)8(7)9-6/h5-8H,3-4H2,1-2H3	InChI=1S/C8H14O/c1-3-6-4-7-5(2)8(7)9-6/h5-8H,3-4H2,1-2H3/t5-,6+,7+,8-/m1/s1
