12
gdb 131764	2.05855	1.79676	1.00948	3.2584	62.42	-0.3116	-0.0896	0.222	1073.1217	0.077397	-468.759853	-468.752125	-468.751181	-468.793145	26.834	
O	 0.1230778659	 1.2159675822	-0.6560496323	-0.39608
C	-0.0003982934	 0.0226382316	 0.0917510823	-0.191684
C	-1.4097210911	-0.4955507608	 0.0707959186	 0.219856
N	-2.1075101388	-0.7196925199	 1.1484652683	-0.1182
O	-3.3382495729	-1.1503321248	 0.7233042057	-0.137088
N	-3.4182535349	-1.1888702709	-0.6265697827	-0.13144
C	-2.2444950276	-0.7891094583	-1.0569473673	 0.202677
C	-1.931026775	-0.6953136893	-2.4393968444	 0.277975
N	-1.6465618883	-0.6202445621	-3.5570986527	-0.314929
H	-0.3465206664	 1.9166889291	-0.1904605279	 0.299625
H	 0.6628023458	-0.7034378342	-0.3887844712	 0.15055
H	 0.3180885767	 0.1315988574	 1.1356883937	 0.138737
47.774	120.296	176.5359	191.1909	296.044	376.0009	418.4502	525.2127	553.641	599.9548	648.7136	710.4207	799.0025	901.8272	946.1789	982.7701	1061.5358	1083.8413	1201.7417	1234.4064	1375.797	1408.8831	1416.9577	1490.7813	1498.8314	1596.8154	2371.1502	3036.2012	3092.222	3810.0538
OCC1=NON=C1C#N	OCc1nonc1C#N	
InChI=1S/C4H3N3O2/c5-1-3-4(2-8)7-9-6-3/h8H,2H2	InChI=1S/C4H3N3O2/c5-1-3-4(2-8)7-9-6-3/h8H,2H2
