18
gdb 58929	2.89877	1.62816	1.24811	2.7435	71.39	-0.2482	0.0419	0.29	1026.4705	0.14651	-438.965131	-438.957072	-438.956128	-438.997963	31.202	
C	-0.0562703388	 1.6132406027	-0.006021981	-0.39059
C	-0.0790762139	 0.0936291716	 0.1215647348	 0.010087
O	 0.5242362013	-0.2844108084	 1.3537860633	-0.452289
C	-1.4745627928	-0.4603580296	 0.0779421993	 0.47905
O	-2.428379604	-0.1384435976	-0.9752340361	-0.36321
C	-3.1753465707	-1.0396261349	-0.1026749796	 0.058825
C	-1.9455605766	-1.9447834206	 0.2185912541	-0.130165
N	-2.036567432	-1.8127935224	 1.710814077	-0.367697
C	-2.5449578036	-0.4879568684	 1.2173783781	-0.114419
H	 0.9751128022	 1.9692683063	 0.0612400374	 0.124725
H	-0.4789113123	 1.9264051633	-0.9647645705	 0.129361
H	-0.631930392	 2.072903151	 0.8028344012	 0.117525
H	 0.4855610057	-0.3419547869	-0.7196597675	 0.078016
H	 0.0001715869	-0.9933700584	 1.7548627856	 0.300492
H	-4.2051155541	-1.2851045081	-0.3646933611	 0.100037
H	-1.5787549601	-2.8343709487	-0.2936908809	 0.098475
H	-2.7951914598	-2.3841370528	 2.0884978397	 0.220365
H	-2.8810194254	 0.3161091418	 1.8713027763	 0.101415
51.8054	159.9341	185.3917	229.8617	301.9998	393.5691	402.275	489.8202	510.1581	551.1589	661.8903	766.8777	775.0128	815.1691	853.5435	885.2894	901.1501	905.7038	937.9186	1007.2327	1023.9826	1053.9861	1080.4449	1111.0846	1130.8598	1141.1034	1147.2512	1153.4234	1203.6633	1240.295	1274.8295	1285.4681	1329.894	1358.7786	1379.6111	1404.5682	1459.8081	1490.1823	1500.6999	2962.4075	3044.6825	3111.8128	3121.1198	3124.5699	3127.4988	3134.7331	3422.2594	3705.4764
CC(O)C12OC3C1NC23	C[C@@H](O)[C@@]12O[C@H]3[C@@H]1N[C@@H]23	
InChI=1S/C6H9NO2/c1-2(8)6-4-3(9-6)5(6)7-4/h2-5,7-8H,1H3	InChI=1S/C6H9NO2/c1-2(8)6-4-3(9-6)5(6)7-4/h2-5,7-8H,1H3/t2-,3-,4-,5+,6+/m1/s1
