20
gdb 104536	2.61449	1.2302	1.04389	4.1905	78.77	-0.2699	0.0202	0.29	1225.259	0.170861	-403.151891	-403.142635	-403.141691	-403.186091	34.561	
O	 0.2939863641	 1.2575230584	-0.4818181787	-0.418296
C	 0.0684679742	-0.0190926977	 0.0788944287	-0.123361
C	-1.3983580301	-0.4886100335	 0.029038201	 0.30455
C	-2.2569088087	 0.161846861	 1.1322888173	-0.419813
C	-2.233244906	 1.6247511947	 1.1273460649	 0.267362
N	-2.1804971506	 2.7803789129	 1.1193959872	-0.321122
C	-1.9624649299	-0.4586648372	-1.4228008554	-0.249925
C	-1.6534340321	-1.9758181764	-1.5469498292	-0.212515
C	-1.4909600771	-2.0458637838	-0.0036177479	-0.272441
H	-0.1355779897	 1.9264234899	 0.0631563929	 0.300303
H	 0.6781758015	-0.7082156777	-0.5150927709	 0.110248
H	 0.4364029881	-0.0832332408	 1.1171030329	 0.088286
H	-3.2987231023	-0.1635164649	 1.0357576193	 0.149081
H	-1.9097645274	-0.176106305	 2.1173130841	 0.152279
H	-3.0361846187	-0.2507965055	-1.4472025867	 0.097951
H	-1.4580465551	 0.2253232667	-2.1066115982	 0.127701
H	-2.4298971044	-2.6052210799	-1.9856519913	 0.104176
H	-0.717753095	-2.1708128004	-2.0761010417	 0.113477
H	-0.6329245926	-2.594207978	 0.3964961953	 0.103144
H	-2.3940761185	-2.4154868229	 0.4914410464	 0.098913
59.1648	116.7032	146.4948	155.9896	237.8822	299.749	329.3907	362.424	397.2213	427.3506	471.6626	516.1232	677.2777	740.0176	794.7669	854.9001	899.6627	906.7724	927.892	943.0254	961.8339	979.5088	1059.3157	1067.9289	1103.7377	1136.218	1180.8651	1208.0564	1220.6775	1255.8935	1261.3547	1275.8957	1308.3805	1320.9444	1328.679	1391.0647	1432.4257	1457.3917	1480.3493	1486.7403	1498.6126	1511.3567	2347.9531	2962.2445	3030.1984	3047.4401	3061.575	3066.6072	3071.8094	3074.2296	3094.2852	3118.3425	3132.1022	3801.0048
OCC1(CC#N)CCC1	OCC1(CC#N)CCC1	
InChI=1S/C7H11NO/c8-5-4-7(6-9)2-1-3-7/h9H,1-4,6H2	InChI=1S/C7H11NO/c8-5-4-7(6-9)2-1-3-7/h9H,1-4,6H2
