16
gdb 70515	2.47749	1.96039	1.26084	5.2631	72.51	-0.2177	-0.032	0.1857	970.6124	0.125579	-437.907747	-437.900287	-437.899343	-437.939259	29.847	
O	 0.0510555892	 1.3515963375	-0.106573217	-0.476703
C	 0.0100847814	-0.0282159625	-0.050571078	 0.33307
C	-0.5155333433	-0.7800757937	-1.254076443	-0.358184
C	-1.3353207304	-0.7369446057	 0.0180663847	-0.079724
N	-1.4149255898	-1.9004043947	 0.8477397059	-0.286574
C	-0.2986298127	-2.4973001592	 1.3280634595	 0.028845
C	 0.9454656612	-1.9427662005	 1.2861883108	-0.253238
C	 1.1357212046	-0.6122351278	 0.7646636927	 0.319327
O	 2.104839351	 0.1116277951	 0.9823862898	-0.402631
H	 0.9376396484	 1.5593350045	 0.2419289766	 0.293867
H	-0.8623814019	-0.1541248173	-2.0678854073	 0.135164
H	-0.0478567587	-1.7166082395	-1.5365732609	 0.126622
H	-2.2247094182	-0.1174372799	 0.0334467563	 0.123851
H	-2.2765603134	-2.4206169365	 0.8452831299	 0.258889
H	-0.4649520174	-3.4609709362	 1.7996910534	 0.129501
H	 1.7783201302	-2.4383595934	 1.7663520667	 0.107919
122.0004	217.849	268.6706	337.5779	352.8048	401.9992	467.6447	493.1842	517.7773	537.2203	541.7162	678.848	734.2612	797.4274	829.9427	883.8043	887.9808	915.9817	974.9575	987.4754	1029.9303	1045.0669	1080.3726	1138.9857	1188.7157	1235.203	1274.8287	1304.1032	1404.0173	1423.7128	1439.3209	1478.1689	1536.2665	1647.5895	1719.5533	3137.2094	3179.9288	3182.7883	3226.342	3237.6924	3620.5073	3643.4378
OC12CC1NC=CC2=O	O[C@]12C[C@H]1NC=CC2=O	
InChI=1S/C6H7NO2/c8-5-1-2-7-4-3-6(4,5)9/h1-2,4,7,9H,3H2	InChI=1S/C6H7NO2/c8-5-1-2-7-4-3-6(4,5)9/h1-2,4,7,9H,3H2/t4-,6-/m1/s1
