16
gdb 44593	3.35224	1.765	1.42	3.0965	74.54	-0.2301	-0.0458	0.1842	908.1675	0.126186	-400.697723	-400.691264	-400.69032	-400.728425	26.231	
O	 0.2003214913	 0.0692055691	 0.3801178937	-0.304567
C	 0.1534156446	 1.1958811877	-0.0183840915	 0.350214
C	-1.0507399628	 2.1934644967	 0.1088780103	-0.254542
N	-0.8180451753	 3.3470349384	-0.7925320496	-0.120819
C	 0.319852385	 4.3342734719	-0.6868194002	-0.020239
C	 1.4429912077	 4.3168492267	 0.3582704767	-0.275913
C	 1.807530409	 2.8453757229	 0.3985955213	-0.080183
C	 1.1740231399	 2.1592350537	-0.5779412274	-0.045412
C	 0.4449555667	 3.1035333154	-1.4984743745	-0.098872
H	-1.9898512924	 1.7159548012	-0.1879171047	 0.139162
H	-1.1343168017	 2.4735831853	 1.1652640426	 0.133816
H	 0.0376636629	 5.2861091238	-1.1249896197	 0.104061
H	 2.2418846544	 5.0036927438	 0.0462576954	 0.127784
H	 1.13470579	 4.6375388491	 1.3618011114	 0.125072
H	 2.1878252	 2.3784724631	 1.3029181889	 0.122813
H	 0.4646895907	 3.0184159411	-2.5808129529	 0.097623
128.6287	219.9942	311.629	405.7924	451.3794	536.0731	606.3142	639.0681	654.6262	761.3848	778.2637	833.2685	846.2651	863.4477	916.6879	953.4383	971.6521	977.0453	1003.4712	1034.7608	1057.5456	1086.172	1127.7881	1178.5767	1194.1034	1245.804	1262.7153	1280.2919	1290.8708	1332.9264	1372.5604	1460.6069	1470.4513	1583.9662	1864.7592	3014.4183	3042.0111	3047.3829	3090.9334	3149.1581	3170.2138	3172.8184
O=C1CN2C3CC=C1C23	O=C1CN2[C@H]3C[CH][C]1[C@@H]23	
InChI=1S/C7H7NO/c9-6-3-8-5-2-1-4(6)7(5)8/h1,5,7H,2-3H2	InChI=1S/C7H7NO/c9-6-3-8-5-2-1-4(6)7(5)8/h1,5,7H,2-3H2/t5-,7+,8?/m0/s1
