19
gdb 43366	2.76246	1.56704	1.19477	3.3475	81.41	-0.2341	-0.0442	0.1898	1081.0845	0.160711	-385.919507	-385.911672	-385.910728	-385.952397	30.274	
O	-0.3407521137	 0.0368651206	 0.0113023131	-0.353175
C	-0.2172311664	 1.24243278	 0.0147729015	 0.322691
C	-1.2926255066	 2.2573174921	 0.0338604924	-0.175037
C	-0.7588240473	 3.484510264	 0.0319347464	-0.057565
C	 0.7495099188	 3.4759842178	 0.0115102962	-0.358225
C	 1.125837396	 1.98160181	-0.0002394344	 0.245396
C	 2.1670196017	 1.5037829056	 1.0630951729	-0.262434
C	 3.2635023725	 1.4918448523	-0.0316800572	-0.211086
C	 2.1374698617	 1.5134404636	-1.0959032657	-0.262421
H	-2.3434702526	 1.9984895694	 0.0469983089	 0.116986
H	-1.3229990027	 4.4115452418	 0.0436287658	 0.115141
H	 1.1274792492	 4.0140944886	-0.8675746655	 0.119149
H	 1.1511217385	 4.0062638894	 0.8848556439	 0.119158
H	 2.3137025615	 2.1488396632	 1.9333665716	 0.095311
H	 1.9159275489	 0.4945632368	 1.4002037256	 0.124111
H	 3.8518792508	 2.4139215802	-0.0355845353	 0.100413
H	 3.9508863286	 0.6431534009	-0.0448966707	 0.102171
H	 1.8771336585	 0.5072498177	-1.4350568781	 0.124104
H	 2.2603255026	 2.166308886	-1.9640305316	 0.095313
48.6115	110.0542	200.7732	288.8151	294.158	387.6829	399.8342	564.4587	645.1149	675.4177	695.967	764.2619	775.4138	848.3241	875.3794	901.033	906.5838	948.035	957.6137	966.5949	998.5873	1047.7008	1069.2435	1084.2522	1117.3546	1185.0899	1199.2605	1215.0705	1215.3039	1263.6559	1273.8142	1277.5605	1294.6568	1328.7809	1363.4243	1468.4549	1469.5944	1484.7309	1503.2064	1648.3921	1801.1011	3019.2559	3045.0331	3052.671	3053.801	3060.5046	3099.5713	3112.8486	3122.8184	3186.502	3227.6318
O=C1C=CCC11CCC1	O=C1C=CCC21CCC2	
InChI=1S/C8H10O/c9-7-3-1-4-8(7)5-2-6-8/h1,3H,2,4-6H2	InChI=1S/C8H10O/c9-7-3-1-4-8(7)5-2-6-8/h1,3H,2,4-6H2
