18
gdb 112199	2.48764	1.33047	0.97148	5.2435	73.04	-0.2597	-0.0011	0.2586	1243.0393	0.147206	-439.085004	-439.076307	-439.075363	-439.118691	31.867	
C	-0.1187542808	 1.5608734089	 0.0913092272	-0.386595
C	 0.3303874916	 0.1097625168	-0.1072513337	-0.197429
C	 0.7380862975	-0.5591052024	 1.1901700196	 0.06964
O	-0.3942114167	-0.6968699148	 2.1249178644	-0.27824
C	-0.2501921855	-2.0671251185	 2.2111683102	 0.451022
O	-0.8916035581	-2.8308240181	 2.8546207644	-0.328441
C	 0.901869952	-2.0803640408	 1.2335506731	 0.096762
C	 1.2268913541	-3.0467538666	 0.1582189147	-0.292062
N	 2.0914905352	-2.9127567847	 1.3387789569	-0.348745
H	 0.6869120531	 2.1715192856	 0.5130957363	 0.118727
H	-0.4175933642	 2.0106132597	-0.8595493887	 0.120048
H	-0.9703958056	 1.6089688607	 0.7752360114	 0.145162
H	-0.4717563547	-0.4780815763	-0.5681836179	 0.11274
H	 1.1876046584	 0.0698707021	-0.7927498316	 0.101955
H	 1.5447793589	-0.0122965113	 1.692355202	 0.098888
H	 0.676587836	-3.9808944837	 0.0994650803	 0.14771
H	 1.5592889311	-2.6404492523	-0.7937713237	 0.125909
H	 2.9192859077	-2.3625300744	 1.119327645	 0.242948
89.3094	115.115	143.2545	212.4567	223.247	230.9635	298.1913	357.2606	473.3248	571.9893	633.2041	721.9951	738.5244	806.7159	854.1551	880.9827	916.0738	947.9974	976.2752	987.5539	1024.9993	1065.8297	1079.6867	1125.6434	1130.5718	1168.3173	1257.1533	1262.3328	1285.3655	1294.3423	1344.5715	1404.4398	1413.8767	1425.5107	1475.0046	1498.0791	1507.984	1508.9437	1946.3926	3022.4278	3040.0472	3042.2753	3070.3948	3109.2856	3111.2873	3124.5823	3203.7258	3494.2111
CCC1OC(=O)C11CN1	CC[C@H]1OC(=O)[C@]21CN2	
InChI=1S/C6H9NO2/c1-2-4-6(3-7-6)5(8)9-4/h4,7H,2-3H2,1H3	InChI=1S/C6H9NO2/c1-2-4-6(3-7-6)5(8)9-4/h4,7H,2-3H2,1H3/t4-,6-/m1/s1
