18
gdb 99659	2.27947	1.26993	1.09381	3.9305	72.53	-0.2805	0.0082	0.2887	1216.9557	0.144832	-439.058171	-439.048261	-439.047317	-439.093831	34.297	
C	 0.233583947	 1.9421473532	 1.0240295734	-0.248324
O	 1.0297281295	 0.8703306712	 0.5418473837	-0.234032
C	 0.8467675839	-0.3416684653	 1.2352544882	-0.056649
C	-0.4958158205	-0.9208462249	 0.9980853378	 0.295463
N	-1.5765850026	-1.2979770653	 0.8415811703	-0.336163
C	 1.9973744444	-1.2627715739	 0.8406447162	 0.030906
O	 1.7289645345	-2.6470409941	 0.6709143821	-0.247298
C	 2.1515651613	-1.8923359286	-0.4792811582	 0.0919
C	 1.2066194084	-1.7551787844	-1.643236411	-0.435851
H	 0.4413855544	 2.1470111508	 2.084420263	 0.115669
H	 0.4989880421	 2.8184006337	 0.4302521338	 0.141344
H	-0.8378192449	 1.7350154323	 0.9055783048	 0.138518
H	 0.9079890915	-0.1682429204	 2.3234019299	 0.118739
H	 2.9044982239	-1.0362603705	 1.4017145474	 0.105469
H	 3.1832509877	-2.1094809865	-0.7638756532	 0.098896
H	 0.1833099877	-1.5515136874	-1.3289322275	 0.158173
H	 1.5428298381	-0.9427333584	-2.2954837445	 0.130759
H	 1.2057282637	-2.6799569515	-2.2292088861	 0.132481
34.5523	106.3485	136.6433	140.8317	174.7016	182.3881	232.6928	285.3086	358.657	383.6555	412.7376	497.8089	604.3241	696.1856	778.9191	800.0539	890.4168	970.3812	1008.7425	1023.2553	1075.9602	1101.5801	1138.2064	1171.6512	1178.511	1183.4943	1217.5883	1311.6994	1339.7247	1358.584	1396.3695	1423.6771	1466.952	1478.6031	1487.7536	1491.4523	1508.0443	1511.2182	2355.3454	2960.8656	2995.3132	3046.7827	3058.8143	3086.4098	3106.7058	3107.5606	3135.9338	3160.3618
COC(C#N)C1OC1C	CO[C@@H](C#N)[C@H]1O[C@H]1C	
InChI=1S/C6H9NO2/c1-4-6(9-4)5(3-7)8-2/h4-6H,1-2H3	InChI=1S/C6H9NO2/c1-4-6(9-4)5(3-7)8-2/h4-6H,1-2H3/t4-,5-,6-/m0/s1
