16
gdb 51059	5.25563	1.07093	1.03471	3.5165	71.37	-0.2241	-0.0261	0.198	1149.5764	0.122889	-400.62726	-400.619808	-400.618864	-400.660235	27.846	
O	-0.5593859924	 0.6768043808	 0.76409578	-0.240861
C	 0.0588780839	 1.0129603952	-0.2127131581	 0.15309
C	 1.3260162928	 1.8516259067	-0.1672978834	-0.436423
C	 1.3167461788	 2.9739925171	-1.1586169787	 0.35451
C	 2.4259292596	 3.9492224063	-1.6434354801	-0.182266
C	 1.3330297843	 4.9102251582	-2.1327142341	-0.106139
C	 1.8478264463	 3.8145220065	-3.0279886465	-0.003538
N	 0.7742923614	 2.8334298639	-2.5614981707	-0.221018
C	 0.2612815449	 3.9119911698	-1.6341843053	-0.105472
H	-0.254314027	 0.7133296359	-1.2343032977	 0.110189
H	 1.4707411084	 2.2160455301	 0.8547085792	 0.130096
H	 2.1640631616	 1.1781871635	-0.4066522093	 0.131889
H	 3.4279937656	 4.1681435873	-1.3034667472	 0.102086
H	 1.3642548058	 5.9853713688	-2.2301395037	 0.103293
H	 2.2951296517	 3.8192226461	-4.0137206326	 0.105365
H	-0.7894264457	 4.0062677837	-1.3851360318	 0.105199
53.8706	67.3523	165.0386	253.8698	352.9577	452.7885	640.7191	656.3501	739.0244	749.0907	781.9186	815.3227	822.6222	846.7908	869.6831	909.3716	946.1718	992.3386	998.1824	1002.984	1024.1316	1040.8297	1061.6564	1075.5259	1120.752	1187.5676	1210.4016	1223.4828	1258.9895	1319.7983	1345.0076	1414.9058	1426.0602	1456.4865	1831.7708	2926.2267	2997.1965	3084.6535	3178.7574	3192.9317	3217.6047	3231.0668
O=CCC12C3C4C3N1C24	O=CC[C@@]12[C@@H]3[C@H]4[C@@H]3N1[C@@H]24	
InChI=1S/C7H7NO/c9-2-1-7-4-3-5(4)8(7)6(3)7/h2-6H,1H2	InChI=1S/C7H7NO/c9-2-1-7-4-3-5(4)8(7)6(3)7/h2-6H,1H2/t3-,4+,5-,6+,7-,8?/m0/s1
