17
gdb 18621	3.12431	2.06688	1.7674	3.2072	69.29	-0.2506	0.0268	0.2774	830.3662	0.144123	-363.874741	-363.867674	-363.86673	-363.90586	27.225	
C	-0.0667919193	 1.549458808	 0.0977758384	-0.423585
C	 0.0647869578	 0.0472925074	-0.0325282754	-0.014661
C	 0.6838759767	-0.6507695	-1.2110399151	-0.092889
C	 1.6063904211	 0.1643714497	-2.0994790256	-0.107983
O	 2.639165696	 0.6920140316	-1.2477903145	-0.247154
C	 2.6261559466	 0.0804138396	-0.0165372691	 0.417596
N	 3.5485331542	 0.1853660365	 0.8402717146	-0.550409
C	 1.3766378454	-0.7080825824	 0.1365119283	-0.134681
H	 0.7942279281	 2.0798248344	-0.3152325055	 0.140751
H	-0.9636273346	 1.9031581951	-0.4226749086	 0.117658
H	-0.157984063	 1.8355710092	 1.1503822027	 0.129666
H	-0.7731303689	-0.4992839044	 0.3933886805	 0.096825
H	 0.2005927922	-1.5186117077	-1.6432719663	 0.099192
H	 2.0703529946	-0.4642103107	-2.8687032924	 0.117277
H	 1.1170593065	 1.0114651092	-2.5915963331	 0.118423
H	 4.3149604645	 0.7496293374	 0.4695505585	 0.220386
H	 1.4146126621	-1.5867888029	 0.7652365525	 0.113585
123.1112	191.424	204.0609	229.8435	376.0214	432.8023	492.1951	625.2244	695.1504	754.7516	767.597	799.0669	858.1523	892.3742	918.9341	963.0572	995.4502	999.971	1026.1145	1077.1752	1091.9235	1113.6695	1133.7802	1143.5932	1217.7989	1230.565	1274.7261	1343.1692	1357.8902	1390.7372	1425.6269	1440.6986	1499.3824	1503.7178	1521.4833	1775.042	3032.0556	3037.9143	3074.1206	3097.0859	3120.7182	3141.3567	3183.9035	3215.403	3473.7035
CC1C2COC(=N)C12	C[C@H]1[C@H]2CO[C]([NH])[C@@H]12	
InChI=1S/C6H9NO/c1-3-4-2-8-6(7)5(3)4/h3-5,7H,2H2,1H3	InChI=1S/C6H9NO/c1-3-4-2-8-6(7)5(3)4/h3-5,7H,2H2,1H3/t3-,4+,5-/m0/s1
