17
gdb 31592	3.28715	1.05102	0.82822	1.36	73.84	-0.1776	0.0365	0.2141	1347.2718	0.136155	-455.162587	-455.152962	-455.152018	-455.197429	34.646	
N	 0.2674553274	 1.1470659112	 0.6698379237	-0.614776
C	-0.0109960477	-0.1470049073	 0.1826887121	 0.180864
C	-1.1681465957	-0.7483907852	-0.267748832	 0.275539
O	-2.3571689388	-0.0762656209	-0.3832080424	-0.459864
C	-0.878071807	-2.108752997	-0.5587430172	-0.390082
C	 0.4655476742	-2.3044798894	-0.293943793	 0.280482
C	 1.3357258822	-3.5062505591	-0.4419408744	-0.178101
O	 2.147299924	-3.7449003001	 0.7092774467	-0.418233
N	 0.9741212769	-1.112366918	 0.1489360856	-0.306559
H	-0.5326776358	 1.5085492685	 1.1781837147	 0.248644
H	 0.4565093045	 1.805307958	-0.0819891774	 0.242316
H	-3.0469571693	-0.7135512443	-0.5868249933	 0.294738
H	-1.5605137169	-2.8523061321	-0.94532118	 0.08652
H	 0.7059641534	-4.3732113657	-0.6895283831	 0.099044
H	 2.0559663623	-3.3874221951	-1.2612807052	 0.116083
H	 1.5519712067	-3.8075044862	 1.4645538848	 0.280198
H	 1.8996458198	-0.9847653274	 0.5222985704	 0.263187
56.2688	94.8353	124.0105	181.8743	220.2895	262.2901	266.4024	316.2857	366.138	400.3544	508.5405	522.2005	615.379	660.1064	677.9935	701.8613	759.1509	805.4865	856.8353	971.7692	1010.7347	1045.4211	1114.5297	1166.2402	1195.718	1201.4689	1240.6486	1300.9602	1348.74	1366.0923	1417.0649	1462.0245	1502.1086	1513.118	1543.8297	1655.1168	1682.8038	2999.2838	3041.4002	3228.5301	3477.6084	3561.8931	3673.1545	3799.1656	3849.5846
NC1=C(O)C=C(CO)N1	Nc1c(O)cc(CO)[nH]1	
InChI=1S/C5H8N2O2/c6-5-4(9)1-3(2-8)7-5/h1,7-9H,2,6H2	InChI=1S/C5H8N2O2/c6-5-4(9)1-3(2-8)7-5/h1,7-9H,2,6H2
