23
gdb 70592	2.02377	1.7936	1.40792	1.1577	84.04	-0.2502	0.0686	0.3188	1091.3056	0.205457	-388.299826	-388.29059	-388.289646	-388.33261	37.388	
C	-0.6310942936	 1.4905478471	 0.1851896743	-0.441972
C	 0.0061088888	 0.1061370247	 0.0064499523	 0.233572
C	-1.0821214174	-0.9309125168	-0.3273235029	-0.412871
C	 1.1109487677	 0.0998733695	-1.0864754094	-0.259993
C	 2.114233395	-1.0079053462	-0.679143291	-0.225906
C	 2.0325031691	-1.0509859094	 0.8384354859	-0.076248
C	 2.1020087555	 0.2811022895	 1.5666993569	-0.371765
C	 0.7684342121	-0.356586855	 1.2609180381	 0.411809
O	 0.0254276043	-0.8777166625	 2.3261822723	-0.479968
H	 0.1187199526	 2.2428055911	 0.4518632238	 0.109008
H	-1.1277988833	 1.8212021192	-0.7335836875	 0.111772
H	-1.3906893247	 1.4757579797	 0.9761901901	 0.101304
H	-1.6294322205	-0.6322288705	-1.2277326433	 0.101425
H	-0.6501677223	-1.9208171009	-0.5051437645	 0.113117
H	-1.794497486	-1.0299401623	 0.4952856697	 0.117259
H	 0.6917948526	-0.0634916007	-2.0836675913	 0.094255
H	 1.6140537388	 1.0718952042	-1.1159176032	 0.09534
H	 1.8111135669	-1.9776316145	-1.090186949	 0.10189
H	 3.1236506335	-0.803598166	-1.0524495026	 0.09494
H	 2.3725090834	-1.9313246961	 1.3719701709	 0.088079
H	 2.4092064257	 0.2339605055	 2.6058832941	 0.108563
H	 2.4289616822	 1.1719156573	 1.0397306772	 0.10521
H	-0.3154955708	-0.1371363668	 2.8392800491	 0.281179
135.316	206.0078	219.8673	232.8446	258.9568	283.6691	298.4072	341.3568	374.0873	408.9883	449.9398	487.0654	576.2358	621.538	644.984	794.9327	817.8962	848.9654	904.9824	930.2171	942.1897	946.2549	954.542	980.43	1008.8482	1038.3461	1054.3553	1062.152	1087.3799	1154.6924	1166.2904	1222.5785	1229.3939	1235.2151	1264.3446	1305.6548	1321.2164	1334.3086	1351.1129	1395.2912	1399.2381	1418.5448	1479.8092	1483.1968	1485.713	1495.974	1501.9281	1509.282	1513.3916	3020.9449	3033.549	3035.4114	3046.435	3068.465	3082.968	3089.1702	3096.7576	3101.0504	3119.5712	3126.415	3175.5844	3214.119	3796.7813
CC1(C)CCC2CC12O	CC1(C)CC[C@H]2C[C@@]12O	
InChI=1S/C8H14O/c1-7(2)4-3-6-5-8(6,7)9/h6,9H,3-5H2,1-2H3	InChI=1S/C8H14O/c1-7(2)4-3-6-5-8(6,7)9/h6,9H,3-5H2,1-2H3/t6-,8-/m0/s1
