20
gdb 121467	4.82897	0.76742	0.68687	4.9399	79.7	-0.2392	0.0204	0.2596	1650.2309	0.171979	-440.303641	-440.294585	-440.293641	-440.338832	32.881	
O	-0.5134519288	 1.5896168278	 0.2546727177	-0.425384
C	-0.0511246718	 0.2573846055	 0.3281510718	-0.048352
C	-1.1231217194	-0.7228475955	-0.1507546603	-0.156286
N	-1.5525559039	-0.2998341221	-1.4803333559	-0.366074
C	-2.1195480141	-1.1204972772	-2.2490904977	 0.454947
C	-2.5916659242	-0.8426001932	-3.6609669015	-0.318829
C	-3.5760907969	-1.991061654	-3.9241408747	-0.229847
C	-3.0035184584	-3.0991554158	-3.030975164	-0.077317
O	-2.4014093345	-2.4177179156	-1.9173568595	-0.245439
H	-0.9408237875	 1.6494082941	-0.6110199955	 0.286278
H	 0.8612013252	 0.1158341231	-0.2759128413	 0.077495
H	 0.2080726265	 0.0554310206	 1.3733004385	 0.095957
H	-0.7453260244	-1.7537758667	-0.136943161	 0.099577
H	-1.9810115759	-0.6766091384	 0.5341210238	 0.110059
H	-3.0212567941	 0.1558113637	-3.7440038265	 0.136676
H	-1.7329053114	-0.8914387369	-4.3409607601	 0.132107
H	-4.5811961878	-1.7189468407	-3.5879727832	 0.121938
H	-3.6366911696	-2.2893224833	-4.9724370296	 0.114879
H	-3.754008962	-3.7864946854	-2.6346495865	 0.12371
H	-2.231447817	-3.68279554	-3.5484942545	 0.113904
27.9942	100.1824	118.0151	159.7219	209.703	223.4648	310.5204	450.3291	506.5458	510.3477	582.2494	638.1633	708.7966	800.767	875.2998	890.5664	901.6136	912.4929	935.9159	1005.5623	1049.6089	1071.0064	1093.116	1094.6243	1111.9365	1189.5591	1198.224	1213.2941	1227.4742	1257.3912	1260.6946	1312.8382	1341.7306	1372.6051	1382.9907	1398.8235	1446.6521	1471.1338	1474.6404	1497.2764	1509.925	1524.1204	1800.1936	2959.8666	3004.3772	3026.2149	3046.8671	3048.0871	3063.3122	3067.1671	3105.9727	3121.2553	3134.0806	3744.9319
OCCN=C1CCCO1	OCCN=C1CCCO1	
InChI=1S/C6H11NO2/c8-4-3-7-6-2-1-5-9-6/h8H,1-5H2	InChI=1S/C6H11NO2/c8-4-3-7-6-2-1-5-9-6/h8H,1-5H2
