17
gdb 53870	3.98457	0.81551	0.71591	1.688	72.16	-0.2462	-0.0604	0.1858	1538.1755	0.132835	-455.175365	-455.165278	-455.164334	-455.212131	34.323	
C	-0.183633884	 1.2675969743	-0.7114832454	-0.470039
C	-0.0327958268	-0.0416141786	 0.0143627214	 0.383631
O	 0.9888039468	-0.3870028581	 0.5703796957	-0.319676
C	-1.2434984139	-0.9698316828	 0.0428915974	 0.248691
N	-2.3269294022	-0.5792076517	-0.5184676604	-0.525952
N	-0.9733910921	-2.1358216006	 0.6992454258	-0.308544
C	-1.9665760729	-3.1408331475	 0.9620040964	-0.274735
C	-2.3714293963	-3.9225921726	-0.2908328428	 0.161968
O	-3.4589415767	-4.4054254269	-0.4534707874	-0.226866
H	 0.7485277609	 1.8289581257	-0.6452881291	 0.136149
H	-0.4519364527	 1.0859201059	-1.7561730064	 0.160799
H	-1.0121985414	 1.8389370741	-0.2839146197	 0.162463
H	-3.0822236961	-1.2624806914	-0.4449014762	 0.224112
H	-0.054176918	-2.1833409997	 1.1137406672	 0.266181
H	-1.5476032613	-3.8661192793	 1.6695112275	 0.147415
H	-2.8750181485	-2.7278868633	 1.4202903931	 0.142397
H	-1.5553302748	-4.0196344175	-1.0424255274	 0.092005
44.7295	53.1241	71.4779	106.3564	122.1371	203.4203	279.53	337.3012	376.8708	424.0027	514.7471	527.0733	540.3994	631.861	701.0379	715.1716	824.8851	869.338	958.8031	1034.0391	1044.8361	1049.2886	1111.6256	1190.45	1204.9119	1267.8668	1332.3884	1337.187	1389.6668	1402.9941	1447.8833	1451.6208	1458.9631	1539.3599	1703.1927	1793.3937	1841.5792	2883.8664	3021.7926	3058.0408	3076.9247	3122.5304	3163.8898	3468.7829	3608.6086
CC(=O)C(=N)NCC=O	CC(=O)C(=N)NCC=O	
InChI=1S/C5H8N2O2/c1-4(9)5(6)7-2-3-8/h3H,2H2,1H3,(H2,6,7)	InChI=1S/C5H8N2O2/c1-4(9)5(6)7-2-3-8/h3H,2H2,1H3,(H2,6,7)
