21
gdb 66769	2.33179	2.12545	1.72786	0.1375	84.04	-0.2316	0.0873	0.3189	938.7324	0.185184	-349.927454	-349.920304	-349.91936	-349.958493	30.193	
C	-0.0203897953	 1.5291173312	 0.0112397526	-0.525132
C	 0.0263745243	 0.0261180855	-0.0387156862	 0.34104
C	 0.6288163123	-0.8752190951	-1.1841378082	-0.16925
C	-0.4211571094	-1.8867345479	-0.7967879384	-0.068672
C	 0.9454617675	-1.8676359906	-0.0930517694	-0.068661
C	 0.7868417696	-0.8343396552	 1.0283987451	-0.058763
C	-0.1994917814	-1.215988993	 2.1411559403	-0.230494
C	-1.589283696	-1.2352240449	 1.425525594	-0.230492
C	-1.2646488156	-0.8630057589	-0.0280062681	-0.058757
H	 0.9862695834	 1.9612086359	-0.0215526773	 0.116117
H	-0.5867750089	 1.9391965467	-0.8326701173	 0.116122
H	-0.5008327189	 1.8777760718	 0.9335174699	 0.116563
H	 1.1113710309	-0.6620618074	-2.1270122827	 0.083407
H	-0.7567319639	-2.7542508597	-1.3515909613	 0.076886
H	 1.6109970718	-2.7211729219	-0.1323040333	 0.076885
H	 1.7363643467	-0.4098083991	 1.364079745	 0.055169
H	 0.0535706661	-2.1821908563	 2.5890573451	 0.094992
H	-0.1843630398	-0.4785338125	 2.9510437094	 0.091439
H	-2.0798100677	-2.21159778	 1.490913462	 0.094988
H	-2.2732169194	-0.5071926607	 1.8752011217	 0.091443
H	-2.0984994365	-0.4634169878	-0.6106952427	 0.055169
167.213	207.5857	208.7909	276.1493	380.5192	461.4102	592.2116	656.3687	663.3708	744.5046	762.33	800.655	801.715	838.7635	851.2611	875.3254	891.5754	930.9694	931.635	983.1207	990.3346	1007.3274	1033.6233	1040.0475	1062.5426	1069.6588	1124.1983	1142.467	1143.8212	1183.8249	1199.6992	1202.9115	1251.6503	1256.7781	1267.3664	1321.3402	1333.3892	1337.9618	1361.9722	1375.0755	1411.9188	1482.6122	1488.3215	1494.7938	1504.6377	3017.9435	3033.2514	3045.0374	3066.9193	3078.3029	3080.6834	3082.3115	3085.843	3089.3968	3182.5159	3189.9444	3220.4819
CC12C3C4C3C1CCC24	C[C@@]12[C@@H]3[C@H]4[C@@H]3[C@@H]1CC[C@@H]24	
InChI=1S/C9H12/c1-9-4-2-3-5(9)7-6(4)8(7)9/h4-8H,2-3H2,1H3	InChI=1S/C9H12/c1-9-4-2-3-5(9)7-6(4)8(7)9/h4-8H,2-3H2,1H3/t4-,5+,6-,7+,8-,9+
