18
gdb 101094	2.21167	1.37563	0.9672	1.6524	68.67	-0.2503	-0.0301	0.2202	1220.1137	0.14636	-476.195307	-476.185979	-476.185035	-476.229565	34.197	
O	-0.0128947448	 1.3581864481	-0.596457115	-0.422781
C	 0.0704173369	-0.0286362966	-0.2653270554	-0.113288
C	-1.321678248	-0.5479760767	 0.1289681825	 0.010872
O	-2.2633039107	-0.1122090242	-0.8371023587	-0.451034
C	-1.379462937	-2.0660855543	 0.2024667474	 0.203161
C	-2.6715555283	-2.7647133435	-0.1026620527	-0.271431
N	-1.5588502704	-2.8503268113	-1.0427850547	-0.350625
C	-0.49779698	-2.7304102064	 1.2010234124	 0.131579
O	 0.1317822903	-2.1503435156	 2.0535894562	-0.27848
H	-0.0498800583	 1.8588626274	 0.2256180733	 0.294353
H	 0.407083238	-0.531712232	-1.1776861452	 0.120088
H	 0.7945929471	-0.2196749988	 0.5315824183	 0.133453
H	-1.5755024099	-0.1449947316	 1.1234669592	 0.082293
H	-1.9382372099	 0.7513859237	-1.1299841136	 0.294913
H	-2.9153301462	-3.6898027726	 0.4127403073	 0.123897
H	-3.5095900374	-2.1192442	-0.3422989044	 0.149603
H	-1.7243039784	-2.1724091155	-1.7864658137	 0.249654
H	-0.4749751231	-3.8372986199	 1.1027795367	 0.093772
76.6707	111.1623	141.9571	170.1054	226.026	286.2672	333.0956	336.856	346.0661	426.6496	473.6848	525.4144	576.6122	630.5214	787.589	829.1467	900.481	919.5458	981.7713	1001.6256	1016.3596	1055.7336	1072.9433	1096.0029	1124.8413	1147.2916	1192.1536	1263.8495	1285.6755	1327.4743	1350.1558	1364.9915	1383.9494	1404.1746	1422.6382	1451.7366	1496.1855	1500.4005	1809.4303	2906.9729	2966.5995	3053.0112	3110.6882	3117.9093	3217.2972	3480.1033	3732.9436	3811.6666
OCC(O)C1(CN1)C=O	OC[C@@H](O)[C@]1(CN1)C=O	
InChI=1S/C5H9NO3/c7-1-4(9)5(3-8)2-6-5/h3-4,6-7,9H,1-2H2	InChI=1S/C5H9NO3/c7-1-4(9)5(3-8)2-6-5/h3-4,6-7,9H,1-2H2/t4-,5+/m1/s1
