16
gdb 42579	3.0075	2.11253	1.62331	3.1341	70.55	-0.2423	-0.0227	0.2197	837.3031	0.127317	-400.7116	-400.705702	-400.704758	-400.741701	24.813	
O	-0.0241904067	 0.0375190472	 0.1170648491	-0.335365
C	-0.0080847355	 1.2384410907	 0.0282555208	 0.459381
C	-1.1911111056	 2.1513683313	-0.0302477028	-0.171933
C	-1.0494147508	 3.4974320672	 0.6228204531	-0.049005
C	 0.4125517716	 3.9219858035	 0.8587899247	-0.049018
C	 1.3761586167	 2.8217849496	 1.3518859716	-0.252845
C	 1.2116469098	 2.1471215699	-0.05723066	-0.18634
C	 0.6238743624	 3.4827218899	-0.6088665546	 0.009673
N	-0.8894717039	 3.347152814	-0.8582602328	-0.153841
H	-2.182547789	 1.7291999696	-0.1432946806	 0.115013
H	-1.9233667248	 3.9757733153	 1.053683077	 0.107401
H	 0.5283938664	 4.9508236852	 1.1972082775	 0.085857
H	 2.3892233444	 3.2075338486	 1.492751485	 0.114638
H	 1.0926399087	 2.2287337864	 2.2257480276	 0.117058
H	 2.0747039177	 1.6722424298	-0.5193815237	 0.099059
H	 1.1521136588	 4.049964792	-1.370436282	 0.090266
148.468	298.5993	423.9778	444.4433	548.1538	643.9886	697.1451	737.9234	746.1975	781.5434	787.5526	847.1032	868.2096	908.9465	913.8445	955.7755	959.4388	972.6237	1022.151	1052.1636	1072.0225	1103.2933	1131.2194	1163.1437	1187.4147	1210.0987	1226.3827	1236.575	1252.1658	1293.3906	1301.7696	1330.3305	1352.8721	1488.8677	1842.8966	3055.7779	3110.1829	3120.7199	3137.3473	3152.9527	3161.4352	3196.4418
O=C1C2C3C4CC1C4N23	O=C1[C@H]2[C@H]3[C@H]4C[C@@H]1[C@H]4N23	
InChI=1S/C7H7NO/c9-7-3-1-2-4(3)8-5(2)6(7)8/h2-6H,1H2	InChI=1S/C7H7NO/c9-7-3-1-2-4(3)8-5(2)6(7)8/h2-6H,1H2/t2-,3+,4-,5+,6+,8?/m0/s1
