23
gdb 89149	2.16541	1.55578	1.23051	1.6495	85.51	-0.2356	0.0799	0.3154	1186.2649	0.204672	-388.27578	-388.266287	-388.265343	-388.309592	36.636	
C	 0.3906535055	 1.6335064001	 0.0359233545	-0.408565
C	 0.0974214859	 0.1412753093	 0.0322158784	 0.031681
C	 0.8723666494	-0.7796502629	-0.9669975333	-0.318566
C	 1.2632556509	-1.7402464579	 0.2013407334	 0.281043
C	 0.8738954387	-3.195489402	 0.0762847967	-0.503677
C	 2.5948378631	-1.3881664533	 0.9085333036	 0.128547
C	 3.8367726442	-0.9572935407	 0.1571267963	-0.41613
O	 1.9580529509	-0.305407976	 1.6391184046	-0.319808
C	 0.6444267205	-0.7133817275	 1.1988717228	 0.066631
H	 1.4506545144	 1.8130995944	 0.2342772601	 0.129337
H	 0.1354738071	 2.0853300007	-0.9287359535	 0.10853
H	-0.1863373907	 2.1506690569	 0.8105981188	 0.112453
H	-0.9809943004	-0.0326461	-0.0617499354	 0.067761
H	 0.2440398281	-1.2494756687	-1.7280212125	 0.097473
H	 1.7117358127	-0.2993300314	-1.4760786959	 0.097911
H	 1.4763823124	-3.6987650156	-0.6903493895	 0.118646
H	 1.0193238705	-3.7327673962	 1.0200099165	 0.116979
H	-0.1770059014	-3.3047049935	-0.2134439667	 0.116531
H	 2.8638656188	-2.1917595226	 1.6135782797	 0.064891
H	 3.6288542912	-0.1489775568	-0.5481775624	 0.123308
H	 4.5926573909	-0.6006303993	 0.8642432263	 0.12785
H	 4.2626357337	-1.8035806479	-0.3932257027	 0.1156
H	-0.0139295563	-0.9609057493	 2.0384222402	 0.061571
66.9246	181.6511	191.8387	210.4193	212.8987	234.6788	273.1247	295.1333	361.3323	397.2708	504.8722	527.2413	608.6516	639.4076	765.9242	817.9375	863.2231	885.4524	896.0286	902.705	930.5672	970.0351	1010.6202	1041.7937	1081.2377	1097.3269	1118.5048	1136.5456	1164.3796	1186.0296	1197.2694	1225.389	1265.938	1269.2874	1286.1535	1319.674	1354.7244	1357.981	1395.0954	1405.595	1413.8384	1415.224	1477.8001	1484.4627	1490.6528	1492.7345	1494.5464	1503.2058	1505.7652	2961.4647	3018.5619	3029.088	3033.4219	3037.4023	3050.1725	3061.9511	3080.186	3091.8834	3092.829	3103.5142	3109.0286	3118.8941	3123.1083
CC1CC2(C)C(C)OC12	C[C@H]1C[C@@]2(C)[C@@H](C)O[C@@H]12	
InChI=1S/C8H14O/c1-5-4-8(3)6(2)9-7(5)8/h5-7H,4H2,1-3H3	InChI=1S/C8H14O/c1-5-4-8(3)6(2)9-7(5)8/h5-7H,4H2,1-3H3/t5-,6+,7-,8-/m0/s1
