18
gdb 7412	3.13382	1.7932	1.16654	1.3599	71.89	-0.2454	-0.0062	0.2392	1030.2585	0.152746	-381.162186	-381.152993	-381.152049	-381.197605	32.57	
C	-0.3268128944	 1.4483076512	 0.0696058753	-0.322888
N	-0.0400404457	 0.0118964893	-0.0203247847	-0.137082
C	 0.0464604752	-0.6443011492	 1.2331942296	 0.357404
C	 0.2547010028	-2.1386887622	 1.2928012496	-0.436506
N	-0.0783886312	 0.1042013379	 2.2617148452	-0.505421
C	 0.1908627885	-0.6169723059	-1.2442186975	 0.405902
C	 0.0767151487	 0.2326173515	-2.5039865072	-0.499908
O	 0.4745130495	-1.7947275843	-1.340867368	-0.354167
H	 0.4991846375	 1.9740203351	 0.5557346936	 0.14449
H	-0.4910001718	 1.8624290071	-0.9196747924	 0.125093
H	-1.2144276085	 1.6056215821	 0.6840410457	 0.151922
H	 1.2161431257	-2.4291002458	 0.8673288916	 0.157184
H	 0.2101044091	-2.4458989045	 2.3410374742	 0.103502
H	-0.5028223003	-2.6778214414	 0.7218525435	 0.150964
H	-0.0170408438	-0.458110635	 3.1079385721	 0.218266
H	 0.7853754273	 1.0658946197	-2.5068526206	 0.145485
H	 0.2986872093	-0.4270819061	-3.3419192109	 0.149553
H	-0.9282888083	 0.6456607206	-2.6326489391	 0.146208
16.459	43.3206	140.0039	227.3773	252.3732	276.5054	283.1631	393.8698	426.1355	438.5814	552.9759	570.1603	612.9451	620.3352	700.1934	865.3434	914.2496	991.8582	1020.1853	1050.9219	1072.732	1107.0039	1154.7136	1163.661	1196.9571	1362.1657	1385.3635	1394.8874	1421.0776	1460.1821	1465.6251	1468.2351	1469.442	1486.3072	1499.0339	1513.3785	1687.3622	1774.7756	3048.8152	3056.1723	3068.8946	3114.867	3127.7794	3137.0745	3144.8113	3162.1113	3204.5967	3502.6752
CN(C(C)=N)C(C)=O	CN(C(=N)C)C(=O)C	
InChI=1S/C5H10N2O/c1-4(6)7(3)5(2)8/h6H,1-3H3	InChI=1S/C5H10N2O/c1-4(6)7(3)5(2)8/h6H,1-3H3
