20
gdb 22661	3.40249	0.91351	0.76353	1.864	90.1	-0.2105	-0.0197	0.1908	1525.3081	0.170474	-403.139855	-403.130325	-403.129381	-403.175338	34.707	
C	 0.0630126371	 1.516292417	 0.275538638	-0.37604
C	-0.0364366557	 0.0295818338	-0.1143392679	-0.285706
C	-1.4394139383	-0.4972439319	-0.1185270484	 0.329642
C	-2.1183450356	-0.9583073416	-1.1831825331	-0.265039
C	-3.4567164676	-1.3952462504	-0.8052307467	 0.390077
C	-3.6183100527	-1.20095295	 0.694764517	-0.302308
C	-2.2749644253	-0.5701479512	 1.1444458834	-0.316671
N	-4.4027849644	-1.872948699	-1.5213597382	-0.247397
O	-4.0228163322	-1.9625642484	-2.8778766117	-0.400929
H	 1.1047224073	 1.849401801	 0.2519887529	 0.11843
H	-0.509559445	 2.1407801416	-0.4170312814	 0.125407
H	-0.3204924072	 1.6942232378	 1.2846951754	 0.121858
H	 0.4098391334	-0.1196201342	-1.1032792204	 0.108793
H	 0.5642190535	-0.5590846922	 0.5938670021	 0.107892
H	-1.7474249177	-1.0134293019	-2.1971773091	 0.111933
H	-4.4740052591	-0.5582402972	 0.917609446	 0.124991
H	-3.8043202732	-2.1582071643	 1.1898624095	 0.125767
H	-1.7691022208	-1.1679695638	 1.9135230517	 0.110962
H	-2.4166686372	 0.4244906658	 1.5842936169	 0.115815
H	-4.8153615692	-2.3302781009	-3.281285996	 0.302524
39.8641	51.2064	132.1857	177.7148	232.2431	246.4976	262.3142	363.6866	382.6377	489.8345	500.9529	587.395	605.0868	697.048	786.3687	825.1065	869.5341	891.0301	909.6859	956.7072	960.4318	1002.8052	1016.5205	1065.0999	1090.954	1165.3271	1175.7696	1228.9895	1238.4327	1270.2303	1283.0996	1317.9151	1349.2551	1361.9293	1400.1348	1408.0927	1469.7073	1479.2743	1491.4701	1497.68	1507.5083	1674.7552	1725.6095	3007.268	3023.4374	3039.8376	3048.1331	3064.2848	3067.0355	3101.5135	3112.7241	3113.8006	3235.5398	3827.6903
CCC1=CC(CC1)=NO	CCC1=CC(=NO)CC1	
InChI=1S/C7H11NO/c1-2-6-3-4-7(5-6)8-9/h5,9H,2-4H2,1H3	InChI=1S/C7H11NO/c1-2-6-3-4-7(5-6)8-9/h5,9H,2-4H2,1H3
