18
gdb 22627	2.47911	1.51366	1.19562	1.0362	75.53	-0.2428	0.0177	0.2606	1086.4301	0.148065	-439.027036	-439.018915	-439.017971	-439.059413	32.011	
O	-0.0437982139	 1.3016159471	-0.0538507819	-0.398069
N	 0.0611833266	-0.1033338917	 0.0813316756	-0.314944
C	-1.0723435433	-0.6487519541	 0.1743630351	 0.402986
C	-2.5531521636	-0.3363403351	 0.0300760393	-0.129221
C	-2.5725728612	-1.6110534097	-0.8775174944	-0.293013
C	-1.4743412397	-2.1166042681	 0.1423632037	 0.338785
O	-0.5940171048	-3.1529741625	-0.0955048324	-0.479845
C	-2.2996002506	-2.2448743006	 1.4381707314	-0.243767
C	-3.1091340632	-0.9059563076	 1.3613649337	-0.220369
H	 0.8811762656	 1.5666607808	-0.0966085623	 0.304218
H	-2.9046279668	 0.6310411329	-0.3155639232	 0.093908
H	-3.5066942625	-2.1782951518	-0.9208544974	 0.100373
H	-2.1682603604	-1.4331750004	-1.8755943558	 0.107651
H	 0.0792641015	-2.8378821625	-0.709024321	 0.291987
H	-2.9340462512	-3.1347602573	 1.415356846	 0.107985
H	-1.6528013286	-2.3057211432	 2.3163484323	 0.113889
H	-2.9102667941	-0.2466318172	 2.2093562465	 0.1127
H	-4.1884574998	-1.070938089	 1.3030238248	 0.104747
108.9166	151.1762	244.5622	283.247	292.4727	341.7908	370.0708	408.9742	439.6633	587.6138	601.3237	670.2431	716.2768	747.3333	849.5894	871.3581	883.1829	902.4318	938.5584	962.3293	975.4301	1030.2239	1048.4924	1078.0921	1123.2451	1138.7553	1169.1418	1219.387	1225.5324	1247.8304	1264.2405	1313.9796	1348.0669	1391.0735	1413.2192	1485.2368	1492.4772	1517.3152	1808.139	3056.7251	3058.7723	3069.1792	3102.5761	3120.6435	3132.2275	3169.8011	3804.6393	3817.3722
ON=C1C2CC1(O)CC2	ON=C1[C@H]2C[C@]1(O)CC2	
InChI=1S/C6H9NO2/c8-6-2-1-4(3-6)5(6)7-9/h4,8-9H,1-3H2	InChI=1S/C6H9NO2/c8-6-2-1-4(3-6)5(6)7-9/h4,8-9H,1-3H2/t4-,6-/m1/s1
