17
gdb 7959	3.2915	1.86331	1.38104	5.0233	64.15	-0.2589	0.0541	0.313	923.8426	0.143138	-401.064309	-401.056584	-401.055639	-401.096178	29.057	
C	 0.1035512648	 1.5774797092	-0.2316562565	-0.4032
C	-0.0197961044	 0.0778661832	 0.0536992284	-0.000241
N	 0.5215009644	-0.7497113311	-1.0168860189	-0.363521
C	 1.8294853543	-1.1112777222	-0.7546074009	 0.464991
O	 2.641093159	-1.558686724	-1.515482631	-0.392546
O	 2.0724946844	-0.88302677	 0.5714527114	-0.251656
C	 0.8528201713	-0.4661058805	 1.2172818591	 0.134163
C	 1.177582055	 0.479542045	 2.3565538587	-0.412134
H	 1.147950637	 1.8688706078	-0.3786795517	 0.137751
H	-0.4499432647	 1.8326566924	-1.1412169695	 0.119603
H	-0.3128682941	 2.1723153819	 0.5867320398	 0.125494
H	-1.0699470688	-0.1727101536	 0.238769729	 0.092345
H	 0.2878251989	-0.5784727602	-1.9825410341	 0.25565
H	 0.3704047752	-1.3699956984	 1.6121396699	 0.097096
H	 1.6929975439	 1.374267562	 1.9998041828	 0.133884
H	 0.2604731568	 0.7829408798	 2.871413147	 0.122856
H	 1.8243686969	-0.0219668513	 3.0807643965	 0.139465
109.7682	143.1827	230.0315	261.328	274.4506	322.0608	422.6251	497.5697	517.4733	550.0187	681.679	728.9952	771.398	776.4541	907.2662	946.5682	983.1802	1016.0879	1033.8625	1116.7952	1132.3153	1152.438	1171.9559	1226.0415	1313.8575	1375.0139	1383.8364	1396.0317	1412.6526	1413.656	1423.023	1481.3204	1491.1031	1499.7294	1506.7342	1891.3655	3014.6608	3037.5616	3045.6017	3050.4392	3106.5925	3118.1335	3121.8456	3135.6115	3637.8391
CC1NC(=O)OC1C	C[C@H]1NC(=O)O[C@H]1C	
InChI=1S/C5H9NO2/c1-3-4(2)8-5(7)6-3/h3-4H,1-2H3,(H,6,7)	InChI=1S/C5H9NO2/c1-3-4(2)8-5(7)6-3/h3-4H,1-2H3,(H,6,7)/t3-,4+/m1/s1
