14
gdb 126239	2.1346	1.58914	0.96149	4.3131	71.25	-0.2872	-0.0665	0.2207	1166.549	0.10022	-432.867664	-432.859441	-432.858497	-432.90149	28.802	
C	 0.0407239957	 1.6414382027	 0.1327077772	-0.38294
C	-0.0325930042	 0.1211690172	-0.0996263861	-0.312591
C	-1.4301651735	-0.3897392735	-0.1310895505	 0.348684
C	-2.1703946636	-1.0057382109	-1.1113483748	 0.085995
N	-3.423220149	-1.251292963	-0.5815586776	-0.156668
N	-3.495252801	-0.8472423905	 0.5942668782	 0.003998
O	-2.1961450339	-0.2669833371	 0.9383718864	-0.214314
C	-1.7881442588	-1.3515734681	-2.4282630912	 0.234724
N	-1.4399550898	-1.6190891235	-3.4991653324	-0.330612
H	 1.0852370859	 1.9606062275	 0.1604409508	 0.136151
H	-0.4624797481	 2.1859178394	-0.6708880012	 0.140389
H	-0.4296304004	 1.915135716	 1.0802167666	 0.14707
H	 0.4474927951	-0.1495185123	-1.0440709378	 0.150123
H	 0.5055413054	-0.401786034	 0.6996553121	 0.149991
41.2437	129.9166	156.4485	186.0345	214.8342	316.4722	375.0888	518.2872	539.8391	564.5033	612.4283	665.9381	698.731	765.9409	803.7232	967.9222	1004.439	1078.4539	1087.6567	1158.4907	1238.108	1297.6427	1356.7998	1390.7236	1417.5661	1477.9146	1496.7442	1503.1296	1506.005	1596.1644	2357.4724	3046.302	3054.0052	3099.4992	3130.406	3136.5409
CCC1=C(N=NO1)C#N	CCc1c(nno1)C#N	
InChI=1S/C5H5N3O/c1-2-5-4(3-6)7-8-9-5/h2H2,1H3	InChI=1S/C5H5N3O/c1-2-5-4(3-6)7-8-9-5/h2H2,1H3
