19
gdb 110529	3.67299	1.14037	1.08185	0.8279	74.56	-0.2283	0.0667	0.295	1201.9071	0.158504	-422.952465	-422.944206	-422.943262	-422.985329	32.15	
C	 0.0802841902	 1.5129321822	 0.0954762638	-0.381245
C	 0.0267528321	-0.0137661822	-0.0262767516	-0.204838
C	-1.3924956324	-0.564672729	 0.0212127428	 0.039243
C	-1.6465187371	-2.074194958	 0.0085574915	-0.194545
C	-1.5822665022	-2.4924836489	 1.5133517052	-0.015164
O	-1.2692996673	-1.3285571652	 2.2714068407	-0.280533
C	-2.1489231964	-0.5852149182	 1.3857335746	-0.040479
C	-2.8413977174	-1.9524797138	 0.9217745252	 0.321149
O	-4.1217459761	-2.3893801582	 0.7339988245	-0.448987
H	 1.1106384583	 1.8788049433	 0.0529991556	 0.112573
H	-0.4786035206	 1.9980230443	-0.712969075	 0.110466
H	-0.3499452095	 1.8505082902	 1.0446674045	 0.117696
H	 0.4945826847	-0.3250088961	-0.969388503	 0.090426
H	 0.6067067249	-0.4744412146	 0.7797937587	 0.112694
H	-2.0336756831	-0.085651474	-0.7282270142	 0.077334
H	-1.4822871095	-2.7937020384	-0.7838488955	 0.093019
H	-1.268127974	-3.4647901748	 1.8682290668	 0.112057
H	-2.5833645459	 0.2990674694	 1.8479192453	 0.083766
H	-4.5304296088	-2.5225603477	 1.5976841401	 0.295369
76.2728	135.9668	178.2938	250.9882	306.4305	323.8044	379.4103	389.0632	538.2224	596.6765	643.1315	721.9304	733.317	805.9817	825.4715	893.2452	894.0198	922.5239	946.2641	966.8578	986.3021	1035.5093	1041.0973	1059.3178	1084.9	1108.8915	1139.619	1151.9563	1196.3032	1219.0719	1249.5496	1288.9231	1312.6921	1321.5726	1340.1713	1400.3988	1412.2038	1484.2401	1494.2209	1501.4057	1504.9933	3024.936	3029.9202	3043.298	3076.2787	3100.005	3103.4737	3141.9653	3198.8905	3215.8441	3779.195
CCC1C2C3OC1C23O	CC[C@H]1[C@H]2[C@H]3O[C@@H]1[C@@]23O	
InChI=1S/C7H10O2/c1-2-3-4-6-7(4,8)5(3)9-6/h3-6,8H,2H2,1H3	InChI=1S/C7H10O2/c1-2-3-4-6-7(4,8)5(3)9-6/h3-6,8H,2H2,1H3/t3-,4-,5-,6+,7-/m0/s1
