22
gdb 82573	3.14745	1.34879	1.18068	1.1275	85.93	-0.2268	0.0837	0.3105	1155.958	0.194906	-367.150658	-367.14231	-367.141366	-367.183301	33.267	
C	-0.1928092717	 1.4724187438	-0.058513073	-0.315085
N	-0.0023208422	 0.0653588236	 0.2596383703	-0.079552
C	 1.2057078499	-0.6593753772	-0.0592349212	-0.037908
C	 2.4857385514	 0.1726313607	 0.1542586989	-0.354399
C	 2.0778594105	 0.3828930237	 1.6421107798	 0.361482
C	 2.9731105014	-0.1952448068	 2.7726268553	-0.27425
C	 2.5294746361	 0.978805122	 3.6851218955	-0.214408
C	 2.0334140521	 1.7285553464	 2.4199211895	-0.284932
C	 0.7843152073	-0.4168108396	 1.3723523219	-0.114182
H	 0.7057356578	 2.0987966926	 0.0155860503	 0.111144
H	-0.5731873151	 1.5461966158	-1.0825689938	 0.119174
H	-0.9515697877	 1.8861124878	 0.6132818453	 0.120764
H	 1.126927745	-1.5573257236	-0.663335623	 0.088751
H	 3.3949724227	-0.4283387543	 0.0668623371	 0.102545
H	 2.5986874884	 1.0650508977	-0.4700757844	 0.096156
H	 2.7551495431	-1.2136786043	 3.1081156698	 0.09673
H	 4.0349769991	-0.1363724475	 2.5132968342	 0.096853
H	 1.7027451586	 0.697212302	 4.3429104966	 0.103542
H	 3.2997651905	 1.4635026187	 4.289099795	 0.096439
H	 2.7807695121	 2.4346788767	 2.0423343248	 0.097965
H	 1.0725623019	 2.2440596184	 2.4852488092	 0.098535
H	 0.309282659	-1.0873058864	 2.0836335119	 0.084638
108.1147	131.2891	178.4822	220.4317	285.5141	330.3703	351.2991	451.149	483.2891	600.3509	685.2844	725.1991	776.0485	822.6542	835.6634	853.4178	884.5964	908.2278	939.3644	942.2472	969.0719	984.8385	1033.7005	1050.0094	1063.3622	1108.2401	1146.2989	1169.0347	1177.6012	1184.645	1186.1271	1219.1189	1232.275	1242.5485	1255.6845	1276.0731	1279.8261	1291.1107	1306.2964	1381.5944	1453.946	1472.6498	1475.8536	1483.0639	1500.1891	1503.0016	1506.9705	3009.7773	3041.5163	3043.37	3047.5145	3060.9975	3073.9207	3089.0629	3097.4754	3099.6107	3101.8038	3117.5665	3141.6319	3163.2591
CN1C2CC3(CCC3)C12	CN1[C@H]2CC3(CCC3)[C@@H]12	
InChI=1S/C8H13N/c1-9-6-5-8(7(6)9)3-2-4-8/h6-7H,2-5H2,1H3	InChI=1S/C8H13N/c1-9-6-5-8(7(6)9)3-2-4-8/h6-7H,2-5H2,1H3/t6-,7-,9?/m0/s1
