18
gdb 109626	2.68693	1.12824	1.00083	6.4844	74.52	-0.2263	0.0168	0.2431	1261.4888	0.146942	-435.234405	-435.224693	-435.223749	-435.268799	35.485	
C	 0.3001958468	 1.1005323345	 0.4996474332	-0.315961
N	-0.3588290524	 0.2894699558	-0.5112965869	-0.281569
C	 0.49176904	-0.3620490423	-1.4447275317	-0.040269
C	 1.3142135862	-1.6198426391	-1.1614593425	-0.135164
N	 1.1707849495	-2.2970047543	 0.0998367266	-0.524225
C	 0.0261192445	-1.6914180961	-2.0118234243	 0.225206
O	-1.0564511165	-2.2967559286	-1.3849680621	-0.459168
C	 0.1223343788	-1.9425206393	-3.4277713881	 0.271037
N	 0.2362887641	-2.1241424483	-4.5644833473	-0.348214
H	 1.0171747946	 0.5594231138	 1.1427892125	 0.085991
H	 0.8518856306	 1.9145484189	 0.0160660108	 0.129983
H	-0.4568098915	 1.5527184369	 1.146014422	 0.130462
H	-1.0345017919	-0.3597607026	-0.1290425558	 0.233221
H	 0.967991397	 0.3113858679	-2.1542183736	 0.11872
H	 2.257166619	-1.7111166201	-1.69496198	 0.107397
H	 1.7423974809	-3.1328865986	 0.134939533	 0.254677
H	 1.4219741153	-1.7078346663	 0.8848504787	 0.254489
H	-0.6704190348	-2.7072051021	-0.5858545545	 0.293388
92.2293	123.413	147.0635	165.5122	201.2566	231.7649	234.8428	301.5583	326.3434	452.5414	479.5493	570.9081	593.6138	631.2786	661.7265	709.3008	718.7143	798.8724	857.3412	898.3062	996.2148	1020.4902	1077.2014	1123.4872	1152.4664	1164.5765	1184.2597	1241.3408	1269.2052	1288.126	1358.7268	1396.6669	1435.3177	1462.4931	1484.778	1506.0893	1520.8836	1649.172	2351.2155	2938.6852	3056.8358	3111.2978	3127.2314	3136.5808	3524.1155	3554.7409	3567.7976	3603.9784
CNC1C(N)C1(O)C#N	CN[C@H]1[C@@H](N)[C@]1(O)C#N	
InChI=1S/C5H9N3O/c1-8-4-3(7)5(4,9)2-6/h3-4,8-9H,7H2,1H3	InChI=1S/C5H9N3O/c1-8-4-3(7)5(4,9)2-6/h3-4,8-9H,7H2,1H3/t3-,4+,5-/m1/s1
