20
gdb 50538	2.83426	1.11008	0.83947	4.3385	81.85	-0.2369	0.0263	0.2632	1381.7863	0.171399	-403.146803	-403.137864	-403.136919	-403.181613	32.392	
O	-0.299412045	 0.4906344611	 1.1198811621	-0.333481
C	-0.0626705467	 1.6294032845	 0.7681793135	 0.122638
N	 1.0408478174	 2.0041851235	 0.0839220289	-0.040911
C	 2.2470497749	 1.2331577571	-0.2176117427	-0.165026
C	 2.9156620051	 2.5537334951	-0.6936520064	-0.272053
C	 1.6279592145	 3.3180478834	-0.2465863996	 0.025117
C	 0.8978356985	 4.1255867486	-1.2842266681	 0.01999
C	-0.1285938522	 5.153717438	-0.872476854	-0.271
C	 1.2001424419	 5.5977682788	-1.4261954654	-0.270985
H	-0.7418945016	 2.4841965366	 0.9641089056	 0.068311
H	 2.694570333	 0.7721972119	 0.6691467781	 0.123282
H	 2.1025827784	 0.4594038532	-0.9773237706	 0.123869
H	 3.828575868	 2.834973752	-0.1687514095	 0.116058
H	 3.0920204011	 2.6024507653	-1.7694055262	 0.115859
H	 1.7902414121	 3.9356771618	 0.6480127969	 0.079828
H	 0.6930666817	 3.5801408779	-2.2017613715	 0.088578
H	-1.0118865738	 5.2688446844	-1.4901720136	 0.120495
H	-0.307094283	 5.2963228395	 0.1884254342	 0.11596
H	 1.9143881308	 6.0371791529	-0.7373482355	 0.115015
H	 1.2317410948	 6.0188018544	-2.4244613863	 0.118454
52.7592	76.777	92.9021	171.5539	212.9964	287.2983	316.6843	370.3663	393.4211	600.4028	729.9598	785.7956	807.0553	832.832	839.7023	910.1109	921.0038	955.698	958.1475	1006.3121	1036.4517	1057.8002	1066.745	1082.0093	1136.4199	1153.1288	1172.8554	1196.5295	1199.9501	1221.1199	1229.6844	1261.1447	1273.4894	1317.2739	1324.1639	1395.2574	1433.3018	1439.3332	1470.5384	1490.1754	1506.2851	1524.6256	1786.8328	2924.9636	2999.5802	3044.846	3085.4373	3089.4203	3132.2962	3136.1114	3142.4815	3145.7348	3211.5758	3226.2572
O=CN1CCC1C1CC1	O=CN1CC[C@H]1C1CC1	
InChI=1S/C7H11NO/c9-5-8-4-3-7(8)6-1-2-6/h5-7H,1-4H2	InChI=1S/C7H11NO/c9-5-8-4-3-7(8)6-1-2-6/h5-7H,1-4H2/t7-/m0/s1
