17
gdb 113133	2.14229	1.30484	1.09417	1.4208	81.78	-0.2429	0.0205	0.2635	1198.7475	0.132607	-384.600447	-384.590886	-384.589942	-384.634682	35.822	
O	 0.3022394409	 0.5605102668	 0.7907963897	-0.420817
C	-0.1778187829	 0.178320684	-0.4833257015	-0.084367
C	-1.5312126668	-0.4967945017	-0.416057663	-0.060213
C	-1.8999604509	-1.5721455385	-1.3815723748	-0.324867
C	-1.6157579289	-1.9587210382	 0.0794575844	-0.00825
C	-0.3796347958	-2.6355183528	 0.3850685885	 0.249348
C	 0.6628083061	-3.1705328312	 0.6588622906	-0.460485
C	-2.7427499699	-2.3135733789	 0.9040732825	 0.25607
C	-3.6914156803	-2.5988695948	 1.5848669443	-0.438581
H	 0.4800218081	-0.2530037988	 1.2771978678	 0.290301
H	-0.2649578778	 1.1005182588	-1.0682909961	 0.114872
H	 0.5361819747	-0.4748665	-1.0051865625	 0.097456
H	-2.3350623768	 0.1271040656	-0.0390509904	 0.118574
H	-2.9295984861	-1.6617930151	-1.7055369557	 0.137737
H	-1.1572320656	-1.8853789847	-2.1070327476	 0.134335
H	 1.5711636963	-3.6696565447	 0.8909830671	 0.201932
H	-4.5230989444	-2.8551605359	 2.1931203469	 0.196953
77.7119	102.2688	132.1845	171.0609	208.0549	257.6533	359.9827	401.3392	433.2732	481.2958	502.6295	570.5934	577.1614	589.878	606.7953	633.8584	661.3335	663.3778	783.9902	869.4499	934.4176	957.8046	1019.2651	1062.1881	1079.042	1087.7098	1152.7164	1216.7941	1251.6814	1290.9691	1361.9855	1411.2831	1430.404	1476.7868	1497.1847	2231.0388	2240.4249	3002.9433	3070.1619	3143.1991	3170.8344	3238.306	3499.7429	3503.423	3793.6177
OCC1CC1(C#C)C#C	OC[C@H]1CC1(C#C)C#C	
InChI=1S/C8H8O/c1-3-8(4-2)5-7(8)6-9/h1-2,7,9H,5-6H2	InChI=1S/C8H8O/c1-3-8(4-2)5-7(8)6-9/h1-2,7,9H,5-6H2/t7-/m1/s1
