23
gdb 117664	2.3194	1.00753	0.98049	1.5634	78.86	-0.2555	0.0728	0.3283	1425.6708	0.201603	-462.554322	-462.542745	-462.541801	-462.590785	42.063	
C	-0.1656959441	 1.3721449796	-0.0011336883	-0.227965
O	-0.0909172244	-0.032653412	-0.0538771906	-0.255492
C	 0.8070121491	-0.5122832583	-1.0436545989	-0.093177
C	 0.68216829	-2.0444248179	-1.0424690025	 0.358352
C	 1.2128878351	-2.6221774338	 0.2785171759	-0.43204
O	-0.6904859188	-2.3916786947	-1.2125437385	-0.489294
C	 1.4296579349	-2.6798869243	-2.2357022368	 0.107333
C	 0.8553600571	-2.3329436132	-3.6084336096	-0.422537
O	 2.792332765	-2.2701658091	-2.1156526242	-0.444301
H	 0.8075581997	 1.8202728224	 0.2503486493	 0.109963
H	-0.5027086064	 1.7980696708	-0.9590236327	 0.107563
H	-0.8871192616	 1.6337633273	 0.7769397833	 0.127663
H	 0.5251955475	-0.1020312688	-2.0242473885	 0.0861
H	 1.8373811109	-0.2036183687	-0.8237829132	 0.108626
H	 0.740075858	-2.1205609559	 1.1265785985	 0.118269
H	 0.9785473204	-3.6892040047	 0.3292428863	 0.112171
H	 2.2957820128	-2.4947055289	 0.3504540499	 0.127432
H	-1.1801749924	-1.7884324642	-0.6395854159	 0.285027
H	 1.3494678291	-3.7701481522	-2.0965746056	 0.072002
H	 1.3606448204	-2.9195603729	-4.3847843288	 0.098535
H	-0.2108503436	-2.5636963035	-3.6419299992	 0.143849
H	 0.9975974801	-1.2746658139	-3.8456381979	 0.117871
H	 3.2809168713	-2.650073453	-2.8517722721	 0.284052
62.8074	83.4659	112.5816	145.7755	222.7527	230.0934	235.888	254.8843	263.3238	276.6545	337.2759	345.7572	369.246	416.4204	447.9844	492.4605	529.7139	581.6478	768.4029	877.05	930.8181	942.7203	977.3978	992.9402	1037.5036	1088.5946	1115.5447	1149.8698	1161.1729	1176.7854	1185.0364	1200.2394	1223.5804	1276.8623	1288.0089	1370.3362	1377.61	1392.1284	1402.224	1425.2256	1433.9646	1478.5208	1485.1547	1488.5669	1493.3062	1498.4811	1503.083	1506.8932	1522.874	2969.0923	2974.9444	2996.9532	3023.528	3034.7107	3045.0779	3048.2011	3100.3933	3113.529	3123.196	3132.7826	3143.1755	3779.0276	3829.2181
COCC(C)(O)C(C)O	COC[C@@](C)(O)[C@@H](C)O	
InChI=1S/C6H14O3/c1-5(7)6(2,8)4-9-3/h5,7-8H,4H2,1-3H3	InChI=1S/C6H14O3/c1-5(7)6(2,8)4-9-3/h5,7-8H,4H2,1-3H3/t5-,6-/m1/s1
