20
gdb 63851	2.21869	1.59336	1.26325	4.2427	83.98	-0.2667	0.02	0.2867	1106.6162	0.170502	-366.01415	-366.005266	-366.004322	-366.047104	34.531	
C	-0.0871986669	 1.5629632491	 0.0674128811	-0.451882
C	 0.0159176376	 0.040569061	 0.0131206092	 0.253353
C	-1.3496127972	-0.5863945304	-0.2698721937	-0.447503
C	 1.1323669297	-0.5690389677	-0.9140805576	-0.27915
C	 1.7570184729	-1.2812663564	 0.2885980812	-0.093501
C	 2.1787343642	-0.2897383504	 1.3215919562	-0.332497
C	 0.7091551635	-0.645424979	 1.2287787083	 0.203446
C	 0.0166596464	-1.2310650589	 2.3293298137	 0.189376
N	-0.5664244992	-1.6987322567	 3.2143619972	-0.36402
H	 0.8759747996	 2.0391715293	 0.2715046211	 0.114474
H	-0.4520131183	 1.9541542911	-0.8888522262	 0.119687
H	-0.7899236135	 1.8780713973	 0.8463564314	 0.127289
H	-1.734861242	-0.2353246907	-1.2330749904	 0.115865
H	-1.2891214745	-1.6786111838	-0.3043666216	 0.123301
H	-2.0749650798	-0.3177644862	 0.5050724995	 0.133316
H	 0.7199384235	-1.2478635249	-1.6628038635	 0.11194
H	 1.7890635986	 0.1494874921	-1.414467822	 0.102825
H	 2.1053883076	-2.3060358402	 0.3066665199	 0.112942
H	 2.684908938	-0.695591844	 2.1906753849	 0.139241
H	 2.5097404297	 0.7037792893	 1.0329204415	 0.121497
109.501	139.5238	198.8461	225.1026	262.1032	287.6058	344.2711	360.0237	423.9064	439.0961	514.3584	575.908	607.858	628.4761	806.2946	835.6434	871.3506	875.3178	924.8846	956.1439	978.3578	994.7506	1024.1074	1040.2152	1051.1407	1091.8246	1138.5251	1171.852	1218.2829	1235.8317	1252.2137	1281.962	1301.4597	1367.3867	1406.407	1424.4264	1478.7155	1482.0844	1486.2422	1498.0383	1505.3862	1507.0525	2337.6584	3028.847	3033.3148	3053.5005	3095.1064	3103.6582	3104.3067	3106.7509	3115.7237	3125.4664	3197.5927	3217.327
CC1(C)CC2CC12C#N	CC1(C)C[C@H]2C[C@@]12C#N	
InChI=1S/C8H11N/c1-7(2)3-6-4-8(6,7)5-9/h6H,3-4H2,1-2H3	InChI=1S/C8H11N/c1-7(2)3-6-4-8(6,7)5-9/h6H,3-4H2,1-2H3/t6-,8-/m0/s1
