17
gdb 28515	3.13698	1.32241	0.93212	0.3561	82.	-0.171	0.0195	0.1904	1205.7626	0.137778	-418.073328	-418.064822	-418.063878	-418.105636	33.798	
N	-0.0253748372	 1.4148060222	 0.2128713344	-0.596503
C	-0.0041467143	 0.0172966459	 0.0541710721	 0.318584
C	-1.1909830005	-0.7166452477	 0.0027662716	-0.208512
C	-1.142578289	-2.108132986	-0.0852428162	-0.220218
C	 0.0676785091	-2.7801790175	-0.1264730722	 0.295358
O	 0.1835925251	-4.1519647754	-0.206702871	-0.471301
C	 1.2735925305	-2.0576610298	-0.0808065646	 0.264409
N	 2.4838972112	-2.7459921479	-0.1814979977	-0.596948
C	 1.2163893394	-0.6674376955	 0.0111398719	-0.271691
H	 0.7833461902	 1.8780207017	-0.178876343	 0.239438
H	-0.8711451599	 1.8436740919	-0.1372864987	 0.239668
H	-2.1489498807	-0.2084992753	 0.0377342083	 0.074393
H	-2.0687538764	-2.6770731693	-0.1219823868	 0.075741
H	-0.6955740145	-4.5396678211	-0.1723329409	 0.292797
H	 2.4086340717	-3.7211939833	 0.0708167192	 0.256762
H	 3.2613336922	-2.2943495647	 0.2777122837	 0.241707
H	 2.1467855432	-0.1064951781	 0.0510043902	 0.066316
149.4409	215.414	246.6918	252.667	305.2645	323.3236	333.3131	375.4888	448.3289	453.7938	509.3728	584.2706	610.2015	647.7663	686.6561	729.9439	759.1537	788.2281	796.1317	846.6626	868.8528	978.7569	1084.0199	1133.5885	1152.6965	1181.2247	1228.0852	1282.0504	1347.4402	1351.6637	1393.4249	1505.1734	1560.1791	1635.8271	1649.132	1660.0061	1668.9091	3148.521	3153.4416	3180.7642	3546.9585	3560.3283	3640.4297	3663.208	3840.7665
NC1=CC=C(O)C(N)=C1	Nc1ccc(O)c(N)c1	
InChI=1S/C6H8N2O/c7-4-1-2-6(9)5(8)3-4/h1-3,9H,7-8H2	InChI=1S/C6H8N2O/c7-4-1-2-6(9)5(8)3-4/h1-3,9H,7-8H2
