13
gdb 21131	7.22342	1.3291	1.13048	2.9364	58.7	-0.2166	0.0299	0.2465	989.5883	0.095065	-431.906456	-431.898718	-431.897774	-431.939997	26.856	
C	-0.0422835443	 1.3956351217	 0.0616317351	-0.322212
N	-0.0369716207	-0.0593081258	 0.0011066052	-0.386348
C	 0.538523601	-0.6079635134	-0.9716980589	 0.554508
N	 0.652372071	-1.9766617631	-1.2035967005	-0.423616
C	 1.3576245528	-2.1307079878	-2.3536773553	 0.513148
O	 1.6226000476	-3.3511120046	-2.813569444	-0.407768
N	 1.7148273589	-1.0223825268	-2.9097419285	-0.25619
O	 1.1874483152	-0.0149946085	-2.0276137385	-0.257249
H	 0.9647129906	 1.8245782588	-0.0272532242	 0.122378
H	-0.6555321768	 1.8354322653	-0.7363870833	 0.122236
H	-0.4643110037	 1.7067605832	 1.0201211384	 0.119882
H	 0.2895330344	-2.6944581248	-0.6019510586	 0.293039
H	 2.1270617342	-3.2524498342	-3.6329821269	 0.328193
16.3947	102.7161	185.1301	259.7727	342.9319	370.4864	372.1149	443.5302	541.6206	672.0672	674.7442	739.8771	745.6918	916.9243	937.3023	1037.6534	1079.7385	1123.5806	1159.1966	1224.29	1247.3168	1337.3091	1447.4842	1490.9091	1502.025	1598.372	1695.7629	1824.7023	3001.1415	3050.5783	3105.4864	3699.7857	3782.2051	16.3804	102.716	185.13	259.7726	342.9321	370.4864	372.1149	443.5306	541.6206	672.0672	674.7443	739.8771	745.6918	916.9244	937.3025	1037.6535	1079.7386	1123.5807	1159.1968	1224.2901	1247.3171	1337.3092	1447.4845	1490.9094	1502.0254	1598.372	1695.7629	1824.7022	3001.1416	3050.5783	3105.4864	3699.7857	3782.2052
CN=C1NC(O)=NO1	CN=c1[nH]c(O)no1	
InChI=1S/C3H5N3O2/c1-4-3-5-2(7)6-8-3/h1H3,(H2,4,5,6,7)	InChI=1S/C3H5N3O2/c1-4-3-5-2(7)6-8-3/h1H3,(H2,4,5,6,7)
