23
gdb 96341	2.11594	1.63938	1.3377	1.7693	80.65	-0.244	0.0736	0.3175	1122.1233	0.206191	-425.444546	-425.435269	-425.434325	-425.477585	37.167	
C	 0.0377529485	 1.511989607	-0.0054525828	-0.408565
C	-0.0173762018	-0.0162028184	 0.0531690827	 0.318112
C	-1.486954457	-0.4637619743	 0.0097517438	-0.437399
O	 0.7133283615	-0.4546294035	-1.1128591199	-0.301389
C	 0.8201748287	-1.8661884025	-1.271273717	-0.075948
C	 1.5178330807	-2.5265029243	-0.0802055593	-0.214419
C	 0.8600716311	-2.095194688	 1.2397193823	-0.227855
C	 0.7326388564	-0.5619218422	 1.2961242278	 0.135166
O	 2.0229169932	 0.0319124074	 1.397208677	-0.451272
H	 1.0676482875	 1.8697619337	 0.0089968456	 0.121847
H	-0.4437276713	 1.8645197897	-0.921725488	 0.11516
H	-0.4844268538	 1.9449786887	 0.8530133618	 0.111887
H	-1.9514734512	-0.1086434157	-0.9148539471	 0.124141
H	-1.6173246292	-1.5461404811	 0.0587409315	 0.11703
H	-2.0329156969	-0.0294615345	 0.852986979	 0.118777
H	-0.1722848036	-2.3141947913	-1.4279557318	 0.091342
H	 1.3903835178	-2.0123324418	-2.1938465811	 0.106163
H	 1.4944195731	-3.615884501	-0.1933225644	 0.096199
H	 2.574176979	-2.2326924334	-0.0726138088	 0.103907
H	-0.12716215	-2.5598650857	 1.3431919021	 0.09533
H	 1.4592337669	-2.4247470096	 2.093878842	 0.104862
H	 0.1967893818	-0.2636738981	 2.2044075264	 0.074456
H	 2.3931775886	 0.0251983287	 0.5059706381	 0.282467
119.975	170.1447	201.2967	226.2702	251.7464	319.1177	335.0429	372.3754	387.615	416.0632	439.4576	486.9379	527.6436	549.5543	645.6696	741.4355	830.8583	848.6817	873.9313	911.0192	936.6071	966.4502	979.373	999.7921	1018.3047	1071.6327	1104.3004	1122.5952	1171.5563	1203.2105	1223.6887	1242.8468	1251.2026	1285.4576	1314.5451	1340.5604	1367.7253	1381.1427	1398.1073	1407.3092	1414.8326	1433.2383	1476.4803	1477.1702	1485.5931	1493.7081	1498.0131	1508.925	1522.1478	2997.1159	3035.0533	3038.7203	3045.2632	3049.3553	3055.6557	3074.5391	3079.4915	3089.3667	3111.2315	3120.6341	3131.8764	3146.6208	3781.2474
CC1(C)OCCCC1O	CC1(C)OCCC[C@H]1O	
InChI=1S/C7H14O2/c1-7(2)6(8)4-3-5-9-7/h6,8H,3-5H2,1-2H3	InChI=1S/C7H14O2/c1-7(2)6(8)4-3-5-9-7/h6,8H,3-5H2,1-2H3/t6-/m1/s1
