17
gdb 43048	2.47137	2.21493	1.6313	3.0759	70.57	-0.2369	-0.0109	0.226	869.6711	0.139138	-421.832721	-421.826454	-421.825509	-421.863216	26.007	
O	 0.0090574592	 0.0533126597	 0.1010475749	-0.349542
C	-0.0480175784	 1.2512760701	 0.0404134913	 0.464815
C	-1.2496979623	 2.1765443831	-0.0020420738	-0.193794
C	-0.881456966	 3.0924639679	 1.2144968606	-0.263144
C	 0.2898703358	 3.5468408546	 0.3124399624	-0.070953
C	-0.6428617179	 3.3385063395	-0.9008651249	 0.145561
O	 0.1008302227	 2.9683030799	-2.0381161958	-0.281008
C	 1.3521747867	 2.4497962142	-1.551843255	-0.088799
C	 1.1105467782	 2.2715314754	-0.0392411713	-0.184593
H	-2.2331395647	 1.734570097	-0.1429669615	 0.087038
H	-1.6152760231	 3.8867842727	 1.3684148523	 0.114378
H	-0.6585224404	 2.602801097	 2.1650132175	 0.116762
H	 0.8430550061	 4.4706382635	 0.4768965539	 0.079216
H	-1.3550332526	 4.1251979291	-1.1493744952	 0.096894
H	 1.5751590244	 1.5078762469	-2.061793986	 0.12977
H	 2.1598083677	 3.1658500817	-1.7561231676	 0.104287
H	 1.9944142846	 2.0275035677	 0.5484275782	 0.093112
141.2666	250.2721	354.5858	388.1307	457.6659	555.2928	659.4113	674.8294	764.9931	787.6932	803.3629	819.9473	886.867	905.1117	926.6716	947.8392	970.2729	1002.2908	1016.9254	1042.7599	1057.2674	1080.5814	1097.1045	1154.5101	1177.238	1189.8247	1214.3487	1228.2892	1233.8598	1247.4239	1295.8223	1298.4129	1333.103	1386.7161	1507.5823	1522.3318	1871.8363	3010.1351	3067.3977	3085.4151	3118.9172	3123.7373	3126.9371	3135.4675	3154.2404
O=C1C2CC3C2OCC13	O=C1[C@H]2C[C@@H]3[C@H]2OC[C@H]13	
InChI=1S/C7H8O2/c8-6-4-1-3-5(6)2-9-7(3)4/h3-5,7H,1-2H2	InChI=1S/C7H8O2/c8-6-4-1-3-5(6)2-9-7(3)4/h3-5,7H,1-2H2/t3-,4+,5-,7+/m0/s1
