18
gdb 56508	2.60786	1.24771	1.04688	4.7727	77.94	-0.2823	0.0148	0.297	1198.7711	0.143571	-401.930914	-401.920519	-401.919575	-401.965746	38.011	
C	 0.0427187122	 1.5797582451	 0.0667607883	-0.423534
C	 0.0043768388	 0.041398782	 0.0192486137	-0.137783
C	 0.7771191146	-0.5131808596	 1.134870895	 0.276645
N	 1.4055802036	-0.9364794146	 2.0074410836	-0.332209
C	-1.4604480796	-0.5342220744	 0.0242083633	 0.152902
C	-1.4539948075	-2.067585306	 0.0741211609	-0.414258
O	-2.1539412277	-0.1042066732	 1.1914627979	-0.441973
C	-2.1463663346	-0.0680146704	-1.1900745173	 0.303473
C	-2.7175220872	 0.328416699	-2.1708848434	-0.458841
H	 1.0729625808	 1.9384409046	 0.0164064347	 0.142112
H	-0.5132947873	 1.9915862517	-0.7786258293	 0.13886
H	-0.3944133976	 1.9458435128	 0.9992302875	 0.137936
H	 0.4788859076	-0.2989082652	-0.9088048917	 0.134307
H	-0.9993568931	-2.3991359852	 1.010171925	 0.158096
H	-2.4804111776	-2.4354608195	 0.0285399751	 0.137875
H	-0.8910734775	-2.4817325539	-0.7660238634	 0.126437
H	-2.4719028741	 0.7928562448	 1.045634149	 0.292352
H	-3.2298896339	 0.6665404023	-3.0383618786	 0.207603
60.9103	129.3732	172.9008	179.0589	213.0589	233.3869	244.2862	271.0151	288.4266	358.5379	392.893	418.0751	490.3896	559.1417	583.8946	609.5446	645.4627	675.716	742.7688	844.6696	913.3484	949.4759	1018.7486	1036.3414	1108.9918	1114.0551	1166.767	1185.0771	1306.2511	1329.2214	1362.6261	1403.3099	1411.266	1480.9241	1492.8808	1496.4725	1506.5262	2229.8483	2357.7462	3047.3243	3055.6	3058.3608	3132.9379	3138.481	3139.3931	3147.3508	3496.5902	3820.8912
CC(C#N)C(C)(O)C#C	C[C@@H](C#N)[C@@](C)(O)C#C	
InChI=1S/C7H9NO/c1-4-7(3,9)6(2)5-8/h1,6,9H,2-3H3	InChI=1S/C7H9NO/c1-4-7(3,9)6(2)5-8/h1,6,9H,2-3H3/t6-,7-/m0/s1
