15
gdb 53867	3.71971	0.84492	0.73402	0.2878	69.83	-0.2456	-0.0352	0.2104	1486.7266	0.111388	-453.976355	-453.966887	-453.965943	-454.011915	33.45	
N	 0.0134527957	 1.1641417211	-0.3638646612	-0.516725
C	 0.0113263981	-0.0789433714	 0.1503320555	 0.338625
O	 0.9435546962	-0.6436698012	 0.6954371725	-0.375689
C	-1.3645951102	-0.759376145	-0.0269146032	 0.338374
O	-2.3017959336	-0.1975342762	-0.5735328713	-0.39697
N	-1.3697873932	-2.0017519152	 0.49005201	-0.306724
C	-2.525402446	-2.8797792652	 0.4140496775	-0.29542
C	-2.195535045	-4.1902308455	-0.1382795894	 0.289045
C	-1.9138786211	-5.2745829153	-0.5707925362	-0.435795
H	 0.8444398854	 1.7290766268	-0.3286127357	 0.271063
H	-0.8353111319	 1.5000595367	-0.7920744041	 0.284422
H	-0.4943072106	-2.319868994	 0.8845323961	 0.277154
H	-2.976312012	-3.002232737	 1.4081211678	 0.146453
H	-3.2625304311	-2.3639772695	-0.2103834873	 0.175063
H	-1.6720591508	-6.231030629	-0.964225171	 0.207125
32.0254	69.5461	95.2473	179.4855	226.1549	313.056	325.2146	345.3747	368.2006	487.8238	507.7846	580.3762	623.776	637.4051	649.7829	673.5577	680.4507	835.382	864.6512	954.4828	1034.9592	1079.841	1105.6287	1224.2827	1270.0414	1366.8448	1384.063	1482.6457	1553.3745	1587.9013	1778.6174	1808.5416	2245.4589	3014.694	3080.6243	3504.8571	3589.8844	3595.6591	3736.1197
NC(=O)C(=O)NCC#C	NC(=O)C(=O)NCC#C	
InChI=1S/C5H6N2O2/c1-2-3-7-5(9)4(6)8/h1H,3H2,(H2,6,8)(H,7,9)	InChI=1S/C5H6N2O2/c1-2-3-7-5(9)4(6)8/h1H,3H2,(H2,6,8)(H,7,9)
