16
gdb 50407	3.19698	1.22919	0.962	2.5664	74.	-0.2412	-0.0672	0.174	1178.512	0.125316	-437.938746	-437.930914	-437.92997	-437.971775	28.809	
O	-0.0425270191	-0.0462539344	-0.1839798628	-0.33712
C	 0.0026175333	 1.162192049	-0.0971099306	 0.156331
N	 1.1493353822	 1.9025120049	-0.0524063567	-0.065579
C	 2.4361287977	 1.2293469408	-0.0428892152	-0.219919
C	 3.3582935612	 1.8036385634	 0.9892828714	-0.052711
C	 3.1286887852	 2.958613033	 1.6261103734	-0.149492
C	 1.984214857	 3.8201773146	 1.2766126796	 0.370535
O	 1.7533693955	 4.8748722638	 1.8276544554	-0.317238
C	 1.1353265478	 3.3453182135	 0.0913625497	-0.296241
H	-0.8999880537	 1.8007253791	-0.0438683264	 0.084235
H	 2.2404322353	 0.1699449834	 0.1482326282	 0.16919
H	 2.9187757536	 1.279187011	-1.0340710313	 0.132102
H	 4.2532834444	 1.2242908128	 1.2023092661	 0.124547
H	 3.796411989	 3.339725307	 2.3917628765	 0.118827
H	 1.5275432929	 3.8376102346	-0.8131388244	 0.134296
H	 0.1100624178	 3.6939178936	 0.232651077	 0.148237
59.585	96.0401	238.9952	281.2342	311.784	328.3917	414.7449	448.0368	491.6494	571.7053	669.1867	751.5127	769.4369	834.7404	914.5083	978.7081	991.1143	1009.8256	1030.2549	1036.2894	1143.8558	1191.3149	1221.9347	1257.8886	1292.844	1342.3758	1376.4168	1403.0839	1427.2664	1450.4551	1466.5303	1479.6296	1684.1597	1790.3446	1793.4918	2949.658	2965.2406	2981.1752	3089.061	3113.5355	3163.8027	3195.76
O=CN1CC=CC(=O)C1	O=CN1CC=CC(=O)C1	
InChI=1S/C6H7NO2/c8-5-7-3-1-2-6(9)4-7/h1-2,5H,3-4H2	InChI=1S/C6H7NO2/c8-5-7-3-1-2-6(9)4-7/h1-2,5H,3-4H2
