19
gdb 14129	3.61382	1.57293	1.41599	2.183	71.03	-0.248	0.0692	0.3172	973.3128	0.165295	-365.021559	-365.013284	-365.01234	-365.054184	31.277	
C	 0.0614780613	 1.458494927	-0.2111672678	-0.418028
C	 0.0204449844	-0.0284215724	 0.145530211	 0.026524
O	 0.7116009613	-0.2971139996	 1.3644441287	-0.427846
C	-1.3910514801	-0.5573534241	 0.1917725883	 0.364846
C	-2.4211366434	-0.3241713544	 1.3154404654	-0.310756
C	-2.9916922869	-1.7567691488	 1.0429641272	-0.232717
C	-1.9469150495	-1.9299464033	-0.0671565346	-0.092954
N	-2.0566671676	-0.8704888851	-1.0682423622	-0.365155
H	 1.095121343	 1.8138429248	-0.2422467445	 0.122624
H	-0.4021449092	 1.6325346168	-1.1863617954	 0.13335
H	-0.4843155466	 2.0540603459	 0.5322967202	 0.104554
H	 0.5570511123	-0.5956818183	-0.622855635	 0.097194
H	 0.4232198325	 0.3528832754	 2.0137574011	 0.277392
H	-1.966367814	-0.254372318	 2.3065850844	 0.102724
H	-3.0986791701	 0.5254030234	 1.1771247746	 0.093121
H	-2.839308013	-2.4289453366	 1.8902928143	 0.111837
H	-4.0373902963	-1.8264014565	 0.7242301902	 0.096829
H	-1.4444670828	-2.8475107154	-0.352284947	 0.096096
H	-2.9975704753	-0.4843916509	-1.1317508891	 0.220367
63.9755	145.06	201.9485	242.0197	265.316	272.6866	327.6729	464.3921	486.9754	512.735	647.8609	754.6393	784.6502	839.4602	887.2791	925.069	939.93	950.8781	1012.4832	1023.0795	1054.136	1067.4957	1088.6284	1112.1266	1140.482	1185.2754	1215.055	1229.5741	1248.8125	1282.4996	1286.1163	1305.5085	1346.4962	1395.4125	1404.0013	1447.454	1474.9912	1493.6368	1495.5231	1499.6817	3022.0703	3038.9592	3047.9287	3055.4653	3096.8047	3097.3558	3114.5446	3123.6516	3176.8109	3452.8284	3808.6337
CC(O)C12CCC1N2	C[C@@H](O)[C@]12CC[C@H]1N2	
InChI=1S/C6H11NO/c1-4(8)6-3-2-5(6)7-6/h4-5,7-8H,2-3H2,1H3	InChI=1S/C6H11NO/c1-4(8)6-3-2-5(6)7-6/h4-5,7-8H,2-3H2,1H3/t4-,5-,6-/m1/s1
