20
gdb 100324	2.11683	1.36236	1.05875	3.006	70.73	-0.2331	0.0574	0.2904	1217.0392	0.169611	-477.376939	-477.366801	-477.365857	-477.411763	37.296	
O	 0.0036883148	 1.5371039569	 0.0297165107	-0.425185
C	 0.0879086458	 0.1179064668	 0.0567549328	-0.110539
C	-1.3365975328	-0.4555957493	-0.0296377958	 0.310313
O	-1.2441765691	-1.8749282917	-0.0515138446	-0.486397
C	-2.1678761856	-0.030229008	 1.1904421441	-0.12357
O	-1.6229735313	-0.7261145072	 2.3143643645	-0.44286
C	-2.0291940701	 0.0028147448	-1.304021276	-0.002225
C	-1.8555617708	-0.7483280322	-2.5676608465	-0.24775
N	-3.1455369048	-0.7853063909	-1.8456960465	-0.34021
H	 0.8920023564	 1.8948876729	 0.1090022263	 0.29279
H	 0.6636771535	-0.2734426859	-0.7931985542	 0.09623
H	 0.5535287561	-0.2390102436	 0.9862206105	 0.097234
H	-1.2284862714	-2.1448658208	 0.8769758833	 0.29191
H	-2.1006134515	 1.0559286817	 1.3222805937	 0.119761
H	-3.2170039591	-0.3099704528	 1.0280857461	 0.10375
H	-2.2323451194	-0.6456054285	 3.0526991975	 0.297488
H	-2.1702403071	 1.0783343147	-1.3547255078	 0.101173
H	-1.8735418491	-0.2190299451	-3.5160284558	 0.110737
H	-1.238482443	-1.6408124412	-2.5440387846	 0.124547
H	-3.1708848715	-1.6636850604	-1.3288655477	 0.232803
86.2091	103.2802	148.9183	177.5863	203.1534	238.2204	240.4392	277.8792	305.3321	359.1774	408.4408	466.108	499.7362	544.4364	630.1893	745.6706	848.6673	868.5861	926.8413	951.5603	981.4235	1004.456	1051.8634	1075.9358	1097.2538	1134.1728	1134.4319	1152.7507	1172.2054	1210.9145	1225.2914	1249.589	1275.2539	1285.7801	1293.574	1318.2029	1372.9708	1426.0107	1451.6975	1462.0101	1503.9855	1507.2136	1516.1433	2995.8204	3014.2569	3037.9134	3069.2125	3117.0148	3157.0284	3207.8214	3476.7175	3751.7718	3840.8016	3848.4969
OCC(O)(CO)C1CN1	OCC(O)(CO)[C@H]1CN1	
InChI=1S/C5H11NO3/c7-2-5(9,3-8)4-1-6-4/h4,6-9H,1-3H2	InChI=1S/C5H11NO3/c7-2-5(9,3-8)4-1-6-4/h4,6-9H,1-3H2/t4-/m1/s1
