15
gdb 132751	2.30495	1.83145	1.02703	2.5279	71.42	-0.2363	-0.0182	0.2181	1083.1485	0.112621	-461.974925	-461.96702	-461.966075	-462.007441	29.493	
C	-0.026933156	 1.5111835466	-0.0331235191	-0.501409
C	-0.0047157561	 0.0076338357	 0.0025618973	 0.127599
C	 0.0672009804	-0.7425075556	-1.1606181559	 0.123321
F	 0.1195814338	-0.138657075	-2.364062274	-0.090129
C	 0.0883357711	-2.1331931873	-1.139850431	 0.226465
O	 0.1586249293	-2.8730546306	-2.2745437675	-0.43475
C	 0.0336553601	-2.7471871758	 0.1113804031	-0.063545
N	-0.0360273084	-2.0628604333	 1.2517618455	-0.27259
C	-0.054066237	-0.730504677	 1.1891638912	-0.068159
H	 0.872179885	 1.9125819744	-0.512291264	 0.14178
H	-0.8855073948	 1.8844958991	-0.6011348315	 0.141792
H	-0.0846239292	 1.9174339412	 0.9792035449	 0.133908
H	 0.1877572487	-2.2694297471	-3.0269498253	 0.306306
H	 0.0481216531	-3.8323759023	 0.1666662813	 0.12232
H	-0.1113719701	-0.202178563	 2.1381202148	 0.107091
88.1232	150.5918	240.3221	260.0844	287.4398	306.6455	409.8639	487.7273	504.6154	540.7939	598.7344	601.5974	681.6603	762.6756	835.7191	903.9967	948.5943	986.7419	1063.6444	1066.2886	1172.704	1202.7707	1264.4166	1316.9275	1326.9236	1371.9585	1417.231	1469.1078	1481.1103	1496.0008	1537.0865	1619.4823	1656.1522	3039.1863	3094.1056	3126.3129	3152.5605	3168.6389	3796.2925
CC1=C(F)C(O)=CN=C1	Cc1c(F)c(O)cnc1	
InChI=1S/C6H6FNO/c1-4-2-8-3-5(9)6(4)7/h2-3,9H,1H3	InChI=1S/C6H6FNO/c1-4-2-8-3-5(9)6(4)7/h2-3,9H,1H3
