18
gdb 119549	2.77751	1.33651	1.02304	1.7465	73.53	-0.2538	0.0153	0.2691	1180.3998	0.14664	-439.038858	-439.030099	-439.029155	-439.073087	31.874	
C	-0.2521566879	 0.7376725308	 0.2950770424	-0.246504
O	 0.9584554759	 0.4358700798	-0.3764840183	-0.226089
C	 0.7946116217	-0.4171696694	-1.4876839217	-0.200524
C	 0.589831224	-1.8641097532	-1.1202431184	 0.176882
C	 1.6893890115	-2.7232024499	-0.4754261666	-0.324833
C	 1.071361554	-3.1595319049	-1.7491602777	 0.035102
O	-0.1972876604	-3.8103219558	-1.4717343712	-0.27427
C	-0.6987186424	-2.611328511	-0.9658937666	 0.407296
N	-1.8567370777	-2.3078865473	-0.5955198219	-0.559729
H	-0.9514752595	 1.2715083201	-0.3664644567	 0.106115
H	-0.7597606333	-0.1607423966	 0.6683097711	 0.139985
H	 0.0070751141	 1.3862203723	 1.1352134454	 0.122033
H	-0.0398023234	-0.0787547111	-2.1214894974	 0.104606
H	 1.7177837311	-0.3275796344	-2.0713687954	 0.106562
H	 2.677238621	-2.2772709075	-0.5433275587	 0.135121
H	 1.4922327401	-3.2815127656	 0.4339269002	 0.135512
H	 1.5413894662	-3.3710359143	-2.6996440162	 0.129715
H	-2.495741865	-3.1005457119	-0.6736168822	 0.233021
45.1103	100.5772	142.2696	176.0052	225.3892	248.8408	350.1904	440.6183	465.2157	484.0864	650.3979	715.105	772.018	839.9161	862.7832	897.3368	926.9951	934.8996	949.6445	986.4774	1011.604	1034.9954	1078.0597	1087.1902	1135.2138	1175.9474	1186.9016	1222.5157	1266.0435	1278.919	1344.6041	1388.2565	1410.3066	1472.6484	1481.3158	1487.3661	1494.1559	1508.8154	1826.4022	2984.6603	2990.7249	3055.8535	3063.2054	3120.0385	3127.4154	3216.045	3222.4239	3481.9736
COCC12CC1OC2=N	COC[C@]12C[C@H]1O[C]2[NH]	
InChI=1S/C6H9NO2/c1-8-3-6-2-4(6)9-5(6)7/h4,7H,2-3H2,1H3	InChI=1S/C6H9NO2/c1-8-3-6-2-4(6)9-5(6)7/h4,7H,2-3H2,1H3/t4-,6-/m1/s1
