18
gdb 73208	2.57289	1.77996	1.4178	2.3575	71.26	-0.2434	0.0203	0.2637	977.6535	0.14852	-439.080898	-439.073053	-439.072109	-439.113517	29.816	
C	-0.1993796164	 1.5706089959	 0.1217220925	-0.444299
C	 0.0237770329	 0.0701914335	 0.0242099234	 0.354181
C	-1.2362282468	-0.6936612321	-0.3780603428	-0.197764
N	-1.287906576	-2.0990442954	 0.0043431532	-0.262616
C	-0.5944567591	-2.482776285	 0.9842260318	 0.123002
O	 0.287475165	-1.7787334075	 1.7468281804	-0.238578
C	 0.8021422829	-0.5693556714	 1.205626858	 0.02667
C	 1.939035813	-0.7558246462	 0.1847712704	-0.101089
O	 1.1294157749	-0.2305600842	-0.8808779523	-0.318581
H	 0.7351613814	 2.0864456377	 0.3618152628	 0.121364
H	-0.5644508646	 1.961255614	-0.8337827989	 0.132967
H	-0.9377467611	 1.806124323	 0.8953785496	 0.121789
H	-2.1154679267	-0.2019132215	 0.059498801	 0.11364
H	-1.3453427887	-0.6206479913	-1.4658485478	 0.125824
H	-0.6646108511	-3.5035078113	 1.3551581796	 0.125684
H	 1.0072996132	 0.0823507566	 2.0556137788	 0.098374
H	 2.8368243304	-0.1520914521	 0.3655465012	 0.105684
H	 2.2268449967	-1.8003120328	 0.0205528089	 0.113748
66.2585	108.205	228.4631	262.2151	338.0828	348.5016	405.2787	486.5706	519.6086	548.649	661.0685	772.8478	859.0149	865.0521	915.6782	930.8321	953.9543	974.9167	1012.2445	1023.0716	1049.8456	1086.0873	1140.8666	1152.5812	1161.9117	1201.2498	1253.0774	1264.1504	1288.0016	1342.5101	1361.5792	1396.024	1404.6704	1418.3045	1464.6452	1483.4678	1491.9363	1514.2813	1744.6617	3018.7797	3019.6654	3033.8044	3065.0648	3070.6444	3104.5182	3108.2349	3110.8427	3160.9434
CC12CN=COC1CO2	C[C@]12CN=CO[C@H]1CO2	
InChI=1S/C6H9NO2/c1-6-3-7-4-8-5(6)2-9-6/h4-5H,2-3H2,1H3	InChI=1S/C6H9NO2/c1-6-3-7-4-8-5(6)2-9-6/h4-5H,2-3H2,1H3/t5-,6-/m0/s1
