21
gdb 83880	2.15613	1.81251	1.37122	2.3329	77.49	-0.2287	0.0721	0.3008	1055.3946	0.18452	-424.220284	-424.212129	-424.211184	-424.25248	32.937	
C	-0.0775572469	 1.5202106004	-0.0292850795	-0.404322
C	 0.0715607111	 0.0041740455	 0.0146630083	 0.090049
O	 0.7785262689	-0.3929842924	-1.1703525931	-0.274207
C	 0.9046723058	-1.8109221591	-1.2598667021	-0.075065
C	 1.9068178885	-2.3454115488	-0.2326276097	-0.244064
C	 1.7119869793	-1.7019336931	 1.1372868251	-0.112223
C	 2.2874202013	-0.3178154409	 1.3616397138	 0.124225
O	 3.0311266815	 0.3276549098	 0.3714011713	-0.433529
C	 0.7943958	-0.4840789419	 1.2594981685	-0.102764
H	 0.9019791984	 2.0028124449	 0.0206474997	 0.138247
H	-0.5796772722	 1.827787407	-0.9507087609	 0.120951
H	-0.672352176	 1.8624264433	 0.8229614037	 0.116209
H	-0.9278051643	-0.4616922432	-0.0225310253	 0.073971
H	-0.0850545592	-2.2690989479	-1.1092906105	 0.094419
H	 1.2259328369	-2.0259630782	-2.282928588	 0.10817
H	 1.7985298245	-3.4319127128	-0.1587777342	 0.101963
H	 2.9264986402	-2.148535215	-0.5861025734	 0.11731
H	 1.7373171303	-2.3801968004	 1.9842355854	 0.084953
H	 2.7104455986	-0.1042610871	 2.3379350309	 0.097832
H	 2.5302872724	 0.2621451916	-0.4554666168	 0.29371
H	 0.2132765408	-0.3849117117	 2.1723341566	 0.084164
126.6897	176.6901	215.7073	242.0271	296.5644	323.0721	432.9536	447.6944	467.9648	566.8294	605.6699	649.8546	730.0698	734.875	773.7138	811.1162	871.7939	882.5884	944.5148	997.652	1019.6794	1040.5811	1063.0068	1082.3304	1106.2552	1120.9833	1134.7508	1145.1261	1165.7787	1221.6444	1255.7229	1289.71	1329.3073	1339.6785	1354.4577	1371.7126	1376.9851	1399.911	1409.8039	1420.8293	1478.5671	1486.1109	1488.3736	1499.6263	1505.061	2954.1043	2987.4376	3030.4337	3045.3632	3080.2419	3089.3863	3118.6134	3129.4843	3138.8895	3149.9718	3165.6516	3701.4332
CC1OCCC2C(O)C12	C[C@H]1OCC[C@H]2[C@@H](O)[C@@H]12	
InChI=1S/C7H12O2/c1-4-6-5(7(6)8)2-3-9-4/h4-8H,2-3H2,1H3	InChI=1S/C7H12O2/c1-4-6-5(7(6)8)2-3-9-4/h4-8H,2-3H2,1H3/t4-,5-,6+,7-/m1/s1
