18
gdb 32607	2.97156	1.23948	0.94778	3.9581	77.2	-0.1681	0.0523	0.2203	1260.6261	0.147827	-435.289084	-435.279801	-435.278857	-435.323786	33.977	
C	-0.0078487991	 1.5782069039	-0.0270099883	-0.377563
C	 0.0513229598	 0.0480002976	-0.0388521204	-0.147232
N	 0.6779672303	-0.4936024533	-1.2282470298	-0.08193
C	 0.0617467384	-0.7738426604	-2.4666745058	-0.219497
C	 1.0400897188	-1.1252093369	-3.3124282797	 0.326241
N	 1.1115796374	-1.4252911377	-4.6651635127	-0.592085
O	 2.2559708969	-1.0771902018	-2.6622168704	-0.234743
C	 2.0310736988	-0.6688376325	-1.3530891319	 0.463231
N	 2.9104404655	-0.4931520243	-0.4516974168	-0.626429
H	 1.0025778851	 1.9933023084	-0.0658912999	 0.147432
H	-0.574350527	 1.9593700411	-0.8825831	 0.115937
H	-0.4915430932	 1.9322065827	 0.8890380015	 0.115236
H	 0.6337850627	-0.3108977315	 0.8138884705	 0.146485
H	-0.9543024703	-0.3804198451	 0.0370266188	 0.104881
H	-1.0037343493	-0.7183890459	-2.6013731602	 0.12921
H	 0.1958314036	-1.5515181548	-5.0758823821	 0.253817
H	 1.6883943728	-2.2395437536	-4.8493818477	 0.256765
H	 3.8392967889	-0.6973249058	-0.8078556053	 0.220243
49.2136	59.9983	174.9498	195.9864	214.611	267.3073	307.9534	326.7383	395.5401	534.8458	603.4704	615.7355	645.3427	675.4942	689.1793	731.6407	762.2927	788.535	846.0407	953.258	981.038	1023.5311	1091.4981	1100.6179	1121.2059	1183.5617	1230.9929	1268.2211	1370.3439	1387.484	1400.1321	1410.6437	1445.1738	1479.8502	1491.4539	1504.3173	1630.2967	1734.5148	1790.1356	3039.4611	3043.3672	3097.5015	3113.0955	3129.6534	3292.3782	3514.5481	3550.5883	3624.9666
CCN1C=C(N)OC1=N	CCN1C=C(N)O[C@H]1[NH]	
InChI=1S/C5H9N3O/c1-2-8-3-4(6)9-5(8)7/h3,7H,2,6H2,1H3	InChI=1S/C5H10N3O/c1-2-8-3-4(6)9-5(8)7/h3,5,7H,2,6H2,1H3/t5-/m0/s1
