17
gdb 90550	4.2811	1.11391	1.01891	2.1796	69.56	-0.2467	-0.0357	0.211	1181.7954	0.134073	-458.923892	-458.915676	-458.914732	-458.957264	29.913	
C	 0.4135212856	 1.5382882308	-0.1309978902	-0.407604
C	 0.055624394	 0.0789839783	 0.0210919047	 0.130574
O	 0.8793484866	-0.8175610428	-0.7986276347	-0.314382
C	 1.2047631704	-1.6334472149	 0.3278400791	 0.046482
C	 2.4895819016	-1.1654067518	 1.0701210065	 0.003152
O	 1.7287538668	-0.2298679298	 1.8542963969	-0.280704
C	 0.4817431258	-0.681032573	 1.2962674646	 0.047204
C	 3.1502246308	-2.2511030392	 1.8891994491	 0.135078
O	 2.9675469911	-2.4398591646	 3.0615228314	-0.227989
H	 1.4306910169	 1.725331227	 0.2196014927	 0.138463
H	 0.3358635294	 1.8348103974	-1.1811593388	 0.130959
H	-0.2761509674	 2.1585382717	 0.4512119516	 0.124023
H	-1.0027864841	-0.0986441667	-0.2145534936	 0.084834
H	 1.0283086289	-2.6986448724	 0.1701994348	 0.100853
H	 3.2259740967	-0.6867314991	 0.4113133112	 0.110515
H	-0.2580988247	-0.9303100717	 2.057183076	 0.101292
H	 3.8152735117	-2.9090279194	 1.2803677486	 0.07725
66.1479	102.7175	153.1316	213.5535	261.5357	287.2939	352.4282	392.881	556.4769	665.3522	771.867	798.7693	821.9625	861.7798	888.375	911.6681	950.6793	971.9993	1027.2278	1051.4003	1083.5659	1089.8527	1103.1909	1148.4837	1181.3235	1193.2033	1243.5395	1289.8088	1304.394	1329.3917	1360.4456	1377.3662	1406.6014	1413.1439	1483.6613	1492.6608	1840.2416	2851.6638	3010.823	3033.2614	3044.2195	3096.9508	3112.1651	3116.2948	3137.5513
CC1OC2C(OC12)C=O	C[C@H]1O[C@H]2[C@@H](O[C@@H]12)C=O	
InChI=1S/C6H8O3/c1-3-5-6(8-3)4(2-7)9-5/h2-6H,1H3	InChI=1S/C6H8O3/c1-3-5-6(8-3)4(2-7)9-5/h2-6H,1H3/t3-,4+,5+,6+/m1/s1
