18
gdb 77262	2.15551	1.33144	1.03289	3.0426	80.62	-0.2439	0.0182	0.2621	1234.187	0.144967	-401.895758	-401.886059	-401.885114	-401.930737	34.804	
C	-0.1479680396	 1.5576937836	 0.1000558721	-0.406086
C	-0.0416375159	 0.0517738751	 0.0367449847	-0.067149
C	 0.4002055112	-0.6394439258	-1.211204143	 0.087149
O	 0.6997660561	 0.1769426362	-2.3046627775	-0.185254
C	 1.6950698174	-0.2511714109	-3.1208995251	 0.137421
N	 1.9213709672	 0.3652316162	-4.1963230682	-0.440229
C	 1.3254657012	-0.6459466075	 0.0095174448	-0.27044
C	 2.5409800454	 0.1083799479	 0.0029653454	 0.340663
C	 3.5741600354	 0.7250075509	-0.002186535	-0.45343
H	 0.6180017166	 2.036473161	-0.5108796574	 0.151982
H	-1.1264899541	 1.8847667717	-0.2650542125	 0.125894
H	-0.0338795122	 1.9060039547	 1.1310977568	 0.122997
H	-0.7937705695	-0.4838339731	 0.6091794257	 0.100426
H	-0.0636733428	-1.5852826876	-1.4825796176	 0.109732
H	 2.223494427	-1.1311774567	-2.7357768911	 0.097685
H	 2.7014483607	-0.0688762945	-4.6854757236	 0.230634
H	 1.3830029217	-1.5952526675	 0.5350920395	 0.117163
H	 4.4818309044	 1.2759190962	-0.0067953279	 0.200841
67.4762	112.7374	117.6455	130.3302	157.0596	184.2662	267.6798	345.3232	369.2764	504.9964	563.9671	598.0202	621.2436	656.8556	696.8669	739.2706	791.9427	825.4656	897.2961	963.5134	979.3516	1043.1367	1044.5027	1073.9954	1101.3578	1136.0396	1151.6161	1189.5867	1256.2457	1286.0842	1360.7732	1366.9281	1413.8248	1422.0813	1431.5367	1490.2341	1499.0001	1747.4218	2234.986	3047.013	3053.1599	3107.395	3123.2432	3137.268	3145.2272	3157.5082	3504.1316	3518.203
CC1C(OC=N)C1C#C	C[C@H]1[C@@H](O[CH][NH])[C@H]1C#C	
InChI=1S/C7H9NO/c1-3-6-5(2)7(6)9-4-8/h1,4-8H,2H3	InChI=1S/C7H9NO/c1-3-6-5(2)7(6)9-4-8/h1,4-8H,2H3/t5-,6+,7-/m1/s1
