15
gdb 76785	2.55969	1.53677	1.16397	3.0253	62.76	-0.2575	-0.0561	0.2014	1043.7438	0.110161	-494.857827	-494.849343	-494.848399	-494.891086	30.88	
O	-0.1291379937	 1.4669432325	-0.0303781372	-0.439124
C	-0.0246818001	 0.0671656165	 0.0008726277	 0.010457
C	-1.3977072151	-0.7003764949	 0.0041641558	-0.036757
O	-2.412094241	 0.1029519396	-0.5339221537	-0.42528
C	-0.8074089023	-1.6489624657	-1.0634371636	 0.36028
C	-0.6573962954	-3.115482074	-1.0207795872	-0.255138
O	-1.4990680858	-2.4642482456	-1.9687113558	-0.245264
C	 0.2731295257	-0.6240164836	-1.3517050385	 0.267286
O	 0.9386489393	-0.2853012257	-2.2866695078	-0.30646
H	 0.2819669854	 1.7692748816	-0.8507738516	 0.309087
H	 0.6430372634	-0.2676889437	 0.8038407146	 0.113521
H	-1.6950129818	-1.163232166	 0.9516020522	 0.080723
H	-2.1333086151	 1.0186457869	-0.382099044	 0.294891
H	 0.2411881918	-3.5755754246	-1.4277538474	 0.137526
H	-1.1703866055	-3.6687002432	-0.2355738135	 0.134254
73.789	153.2231	172.9482	227.254	236.753	261.1807	289.9787	410.4438	468.7778	530.4503	561.2323	645.2259	742.0975	792.1472	825.8659	889.998	919.0089	955.0178	1012.1256	1076.0531	1121.9286	1136.2453	1150.258	1166.9447	1179.462	1242.7334	1332.3584	1351.0256	1359.6219	1392.3908	1429.9464	1521.6985	1887.1695	3035.5485	3049.4356	3088.0661	3184.5534	3712.8446	3769.363
OC1C(O)C2(CO2)C1=O	O[C@H]1[C@@H](O)[C@]2(CO2)C1=O	
InChI=1S/C5H6O4/c6-2-3(7)5(1-9-5)4(2)8/h2-3,6-7H,1H2	InChI=1S/C5H6O4/c6-2-3(7)5(1-9-5)4(2)8/h2-3,6-7H,1H2/t2-,3+,5+/m0/s1
