20
gdb 121896	3.83078	0.77182	0.6669	5.3401	72.38	-0.25	0.0205	0.2705	1665.2356	0.170279	-477.446256	-477.436118	-477.435174	-477.482263	35.885	
C	-0.7239754959	 1.3426160227	-0.4060766086	-0.23086
O	-0.8552848173	-0.0590832524	-0.4814366128	-0.237597
C	-0.9465839922	-0.6718688852	 0.7940892053	-0.075369
C	-1.0628720279	-2.1813537458	 0.6362117551	-0.218368
C	-2.2746232143	-2.6218776507	-0.1956781781	-0.12267
N	-2.1668516466	-2.4460151963	-1.6546560404	-0.537078
H	-3.1765993486	-4.0476324264	-1.6815319224	 0.306228
H	-2.1888513889	-1.4535652661	-1.8666854257	 0.25136
H	-1.2493328333	-2.7630907083	-1.9612320948	 0.239505
C	-2.6656364393	-4.0870972652	 0.0986783161	 0.437601
O	-2.5181380777	-4.6146421164	 1.1693151943	-0.342502
O	-3.2259756949	-4.7027327339	-0.9495844673	-0.371093
H	-0.6531869063	 1.722309491	-1.4280955393	 0.129059
H	-1.590916139	 1.8075481245	 0.0886266359	 0.109352
H	 0.1827315976	 1.6343293702	 0.1456429496	 0.111691
H	-0.0580440788	-0.4217782705	 1.3963361305	 0.095148
H	-1.8250732175	-0.2792993286	 1.3356363477	 0.091868
H	-0.1465596685	-2.576582214	 0.1791956762	 0.103664
H	-1.1455875663	-2.6347825315	 1.6283688338	 0.140226
H	-3.1475887543	-2.0347798271	 0.124439815	 0.119837
48.449	81.471	104.3907	118.9613	214.7047	221.093	254.5552	304.8234	312.3599	354.2059	424.4218	509.8798	528.3692	595.66	737.5564	829.8478	847.8165	876.122	913.1121	968.5807	993.2948	1055.7881	1108.9878	1135.1727	1154.3225	1171.1004	1188.8238	1219.9627	1229.3626	1255.0882	1294.8721	1308.6664	1385.6076	1399.4081	1420.8287	1434.8115	1471.7163	1483.3835	1486.1316	1504.019	1527.7818	1671.7079	1865.3361	2951.853	2977.8611	2987.6317	3013.7837	3024.3968	3036.5528	3101.8854	3116.6333	3462.9412	3487.7439	3569.7871
COCCC([NH3+])C([O-])=O	COCC[C@@H](N)C(=O)O	
InChI=1S/C5H11NO3/c1-9-3-2-4(6)5(7)8/h4H,2-3,6H2,1H3,(H,7,8)	InChI=1S/C5H11NO3/c1-9-3-2-4(6)5(7)8/h4H,2-3,6H2,1H3,(H,7,8)/t4-/m1/s1
