25
gdb 92745	2.71885	1.19475	0.99145	0.2428	94.79	-0.2253	0.0365	0.2618	1363.7933	0.229294	-352.393239	-352.383366	-352.382422	-352.427192	38.561	
C	-0.0354283463	 1.5699468117	-0.0302792497	-0.415315
C	 0.0573701398	 0.0413699058	-0.0051180082	 0.037017
C	 0.6760219211	-0.5150754235	-1.2988533474	-0.250063
C	 0.958771163	-1.9913272263	-1.2205251987	-0.148724
C	 0.9515976146	-2.6986420099	-0.0877112304	 0.329993
C	 1.2141659463	-4.1801373421	-0.0612559792	-0.47499
C	 0.6583047099	-2.0512049867	 1.2496042383	-0.310814
C	 0.7927990668	-0.5159266866	 1.2360084949	 0.01923
C	 2.2674336834	-0.0907956314	 1.329001649	-0.398021
H	 0.9503735148	 2.0359362329	-0.1330566094	 0.115006
H	-0.6452115197	 1.9090391689	-0.8748455276	 0.108638
H	-0.4936209892	 1.9556269386	 0.8871298041	 0.10708
H	-0.9692268264	-0.3488847979	 0.0511563603	 0.068475
H	 0.0025430279	-0.3116122583	-2.1424508468	 0.096488
H	 1.6027827579	 0.030003481	-1.5380487337	 0.100488
H	 1.1824077684	-2.4960168601	-2.1590481164	 0.069767
H	 1.3741854969	-4.5826004696	-1.0653318115	 0.116094
H	 2.0972343612	-4.4165798039	 0.5469106417	 0.118762
H	 0.3742646812	-4.7230358385	 0.3926133152	 0.11822
H	-0.3569052176	-2.3355110816	 1.5657653407	 0.099019
H	 1.3255982976	-2.4757682584	 2.0124257323	 0.090582
H	 0.2815571697	-0.1254518126	 2.126229856	 0.060717
H	 2.8585216005	-0.4982704855	 0.5028659116	 0.122841
H	 2.3805818948	 0.9971867229	 1.321663115	 0.111199
H	 2.7100520735	-0.4587852388	 2.2606352797	 0.10831
93.6427	134.7379	187.3078	215.1726	236.7983	264.7731	275.1882	287.2968	347.1594	372.3027	399.0652	451.8115	524.6473	576.9682	677.5737	728.6367	807.125	851.5685	881.1602	910.286	934.7771	950.6787	997.6773	1020.618	1033.6954	1057.3606	1065.1055	1092.4074	1119.5957	1125.9348	1170.1482	1178.6828	1227.8648	1257.2499	1301.7117	1323.3552	1337.5664	1353.5471	1381.1853	1390.057	1401.3378	1410.6875	1412.106	1415.4888	1473.6696	1478.2319	1480.2547	1491.4606	1494.7191	1498.9698	1505.3544	1510.0077	1741.6189	2981.7699	2987.1626	2995.3522	3009.6529	3012.2193	3022.0444	3024.8672	3027.4268	3037.1689	3054.5386	3092.0981	3094.5268	3100.2281	3106.8328	3111.1172	3135.0669
CC1CC=C(C)CC1C	C[C@H]1CC=C(C)C[C@H]1C	
InChI=1S/C9H16/c1-7-4-5-8(2)9(3)6-7/h4,8-9H,5-6H2,1-3H3	InChI=1S/C9H16/c1-7-4-5-8(2)9(3)6-7/h4,8-9H,5-6H2,1-3H3/t8-,9+/m0/s1
