18
gdb 9872	4.83619	1.0385	0.9646	4.2512	72.96	-0.2386	0.0244	0.2631	1230.337	0.153267	-343.972273	-343.963606	-343.962662	-344.005844	31.665	
C	 0.050310314	 1.6201692624	 0.2884552248	-0.433044
C	-0.0322730182	 0.12590952	 0.0474328483	 0.370513
C	 1.2100609094	-0.6037296399	-0.4379144948	-0.303804
C	 0.7059113279	-0.7907761523	 0.9783081575	-0.320892
N	-1.341613057	-0.3131328602	-0.3961710722	-0.348087
C	-1.5986778626	-0.0640032049	-1.8131733237	-0.264632
C	-2.9034450469	-0.5986804013	-2.2092544086	 0.249707
N	-3.921214517	-1.0422685544	-2.5277716755	-0.299347
H	 1.0383679654	 1.8981239666	 0.6657076613	 0.117966
H	-0.1171664435	 2.1919845477	-0.631380253	 0.115509
H	-0.702892358	 1.9298044574	 1.0192235113	 0.13158
H	 1.078184542	-1.4324017484	-1.1264501707	 0.110533
H	 2.1237832703	-0.0395855046	-0.5916028746	 0.116178
H	 1.266982897	-0.3447566775	 1.7921355206	 0.119938
H	 0.2494940303	-1.742757265	 1.2319846586	 0.115462
H	-1.4768322761	-1.2971974583	-0.1954816062	 0.231895
H	-1.6051673519	 1.0168965483	-1.9941076371	 0.15782
H	-0.834844495	-0.4887931857	-2.488386196	 0.132706
52.172	111.6772	133.6621	218.3108	239.2357	331.9962	356.7329	378.7716	412.9255	494.3163	535.0212	717.1578	744.604	782.4056	856.9711	921.0658	943.6019	952.6653	993.6527	1009.124	1041.2019	1063.871	1082.7759	1107.0694	1131.101	1186.6398	1237.5376	1308.1795	1326.7454	1377.0707	1418.1534	1464.4352	1487.4007	1490.8429	1497.2469	1500.0931	1516.3107	2368.0225	2952.2408	3033.4699	3062.7522	3094.9295	3117.816	3125.8622	3130.6402	3204.9263	3219.2886	3543.6127
CC1(CC1)NCC#N	CC1(CC1)NCC#N	
InChI=1S/C6H10N2/c1-6(2-3-6)8-5-4-7/h8H,2-3,5H2,1H3	InChI=1S/C6H10N2/c1-6(2-3-6)8-5-4-7/h8H,2-3,5H2,1H3
