17
gdb 19419	4.09783	1.9938	1.62221	1.7326	73.82	-0.2226	0.0143	0.2369	827.8433	0.144452	-326.693125	-326.686734	-326.68579	-326.723314	26.274	
C	 0.0225258003	 1.5287468499	-0.0242937163	-0.288832
N	 1.2579905611	 0.7325680839	 0.0558784103	-0.369417
C	-0.0505229561	 0.0419715837	 0.002799515	 0.340561
C	-0.4689819186	-0.7638860393	 1.1867679585	-0.136777
C	-0.9981803485	-1.9336210277	 0.813919161	-0.091054
C	-1.0628708047	-2.0630205922	-0.6724150895	-0.085091
C	-1.9513125202	-1.0512346675	-1.3736979788	-0.284094
C	-0.4792544274	-0.7650922177	-1.2044503881	-0.133313
H	-0.2068947372	 2.1044956196	 0.8688806186	 0.115345
H	-0.2289118377	 2.0253788467	-0.9583927951	 0.11058
H	 1.7012928015	 0.686895104	-0.8595324969	 0.227202
H	-0.3546239765	-0.4013830715	 2.2008844206	 0.100459
H	-1.3771426878	-2.6950561588	 1.4855401475	 0.098051
H	-0.884421321	-3.0211841329	-1.1476485306	 0.08903
H	-2.2903337623	-1.2914843093	-2.3764085371	 0.108744
H	-2.6640341541	-0.4993566227	-0.7698372699	 0.115809
H	 0.1485312894	-0.7472235481	-2.0892688292	 0.082799
145.4484	242.1714	323.5076	375.8712	414.4691	521.8252	607.6007	722.8204	769.0468	776.8764	803.4804	850.281	863.0127	890.8215	932.4838	950.3982	970.3858	979.1647	994.5758	1038.8841	1064.5311	1070.1097	1078.0222	1092.2561	1117.6947	1136.5324	1194.3699	1258.0842	1282.7589	1310.5926	1347.3194	1363.6878	1422.0143	1477.5525	1510.065	1655.366	3099.7113	3124.0924	3159.5227	3170.2995	3184.5448	3194.8866	3214.9289	3220.6675	3484.3599
C1NC11C=CC2CC12	C1N[C@]21C=C[C@H]1C[C@@H]21	
InChI=1S/C7H9N/c1-2-7(4-8-7)6-3-5(1)6/h1-2,5-6,8H,3-4H2	InChI=1S/C7H9N/c1-2-7(4-8-7)6-3-5(1)6/h1-2,5-6,8H,3-4H2/t5-,6+,7-/m0/s1
