15
gdb 21961	6.81307	1.10198	1.02554	3.0896	62.87	-0.2587	-0.0019	0.2567	1108.807	0.12033	-395.969262	-395.961759	-395.960815	-396.002219	26.239	
O	 0.0696279421	 1.4071611422	 0.1930876767	-0.404312
C	 0.0142233192	-0.0018293494	 0.2829205795	-0.069873
C	-1.3634932122	-0.5300364596	-0.1494221719	-0.18367
N	-1.45327208	-1.9747552292	-0.0411372774	 0.081837
C	-1.8160835755	-2.7389392577	 1.0173150971	-0.099945
C	-1.6354630947	-4.0288909489	 0.5804356098	-0.065918
N	-1.1750604863	-3.993656991	-0.6998090686	-0.187382
N	-1.0613855319	-2.7510903779	-1.0738920372	-0.152206
H	 0.1446290894	 1.64783559	-0.7357909988	 0.292511
H	 0.7937748986	-0.4948949871	-0.3135399463	 0.122863
H	 0.191581623	-0.2544657596	 1.3333846741	 0.122277
H	-2.1459006686	-0.0759039242	 0.4635670612	 0.134621
H	-1.5529508833	-0.276114652	-1.1956916201	 0.137102
H	-2.1638567993	-2.3155405436	 1.9445977801	 0.145309
H	-1.8127311304	-4.958776602	 1.0957521718	 0.126786
48.1539	93.3789	108.7626	300.1369	326.5886	357.041	375.1853	656.666	717.9492	772.2072	784.0953	787.0483	859.4397	960.432	1025.7274	1043.9494	1053.1044	1085.0339	1093.7313	1138.471	1142.6231	1263.664	1297.3762	1318.9399	1343.3552	1356.4112	1402.024	1418.7406	1476.0666	1498.664	1510.5305	1522.7582	3019.4	3070.6583	3082.4738	3128.2178	3268.9206	3289.9659	3820.6829
OCCN1C=CN=N1	OCCn1ccnn1	
InChI=1S/C4H7N3O/c8-4-3-7-2-1-5-6-7/h1-2,8H,3-4H2	InChI=1S/C4H7N3O/c8-4-3-7-2-1-5-6-7/h1-2,8H,3-4H2
