15
gdb 131052	3.86184	1.15464	0.9466	6.4259	67.17	-0.2558	-0.006	0.2498	1175.3551	0.115223	-450.151026	-450.143267	-450.142323	-450.183983	27.739	
O	 0.9769791511	 1.153312963	 1.4833058287	-0.33971
C	 0.4255174165	 1.4668523443	 0.4420403013	 0.16496
N	 1.029313514	 1.4796837716	-0.7678424783	-0.255963
C	 2.4275572568	 1.0753251266	-0.9368862531	-0.313082
C	 3.4211319137	 2.0593563507	-0.4044189291	 0.343945
C	 4.4175796925	 2.8120823237	-0.9825450843	-0.158549
N	 5.0480624363	 3.5311986045	-0.0126819563	-0.189754
N	 4.4928146779	 3.266119134	 1.1378224523	-0.11203
N	 3.5181855065	 2.3729828192	 0.9112517605	-0.215385
H	-0.6373832946	 1.7658642544	 0.3939270505	 0.101466
H	 0.5189179668	 1.8282826884	-1.5630570032	 0.263015
H	 2.5549497098	 0.1080577121	-0.438827101	 0.154613
H	 2.6048227442	 0.9253855768	-2.0032109894	 0.136593
H	 4.7150896054	 2.8723147123	-2.0174567911	 0.119003
H	 2.9101740031	 2.0358703984	 1.6486358025	 0.300876
81.9752	117.7132	138.5396	227.0736	262.7376	321.514	422.6943	497.6871	652.1986	699.3927	730.2462	777.5764	804.7454	853.6814	945.014	996.8218	1006.0946	1034.8734	1071.1435	1090.6613	1138.2654	1203.8719	1239.9284	1282.8249	1329.2934	1374.7567	1392.0336	1422.9529	1449.1971	1467.193	1521.7824	1604.9471	1778.3541	2974.2106	3053.4973	3123.6741	3264.7512	3578.8273	3644.2393
O=CNCC1=CN=NN1	O=CNCc1cnn[nH]1	
InChI=1S/C4H6N4O/c9-3-5-1-4-2-6-8-7-4/h2-3H,1H2,(H,5,9)(H,6,7,8)	InChI=1S/C4H6N4O/c9-3-5-1-4-2-6-8-7-4/h2-3H,1H2,(H,5,9)(H,6,7,8)
