21
gdb 117154	3.03261	0.75693	0.63156	2.1262	76.29	-0.2648	-0.0267	0.238	1783.5275	0.179269	-461.38022	-461.369231	-461.368287	-461.417387	38.537	
C	-0.0734394154	 1.577206534	-0.0397495901	-0.382609
C	-0.1471955331	 0.0509080394	-0.1182918899	-0.191631
C	 0.8051170564	-0.5167088558	-1.1896669321	 0.057664
O	 2.1244767128	-0.1030543905	-0.953872845	-0.439534
C	 0.7527304882	-2.0460644051	-1.2542772201	 0.348456
O	 1.7777107838	-2.6743866674	-1.0722099112	-0.33465
C	-0.5647477023	-2.7233822136	-1.5528270592	-0.288207
C	-0.4186473915	-4.202554245	-1.8857596075	-0.076862
O	-1.7254154808	-4.7024384872	-2.1221293471	-0.423601
H	 0.9497582755	 1.8977922442	 0.1684089533	 0.144231
H	-0.3862181211	 2.0360493968	-0.9843523217	 0.11328
H	-0.725540101	 1.9590252223	 0.7513757362	 0.111329
H	 0.1247486277	-0.3867975806	 0.8503513783	 0.105588
H	-1.1730190381	-0.2644921606	-0.341776075	 0.099223
H	 0.4689942399	-0.146335971	-2.175819898	 0.085231
H	 2.6365104334	-0.9250009702	-0.8758863958	 0.292013
H	-1.2214354382	-2.6120985095	-0.6797032823	 0.14738
H	-1.073993168	-2.1974935627	-2.3694002817	 0.133147
H	 0.2285845458	-4.3213541871	-2.767358258	 0.100608
H	 0.0745854073	-4.7192046382	-1.0515519883	 0.109155
H	-1.6555216711	-5.6410363722	-2.3188384547	 0.289787
54.4726	60.366	94.1767	107.189	128.7477	206.8576	236.9933	271.6004	292.5163	341.9525	355.9459	417.1337	445.5247	499.3058	569.6116	725.9701	784.0857	788.7779	858.2839	934.0076	997.977	1008.8592	1034.4295	1060.5532	1083.6255	1108.4619	1135.2403	1184.3806	1211.617	1252.0884	1269.1922	1293.9332	1303.4572	1345.3761	1356.9184	1376.6769	1407.0008	1440.6773	1451.1847	1468.773	1476.9574	1495.2481	1509.2327	1525.0929	1779.4621	2937.4105	2993.6972	3026.533	3030.1866	3034.7478	3038.1024	3070.2974	3073.1543	3103.5257	3132.527	3667.0459	3832.7425
CCC(O)C(=O)CCO	CC[C@@H](O)C(=O)CCO	
InChI=1S/C6H12O3/c1-2-5(8)6(9)3-4-7/h5,7-8H,2-4H2,1H3	InChI=1S/C6H12O3/c1-2-5(8)6(9)3-4-7/h5,7-8H,2-4H2,1H3/t5-/m1/s1
