17
gdb 45409	2.67938	1.79481	1.7636	3.9614	73.37	-0.2327	-0.0152	0.2176	888.8187	0.140242	-418.013	-418.00638	-418.005436	-418.043736	27.376	
N	-0.0673048011	 1.2916032677	-0.0275870652	-0.551237
C	-0.0247952404	 0.0299558434	 0.0146790328	 0.466179
O	 1.1274334341	-0.7009295362	 0.0587291966	-0.263678
C	 0.8746933055	-2.1376114533	 0.0311813668	 0.03841
C	 0.0672445543	-2.4339239702	 1.3158902226	-0.168933
N	-1.1928043296	-1.66776381	 1.2617076639	-0.293653
C	-1.2513848167	-0.8598554193	 0.0057872278	-0.14127
C	-1.1091810716	-1.7797366607	-1.1951657202	-0.091077
C	 0.0285024026	-2.4773973611	-1.1666672052	-0.074606
H	 0.8796767239	 1.6772308178	-0.0325983794	 0.218777
H	 1.8569881389	-2.6073405941	 0.0405643245	 0.091904
H	-0.1138208465	-3.5096331864	 1.4097777063	 0.105193
H	 0.6656041204	-2.1107510453	 2.1759398004	 0.120276
H	-1.978585198	-2.3083670901	 1.2457419136	 0.225334
H	-2.1504897635	-0.2482138492	 0.0046198901	 0.101232
H	-1.8756211535	-1.8542631333	-1.9579431383	 0.11029
H	 0.3305313112	-3.2300391695	-1.8845514172	 0.10686
135.2224	230.1163	364.2322	394.5917	428.1832	431.1648	576.6309	619.4781	655.1102	718.5695	733.8448	808.7882	823.1777	854.965	898.184	921.1811	951.7003	957.7467	972.1268	990.9396	1031.361	1064.6061	1069.2973	1101.2108	1145.5093	1220.5057	1264.2771	1281.8707	1287.1354	1314.6932	1362.824	1382.8314	1391.3974	1459.4084	1500.6869	1666.4563	1773.2203	3028.8662	3075.1857	3130.6834	3148.6477	3189.5557	3213.8285	3459.5772	3529.5204
N=C1OC2CNC1C=C2	[NH][C]1O[C@H]2CN[C@@H]1C=C2	
InChI=1S/C6H8N2O/c7-6-5-2-1-4(9-6)3-8-5/h1-2,4-5,7-8H,3H2	InChI=1S/C6H8N2O/c7-6-5-2-1-4(9-6)3-8-5/h1-2,4-5,7-8H,3H2/t4-,5-/m1/s1
