23
gdb 85851	2.08129	1.40399	1.29558	1.5353	80.77	-0.2362	0.0625	0.2987	1182.5228	0.202376	-425.42428	-425.413665	-425.412721	-425.458466	41.189	
C	-0.7842914396	 1.4424389044	 0.1107423968	-0.453485
C	-0.0903677184	 0.0860281972	 0.0061356722	 0.287516
C	-1.0847007226	-0.9669047837	-0.5005549989	-0.424357
C	 1.2481656938	 0.0480460948	-0.7994211604	-0.324568
C	 1.8384942684	-0.8901225388	 0.2805716649	 0.101357
O	 3.1938285402	-0.7955919621	 0.6509533064	-0.439608
C	 0.7153068421	-0.424034731	 1.2605387509	 0.329503
C	 1.1899536831	 0.6595129476	 2.2268936062	-0.466261
O	 0.0259999004	-1.4396514425	 1.9679958782	-0.479497
H	-0.1046045689	 2.2354395062	 0.4349052315	 0.105324
H	-1.1906941009	 1.7362569376	-0.8637361554	 0.112782
H	-1.6212856597	 1.4055601242	 0.8173458361	 0.118513
H	-1.488386572	-0.6578966482	-1.471379283	 0.102502
H	-0.6244865484	-1.9502565195	-0.622528727	 0.118704
H	-1.9184030305	-1.0832600587	 0.1974169772	 0.12422
H	 1.2081973652	-0.3247131665	-1.8256684208	 0.101264
H	 1.751456679	 1.0220145129	-0.8021645863	 0.084021
H	 1.6757598748	-1.9410419941	 0.0282415202	 0.095866
H	 3.4129269145	 0.1356856213	 0.7572015817	 0.278673
H	 1.6847519732	 1.4944171574	 1.7195864317	 0.106304
H	 0.3470250448	 1.0622484525	 2.7945061264	 0.12881
H	 1.9133514311	 0.2336877812	 2.932254948	 0.114872
H	 0.6038799904	-1.7587396121	 2.6697479935	 0.277544
102.5949	196.6978	208.3648	220.0165	227.3979	250.4185	260.6199	271.5506	303.6961	313.381	348.6335	356.5926	406.0934	444.1655	509.6665	552.979	585.5659	689.525	779.7431	850.4979	908.5086	931.7139	959.8426	962.1057	986.9145	1024.5713	1055.4596	1075.1873	1117.9616	1154.6938	1176.0329	1213.089	1227.7825	1247.5852	1279.868	1290.0583	1318.7803	1360.6043	1399.9844	1403.0084	1422.678	1438.1838	1478.4073	1481.5581	1486.4747	1489.7581	1495.2839	1506.301	1509.9688	3025.6393	3028.3561	3034.5153	3039.0503	3078.707	3087.6379	3088.2552	3103.0151	3104.5527	3107.3953	3117.3411	3122.5346	3801.5897	3813.5569
CC1(C)CC(O)C1(C)O	CC1(C)C[C@@H](O)[C@]1(C)O	
InChI=1S/C7H14O2/c1-6(2)4-5(8)7(6,3)9/h5,8-9H,4H2,1-3H3	InChI=1S/C7H14O2/c1-6(2)4-5(8)7(6,3)9/h5,8-9H,4H2,1-3H3/t5-,7+/m1/s1
