19
gdb 94290	2.98467	1.43098	1.1772	2.0697	74.92	-0.2356	0.0665	0.3022	1095.3791	0.15873	-422.953458	-422.945314	-422.94437	-422.986396	30.9	
C	-0.3212279837	 1.4478400584	 0.0463800684	-0.404275
C	 0.0552820752	-0.0213284242	 0.0219053199	 0.079475
O	 1.2680280323	-0.2509069237	-0.752043176	-0.297621
C	 1.9671766858	-0.8105333609	 0.3763676392	-0.152242
C	 0.7275542515	-0.6457838121	 1.2488658968	 0.271669
C	 0.7341467786	-0.3112570679	 2.7189837082	-0.22581
C	-0.6970663366	-0.1228948668	 3.2137649029	-0.091486
O	-1.1224483847	-1.3714251137	 2.6003049656	-0.286127
C	 0.2260625714	-1.6541713953	 2.2162602393	 0.015062
H	 0.4597147581	 2.0479078289	 0.5230349748	 0.117168
H	-0.454314467	 1.8075402798	-0.9787975608	 0.129047
H	-1.2629238701	 1.6011616924	 0.5832319489	 0.120619
H	-0.7733967048	-0.6242201435	-0.3719147262	 0.087362
H	 2.2933237425	-1.8432601544	 0.1935550912	 0.102863
H	 2.8402000753	-0.2071124959	 0.6600920464	 0.100851
H	 1.6356610248	-0.0493166648	 3.2581064179	 0.101992
H	-0.7864371109	-0.1873088548	 4.3039192683	 0.113326
H	-1.2641973652	 0.7391013696	 2.8469915157	 0.111471
H	 0.5847964373	-2.673309411	 2.3172321395	 0.106658
69.9842	150.3486	158.2409	235.2821	246.9638	300.1109	388.7857	444.3361	535.7082	587.7979	779.0534	787.6244	827.1758	868.449	880.0499	940.914	958.9506	997.1322	1002.0474	1019.1743	1030.0561	1047.1403	1077.4428	1090.1134	1119.6706	1144.0024	1155.7367	1163.7137	1175.0697	1238.6922	1246.5555	1284.6575	1328.0796	1358.1215	1379.9017	1403.3099	1452.6124	1485.618	1490.151	1515.8764	1525.4307	2996.0825	3019.433	3031.9239	3034.226	3036.713	3082.0708	3109.4439	3115.2271	3165.9408	3193.4031
CC1OCC11C2COC12	C[C@H]1OC[C@]21[C@H]1CO[C@@H]21	
InChI=1S/C7H10O2/c1-4-7(3-9-4)5-2-8-6(5)7/h4-6H,2-3H2,1H3	InChI=1S/C7H10O2/c1-4-7(3-9-4)5-2-8-6(5)7/h4-6H,2-3H2,1H3/t4-,5+,6-,7+/m1/s1
