23
gdb 120890	5.45057	0.6638	0.64276	1.9512	87.18	-0.2563	0.0771	0.3334	1838.6677	0.204659	-388.268455	-388.258788	-388.257844	-388.30363	36.192	
C	-0.0873435847	 1.5759531522	 0.1624541213	-0.379948
C	-0.0655236526	 0.045743982	 0.116933132	-0.163153
C	-1.4572856435	-0.5713751803	-0.0651604857	-0.18848
C	-1.4489846545	-2.0937759179	-0.099847186	 0.041089
C	-1.1183220798	-2.8670502984	 1.2191266085	-0.328825
C	-2.2642045569	-3.8172649358	 0.8718597028	 0.469407
C	-2.2616597961	-5.2803429287	 0.8394437113	-0.266706
O	-3.0330784241	-4.5497074809	 1.8057201309	-0.272656
C	-2.8206805634	-2.8380107997	-0.1615923947	-0.346429
H	 0.9187326755	 1.987232492	 0.2910655105	 0.111246
H	-0.5023258893	 1.9935307321	-0.7617480067	 0.113485
H	-0.7037074254	 1.9382277164	 0.9927821142	 0.114407
H	 0.5868727933	-0.2883020048	-0.7009000757	 0.093384
H	 0.3841532346	-0.3420317959	 1.0402870529	 0.100179
H	-2.1151847859	-0.234535968	 0.7487937138	 0.090375
H	-1.9050959928	-0.1909618565	-0.9941406124	 0.092727
H	-0.7974208414	-2.4429925472	-0.9086511477	 0.070819
H	-0.1186231323	-3.2922386962	 1.3351221885	 0.102575
H	-1.355853718	-2.271619807	 2.1077906756	 0.109564
H	-2.842150665	-5.8089602495	 0.0836807978	 0.112529
H	-1.4123773934	-5.8317327573	 1.2423388943	 0.112439
H	-3.6287494955	-2.2326859097	 0.2634449451	 0.110051
H	-3.146893389	-3.2384698409	-1.1245700507	 0.101919
51.4049	85.8434	97.3392	150.8756	245.4263	279.7544	301.2196	321.6062	365.9313	425.4701	440.5379	555.4525	738.0613	745.9736	820.1638	841.2274	863.736	886.942	887.794	901.7863	966.8345	976.3064	1025.4271	1041.3435	1048.3288	1091.179	1125.7994	1132.204	1151.9848	1177.5096	1198.1174	1217.4876	1220.8588	1253.4848	1263.5349	1282.6175	1313.4849	1331.8271	1372.4611	1398.199	1414.9158	1436.2543	1465.5256	1480.6133	1491.0858	1495.3598	1500.4467	1510.5115	1537.9625	2999.3491	3015.7927	3024.9409	3029.6077	3041.2119	3044.3406	3049.9087	3056.4551	3074.948	3095.8495	3101.5656	3104.6236	3107.1854	3160.9067
CCCC1CC2(CO2)C1	CCC[C@H]1C[C@]2(CO2)C1	
InChI=1S/C8H14O/c1-2-3-7-4-8(5-7)6-9-8/h7H,2-6H2,1H3	InChI=1S/C8H14O/c1-2-3-7-4-8(5-7)6-9-8/h7H,2-6H2,1H3/t7-,8+
