20
gdb 85362	2.91613	1.32308	1.0556	4.3029	81.47	-0.2369	-0.0312	0.2058	1194.0799	0.172284	-403.204676	-403.195995	-403.195051	-403.237626	33.78	
C	-0.1183761291	 1.5463135583	-0.1182377683	-0.390793
C	 0.0116269168	 0.0198945385	 0.0166771018	 0.003506
N	 0.6990119047	-0.566209777	-1.1377689117	-0.335539
C	 2.0675196082	-0.5449890378	-1.2908077868	 0.387949
O	 2.6076949569	-0.7408250176	-2.3666149875	-0.382493
C	 2.8304286491	-0.3154378109	-0.0374037665	-0.162297
C	 2.2283763508	-0.2802920708	 1.1526508547	-0.061809
C	 0.7353320951	-0.4534199415	 1.2985277125	-0.022705
C	 0.1964763412	 0.1952050246	 2.5801177035	-0.415811
H	 0.8604702254	 2.0329382704	-0.0760742422	 0.130583
H	-0.5761541389	 1.7943072374	-1.0807824591	 0.116181
H	-0.7509192794	 1.9671944077	 0.668598674	 0.118757
H	-0.9980943574	-0.4068937525	 0.0337939447	 0.087006
H	 0.2020039297	-0.5840384758	-2.0176926853	 0.240506
H	 3.9033751618	-0.2255344603	-0.1604250098	 0.11279
H	 2.811138078	-0.1577276057	 2.0633706346	 0.101538
H	 0.5486150209	-1.5360594871	 1.3730395947	 0.10505
H	 0.4167461132	 1.2658911492	 2.6185162228	 0.128206
H	-0.8877199742	 0.0680999605	 2.6622357276	 0.118421
H	 0.6538684571	-0.2687528697	 3.4595537864	 0.120955
95.4869	132.761	229.3663	237.0485	265.6299	310.1972	344.9771	416.2743	420.8527	458.2845	549.8932	580.4339	612.9945	699.1389	752.6677	776.1807	842.1885	876.659	919.9518	967.18	1007.4803	1020.1665	1040.5915	1097.9611	1107.6352	1137.7305	1160.4924	1208.7732	1285.6076	1314.0303	1327.5614	1372.0998	1382.3984	1406.9768	1408.5779	1423.5563	1458.2409	1490.6125	1498.7835	1499.7023	1515.9323	1688.721	1780.4139	2981.4913	3032.3476	3038.7843	3042.3672	3105.0503	3110.2308	3116.5561	3121.8835	3147.5718	3208.9906	3596.3423
CC1NC(=O)C=CC1C	C[C@H]1NC(=O)C=C[C@H]1C	
InChI=1S/C7H11NO/c1-5-3-4-7(9)8-6(5)2/h3-6H,1-2H3,(H,8,9)	InChI=1S/C7H11NO/c1-5-3-4-7(9)8-6(5)2/h3-6H,1-2H3,(H,8,9)/t5-,6-/m1/s1
