16
gdb 131142	3.7613	1.26792	1.03231	3.511	71.04	-0.2367	-0.0013	0.2354	1124.7969	0.125399	-434.047802	-434.040088	-434.039144	-434.080341	29.498	
O	 0.0833764373	 1.3687888052	 0.2630136797	-0.458589
C	-0.0037678477	-0.0194296288	 0.0689971535	 0.292034
C	-0.6995873271	-0.8520643454	 1.1214617318	-0.323296
C	-1.3939983785	-0.5413476016	-0.1821402753	-0.285051
C	 1.1374383486	-0.5911205559	-0.6778273741	 0.281735
C	 2.1560370833	 0.0704878001	-1.3239745115	-0.196473
N	 2.9123382258	-0.9290127533	-1.8406284794	-0.157516
N	 2.4079554668	-2.137480348	-1.5437757431	-0.108421
N	 1.3330645315	-1.9339727842	-0.8368020852	-0.27526
H	 0.7177194641	 1.5243130764	 0.9722203526	 0.282766
H	-0.3331200879	-1.8593943709	 1.280322771	 0.141182
H	-1.0366455914	-0.3226271111	 2.0058283414	 0.112488
H	-2.1857252168	 0.1985926775	-0.168931654	 0.124482
H	-1.5026185455	-1.3391461504	-0.9072193486	 0.133664
H	 2.3788417203	 1.1139014976	-1.4595319233	 0.153897
H	 3.7570358472	-0.8685114171	-2.3862667554	 0.282357
61.0396	161.6655	178.2896	318.1737	326.0948	356.0732	457.2047	499.9157	543.6169	573.233	698.5012	745.3861	778.06	797.0184	870.3129	908.2214	932.7065	986.66	990.2596	1024.456	1053.9476	1062.3576	1083.4767	1128.6647	1192.6525	1198.1601	1257.1988	1286.9072	1319.154	1362.5975	1373.0107	1443.5467	1483.0455	1493.8184	1598.6935	3137.3974	3143.3127	3230.0897	3243.7784	3298.3246	3659.2892	3787.4203
OC1(CC1)C1=CNN=N1	OC1(CC1)c1c[nH]nn1	
InChI=1S/C5H7N3O/c9-5(1-2-5)4-3-6-8-7-4/h3,9H,1-2H2,(H,6,7,8)	InChI=1S/C5H7N3O/c9-5(1-2-5)4-3-6-8-7-4/h3,9H,1-2H2,(H,6,7,8)
