19
gdb 64588	3.63281	1.14752	1.11599	2.7589	76.65	-0.2488	-0.0193	0.2295	1157.3847	0.159235	-423.032204	-423.023785	-423.022841	-423.065128	31.654	
C	-0.0553955443	 1.5788450324	 0.0801006512	-0.485349
C	 0.0313003207	 0.0667232116	 0.0741667306	 0.216236
C	-1.2205454128	-0.6241167706	-0.3421236277	 0.125498
O	-2.2420402886	-0.0662338233	-0.6572162229	-0.269859
C	 1.2875566292	-0.7149029912	-0.3273630966	-0.115536
C	 2.608234759	 0.0326396196	-0.3248761618	-0.105514
O	 2.7021487111	 0.6794973901	 0.9419165667	-0.251166
C	 1.8997039011	-0.0178194102	 1.8915739134	-0.105595
C	 0.8321001418	-0.7470942985	 1.0970301234	-0.115581
H	 0.8816773134	 2.0385612587	 0.3928249246	 0.14373
H	-0.3139706579	 1.9431396789	-0.9184446233	 0.130319
H	-0.8535727175	 1.9055474484	 0.7530217838	 0.130372
H	-1.1517701615	-1.7385017466	-0.344817673	 0.06173
H	 1.1816989361	-1.5708783897	-0.9847390946	 0.099502
H	 3.4315122729	-0.6852011385	-0.467272609	 0.102654
H	 2.6928374797	 0.8073560576	-1.0941784616	 0.118216
H	 2.4972489439	-0.7518580737	 2.4550453261	 0.102663
H	 1.5125470212	 0.7232716411	 2.5987234391	 0.118205
H	 0.3757877127	-1.6278968661	 1.5352438314	 0.099475
100.8835	156.1463	191.5135	197.266	227.2643	288.2874	305.6268	376.7073	445.8007	566.0857	673.2985	737.875	762.3895	804.0373	873.0108	922.0895	953.8873	987.5125	1003.1183	1008.1307	1040.5975	1043.9502	1108.8021	1114.1382	1118.3617	1132.1655	1189.5249	1224.9498	1242.5414	1317.2458	1326.4651	1355.3752	1364.7744	1406.9959	1431.1183	1442.7571	1493.3198	1499.4194	1513.871	1523.3757	1818.8556	2841.9319	2978.9828	2984.3799	3053.1542	3066.0922	3069.0807	3110.0222	3157.8114	3168.9373	3176.2372
CC1(C=O)C2COCC12	C[C@@]1(C=O)[C@H]2COC[C@@H]12	
InChI=1S/C7H10O2/c1-7(4-8)5-2-9-3-6(5)7/h4-6H,2-3H2,1H3	InChI=1S/C7H10O2/c1-7(4-8)5-2-9-3-6(5)7/h4-6H,2-3H2,1H3/t5-,6+,7+
