14
gdb 28164	5.32542	1.3124	1.05987	1.5604	70.01	-0.2124	0.0016	0.214	1066.0705	0.102624	-436.713988	-436.707122	-436.706177	-436.745334	25.928	
C	 0.0958724458	 1.4348880625	 0.0515645408	-0.488225
C	-0.0755403989	-0.0379062721	-0.0014400711	 0.3516
C	-1.14624774	-0.8501045494	-0.2480142495	-0.408448
C	-0.6400304412	-2.1934803836	-0.1490982854	 0.19968
C	 0.6711292758	-2.0429852087	 0.1442860217	 0.38971
O	 1.2978846343	-3.221222656	 0.2718064802	-0.209701
C	 0.2436599108	-4.1020348449	 0.0282156317	 0.032313
N	-0.9047557411	-3.5602214479	-0.2218834529	-0.333676
O	 1.0926083955	-0.7856483901	 0.2509187067	-0.239401
H	 0.825278861	 1.7847915116	-0.687888028	 0.142622
H	-0.8608229599	 1.9189513592	-0.15685975	 0.141461
H	 0.4407183636	 1.7676449407	 1.037277516	 0.142613
H	-2.1452293475	-0.5080333531	-0.4668713385	 0.124544
H	 0.5035479518	-5.1466138282	 0.0754811483	 0.154907
135.9902	141.8869	250.4535	278.9236	355.2365	507.4767	559.5592	616.8414	631.7953	745.8111	764.0082	783.1143	810.8186	813.2404	888.4243	938.7946	1014.4987	1027.4201	1064.8443	1136.3035	1176.1579	1224.54	1306.6913	1411.7061	1437.433	1468.7574	1483.9823	1513.7452	1524.5523	1598.8407	1642.7556	3029.2791	3079.6976	3129.977	3262.3045	3291.0448
CC1=CC2=C(OC=N2)O1	Cc1cc2c(ocn2)o1	
InChI=1S/C6H5NO2/c1-4-2-5-6(9-4)8-3-7-5/h2-3H,1H3	InChI=1S/C6H5NO2/c1-4-2-5-6(9-4)8-3-7-5/h2-3H,1H3
