20
gdb 85341	1.82544	1.72618	0.91834	4.1268	85.02	-0.219	-0.0439	0.1751	1291.6171	0.170445	-403.178154	-403.169111	-403.168167	-403.211754	33.849	
C	-0.0092007301	 1.4696836172	 0.0590104034	-0.311462
N	 0.0139352829	 0.0189146688	 0.022564144	-0.082457
C	-1.309128958	-0.5527222232	-0.1748208053	-0.264706
C	-1.2607248854	-2.0729118346	-0.3019899365	 0.372322
O	-2.102837634	-2.6798787262	-0.9337030664	-0.333658
C	-0.1866076603	-2.7420560445	 0.4438043005	-0.241001
C	 0.7104119901	-2.0534540098	 1.1658618728	 0.292121
C	 1.7571351054	-2.710621395	 2.0153335632	-0.477411
C	 0.6978253028	-0.5463424491	 1.171173332	-0.225914
H	 1.0131911456	 1.8555233098	 0.1283854251	 0.118742
H	-0.4558319147	 1.8535641368	-0.8631533398	 0.125108
H	-0.5863294803	 1.8758313509	 0.912365197	 0.093305
H	-2.0074552554	-0.3113084524	 0.6566277626	 0.09375
H	-1.7536815594	-0.1501116569	-1.088898068	 0.127369
H	-0.1872738102	-3.827761074	 0.4155291302	 0.098715
H	 1.6462630458	-3.7969691229	 2.0249727036	 0.135718
H	 2.7631287263	-2.4661216788	 1.6516408537	 0.138924
H	 1.7038560012	-2.34796683	 3.0496843295	 0.136221
H	 1.7312207498	-0.1756124466	 1.1785785431	 0.112732
H	 0.2544270678	-0.2109208294	 2.1370213155	 0.091583
104.1453	141.8231	147.3085	197.3382	240.3502	272.6998	308.0838	352.7887	429.5855	440.1787	495.381	526.7379	559.6608	623.6993	854.0247	876.6053	907.8094	914.3833	984.1685	1010.402	1037.8023	1072.5537	1078.5793	1141.8352	1153.253	1183.7641	1213.4149	1264.1602	1289.7275	1296.0123	1343.687	1367.6665	1409.7975	1416.3138	1456.2629	1469.8548	1477.7307	1479.9677	1482.6166	1498.8846	1505.9112	1699.8703	1779.4557	2841.0334	2866.7037	2922.5218	3020.8895	3030.2006	3059.2483	3069.8583	3090.4783	3105.555	3126.5946	3177.3059
CN1CC(=O)C=C(C)C1	CN1CC(=O)C=C(C)C1	
InChI=1S/C7H11NO/c1-6-3-7(9)5-8(2)4-6/h3H,4-5H2,1-2H3	InChI=1S/C7H11NO/c1-6-3-7(9)5-8(2)4-6/h3H,4-5H2,1-2H3
