17
gdb 131814	5.72117	0.66841	0.63721	1.5639	70.05	-0.2698	-0.023	0.2468	1702.4841	0.136209	-455.142292	-455.133525	-455.132581	-455.177301	30.404	
O	-0.0946331644	 1.4396273362	-0.135799474	-0.420061
C	 0.0059383878	 0.0288370044	-0.0353690846	-0.07438
C	-1.4089064514	-0.534543933	-0.0072999489	-0.169675
C	-1.4205713047	-2.0677466932	 0.1087567483	-0.318266
C	-2.8039187102	-2.6265218894	 0.0711287586	 0.375187
N	-3.3357457988	-3.2648404489	 1.0806570915	-0.176726
O	-4.6207328095	-3.5963808449	 0.6225250877	-0.15248
C	-4.7031271525	-3.1122829712	-0.6156443506	 0.107408
N	-3.6375994335	-2.5064325942	-1.0277307517	-0.303688
H	 0.7943771876	 1.8057338739	-0.1469330067	 0.287128
H	 0.5570632711	-0.3959239527	-0.8910048509	 0.086467
H	 0.5449923755	-0.2704670887	 0.8788495877	 0.086579
H	-1.9484927214	-0.0922197602	 0.8373076911	 0.118025
H	-1.9329349432	-0.228609709	-0.9182806375	 0.132071
H	-0.8533349306	-2.5033986233	-0.7230368679	 0.126661
H	-0.9436936441	-2.3916997438	 1.0385032712	 0.130033
H	-5.6314145276	-3.2706459123	-1.1452101632	 0.165715
48.2546	79.8428	93.0731	127.6158	251.8364	256.3029	322.9863	341.8685	471.593	633.0663	708.702	760.6497	791.2475	870.8441	906.3235	907.0964	983.7454	997.3738	1023.9542	1039.1	1086.1229	1109.8456	1150.9589	1210.7499	1233.1849	1290.1979	1299.6454	1309.1949	1316.0052	1364.4938	1385.3958	1465.7996	1474.8284	1500.2677	1524.6803	1529.5167	1605.5676	2956.2467	2982.1093	3034.8667	3052.4931	3086.7369	3108.1051	3264.9627	3831.5624
OCCCC1=NOC=N1	OCCCc1nocn1	
InChI=1S/C5H8N2O2/c8-3-1-2-5-6-4-9-7-5/h4,8H,1-3H2	InChI=1S/C5H8N2O2/c8-3-1-2-5-6-4-9-7-5/h4,8H,1-3H2
