15
gdb 128189	4.46857	0.95988	0.79494	7.9419	76.38	-0.2241	-0.0196	0.2045	1361.5313	0.114745	-413.016002	-413.007695	-413.006751	-413.049225	29.996	
C	-0.074735047	 1.4174115981	 0.0876289127	-0.330592
N	-0.0991716546	-0.0329152897	-0.0422694066	-0.403549
C	 0.5961630971	-0.590696196	-1.0965102313	 0.469802
C	 1.2216916511	-0.0284561536	-2.1946472822	-0.387785
C	 1.6860395697	-1.143762638	-2.938336979	 0.257593
N	 1.386470848	-2.3069235866	-2.360126351	-0.284329
N	 0.7205472974	-1.9403782792	-1.2450818114	-0.276419
C	 2.4071310635	-1.1041271113	-4.1652419792	 0.240685
N	 2.9914829175	-1.0259630381	-5.1609454088	-0.343457
H	 0.9386677254	 1.828434449	 0.2051243567	 0.127122
H	-0.5277458468	 1.8685095698	-0.7999153112	 0.149612
H	-0.6740306229	 1.7030051461	 0.9542272359	 0.135806
H	 0.0323237417	-0.5160293362	 0.8356374278	 0.244209
H	 1.3434413192	 1.0143893396	-2.4281772994	 0.124077
H	 0.3407771408	-2.6592898438	-0.6517835331	 0.277224
93.614	128.6188	135.0327	195.0062	236.2014	316.5041	420.9441	475.466	501.2697	542.7129	575.0827	604.5268	692.5704	719.4618	754.9839	781.1441	1003.6122	1026.2869	1088.6095	1149.871	1160.1766	1180.045	1201.0705	1299.4799	1432.7479	1437.2145	1454.4021	1474.8217	1486.1945	1513.742	1536.3871	1637.9348	2356.5048	2997.6901	3086.2113	3133.111	3292.3997	3580.1999	3665.5879
CNC1=CC(=NN1)C#N	CNc1cc(n[nH]1)C#N	
InChI=1S/C5H6N4/c1-7-5-2-4(3-6)8-9-5/h2H,1H3,(H2,7,8,9)	InChI=1S/C5H6N4/c1-7-5-2-4(3-6)8-9-5/h2H,1H3,(H2,7,8,9)
