20
gdb 36368	4.32528	0.76604	0.69857	4.2834	84.72	-0.2643	0.0376	0.3018	1619.0548	0.170976	-366.001363	-365.992224	-365.99128	-366.03645	33.663	
N	 0.048496453	-1.1060600277	-0.6381222361	-0.307389
C	 0.0357258239	-0.0252067992	-0.2295839495	 0.26332
C	 0.0364365304	 1.3436952335	 0.2908041266	-0.363749
C	 1.398841006	 2.008465228	 0.1601228423	-0.005114
C	 1.8034782377	 2.6960286476	-1.1202586933	-0.301242
C	 1.5416982314	 3.5157189597	 0.1215810177	-0.026672
C	 0.3745578599	 4.4498386669	 0.2059490987	 0.022643
C	 0.0621291057	 5.1640537022	 1.5006207204	-0.270483
C	 0.6119337569	 5.9359244225	 0.3277052445	-0.279389
H	-0.7296313886	 1.912287142	-0.2456355184	 0.147993
H	-0.2788360234	 1.3123218263	 1.3407755051	 0.153865
H	 2.1845206817	 1.4725966884	 0.684208631	 0.103624
H	 2.8206206169	 2.5777677944	-1.4758875519	 0.12044
H	 1.0623439923	 2.7493063331	-1.91233842	 0.117775
H	 2.4250981054	 3.8912398907	 0.6333645308	 0.086715
H	-0.483835695	 4.1692469656	-0.3981647478	 0.079947
H	-0.9771722248	 5.3094057704	 1.7738160578	 0.113963
H	 0.7215886649	 4.9873752095	 2.3440521244	 0.113528
H	 1.6403209437	 6.2779218982	 0.38205043	 0.115055
H	-0.050661258	 6.6085384079	-0.2052764422	 0.11517
46.899	56.3533	108.1357	164.6672	229.2465	292.7567	334.2343	388.9669	410.6212	506.6622	573.2913	738.3857	796.8873	811.6675	824.1487	858.3602	875.6772	915.7737	939.0648	952.1414	991.7454	1033.7333	1039.468	1061.8802	1072.5761	1080.0396	1123.8752	1142.7072	1154.923	1198.9315	1211.5219	1222.1147	1250.2941	1257.0653	1313.9515	1323.9893	1407.508	1451.9536	1461.3024	1470.2535	1494.5769	1509.1665	2361.5823	3041.8067	3085.3466	3124.928	3129.2672	3130.2932	3135.1874	3141.8153	3153.726	3208.7554	3215.5299	3224.0658
N#CCC1CC1C1CC1	N#CC[C@H]1C[C@H]1C1CC1	
InChI=1S/C8H11N/c9-4-3-7-5-8(7)6-1-2-6/h6-8H,1-3,5H2	InChI=1S/C8H11N/c9-4-3-7-5-8(7)6-1-2-6/h6-8H,1-3,5H2/t7-,8-/m0/s1
