16
gdb 42568	3.32949	1.5716	1.30243	3.1075	73.09	-0.2423	-0.014	0.2283	978.9981	0.124852	-400.68428	-400.677438	-400.676494	-400.715475	27.361	
O	 0.0546786571	 0.0885246302	 0.1249957913	-0.332963
C	 0.0204453942	 1.2841525198	 0.1336536681	 0.480446
C	-1.060012626	 2.3180657369	 0.0875695725	-0.201001
C	-0.4583393519	 3.5768874626	 0.6542079684	-0.12546
N	-0.1452444909	 3.2148444671	-0.752694448	-0.14522
C	 1.0445376977	 2.4012166645	-0.1092005864	-0.248349
C	 0.9412642593	 3.2855623706	 1.1298018414	 0.412454
C	 1.9337870764	 4.304729682	 1.5927998584	-0.34157
C	 1.5423430075	 3.1454090308	 2.4916466694	-0.339909
H	-2.1156074614	 2.2091900127	-0.1265833089	 0.124817
H	-1.0890805985	 4.4277765087	 0.8917976595	 0.110851
H	 1.9685512608	 2.2356134644	-0.6577939944	 0.109191
H	 2.9234661801	 4.2964274332	 1.1484227003	 0.123899
H	 1.5672104708	 5.2943771158	 1.8469627119	 0.121879
H	 0.9156505009	 3.3544631584	 3.3521736767	 0.122936
H	 2.2682478539	 2.3548596822	 2.6507050396	 0.128
116.8755	197.9085	246.6541	295.2646	438.2001	487.101	578.3414	621.2509	717.5288	749.4134	769.3699	813.4013	829.2995	865.6879	893.046	926.9153	963.506	987.0154	999.4948	1020.6558	1042.9882	1058.272	1080.7256	1092.5369	1133.8738	1160.2534	1173.8113	1185.8772	1253.5223	1281.7222	1302.5753	1422.5881	1462.7763	1511.6385	1896.6834	3127.0677	3132.8008	3160.6985	3167.6167	3207.348	3209.5908	3221.8018
O=C1C2C3N2C1C31CC1	O=C1[C@H]2[C@@H]3N2[C@H]1C13CC1	
InChI=1S/C7H7NO/c9-4-3-5-7(1-2-7)6(4)8(3)5/h3,5-6H,1-2H2	InChI=1S/C7H7NO/c9-4-3-5-7(1-2-7)6(4)8(3)5/h3,5-6H,1-2H2/t3-,5-,6+,8?/m0/s1
