16
gdb 24370	3.69559	1.63528	1.15776	2.5298	81.14	-0.1733	-0.0077	0.1656	1007.0854	0.127645	-400.785922	-400.779102	-400.778158	-400.816903	27.52	
C	 0.0275966483	 1.4640429196	 0.1066327575	-0.143162
O	 1.3404877508	 2.0568130906	 0.0805384242	-0.283908
C	 2.1601066553	 1.4624936659	-0.8255447019	 0.350126
C	 2.001987682	 0.139862389	-1.2100091713	 0.190431
N	 3.0596457385	-0.1586715526	-2.0437921552	-0.354851
C	 3.8553520498	 0.9459895574	-2.1844462161	-0.067129
C	 3.3314142113	 1.9766785561	-1.4228457194	-0.30153
C	 0.9956872966	-0.6861711761	-0.603833475	-0.154611
C	 0.0503759283	-0.0479724384	 0.1083258013	-0.121086
H	-0.4509388659	 1.8615050264	 1.0046276533	 0.116095
H	-0.53412409	 1.8370375689	-0.7700113488	 0.099033
H	 3.1879995605	-1.028277216	-2.5301849802	 0.26082
H	 4.7167085424	 0.9289301747	-2.8324129225	 0.121796
H	 3.7385094448	 2.9694534641	-1.3190830526	 0.103422
H	 1.0442649	-1.7691128777	-0.662901049	 0.089401
H	-0.7157463127	-0.5781690919	 0.6614773157	 0.095153
152.8597	167.041	335.2465	398.1127	411.5592	439.9157	526.7236	595.8968	628.9907	662.2504	695.6028	716.9713	750.1666	811.0974	824.3055	918.817	923.3626	951.6619	1018.3796	1028.7794	1080.9882	1126.5988	1172.9811	1204.1449	1260.7493	1279.8664	1323.3233	1379.3019	1408.4672	1447.0544	1483.9739	1489.1665	1545.7971	1599.275	1660.8683	2922.4112	3097.0442	3171.7813	3202.8459	3256.8424	3274.4945	3683.8628
C1OC2=C(NC=C2)C=C1	C1Oc2c([nH]cc2)C=C1	
InChI=1S/C7H7NO/c1-2-6-7(9-5-1)3-4-8-6/h1-4,8H,5H2	InChI=1S/C7H7NO/c1-2-6-7(9-5-1)3-4-8-6/h1-4,8H,5H2
