17
gdb 48244	1.88939	1.46064	0.89714	2.9617	70.	-0.2593	-0.059	0.2004	1257.0016	0.133114	-458.943699	-458.934415	-458.93347	-458.979704	31.22	
O	 0.111174822	-0.070040548	 0.4064040163	-0.241236
C	 0.0977823257	 1.0508994715	-0.0304930098	 0.149847
C	 1.324203898	 1.938859988	-0.1197721509	-0.182562
C	 1.3213844658	 2.8069886443	-1.3634778651	 0.149895
O	 2.3099171958	 3.0846999903	-1.9905339609	-0.241225
C	 1.3339589107	 2.8727392518	 1.1194959483	-0.061304
C	 1.6573996228	 2.176838544	 2.4629388266	-0.090294
O	 2.9415339633	 2.8257591168	 2.5342222187	-0.267558
C	 2.6649916437	 3.6219600755	 1.3660229743	-0.090277
H	-0.8535401676	 1.527212919	-0.3632274897	 0.087709
H	 2.2256193702	 1.3201896358	-0.1072609993	 0.13206
H	 0.3256317457	 3.2206577056	-1.6463520429	 0.087664
H	 0.4407399731	 3.5029253729	 1.1292418145	 0.092452
H	 1.0018853956	 2.4645779884	 3.2947353982	 0.107802
H	 1.739727409	 1.0851541156	 2.430299512	 0.129639
H	 3.4299391352	 3.5092927616	 0.5902663266	 0.129588
H	 2.5508936708	 4.6862038371	 1.6084096832	 0.107801
45.6664	64.0248	77.7132	88.5504	198.1624	218.9498	273.927	364.3262	387.9476	468.9896	580.1881	780.5467	849.4794	877.2846	946.8059	950.536	996.1776	997.3227	1044.3458	1073.3883	1102.0557	1107.0687	1148.2511	1162.994	1172.9584	1248.3843	1254.4535	1257.6525	1311.0567	1353.1498	1382.2166	1424.5554	1437.1847	1513.3025	1538.601	1812.0053	1845.1796	2851.497	2872.5998	3013.6543	3021.88	3067.9562	3074.3264	3079.2259	3093.83
O=CC(C=O)C1COC1	O=CC(C=O)C1COC1	
InChI=1S/C6H8O3/c7-1-5(2-8)6-3-9-4-6/h1-2,5-6H,3-4H2	InChI=1S/C6H8O3/c7-1-5(2-8)6-3-9-4-6/h1-2,5-6H,3-4H2
