21
gdb 118004	3.49073	0.76801	0.65908	3.9364	80.27	-0.2695	0.0277	0.2972	1721.3681	0.181074	-420.416627	-420.405649	-420.404705	-420.453216	38.992	
C	-0.1382133589	 1.5939301429	-0.0089355887	-0.383066
C	-0.0016696797	 0.0695975995	 0.0158801087	-0.171305
C	 0.7041861931	-0.4845957728	-1.2262589884	-0.191631
C	 0.7737526693	-2.0127196038	-1.2464520528	 0.140388
O	-0.5076566143	-2.6166353327	-1.2673181327	-0.418776
C	 1.6380887805	-2.5279000929	-2.4300528402	-0.178964
N	 3.0248653575	-2.0784746071	-2.2911133932	-0.496459
C	 1.520177546	-3.9964694985	-2.5598139004	 0.272806
N	 1.5156431214	-5.1470965275	-2.672618866	-0.324909
H	 0.8415433395	 2.0806007238	-0.070151648	 0.115782
H	-0.7249522652	 1.9259453258	-0.8729503074	 0.112528
H	-0.6376646692	 1.9622556843	 0.8923056551	 0.115515
H	 0.5578036884	-0.234927786	 0.9100863379	 0.09828
H	-0.9898340622	-0.3951412797	 0.10412021	 0.108656
H	 0.1756104229	-0.150466086	-2.1338678001	 0.07962
H	 1.7213861738	-0.0873740148	-1.3019222208	 0.12591
H	 1.237099368	-2.3721926283	-0.3182330815	 0.098508
H	-1.0120778975	-2.2301560796	-1.9924393347	 0.283314
H	 1.2376719917	-2.0859916553	-3.3521792302	 0.120323
H	 3.4675543272	-2.5711332214	-1.5197994084	 0.244987
H	 3.5546297377	-2.3187237799	-3.1232579382	 0.248492
49.7762	86.5775	92.2537	124.432	181.9031	239.823	245.385	256.6331	275.9635	304.224	341.5503	386.8295	428.1027	484.8096	602.8464	611.9034	751.8078	848.1693	860.0995	894.8672	931.1084	964.6369	1014.3712	1050.2969	1092.3702	1114.3294	1125.0641	1146.9319	1172.307	1241.8405	1279.4402	1300.7586	1321.4356	1349.4089	1372.0751	1390.0672	1396.6309	1413.6487	1416.9665	1485.3567	1495.3415	1499.857	1512.2846	1663.7407	2347.571	2982.9527	3021.2931	3025.7319	3029.7778	3040.7937	3063.0214	3085.8547	3099.0858	3104.563	3494.5602	3573.5174	3795.2041
CCCC(O)C(N)C#N	CCC[C@@H](O)[C@@H](N)C#N	
InChI=1S/C6H12N2O/c1-2-3-6(9)5(8)4-7/h5-6,9H,2-3,8H2,1H3	InChI=1S/C6H12N2O/c1-2-3-6(9)5(8)4-7/h5-6,9H,2-3,8H2,1H3/t5-,6+/m0/s1
