18
gdb 62766	3.54543	1.18953	1.15946	3.3486	71.83	-0.2296	0.0278	0.2574	1116.868	0.147619	-439.115442	-439.107034	-439.106089	-439.148123	32.701	
C	-0.0900265849	 1.57951778	 0.075755773	-0.470565
C	 0.0139475014	 0.0767038861	-0.0207453446	 0.368927
O	-1.1332729734	-0.6128879788	 0.408690093	-0.458101
C	 0.6618487055	-0.6491361837	-1.1763563854	-0.095945
C	 1.6221095829	 0.0730792419	-2.1031523459	-0.362433
C	 2.7795510407	 0.5439830017	-1.2014484441	 0.383986
O	 3.6989892088	 1.2676444897	-1.5086091245	-0.371677
N	 2.5565087341	 0.0132345703	 0.0499509081	-0.291082
C	 1.3163537179	-0.683922563	 0.1971430497	-0.106551
H	 0.8231387338	 2.0865307399	-0.2422277483	 0.141643
H	-0.9182692795	 1.9399005256	-0.5423236359	 0.133644
H	-0.2883848759	 1.8806090839	 1.1120611876	 0.109886
H	-1.2569234025	-0.4248294452	 1.3462734328	 0.28182
H	 0.1325309418	-1.5245474997	-1.5302864245	 0.109036
H	 2.0176730948	-0.5938015705	-2.8755184934	 0.135807
H	 1.1976107241	 0.9410515559	-2.6154390374	 0.135808
H	 3.1082747843	 0.3373594401	 0.8289195941	 0.251121
H	 1.3120414661	-1.5807087343	 0.8073960958	 0.104676
88.1511	179.0433	180.2585	249.8756	285.9773	333.1243	392.3957	441.4304	478.5619	488.8542	497.4098	596.851	670.9022	697.0891	743.0942	844.8152	856.6235	888.2846	952.6857	979.3898	1004.2271	1041.9824	1084.6983	1095.6786	1123.659	1175.1374	1194.7122	1246.0524	1277.7011	1289.5636	1327.1365	1344.3666	1401.1694	1420.2399	1443.1996	1464.1743	1488.7065	1501.9706	1829.6218	3028.2894	3062.1586	3091.9709	3100.857	3132.3031	3165.25	3196.0652	3634.4947	3787.1872
CC1(O)C2CC(=O)NC12	C[C@@]1(O)[C@H]2CC(=O)N[C@@H]12	
InChI=1S/C6H9NO2/c1-6(9)3-2-4(8)7-5(3)6/h3,5,9H,2H2,1H3,(H,7,8)	InChI=1S/C6H9NO2/c1-6(9)3-2-4(8)7-5(3)6/h3,5,9H,2H2,1H3,(H,7,8)/t3-,5+,6+/m0/s1
