21
gdb 95070	2.75601	1.48618	1.18024	1.6398	76.95	-0.2406	0.0745	0.3151	1108.8797	0.185126	-424.223551	-424.215725	-424.214781	-424.255405	32.006	
O	-0.2007347459	 1.463426491	 0.1522323334	-0.441456
C	-0.0013394208	 0.0574496472	 0.0092560678	 0.133031
C	 0.8856138593	-0.4812281511	 1.1457779891	-0.226367
C	 1.3965616336	-1.922043355	 0.9559912217	-0.217698
C	 0.3167496654	-2.9422592506	 0.605355493	 0.120095
C	-1.0465223	-2.7510242722	 1.2993185592	-0.277896
C	-1.4488541272	-2.0698715684	-0.0270808382	 0.101528
C	-1.4148097042	-0.5405750347	-0.0461399296	-0.215605
O	-0.2821127813	-2.6394140756	-0.6853147601	-0.295356
H	 0.6558825253	 1.8930958705	 0.0657820755	 0.277223
H	 0.4949441302	-0.1604521261	-0.9477674988	 0.079072
H	 1.7585308047	 0.1795673847	 1.2301155739	 0.082186
H	 0.3445531208	-0.3782634536	 2.094270462	 0.103045
H	 2.1388782577	-1.9474664392	 0.1480510234	 0.107568
H	 1.9150749278	-2.2463107859	 1.8675089716	 0.095584
H	 0.7307348687	-3.9567126421	 0.6124893369	 0.073651
H	-1.5724661382	-3.693359895	 1.4610225228	 0.106459
H	-1.0810166363	-2.1545112466	 2.2123486163	 0.103872
H	-2.3739435433	-2.4389038903	-0.4821773155	 0.0768
H	-1.9957832286	-0.1529857496	 0.8004781871	 0.106136
H	-1.8972163274	-0.1639566374	-0.9541870213	 0.108128
133.5043	215.9859	287.8737	289.6665	318.8427	337.2986	381.1848	393.7446	453.571	562.468	604.0211	759.9568	808.9634	834.6557	864.3671	881.3568	909.5312	941.2348	954.6582	981.8949	1014.6529	1033.3755	1074.2065	1086.9944	1101.0368	1130.9135	1151.0215	1163.9428	1213.3199	1232.2638	1256.2284	1272.3621	1295.727	1326.3718	1333.9365	1356.9658	1364.8543	1372.9592	1397.9288	1406.7397	1436.6341	1470.0912	1480.6856	1485.9062	1506.2422	2993.4592	3013.3358	3022.0613	3030.9819	3043.2241	3048.07	3050.4111	3066.143	3079.472	3081.3759	3133.5601	3818.8923
OC1CCC2CC(C1)O2	O[C@H]1CC[C@H]2C[C@@H](C1)O2	
InChI=1S/C7H12O2/c8-5-1-2-6-4-7(3-5)9-6/h5-8H,1-4H2	InChI=1S/C7H12O2/c8-5-1-2-6-4-7(3-5)9-6/h5-8H,1-4H2/t5-,6-,7+/m0/s1
