18
gdb 55367	3.27046	1.23551	1.16037	4.0529	71.14	-0.2304	0.0265	0.2569	1116.2224	0.148835	-439.104416	-439.096075	-439.095131	-439.137926	31.397	
N	 0.3645088094	 0.7966262018	 0.783293173	-0.527282
C	 0.0323365287	 0.042242595	-0.3035599308	 0.420185
O	 0.7742480624	-0.0802226719	-1.261037424	-0.3671
C	-1.3275991297	-0.6516685026	-0.2178368763	-0.142177
C	-2.0100676932	-0.7489780929	-1.6071794154	-0.113281
O	-2.7231191057	-1.9826196285	-1.6414491477	-0.256742
C	-2.1045381671	-2.8675782098	-0.7505028622	 0.115652
C	-0.6133081515	-3.0698533184	-0.8156939521	-0.327714
C	-1.2172112778	-2.1179752979	 0.2041988781	-0.084778
H	 1.2874675425	 1.1979289621	 0.8197570375	 0.261428
H	-0.212919148	 0.8377213808	 1.6042400739	 0.258034
H	-1.9737345588	-0.1307311468	 0.4977482066	 0.0738
H	-2.7263287856	 0.0562096409	-1.790475611	 0.110379
H	-1.2360742394	-0.7170900186	-2.3815405135	 0.132379
H	-2.7649754469	-3.6736108766	-0.4533060975	 0.10081
H	-0.2291239613	-4.0104977029	-0.4359356132	 0.111736
H	-0.0456935589	-2.6487806849	-1.6371493201	 0.147125
H	-1.1675038991	-2.3516718687	 1.2611052147	 0.087543
46.533	114.954	173.9885	188.0477	275.6426	340.6783	374.339	444.0031	571.6221	625.5446	638.5392	703.2957	736.8738	788.8928	807.3363	859.0508	932.5691	959.7158	984.8743	991.2824	1029.2871	1037.6204	1070.6484	1078.6715	1101.0387	1128.2874	1172.529	1197.2203	1245.0661	1267.0381	1290.2978	1314.6465	1373.8533	1392.9213	1404.9346	1480.3981	1529.2721	1616.244	1787.5859	3037.294	3047.9417	3099.8714	3140.397	3172.4836	3186.0523	3231.3126	3601.4084	3738.8144
NC(=O)C1COC2CC12	NC(=O)[C@H]1CO[C@H]2C[C@@H]12	
InChI=1S/C6H9NO2/c7-6(8)4-2-9-5-1-3(4)5/h3-5H,1-2H2,(H2,7,8)	InChI=1S/C6H9NO2/c7-6(8)4-2-9-5-1-3(4)5/h3-5H,1-2H2,(H2,7,8)/t3-,4-,5-/m0/s1
