19
gdb 19282	3.08637	1.77425	1.36344	2.5435	70.16	-0.2385	0.0674	0.3059	965.5232	0.165981	-365.008283	-365.000221	-364.999277	-365.040589	30.598	
C	-0.2927772993	 1.5788723891	-0.0188009914	-0.412596
C	 0.0268018499	 0.0893273014	 0.0668437814	-0.028753
C	 0.5839935942	-0.6247122135	-1.1676578433	-0.028035
C	 1.9458416122	-0.1730749878	-1.4983778175	-0.249075
N	 1.7908516385	-1.1763878403	-0.4218572343	-0.162415
C	 1.2965376724	-0.4403080161	 0.8103596029	 0.018719
C	 2.3241702142	 0.4706293189	 1.458844668	-0.070599
O	 3.4511109443	-0.2794532924	 1.8798952621	-0.423982
H	 0.5437945347	 2.1646464208	-0.409878769	 0.117694
H	-1.1510119905	 1.7485193503	-0.678114344	 0.120023
H	-0.5497735747	 1.9821769215	 0.9665362605	 0.120431
H	-0.8530015713	-0.4389163754	 0.4446655202	 0.085048
H	 0.0053159494	-1.2514833331	-1.8393146142	 0.095333
H	 2.4101790539	-0.5953371283	-2.3842027496	 0.123545
H	 2.2694250657	 0.8374092329	-1.266436004	 0.114699
H	 1.029687291	-1.207513849	 1.5423705367	 0.093532
H	 2.6231728985	 1.2899685332	 0.7870568864	 0.082625
H	 1.8980126517	 0.9340863084	 2.3560017958	 0.108385
H	 3.6830024951	-0.8647012005	 1.148913353	 0.295421
89.9199	151.3939	186.9808	214.1363	270.0869	324.0178	377.6662	453.6027	517.4483	550.733	692.6588	744.7693	759.206	825.5506	896.5321	930.2353	984.7988	1014.4702	1046.6584	1058.8122	1078.8012	1083.771	1113.7529	1123.1546	1156.7943	1179.6741	1216.1075	1222.704	1260.25	1301.0876	1334.9681	1369.3653	1376.4625	1394.6761	1415.8982	1436.1111	1493.3946	1498.7714	1502.3566	1518.6544	2983.263	3034.1636	3054.2937	3061.3271	3076.5079	3096.3492	3111.5588	3123.0502	3156.9365	3204.5293	3788.8357
CC1C2CN2C1CO	C[C@H]1[C@H]2CN2[C@H]1CO	
InChI=1S/C6H11NO/c1-4-5-2-7(5)6(4)3-8/h4-6,8H,2-3H2,1H3	InChI=1S/C6H11NO/c1-4-5-2-7(5)6(4)3-8/h4-6,8H,2-3H2,1H3/t4-,5+,6-,7?/m0/s1
