17
gdb 74665	3.65244	1.48841	1.41906	1.319	71.46	-0.2204	0.0577	0.2782	964.4373	0.139052	-417.999023	-417.992146	-417.991202	-418.030044	28.256	
N	 0.0566810844	 1.3550426973	-0.1028437687	-0.579243
C	-0.0518295386	-0.0067728865	-0.0416874465	 0.457301
N	-1.137858867	-0.6836766407	-0.027956422	-0.347594
C	-0.7233886055	-2.0790745832	-0.053732713	-0.029694
C	-0.6948598561	-2.8342755575	-1.4061628402	-0.043602
C	 0.031942692	-2.040823636	-2.4440731576	-0.299079
C	 0.8508303725	-2.7686286548	-1.4140282336	-0.068345
C	 0.8312722456	-2.0516751865	-0.065979365	 0.062297
O	 1.1601508947	-0.6457629695	-0.0401410649	-0.264379
H	 0.9103500402	 1.7377385045	 0.2728692117	 0.261936
H	-0.7848192853	 1.8465147748	 0.154273927	 0.267426
H	-1.1944392488	-2.6585708429	 0.744115196	 0.074767
H	-1.3328229286	-3.6720443476	-1.6592644589	 0.087373
H	 0.0584591236	-2.4926779837	-3.4304166851	 0.113089
H	-0.0216105829	-0.9573592602	-2.4584368643	 0.135857
H	 1.5656286158	-3.5340606358	-1.6902800884	 0.08553
H	 1.374687304	-2.5516665418	 0.7364779435	 0.08636
142.4184	168.8281	328.2282	350.8896	419.5865	493.3696	532.9245	560.538	647.8774	720.1467	737.8062	761.2911	782.3146	840.4374	877.6529	918.049	928.3457	959.9965	971.8908	998.9392	1026.1538	1055.0357	1065.0172	1084.5465	1089.7958	1168.056	1181.0504	1222.954	1244.776	1295.7218	1307.8994	1338.7085	1365.4972	1418.3163	1495.4041	1612.0374	1730.7264	3072.4309	3106.6181	3132.5096	3181.1055	3190.7853	3213.5258	3590.6301	3706.0048
NC1=NC2C3CC3C2O1	NC1=N[C@H]2[C@H]3C[C@H]3[C@H]2O1	
InChI=1S/C6H8N2O/c7-6-8-4-2-1-3(2)5(4)9-6/h2-5H,1H2,(H2,7,8)	InChI=1S/C6H8N2O/c7-6-8-4-2-1-3(2)5(4)9-6/h2-5H,1H2,(H2,7,8)/t2-,3+,4-,5+/m0/s1
