16
gdb 33580	2.20845	1.535	1.17849	4.0815	73.2	-0.2649	-0.0113	0.2536	1082.5101	0.126425	-396.949802	-396.941451	-396.940507	-396.983791	30.077	
N	-0.2068219249	-1.1949979686	-0.5246451375	-0.32618
C	-0.1442648428	-0.0668068177	-0.2840319728	 0.270543
C	-0.0067899407	 1.3495416063	 0.05596264	-0.032847
C	-0.5468126225	 1.6904841831	 1.4903090256	-0.270259
C	 0.5131574082	 2.679045383	 2.076713086	-0.171562
N	 1.4901143558	 2.9725772044	 1.020878622	-0.281364
C	 1.5084655233	 1.8047512603	 0.1698366703	-0.204959
C	-0.6725284766	 2.1835062171	-0.9529515553	 0.27348
N	-1.1632720224	 2.8953270298	-1.7195422718	-0.326069
H	-1.5454671263	 2.1242444169	 1.4293686986	 0.14614
H	-0.6155866789	 0.7741658059	 2.0791449106	 0.141402
H	 0.0640775849	 3.6031283862	 2.444864701	 0.126666
H	 1.0268534001	 2.2036732703	 2.9189711885	 0.128396
H	 1.1939878519	 3.7819911141	 0.4846185485	 0.242806
H	 2.057880928	 0.9886769659	 0.6519625586	 0.137728
H	 1.955575153	 2.004951753	-0.8041747724	 0.146081
30.7083	131.1917	154.4497	176.7106	212.5532	313.4973	451.0763	503.7371	510.8767	570.9711	590.1771	674.6044	739.6462	800.1143	818.3364	911.5146	926.8602	936.5779	1010.4675	1054.5287	1081.5377	1120.5222	1136.319	1228.745	1273.8702	1301.192	1323.2679	1335.9532	1371.5911	1478.0558	1489.134	1490.91	1512.2532	2356.6444	2362.9891	3049.767	3052.6054	3088.1942	3114.4402	3140.5547	3142.8591	3523.9507
N#CC1(CCNC1)C#N	N#CC1(CCNC1)C#N	
InChI=1S/C6H7N3/c7-3-6(4-8)1-2-9-5-6/h9H,1-2,5H2	InChI=1S/C6H7N3/c7-3-6(4-8)1-2-9-5-6/h9H,1-2,5H2
