16
gdb 81162	2.7477	1.51067	1.31842	3.8141	69.16	-0.2724	-0.003	0.2694	1001.1602	0.125207	-437.87502	-437.867432	-437.866488	-437.906909	29.355	
O	 0.1558846064	 1.4914798089	 0.0952543212	-0.417985
C	 0.0421278304	 0.1071855168	 0.0373054212	 0.077928
C	 0.0533232516	-0.6571581457	 1.3746334648	 0.034487
C	-1.003573239	 0.0649535845	 2.2289619213	-0.22472
C	-2.1318152023	 0.1417169068	 1.1539918274	-0.260228
C	-1.3693240579	-0.5851234972	 0.0215254088	 0.270295
O	-0.7336167241	-1.7005840257	 0.7083961044	-0.317941
C	-2.0645158898	-0.9157401759	-1.2027305243	 0.171365
N	-2.6096594502	-1.1282917182	-2.1996215562	-0.333668
H	 0.2580383014	 1.8392024539	-0.7961537476	 0.303083
H	 0.6979566973	-0.3655776031	-0.6987869157	 0.109094
H	 0.9666187729	-1.0234082316	 1.8392708825	 0.095983
H	-1.2858039336	-0.5361291032	 3.0945494899	 0.11672
H	-0.66683384	 1.0481617898	 2.5621271356	 0.125353
H	-3.0343586638	-0.4044230265	 1.4299039193	 0.12564
H	-2.3918874194	 1.1637759565	 0.8746207275	 0.124594
133.6892	161.8622	242.8677	254.0707	267.8532	364.3885	495.5066	522.5304	526.9636	564.9627	627.5413	767.0613	810.6631	836.6658	845.6675	885.4739	930.3232	956.7097	995.1702	1030.6653	1084.7315	1134.3161	1154.1246	1179.142	1204.0818	1237.2397	1258.9389	1277.352	1289.9971	1315.9972	1328.0064	1435.8563	1468.568	1492.4652	2357.4157	3083.4563	3083.8105	3091.4105	3134.0451	3149.2503	3150.6201	3828.0697
OC1C2CCC1(O2)C#N	O[C@H]1[C@H]2CC[C@@]1(O2)C#N	
InChI=1S/C6H7NO2/c7-3-6-2-1-4(9-6)5(6)8/h4-5,8H,1-2H2	InChI=1S/C6H7NO2/c7-3-6-2-1-4(9-6)5(6)8/h4-5,8H,1-2H2/t4-,5+,6-/m1/s1
