21
gdb 35266	3.18811	0.87657	0.78158	0.919	89.08	-0.239	0.0511	0.2901	1536.6958	0.181369	-349.89601	-349.886582	-349.885638	-349.93112	35.676	
C	-0.0797446492	-1.2111662233	 0.1316203647	-0.478838
C	-0.0230889436	-0.008956753	 0.1478889506	 0.34025
C	 0.0306464197	 1.4234986085	 0.1575221936	-0.210192
C	 0.7757975486	 2.1588639893	 1.2650928617	-0.283527
C	 1.3328834508	 2.1672428718	-0.1273701438	 0.010641
C	 2.6056229567	 1.4229395275	-0.4770651288	-0.243513
C	 3.8564418844	 2.2431202295	-0.2282969117	 0.042989
C	 4.536184035	 2.2297009297	 1.1179194469	-0.252482
C	 5.1933432036	 1.5663832287	-0.0686837461	-0.27891
H	-0.1315001139	-2.2713470851	 0.1204345564	 0.192934
H	-0.8722632475	 1.9067017954	-0.2047500438	 0.110516
H	 0.3201601066	 3.0593475987	 1.6615400204	 0.115568
H	 1.2740624934	 1.5416612591	 2.0039747925	 0.12458
H	 1.1929825538	 3.0923622232	-0.6819905006	 0.088058
H	 2.6540321942	 0.4912565384	 0.0982756778	 0.104401
H	 2.5666321101	 1.12410296	-1.533399466	 0.102398
H	 3.8739800416	 3.1966227827	-0.7518989391	 0.077779
H	 4.9624724522	 3.1526705226	 1.4954425917	 0.108487
H	 4.1221690142	 1.5874010719	 1.8883574887	 0.109382
H	 5.21619915	 0.4815128157	-0.0927828045	 0.11044
H	 6.0679558493	 2.0364811488	-0.5047137507	 0.109039
40.9457	82.4285	94.2626	177.9709	206.6713	303.2753	328.0207	371.0589	431.7062	525.5925	570.1058	603.5231	646.3157	768.4608	774.725	798.276	815.2235	834.6621	873.3896	881.035	932.696	953.0512	983.006	1039.2088	1053.7804	1067.8845	1078.7582	1083.7117	1121.3884	1141.5245	1144.3852	1198.45	1199.6424	1227.6851	1232.6481	1270.9501	1327.6248	1375.2432	1404.1467	1428.2471	1468.3214	1478.7665	1490.4487	1508.1308	2232.5865	3016.5612	3063.4409	3124.9816	3127.9611	3131.674	3133.816	3138.0199	3146.5453	3205.1887	3220.3595	3227.4533	3506.0332
C#CC1CC1CC1CC1	C#C[C@H]1C[C@H]1CC1CC1	
InChI=1S/C9H12/c1-2-8-6-9(8)5-7-3-4-7/h1,7-9H,3-6H2	InChI=1S/C9H12/c1-2-8-6-9(8)5-7-3-4-7/h1,7-9H,3-6H2/t8-,9+/m0/s1
