18
gdb 47733	2.50547	1.65828	1.1325	3.2482	71.91	-0.2211	-0.029	0.1921	1080.1008	0.148854	-439.077181	-439.069257	-439.068313	-439.109912	30.375	
O	 0.0529642047	 0.0001385372	 0.2545009145	-0.302774
C	 0.0119521026	 1.1898962098	 0.0548000904	 0.305274
C	-1.3076384919	 1.9534157993	-0.1126501709	-0.281175
N	-1.2723270075	 3.0929212775	-1.0271014805	-0.280879
C	-0.1535532381	 3.9912646073	-0.7474919236	-0.17478
C	 1.2157668433	 3.2967943124	-0.8414146808	-0.300157
C	 1.2626594726	 2.0528873508	 0.0279562707	 0.32943
C	 2.1105537181	 1.987179332	 1.2424656321	-0.212637
O	 2.496165985	 1.3421923698	 0.0388799973	-0.259532
H	-2.0782603346	 1.2404284474	-0.4164869384	 0.134006
H	-1.5904788735	 2.3213461471	 0.886007725	 0.130081
H	-1.2078197656	 2.7576157426	-1.9838206665	 0.223127
H	-0.1955178149	 4.8350312714	-1.4431891752	 0.111362
H	-0.2985124127	 4.4025429203	 0.26050464	 0.109453
H	 1.3896351543	 2.992750682	-1.8824415732	 0.113884
H	 2.0316569633	 3.9763807066	-0.5704937472	 0.106573
H	 2.6925844764	 2.8649794142	 1.5226698567	 0.117248
H	 1.8273896586	 1.3201514022	 2.0550776397	 0.131494
63.28	123.0802	247.4561	285.0317	298.8686	369.1602	391.0607	444.0162	510.3203	578.8606	629.3173	690.3299	780.1939	827.3866	869.818	889.2313	937.5044	967.1144	972.7971	998.0101	1094.1573	1127.5541	1136.1734	1153.8098	1173.6793	1193.2298	1215.1325	1282.9207	1326.4097	1332.9147	1355.3873	1374.935	1401.5391	1450.4204	1479.2962	1490.4117	1495.405	1513.2549	1816.9826	2996.0765	3017.848	3024.0869	3068.1	3078.7538	3082.1701	3104.0622	3174.2957	3507.3284
O=C1CNCCC11CO1	O=C1CNCC[C@]21CO2	
InChI=1S/C6H9NO2/c8-5-3-7-2-1-6(5)4-9-6/h7H,1-4H2	InChI=1S/C6H9NO2/c8-5-3-7-2-1-6(5)4-9-6/h7H,1-4H2/t6-/m1/s1
