23
gdb 40936	3.09864	1.30757	1.15423	0.1566	89.95	-0.2349	0.033	0.2679	1189.3403	0.208452	-351.167703	-351.159574	-351.158629	-351.200112	33.161	
C	 0.1069940106	 1.3658137259	-0.5860650743	-0.209265
C	 1.3730565697	 1.652793672	 0.2636655839	-0.25383
C	 1.3264496706	 0.1801164244	 0.7955296837	 0.36948
C	-0.1307951588	 0.0812423649	 0.2517925303	-0.277521
C	 2.3029845984	-0.7409186558	 0.0497840787	-0.258543
C	 3.7654649189	-0.4436651486	 0.4151639668	-0.258744
C	 3.9497233077	-0.2499214825	 1.8968041466	-0.043404
C	 2.9346648527	-0.0677950174	 2.7405035837	-0.050659
C	 1.4924316623	-0.0155231811	 2.3051195668	-0.324088
H	-0.6825551737	 2.120563367	-0.5710529522	 0.094392
H	 0.3450087616	 1.146088477	-1.6301193408	 0.100739
H	 2.2747788058	 1.9597768804	-0.2732275623	 0.09235
H	 1.1856700622	 2.3814258968	 1.0579974663	 0.093611
H	-0.870601979	 0.2361635005	 1.0438596257	 0.091438
H	-0.3928559278	-0.8341105853	-0.2877548216	 0.089732
H	 2.0688719068	-1.7813029839	 0.312678782	 0.094224
H	 2.1613338581	-0.6535047231	-1.0339901814	 0.087959
H	 4.4106314946	-1.2583015905	 0.0618357282	 0.099422
H	 4.118607296	 0.451968408	-0.1175407861	 0.107361
H	 4.970105853	-0.2609584255	 2.2734280876	 0.079608
H	 3.1313441911	 0.0510612743	 3.8037792879	 0.079731
H	 0.969744715	 0.7873720253	 2.84246627	 0.093777
H	 0.9832735842	-0.9440680328	 2.6098073503	 0.102229
106.6352	122.7409	199.5789	262.7331	349.3084	370.1229	398.1544	433.2258	513.3174	620.7038	668.8335	700.7769	772.4012	787.3001	850.9368	876.2812	883.5733	905.2579	944.7405	947.0809	979.1568	989.618	999.1602	1007.7852	1050.8699	1063.9059	1095.0382	1127.0298	1158.1113	1198.3062	1208.5355	1217.1617	1246.2338	1257.6462	1271.3167	1276.9908	1312.0906	1316.3549	1352.1158	1365.1875	1383.7817	1416.4071	1468.8258	1474.7591	1478.3435	1484.9429	1492.4713	1507.9558	1725.1768	2980.4252	2998.9529	3013.167	3024.5914	3036.8844	3039.9443	3050.4832	3057.07	3063.206	3085.4937	3095.7307	3115.9725	3137.2848	3161.6086
C1CC2(C1)CCC=CC2	C1CC2(C1)CCC=CC2	
InChI=1S/C9H14/c1-2-5-9(6-3-1)7-4-8-9/h1-2H,3-8H2	InChI=1S/C9H14/c1-2-5-9(6-3-1)7-4-8-9/h1-2H,3-8H2
