18
gdb 29547	3.07194	1.59277	1.06265	1.6955	86.55	-0.1852	0.018	0.2033	1115.0701	0.150223	-364.866004	-364.858415	-364.857471	-364.897661	30.322	
C	-0.0213243257	 1.5182391043	 0.0338035831	-0.504163
C	-0.0078244306	 0.0217574899	 0.0091246934	 0.208783
C	-0.0246163902	-0.7791290528	-1.0768356704	-0.189471
C	-0.0023555881	-2.2575698855	-0.7152480871	-0.429995
C	 0.0308127901	-2.1961503972	 0.7876436014	 0.239987
C	 0.0635930086	-2.9735191438	 1.9134665997	-0.228882
N	 0.0792826574	-2.1106110259	 2.9937323541	-0.243636
C	 0.0572218823	-0.7964649655	 2.5733483267	-0.260515
C	 0.0269401847	-0.8291519524	 1.1990085235	 0.234753
H	 0.8677561135	 1.9132030182	 0.5407916344	 0.124604
H	-0.0505683849	 1.9359656146	-0.976087501	 0.12078
H	-0.8911067256	 1.8966083312	 0.5849557235	 0.124535
H	-0.0510818428	-0.4317573387	-2.1031919925	 0.082092
H	-0.8840069586	-2.7828453313	-1.1077285824	 0.11707
H	 0.8707502521	-2.7659773995	-1.1470735851	 0.11707
H	 0.0773162621	-4.0410319436	 2.0656917118	 0.116184
H	 0.1034762096	-2.4019276032	 3.9549122114	 0.256442
H	 0.0654061762	 0.0113858913	 3.2870067754	 0.114362
163.4284	178.8623	233.9257	237.1821	280.5881	427.0753	499.3559	523.1361	579.0402	618.6178	657.4528	675.4795	722.7407	746.8622	751.8446	778.1093	930.9258	948.5682	953.4466	1007.0369	1053.7367	1064.0293	1066.1887	1141.5569	1143.492	1181.91	1230.4263	1272.8222	1297.278	1352.4008	1407.3392	1413.2076	1459.5379	1461.6912	1478.3464	1491.5511	1568.6467	1635.0687	1662.7389	3011.7856	3020.2696	3033.0363	3067.253	3111.4078	3199.2363	3255.5021	3261.015	3685.133
CC1=CCC2=CNC=C12	CC1=CCc2c[nH]cc12	
InChI=1S/C8H9N/c1-6-2-3-7-4-9-5-8(6)7/h2,4-5,9H,3H2,1H3	InChI=1S/C8H9N/c1-6-2-3-7-4-9-5-8(6)7/h2,4-5,9H,3H2,1H3
