17
gdb 91311	2.32272	1.80062	1.23959	0.8486	73.12	-0.2525	0.0087	0.2612	1021.8164	0.135145	-421.746476	-421.738485	-421.737541	-421.779109	31.117	
O	 0.4791247667	 0.8741000741	-0.8646903153	-0.430706
C	 0.1072369246	-0.1858364437	-0.0364375609	 0.134689
C	 0.0422021562	-0.0143222392	 1.5204823596	-0.288789
C	-1.3318703656	-0.7248740192	 1.5165784226	 0.114613
O	-2.4327198524	 0.2088891501	 1.5708787698	-0.293597
C	-2.52583174	 0.254406891	 0.1228082489	-0.073757
C	-2.4343084653	 1.6032557571	-0.4244098892	 0.323907
C	-2.3964522649	 2.7246471796	-0.8601077535	-0.43865
C	-1.3469557835	-0.7462295627	-0.0393897157	-0.145816
H	-0.1617510168	 1.5873507473	-0.7523199532	 0.287046
H	 0.7870386773	-1.0067783318	-0.2855694385	 0.096335
H	 0.8473374856	-0.5065541869	 2.0708351825	 0.104383
H	-0.0446482265	 1.0211646715	 1.8580153903	 0.116445
H	-1.4893211985	-1.5920259252	 2.1598904171	 0.083481
H	-3.4760972291	-0.1895950191	-0.2025256913	 0.115154
H	-2.3698627457	 3.7127786447	-1.2503813044	 0.211989
H	-1.5585391222	-1.6148581976	-0.6611417789	 0.083273
62.0346	148.3362	187.9454	259.6669	366.5388	399.0947	440.1563	452.5045	525.3335	610.115	631.0371	637.2538	673.9186	740.6898	768.4017	861.4219	890.5561	942.634	959.4067	1001.1869	1012.6162	1038.8069	1086.8133	1108.2874	1161.5587	1174.8825	1198.4742	1210.678	1262.645	1288.153	1310.4372	1326.0215	1339.1265	1362.215	1453.9829	1467.0375	2220.9971	3009.9669	3057.0482	3066.517	3096.9717	3122.1481	3128.4248	3496.6449	3763.0368
OC1CC2OC(C#C)C12	O[C@H]1C[C@H]2O[C@@H](C#C)[C@@H]12	
InChI=1S/C7H8O2/c1-2-5-7-4(8)3-6(7)9-5/h1,4-8H,3H2	InChI=1S/C7H8O2/c1-2-5-7-4(8)3-6(7)9-5/h1,4-8H,3H2/t4-,5-,6+,7+/m0/s1
