18
gdb 13259	5.6076	0.97476	0.88068	4.1459	69.6	-0.2758	0.0106	0.2863	1294.0729	0.153562	-384.951718	-384.943457	-384.942513	-384.985804	29.053	
O	 0.2973565323	 0.1513252703	-0.6603997497	-0.27676
C	 0.3257261256	 1.3359767938	-0.5126416173	 0.174791
O	 1.046906255	 1.9350945032	 0.4508295183	-0.176442
C	 1.0467864485	 3.3700011183	 0.5144444036	-0.115451
C	 2.4055876232	 3.9178989828	 0.1309457998	 0.049897
C	 2.8485846519	 3.8715390437	-1.3590981677	-0.224947
C	 3.451894536	 5.2912624044	-1.1798504471	-0.206533
C	 2.5814411744	 5.4629888494	 0.0951728376	-0.239669
H	-0.2361224397	 2.0577134088	-1.1386879285	 0.073356
H	 0.2650343946	 3.7718247621	-0.1453850284	 0.104102
H	 0.7891755988	 3.6365313678	 1.5450323336	 0.122786
H	 3.1661504339	 3.4580477272	 0.7698682349	 0.091519
H	 3.5159352014	 3.0638946976	-1.6657243225	 0.111081
H	 1.9847009377	 3.8835200809	-2.0327785141	 0.096422
H	 4.5173740667	 5.2502576307	-0.9378791462	 0.109263
H	 3.308541304	 6.0090434283	-1.9901192725	 0.101848
H	 1.6359633802	 5.9696412094	-0.1274399736	 0.100472
H	 3.0322363955	 5.9418822513	 0.9671970297	 0.104265
41.424	70.9394	128.1336	166.254	208.6094	359.8928	382.6266	408.3178	636.7067	672.0573	764.1494	793.4032	887.2986	909.1707	935.1269	972.8896	977.3535	1028.9968	1046.0403	1067.5862	1119.5974	1137.0479	1202.8845	1207.1075	1253.7425	1258.456	1261.7808	1277.7756	1284.6615	1317.7623	1368.8042	1402.2745	1433.6222	1479.8592	1487.2517	1498.6868	1512.8414	1865.5693	2937.2109	3009.716	3045.1875	3047.4974	3060.2308	3063.9855	3077.8728	3103.6585	3110.1771	3123.8329
O=COCC1CCC1	O=COCC1CCC1	
InChI=1S/C6H10O2/c7-5-8-4-6-2-1-3-6/h5-6H,1-4H2	InChI=1S/C6H10O2/c7-5-8-4-6-2-1-3-6/h5-6H,1-4H2
