15
gdb 76996	2.62747	1.49106	1.14955	3.1409	67.71	-0.2589	-0.0661	0.1927	1049.9402	0.111703	-457.794662	-457.786566	-457.785621	-457.828138	29.303	
O	 0.2695528016	 1.3812780213	 0.2480965603	-0.432266
C	 0.1180847098	-0.000372382	 0.0376102457	 0.028161
C	-1.3454965396	-0.4971166321	 0.1397050678	-0.216828
C	-2.3508901982	 0.6551063304	 0.1076842067	 0.168051
O	-3.2016193377	 0.7820230037	-0.7327323003	-0.242124
C	-1.4784624124	-1.4331498444	-1.03859898	-0.024424
C	-0.4329894643	-1.3907507989	-1.8757784886	-0.18679
C	 0.5383252671	-0.3962998103	-1.3904171524	 0.353595
O	 1.4735778995	 0.1189409326	-1.9605652782	-0.341608
H	 0.9829872985	 1.6575308205	-0.3464366807	 0.298965
H	 0.748081701	-0.576495444	 0.7355273429	 0.1038
H	-1.5218974932	-1.0171676868	 1.091836432	 0.113624
H	-2.2468000073	 1.3663525544	 0.9503807381	 0.109349
H	-2.3662490143	-2.0385545949	-1.1787993526	 0.137469
H	-0.3208760906	-1.9313512594	-2.8062793509	 0.131028
47.5986	92.5383	174.9377	255.8069	257.5335	315.7897	421.3229	471.8085	500.8358	617.4186	667.1151	732.9023	737.2412	796.1745	824.7565	883.9056	991.1498	998.3171	1031.4504	1045.64	1119.6479	1146.2213	1197.9642	1207.4848	1287.2806	1289.9778	1353.6427	1363.6472	1403.5377	1427.0089	1639.1977	1814.124	1826.2098	2944.278	2964.4392	3016.7117	3207.2933	3234.3248	3724.506
OC1C(C=O)C=CC1=O	O[C@H]1[C@@H](C=O)C=CC1=O	
InChI=1S/C6H6O3/c7-3-4-1-2-5(8)6(4)9/h1-4,6,9H	InChI=1S/C6H6O3/c7-3-4-1-2-5(8)6(4)9/h1-4,6,9H/t4-,6+/m1/s1
