20
gdb 22368	2.16451	1.30301	0.85832	1.1638	78.57	-0.2409	0.0097	0.2506	1346.6724	0.169942	-440.263275	-440.253832	-440.252888	-440.29749	35.686	
C	-0.2503774926	 1.4997527499	 0.0424766746	-0.399845
C	 0.0705330874	 0.0067976433	-0.0115102495	-0.062133
C	 0.9466083181	-0.4429155656	-1.1978142288	-0.225706
C	 1.5310039905	-1.7878533891	-0.7525264065	 0.111518
O	 2.6611143442	-2.1042517009	-1.5452885668	-0.434136
C	 1.8382443906	-1.5793991551	 0.7466860166	-0.338055
C	 0.8466778999	-0.5266488726	 1.1848105641	 0.403047
N	 0.648600388	-0.0789990463	 2.3582033095	-0.234103
O	 1.4794748055	-0.7216965581	 3.2966015774	-0.395329
H	 0.6694016823	 2.092536815	 0.0781564924	 0.117373
H	-0.8208729748	 1.8064828827	-0.8400110028	 0.109016
H	-0.8355491002	 1.7378228236	 0.9338698878	 0.133124
H	-0.8777895268	-0.5506430252	-0.0595074483	 0.092874
H	 0.3980548582	-0.509523981	-2.1403926098	 0.102769
H	 1.7781645997	 0.2585549572	-1.3420801225	 0.110946
H	 0.7592847683	-2.567504319	-0.8593731502	 0.06851
H	 2.9830318502	-2.9708456654	-1.2783082883	 0.28317
H	 1.7736858055	-2.4857781367	 1.3559607278	 0.11939
H	 2.8598001332	-1.1926270711	 0.855620049	 0.132793
H	 1.2281322128	-0.2883670459	 4.1190534544	 0.304777
65.2098	121.9428	182.7565	202.9254	233.064	271.5155	291.8545	364.5112	385.5965	449.0209	471.1411	496.7527	527.6756	560.2912	611.4781	802.8645	868.3421	893.2651	913.526	970.7545	977.3697	1014.637	1046.7389	1078.686	1117.8277	1139.1915	1173.4574	1206.1228	1211.236	1249.3185	1276.2802	1302.7405	1319.403	1357.1602	1367.881	1399.2513	1412.2537	1433.8557	1462.7541	1492.0694	1498.67	1500.4874	1753.229	2964.2069	2983.5239	3034.0376	3037.4736	3040.6383	3086.9458	3102.8693	3106.8484	3124.5945	3819.314	3820.5244
CC1CC(O)CC1=NO	C[C@H]1C[C@@H](O)CC1=NO	
InChI=1S/C6H11NO2/c1-4-2-5(8)3-6(4)7-9/h4-5,8-9H,2-3H2,1H3	InChI=1S/C6H11NO2/c1-4-2-5(8)3-6(4)7-9/h4-5,8-9H,2-3H2,1H3/t4-,5+/m0/s1
