18
gdb 22399	6.88542	0.63657	0.60053	1.9554	77.9	-0.2499	-0.0272	0.2228	1757.2969	0.144887	-439.039449	-439.030021	-439.029077	-439.075263	33.397	
O	-0.0969496064	 1.2465064492	-0.3739635016	-0.393209
N	 0.0259440996	-0.139830587	-0.1662781536	-0.228123
C	-1.0955918532	-0.6553404554	 0.1123374469	 0.424325
C	-2.5039360251	-0.1456284414	 0.3391707444	-0.342974
C	-2.8485892373	-1.5505959448	 0.9355860268	 0.018495
C	-4.1047110617	-2.2415788078	 0.3998958849	-0.297616
C	-4.2619068004	-3.6450371838	 0.943053092	 0.16074
O	-5.2211987472	-4.043707966	 1.5515764489	-0.235635
C	-1.450374762	-2.0850726086	 0.459489537	-0.335771
H	 0.8130173739	 1.5058841207	-0.5541703889	 0.308061
H	-2.6008963568	 0.7183196797	 1.0010629871	 0.13297
H	-3.0343724061	 0.0765614345	-0.5937447128	 0.125629
H	-2.8911267892	-1.5038818471	 2.0273534626	 0.096198
H	-5.0057280051	-1.6724547265	 0.6485084521	 0.125431
H	-4.0344320692	-2.3104235763	-0.6960490291	 0.116147
H	-3.3943109958	-4.3172804573	 0.7449163591	 0.07603
H	-1.5149253631	-2.7336206085	-0.4219881912	 0.120284
H	-0.8228752349	-2.5794705536	 1.2047400754	 0.129018
31.9697	62.5114	74.8933	171.0529	209.4603	259.7632	327.1666	374.2998	395.2161	469.3985	491.9435	539.5698	687.1206	771.4999	792.9012	827.7008	910.7243	944.7017	962.9076	975.5288	1026.932	1059.7906	1099.8341	1121.7005	1171.6976	1185.1759	1219.0551	1248.4126	1255.8342	1273.2548	1308.1256	1366.658	1405.4879	1432.3019	1451.5001	1460.4683	1473.7557	1786.6067	1834.7524	2857.5066	3005.0662	3039.6567	3046.946	3065.5501	3092.3697	3104.7802	3107.2217	3817.3822
ON=C1CC(CC=O)C1	ON=C1C[C@@H](CC=O)C1	
InChI=1S/C6H9NO2/c8-2-1-5-3-6(4-5)7-9/h2,5,9H,1,3-4H2	InChI=1S/C6H9NO2/c8-2-1-5-3-6(4-5)7-9/h2,5,9H,1,3-4H2/t5-
