14
gdb 125018	2.39534	1.87766	1.06085	5.3269	72.04	-0.2277	-0.081	0.1467	1047.6854	0.098866	-469.982271	-469.973851	-469.972907	-470.015431	30.668	
C	 0.071173457	 1.5369159191	 0.0148024476	-0.500474
C	-0.0153990439	 0.0438489125	-0.0196151074	 0.368207
C	-1.1741358512	-0.6730892021	 0.0449144846	 0.05291
N	-2.4375822724	-0.125452255	 0.1895536048	-0.590314
C	-1.0945587283	-2.1148647085	 0.0318864706	 0.412875
O	-2.0551048331	-2.8553764343	 0.1037857688	-0.354103
N	 0.2240548604	-2.6646861877	-0.0821467829	-0.156712
N	 1.2630563719	-2.0188357993	-0.1630895525	 0.042027
O	 1.1774305894	-0.5618963815	-0.1269112462	-0.271422
H	 1.0601957904	 1.8458882231	 0.3586389729	 0.161369
H	-0.090025666	 1.970189884	-0.9801238459	 0.152631
H	-0.6879303567	 1.9429424809	 0.6899818561	 0.154116
H	-2.6264095107	 0.7262156469	-0.3169124168	 0.255954
H	-3.1557146968	-0.8300514481	 0.0718422662	 0.272938
80.2802	107.155	161.3436	240.872	304.0556	324.3685	352.8214	451.4688	513.5328	523.005	540.609	546.9569	576.3706	669.8479	715.632	795.2786	887.4641	953.3531	1014.2747	1049.1413	1152.3877	1225.2852	1265.3299	1395.9004	1435.9003	1476.1508	1487.3284	1607.2539	1628.0327	1670.8287	1774.1025	3031.1212	3096.053	3140.64	3543.9211	3659.1508
CC1=C(N)C(=O)N=NO1	Cc1c(N)c(=O)nno1	
InChI=1S/C4H5N3O2/c1-2-3(5)4(8)6-7-9-2/h5H2,1H3	InChI=1S/C4H5N3O2/c1-2-3(5)4(8)6-7-9-2/h5H2,1H3
