19
gdb 111427	1.96332	1.53677	0.99431	1.5724	70.89	-0.2507	0.0686	0.3193	1212.2535	0.15796	-460.102505	-460.093237	-460.092293	-460.136882	33.793	
O	 0.156464613	 0.5175480295	-1.5094111839	-0.431776
C	-0.0648032821	 0.3527491364	-0.1115113536	-0.105784
C	-1.4121937737	-0.3266648727	 0.0374612198	-0.010731
C	-1.4873680471	-1.8101735237	-0.3562866731	 0.02807
O	-0.6552146167	-2.5385284485	 0.558063651	-0.25187
C	-1.984235011	-2.1937360661	 0.9734438248	-0.003168
C	-1.9488642656	-0.7384384616	 1.469204993	-0.04626
C	-1.1166969532	-0.4640985394	 2.7078079382	-0.098286
O	-1.0612918954	 0.9461904855	 2.895231783	-0.422094
H	 1.0387001939	 0.8798163171	-1.6304433419	 0.28527
H	 0.7163926144	-0.2743859164	 0.3408114077	 0.095229
H	-0.0769376305	 1.3158112179	 0.4169695168	 0.102169
H	-2.1666401881	 0.2600670735	-0.4942133054	 0.087441
H	-1.6569289124	-2.2544558992	-1.3293068481	 0.105907
H	-2.6301030804	-3.0068399933	 1.2851307584	 0.101666
H	-2.9572386397	-0.3403720199	 1.6157039353	 0.086192
H	-1.5872554765	-0.9596742954	 3.5732243356	 0.08554
H	-0.1142251071	-0.8948130416	 2.5851750581	 0.10511
H	-0.4824771015	 1.127114848	 3.6416261943	 0.287374
89.2951	91.9417	126.7865	180.6521	224.5987	240.1375	265.2789	289.7635	360.7963	490.5141	537.7205	618.7011	724.905	805.8808	851.9387	861.9633	894.8382	928.9044	1001.052	1016.1618	1040.6825	1051.3348	1068.9875	1074.0683	1109.8341	1139.1159	1182.2489	1219.9132	1233.2052	1247.0369	1250.82	1263.1727	1263.8745	1296.3636	1349.0216	1369.9297	1388.0442	1451.9365	1461.4598	1526.152	1529.5505	2964.6718	2998.8557	3028.6569	3036.2235	3067.1659	3081.9254	3178.7638	3200.8139	3828.8934	3831.7234
OCC1C2OC2C1CO	OC[C@H]1[C@H]2O[C@H]2[C@H]1CO	
InChI=1S/C6H10O3/c7-1-3-4(2-8)6-5(3)9-6/h3-8H,1-2H2	InChI=1S/C6H10O3/c7-1-3-4(2-8)6-5(3)9-6/h3-8H,1-2H2/t3-,4+,5-,6+
