19
gdb 65670	3.7956	1.09539	0.98859	2.7329	76.42	-0.2486	-0.0188	0.2298	1229.214	0.158124	-422.976953	-422.968522	-422.967578	-423.010516	32.278	
O	-0.0781878855	 1.3661703254	-0.0691552437	-0.485415
C	-0.006227745	-0.0490291405	-0.0019822896	 0.466025
C	 1.0177362575	-0.5177020979	-1.0415063428	-0.386463
C	 0.7168929562	 0.0799306206	-2.4019175324	 0.175989
O	 1.5158879143	 0.6735820773	-3.0783706686	-0.247265
C	-0.0444256064	-0.7054669036	 1.4230247683	-0.118552
C	-1.4820433271	-0.1149255256	 1.5627517208	-0.229095
C	-1.4144008584	-0.7105813861	 0.1202986063	-0.091431
C	-0.7202381978	-1.9444905461	 0.767644176	-0.238253
H	 0.8172154948	 1.7202157477	-0.0370377168	 0.28634
H	 2.0293342628	-0.2090249489	-0.7509128222	 0.112604
H	 1.027401998	-1.6073649082	-1.1470297195	 0.126987
H	-0.3274441495	-0.0811240317	-2.7530210929	 0.07875
H	 0.7520552555	-0.7036594254	 2.1696403665	 0.069793
H	-2.1407606745	-0.6402328036	 2.2577732516	 0.09063
H	-1.568456854	 0.9652207516	 1.6476137101	 0.119948
H	-2.2052659383	-0.7113159206	-0.6311679896	 0.076678
H	-0.1173050568	-2.5980355999	 0.1362599303	 0.091717
H	-1.3538434659	-2.5340735144	 1.4329937382	 0.101012
59.3861	78.3649	154.0638	276.216	301.297	313.7469	411.4944	429.5645	476.8842	559.0067	597.4337	705.3738	779.2464	800.8139	821.2834	897.0137	900.6858	910.0825	979.3167	1003.7568	1015.5446	1036.2944	1047.6172	1080.037	1094.9443	1110.3998	1146.362	1164.6086	1184.706	1197.3243	1220.7937	1233.2651	1246.689	1258.6022	1303.4655	1378.5806	1427.7884	1460.2702	1500.699	1540.3731	1835.7502	2877.6875	3037.4309	3073.1275	3076.3426	3089.2917	3095.9835	3106.8021	3134.0495	3173.6682	3804.8778
OC1(CC=O)C2CC1C2	O[C@@]1(CC=O)[C@H]2C[C@@H]1C2	
InChI=1S/C7H10O2/c8-2-1-7(9)5-3-6(7)4-5/h2,5-6,9H,1,3-4H2	InChI=1S/C7H10O2/c8-2-1-7(9)5-3-6(7)4-5/h2,5-6,9H,1,3-4H2/t5-,6+,7-
