17
gdb 23553	2.32549	1.56617	1.03352	3.0252	72.1	-0.2367	-0.0053	0.2314	1132.9507	0.135662	-455.041015	-455.032635	-455.031691	-455.073949	31.933	
O	 0.1494418814	 1.4130070916	 0.0083571416	-0.430093
C	 0.0944571564	 0.0062766773	-0.1054427454	-0.074471
C	-1.3335017194	-0.5264976426	 0.0122068618	-0.124154
C	-1.5951365674	-2.0458006748	-0.0950371681	-0.072461
N	-0.8928948264	-2.6814715592	 1.0352008173	-0.32779
C	-2.2502030844	-2.0782150596	 1.2531399909	-0.168067
C	-2.0063173612	-0.6144183088	 1.3974247943	 0.477304
N	-2.3712555118	 0.1845588424	 2.3077429827	-0.269824
O	-1.9566733215	 1.5080449879	 2.0138051074	-0.394054
H	-0.3439083569	 1.6570443058	 0.8034557175	 0.292039
H	 0.485296443	-0.2406707175	-1.1000133285	 0.102227
H	 0.7317832124	-0.4987816563	 0.633386852	 0.107291
H	-1.9893691297	 0.0368328432	-0.6621001933	 0.110467
H	-1.8528836423	-2.5999683611	-0.9880081687	 0.107454
H	-1.0420053325	-3.6882967509	 0.9581167532	 0.237299
H	-3.0714196477	-2.6698051201	 1.6334381058	 0.114092
H	-2.2557886621	 1.9973975825	 2.7874508192	 0.312742
95.4015	148.7875	187.3731	217.6827	252.1665	316.2196	391.3951	428.6605	464.309	495.8636	593.4556	632.6335	714.9642	755.3123	824.1903	828.1819	892.0275	951.6028	980.3503	991.4676	1033.0697	1083.5291	1091.7201	1106.0318	1118.793	1138.2605	1187.7358	1219.0627	1295.2899	1305.7101	1317.567	1358.8905	1391.5299	1402.0692	1461.3554	1514.9668	1788.5051	3009.532	3048.7261	3061.818	3202.6506	3219.9841	3464.094	3742.0002	3823.589
OCC1C2NC2C1=NO	OC[C@H]1[C@H]2N[C@H]2C1=NO	
InChI=1S/C5H8N2O2/c8-1-2-3-5(6-3)4(2)7-9/h2-3,5-6,8-9H,1H2	InChI=1S/C5H8N2O2/c8-1-2-3-5(6-3)4(2)7-9/h2-3,5-6,8-9H,1H2/t2-,3+,5+/m0/s1
