23
gdb 86086	2.55878	1.33658	0.97916	0.3275	93.86	-0.2101	0.0336	0.2437	1315.2366	0.205807	-351.170013	-351.160803	-351.159859	-351.20354	36.279	
C	-0.6943371321	 1.2351051792	 0.0708420373	-0.412546
C	 0.1116806082	-0.054796304	-0.0638316732	-0.053392
C	 1.264369206	 0.0255974257	-1.1008054768	-0.321646
C	 2.3524550196	-0.8579362656	-0.5242548329	 0.300986
C	 3.5571661686	-1.2467127154	-1.3200691401	-0.488344
C	 2.0827332373	-1.1634110775	 0.7479637978	-0.237543
C	 0.8024452188	-0.5731950199	 1.2178874247	 0.358783
C	 0.7373559774	 0.141599421	 2.5564397488	-0.313273
C	 0.0190955497	-1.1681866433	 2.3620411011	-0.314851
H	-0.0574869769	 2.0710364141	 0.3798482089	 0.116898
H	-1.1553990947	 1.5030977079	-0.8857357127	 0.110801
H	-1.5015176778	 1.1370410657	 0.8053947473	 0.111605
H	-0.5692565444	-0.8502338308	-0.3944489873	 0.076382
H	 0.9440562197	-0.2914798948	-2.1011149616	 0.095216
H	 1.6321366155	 1.0575875098	-1.2130076294	 0.096938
H	 4.1061398439	-0.3616704628	-1.668398692	 0.121846
H	 4.2461478916	-1.8642345466	-0.7368362543	 0.119994
H	 3.2762600693	-1.8085138947	-2.2205844497	 0.121397
H	 2.7232720111	-1.7524539188	 1.3977413374	 0.081903
H	 1.6340976311	 0.1525362533	 3.1674479728	 0.106144
H	 0.1402998805	 1.0439049402	 2.6305628874	 0.110593
H	-1.0648115267	-1.1450612125	 2.2935984198	 0.105737
H	 0.4120704843	-2.0543171702	 2.8504304967	 0.106371
77.3942	137.9586	191.5928	237.8177	249.9892	264.2296	292.3132	373.2525	413.396	450.5184	496.8245	515.2656	586.0662	714.0145	782.7482	842.2347	881.7499	888.3436	891.6762	924.5734	943.7003	948.7232	975.915	1019.4577	1033.3553	1055.3029	1072.8679	1077.8543	1122.5225	1136.9146	1164.7164	1191.8982	1204.1037	1258.4994	1299.9323	1320.5928	1331.4491	1370.9195	1376.8561	1410.2954	1414.1904	1464.4752	1478.7537	1486.0705	1490.4006	1494.4985	1500.9666	1507.0114	1719.7867	2985.5736	3007.9305	3011.5089	3026.0707	3041.8188	3054.4142	3090.9447	3097.8687	3105.3299	3116.9261	3129.6234	3173.1665	3196.8185	3216.8979
CC1CC(C)=CC11CC1	C[C@H]1CC(=CC21CC2)C	
InChI=1S/C9H14/c1-7-5-8(2)9(6-7)3-4-9/h6,8H,3-5H2,1-2H3	InChI=1S/C9H14/c1-7-5-8(2)9(6-7)3-4-9/h6,8H,3-5H2,1-2H3/t8-/m0/s1
