20
gdb 107958	2.72952	1.35111	1.30938	2.9851	79.55	-0.2229	0.0675	0.2903	1108.1648	0.170048	-403.050549	-403.041875	-403.04093	-403.083712	33.306	
C	 0.0268368939	 1.491784152	-0.0295263293	-0.518919
C	-0.0282955553	-0.0061741008	-0.0987540521	 0.310854
C	 0.5592725329	-0.9476583738	-1.1611673817	-0.309465
C	 0.0274746348	-1.8541457819	-0.0517501521	-0.030994
N	 0.5536096541	-0.8969967833	 1.0478629013	-0.193651
C	-0.8209028053	-0.933217563	 1.7099468325	-0.236818
C	-1.2247181831	-0.9695946576	 0.2400102646	 0.310074
C	-2.5873594041	-1.0340397912	-0.3912976969	-0.232603
O	-3.2047500739	-2.243727185	 0.0301094911	-0.419414
H	 1.0668455646	 1.8333007834	-0.0463210923	 0.133601
H	-0.492904204	 1.9397346775	-0.8834610751	 0.120706
H	-0.4389430414	 1.8684391277	 0.8869936167	 0.124325
H	 0.053909639	-0.9877552082	-2.1297656783	 0.093862
H	 1.6467622576	-0.9163641958	-1.2753868509	 0.103652
H	 0.1127241082	-2.9337145369	 0.0768424709	 0.084582
H	-0.990746725	-1.834387737	 2.306552659	 0.106263
H	-1.0535798354	-0.0378543891	 2.2968457141	 0.091791
H	-3.1770959503	-0.1549673606	-0.0824700934	 0.087473
H	-2.4907631873	-0.9922933527	-1.4892652883	 0.08554
H	-4.0955926403	-2.2681716937	-0.3314306996	 0.289141
76.8515	136.1205	190.3982	227.799	257.8063	268.4407	296.0087	398.7527	451.7883	501.3998	618.7723	658.729	711.3393	793.7419	854.2359	876.1488	891.4332	912.4556	948.523	959.2832	1007.9716	1019.1711	1062.4195	1089.899	1109.956	1133.8071	1154.4241	1165.4397	1186.1334	1209.774	1219.8256	1254.7127	1262.519	1296.576	1320.2353	1340.0617	1407.2788	1463.3489	1482.57	1485.7323	1492.1511	1510.0833	1522.8902	2954.6902	2981.9987	3030.7611	3038.6849	3051.8198	3097.6905	3100.0624	3105.1591	3112.5432	3114.7467	3827.0731
CC12CC3N1CC23CO	C[C@@]12C[C@H]3N1C[C@@]23CO	
InChI=1S/C7H11NO/c1-6-2-5-7(6,4-9)3-8(5)6/h5,9H,2-4H2,1H3	InChI=1S/C7H11NO/c1-6-2-5-7(6,4-9)3-8(5)6/h5,9H,2-4H2,1H3/t5-,6+,7+/m1/s1
