13
gdb 132444	3.19431	1.39873	0.97337	6.0158	68.15	-0.2065	-0.0424	0.1641	1090.1572	0.088773	-497.90625	-497.898764	-497.897819	-497.938145	28.569	
N	 0.0755629663	 1.3536135375	 0.1654164806	-0.559176
C	-0.0747721591	-0.0035459721	 0.05909539	 0.463465
C	-1.2527360675	-0.6928772007	 0.0306329752	-0.275251
C	-1.1847463596	-2.108836463	-0.0111858646	-0.166165
C	 0.0104395635	-2.749774291	-0.026580441	 0.073068
F	 0.0952882549	-4.0806436733	-0.0675365384	-0.064379
C	 1.2669148495	-2.0442756451	-0.0056765666	 0.344474
O	 2.3833147548	-2.4786929298	-0.0230031513	-0.33707
O	 1.1094886651	-0.6327236907	 0.0353439573	-0.255319
H	 0.9752164896	 1.7124976128	-0.116712807	 0.273685
H	-0.7128296291	 1.9191206337	-0.1053883958	 0.269204
H	-2.1987657342	-0.1710780099	 0.0506424901	 0.104649
H	-2.0941971643	-2.6997988583	-0.0333601185	 0.128815
117.1044	174.0157	303.5047	320.0304	353.2312	376.9546	414.27	458.1296	484.6725	523.5785	594.0049	698.6003	743.4147	749.6855	769.2308	785.4643	945.8263	972.5236	1022.7506	1087.9335	1129.0511	1269.7277	1313.1699	1400.0034	1448.7052	1605.8425	1644.5145	1687.5196	1857.6653	3194.2567	3229.9766	3587.8487	3703.4704
NC1=CC=C(F)C(=O)O1	Nc1ccc(F)c(=O)o1	
InChI=1S/C5H4FNO2/c6-3-1-2-4(7)9-5(3)8/h1-2H,7H2	InChI=1S/C5H4FNO2/c6-3-1-2-4(7)9-5(3)8/h1-2H,7H2
