14
gdb 128259	3.91581	1.22612	0.93927	5.0643	69.25	-0.2474	-0.0616	0.1858	1172.8178	0.100836	-470.009421	-470.001119	-470.000175	-470.043709	28.691	
C	-0.04694789	 1.48119798	-0.0147280592	-0.324816
N	 0.0374770816	 0.0310581312	-0.0439314401	-0.343708
C	 0.5907429124	-0.6972328925	-1.0275442287	 0.552159
N	 0.5987757881	-1.9955157899	-0.9777097021	-0.420757
C	 1.1923984722	-2.6622853894	-2.0253463815	 0.36301
O	 1.2747858833	-3.8689928971	-2.1204650667	-0.351214
C	 1.7582524498	-1.7841747504	-3.091756698	-0.046733
N	 1.7321030301	-0.507850078	-3.1113637823	-0.053183
O	 1.1001169934	 0.0936982692	-2.0016423248	-0.263046
H	 0.9438912712	 1.9359614953	-0.0993189699	 0.155625
H	-0.6738948824	 1.8670411566	-0.8251642567	 0.150732
H	-0.4865788329	 1.7759872065	 0.938713258	 0.142758
H	-0.3730325842	-0.519626754	 0.6924370704	 0.277715
H	 2.2441706173	-2.2474793075	-3.9457654283	 0.161459
33.3719	97.3839	106.955	194.6133	203.0026	387.2991	411.2965	469.8623	500.1655	563.2859	611.839	722.2119	738.5682	777.0039	926.0673	953.201	959.7144	969.8443	1075.9875	1158.7291	1195.8598	1266.3155	1315.3242	1407.9899	1454.1189	1481.3421	1485.4905	1519.7287	1648.7754	1688.2402	1796.1662	3043.4028	3103.6641	3148.2603	3189.6127	3657.325
CNC1=NC(=O)C=NO1	CNc1nc(=O)cno1	
InChI=1S/C4H5N3O2/c1-5-4-7-3(8)2-6-9-4/h2H,1H3,(H,5,7,8)	InChI=1S/C4H5N3O2/c1-5-4-7-3(8)2-6-9-4/h2H,1H3,(H,5,7,8)
