19
gdb 92221	3.08461	1.76108	1.61887	2.2034	72.99	-0.2438	0.0793	0.323	911.4495	0.162892	-423.013594	-423.007098	-423.006154	-423.044127	28.007	
O	 0.1071373861	 1.4297130544	-0.1064166281	-0.444893
C	 0.058696251	 0.0141985051	-0.0287471206	 0.126258
C	 0.6942488466	-0.5524017419	 1.2777818304	-0.260583
C	-0.5480770961	-0.8901600099	 2.0970955957	 0.096969
O	-1.3184825142	 0.3497268265	 2.2110605781	-0.314497
C	-2.2607231244	 0.1678444429	 1.1309223004	 0.084745
C	-2.8874682547	-1.2042062767	 1.4524764196	-0.245418
C	-1.4536670891	-1.6756987934	 1.1167274347	-0.075325
C	-1.3823910057	-0.5320351123	 0.0443160743	-0.053496
H	-0.2440292335	 1.7503384096	 0.7337386705	 0.286362
H	 0.5788146263	-0.3430870504	-0.9213510043	 0.08203
H	 1.2849727003	-1.4556501538	 1.0839068511	 0.096279
H	 1.3425422234	 0.1864495148	 1.7554711822	 0.108579
H	-0.3887629544	-1.3153739837	 3.089578156	 0.074933
H	-2.826855318	 1.084335647	 0.973374512	 0.084139
H	-3.2718964773	-1.3470866423	 2.4651141728	 0.101255
H	-3.6153172154	-1.5309820611	 0.7068737908	 0.10354
H	-1.1872518764	-2.7117517893	 0.9112029717	 0.073641
H	-1.8930778845	-0.7164750755	-0.8999153475	 0.075481
147.1579	267.2587	373.8223	444.8599	458.314	494.113	507.7326	621.7562	685.7933	782.2624	812.156	840.5059	845.977	867.9604	886.641	914.9016	937.8967	958.6161	967.4474	990.1691	1016.5918	1041.9502	1059.1081	1069.1588	1103.0089	1113.2513	1157.3908	1184.3522	1223.6147	1227.7534	1242.1054	1256.5441	1276.6061	1296.1365	1315.8949	1323.3127	1346.2194	1354.0045	1445.2778	1471.8711	1487.8643	3038.1857	3066.1206	3074.8499	3097.9207	3106.5364	3122.4648	3127.7491	3131.0894	3139.9463	3778.9479
OC1CC2OC3CC2C13	O[C@H]1C[C@H]2O[C@@H]3C[C@H]2[C@H]13	
InChI=1S/C7H10O2/c8-4-2-5-3-1-6(9-5)7(3)4/h3-8H,1-2H2	InChI=1S/C7H10O2/c8-4-2-5-3-1-6(9-5)7(3)4/h3-8H,1-2H2/t3-,4+,5-,6-,7-/m1/s1
