19
gdb 55101	4.41113	0.89753	0.84319	3.9365	77.04	-0.2474	-0.0158	0.2316	1409.3006	0.157065	-423.015711	-423.006641	-423.005697	-423.050729	33.125	
C	 0.2033831738	 1.6063319254	-0.5041590643	-0.482269
C	-0.1958674555	 0.2288913906	-0.0087430549	 0.377157
O	-0.7024739938	 0.0586177101	 1.0771227223	-0.299263
C	 0.1125908053	-0.9326278563	-0.9352440753	-0.089641
C	 1.5120316061	-1.6156008722	-0.6873350248	-0.332308
C	 0.7873851298	-2.9588640616	-0.7896580479	 0.469532
C	 1.1528684634	-4.1256850937	-1.5933918188	-0.269132
O	 1.2012633925	-4.1502675836	-0.1574501715	-0.266775
C	-0.5760567188	-2.2912989102	-0.6272389021	-0.33337
H	-0.4133475629	 1.8804297023	-1.3684406349	 0.142015
H	 0.0683346643	 2.3448493497	 0.2867470496	 0.143607
H	 1.2443759998	 1.6080994364	-0.8464386388	 0.13927
H	 0.0153072465	-0.6294278185	-1.9808382268	 0.080032
H	 2.3111791507	-1.404123533	-1.4007334685	 0.110816
H	 1.8729099308	-1.4368720295	 0.3299298608	 0.130713
H	 0.3740746432	-4.740646645	-2.0434616521	 0.116647
H	 2.1208405903	-4.1630010147	-2.0924861198	 0.114531
H	-0.9180327228	-2.3073244849	 0.4110088185	 0.142372
H	-1.3850158227	-2.6100042416	-1.2876639507	 0.106065
32.9618	60.7599	137.8299	165.1075	242.9394	313.2173	319.4307	384.4965	397.7399	538.6217	585.3868	605.8532	693.6268	822.6119	837.9525	874.1204	888.5978	927.3471	936.7137	965.2538	1001.9428	1032.7998	1068.0791	1113.1058	1125.919	1158.7897	1182.159	1193.7742	1207.5349	1227.2272	1251.5129	1256.4055	1360.3953	1383.3571	1437.8823	1462.4938	1465.4817	1475.8314	1489.8346	1538.8554	1808.1825	3033.2645	3059.5884	3068.7861	3074.9894	3076.6568	3093.3016	3120.9312	3128.3167	3152.7032	3163.1027
CC(=O)C1CC2(CO2)C1	CC(=O)[C@H]1C[C@]2(CO2)C1	
InChI=1S/C7H10O2/c1-5(8)6-2-7(3-6)4-9-7/h6H,2-4H2,1H3	InChI=1S/C7H10O2/c1-5(8)6-2-7(3-6)4-9-7/h6H,2-4H2,1H3/t6-,7+
