12
gdb 9040	5.95245	0.86517	0.79443	2.1371	73.46	-0.255	-0.0582	0.1968	1337.955	0.080352	-381.282296	-381.274027	-381.273083	-381.31557	28.86	
O	-0.037535201	 1.5171882681	 0.0301636424	-0.402687
C	 0.0062351536	 0.1190848184	 0.067548055	-0.163502
C	 0.7021063308	-0.4286707706	-1.1893097315	 0.144692
O	 1.1519481036	 0.3185888701	-2.0176318008	-0.243643
C	 0.7071653026	-0.4142803204	 1.2379469413	 0.517871
C	 1.2946657897	-0.8726665984	 2.1914679901	-0.371103
C	 1.9549605602	-1.3854078444	 3.2642381759	 0.308773
C	 2.5403636955	-1.8425896513	 4.2159132761	-0.546849
H	 0.4934248676	 1.7703399507	-0.7429802965	 0.300669
H	-1.0203793515	-0.288772163	 0.061677591	 0.133488
H	 0.7692846652	-1.5294381737	-1.2707390396	 0.122633
H	 3.0562695237	-2.2423660855	 5.0536960968	 0.199656
64.233	93.2345	150.6173	236.2479	280.9555	310.4733	399.6864	447.2306	486.2574	537.8721	558.6291	596.8323	619.0449	696.3456	778.8286	859.0654	1013.3253	1120.6045	1174.2397	1234.5395	1324.1489	1387.2908	1429.8521	1824.0448	2181.6972	2358.2144	2951.4914	2972.0399	3502.8596	3680.4626
OC(C=O)C#CC#C	O[C@@H](C=O)C#CC#C	
InChI=1S/C6H4O2/c1-2-3-4-6(8)5-7/h1,5-6,8H	InChI=1S/C6H4O2/c1-2-3-4-6(8)5-7/h1,5-6,8H/t6-/m1/s1
