21
gdb 23147	1.97417	1.13743	0.7942	1.3579	83.62	-0.2311	0.0029	0.2341	1504.1016	0.181583	-420.3412	-420.331103	-420.330159	-420.376931	36.731	
C	-0.1776190457	 1.521161512	 0.6889467706	-0.380481
C	-0.234160891	-0.0024102644	 0.8223167804	-0.16853
C	 1.128637958	-0.6711721001	 0.5486541218	-0.281276
C	 1.0935512204	-2.1734253837	 0.7021015052	 0.342237
N	 0.88388741	-2.8282921859	-0.3796366375	-0.185067
O	 0.8390035171	-4.2173422928	-0.1720391274	-0.398743
C	 1.2515912277	-2.8159750482	 2.034835135	-0.070043
C	 2.4725822646	-2.5462867714	 2.8550674435	-0.235953
N	 1.1684462277	-2.0491622074	 3.2934489532	-0.321588
H	 0.1453448993	 1.8182603981	-0.314831485	 0.11925
H	-1.1581845884	 1.9712022831	 0.8709462811	 0.117451
H	 0.5272263395	 1.9588419002	 1.405119549	 0.112574
H	-0.5946099526	-0.2745818132	 1.8221765846	 0.107109
H	-0.9633194138	-0.4157229491	 0.1165473562	 0.115656
H	 1.4393109797	-0.4431371601	-0.4748297543	 0.122337
H	 1.890764284	-0.2399360073	 1.2123964367	 0.09568
H	 0.6379500566	-4.543661523	-1.0549078718	 0.306448
H	 0.8165374274	-3.8055714994	 2.101450519	 0.122499
H	 2.8929393003	-3.3484910449	 3.4546113219	 0.128247
H	 3.2010230651	-1.8405360402	 2.4637429978	 0.117702
H	 1.0958892741	-1.0538098122	 3.1012472301	 0.234493
58.7721	73.4903	102.9854	136.1958	223.7338	249.7583	262.4876	305.0861	323.2494	358.6883	419.3175	466.0983	617.7862	682.7819	743.3575	764.9599	825.8396	871.073	893.0063	913.9285	969.5702	977.1585	997.3073	1043.6609	1081.432	1108.4051	1116.538	1148.4454	1174.0865	1246.5212	1255.4425	1289.1073	1298.464	1312.1792	1327.0583	1374.6057	1378.1286	1413.0026	1416.9098	1482.4184	1494.0411	1499.5292	1510.2772	1512.4267	1710.7548	3014.5137	3029.146	3031.8829	3064.4774	3089.284	3100.7884	3106.09	3109.245	3187.3907	3198.6979	3517.5241	3826.6593
CCCC(=NO)C1CN1	CCCC(=NO)[C@H]1CN1	
InChI=1S/C6H12N2O/c1-2-3-5(8-9)6-4-7-6/h6-7,9H,2-4H2,1H3	InChI=1S/C6H12N2O/c1-2-3-5(8-9)6-4-7-6/h6-7,9H,2-4H2,1H3/t6-/m1/s1
