18
gdb 42663	2.51777	1.90928	1.69262	2.876	74.04	-0.235	-0.0188	0.2161	903.1456	0.151592	-401.965894	-401.959214	-401.958269	-401.996893	27.194	
O	-0.0609220103	 0.0731974678	 0.1911392493	-0.342786
C	-0.0479784548	 1.2704335525	 0.0546709942	 0.445268
C	-1.2246521736	 2.1843716465	-0.0601799543	-0.17398
C	-1.0442896412	 3.4901300544	 0.6696654744	-0.003665
C	 0.0895328656	 3.7012618923	 1.6620242775	-0.240756
C	 1.3435378407	 2.8473867417	 1.3328902622	-0.229324
C	 1.1747254016	 2.1935004552	-0.0573863424	-0.158586
C	 0.6665870071	 3.2407654153	-1.056878548	-0.171571
N	-0.7861783457	 3.4235730496	-0.764872359	-0.120678
H	-2.2074330893	 1.7820593448	-0.2771318205	 0.10793
H	-1.962996838	 4.0232888616	 0.9067299402	 0.101765
H	 0.3413430993	 4.768212134	 1.6591921959	 0.11703
H	-0.2793291942	 3.4828761121	 2.6692879863	 0.1183
H	 2.2446392013	 3.468667568	 1.3355447485	 0.108073
H	 1.4920099762	 2.0695089462	 2.0880898018	 0.122303
H	 2.0666934397	 1.6494785693	-0.3677880668	 0.092915
H	 1.1780178933	 4.205617645	-0.9791379939	 0.108714
H	 0.7519434724	 2.8928863637	-2.0907856357	 0.11905
115.4484	173.0532	320.2759	396.1489	453.6341	465.2383	565.9337	642.3461	711.3704	734.525	782.4759	790.5061	812.4556	859.114	889.6316	928.9111	956.0311	997.4968	1026.8592	1049.7575	1084.7674	1089.2646	1100.1236	1171.7834	1191.742	1211.5548	1244.835	1252.8031	1276.2481	1306.2766	1318.3348	1334.3358	1348.6643	1370.8154	1414.2116	1485.8038	1498.1242	1512.4996	1844.801	3034.8057	3046.9924	3049.8495	3068.7224	3091.0494	3093.9665	3117.2471	3124.8355	3185.3493
O=C1C2C3CCC1CN23	O=C1[C@H]2[C@H]3CC[C@@H]1CN23	
InChI=1S/C7H9NO/c9-7-4-1-2-5-6(7)8(5)3-4/h4-6H,1-3H2	InChI=1S/C7H9NO/c9-7-4-1-2-5-6(7)8(5)3-4/h4-6H,1-3H2/t4-,5-,6-,8?/m1/s1
