18
gdb 7677	3.87925	1.54967	1.51224	3.3785	72.94	-0.2368	-0.0082	0.2286	937.1938	0.152569	-347.803535	-347.795653	-347.794709	-347.835259	30.429	
C	-0.0196882339	 1.5315932862	-0.0420035166	-0.460661
C	 0.0564889736	 0.0142200086	-0.0673259341	 0.32149
C	-1.1671982805	-0.6484068207	 0.5495381341	-0.451889
C	 0.6953027144	-0.761026526	-1.1720923767	-0.092644
C	 1.9005108851	-0.0313214099	-1.7823804224	-0.378315
C	 2.5420631703	-0.057028419	-0.3677344861	 0.406376
O	 3.6423880406	 0.2032932548	 0.0313109861	-0.318784
C	 1.3566600843	-0.7415481386	 0.2413263901	-0.214784
H	 0.8689294044	 2.0142877384	-0.4528582725	 0.130174
H	-0.887429595	 1.8799781386	-0.6142568769	 0.118114
H	-0.1387869435	 1.8864817422	 0.987409648	 0.124395
H	-2.0739887341	-0.3527517876	 0.0100956212	 0.122066
H	-1.0961746394	-1.7397084845	 0.5172667311	 0.118452
H	-1.2896775402	-0.3481432993	 1.5956487146	 0.124255
H	 0.206170503	-1.612019643	-1.6298365045	 0.097952
H	 2.4888777081	-0.6640603419	-2.4539486469	 0.131445
H	 1.731143241	 0.9346838613	-2.2646404965	 0.119994
H	 1.3850184016	-1.4914944197	 1.023218298	 0.102364
111.3829	191.7837	205.5582	243.5844	286.0973	351.1123	386.9198	450.937	482.0782	558.3245	642.0617	667.5548	825.6149	835.0163	865.5915	922.4464	960.4015	970.6437	996.224	1021.3323	1034.0995	1043.3364	1079.1083	1124.6358	1149.1153	1188.4527	1229.7707	1267.7657	1294.6494	1393.3912	1410.6615	1428.4821	1459.7655	1481.7895	1492.2332	1502.7809	1512.2956	1876.5646	3028.0722	3033.5567	3060.578	3089.29	3094.0175	3106.8939	3111.2562	3127.7966	3182.6878	3192.301
CC1(C)C2CC(=O)C12	CC1(C)[C@H]2CC(=O)[C@@H]12	
InChI=1S/C7H10O/c1-7(2)4-3-5(8)6(4)7/h4,6H,3H2,1-2H3	InChI=1S/C7H10O/c1-7(2)4-3-5(8)6(4)7/h4,6H,3H2,1-2H3/t4-,6-/m0/s1
