23
gdb 76636	2.76213	1.09468	0.91366	1.6047	86.58	-0.2366	0.0817	0.3184	1400.7941	0.205173	-388.261657	-388.251729	-388.250785	-388.297251	36.271	
C	-0.2793419597	 0.816678217	-1.9396052703	-0.407941
C	-0.0009933098	-0.2643505496	-0.9140877471	-0.035054
C	 1.3838261139	-0.5829536687	-0.3950915684	-0.028841
C	 2.631313433	 0.1564408023	-0.8330655334	-0.406528
C	 0.3505969716	 0.0233815481	 0.5381033391	-0.041894
C	 0.4786388884	 1.4124390516	 1.0842830357	 0.155578
C	-0.7151370062	 2.005628445	 1.8727396881	-0.296968
C	 0.3110013973	 2.1930200774	 3.0054336697	-0.061198
O	 1.3158858745	 1.462018415	 2.274782035	-0.298274
H	 0.380205984	 1.6815866769	-1.8404901313	 0.118011
H	-0.1491944546	 0.4243622286	-2.9544583258	 0.117061
H	-1.3101120623	 1.1794289666	-1.8575344819	 0.116628
H	-0.6445996504	-1.1314182443	-1.0437109484	 0.081793
H	 1.56711103	-1.6401289795	-0.2182080874	 0.082197
H	 2.451548407	 1.2141316782	-1.038218099	 0.115235
H	 3.4017398509	 0.1038614566	-0.0568839242	 0.129903
H	 3.0431878725	-0.287423361	-1.7462704226	 0.111958
H	-0.0745664373	-0.6617130916	 1.26847505	 0.07592
H	 0.8657282602	 2.1078053144	 0.3297375358	 0.062773
H	-1.1726764594	 2.9077639839	 1.4636848306	 0.105355
H	-1.4949239186	 1.2732213449	 2.0927489182	 0.107387
H	 0.6106688917	 3.2347726263	 3.1843277367	 0.095096
H	 0.0804169034	 1.7238839518	 3.968957021	 0.101804
43.8365	87.783	110.009	151.3416	173.2179	194.8463	251.1435	276.8085	363.8052	462.2095	471.7273	565.734	736.6219	757.8058	778.2506	821.3789	868.6169	934.0004	938.1562	945.4581	978.559	1007.0296	1023.2067	1045.1098	1052.2632	1095.3054	1105.6992	1135.3432	1159.0328	1166.0446	1187.0397	1201.2427	1217.7539	1253.7598	1269.627	1286.4903	1319.9932	1355.0468	1379.2821	1417.7063	1419.8017	1424.9888	1459.2109	1489.093	1490.0951	1493.0634	1502.11	1515.3202	1533.7741	3004.062	3023.2381	3031.3405	3036.9684	3051.409	3073.9309	3084.9793	3093.3325	3107.0977	3116.2185	3123.1802	3126.3293	3130.3554	3142.1921
CC1C(C)C1C1CCO1	C[C@H]1[C@@H](C)[C@H]1[C@H]1CCO1	
InChI=1S/C8H14O/c1-5-6(2)8(5)7-3-4-9-7/h5-8H,3-4H2,1-2H3	InChI=1S/C8H14O/c1-5-6(2)8(5)7-3-4-9-7/h5-8H,3-4H2,1-2H3/t5-,6+,7-,8-/m1/s1
