19
gdb 107856	3.58774	1.37109	1.33251	2.0948	73.84	-0.2447	0.0692	0.3139	1033.1592	0.161087	-422.981599	-422.974357	-422.973412	-423.013258	29.577	
O	-0.0122935362	 1.4005915569	-0.198520059	-0.416909
C	 0.0244297186	-0.001539645	 0.0050678618	-0.18308
C	-1.3642934519	-0.5672962326	 0.1206303318	 0.399955
C	-2.3579935532	-0.0728105488	 1.1933361521	-0.232843
C	-3.3956013723	-1.1701463547	 0.8808993495	-0.090931
C	-2.6193538413	-2.4537596114	 1.2810243257	-0.254693
C	-1.7312485397	-2.1093255685	 0.074828983	-0.131704
C	-2.9307458711	-1.4455025925	-0.6314386959	 0.117573
O	-2.1612700906	-0.3347542204	-1.0982043133	-0.344718
H	-0.585105268	 1.5504669655	-0.9598832296	 0.29757
H	 0.5613486518	-0.5132762639	-0.8085225358	 0.093865
H	 0.577903396	-0.1752851541	 0.9343271966	 0.111815
H	-1.9823610314	-0.1281958916	 2.2188479619	 0.096292
H	-2.6798002372	 0.9457233244	 0.9738580173	 0.109122
H	-4.4349157816	-1.0104074016	 1.1614144104	 0.069388
H	-2.1821653374	-2.4908157326	 2.2830265006	 0.097292
H	-3.1852579452	-3.3708901713	 1.093060193	 0.10234
H	-1.0339824818	-2.7886716437	-0.4132734753	 0.074506
H	-3.6067102276	-1.896922344	-1.355838155	 0.085159
87.6896	162.0743	276.1475	327.583	414.2433	455.6485	463.7374	539.4223	653.2445	686.3504	757.0569	791.9549	828.4209	844.829	857.0289	908.0851	931.6238	962.8686	972.8586	999.0284	1015.993	1042.642	1053.3771	1067.0643	1117.0488	1122.5026	1152.058	1178.1914	1199.9329	1216.3498	1235.2838	1257.9124	1270.0805	1281.6982	1307.9933	1356.0058	1384.1091	1436.9439	1481.322	1495.3599	1504.7318	2987.4663	3050.0092	3067.6252	3073.4642	3103.5988	3126.1674	3130.4253	3134.9056	3141.9304	3797.1149
OCC12CC3CC1C3O2	OC[C@]12C[C@@H]3C[C@H]1[C@@H]3O2	
InChI=1S/C7H10O2/c8-3-7-2-4-1-5(7)6(4)9-7/h4-6,8H,1-3H2	InChI=1S/C7H10O2/c8-3-7-2-4-1-5(7)6(4)9-7/h4-6,8H,1-3H2/t4-,5-,6+,7+/m0/s1
