17
gdb 58078	1.80641	1.68414	1.11826	5.0682	74.81	-0.2742	-0.0045	0.2697	1142.7975	0.133215	-417.969654	-417.959597	-417.958653	-418.004021	37.093	
C	-0.0162385268	 1.5587924074	 0.1827912787	-0.428032
C	-0.0166190003	 0.0340004702	 0.0653068994	 0.152667
O	-1.3167215101	-0.4982096563	 0.0758869545	-0.429445
C	 0.7131631792	-0.4666827428	-1.2409018075	-0.14067
N	-0.1167841637	-0.0392857372	-2.3917621991	-0.541225
C	 2.1020742773	 0.0072150423	-1.3064181717	 0.313335
C	 3.2239139953	 0.4326625926	-1.3720069403	-0.419307
C	 0.7204223602	-1.9449298988	-1.2217037349	 0.313459
N	 0.7511360366	-3.0990147918	-1.2253200986	-0.332276
H	 0.9985594545	 1.9629054453	 0.2179502998	 0.131863
H	-0.5528104607	 2.0193222516	-0.6535217568	 0.115538
H	-0.5386782944	 1.8368874612	 1.101105694	 0.138228
H	 0.5108224541	-0.4018941585	 0.9193407201	 0.113535
H	-1.6786623983	-0.3300355261	-0.8070469144	 0.291099
H	 0.1177313575	 0.9219699196	-2.6219087998	 0.250689
H	 0.1091470207	-0.5985504104	-3.2085249448	 0.258837
H	 4.2215746889	 0.7944384517	-1.4285039486	 0.211706
89.275	131.8959	138.5144	172.3882	228.9908	248.6774	267.092	290.5622	334.3049	385.0874	484.7208	497.487	516.0381	520.5951	574.9103	596.9368	656.204	671.35	716.1546	873.3243	910.7751	958.9331	1025.2807	1075.7595	1107.7426	1121.411	1160.8143	1284.1357	1317.7759	1364.3378	1402.6753	1431.5103	1492.5994	1498.6311	1652.3545	2232.3887	2367.6793	3044.386	3070.7971	3117.9001	3134.8622	3496.3852	3502.6481	3583.5462	3724.6663
CC(O)C(N)(C#C)C#N	C[C@@H](O)[C@@](N)(C#C)C#N	
InChI=1S/C6H8N2O/c1-3-6(8,4-7)5(2)9/h1,5,9H,8H2,2H3	InChI=1S/C6H8N2O/c1-3-6(8,4-7)5(2)9/h1,5,9H,8H2,2H3/t5-,6-/m1/s1
