17
gdb 101549	2.50155	1.06307	0.83735	1.2274	66.44	-0.2706	-0.0898	0.1807	1373.1993	0.132526	-496.128823	-496.118849	-496.117905	-496.164879	34.165	
C	 0.0408383179	 1.5734002913	 0.1468953466	-0.400929
C	 0.0646466642	 0.0648699575	-0.0546877721	 0.104402
C	 0.68250715	-0.7056260956	 1.1103685062	-0.071989
O	 0.0149210183	-0.465936246	 2.3315747826	-0.416213
O	-1.305439461	-0.4398322129	-0.1310479525	-0.248192
C	-1.9191399862	-0.3942207263	-1.309217742	 0.343985
O	-1.4668831303	 0.0250545601	-2.3458030314	-0.342797
C	-3.3429778063	-0.9620363032	-1.2397476062	 0.091698
O	-3.8553031306	-1.3886051609	-0.2438151518	-0.213963
H	 1.0666324541	 1.9532223361	 0.1812574412	 0.126851
H	-0.4767819801	 2.0651384528	-0.679274745	 0.13854
H	-0.4495524904	 1.8197445458	 1.0909876655	 0.141952
H	 0.5672661098	-0.1938658557	-0.9913962734	 0.111857
H	 0.6999378882	-1.7772857124	 0.8610803947	 0.099996
H	 1.71805926	-0.3763268271	 1.2447538214	 0.117553
H	-0.8970554622	-0.7563288056	 2.2143778321	 0.298583
H	-3.8414552756	-0.9275761181	-2.2288146758	 0.118667
48.317	82.1787	86.3321	136.0394	163.663	221.4597	238.2078	273.1297	352.2612	421.0306	433.6799	511.5221	606.6823	635.2652	686.6083	844.5468	879.8819	928.5041	976.5794	1010.2175	1029.0887	1072.8184	1142.2939	1152.5586	1241.4726	1300.2496	1347.647	1373.2502	1377.7391	1390.4489	1418.1405	1428.2385	1488.2631	1494.1204	1499.1807	1805.4283	1841.2333	2950.5912	2995.2425	3053.2791	3077.1407	3083.0384	3125.5183	3147.3699	3801.8604
CC(CO)OC(=O)C=O	C[C@@H](CO)OC(=O)C=O	
InChI=1S/C5H8O4/c1-4(2-6)9-5(8)3-7/h3-4,6H,2H2,1H3	InChI=1S/C5H8O4/c1-4(2-6)9-5(8)3-7/h3-4,6H,2H2,1H3/t4-/m0/s1
