16
gdb 39550	3.42349	2.12103	1.70422	2.3077	69.7	-0.235	0.0199	0.2549	805.0409	0.128448	-400.712222	-400.706611	-400.705667	-400.74191	24.071	
O	-0.0189586507	 1.483472642	 0.0467547094	-0.249366
C	 1.1469792199	 2.167026885	-0.0681222487	 0.132363
N	 2.3246336291	 1.7188543304	-0.1931494683	-0.290765
C	 2.4563725988	 0.2716670138	-0.250146288	 0.034856
C	 2.2512216558	-0.5380001875	 1.0339845434	-0.081481
C	 0.73522435	-0.6402033382	 1.2274163347	-0.108968
C	 1.4680277837	-1.6031393648	 0.3048344561	-0.103543
C	 1.2517363397	-0.5341617244	-0.8211636391	-0.139996
C	 0.1058129041	 0.0535695756	 0.0323408996	 0.137519
H	 0.9514585535	 3.2375956635	-0.048870797	 0.123532
H	 3.3949008716	 0.0039487753	-0.7405013711	 0.080651
H	 2.9280514874	-0.6523658659	 1.870363139	 0.095495
H	 0.2941375034	-0.8417004576	 2.194196499	 0.095322
H	 1.5242261816	-2.6802151384	 0.3032899263	 0.100675
H	 1.1347534759	-0.7014761443	-1.887890189	 0.080036
H	-0.881757624	-0.3346743446	-0.2188678564	 0.093669
219.0534	313.3813	426.6489	566.2312	574.5693	583.2741	730.9402	775.1551	799.7403	810.499	824.5743	864.701	905.9404	926.1786	946.9419	972.7223	1002.995	1010.6067	1024.9427	1034.9133	1037.1946	1066.7898	1086.1588	1150.6053	1163.0006	1172.8513	1175.6327	1242.7857	1273.8482	1316.7777	1347.7115	1364.9997	1372.6615	1410.1624	1709.1188	3086.0004	3113.3585	3159.6799	3160.5707	3202.2512	3210.9937	3244.7781
O1C=NC2C3C4C3C2C14	O1C=N[C@H]2[C@H]3[C@@H]4[C@H]3[C@H]2[C@H]14	
InChI=1S/C7H7NO/c1-8-6-3-2-4(3)7(9-1)5(2)6/h1-7H	InChI=1S/C7H7NO/c1-8-6-3-2-4(3)7(9-1)5(2)6/h1-7H/t2-,3+,4-,5+,6-,7+/m0/s1
