16
gdb 31368	3.14719	1.30443	0.92765	5.8507	76.88	-0.2014	-0.0097	0.1917	1207.3018	0.126504	-434.098261	-434.090225	-434.089281	-434.131029	29.888	
C	-0.0869150358	 0.5394524471	 0.711083685	-0.252642
O	 0.1808973125	 0.8112708337	-0.6604394995	-0.259917
C	 0.6669638258	-0.2029220458	-1.3967585102	 0.503926
C	 0.948069706	-1.469435633	-1.0316153998	-0.326798
C	 1.4759808726	-2.4117040614	-2.0165874309	 0.333031
N	 1.7481910667	-3.6194086978	-1.6843746929	-0.54772
N	 1.6703658509	-1.9321039289	-3.3407895164	-0.314202
C	 1.3780738752	-0.7151058874	-3.604221551	 0.0925
N	 0.8818497451	 0.1930627251	-2.7044233112	-0.37991
H	-0.838641515	-0.2507504506	 0.8129161004	 0.143912
H	 0.8271882387	 0.2408747315	 1.235631168	 0.143912
H	-0.4682271486	 1.4700210076	 1.1314931757	 0.144392
H	 0.7969194982	-1.8240092476	-0.0232964808	 0.112276
H	 2.1015768407	-4.1071569376	-2.5099618623	 0.208235
H	 1.5176801475	-0.3232879278	-4.6104034518	 0.129673
H	 0.6684013294	 1.1416186932	-2.9665745322	 0.269331
94.4653	132.0794	197.1456	219.2625	250.4991	369.4631	418.1244	486.9327	489.8392	533.6593	582.0626	669.4659	737.8838	782.7251	845.8159	895.5445	902.5707	961.9864	1009.7152	1064.9568	1092.2356	1167.0163	1182.847	1206.2013	1266.0875	1323.794	1376.5561	1425.8434	1476.6619	1487.7346	1504.7467	1514.8135	1656.0531	1683.0625	1729.9426	3029.4981	3098.3648	3147.7717	3153.3156	3247.2534	3460.2633	3654.4156
COC1=CC(=N)N=CN1	CO[C@@H]1C=C([NH])N=CN1	
InChI=1S/C5H7N3O/c1-9-5-2-4(6)7-3-8-5/h2-3H,1H3,(H2,6,7,8)	InChI=1S/C5H8N3O/c1-9-5-2-4(6)7-3-8-5/h2-3,5-6H,1H3,(H,7,8)/t5-/m1/s1
