21
gdb 66682	2.41067	1.95959	1.58148	0.2318	85.72	-0.2288	0.0934	0.3222	985.1867	0.182904	-349.895262	-349.887423	-349.886479	-349.926908	32.134	
C	-0.0376823387	 1.4396661884	-0.0240400054	-0.519232
C	 0.0304422534	-0.0561028513	 0.031949112	 0.317007
C	-0.5936843305	-1.1005226034	-0.8790059493	-0.222059
C	 0.4742520226	-2.0946944988	-0.340123509	-0.043974
C	 1.2713194992	-0.930260829	 0.3589443861	-0.104383
C	 1.0221772823	-1.5791738228	 1.7424314024	-0.256123
C	-0.2373442293	-2.1698031998	 1.0626817193	-0.10442
C	-1.0872323966	-0.9744767654	 0.5530296494	 0.31701
C	-2.4098506871	-0.5095244735	 1.0818060472	-0.519225
H	 0.6647498472	 1.8428423904	-0.7628217242	 0.11757
H	-1.0379846864	 1.7869064379	-0.3032003048	 0.117863
H	 0.208710694	 1.8890827707	 0.9460917376	 0.116722
H	-1.1161272773	-0.9999792946	-1.8224791506	 0.076905
H	 0.9290538152	-2.9390232925	-0.8522717796	 0.063022
H	 2.251650276	-0.5804890299	 0.0332803992	 0.05612
H	 1.7632969712	-2.3535897584	 1.9670480955	 0.092644
H	 0.8927956419	-0.9272859158	 2.613258144	 0.086286
H	-0.7571225998	-3.0525877743	 1.4367995959	 0.056111
H	-2.3361464173	-0.2018511912	 2.1323977784	 0.11672
H	-2.7921767922	 0.345459299	 0.5144076248	 0.117862
H	-3.1637704578	-1.3031273757	 1.0221179408	 0.117575
177.9964	187.4275	210.4288	222.3471	254.1297	342.721	430.4653	517.2732	611.9312	629.0625	732.4702	747.6986	774.3523	828.309	834.4903	851.6991	877.8649	908.5954	922.5145	944.6352	960.8361	997.9542	1020.2219	1030.4162	1074.2424	1109.4756	1117.5286	1151.2045	1159.8721	1167.9586	1180.6341	1191.9488	1218.6979	1254.1158	1255.6541	1270.3544	1360.0516	1413.6132	1417.0459	1438.3512	1480.2024	1485.0956	1492.1681	1493.2458	1508.8475	3016.2571	3019.1797	3033.7315	3072.3194	3073.5401	3089.4068	3090.3339	3096.059	3105.1638	3106.2227	3142.5199	3184.5649
CC12C3C4C1CC4C23C	C[C@@]12[C@H]3[C@H]4[C@@H]1C[C@H]4[C@@]23C	
InChI=1S/C9H12/c1-8-4-3-5-6(4)7(8)9(5,8)2/h4-7H,3H2,1-2H3	InChI=1S/C9H12/c1-8-4-3-5-6(4)7(8)9(5,8)2/h4-7H,3H2,1-2H3/t4-,5+,6-,7+,8-,9+
