21
gdb 108605	2.63943	1.21425	0.90174	3.7534	88.1	-0.2296	-0.0318	0.1977	1352.2221	0.181572	-387.152842	-387.142899	-387.141954	-387.188902	35.466	
C	-0.3012959034	 1.4894728871	-0.0115893025	-0.374785
C	-0.0073989414	-0.0239452682	 0.0040703568	-0.287183
C	 0.7693994913	-0.4827158089	-1.1940521167	 0.220233
C	 2.0695276118	-0.835165771	-1.2465784607	 0.103179
C	 3.1008479455	-0.8855438597	-0.1647795946	-0.500621
C	 2.4361249764	-1.2182278601	-2.6307925177	 0.343821
O	 3.52786668	-1.5915570693	-3.0007351181	-0.336349
C	 1.1894863649	-1.062467527	-3.5091790806	-0.33913
C	 0.0897357321	-0.5847700298	-2.5473746192	-0.311425
H	 0.6277243555	 2.0673431284	-0.0142761588	 0.126863
H	-0.8786695447	 1.7780436728	-0.8950074048	 0.123559
H	-0.8782751826	 1.7761375382	 0.8724343178	 0.120689
H	 0.5306903363	-0.2756055428	 0.9231239655	 0.110148
H	-0.9609260036	-0.5680088883	 0.0384081019	 0.108512
H	 2.6803382146	-0.7124119061	 0.8283767599	 0.117752
H	 3.6062065949	-1.8568569098	-0.1701457043	 0.14338
H	 3.8811509694	-0.1361767844	-0.3410442798	 0.139758
H	 1.3983906813	-0.3501080553	-4.3128510933	 0.130383
H	 0.958684219	-2.0180433528	-3.988832936	 0.130596
H	-0.7557476629	-1.2828472904	-2.4950398644	 0.114302
H	-0.3383632148	 0.3795894175	-2.8466701904	 0.116319
40.1376	64.2534	86.2821	106.5266	204.2413	221.805	274.2582	309.4548	330.1446	496.1551	530.5645	581.8397	607.6949	649.3555	689.3503	787.401	836.5712	866.5145	958.4279	984.0843	993.587	1026.295	1065.0567	1067.3827	1079.0665	1125.6225	1155.6873	1189.6433	1230.3139	1263.1321	1293.7568	1314.3837	1337.4176	1357.5755	1408.5362	1416.173	1452.6738	1473.3197	1478.6152	1484.7094	1490.8324	1498.3904	1509.174	1703.2141	1802.3063	3017.9663	3024.5203	3037.2814	3041.424	3049.4298	3064.7358	3075.514	3088.9605	3104.0803	3114.0845	3116.5156	3124.5971
CCC1=C(C)C(=O)CC1	CCC1=C(C)C(=O)CC1	
InChI=1S/C8H12O/c1-3-7-4-5-8(9)6(7)2/h3-5H2,1-2H3	InChI=1S/C8H12O/c1-3-7-4-5-8(9)6(7)2/h3-5H2,1-2H3
