19
gdb 124797	2.4445	1.40993	1.00169	3.87	77.56	-0.2357	0.0189	0.2547	1220.2669	0.159359	-419.237258	-419.227761	-419.226817	-419.27205	34.549	
C	 0.03895138	 1.4479228591	-0.2385603583	-0.387281
C	 0.0040327274	-0.0194216531	 0.2166750395	 0.050689
O	 0.4741720953	-0.1245813867	 1.548985037	-0.442224
C	-1.3747518203	-0.6148594199	 0.0782133917	 0.267096
N	-2.1110436565	-0.7826102755	 1.1729232391	-0.318582
N	-3.2695071877	-1.3060916014	 0.7342392789	-0.199425
C	-3.284830455	-1.4780217888	-0.6097829724	-0.100732
C	-2.0667643813	-1.0385306133	-1.0879606439	 0.126196
C	-1.5908647424	-1.0279301186	-2.5084439357	-0.515662
H	 1.0471762957	 1.8483432305	-0.1012590598	 0.121587
H	-0.2354888146	 1.5482604284	-1.2940327047	 0.107338
H	-0.6574006202	 2.042477442	 0.3604755726	 0.118884
H	 0.6933820769	-0.592596188	-0.4219083293	 0.078181
H	-0.2994932902	-0.2979568353	 2.1007876881	 0.293233
H	-3.98779805	-1.5374807813	 1.3984061386	 0.274897
H	-4.1396290602	-1.8964226423	-1.1187294979	 0.135489
H	-1.4958823005	-0.0101314444	-2.904338103	 0.133924
H	-0.6076909415	-1.501906043	-2.6065385458	 0.133356
H	-2.284010495	-1.5684362284	-3.1590450449	 0.123037
37.2217	103.2311	153.8122	181.4132	246.4935	249.5738	278.984	304.7255	360.5322	452.535	476.3374	522.4236	622.9648	660.2984	730.6136	753.5935	791.6265	910.4579	957.699	1007.7658	1032.2359	1064.8878	1092.8195	1099.2071	1111.2604	1161.7231	1238.4448	1278.2756	1325.0524	1363.2181	1393.3648	1406.6655	1422.7927	1433.1261	1473.0737	1483.2331	1489.9164	1493.6949	1496.6293	1521.2267	1610.4882	2984.7214	3027.449	3036.0146	3076.62	3107.7462	3110.2339	3121.3694	3253.9666	3680.8052	3757.805
CC(O)C1=NNC=C1C	C[C@@H](O)c1n[nH]cc1C	
InChI=1S/C6H10N2O/c1-4-3-7-8-6(4)5(2)9/h3,5,9H,1-2H3,(H,7,8)	InChI=1S/C6H10N2O/c1-4-3-7-8-6(4)5(2)9/h3,5,9H,1-2H3,(H,7,8)/t5-/m1/s1
