20
gdb 73787	2.04904	1.75758	0.98813	3.4083	83.84	-0.2117	-0.0435	0.1682	1215.2396	0.170942	-403.185154	-403.175666	-403.174722	-403.220273	34.419	
C	 0.4952143822	 1.4843852087	 0.0452419576	-0.482883
C	 0.1830221838	 0.0169721485	-0.0411372056	 0.202738
C	-0.1356192091	-0.615513134	-1.1914923913	 0.112508
C	-0.2889756208	 0.0703834031	-2.5290252861	-0.504178
C	-0.2935443053	-2.0954055598	-1.193915729	 0.320949
O	-0.5573130183	-2.7207730096	-2.2046248696	-0.331612
C	-0.0525524344	-2.8152354749	 0.1322281109	-0.282846
N	-0.3890776552	-2.0282487054	 1.3147421166	-0.29118
C	 0.266373363	-0.7272531623	 1.2774289968	-0.257845
H	 1.4145811106	 1.6449265386	 0.6223498227	 0.134647
H	 0.6198720176	 1.9517841301	-0.9319650369	 0.134579
H	-0.3003181371	 2.0183980046	 0.5822000112	 0.135823
H	 0.6805761733	 0.3704808692	-2.9442644551	 0.127873
H	-0.7458685026	-0.6243535162	-3.2352404687	 0.153511
H	-0.9107385176	 0.9675456547	-2.4620565041	 0.120536
H	-0.6136638881	-3.7530270631	 0.1238629157	 0.127069
H	 1.0142182191	-3.0815188459	 0.1801750859	 0.125504
H	-1.3945632315	-1.8821780492	 1.3289511491	 0.220897
H	 1.3300797982	-0.8625091258	 1.5358596684	 0.12183
H	-0.1502660179	-0.0997393214	 2.0749466115	 0.112078
38.0447	83.3439	110.7339	134.942	223.0418	304.4099	319.5753	337.033	432.6236	440.8568	499.7241	544.3851	580.5073	638.0333	742.4061	807.8211	867.5302	898.3222	955.5612	981.026	1030.2658	1056.2017	1085.4886	1105.9333	1139.7702	1161.2834	1193.0624	1214.7974	1314.4249	1327.5533	1331.1719	1385.8028	1401.4825	1407.4256	1453.8659	1468.6281	1472.3796	1479.9112	1492.908	1496.7184	1504.7094	1688.8316	1762.0184	2973.6701	3003.6444	3018.9257	3033.4096	3046.1493	3064.5592	3091.8623	3102.7967	3140.1209	3143.7646	3501.2237
CC1=C(C)C(=O)CNC1	CC1=C(C)C(=O)CNC1	
InChI=1S/C7H11NO/c1-5-3-8-4-7(9)6(5)2/h8H,3-4H2,1-2H3	InChI=1S/C7H11NO/c1-5-3-8-4-7(9)6(5)2/h8H,3-4H2,1-2H3
