21
gdb 110634	2.37675	1.42606	1.09031	1.8226	82.21	-0.2223	0.061	0.2834	1223.7805	0.180742	-387.011976	-387.002966	-387.002022	-387.045915	34.638	
C	-0.0133217696	 1.4878479273	 0.4021276389	-0.39869
C	 0.0558143516	 0.1252886811	-0.2987953886	-0.181593
C	-1.3000035815	-0.5876873387	-0.2762068273	-0.046773
C	-1.9337122762	-1.4880044209	-1.3193076246	-0.183378
C	-0.9704407336	-2.5686247105	-1.886739705	 0.023796
O	 0.3407264207	-2.3914313865	-1.3299691632	-0.239574
C	-0.6630896183	-3.0540885492	-0.5483030224	-0.039967
C	-1.6405909066	-2.0104227091	 0.0958190464	 0.275873
C	-2.5928877645	-2.4152576862	 1.1837707774	-0.493575
H	 0.9594188229	 1.989446896	 0.3871093123	 0.109079
H	-0.7372206412	 2.1516109719	-0.0847062692	 0.110918
H	-0.3161977055	 1.3818154219	 1.4502547738	 0.111055
H	 0.3873084396	 0.2597873852	-1.3326289319	 0.105104
H	 0.8168194314	-0.4958602045	 0.1780566594	 0.109484
H	-2.0815574701	 0.0636905724	 0.1202931442	 0.083682
H	-2.8988839265	-1.2746864927	-1.763140782	 0.085456
H	-1.0468418773	-3.0793454863	-2.8389132105	 0.107297
H	-0.4360712895	-4.0437603406	-0.1684099978	 0.102728
H	-2.0762934223	-2.5338002572	 2.144718274	 0.121117
H	-3.376345413	-1.6629369318	 1.3194059801	 0.121162
H	-3.0845501403	-3.3687278616	 0.9546800959	 0.116799
39.0148	168.3729	187.8239	210.8797	226.4953	265.667	289.9558	343.3941	418.4135	510.2554	566.0504	674.3934	741.757	764.3535	789.5492	820.7449	859.6292	872.8474	912.1281	916.2496	935.7025	976.3754	1005.3267	1034.0494	1060.2963	1078.086	1113.5441	1132.7549	1150.6287	1188.3381	1225.5497	1258.185	1277.7384	1296.8971	1328.4778	1344.898	1391.3088	1409.5601	1417.0478	1467.7834	1479.4321	1484.6011	1499.2829	1500.1385	1506.0068	3014.4355	3024.6596	3060.7297	3068.3181	3080.0724	3085.8254	3096.7119	3101.1488	3110.6032	3175.706	3181.5679	3196.6492
CCC1C2C3OC3C12C	CC[C@H]1[C@H]2[C@H]3O[C@H]3[C@@]12C	
InChI=1S/C8H12O/c1-3-4-5-6-7(9-6)8(4,5)2/h4-7H,3H2,1-2H3	InChI=1S/C8H12O/c1-3-4-5-6-7(9-6)8(4,5)2/h4-7H,3H2,1-2H3/t4-,5-,6+,7+,8-/m0/s1
