23
gdb 120450	4.19078	0.71137	0.70411	1.5479	83.7	-0.2502	0.0739	0.324	1742.722	0.203282	-425.409914	-425.399447	-425.398503	-425.445694	38.621	
C	 0.185955989	 1.3874534702	-0.0216798677	-0.223357
O	 0.1857643813	-0.0185296924	-0.0367546594	-0.23371
C	 0.5987787694	-0.5835318122	 1.1896920244	-0.06983
C	 0.586518035	-2.0911413784	 1.0571946958	 0.023085
C	 1.656339839	-2.7533109229	 0.1462283197	-0.260588
C	 1.869328122	-3.8449125179	 1.2239340259	 0.422637
C	 1.130633324	-5.1490623386	 0.9421867319	-0.448052
O	 3.2455725522	-4.0806978326	 1.4603996368	-0.47544
C	 1.1368287668	-2.9204666014	 2.2498324677	-0.313191
H	 1.1902144508	 1.7956660059	 0.1764540961	 0.102168
H	-0.1440657931	 1.7275025555	-1.0065469195	 0.125025
H	-0.5006689437	 1.7897066719	 0.7409233924	 0.100539
H	 1.61440283	-0.2353120029	 1.4504800963	 0.080226
H	-0.0720438018	-0.2622020209	 2.0070275274	 0.080832
H	-0.422070463	-2.4111824671	 0.7784939351	 0.076253
H	 1.3532211623	-3.0814113706	-0.8503704021	 0.09822
H	 2.5522702928	-2.132210986	 0.0618164956	 0.108104
H	 1.5884147852	-5.6682147141	 0.0943195784	 0.123656
H	 1.1672714797	-5.8129650511	 1.815722675	 0.102921
H	 0.0758212842	-4.9709874549	 0.7104023925	 0.12058
H	 3.3221734363	-4.7896469895	 2.1084751196	 0.270829
H	 1.8723189823	-2.3554774843	 2.8303944355	 0.100105
H	 0.4150505294	-3.3806455656	 2.9306490925	 0.088987
53.7048	85.6526	97.5811	156.0469	232.8965	265.5688	272.2927	284.0717	302.7552	350.7011	397.6887	422.0556	453.9374	476.5302	626.8763	759.3466	831.6829	876.2955	903.6746	937.5607	951.2327	975.3667	978.9011	1032.7731	1071.6166	1097.0121	1136.6834	1157.3804	1176.7688	1188.2202	1202.2749	1224.5759	1233.3742	1260.8999	1269.1171	1281.0718	1301.5965	1358.8922	1381.8736	1407.6324	1425.0967	1467.4136	1479.7899	1485.1502	1487.7126	1490.8259	1499.8562	1504.1769	1525.6239	2933.9495	2961.1499	2966.0433	3006.8395	3018.7579	3047.6314	3060.0504	3063.7573	3086.2805	3105.8265	3110.6738	3110.9091	3121.426	3797.3781
COCC1CC(C)(O)C1	COC[C@H]1C[C@@](C)(O)C1	
InChI=1S/C7H14O2/c1-7(8)3-6(4-7)5-9-2/h6,8H,3-5H2,1-2H3	InChI=1S/C7H14O2/c1-7(8)3-6(4-7)5-9-2/h6,8H,3-5H2,1-2H3/t6-,7+
