17
gdb 13958	5.63764	1.26673	1.16792	3.1905	70.99	-0.2559	0.0227	0.2786	1051.7684	0.142266	-363.826407	-363.818871	-363.817926	-363.858735	28.019	
N	-0.0818481288	 1.2953926791	-0.0526847501	-0.439133
C	-0.1225860288	 0.0474674833	-0.2283457694	 0.102944
O	-1.0771593533	-0.68689135	 0.391346439	-0.224476
C	-1.0065924342	-2.069087695	 0.2330152957	 0.438775
C	-1.1700926056	-2.7415405757	-1.0990379862	-0.332271
C	-2.1585892078	-3.031981973	 0.0110060884	-0.124602
C	-1.5372847212	-4.0159239907	 1.0114790628	-0.218937
C	-0.3734711544	-2.9982124152	 1.2706093237	-0.296817
H	 0.6804835599	 1.6954771263	-0.5960096551	 0.229563
H	 0.5430567722	-0.5548779534	-0.8589234345	 0.093478
H	-1.5559853397	-2.097329559	-1.8826562965	 0.124223
H	-0.4706878538	-3.5031322878	-1.4385374938	 0.108848
H	-3.2132801722	-2.8203523021	-0.109163053	 0.103793
H	-2.1507129093	-4.1818273661	 1.8987496815	 0.112948
H	-1.2467429169	-4.9855347823	 0.5959782283	 0.10198
H	 0.6501311324	-3.3325075195	 1.0731130669	 0.096937
H	-0.4229360484	-2.5717703889	 2.2744885024	 0.122745
63.1566	111.8351	154.5461	264.9202	361.914	383.9824	446.9065	500.7436	685.3091	759.4249	787.5709	823.9291	860.0602	915.2531	930.3407	963.9807	967.6473	1015.9757	1023.2807	1050.2602	1064.9365	1090.5477	1121.0157	1152.3786	1217.9468	1226.8812	1234.945	1262.6803	1286.8171	1304.1417	1376.1138	1414.693	1479.1811	1481.5276	1511.3359	1744.8177	3044.5792	3049.0122	3059.2168	3102.3072	3108.6909	3125.7647	3196.1948	3205.0174	3515.9834
N=COC12CC1CC2	[NH][CH]O[C@]12C[C@H]1CC2	
InChI=1S/C6H9NO/c7-4-8-6-2-1-5(6)3-6/h4-5,7H,1-3H2	InChI=1S/C6H9NO/c7-4-8-6-2-1-5(6)3-6/h4-5,7H,1-3H2/t5-,6-/m1/s1
