23
gdb 63083	2.76063	1.36048	1.24496	0.1347	90.43	-0.2331	0.036	0.2692	1171.5368	0.206824	-351.168319	-351.159393	-351.158449	-351.201203	35.466	
C	 0.1183029388	 1.5573831854	 0.0925608462	-0.466749
C	 0.0573750351	 0.0422169195	 0.0326827896	 0.333178
C	-1.283872621	-0.4792861347	-0.4542707631	-0.447679
C	 1.2789403729	-0.7660177942	-0.3619261224	-0.081125
C	 2.6233516476	-0.1301323446	-0.682452565	-0.285962
C	 3.3476544538	 0.454934367	 0.4992742716	-0.046449
C	 2.9044501926	 0.4231689941	 1.7540266058	-0.046449
C	 1.6082442051	-0.2028857393	 2.1914068539	-0.285962
C	 0.7732294084	-0.8022626603	 1.0697890989	-0.081123
H	 1.0820921303	 1.9312010895	 0.4424556055	 0.128913
H	-0.0684498377	 1.9897991001	-0.898003976	 0.109384
H	-0.6557142336	 1.9477101925	 0.7645884515	 0.109384
H	-1.5089341448	-0.1110678921	-1.4628175736	 0.109494
H	-1.3020906841	-1.573386108	-0.4884287325	 0.108707
H	-2.0979595309	-0.1533249353	 0.2048318386	 0.109494
H	 1.0640004339	-1.6463229188	-0.9616251421	 0.072583
H	 3.271065791	-0.8918773552	-1.1388138076	 0.107865
H	 2.5121005064	 0.6425861845	-1.4581997914	 0.105355
H	 4.3039820117	 0.9260707478	 0.2826339186	 0.080667
H	 3.5052603014	 0.868824862	 2.5438892032	 0.080667
H	 1.8379798922	-0.9945860141	 2.918377677	 0.107865
H	 1.0224264349	 0.5358219093	 2.7591947769	 0.105355
H	 0.2434908861	-1.7051295851	 1.3613087466	 0.072583
119.3352	164.3533	193.0052	206.6597	232.3613	271.5747	349.4771	383.7173	417.2957	456.5502	546.675	555.6515	658.2672	706.5849	764.1079	795.1907	897.8356	919.4898	938.8769	955.553	961.7051	973.5385	997.1215	1011.5529	1022.0114	1037.1008	1093.6868	1119.6652	1162.1	1166.2104	1193.2833	1234.2032	1238.4428	1249.0905	1332.2183	1349.09	1366.2617	1367.4363	1412.0951	1421.6861	1425.1306	1450.641	1474.3326	1476.8596	1486.5204	1492.5323	1508.0969	1514.316	1734.9986	2991.6675	2992.2335	3014.7726	3014.9339	3014.9621	3023.3629	3070.6689	3074.3752	3093.3761	3126.1708	3129.2745	3136.7542	3137.4534	3160.845
CC1(C)C2CC=CCC12	CC1(C)[C@H]2CC=CC[C@@H]12	
InChI=1S/C9H14/c1-9(2)7-5-3-4-6-8(7)9/h3-4,7-8H,5-6H2,1-2H3	InChI=1S/C9H14/c1-9(2)7-5-3-4-6-8(7)9/h3-4,7-8H,5-6H2,1-2H3/t7-,8+
