18
gdb 37568	3.8318	1.6277	1.41033	1.5175	75.63	-0.2289	0.0763	0.3053	942.8938	0.149565	-401.818455	-401.81182	-401.810876	-401.849586	26.974	
C	-0.0772275836	 1.6305704267	-0.0530117871	-0.26202
C	 1.4004488587	 1.2337483321	-0.0281303373	-0.038469
N	 1.1330806076	 0.1265431778	 1.0264190311	-0.187666
C	-0.0595642598	 0.1024253191	 0.0071931732	-0.102828
C	 1.1981357864	-0.0411417229	-0.9181508732	 0.30906
C	 1.8670820405	-0.3387271626	-2.233017642	-0.212645
O	 3.1989426264	-0.7076744012	-1.7998772897	-0.289541
C	 3.3099167408	-0.8280230827	-0.3521206856	-0.105618
C	 1.8671321253	-0.8945656255	 0.1249451134	-0.009107
H	-0.4480970108	 2.1377171586	 0.8411018832	 0.112393
H	-0.459602283	 2.0857167998	-0.9694158055	 0.103774
H	 2.2820717625	 1.87065053	 0.0463198685	 0.091271
H	-0.8711139362	-0.6155343181	 0.1340691969	 0.090388
H	 1.4068967414	-1.1804059997	-2.7680185598	 0.102326
H	 1.9456221525	 0.5147347427	-2.9149060653	 0.106534
H	 3.8916583528	-1.7304751395	-0.146456417	 0.107524
H	 3.8537400367	 0.0364949489	 0.049445917	 0.10555
H	 1.4963507721	-1.9123083334	 0.2797505491	 0.079074
77.717	246.4564	275.2144	306.7683	481.321	524.6146	657.2551	676.4056	714.9389	782.1662	845.0403	858.186	875.3318	886.8936	899.372	928.5808	970.3873	1003.2998	1017.4236	1043.0474	1054.4094	1073.5712	1088.8435	1133.363	1137.7839	1177.7039	1180.8215	1200.8155	1206.0145	1226.6664	1240.1546	1263.5139	1310.6438	1350.8457	1365.7131	1385.9642	1490.679	1511.4199	1519.3383	3008.7351	3021.794	3060.7253	3062.3388	3064.5652	3090.6253	3109.6709	3115.1533	3129.0904
C1C2N3C1C21COCC31	C1[C@H]2N3[C@@H]1[C@]12COC[C@@H]31	
InChI=1S/C7H9NO/c1-4-7-3-9-2-6(7)8(4)5(1)7/h4-6H,1-3H2	InChI=1S/C7H9NO/c1-4-7-3-9-2-6(7)8(4)5(1)7/h4-6H,1-3H2/t4-,5+,6-,7-/m1/s1
