20
gdb 75586	2.42875	1.51404	0.97315	5.4608	85.78	-0.2011	-0.0216	0.1795	1227.8639	0.172835	-403.187971	-403.179097	-403.178153	-403.221648	33.507	
C	 0.575367037	 1.4404371724	-0.1067976116	-0.456212
C	 0.1014435229	 0.005282604	 0.0074465738	 0.138474
C	-0.4063243299	-0.5851344145	-1.1103445269	-0.037412
N	-0.8748219209	-1.8334252524	-1.3885646064	-0.301435
C	-1.1777969122	-2.9046735365	-0.4568847067	-0.152784
C	-0.1294449455	-3.0686074532	 0.6403759135	-0.216446
C	-0.1857348169	-1.9799170122	 1.71319635	-0.302235
C	 0.2881065123	-0.5730243253	 1.3424567526	 0.290827
O	 0.8198312071	 0.092859697	 2.2221971394	-0.342257
H	 1.638157634	 1.5263638456	 0.1416658718	 0.129528
H	 0.4222758822	 1.832898401	-1.1164535811	 0.094269
H	 0.0471370529	 2.0885727578	 0.600134405	 0.127648
H	-0.4250854652	 0.0357602078	-2.0038721752	 0.10275
H	-1.2833572965	-1.9344197884	-2.3018904803	 0.248446
H	-2.1648414335	-2.7513266383	 0.0098453736	 0.106419
H	-1.2443340833	-3.8247101896	-1.0468811219	 0.109476
H	-0.3099775506	-4.0362414191	 1.121409936	 0.108135
H	 0.8679717349	-3.1222044856	 0.1890265122	 0.115438
H	-1.2188256897	-1.8869880588	 2.0772282708	 0.115459
H	 0.4145637209	-2.2662668815	 2.5806877215	 0.121913
74.1681	84.1012	169.9966	267.0544	286.176	325.0017	328.1956	346.5296	405.4149	474.8124	509.2954	541.2624	639.3645	688.8371	760.7355	842.4956	874.5259	937.5565	945.7046	978.787	1035.4051	1066.8692	1083.541	1093.8	1112.1508	1193.3595	1248.0351	1253.2567	1303.0856	1341.0001	1362.5304	1379.9222	1401.3129	1414.7905	1438.7759	1462.0926	1469.2197	1482.0475	1499.8685	1503.9135	1555.7906	1681.5452	1716.8381	2966.0181	3017.3772	3032.8382	3037.4048	3065.98	3080.3525	3088.8468	3096.6598	3106.3428	3144.7725	3650.186
CC1=CNCCCC1=O	CC1=CNCCCC1=O	
InChI=1S/C7H11NO/c1-6-5-8-4-2-3-7(6)9/h5,8H,2-4H2,1H3	InChI=1S/C7H11NO/c1-6-5-8-4-2-3-7(6)9/h5,8H,2-4H2,1H3
