20
gdb 73869	2.26232	1.64314	1.05916	2.3195	81.9	-0.2259	0.0075	0.2334	1179.9702	0.171139	-403.156706	-403.147591	-403.146647	-403.190437	33.815	
C	 0.2746787963	 1.4649731367	-0.4509950923	-0.495823
C	-0.0218407212	 0.1136304149	 0.1423689126	 0.206253
C	-1.2257562119	-0.4672627238	 0.2507016391	 0.216227
C	-2.5337946003	 0.1342759883	-0.185466883	-0.491491
C	-1.3371033513	-1.8684960541	 0.8474772765	-0.264426
N	-0.5822389093	-2.9297793918	 0.1818067062	-0.262098
C	 0.5998649726	-2.8115453252	-0.241781412	 0.138646
O	 1.5033146669	-1.8029608334	-0.1856840934	-0.220661
C	 1.1859422902	-0.6558025646	 0.6290499281	-0.169347
H	 0.7757390931	 2.1120711907	 0.2811812599	 0.124887
H	 0.9628491451	 1.3690449566	-1.3010065929	 0.133581
H	-0.6148813868	 1.9892359568	-0.8012742982	 0.125404
H	-2.442944592	 1.1534639197	-0.5627607567	 0.12225
H	-2.9963258372	-0.4786071475	-0.9696536064	 0.136756
H	-3.2439465854	 0.1492678243	 0.65163307	 0.128805
H	-1.0765083082	-1.8481062638	 1.9170775511	 0.115431
H	-2.3870366863	-2.1768102659	 0.8165265331	 0.107808
H	 1.0579113706	-3.6477730301	-0.771782978	 0.117933
H	 2.0883883038	-0.0426890864	 0.5834184053	 0.113292
H	 1.0636424712	-0.9906332513	 1.666746641	 0.116576
102.3144	118.0847	153.5781	160.9375	183.9772	307.4112	343.2659	364.8541	385.7838	426.4	492.2409	539.2095	671.0803	693.7832	806.9586	906.0509	913.8085	941.4878	961.3762	986.1553	995.1169	1022.5348	1054.9635	1070.2855	1144.9506	1164.0954	1174.9493	1253.7363	1273.4728	1294.1423	1384.8734	1400.2062	1406.7413	1420.2701	1433.5184	1478.9628	1480.8565	1484.8841	1488.5766	1496.3413	1514.0915	1740.1484	1756.6589	2982.226	3014.9591	3019.2108	3024.6329	3056.605	3057.9583	3062.0641	3106.4292	3129.8053	3130.1106	3144.3605
CC1=C(C)CN=COC1	CC1=C(C)CN=COC1	
InChI=1S/C7H11NO/c1-6-3-8-5-9-4-7(6)2/h5H,3-4H2,1-2H3	InChI=1S/C7H11NO/c1-6-3-8-5-9-4-7(6)2/h5H,3-4H2,1-2H3
