20
gdb 104770	2.5918	1.02903	0.84828	3.0979	77.19	-0.2481	-0.0304	0.2178	1405.8701	0.168822	-440.26348	-440.253396	-440.252451	-440.298965	36.305	
C	-0.5587158473	 0.5021963972	-0.8211425462	-0.405309
C	 0.098240142	-0.7669343666	-0.2612985034	-0.24079
C	 0.5083888982	-0.6333963486	 1.1983240194	 0.302124
C	 1.4885393155	 0.4994115362	 1.5209615889	-0.161593
O	 0.8328870549	 1.6824708002	 1.9592834316	-0.410881
N	-0.5441933536	-0.8677102153	 2.1807601016	-0.356353
C	 0.5687668425	-1.8331452011	 2.1170119027	-0.174053
C	 0.2167935094	-3.2129129224	 1.6763533827	 0.162737
O	 0.9148510739	-4.1741332344	 1.8837865267	-0.25885
H	 0.1383158949	 1.3484612167	-0.8495873113	 0.112513
H	-0.8997891505	 0.3424484243	-1.8480032707	 0.125629
H	-1.4293304614	 0.7850851076	-0.2203892706	 0.135735
H	-0.6032498418	-1.5989572008	-0.3617804163	 0.111186
H	 0.9826585194	-1.0228714115	-0.8581956518	 0.107524
H	 2.1415262254	 0.2152503626	 2.3508637756	 0.120117
H	 2.1308506042	 0.6936771032	 0.6498676412	 0.102224
H	 0.2871503519	 2.0107165162	 1.2376814907	 0.290386
H	-0.4300609843	-0.2329573761	 2.9684661293	 0.248044
H	 1.3429690924	-1.8129546533	 2.8807898864	 0.102677
H	-0.7566867755	-3.295804394	 1.1467117034	 0.086933
60.905	90.445	107.6896	133.6784	200.3349	248.2051	262.9742	311.0067	345.9409	382.1503	406.2602	440.0612	515.0685	583.67	739.0737	784.204	854.6671	902.5383	946.1123	980.9051	1001.3834	1026.0747	1044.4093	1072.2086	1079.34	1103.6872	1114.0228	1194.0067	1224.8722	1250.9502	1314.4165	1331.2672	1368.5274	1378.4281	1393.9598	1405.1017	1423.1114	1455.6391	1477.1216	1498.7967	1507.9009	1512.721	1819.3196	2901.0651	3002.1213	3026.146	3035.1503	3082.7246	3087.1724	3104.8054	3111.32	3141.0021	3496.4063	3823.094
CCC1(CO)NC1C=O	CC[C@@]1(CO)N[C@H]1C=O	
InChI=1S/C6H11NO2/c1-2-6(4-9)5(3-8)7-6/h3,5,7,9H,2,4H2,1H3	InChI=1S/C6H11NO2/c1-2-6(4-9)5(3-8)7-6/h3,5,7,9H,2,4H2,1H3/t5-,6-/m0/s1
