20
gdb 75138	2.5525	1.46188	1.1727	4.0978	83.11	-0.2075	-0.0231	0.1844	1157.3233	0.169739	-403.203864	-403.194189	-403.193245	-403.237993	35.986	
C	-0.0565379935	 1.543493462	 0.0211253341	-0.496145
C	-0.0189122958	 0.0507488722	-0.0352143686	 0.136982
C	-0.0723599328	-0.7668954754	-1.1195797416	-0.089277
N	 0.1004403519	-2.1004907458	-0.8383150165	-0.319687
C	 0.0923364352	-2.2797605864	 0.6242200319	 0.160973
C	-1.1941446169	-2.9672035692	 1.0988489231	-0.419312
C	 1.3428937878	-3.0154403429	 1.1132072981	-0.405446
C	 0.1050953807	-0.810753625	 1.1333929448	 0.311156
O	 0.2055367745	-0.5050186772	 2.3072368833	-0.378929
H	 0.8800954046	 1.951935415	 0.4184161456	 0.134998
H	-0.2236686305	 1.9800569884	-0.9679484865	 0.112849
H	-0.8528292232	 1.890146678	 0.688798302	 0.136315
H	-0.1993093304	-0.4648822714	-2.1538568406	 0.124797
H	-0.3724510666	-2.7831527908	-1.4123148187	 0.242071
H	-1.2277254875	-4.0124795163	 0.771403584	 0.10913
H	-1.2321733381	-2.9444484084	 2.1914487898	 0.146775
H	-2.0799353628	-2.4504360316	 0.7165605638	 0.121769
H	 2.2459664708	-2.5591609418	 0.6993071017	 0.124321
H	 1.3908293029	-2.9502434425	 2.2036658468	 0.141149
H	 1.3230187497	-4.0699225207	 0.8190884233	 0.105512
81.4571	87.662	193.7732	218.9182	234.7184	256.3412	276.1665	290.6047	332.8379	336.7219	485.3534	533.8373	546.1216	561.6124	699.513	729.9019	780.7838	897.2857	926.1404	940.9377	952.1357	986.7571	1025.4753	1043.0718	1066.5119	1158.2145	1181.8448	1188.4258	1241.2914	1318.8439	1359.0965	1391.2208	1407.8676	1418.6112	1437.5722	1474.5692	1479.0928	1483.4719	1496.8683	1499.1608	1506.4162	1664.3167	1779.4292	3027.8885	3029.338	3038.6727	3078.8552	3100.1683	3107.2012	3111.1269	3120.4545	3128.0484	3193.9174	3600.1795
CC1=CNC(C)(C)C1=O	CC1=CNC(C)(C)C1=O	
InChI=1S/C7H11NO/c1-5-4-8-7(2,3)6(5)9/h4,8H,1-3H3	InChI=1S/C7H11NO/c1-5-4-8-7(2,3)6(5)9/h4,8H,1-3H3
