15
gdb 81881	3.08229	1.31566	1.02201	2.0283	67.83	-0.2418	-0.0469	0.1949	1116.3913	0.110546	-457.754145	-457.745687	-457.744742	-457.787608	30.257	
O	-0.1481968227	 1.5035824241	 0.1009558018	-0.42492
C	-0.009366779	 0.1083813065	-0.0002066678	-0.01185
C	-1.3291935906	-0.6620543485	 0.0657621304	-0.086636
C	-2.2019134042	-0.2953952677	-1.0556248295	-0.306371
C	-1.0589857107	-1.2766169948	-1.3742224435	 0.091242
C	-1.3498349125	-2.6491166736	-1.8346113968	 0.057877
O	-2.3800438739	-3.2348599233	-1.5943589326	-0.266348
C	 0.2352631419	-0.529707142	-1.4053474028	 0.314188
O	 1.1852624401	-0.5367313	-2.1381716562	-0.315475
H	 0.6809937186	 1.9030986401	-0.1850458967	 0.300778
H	 0.734526962	-0.2900678397	 0.7068189776	 0.102388
H	-1.6657747971	-1.2547511247	 0.9053933932	 0.132639
H	-3.1689566009	-0.7854434655	-1.0953749922	 0.16037
H	-2.1549046929	 0.7027424449	-1.4757367999	 0.149988
H	-0.5311656082	-3.1241175757	-2.4136892651	 0.102129
80.5628	119.1626	150.2668	178.0357	244.4346	288.992	302.0382	366.1307	534.0214	575.2091	612.4262	699.6979	755.2689	807.3664	873.4537	901.802	960.35	983.131	1028.137	1049.8471	1075.635	1106.426	1143.3782	1177.3516	1252.8045	1286.63	1293.2113	1369.1777	1407.6908	1427.9711	1482.6069	1794.5741	1873.9693	2921.7467	2993.8587	3141.456	3219.9418	3237.4614	3807.887
OC1C2CC2(C=O)C1=O	O[C@H]1[C@H]2C[C@@]2(C=O)C1=O	
InChI=1S/C6H6O3/c7-2-6-1-3(6)4(8)5(6)9/h2-4,8H,1H2	InChI=1S/C6H6O3/c7-2-6-1-3(6)4(8)5(6)9/h2-4,8H,1H2/t3-,4+,6+/m1/s1
