23
gdb 119567	2.87626	1.01273	0.87227	1.2985	86.45	-0.2437	0.0751	0.3187	1463.6146	0.205088	-388.268791	-388.259009	-388.258065	-388.303658	36.981	
C	 0.0153415406	 1.5769954083	-0.088473462	-0.382954
C	-0.0270746658	 0.0499998304	-0.1804778992	-0.151452
C	-1.405083925	-0.5356320813	 0.1690242186	-0.322165
C	-1.4291482262	-2.0391429276	 0.1291879285	 0.406338
C	-1.6039152443	-2.827242893	-1.1436309652	-0.319635
C	-2.5879055364	-3.0373354583	-0.0278151435	-0.129664
C	-1.9715349952	-3.9752138166	 1.0137955245	-0.26851
C	-0.8105022415	-2.9363447278	 1.1990976229	 0.051392
O	 0.517378658	-3.3308036281	 0.9163744255	-0.435435
H	 1.0055921942	 1.9658129481	-0.3460426474	 0.109832
H	-0.7098156477	 2.036140472	-0.7702407678	 0.110056
H	-0.2235032827	 1.9211835999	 0.924380403	 0.110261
H	 0.2473129874	-0.2702461089	-1.1931873068	 0.099262
H	 0.7268780412	-0.3871513118	 0.4851434852	 0.109806
H	-1.7019119835	-0.1891140427	 1.1696838084	 0.087084
H	-2.1577493534	-0.1389283787	-0.5259195026	 0.089657
H	-1.9663991893	-2.2439762815	-1.9848132361	 0.104852
H	-0.9015508408	-3.6120807811	-1.4108595809	 0.114673
H	-3.6442521309	-2.8235352209	-0.1388287392	 0.083264
H	-2.5706196878	-4.1049220978	 1.9183366341	 0.095879
H	-1.6647487353	-4.9584691978	 0.6414146148	 0.093281
H	-0.8728028356	-2.459414996	 2.1879044155	 0.062683
H	 0.8202654799	-3.9032588288	 1.6286161399	 0.281495
72.9882	86.4423	100.8703	173.1814	244.1911	271.6889	293.1631	313.7445	325.962	386.7097	450.4958	548.5492	668.6747	737.2698	744.3005	822.7708	847.8173	872.4154	899.5002	904.6936	940.8744	976.1168	1010.6177	1030.3331	1045.9307	1062.4912	1078.147	1094.0199	1119.2165	1140.1227	1170.5009	1200.1559	1229.0654	1245.8856	1270.4515	1280.5006	1311.3729	1323.8605	1346.774	1382.8663	1399.8126	1413.614	1433.7893	1477.3147	1480.2546	1493.2341	1500.4515	1505.0384	1510.3717	2989.5578	2997.8082	3026.1679	3030.491	3031.2606	3042.3318	3063.2624	3093.6687	3099.3799	3103.0526	3114.2363	3180.7492	3200.0673	3812.4485
CCCC12CC1CC2O	CCC[C@]12C[C@H]1C[C@H]2O	
InChI=1S/C8H14O/c1-2-3-8-5-6(8)4-7(8)9/h6-7,9H,2-5H2,1H3	InChI=1S/C8H14O/c1-2-3-8-5-6(8)4-7(8)9/h6-7,9H,2-5H2,1H3/t6-,7-,8+/m1/s1
