22
gdb 123031	3.6127	0.69881	0.67555	2.7584	80.56	-0.2299	0.0733	0.3031	1769.3913	0.192478	-441.432475	-441.422057	-441.421113	-441.469374	36.974	
C	-0.4291816986	 1.2414343696	 0.3329413803	-0.310823
N	 0.0536124618	-0.1309528504	 0.2751214855	-0.069125
C	 1.4109261858	-0.3642086944	-0.1939725574	-0.259867
C	 1.0520446892	-0.5921652808	 1.2368467753	 0.003395
C	 1.6266337747	 0.2906816179	 2.3137824685	-0.081927
O	 0.6799038028	 0.3944973034	 3.3622875338	-0.26305
C	 1.1517501766	 1.10258717	 4.4944015338	-0.06688
C	 0.0714855323	 0.9918112216	 5.5591378274	-0.057911
O	-0.1901956755	-0.3573528726	 5.8873104497	-0.420833
H	 0.3579539231	 2.0004350169	 0.4650874922	 0.096267
H	-0.951322632	 1.4657795699	-0.6024836086	 0.122811
H	-1.1388246692	 1.3367938609	 1.1594590923	 0.133418
H	 1.5542855938	-1.2026406701	-0.8705216789	 0.117377
H	 2.0308224266	 0.5058077797	-0.4138849536	 0.104152
H	 0.8778522746	-1.613634496	 1.5723976212	 0.09412
H	 2.5625455504	-0.156057027	 2.6892317789	 0.097033
H	 1.8793915083	 1.2898588609	 1.928620415	 0.090104
H	 2.0888743097	 0.6527560583	 4.8600691716	 0.0954
H	 1.3511921336	 2.1581336277	 4.2456774588	 0.086454
H	 0.4016966055	 1.4927416102	 6.4750872541	 0.107831
H	-0.8363121666	 1.5042524934	 5.2019833476	 0.092785
H	-0.3163402267	-0.8089844091	 5.0443027424	 0.289268
37.1701	53.768	82.9622	137.3756	167.2471	188.2138	262.3876	306.2551	350.1469	362.363	422.7333	448.558	537.0512	562.4148	754.4068	805.2015	866.3911	906.9649	918.0828	1010.3534	1040.2099	1045.7263	1082.1997	1095.7003	1117.9134	1127.2842	1138.8997	1150.9993	1159.3095	1192.1986	1204.1911	1239.1558	1257.2786	1271.3262	1340.2071	1359.5441	1386.0998	1404.5523	1439.0187	1448.7596	1454.3082	1484.544	1494.906	1499.3976	1505.7997	1513.7026	1529.3762	2961.0604	2970.1594	2975.8031	2976.4864	3006.5647	3011.9381	3070.2988	3078.9397	3081.0893	3113.8352	3114.9722	3171.4341	3792.7653
CN1CC1COCCO	CN1C[C@H]1COCCO	
InChI=1S/C6H13NO2/c1-7-4-6(7)5-9-3-2-8/h6,8H,2-5H2,1H3	InChI=1S/C6H13NO2/c1-7-4-6(7)5-9-3-2-8/h6,8H,2-5H2,1H3/t6-,7?/m0/s1
