25
gdb 118151	2.36759	1.00642	0.82048	1.0521	90.09	-0.2469	0.0838	0.3307	1571.8094	0.227646	-389.483962	-389.473304	-389.47236	-389.52053	38.894	
C	 0.0783144012	 1.4717054881	 0.1714877515	-0.383835
C	-0.155449678	-0.0171271729	-0.0287000661	-0.032567
O	 0.7228205548	-0.4720827149	-1.0373172077	-0.256656
C	 0.7365151234	-1.8786807518	-1.2548321609	 0.110247
C	-0.4918522218	-2.3429104522	-2.0456080319	-0.405469
C	 2.0359401985	-2.216295111	-1.978077908	 0.047607
C	 2.4019639217	-1.4421114839	-3.2792990214	-0.222237
C	 3.8788610983	-1.4183746597	-2.8010693659	-0.210472
C	 3.3832771746	-1.7416529321	-1.3658493901	-0.238567
H	 1.1123234293	 1.6611277212	 0.4736392839	 0.124363
H	-0.1113211005	 2.0170171315	-0.7575418823	 0.125599
H	-0.5888475112	 1.8628146109	 0.9456204015	 0.112436
H	 0.0299650802	-0.5667390691	 0.9097433145	 0.08341
H	-1.2060306279	-0.1989063122	-0.3051481881	 0.0873
H	 0.744028095	-2.3866830999	-0.2738027689	 0.058036
H	-0.4616576159	-3.4269723766	-2.195884901	 0.112611
H	-1.4235140349	-2.107420341	-1.5235590081	 0.113632
H	-0.5171823894	-1.8587275607	-3.0267920992	 0.12551
H	 2.057209895	-3.2970383249	-2.1576916554	 0.062478
H	 2.1838087725	-1.9205729653	-4.2373581453	 0.087064
H	 1.9586925615	-0.4435813822	-3.2695622384	 0.115413
H	 4.4568695852	-2.2438742687	-3.2272467908	 0.095559
H	 4.4413341651	-0.4927688293	-2.9450393778	 0.093092
H	 3.2339582378	-0.8334132015	-0.777374611	 0.109806
H	 3.9559111253	-2.4622663418	-0.7760246029	 0.085641
48.3305	79.1374	81.69	111.4092	178.2857	197.5214	234.1825	259.3721	297.4592	342.0205	423.4166	485.3599	571.4981	648.7859	752.7855	783.5835	819.8532	846.643	894.5736	933.3162	935.7312	948.3588	960.6261	989.8292	1024.5067	1040.2636	1106.905	1129.9144	1136.4842	1167.2303	1176.2557	1189.9594	1207.2826	1248.4104	1258.0308	1260.556	1277.8942	1287.7604	1296.2135	1346.4173	1360.6636	1383.5219	1402.414	1402.7659	1436.6834	1474.9668	1483.311	1484.9363	1491.5393	1495.6421	1500.0698	1508.4094	1531.3187	2939.6261	2959.7979	2990.1545	3037.7376	3043.3972	3043.7173	3052.0043	3058.5901	3064.8564	3097.195	3108.4807	3114.924	3116.6875	3117.6411	3120.0399	3126.2529
CCOC(C)C1CCC1	CCO[C@@H](C)C1CCC1	
InChI=1S/C8H16O/c1-3-9-7(2)8-5-4-6-8/h7-8H,3-6H2,1-2H3	InChI=1S/C8H16O/c1-3-9-7(2)8-5-4-6-8/h7-8H,3-6H2,1-2H3/t7-/m0/s1
