18
gdb 41997	3.33877	1.55253	1.12578	2.6344	73.5	-0.2309	0.0231	0.254	1069.5749	0.151121	-439.101908	-439.09482	-439.093876	-439.133409	27.905	
C	 0.0479419368	 1.3920223025	-0.2697399223	-0.088446
C	 1.459472677	 1.9120529697	 0.0550199834	-0.282536
C	 2.2113364737	 0.5906383171	 0.1685556643	 0.026468
O	 3.3751342947	 0.615286442	 0.953547186	-0.259132
C	 3.7748637457	-0.7310957209	 1.2153301919	-0.101538
C	 2.705827429	-1.4969749841	 2.0101234601	-0.155738
N	 1.3199766555	-1.2393949235	 1.6152077992	-0.319023
C	 1.1533564316	-0.2970196862	 0.7973461059	 0.414178
O	-0.0795084894	 0.1298873051	 0.4191823691	-0.244697
H	-0.7529063265	 2.045050271	 0.0829963437	 0.127859
H	-0.0851540174	 1.2246955683	-1.3456353197	 0.115999
H	 1.8501152176	 2.5868479409	-0.7083228542	 0.116937
H	 1.4759314846	 2.4210671864	 1.023486417	 0.131021
H	 2.4422280075	 0.2090275481	-0.8438144467	 0.085604
H	 3.9809886831	-1.2405257725	 0.2597220746	 0.093012
H	 4.7101475507	-0.6734585127	 1.7778721177	 0.113514
H	 2.904595399	-2.5728531851	 1.9305457995	 0.110102
H	 2.7844616167	-1.2492762659	 3.0768199104	 0.116415
126.4446	177.0484	255.4561	286.5668	390.1239	403.6841	485.1656	538.4357	638.1887	679.9666	695.3814	803.7218	866.7747	893.0173	905.1125	949.5241	985.3812	1038.0755	1058.428	1100.7402	1107.4584	1158.1365	1163.0768	1197.8381	1218.6264	1240.5858	1265.8354	1286.3145	1309.5127	1328.8407	1366.748	1377.5014	1403.4148	1426.1517	1484.4601	1494.1713	1498.1458	1525.4455	1797.3455	2925.9462	2972.1142	3019.6116	3033.2527	3051.4921	3068.1171	3098.2771	3108.5213	3130.3939
C1CC2OCCN=C2O1	C1C[C@H]2OCCN=C2O1	
InChI=1S/C6H9NO2/c1-3-9-6-5(1)8-4-2-7-6/h5H,1-4H2	InChI=1S/C6H9NO2/c1-3-9-6-5(1)8-4-2-7-6/h5H,1-4H2/t5-/m1/s1
