12
gdb 129312	3.39891	1.53627	1.20301	1.2299	71.29	-0.2791	-0.1147	0.1643	962.9972	0.075968	-464.910091	-464.902583	-464.901639	-464.942364	27.301	
N	 0.0953135253	 1.0264207952	-0.9460198093	-0.468069
C	-0.0122980414	 0.2134542231	 0.0263427627	 0.344343
O	 0.9168384618	 0.043433973	 0.9979165772	-0.320404
N	 1.383462326	-1.4881384966	 1.1938948418	 0.024741
N	 0.5560167141	-2.169664744	 1.7098076498	-0.043044
C	-0.7597742968	-1.6517995298	 2.1414256651	 0.417022
N	-1.0802013796	-1.6744704567	 3.3568081617	-0.444462
N	-1.6218895952	-1.3203705729	 1.1093724214	-0.204882
C	-1.2874418084	-0.5368489424	 0.1618835129	 0.028477
H	 1.013532894	 1.4767409416	-0.9294069867	 0.243064
H	-0.3259335909	-2.0286782387	 3.9445703097	 0.25601
H	-2.0046882488	-0.3599045417	-0.6379444164	 0.167206
73.9093	131.5766	258.5685	270.546	308.4266	328.2745	445.1146	535.7962	546.2732	612.5322	704.6025	715.4737	781.3145	826.6504	874.5717	894.875	934.2067	985.1019	1017.3955	1097.859	1235.2278	1341.3838	1374.6111	1675.4114	1705.0327	1745.7319	1789.5717	3160.9838	3468.8114	3506.4577
N=C1ON=NC(=N)N=C1	[NH]C1=C[N][C]([N][N]O1)[NH]	
InChI=1S/C3H3N5O/c4-2-1-6-3(5)7-8-9-2/h1,4-5H	InChI=1S/C3H3N5O/c4-2-1-6-3(5)7-8-9-2/h1,4-5H
