23
gdb 84114	2.38428	1.60197	1.18596	0.2177	91.48	-0.2205	0.0288	0.2493	1174.4094	0.207602	-351.166688	-351.158267	-351.157323	-351.199045	34.27	
C	-0.168507179	 1.5622332	 0.0296130591	-0.399877
C	 0.0264586392	 0.0370981449	 0.0207692375	-0.005285
C	 0.7285151277	-0.4418359711	-1.2340638186	-0.174224
C	 1.8333233034	-1.1892436912	-1.1527977341	 0.339272
C	 2.596619359	-1.7086487957	-2.3347468725	-0.50175
C	 2.3328758702	-1.5277069811	 0.2433583342	-0.099039
C	 1.1167475062	-1.982422479	 1.1066103888	-0.233209
C	 0.7983593329	-0.4669339031	 1.2584053256	-0.012258
C	 2.3291271008	-0.2243177776	 1.0969672518	-0.223119
H	 0.792404094	 2.086790569	 0.0348368549	 0.116808
H	-0.7202225511	 1.89210066	-0.8570304587	 0.110051
H	-0.7334343289	 1.8797306126	 0.9130259776	 0.107712
H	-0.9778296194	-0.4153964947	 0.0499082327	 0.073291
H	 0.3089692937	-0.1554630358	-2.1963314183	 0.071536
H	 2.1404780684	-1.3991358108	-3.2792844301	 0.118128
H	 3.6353554133	-1.3527042653	-2.3233912586	 0.122282
H	 2.6475733893	-2.8055053041	-2.3227799316	 0.12216
H	 3.2318960056	-2.1477336428	 0.2303661281	 0.051581
H	 0.369869434	-2.6229207057	 0.6295607959	 0.090238
H	 1.4323138854	-2.4231003341	 2.0566108646	 0.089896
H	 0.3197853006	-0.1302129936	 2.182339442	 0.052932
H	 2.8514734946	-0.3591111402	 2.0482724247	 0.090746
H	 2.6702912101	 0.6954682895	 0.6158003349	 0.092128
145.4688	163.6382	212.3153	232.968	255.0147	325.6618	394.005	426.8464	438.3951	482.0927	585.1566	645.9008	742.8914	794.2707	821.1224	845.7146	898.5996	905.7243	915.4423	938.3247	976.3544	1014.4961	1026.9605	1053.6163	1057.8213	1079.18	1090.4019	1112.4645	1130.2784	1136.1532	1163.7131	1186.4666	1247.6654	1262.7391	1266.9797	1295.9891	1320.0093	1343.5837	1364.3095	1375.4732	1406.9263	1411.5637	1475.6021	1477.5052	1488.9193	1495.9961	1498.9636	1506.851	1725.397	2968.7074	3009.9162	3028.1684	3045.7891	3049.7826	3054.3495	3065.5132	3081.0684	3095.1203	3101.5295	3104.9846	3106.5128	3109.6328	3143.8829
CC1C=C(C)C2CC1C2	C[C@H]1C=C(C)[C@@H]2C[C@H]1C2	
InChI=1S/C9H14/c1-6-3-7(2)9-4-8(6)5-9/h3,6,8-9H,4-5H2,1-2H3	InChI=1S/C9H14/c1-6-3-7(2)9-4-8(6)5-9/h3,6,8-9H,4-5H2,1-2H3/t6-,8-,9+/m0/s1
