21
gdb 58554	2.19432	1.42948	1.37328	1.7834	79.5	-0.2153	0.0272	0.2425	1127.0621	0.181641	-420.386957	-420.37727	-420.376325	-420.421212	36.203	
C	 0.0618269398	 1.497576806	-0.1363362251	-0.336883
N	-0.000551203	 0.044496416	 0.0271480011	-0.107091
C	 0.7555187913	-0.3501985817	 1.2149260264	-0.341714
C	-1.3405925861	-0.5221774722	-0.0417804816	 0.20516
C	-2.1666259518	 0.0473234642	-1.1966583087	-0.463683
C	-1.4221463136	-2.076894436	 0.027621751	-0.125424
O	-2.2512886045	-1.9926209834	 1.2270884917	-0.260023
C	-2.1646128746	-0.6159407289	 1.2562414662	 0.398486
N	-2.6071412481	 0.213452085	 2.0869176029	-0.555647
H	 1.1125811184	 1.8007276422	-0.1055084851	 0.117286
H	-0.3357168125	 1.7998750149	-1.1061684664	 0.121963
H	-0.475248836	 2.0485703106	 0.6531101344	 0.126247
H	 0.3486004049	 0.0747606936	 2.147147657	 0.120929
H	 0.7826442155	-1.4367224585	 1.321268609	 0.11991
H	 1.7884908803	-0.0078227668	 1.104287943	 0.119681
H	-1.6044884608	-0.0153903221	-2.1337507733	 0.127336
H	-3.0920660598	-0.5240711757	-1.3071312218	 0.125848
H	-2.4463787586	 1.0868119692	-1.0155355295	 0.143833
H	-1.9621253287	-2.560017845	-0.7901035678	 0.116197
H	-0.490546492	-2.607332042	 0.2273335297	 0.122339
H	-3.1069852303	-0.2473097594	 2.8503072571	 0.225251
69.4971	108.0048	147.6827	215.3271	226.5834	238.9555	273.3685	345.0744	361.8579	415.4812	429.0243	447.6653	531.7397	648.6639	693.5814	756.9747	851.2356	870.3104	905.9118	958.7258	975.7739	1005.9986	1015.791	1065.8103	1115.7349	1144.7543	1147.0078	1166.3185	1185.6426	1213.0118	1236.5344	1286.2224	1315.9265	1364.452	1408.0288	1441.833	1474.9456	1482.6995	1490.4361	1497.2889	1501.2049	1509.5112	1522.8604	1530.8229	1811.2352	2973.3749	2979.1877	3044.9293	3070.7713	3078.377	3081.4249	3115.6978	3118.9562	3127.8921	3134.9152	3137.7643	3462.393
CN(C)C1(C)COC1=N	CN(C)[C@@]1(C)CO[C]1[NH]	
InChI=1S/C6H12N2O/c1-6(8(2)3)4-9-5(6)7/h7H,4H2,1-3H3	InChI=1S/C6H12N2O/c1-6(8(2)3)4-9-5(6)7/h7H,4H2,1-3H3/t6-/m0/s1
