20
gdb 73988	2.70231	1.88667	1.36486	1.9118	85.31	-0.2164	-0.004	0.2123	999.8805	0.172592	-365.934861	-365.927359	-365.926415	-365.966284	30.759	
C	-0.0603942228	 1.3002706843	-0.2363859501	-0.468926
C	-0.0356249331	-0.1176659874	 0.2511969622	 0.235886
C	-1.1232164877	-0.9010264423	 0.2902124643	 0.018365
C	-2.1232572028	-1.0180217431	-0.8457438711	-0.190397
N	-1.6581415395	-2.4558504886	-1.0496927244	-0.167461
C	-0.1476723804	-2.6860688114	-0.8584540857	 0.017006
C	 1.082628602	-1.7855242206	-1.0524271016	-0.234812
C	 1.2730398977	-0.8742309596	 0.2062567319	-0.291513
C	-1.0073342064	-2.4151824946	 0.304412471	-0.119712
H	 0.5072038626	 1.4131916222	-1.1707136388	 0.121941
H	-1.0802974264	 1.6564284533	-0.4036025913	 0.124817
H	 0.4122366268	 1.9703949556	 0.493241425	 0.12887
H	-3.1819590014	-1.0866543428	-0.5770182401	 0.114758
H	-2.0033886867	-0.3451315907	-1.702007275	 0.101007
H	 0.0161198905	-3.7273013425	-1.1227736468	 0.099397
H	 1.9538975413	-2.433638244	-1.2039120817	 0.10043
H	 1.0058615438	-1.1573162875	-1.9473630417	 0.110654
H	 2.1378129406	-0.213584623	 0.0981319402	 0.096451
H	 1.4415441759	-1.5065210382	 1.0835093075	 0.114897
H	-1.274311964	-3.1001517091	 1.1029546662	 0.088342
162.7423	192.9794	215.0241	246.1312	367.7046	438.9454	460.7236	491.7841	548.5137	641.3763	683.321	741.9545	771.2385	814.8035	855.3782	885.7512	908.2317	954.5651	966.9695	993.6423	1014.2766	1044.8937	1062.5716	1075.137	1085.859	1110.6855	1142.7302	1181.0653	1206.8788	1231.9339	1251.3028	1275.356	1294.9702	1316.428	1347.9573	1384.8976	1407.7983	1471.2319	1483.1684	1489.4075	1490.3848	1503.9831	1702.0972	3006.9783	3030.6017	3034.0993	3050.1908	3054.6838	3067.8333	3086.1845	3100.4342	3111.5007	3143.3013	3156.5056
CC1=C2CN3C(CC1)C23	C[C]1[C]2CN3[C@@H](CC1)[C@@H]23	
InChI=1S/C8H11N/c1-5-2-3-7-8-6(5)4-9(7)8/h7-8H,2-4H2,1H3	InChI=1S/C8H11N/c1-5-2-3-7-8-6(5)4-9(7)8/h7-8H,2-4H2,1H3/t7-,8+,9?/m0/s1
