18
gdb 79095	2.78705	1.70063	1.26925	2.578	74.87	-0.2334	-0.016	0.2175	1017.8661	0.148887	-401.930987	-401.923718	-401.922774	-401.962543	29.04	
C	-0.0404590325	 1.5082104314	 0.0685874818	-0.412547
C	 0.0168626587	-0.0137802911	 0.0176894384	-0.012508
C	 0.7520997759	-0.5508640113	-1.2213540487	-0.039752
C	 1.977199896	-0.8398246726	-0.416457786	-0.065086
C	 1.1819517946	-0.6209938893	 0.8984166378	-0.181462
C	 0.7260145154	-2.0153666493	 1.2911914503	 0.409482
O	 0.4791191739	-2.4435114572	 2.3867953996	-0.322213
C	 0.6039896538	-2.771098329	-0.0485557882	-0.28273
N	 1.2425030402	-1.9284058134	-1.0643853288	-0.108022
H	 0.9460653587	 1.9476260532	-0.1135985316	 0.122805
H	-0.7266652733	 1.8955439754	-0.6924485508	 0.121981
H	-0.3925982981	 1.8535827886	 1.0455537017	 0.12661
H	-0.9810564366	-0.4287058549	 0.2063704024	 0.08157
H	 0.6496039335	-0.1753043165	-2.23410781	 0.09633
H	 3.0329753321	-0.6912407624	-0.6057131391	 0.101164
H	 1.5655789965	-0.0046823543	 1.7075971262	 0.090799
H	 1.1316458245	-3.7282457897	 0.0124572758	 0.138251
H	-0.4439296233	-2.9845408976	-0.2830577008	 0.135327
123.3607	176.8337	244.2362	267.9254	345.4229	441.9072	479.522	540.0707	625.7378	697.5172	761.9698	786.8505	822.3955	841.6651	856.5021	903.871	949.2455	953.8424	998.6828	1031.9034	1052.2168	1070.2872	1077.8855	1130.7278	1152.5202	1177.127	1205.5448	1216.8334	1230.9954	1257.8116	1278.1436	1290.7319	1348.1512	1369.8705	1413.2132	1462.5517	1496.5398	1496.9845	1853.6828	3024.0503	3031.0498	3053.5509	3095.8658	3098.7762	3107.1117	3153.8283	3166.3109	3192.0197
CC1C2C3C1C(=O)CN23	C[C@H]1[C@H]2[C@H]3[C@@H]1C(=O)CN23	
InChI=1S/C7H9NO/c1-3-5-4(9)2-8-6(3)7(5)8/h3,5-7H,2H2,1H3	InChI=1S/C7H9NO/c1-3-5-4(9)2-8-6(3)7(5)8/h3,5-7H,2H2,1H3/t3-,5+,6+,7-,8?/m1/s1
