24
gdb 122357	3.2854	0.71411	0.66584	1.4772	87.32	-0.2128	0.0789	0.2917	1828.5528	0.214896	-405.504826	-405.49356	-405.492616	-405.542202	39.547	
C	 3.4716568974	 1.1979711473	-8.2279761943	-0.228175
O	 3.8037714777	 0.9277684358	-6.8883813782	-0.230894
C	 3.2601202913	-0.2874332622	-6.4216732457	-0.04837
C	 3.6729360017	-0.4731104762	-4.9650447095	-0.234939
C	 3.0432644529	-1.7146862066	-4.3643825144	-0.016085
C	 3.6931419522	-3.0668215806	-4.384876632	 0.006462
C	 5.0485516443	-3.3349032858	-5.0051452178	-0.416686
N	 3.5079781085	-2.3423573069	-3.1247266469	-0.117078
C	 4.6500382034	-1.8039995878	-2.4016017196	-0.312385
H	 3.847311855	 0.4176214067	-8.9094276072	 0.101762
H	 2.3821235213	 1.2794259822	-8.3718019883	 0.102614
H	 3.9342257406	 2.1512892109	-8.4954099765	 0.126213
H	 2.15929601	-0.2752573535	-6.5103297596	 0.084872
H	 3.6200472397	-1.1321778618	-7.0342314723	 0.087939
H	 4.7638742293	-0.493310617	-4.9148537349	 0.107327
H	 3.3507713951	 0.4115290569	-4.4017875308	 0.111329
H	 1.953619906	-1.6967125997	-4.4307552232	 0.082439
H	 3.0257243375	-3.9260395985	-4.4643352373	 0.083419
H	 5.7005742078	-2.4601783867	-5.0285704513	 0.122263
H	 5.5731070396	-4.1265131134	-4.4582716708	 0.123019
H	 4.9220479865	-3.6802128418	-6.0369900795	 0.121239
H	 5.474775056	-1.4171233544	-3.0163741915	 0.100217
H	 4.3042722437	-0.9896451754	-1.7565443053	 0.123027
H	 5.0553294926	-2.5896729116	-1.7554731933	 0.120471
43.7324	79.2019	95.4733	113.088	148.8792	157.6675	222.9865	225.8271	239.0928	288.0408	336.8434	414.4544	463.9354	535.1231	556.2983	714.1482	779.8532	807.0825	883.97	973.3077	1000.0416	1026.3696	1047.7539	1068.6892	1119.4423	1139.1031	1157.3363	1162.6305	1170.6652	1180.7132	1187.7054	1203.6878	1228.1971	1238.4248	1302.9387	1310.7865	1353.4585	1391.8114	1414.3008	1423.6031	1438.106	1462.4475	1480.635	1482.1739	1485.6882	1490.7735	1498.8119	1504.2501	1506.4619	1511.623	1532.1181	2943.2151	2967.3982	2970.7571	2998.0943	3008.3493	3036.29	3039.6398	3066.1259	3071.5101	3087.4497	3089.9086	3096.4833	3107.2394	3111.9597	3134.1711
COCCC1C(C)N1C	COCC[C@H]1[C@@H](C)N1C	
InChI=1S/C7H15NO/c1-6-7(8(6)2)4-5-9-3/h6-7H,4-5H2,1-3H3	InChI=1S/C7H15NO/c1-6-7(8(6)2)4-5-9-3/h6-7H,4-5H2,1-3H3/t6-,7+,8?/m1/s1
