22
gdb 83736	2.87433	1.33832	1.07925	1.3804	86.55	-0.2216	0.0891	0.3106	1224.5303	0.19555	-367.19061	-367.182218	-367.181273	-367.223208	33.587	
C	-0.0105096581	 1.520302165	-0.0552081158	-0.415648
C	-0.017698032	 0.0118677318	-0.1060288176	 0.010233
C	 0.7271042598	-0.7479871664	-1.1476219351	-0.120173
N	 1.2493342006	-0.6545970714	 0.2342187711	-0.120775
C	 1.0873656117	-1.9945967783	 0.8355503677	-0.152021
C	 0.1377001844	-2.8228432923	-0.0662698634	-0.336626
C	 0.3040819496	-2.1638359503	-1.4348293626	 0.408393
C	-0.5403420231	-2.5292324321	-2.6254952292	-0.324679
C	 0.9231768071	-2.9028083086	-2.5966831539	-0.317961
H	 0.9361878627	 1.9119621911	-0.4372383442	 0.124325
H	-0.827044382	 1.9363862602	-0.6556716625	 0.112209
H	-0.1301919109	 1.8776939013	 0.973428897	 0.118354
H	-0.9336630293	-0.4499312538	 0.2626281132	 0.077005
H	 1.2776486453	-0.2097410576	-1.9168414245	 0.07922
H	 2.0809786943	-2.4542998623	 0.8678854883	 0.106795
H	 0.7297626994	-1.9056284359	 1.8662799562	 0.101395
H	 0.3957676442	-3.8851591721	-0.0750261315	 0.100041
H	-0.899758081	-2.7489618838	 0.2771453709	 0.105895
H	-1.2734314029	-3.3209742238	-2.5081581264	 0.110352
H	-0.8511819316	-1.7346498096	-3.2960509167	 0.11229
H	 1.6019250934	-2.3597223454	-3.2469273095	 0.111693
H	 1.1817776184	-3.9474082556	-2.4564615415	 0.109684
109.7214	179.4339	191.1767	211.849	295.4073	304.6783	341.8115	412.0471	455.8113	525.0307	666.4698	767.8164	774.252	792.2905	799.6208	871.1228	898.8496	918.3518	935.4729	947.771	981.9768	1003.3718	1040.2164	1055.8393	1059.6794	1073.535	1077.2125	1109.9346	1148.7897	1174.1634	1188.6323	1191.9346	1222.6751	1261.7077	1283.1044	1293.6908	1313.9683	1353.0475	1382.6895	1411.9384	1455.3517	1466.8732	1489.2005	1494.6463	1495.9684	1505.3106	1509.2346	3031.0519	3041.2547	3042.6337	3080.9028	3093.4679	3094.7893	3102.6442	3119.4384	3121.249	3124.9624	3126.5483	3199.4962	3214.586
CC1C2N1CCC21CC1	C[C@H]1[C@H]2N1CCC12CC1	
InChI=1S/C8H13N/c1-6-7-8(2-3-8)4-5-9(6)7/h6-7H,2-5H2,1H3	InChI=1S/C8H13N/c1-6-7-8(2-3-8)4-5-9(6)7/h6-7H,2-5H2,1H3/t6-,7+,9?/m0/s1
