23
gdb 78302	2.8831	1.40992	1.17488	0.095	89.65	-0.2437	0.0973	0.3409	1184.7545	0.207345	-351.129119	-351.120938	-351.119994	-351.161086	34.076	
C	 0.0243865445	 1.5165921064	 0.0416967553	-0.425301
C	-0.0228660987	 0.0030084227	 0.0001762776	-0.038702
C	 1.2685068911	-0.7319738769	-0.2769936944	-0.039018
C	 0.6603829038	-0.7538162759	 1.1162685312	-0.072702
C	 0.4463788248	-2.2745945067	 1.308301039	 0.33311
C	-0.1534195325	-2.7388715983	 2.6166824074	-0.501425
C	 1.834200167	-2.7971101522	 0.7724855383	-0.241607
C	 1.274168464	-2.2420986231	-0.5822952866	-0.055237
C	-0.1014011521	-2.7467686903	-0.0711778539	-0.275187
H	 0.972219146	 1.8731251073	 0.4593868232	 0.112661
H	-0.076494766	 1.9429470241	-0.9625414318	 0.115894
H	-0.7839766015	 1.9217254172	 0.660414032	 0.115472
H	-0.949050895	-0.3858077304	-0.4100839337	 0.078398
H	 2.1592381454	-0.1553802823	-0.5048142741	 0.077496
H	 1.0898673824	-0.195845579	 1.943051133	 0.073638
H	-1.1669302327	-2.3427317607	 2.747938419	 0.116142
H	-0.2112798505	-3.8314180444	 2.6656059653	 0.109496
H	 0.4455579841	-2.3978551292	 3.469382238	 0.112463
H	 2.7384951665	-2.3306264836	 1.175156844	 0.082415
H	 1.921531069	-3.8879587779	 0.795948614	 0.084837
H	 1.6739297515	-2.5604171775	-1.5454917948	 0.056271
H	-0.1655646137	-3.8368086025	-0.1133188738	 0.089468
H	-1.0244916776	-2.321180687	-0.4676462242	 0.091418
183.8234	207.5935	214.5444	234.1989	263.9118	317.6238	385.3317	430.1318	497.1742	570.6966	589.1685	679.8916	781.4505	808.4467	825.326	843.0317	856.731	904.8791	938.1656	954.7598	978.75	993.7696	1014.2465	1021.9513	1044.3723	1051.0754	1088.059	1098.8175	1123.2923	1130.0123	1140.952	1190.7724	1206.6023	1212.5833	1230.2908	1245.7662	1254.8887	1290.5104	1304.3889	1335.1879	1411.6521	1414.0391	1429.9071	1490.8727	1492.7053	1493.5763	1495.4305	1500.9846	1535.7579	3021.6701	3025.1654	3041.3657	3068.6482	3084.1983	3088.9278	3092.0234	3092.2223	3102.4687	3108.6098	3116.4854	3146.2426	3156.3403	3161.6076
CC1C2C1C1(C)CC2C1	C[C@H]1[C@H]2[C@@H]1[C@]1(C)C[C@H]2C1	
InChI=1S/C9H14/c1-5-7-6-3-9(2,4-6)8(5)7/h5-8H,3-4H2,1-2H3	InChI=1S/C9H14/c1-5-7-6-3-9(2,4-6)8(5)7/h5-8H,3-4H2,1-2H3/t5-,6-,7+,8+,9+/m0/s1
