21
gdb 83292	2.27879	1.81097	1.42825	2.9074	80.8	-0.2282	-0.0065	0.2216	1031.3622	0.185354	-387.140129	-387.132325	-387.131381	-387.172188	31.457	
C	-0.3058858575	 1.5493308762	 0.0827175322	-0.422349
C	 0.0284440167	 0.0645393844	-0.035394798	-0.071655
C	 0.7829607752	-0.4594492852	-1.2853448673	-0.029342
C	 2.1578799629	 0.238881708	-1.4119156474	-0.214804
C	 2.9729943958	-0.3565332347	-0.2199028863	-0.220981
C	 1.9712546349	-1.3542680991	 0.4389389959	-0.112611
C	 1.2019349372	-1.8672731895	-0.7977599398	-0.241102
C	 0.9249691761	-0.4630541689	 1.1034463343	 0.423083
O	 0.8307528282	-0.1817985079	 2.2713351251	-0.34657
H	 0.584384297	 2.1793513377	-0.0044412411	 0.120355
H	-1.0167312533	 1.8596000752	-0.6893033063	 0.112466
H	-0.749911043	 1.7464046003	 1.0623232369	 0.139147
H	-0.9107658595	-0.5046074968	 0.0395386627	 0.099833
H	 0.1849366799	-0.4311849797	-2.1981883408	 0.062548
H	 2.6231660045	-0.011894969	-2.3694000448	 0.100379
H	 2.0859607794	 1.3279974455	-1.3698633521	 0.104003
H	 3.8541102111	-0.9016339185	-0.5698756613	 0.106292
H	 3.3185455319	 0.4025106004	 0.4864035216	 0.115994
H	 2.4278498838	-2.0770602442	 1.1137326806	 0.077904
H	 0.3526075139	-2.510863171	-0.5484787726	 0.099337
H	 1.8472699149	-2.3943042432	-1.5069327718	 0.098072
94.4691	194.2555	208.9482	246.5095	278.9582	422.1788	457.4045	484.9477	516.3675	641.1927	694.4898	758.4223	809.1823	826.4492	840.629	883.2813	901.7309	922.9033	948.0091	967.0257	998.4718	1023.1724	1038.055	1075.6766	1115.1853	1123.391	1143.0652	1176.5178	1185.5903	1208.0673	1244.2254	1272.4409	1283.6312	1301.6558	1323.5777	1327.5972	1350.3347	1354.3375	1406.903	1488.1026	1493.4706	1498.4715	1504.1002	1520.1623	1845.3195	2994.5422	3041.4896	3049.4385	3054.6916	3064.918	3093.2818	3094.7506	3098.3229	3108.3959	3113.6234	3119.0317	3129.5253
CC1C2CCC(C2)C1=O	C[C@H]1[C@H]2CC[C@H](C2)C1=O	
InChI=1S/C8H12O/c1-5-6-2-3-7(4-6)8(5)9/h5-7H,2-4H2,1H3	InChI=1S/C8H12O/c1-5-6-2-3-7(4-6)8(5)9/h5-7H,2-4H2,1H3/t5-,6-,7+/m0/s1
