15
gdb 98114	5.01477	0.80774	0.7017	4.957	68.88	-0.2645	-0.085	0.1794	1522.1223	0.110679	-454.004279	-453.994553	-453.993608	-454.040445	32.378	
C	 0.0013430345	 1.4783664392	 0.0340265265	-0.338471
N	 0.1411667343	 0.0375556977	-0.0300400552	-0.309922
C	 0.5737330846	-0.6144294795	-1.125213896	 0.344847
O	 0.9029046816	-0.1218009998	-2.1917301894	-0.372339
C	 0.625252754	-2.1427805635	-0.9136542531	 0.297773
O	 0.3058602188	-2.6535320532	 0.1288556166	-0.279453
C	 1.1129406208	-2.9078083394	-2.1412807897	-0.453398
C	 1.1620582165	-4.3491147681	-1.9433084265	 0.284006
N	 1.2065551151	-5.4938946129	-1.8018970463	-0.293187
H	 0.6404964052	 1.9001190874	 0.8165926222	 0.141054
H	 0.3024684448	 1.8848694585	-0.9322823253	 0.173422
H	-1.0362912345	 1.7632185262	 0.2364690367	 0.141054
H	-0.0873937245	-0.5403644713	 0.7664615959	 0.272845
H	 0.4642360377	-2.651381103	-2.9868351733	 0.195885
H	 2.0985521114	-2.5179317183	-2.4207482333	 0.195884
36.1228	73.0442	88.7317	111.6381	144.6815	207.8766	289.8439	359.6019	365.084	426.8971	435.5761	515.4013	625.2216	714.947	762.5759	851.943	924.2169	941.9062	1007.2294	1134.1929	1151.5474	1182.6425	1188.1008	1255.4081	1342.5984	1411.3472	1445.8281	1493.6168	1496.5502	1574.4266	1785.1646	1823.3047	2377.2879	3036.657	3058.5931	3086.9806	3093.4793	3153.5605	3608.4293
CNC(=O)C(=O)CC#N	CNC(=O)C(=O)CC#N	
InChI=1S/C5H6N2O2/c1-7-5(9)4(8)2-3-6/h2H2,1H3,(H,7,9)	InChI=1S/C5H6N2O2/c1-7-5(9)4(8)2-3-6/h2H2,1H3,(H,7,9)
