18
gdb 9766	2.61452	2.1658	1.69022	1.8121	63.32	-0.2445	0.0787	0.3231	868.774	0.153372	-422.080093	-422.071946	-422.071002	-422.112483	30.354	
C	-0.0907236899	 1.5692631012	 0.2818881605	-0.424619
C	-0.016997841	 0.0751072691	-0.0044992834	 0.437321
C	-1.3992302663	-0.5455783174	-0.2640431414	-0.087101
O	-1.3358022212	-1.9524899848	-0.3460670696	-0.424612
O	 0.8492661013	-0.1331152345	-1.1132084806	-0.291035
C	 1.7372812604	-1.1949230852	-0.7948071898	-0.097412
C	 1.8568477279	-1.0709845657	 0.7217896346	-0.104763
O	 0.5539007785	-0.6391050542	 1.1020262371	-0.311822
H	 0.9126497069	 1.9598992593	 0.4662395987	 0.123472
H	-0.5139645925	 2.0978552186	-0.5772759826	 0.128292
H	-0.7144612218	 1.7616372761	 1.1582862592	 0.124585
H	-2.0943359157	-0.2144682066	 0.5239128888	 0.086013
H	-1.772372482	-0.1799010769	-1.2247908823	 0.118262
H	-0.9120319115	-2.2347594266	 0.4737488114	 0.283909
H	 1.311778089	-2.1628302515	-1.0874812044	 0.112285
H	 2.6797474752	-1.0324475348	-1.3244488204	 0.110409
H	 2.0759066486	-2.0123529755	 1.2325329827	 0.112623
H	 2.6127261438	-0.3253189906	 1.0056866813	 0.104193
86.1823	138.4905	194.2813	229.1954	239.3901	346.3083	362.0718	383.5187	485.2647	595.8316	644.6958	652.5993	791.3389	843.5649	911.1147	914.5462	951.6644	971.671	1066.3066	1076.6392	1096.5176	1134.1567	1152.6942	1193.1521	1222.8326	1243.4772	1249.3172	1266.8763	1368.92	1383.6438	1392.2508	1403.8613	1436.3386	1480.635	1483.827	1492.8454	1513.1364	1520.4823	2980.5082	3006.4227	3029.1098	3049.699	3093.1305	3095.5991	3102.0923	3125.9224	3134.382	3785.8871
CC1(CO)OCCO1	CC1(CO)OCCO1	
InChI=1S/C5H10O3/c1-5(4-6)7-2-3-8-5/h6H,2-4H2,1H3	InChI=1S/C5H10O3/c1-5(4-6)7-2-3-8-5/h6H,2-4H2,1H3
