15
gdb 47628	2.89938	1.43771	0.99003	7.5569	74.75	-0.264	-0.0716	0.1923	1129.8086	0.115013	-416.870562	-416.862838	-416.861894	-416.903001	28.627	
O	 0.0039153023	-0.0285432382	-0.244704572	-0.347532
C	-0.0157168112	 1.1711918869	-0.0589227526	 0.374587
N	-1.1653490195	 1.877010161	 0.183594452	-0.342263
C	-1.2428287463	 3.3278366915	 0.0726419681	-0.174177
C	-0.0439945626	 3.9686352325	 0.7746527259	-0.254305
C	 1.2306503264	 3.2783971287	 0.3925299479	-0.140369
C	 1.2400553072	 1.9981092165	-0.0158261295	 0.045986
C	 2.4574287945	 1.3366099988	-0.3675393565	 0.253329
N	 3.4597984176	 0.8357085782	-0.6552320788	-0.328104
H	-2.0073545351	 1.3364509897	 0.0470536705	 0.256835
H	-1.2595772347	 3.6450238008	-0.9811735545	 0.12053
H	-2.1770206213	 3.6629941012	 0.530309278	 0.125623
H	 0.0092483991	 5.0329228408	 0.5248906336	 0.130091
H	-0.1627350499	 3.9110991651	 1.8666370505	 0.144062
H	 2.1652819632	 3.8242602765	 0.4807082275	 0.135706
92.4185	154.3962	169.8018	251.8872	315.8185	377.0987	433.5507	508.5599	537.7518	587.42	610.6535	639.1314	724.1996	804.4612	892.226	905.4743	928.66	1017.2539	1076.8229	1113.2367	1173.1986	1220.4364	1248.6739	1304.1332	1365.5822	1381.2407	1411.6733	1459.7246	1474.8071	1517.3572	1674.3577	1792.924	2352.2629	2988.2066	3012.0655	3081.4405	3091.9521	3181.5189	3612.3723
O=C1NCCC=C1C#N	O=C1NCCC=C1C#N	
InChI=1S/C6H6N2O/c7-4-5-2-1-3-8-6(5)9/h2H,1,3H2,(H,8,9)	InChI=1S/C6H6N2O/c7-4-5-2-1-3-8-6(5)9/h2H,1,3H2,(H,8,9)
