17
gdb 77629	2.15239	1.46781	1.31603	5.804	75.39	-0.2391	-0.0028	0.2363	1086.2994	0.135373	-417.971828	-417.96306	-417.962116	-418.00495	32.813	
C	-0.0094624315	 1.5442620586	-0.0146232987	-0.425478
C	 0.054089377	 0.0365864229	-0.1002428693	-0.108616
C	 0.6692582878	-0.7596755964	-1.2299266677	 0.167888
N	-0.0561840504	-1.7926093006	-1.8573852507	-0.581763
C	 1.9754056774	-0.0994005665	-1.6848274065	-0.143885
O	 2.4654771433	-0.0185004081	-0.319525587	-0.31451
C	 1.3279121578	-0.7341217629	 0.1671643926	 0.289476
C	 1.5064122892	-1.732334267	 1.1664065817	 0.232418
N	 1.6365299793	-2.552559232	 1.9730726483	-0.352266
H	 0.9628134616	 1.9920020371	-0.2311172185	 0.143401
H	-0.7462033238	 1.9480232424	-0.7167982401	 0.121093
H	-0.3006958186	 1.8544538516	 0.9932850459	 0.134918
H	-0.8129532788	-0.4946659494	 0.2863655213	 0.121994
H	-0.7933295666	-1.4395530628	-2.4572544862	 0.243739
H	 0.5350505727	-2.4182147068	-2.3928570744	 0.242356
H	 2.6085584238	-0.7717208347	-2.276605862	 0.115994
H	 1.9186581999	 0.8820175946	-2.1683827688	 0.11324
108.535	146.427	171.2513	204.0582	246.1878	272.4086	328.7333	356.2915	429.4491	505.9382	551.0319	582.2112	628.3486	713.4019	725.9175	772.2716	803.3892	951.8404	983.9969	997.0382	1030.1078	1090.6775	1116.603	1124.6249	1149.11	1180.7388	1262.1395	1291.6558	1306.1212	1351.2769	1409.8862	1475.6327	1491.0786	1506.6441	1517.788	1658.8765	2342.0166	3024.12	3043.0986	3078.377	3105.5588	3128.7951	3151.8139	3511.3263	3595.1607
CC1C2(N)COC12C#N	C[C@H]1[C@@]2(N)CO[C@@]12C#N	
InChI=1S/C6H8N2O/c1-4-5(8)3-9-6(4,5)2-7/h4H,3,8H2,1H3	InChI=1S/C6H8N2O/c1-4-5(8)3-9-6(4,5)2-7/h4H,3,8H2,1H3/t4-,5-,6-/m0/s1
