17
gdb 106593	3.26944	1.56555	1.38054	2.3553	70.59	-0.2247	-0.0226	0.2021	969.5883	0.136482	-421.789817	-421.782576	-421.781632	-421.821265	29.574	
O	 0.0173935778	 1.4070351493	-0.0988605268	-0.420752
C	 0.0317774572	-0.0023108063	 0.0098235642	-0.16179
C	-1.3704298517	-0.5583488957	 0.0990216017	 0.271472
O	-2.1214488557	-0.2103294147	-1.088738277	-0.27508
C	-3.3401658783	-0.8454767806	-0.6662207993	-0.055958
C	-2.8079497933	-2.2746164689	-0.3861908406	-0.085653
C	-1.5816578147	-2.0951522362	 0.0928740985	-0.120514
C	-3.5472775637	-0.1493236035	 0.704142311	-0.090199
C	-2.3207694365	 0.0305630534	 1.1798369607	-0.101198
H	-0.6457289236	 1.6169124445	-0.7677036587	 0.293989
H	 0.5494168344	-0.4729069022	-0.8405232252	 0.09964
H	 0.5892343694	-0.2506964994	 0.9197727745	 0.107654
H	-4.1275995353	-0.7382847619	-1.4104700489	 0.083067
H	-3.3743400398	-3.1869489898	-0.5063433094	 0.113817
H	-0.8746523187	-2.8206483193	 0.4693491214	 0.112574
H	-4.5046889862	 0.0632467258	 1.1573276456	 0.111818
H	-1.9939610615	 0.4424469554	 2.1233433481	 0.117113
104.3662	160.5124	296.9149	369.695	421.9863	444.0005	461.6545	543.2726	621.5384	671.2127	686.9362	735.1619	740.347	803.4713	840.9768	862.959	884.9062	899.7699	907.4234	925.1391	994.7362	1011.1112	1064.8062	1066.7081	1102.6433	1109.1106	1223.712	1235.2791	1267.2923	1277.939	1305.7122	1325.1445	1375.3272	1443.9151	1500.5014	1615.815	1662.0328	2988.0692	3069.3674	3137.0288	3224.0749	3229.0521	3250.574	3256.3858	3790.216
OCC12OC(C=C1)C=C2	OC[C@@]12O[C@@H](C=C1)C=C2	
InChI=1S/C7H8O2/c8-5-7-3-1-6(9-7)2-4-7/h1-4,6,8H,5H2	InChI=1S/C7H8O2/c8-5-7-3-1-6(9-7)2-4-7/h1-4,6,8H,5H2/t6-,7+
