19
gdb 116933	5.22166	0.55561	0.54121	1.5695	83.62	-0.2474	0.0227	0.27	2098.7203	0.157311	-422.954873	-422.94486	-422.943916	-422.992383	33.654	
C	-0.2887986213	 1.4279007898	-0.2528851231	-0.219084
O	-0.3324506525	 0.0406302578	-0.4941627074	-0.228072
C	 0.9617596209	-0.5252093715	-0.5690579132	-0.202689
C	 0.874619035	-1.9546073526	-0.8290857008	-0.002183
C	 0.8286185814	-3.1373648065	-1.0509491186	 0.17495
C	 0.7520029545	-4.564101683	-1.3050794906	-0.037878
C	-0.6192651541	-5.2589686515	-1.0708960809	-0.284644
C	-0.5179982969	-5.6434556382	-2.5587734149	-0.058579
O	 0.7176642778	-4.912897307	-2.7149583562	-0.278407
H	 0.2099663948	 1.6630972826	 0.7011204215	 0.104681
H	 0.2373835771	 1.9678511227	-1.0563438783	 0.106074
H	-1.3215788081	 1.7801664403	-0.2079865557	 0.131631
H	 1.5490325874	-0.0411046019	-1.3693234686	 0.119617
H	 1.5131287108	-0.3497493322	 0.3717122118	 0.11541
H	 1.5895151808	-5.0730489178	-0.8086994796	 0.101605
H	-0.6052859565	-6.0812560225	-0.3550026728	 0.115381
H	-1.4265127669	-4.5697873652	-0.8247891121	 0.1291
H	-0.3856556202	-6.7137121126	-2.7599999129	 0.102333
H	-1.3067156341	-5.2534395206	-3.2120298278	 0.110754
29.1206	50.1065	70.2127	83.3017	133.179	209.0863	228.523	313.4309	359.3347	389.8106	518.7	581.1255	715.0517	801.7153	846.1282	935.4185	945.9792	978.5556	1010.5654	1023.6597	1029.9464	1087.1011	1142.5202	1163.482	1182.7048	1187.4603	1215.1609	1220.3884	1254.4495	1257.8671	1261.6407	1353.2206	1366.1681	1410.5559	1476.9615	1484.3675	1488.8364	1493.446	1515.5191	1531.9415	2363.7792	2943.9264	2961.6243	2968.8313	3005.3481	3011.5095	3020.4464	3062.2676	3092.5153	3121.2288	3153.4668
COCC#CC1CCO1	COCC#C[C@H]1CCO1	
InChI=1S/C7H10O2/c1-8-5-2-3-7-4-6-9-7/h7H,4-6H2,1H3	InChI=1S/C7H10O2/c1-8-5-2-3-7-4-6-9-7/h7H,4-6H2,1H3/t7-/m0/s1
