19
gdb 51801	3.79925	1.02736	0.92635	3.6832	76.99	-0.2371	0.0366	0.2738	1292.2944	0.162087	-419.223661	-419.215517	-419.214573	-419.257417	30.716	
O	-0.1214050743	 0.0267995938	 0.5897112354	-0.329914
C	-0.007536154	 1.1603377098	 0.1698199094	 0.150165
N	 1.1526054392	 1.737946582	-0.2340340528	-0.278879
C	 2.44331556	 1.0738794304	-0.2006210171	 0.056111
C	 3.0633275932	 0.8666158818	-1.6121128345	-0.239896
C	 4.5943113467	 0.9326278669	-1.4174773558	-0.212765
C	 4.7719012353	 1.8133738822	-0.1927855377	-0.025143
N	 3.9503218979	 3.047277586	-0.2333042863	-0.353063
C	 3.49574648	 1.8733225117	 0.5518179275	-0.059832
H	-0.8657795063	 1.8551123052	 0.0712331533	 0.070507
H	 1.1399494646	 2.6953096732	-0.5521514981	 0.25318
H	 2.2759264789	 0.117257158	 0.3001282814	 0.120891
H	 2.7295327031	-0.0686047515	-2.0666744759	 0.109878
H	 2.7368124633	 1.6830099857	-2.2604533835	 0.113407
H	 5.0092964648	-0.0588156006	-1.2011996549	 0.105028
H	 5.1103801183	 1.3204697357	-2.301278899	 0.106415
H	 5.7283187118	 1.8479070298	 0.3188575398	 0.088834
H	 4.3542706439	 3.7318744773	 0.4008767882	 0.233116
H	 3.4464135635	 1.9448932926	 1.6332030605	 0.091959
37.1237	89.4153	192.6591	216.0243	259.5534	377.18	422.5898	496.446	578.882	609.7329	654.0805	772.1696	808.9436	828.5676	874.9097	909.2613	920.1955	941.9428	988.1692	1014.8474	1031.174	1048.0959	1082.4245	1098.5287	1129.2012	1170.2736	1192.2163	1220.7846	1236.71	1266.7573	1309.9058	1323.8271	1345.0123	1350.0465	1384.0635	1428.3248	1430.3482	1481.2453	1494.7675	1526.1333	1800.1497	2929.8885	3039.9827	3071.3555	3084.3943	3096.3627	3121.6121	3160.9168	3173.0466	3504.6713	3622.9463
O=CNC1CCC2NC12	O=CN[C@H]1CC[C@H]2N[C@@H]12	
InChI=1S/C6H10N2O/c9-3-7-4-1-2-5-6(4)8-5/h3-6,8H,1-2H2,(H,7,9)	InChI=1S/C6H10N2O/c9-3-7-4-1-2-5-6(4)8-5/h3-6,8H,1-2H2,(H,7,9)/t4-,5+,6-/m0/s1
