19
gdb 95322	2.61377	1.74254	1.45543	1.9691	69.41	-0.2501	0.0649	0.315	965.44	0.162407	-460.173213	-460.165941	-460.164997	-460.204549	29.568	
O	-0.055030146	 1.4283353224	 0.106476503	-0.436748
C	 0.0219706811	 0.0135987522	 0.0037046214	 0.087091
C	 0.8321811928	-0.5762000226	 1.1810851837	-0.107401
O	 0.6194674618	-1.9689308469	 1.3768233869	-0.263935
C	-0.7556213345	-2.3170570646	 1.3395891631	 0.215407
C	-1.3124737816	-2.0752161905	-0.0646563695	-0.262529
C	-1.4098807874	-0.5432148859	 0.0180822053	-0.045825
C	-2.0535568292	-0.3925969669	 1.4035449205	-0.090422
O	-1.5335159226	-1.4901427925	 2.1815647385	-0.269262
H	 0.8395538681	 1.7841598256	 0.1028253422	 0.286484
H	 0.4901038232	-0.2765037038	-0.9496236409	 0.070705
H	 1.9075073876	-0.4537081395	 1.0151820207	 0.098708
H	 0.5606065921	-0.0176921456	 2.0868589572	 0.113412
H	-0.8085477059	-3.3420975855	 1.7100717036	 0.088063
H	-0.6439535736	-2.4468053907	-0.8434037503	 0.10843
H	-2.297585742	-2.5370493466	-0.1811218203	 0.106044
H	-2.0015214607	-0.0755899337	-0.7715143095	 0.079943
H	-1.7960401586	 0.5518923276	 1.8909337837	 0.122749
H	-3.1462388146	-0.4770341026	 1.3492441507	 0.099085
155.2159	239.6208	258.68	272.0208	370.8301	388.3847	431.4141	489.6743	543.8087	579.6474	765.6735	779.8896	842.0862	880.0114	922.8908	938.1768	947.3981	986.2544	1001.8936	1023.9176	1031.5977	1088.2883	1107.7068	1115.6018	1134.6819	1179.1774	1199.8275	1221.0148	1257.7693	1276.5245	1309.6816	1325.728	1346.2919	1349.8872	1378.5397	1386.7334	1406.4544	1435.9637	1489.0126	1508.5856	1529.9442	2978.1098	3019.4095	3023.5298	3060.4081	3077.7839	3091.2442	3094.7092	3110.3591	3122.5097	3813.9167
OC1COC2CC1CO2	O[C@H]1CO[C@@H]2C[C@H]1CO2	
InChI=1S/C6H10O3/c7-5-3-9-6-1-4(5)2-8-6/h4-7H,1-3H2	InChI=1S/C6H10O3/c7-5-3-9-6-1-4(5)2-8-6/h4-7H,1-3H2/t4-,5-,6+/m0/s1
