19
gdb 108498	2.7004	1.49231	1.19164	2.4498	76.19	-0.2402	0.021	0.2612	1091.0742	0.160007	-423.010887	-423.002701	-423.001757	-423.043728	31.231	
O	-0.0893179676	 1.4676639847	 0.2213093405	-0.42588
C	 0.0224817543	 0.0666101349	 0.0043038825	-0.170381
C	-1.3864996988	-0.4883016358	-0.0718688132	 0.2657
C	-2.1847986719	-0.5285543945	 1.2563878577	-0.104515
O	-2.4797273101	-1.9307716353	 1.0794911864	-0.297732
C	-1.6157611428	-2.027312403	-0.0750094239	 0.066014
C	-2.3721597258	-2.3907835372	-1.3617624019	-0.285143
C	-2.720367937	-1.0388522233	-1.9442615448	-0.069438
C	-2.1863305956	-0.0251325403	-1.2622906833	-0.135738
H	 0.795938176	 1.8413691273	 0.2581374493	 0.290579
H	 0.5611929028	-0.1528330275	-0.9312939718	 0.089607
H	 0.5691723558	-0.4207798841	 0.8276133564	 0.087029
H	-1.5768884981	-0.3471760326	 2.1529321614	 0.09451
H	-3.0928564505	 0.0816275358	 1.3046799139	 0.105372
H	-0.7517864284	-2.6715360146	 0.1287330828	 0.065556
H	-1.7622107648	-2.9895933642	-2.0516252188	 0.101194
H	-3.255515462	-2.9911091057	-1.113609002	 0.122104
H	-3.3380612756	-0.9312067174	-2.8297488071	 0.094695
H	-2.2961951799	 1.0267300827	-1.4979686642	 0.106466
85.8511	132.9296	174.2812	231.6987	261.1901	318.7605	352.7227	451.8293	475.7497	663.3549	670.8187	760.5243	777.176	868.1843	882.1738	928.3007	954.9178	959.7639	982.2913	1008.0097	1012.228	1048.7509	1055.9558	1088.2581	1131.4659	1152.2371	1173.1067	1198.7975	1203.1889	1253.0609	1272.8871	1293.314	1311.1705	1332.5761	1358.8738	1396.2656	1456.6426	1466.7599	1514.2517	1526.1896	1676.9669	2963.1585	2995.5223	3007.3722	3013.0835	3033.1333	3061.342	3069.6111	3183.5915	3213.8298	3830.811
OCC12COC1CC=C2	OC[C@]12CO[C@H]1CC=C2	
InChI=1S/C7H10O2/c8-4-7-3-1-2-6(7)9-5-7/h1,3,6,8H,2,4-5H2	InChI=1S/C7H10O2/c8-4-7-3-1-2-6(7)9-5-7/h1,3,6,8H,2,4-5H2/t6-,7+/m0/s1
