19
gdb 92276	3.96289	1.20474	1.0006	2.1654	85.93	-0.2144	-0.0202	0.1942	1191.6129	0.161697	-385.912059	-385.904581	-385.903637	-385.943876	30.291	
O	 0.2032102269	 1.4014616851	 0.1787753538	-0.433955
C	 0.078407196	-0.0053095808	 0.0370102633	 0.133016
C	-1.3965493691	-0.5093651665	-0.048218561	-0.281394
C	-1.2902893777	-1.7933562715	-0.8881050456	-0.046063
C	-2.3561537783	-2.2694152723	-1.9030786317	-0.306609
C	-1.5052518279	-2.6829593918	-3.0932542824	-0.063946
C	-0.232192279	-2.2597620607	-2.9930421927	-0.195738
C	-0.0736341322	-1.5156739189	-1.753718902	 0.376997
C	 0.7050715531	-0.5625077983	-1.2322527971	-0.334515
H	-0.1354872295	 1.7986075052	-0.6318076697	 0.271057
H	 0.5674840523	-0.4049832237	 0.9365922345	 0.092253
H	-1.8561089845	-0.6436135319	 0.9344822595	 0.097683
H	-1.9774867113	 0.2481446356	-0.590155814	 0.088874
H	-1.0570439755	-2.6396775025	-0.2259676122	 0.088159
H	-2.9855024445	-3.0824933403	-1.5269454116	 0.107419
H	-3.0381072255	-1.4565418153	-2.1946377408	 0.111509
H	-1.9189754622	-3.2051004249	-3.949338867	 0.100408
H	 0.5340502369	-2.3819811472	-3.7488237372	 0.101572
H	 1.6378468819	-0.1777054896	-1.6277309262	 0.093274
101.6914	165.1208	268.5611	321.4195	349.6369	407.8807	464.3201	492.8567	582.6108	628.9431	673.5021	761.3148	774.8907	827.3124	843.451	872.0666	929.2096	934.229	973.6128	979.2872	1014.6371	1064.057	1075.0395	1084.1922	1122.9977	1134.3321	1182.4093	1200.4816	1239.4663	1253.9905	1267.9718	1290.9513	1319.3029	1331.8714	1353.0169	1373.2992	1426.4067	1478.1176	1486.8917	1619.7019	1710.8703	2993.9061	3002.0573	3007.376	3030.0655	3068.2504	3098.9851	3188.0523	3200.4882	3215.1792	3790.5329
OC1CC2CC=CC2=C1	O[C@H]1C[C@H]2CC=CC2=C1	
InChI=1S/C8H10O/c9-8-4-6-2-1-3-7(6)5-8/h1-2,4,7-9H,3,5H2	InChI=1S/C8H10O/c9-8-4-6-2-1-3-7(6)5-8/h1-2,4,7-9H,3,5H2/t7-,8-/m1/s1
