20
gdb 55154	3.46669	1.21671	1.01619	3.8274	79.72	-0.2305	0.0352	0.2657	1217.9822	0.172173	-403.183678	-403.175135	-403.174191	-403.21725	32.205	
C	-0.2388120917	 1.378132454	-0.5445641419	-0.497056
C	-0.1281837583	-0.1166806719	-0.2816035427	 0.389665
O	 0.8602657655	-0.7592952061	-0.5977069592	-0.375133
N	-1.2014356435	-0.7090751555	 0.3234247907	-0.088415
C	-2.4001058089	-0.0441099206	 0.8359656432	-0.186076
C	-3.3966715329	-1.1756786245	 1.0122961927	-0.042057
C	-3.6189115967	-2.0740429301	-0.1782181248	-0.284688
C	-2.6372592675	-2.4781094827	 0.8915832451	-0.047013
C	-1.1801017683	-2.1410563333	 0.6387241046	-0.168906
H	 0.6957847143	 1.7084785739	-0.9965290466	 0.145421
H	-1.0661430213	 1.603530966	-1.225929034	 0.136001
H	-0.412963573	 1.9389585955	 0.3794727839	 0.13363
H	-2.2130720656	 0.4487192279	 1.802560834	 0.105761
H	-2.7469634285	 0.7228497452	 0.1357611657	 0.11586
H	-4.1919317671	-1.0427517711	 1.7356503785	 0.09187
H	-4.5582173928	-2.6134266667	-0.2238836821	 0.115309
H	-3.2296700594	-1.7622778873	-1.1430835723	 0.119481
H	-2.8627999553	-3.3251558866	 1.5277443885	 0.092449
H	-0.7259654239	-2.6847740073	-0.1935050071	 0.134965
H	-0.5717986752	-2.3426252188	 1.5317416238	 0.108931
57.5734	114.5608	144.7117	222.7945	232.1683	309.347	343.5596	421.3665	526.0277	596.3711	621.1346	651.9801	785.1335	813.2472	827.1909	880.5985	931.7343	955.6556	964.5521	1038.3989	1043.7557	1050.4539	1075.9714	1084.6587	1093.0765	1115.6189	1121.6807	1198.3521	1199.9859	1238.7665	1248.1117	1332.591	1352.3676	1365.6944	1379.2051	1401.6939	1434.9321	1470.8832	1483.3089	1483.5425	1515.2867	1524.9116	1759.5065	2980.8993	3007.5583	3040.3762	3062.1404	3093.3662	3101.8273	3126.6911	3161.1756	3181.9314	3189.3097	3217.3503
CC(=O)N1CC2CC2C1	CC(=O)N1C[C@H]2C[C@H]2C1	
InChI=1S/C7H11NO/c1-5(9)8-3-6-2-7(6)4-8/h6-7H,2-4H2,1H3	InChI=1S/C7H11NO/c1-5(9)8-3-6-2-7(6)4-8/h6-7H,2-4H2,1H3/t6-,7+
