16
gdb 36561	2.66293	0.8664	0.68351	3.7209	81.23	-0.2775	0.011	0.2885	1564.8564	0.121243	-363.555803	-363.546036	-363.545092	-363.591144	34.724	
C	-0.0166342425	-1.2237629582	 0.0608458537	-0.457856
C	-0.0385835028	-0.0239397825	 0.0099972389	 0.341815
C	-0.031521308	 1.4427802719	-0.0343014972	-0.35752
C	 1.4153799144	 2.0110613741	 0.0040199978	-0.184138
C	 2.1663922518	 1.5863774521	 1.2790231978	-0.352438
C	 3.5230402593	 2.1247247932	 1.322413937	 0.25664
N	 4.5937284275	 2.5586823086	 1.3434293218	-0.30118
C	-0.7467001389	 1.9486098986	-1.2093557955	 0.310379
C	-1.3109220866	 2.3884912009	-2.1733326658	-0.414687
H	-0.0139023737	-2.2855333811	 0.0969749538	 0.209558
H	-0.5539434663	 1.8089950665	 0.8627363308	 0.141203
H	 1.9565474584	 1.6659321688	-0.8804571136	 0.144137
H	 1.3565436975	 3.1011006303	-0.05178247	 0.136982
H	 1.6281656012	 1.9282180429	 2.1714577734	 0.151978
H	 2.2155058551	 0.4938410505	 1.3376355052	 0.170023
H	-1.8178044065	 2.7683684735	-3.0260002979	 0.205107
60.3317	94.9179	102.8949	128.242	197.7367	208.4074	307.9123	340.3071	398.1956	458.5454	506.7129	561.3305	598.5496	642.8083	646.4715	658.4392	661.2051	765.1918	850.2624	943.5848	1000.7887	1034.6169	1053.4503	1081.3646	1183.6021	1262.4465	1299.5204	1322.7256	1338.3509	1380.8948	1469.7229	1491.5912	2239.4692	2247.289	2364.24	2990.5177	3040.5014	3072.5563	3084.9368	3124.7565	3500.8352	3503.3692
C#CC(CCC#N)C#C	C#CC(CCC#N)C#C	
InChI=1S/C8H7N/c1-3-8(4-2)6-5-7-9/h1-2,8H,5-6H2	InChI=1S/C8H7N/c1-3-8(4-2)6-5-7-9/h1-2,8H,5-6H2
