17
gdb 90755	2.64196	1.61112	1.361	3.4926	66.8	-0.2662	0.0016	0.2678	986.3727	0.137512	-458.99184	-458.984311	-458.983367	-459.024289	28.889	
O	 0.3314116932	 1.2704882865	-0.393582292	-0.42486
C	 0.0900693481	-0.0728760431	-0.0518037031	 0.126624
C	 0.2582000133	-0.46562645	 1.4462717867	-0.269053
C	-1.2788943056	-0.7042498731	 1.5430098475	-0.175272
C	-1.4149194175	-0.5276400776	 0.0116857246	-0.078033
C	-2.4523827999	 0.5769193169	-0.1633833553	-0.113083
O	-2.5214222971	 1.2622142839	 1.1043537485	-0.232155
C	-2.0010981663	 0.5062556175	 2.1190094452	 0.419731
O	-2.0911908039	 0.8369123393	 3.2649874012	-0.336937
H	-0.0876614778	 1.8426686798	 0.2599956748	 0.29252
H	 0.6961570658	-0.6607688067	-0.7441869695	 0.09867
H	 0.8398669685	-1.3786713236	 1.5900882205	 0.117441
H	 0.6665094458	 0.3109028499	 2.0988235694	 0.12428
H	-1.6127646561	-1.6193287089	 2.0317404094	 0.107849
H	-1.6377563867	-1.4150774828	-0.5808837633	 0.085904
H	-2.1659039845	 1.3086079447	-0.9220917161	 0.136351
H	-3.4470076392	 0.1829866373	-0.3970164983	 0.120022
60.572	127.3966	226.1435	265.9576	364.6918	408.6765	456.1442	526.4865	589.783	703.4334	724.1245	761.7755	783.7966	812.4516	895.3457	933.2218	963.5797	994.8051	1019.1291	1033.296	1068.3902	1082.2321	1139.541	1162.0781	1178.2225	1216.6127	1254.0316	1255.2217	1269.6612	1283.1662	1307.1654	1332.4949	1394.6693	1437.8513	1479.0344	1514.668	1878.1367	3049.0894	3064.5669	3087.1837	3108.6008	3112.8266	3116.7989	3125.4771	3792.4032
OC1CC2C1COC2=O	O[C@H]1C[C@@H]2[C@H]1COC2=O	
InChI=1S/C6H8O3/c7-5-1-3-4(5)2-9-6(3)8/h3-5,7H,1-2H2	InChI=1S/C6H8O3/c7-5-1-3-4(5)2-9-6(3)8/h3-5,7H,1-2H2/t3-,4-,5+/m1/s1
