15
gdb 19501	3.41847	2.00216	1.82308	5.1981	64.84	-0.2643	0.0291	0.2934	783.8246	0.121023	-362.666132	-362.659522	-362.658577	-362.696985	24.816	
N	-0.1726651634	-1.1755820549	-0.1332329807	-0.350263
C	-0.0622493532	-0.0276883585	-0.0420325768	 0.311894
C	 0.0161823624	 1.4065833201	 0.031505718	-0.190872
C	 0.495829472	 2.1417586169	 1.2751400114	-0.075832
C	 1.2852302234	 1.3356332319	 2.290550627	-0.098632
O	 2.2602659803	 0.6205192301	 1.5417130984	-0.242918
C	 2.5852946123	 1.3628664952	 0.3729028117	-0.098632
C	 1.3392086177	 2.1594251849	 0.031120757	-0.07583
H	-0.7873694746	 1.8998293049	-0.5062549857	 0.136876
H	-0.0752635682	 3.0003114951	 1.6064488518	 0.109078
H	 1.7528426415	 2.0229905618	 3.0136267887	 0.101905
H	 0.6931103698	 0.5985086444	 2.8410780483	 0.131121
H	 3.4209941651	 2.0579339645	 0.5530354835	 0.101905
H	 2.8870841183	 0.6444672186	-0.3951236586	 0.131121
H	 1.4241241367	 3.0317202052	-0.6052098239	 0.109078
127.3759	141.1777	223.2749	340.9313	358.6428	559.2209	561.7464	713.529	731.8025	767.3726	806.9949	908.0761	928.5772	971.9527	975.3075	1004.4026	1033.1151	1073.0774	1100.6245	1122.3263	1125.9195	1184.4647	1224.2738	1250.9963	1321.7183	1349.3751	1358.6022	1365.6232	1433.5727	1507.8656	1518.9208	2353.9937	2977.3301	2982.7881	3082.8035	3085.5135	3163.6657	3188.1524	3197.9015
N#CC1C2COCC12	N#C[C@H]1[C@H]2COC[C@@H]12	
InChI=1S/C6H7NO/c7-1-4-5-2-8-3-6(4)5/h4-6H,2-3H2	InChI=1S/C6H7NO/c7-1-4-5-2-8-3-6(4)5/h4-6H,2-3H2/t4-,5+,6-
