13
gdb 55621	2.173	1.24991	0.93593	12.3358	71.14	-0.194	-0.028	0.166	1227.3369	0.086999	-448.918162	-448.908668	-448.907724	-448.953423	32.764	
N	 0.0039624824	 1.3663865132	 0.6394295417	-0.556714
C	-0.1557734011	 0.2008716552	 0.0114392138	 0.613102
N	 0.6057183059	-0.8544089084	 0.2156840359	-0.507438
H	 0.3115081754	-1.6498895096	-0.3705781143	 0.291247
H	 1.3742539693	-0.8754299777	 0.8622209709	 0.28745
O	-1.1334232069	 0.1531688988	-0.8425675981	-0.196041
C	-1.3050321783	-1.1507391258	-1.5397544949	-0.279858
C	-0.9206691871	-1.0638786712	-2.8868243464	 0.25563
N	-0.5267756749	-1.0102323577	-3.9817291848	-0.379795
C	-2.4523484806	-1.8227979564	-1.0904662923	 0.255673
N	-3.3593783306	-2.4135325673	-0.6601442259	-0.3798
H	 0.7264294995	 1.5187828119	 1.3198498905	 0.292197
H	-0.6311983129	 2.1146775252	 0.4134135739	 0.304348
45.4057	80.9331	106.6734	145.6921	184.6175	281.7203	324.6355	347.2435	409.0556	499.1894	514.5662	517.9572	555.6472	570.8949	612.1639	738.0322	762.7403	808.9341	938.6508	1050.2505	1073.0796	1089.7297	1280.747	1433.1146	1559.6859	1644.3961	1710.5942	2273.2497	2292.4919	3267.3268	3617.3389	3701.6804	3749.7798
NC(=[NH2+])O[C-](C#N)C#N	NC(=[NH2])O[C](C#N)C#N	
InChI=1S/C4H3N4O/c5-1-3(2-6)9-4(7)8/h(H3,7,8)/q-1/p+1	InChI=1S/C4H4N4O/c5-1-3(2-6)9-4(7)8/h7-8H2
