19
gdb 103240	2.77337	1.48798	1.18153	1.3678	74.37	-0.2281	0.0512	0.2793	1097.8986	0.156996	-422.933283	-422.924738	-422.923794	-422.966291	33.485	
C	 0.1982890154	 1.4712270798	 0.2593607897	-0.392168
C	-0.2413019401	 0.0412324727	-0.0840391045	-0.261447
C	 0.6088016972	-0.5840209015	-1.1769444125	 0.418299
O	 0.413898529	 0.0558372186	-2.4255946399	-0.473861
C	 2.0374242657	-1.1127851571	-1.0934100977	-0.179507
C	 2.3562281052	-2.0647294675	 0.0970201144	 0.005404
O	 1.2254056404	-2.179636349	 0.9735177364	-0.245541
C	 1.2359670319	-2.9342677913	-0.2482062807	 0.005166
C	 0.8634499739	-2.0377077337	-1.4666614679	-0.160815
H	 1.2354056145	 1.4906655029	 0.6107430615	 0.120374
H	 0.1179186404	 2.149302741	-0.5987366835	 0.100773
H	-0.4310846474	 1.8883004659	 1.0507489799	 0.118568
H	-0.2106232127	-0.5761466865	 0.8095208701	 0.138586
H	-1.2739020637	 0.0520928724	-0.4542636253	 0.099405
H	 0.7230234815	 0.9637029511	-2.3364663895	 0.283842
H	 2.7992394063	-0.7353977516	-1.7633301809	 0.093988
H	 3.3334477514	-2.2724967543	 0.5166437424	 0.111595
H	 1.0973572272	-4.006027435	-0.1724874529	 0.11308
H	 0.6393653439	-2.4418366071	-2.4451191191	 0.104257
65.2175	143.3178	216.4009	255.619	286.7031	290.8682	363.8443	383.2419	426.6291	536.7391	626.7575	672.3392	758.3956	763.9058	791.297	800.2772	848.3507	887.7036	911.6198	933.2572	952.8675	994.8553	1007.0247	1031.0233	1039.7502	1046.8347	1089.8132	1151.0133	1210.5543	1225.0571	1243.0923	1268.8127	1283.6484	1309.1903	1344.3798	1388.4551	1408.3725	1441.6882	1482.2002	1501.1712	1508.8756	3026.8511	3038.5573	3086.5766	3109.2764	3175.6054	3179.3463	3193.8073	3197.1973	3207.9355	3806.87
CCC1(O)C2C3OC3C12	CC[C@@]1(O)[C@H]2[C@H]3O[C@H]3[C@@H]12	
InChI=1S/C7H10O2/c1-2-7(8)3-4(7)6-5(3)9-6/h3-6,8H,2H2,1H3	InChI=1S/C7H10O2/c1-2-7(8)3-4(7)6-5(3)9-6/h3-6,8H,2H2,1H3/t3-,4+,5-,6+,7-
