15
gdb 53431	2.86113	1.07155	0.89972	3.2802	69.73	-0.2607	-0.0047	0.256	1316.7158	0.11156	-457.767982	-457.759175	-457.75823	-457.803866	29.765	
C	-0.0138634416	 1.4478921257	 0.0788696456	-0.498928
C	-0.0177711243	-0.0048103473	 0.0092462104	 0.039333
C	-0.0183977635	-1.2066972514	-0.0582689225	 0.136488
C	-0.0313563556	-2.6648555383	-0.1175104733	-0.249058
O	 0.6765974151	-3.2893778122	 0.9532777295	-0.228803
C	-0.2739614882	-3.5167698836	 1.9614443434	 0.026298
O	-1.5263102185	-3.7380690181	 1.3104015148	-0.217327
C	-1.4645787461	-3.2167599654	 0.0581828651	 0.437069
O	-2.3691542655	-3.2161465506	-0.7165215822	-0.325429
H	 0.6632366233	 1.8003406478	 0.8642884256	 0.157078
H	 0.3169863574	 1.8863752763	-0.8684899637	 0.158523
H	-1.0138332763	 1.8365538775	 0.2984579612	 0.158782
H	 0.3908068342	-3.0293495222	-1.057983196	 0.146684
H	 0.0029883741	-4.4142498832	 2.5184457206	 0.139359
H	-0.3789709044	-2.6526411552	 2.6329373316	 0.119929
17.381	69.1762	85.6936	163.6359	209.624	260.2865	336.6377	415.0087	463.1118	523.4049	670.9453	690.1126	749.5341	839.9598	899.2805	979.4344	1016.4777	1051.3172	1052.5891	1081.0605	1141.5844	1171.5957	1215.3466	1225.2739	1262.5464	1335.9167	1412.951	1436.956	1473.8497	1476.1511	1538.6824	1909.0363	2369.4684	3006.4604	3032.4443	3079.0956	3096.49	3097.3032	3113.1785
CC#CC1OCOC1=O	CC#C[C@H]1OCOC1=O	
InChI=1S/C6H6O3/c1-2-3-5-6(7)9-4-8-5/h5H,4H2,1H3	InChI=1S/C6H6O3/c1-2-3-5-6(7)9-4-8-5/h5H,4H2,1H3/t5-/m1/s1
