17
gdb 86284	1.86889	1.63216	1.16778	3.9748	68.9	-0.2731	0.0157	0.2888	1107.1461	0.135762	-455.135341	-455.126128	-455.125184	-455.169384	34.06	
N	-0.1048801255	 1.4156276861	 0.0881809723	-0.572264
C	 0.0292330818	-0.0324229669	-0.042269473	 0.049206
C	 0.9381319411	-0.4572229996	-1.1040570154	 0.204413
N	 1.6579839954	-0.7950387343	-1.9449909635	-0.340222
C	 0.2549711577	-0.6599404683	 1.3888874153	 0.147246
O	 0.899578112	 0.1380209299	 2.3348341975	-0.42705
C	-1.2726482003	-0.8963415104	 1.5065029814	-0.327322
C	-1.4076149016	-0.6866948128	-0.0235898569	 0.147251
O	-2.4599513286	 0.0839694809	-0.5193021402	-0.42705
H	 0.8073581673	 1.8259827728	 0.2685664074	 0.254219
H	-0.4375650757	 1.8059942312	-0.7893392175	 0.254221
H	 0.8214099967	-1.5903210373	 1.3204342937	 0.11736
H	 0.379675122	 0.9458027922	 2.425230003	 0.287909
H	-1.6090879893	-1.8477071759	 1.9205424962	 0.120978
H	-1.7534826344	-0.0815429093	 2.0570331527	 0.10584
H	-1.4141371915	-1.6262963357	-0.5787947295	 0.117359
H	-2.4801644472	 0.8998695574	-0.0046343833	 0.287906
81.9766	105.5049	124.8324	167.3715	249.7783	266.7424	339.5377	406.1502	458.7195	484.4634	506.2247	541.6642	547.7974	595.5375	636.9847	733.1569	859.5447	892.5465	898.999	934.3714	1033.6818	1083.518	1105.9446	1114.4232	1163.4159	1209.0865	1213.2657	1243.8715	1267.0883	1303.4365	1327.2787	1333.3994	1426.5028	1450.1139	1470.8827	1641.4727	2335.286	3060.3881	3102.8173	3104.3855	3133.2821	3492.1013	3569.0586	3787.2993	3788.7441
NC1(C#N)C(O)CC1O	N[C@@]1(C#N)[C@@H](O)C[C@H]1O	
InChI=1S/C5H8N2O2/c6-2-5(7)3(8)1-4(5)9/h3-4,8-9H,1,7H2	InChI=1S/C5H8N2O2/c6-2-5(7)3(8)1-4(5)9/h3-4,8-9H,1,7H2/t3-,4+,5-
