20
gdb 78659	2.39229	1.68197	1.32205	2.2952	77.81	-0.2471	0.0549	0.302	1062.6625	0.170445	-403.09758	-403.088765	-403.087821	-403.130653	33.768	
C	-0.017237842	 1.6912636825	-0.0591772865	-0.444711
C	 0.1254751707	 0.172039581	 0.0238204908	-0.020155
C	 1.1250160041	-0.6553660849	-0.8167644378	-0.096448
C	 2.5656181005	-0.2170576417	-0.4704600673	 0.16154
O	 3.0665100886	 1.0657243484	-0.7362499724	-0.436702
C	 2.2378323292	-0.7227034339	 0.9213759832	-0.167987
N	 1.2168237432	-1.6880393799	 0.3557357699	-0.194956
C	 0.7753405925	-0.5333180349	 1.2094402276	 0.316714
C	 0.1941636526	-0.7303192346	 2.5768917253	-0.501311
H	 0.8304193267	 2.2262991929	 0.3825393551	 0.104124
H	-0.1252242954	 2.0266393318	-1.0956214756	 0.131611
H	-0.9057249495	 2.0229654878	 0.4882706341	 0.123918
H	-0.8604454538	-0.2866630478	-0.1203903286	 0.0872
H	 0.8663015712	-0.9986500568	-1.8168881373	 0.079319
H	 3.265913177	-0.9121747584	-0.9425745241	 0.10624
H	 2.5416521318	 1.7083107391	-0.2516193959	 0.280207
H	 2.9299884651	-1.0372732167	 1.6953307814	 0.091843
H	 0.2227154082	 0.2009732491	 3.1538679942	 0.12177
H	-0.8481009773	-1.0604727679	 2.5140690225	 0.125457
H	 0.7546257766	-1.4890332852	 3.1313038215	 0.132326
101.0753	147.4721	187.6945	202.3869	230.1557	258.3563	298.2377	352.0557	412.2197	564.2072	601.6137	636.6477	706.7993	739.4979	773.1444	803.3636	835.584	926.9969	959.7486	993.742	1018.72	1022.1426	1046.7468	1074.4218	1103.3725	1136.5331	1141.5648	1167.5329	1189.7002	1250.5931	1253.436	1273.4379	1294.5447	1344.1555	1378.644	1407.821	1410.8989	1436.8244	1441.0194	1485.2966	1486.123	1493.794	1510.6204	3027.8597	3030.5833	3032.6378	3079.3934	3087.3753	3094.4482	3103.6657	3109.4849	3134.467	3173.7609	3843.8701
CC1C2C(O)C3N2C13C	C[C@H]1[C@H]2[C@@H](O)[C@@H]3N2[C@]13C	
InChI=1S/C7H11NO/c1-3-4-5(9)6-7(3,2)8(4)6/h3-6,9H,1-2H3	InChI=1S/C7H11NO/c1-3-4-5(9)6-7(3,2)8(4)6/h3-6,9H,1-2H3/t3-,4-,5+,6-,7+,8?/m0/s1
