14
gdb 34061	4.36013	1.40566	1.2258	3.7223	75.8	-0.224	-0.0626	0.1614	982.4481	0.098461	-399.36873	-399.361567	-399.360623	-399.40002	28.308	
C	-0.1100216748	-1.1322566573	-0.0069507969	-0.353568
C	-0.0902492796	 0.0694950712	-0.0535107527	 0.188407
C	-0.0450571531	 1.4819994549	-0.0879866675	 0.295064
O	-1.3052836074	 2.2270733287	 0.2977282555	-0.294545
C	-0.5371669283	 3.3109885987	-0.1433143746	 0.232324
N	-0.05434544	 4.1649203915	 0.6555298713	-0.219058
C	 1.3975499022	 3.7582449142	 0.6608229757	-0.172437
C	 1.3653378656	 2.3543286801	 0.0053718194	-0.132251
C	 0.3728697606	 2.4681717595	-1.0893799999	-0.244012
H	-0.1350154953	-2.1937793973	 0.0273901456	 0.200394
H	 2.0824249152	 4.4289517519	 0.1201704393	 0.11761
H	 1.6858521038	 3.7471069506	 1.715574403	 0.141878
H	 2.2579717876	 1.7405016741	-0.0828894408	 0.111876
H	 0.4280181234	 2.4355352692	-2.1692838574	 0.128317
134.1633	150.3824	255.635	344.2147	415.2932	467.2524	498.042	582.6181	587.2575	613.2093	642.4646	704.7403	708.5459	765.5509	826.3961	900.1164	918.3957	931.6589	945.3901	1013.2315	1044.7074	1056.4165	1135.5681	1171.7949	1190.3201	1243.2687	1298.1435	1384.9593	1481.6869	1628.9913	2235.5803	2991.0153	3089.7369	3160.378	3203.1313	3499.2954
C#CC12OC3=NCC1C23	C#C[C@@]12O[C]3[N]C[C@@H]1[C@@H]23	
InChI=1S/C7H5NO/c1-2-7-4-3-8-6(9-7)5(4)7/h1,4-5H,3H2	InChI=1S/C7H5NO/c1-2-7-4-3-8-6(9-7)5(4)7/h1,4-5H,3H2/t4-,5-,7-/m1/s1
