14
gdb 14429	4.30131	1.90528	1.70994	2.2999	55.97	-0.2379	0.0611	0.299	766.2542	0.1072	-419.59443	-419.588083	-419.587139	-419.624579	25.458	
O	 0.0274984074	 1.4234948844	 0.0080715959	-0.44579
C	 0.0088995918	 0.0292640368	-0.0054223094	 0.199442
C	-1.3207580652	-0.7317809305	-0.0718666258	-0.225177
C	-1.6332103822	-0.7908703638	-1.5891538196	-0.021236
O	-0.6033337348	-0.0609933089	-2.2666671243	-0.297113
C	 0.349316777	-0.6727150343	-1.3490872341	-0.088
C	-0.7152012395	-1.7926074551	-0.9683625665	 0.324907
O	-0.6869111453	-3.1455280418	-0.7962532465	-0.44365
H	-0.3599292536	 1.6942891431	-0.8355676559	 0.286003
H	 0.6346267052	-0.335446032	 0.8123673521	 0.101331
H	-2.0918728466	-0.8441890275	 0.678737706	 0.101741
H	-2.6257215997	-0.8344691452	-2.0159876631	 0.118706
H	 1.3555950622	-0.7525765668	-1.7545059586	 0.090563
H	-0.5921744969	-3.5644756783	-1.6600747902	 0.298274
176.2536	268.3174	313.7529	373.9442	395.374	495.2034	559.2901	625.725	660.5257	746.1127	781.6927	817.0255	893.2403	912.3602	938.9311	971.1476	977.0318	1020.9651	1042.3366	1095.4417	1104.2991	1141.3388	1187.0075	1217.0491	1258.4856	1285.2351	1310.7459	1329.8983	1437.9967	1496.5093	3099.1846	3150.1973	3210.9677	3221.8851	3757.629	3782.2915
OC1C2C3OC1C23O	O[C@H]1[C@H]2[C@H]3O[C@@H]1[C@@]23O	
InChI=1S/C5H6O3/c6-2-1-3-5(1,7)4(2)8-3/h1-4,6-7H	InChI=1S/C5H6O3/c6-2-1-3-5(1,7)4(2)8-3/h1-4,6-7H/t1-,2-,3+,4-,5+/m0/s1
