16
gdb 76392	2.68231	1.21588	1.14551	5.2391	61.4	-0.2478	0.0196	0.2675	1120.4727	0.123598	-512.166218	-512.157314	-512.15637	-512.199611	33.322	
N	 0.0743627995	 0.9485106615	 0.0709269511	-0.610665
H	-0.2733959642	 0.0341446399	-0.2089066203	 0.251004
H	 1.0660871999	 0.8512737973	 0.2661689949	 0.255285
H	-0.6362129886	 2.656599885	-0.630342588	 0.305437
C	-0.6438643827	 1.4107793647	 1.2274986354	 0.054118
C	-1.427971951	 0.3693485437	 2.0649804288	 0.060724
O	-1.3308702785	-0.9533621358	 1.6611025937	-0.425409
C	-0.2061792432	 1.0146055425	 2.631296051	-0.006156
O	 0.9448890322	 0.209845997	 2.6656632845	-0.435764
C	-1.2849997054	 2.7614653758	 1.1027550991	 0.429046
O	-1.1584295539	 3.3058998984	-0.1135047419	-0.379237
O	-1.8729714476	 3.2955076222	 2.0117625567	-0.36908
H	-2.4112581206	 0.6623947221	 2.4146909897	 0.138584
H	-0.4550066839	-1.2576710175	 1.9417770837	 0.29071
H	-0.2997673775	 1.775384475	 3.4000923966	 0.133506
H	 1.1229493456	-0.0158319916	 3.584585085	 0.307898
88.6203	153.7996	193.6843	227.8221	237.3651	252.8292	325.2085	352.0185	379.2635	500.2497	526.8772	544.7152	662.4711	671.8203	730.0253	762.0211	824.4331	856.5732	884.5539	900.4088	1039.2436	1064.8922	1101.5976	1142.7134	1188.0275	1225.5253	1239.219	1260.4485	1324.1627	1331.2518	1399.0793	1425.2474	1461.7843	1666.1841	1844.663	3164.4185	3187.2629	3480.6849	3528.1517	3559.9354	3720.0095	3824.0408
[NH3+]C1(C(O)C1O)C([O-])=O	N[C@]1([C@@H](O)[C@H]1O)C(=O)O	
InChI=1S/C4H7NO4/c5-4(3(8)9)1(6)2(4)7/h1-2,6-7H,5H2,(H,8,9)	InChI=1S/C4H7NO4/c5-4(3(8)9)1(6)2(4)7/h1-2,6-7H,5H2,(H,8,9)/t1-,2+,4-
