20
gdb 23045	2.3581	1.17862	1.08273	2.0293	79.44	-0.2318	-0.0041	0.2277	1261.6531	0.168072	-440.234841	-440.224586	-440.223642	-440.270527	37.284	
C	-0.3628182804	 1.4054922798	-0.0295101243	-0.408761
C	 0.0893217626	-0.0338872068	-0.0657684237	-0.061907
C	 1.4804572291	-0.4112946039	-0.4822240353	 0.111035
O	 2.4296460835	 0.5342106704	-0.831701032	-0.42468
C	 1.071321426	-0.620725931	 0.9775039942	-0.194845
C	 1.666747985	 0.1657031377	 2.0815583369	 0.399726
C	 1.5513938969	-0.345719618	 3.4945200263	-0.480307
N	 2.2832249426	 1.2586516388	 1.7989653531	-0.21165
O	 2.8127658508	 1.8795338805	 2.9399688986	-0.401464
H	 0.4453060075	 2.0761572315	 0.2656534136	 0.1337
H	-0.7063299389	 1.7131034844	-1.0229421546	 0.121811
H	-1.1922759479	 1.5438393499	 0.6720193146	 0.111727
H	-0.6876474251	-0.7402578059	-0.3486207769	 0.087643
H	 1.5968801613	-1.3175274762	-1.071727292	 0.098725
H	 2.6277950883	 1.0576202721	-0.0332393908	 0.294313
H	 0.8594023704	-1.6442673592	 1.2684846186	 0.090004
H	 2.5444584785	-0.5501806591	 3.9081185338	 0.151495
H	 1.1012259675	 0.4182381131	 4.1356187482	 0.15235
H	 0.9498389051	-1.2541436138	 3.5410984592	 0.123271
H	 3.2113899071	 2.6773706456	 2.5767593325	 0.307813
49.6359	68.9441	122.9048	141.7722	174.4866	224.2333	292.2144	317.7303	344.8764	366.2399	448.4312	504.045	549.1806	570.6285	635.9542	700.2169	719.8265	772.1252	843.2283	933.6849	972.2187	989.4282	1018.1307	1048.9002	1059.0348	1095.1442	1118.974	1141.9852	1174.5581	1215.3748	1264.469	1364.5129	1375.7151	1400.5234	1406.4071	1418.7351	1420.6139	1474.2009	1482.7097	1485.1765	1496.2827	1504.8029	1696.6565	3038.1833	3046.8295	3094.1181	3104.3661	3124.4515	3134.2911	3142.5824	3144.7369	3160.2778	3557.5849	3822.6302
CC1C(O)C1C(C)=NO	C[C@H]1[C@@H](O)[C@H]1C(=NO)C	
InChI=1S/C6H11NO2/c1-3-5(6(3)8)4(2)7-9/h3,5-6,8-9H,1-2H3	InChI=1S/C6H11NO2/c1-3-5(6(3)8)4(2)7-9/h3,5-6,8-9H,1-2H3/t3-,5-,6-/m1/s1
