18
gdb 38295	3.51036	1.78018	1.56778	1.7648	73.67	-0.2467	0.0223	0.269	890.1706	0.152514	-401.955561	-401.949545	-401.948601	-401.985705	25.642	
C	-0.0221386989	 1.6361763774	 0.0935115853	-0.232983
C	 1.5172830509	 1.4170664541	 0.056522494	-0.050156
C	 1.2387976074	 0.1247200767	 0.891116689	-0.235479
C	-0.0613715522	 0.0841061062	 0.0284461522	-0.02432
C	 0.5423603823	-0.2200094092	-1.3612856912	-0.002964
N	-0.261775137	 0.1994681932	-2.5152900507	-0.273013
C	 0.3303459495	 1.2113290384	-2.9990682261	 0.100488
O	 1.4825823735	 1.6667273456	-2.4431558686	-0.238735
C	 1.7438488442	 0.7880372766	-1.3230202161	 0.096157
H	-0.3513217746	 2.012066442	 1.0644580021	 0.100145
H	-0.4940553463	 2.2092894653	-0.7060837833	 0.110859
H	 2.2230435554	 2.1808509752	 0.381538862	 0.069903
H	 1.9425181229	-0.7100252885	 0.8080816366	 0.09343
H	 1.0422974404	 0.3466440769	 1.9417754072	 0.10506
H	-0.9406061381	-0.4877840848	 0.3208763719	 0.07334
H	 0.8181159352	-1.2734250201	-1.460677915	 0.082753
H	-0.0016277945	 1.7828987742	-3.8595042242	 0.136838
H	 2.7438700498	 0.3703359708	-1.4558295351	 0.088678
185.4046	253.2457	402.8865	443.0227	488.5472	581.1252	610.4448	801.3196	813.0088	839.9069	845.2374	852.0891	884.7696	904.7137	946.836	949.4384	966.7561	1017.7243	1022.9396	1032.2358	1048.6482	1069.3292	1081.8736	1094.4191	1113.8438	1119.8742	1221.1259	1222.1979	1238.4021	1244.9697	1284.5321	1300.1697	1323.6781	1335.6761	1339.4616	1369.5478	1488.8669	1521.694	1688.54	3048.5743	3066.3563	3076.2362	3090.3202	3119.0272	3123.196	3131.34	3133.3191	3208.9142
C1C2CC1C1N=COC21	C1[C@H]2C[C@@H]1[C@H]1N=CO[C@@H]21	
InChI=1S/C7H9NO/c1-4-2-5(1)7-6(4)8-3-9-7/h3-7H,1-2H2	InChI=1S/C7H9NO/c1-4-2-5(1)7-6(4)8-3-9-7/h3-7H,1-2H2/t4-,5+,6-,7+/m1/s1
