16
gdb 35301	5.77504	0.99068	0.92875	1.5854	84.12	-0.238	0.0046	0.2426	1240.519	0.122279	-363.494243	-363.485881	-363.484937	-363.526994	32.197	
C	-0.0654752392	-1.2151578333	-0.2706386815	-0.469235
C	-0.0257252138	-0.0243681706	-0.1068432146	 0.354598
C	 0.024079169	 1.4079823153	 0.1101357068	-0.134643
C	-0.2412508533	 1.9528112722	 1.5477293043	-0.326155
C	 1.1730759308	 2.5392991347	 1.5022329813	 0.173674
C	 2.1598693865	 1.4783754912	 1.1824614483	-0.26751
N	 1.4060737461	 2.0465999766	 0.056827833	-0.166286
C	 1.527368107	 3.8413464145	 1.9581746491	 0.200526
C	 1.7976675162	 4.9376597077	 2.3738350441	-0.39597
H	-0.104368425	-2.264655356	-0.4293743749	 0.204202
H	-0.5960556064	 1.9187228271	-0.6302352447	 0.122368
H	-1.0209459179	 2.7142403655	 1.5629116039	 0.128535
H	-0.4304171643	 1.2192339338	 2.3341773669	 0.119885
H	 3.2044795738	 1.7705946702	 1.1696947559	 0.135346
H	 1.9686033797	 0.4520505248	 1.4873341265	 0.128615
H	 2.0453760509	 5.9064554263	 2.7311355556	 0.192052
86.6739	112.1189	183.0789	204.2391	295.6051	403.204	448.1546	494.4784	532.0119	575.5931	599.8332	617.4585	626.6341	659.1254	660.3593	726.2864	777.583	826.6105	874.1269	954.0007	984.2035	1034.8754	1069.7585	1108.7548	1129.3424	1157.4141	1225.3633	1244.0066	1279.9386	1334.4612	1369.7645	1485.1085	1501.5972	2231.2978	2234.2664	3077.1617	3077.9216	3112.5062	3143.1372	3211.7505	3501.9442	3502.6935
C#CC1CC2(CN12)C#C	C#C[C@H]1C[C@]2(CN12)C#C	
InChI=1S/C8H7N/c1-3-7-5-8(4-2)6-9(7)8/h1-2,7H,5-6H2	InChI=1S/C8H7N/c1-3-7-5-8(4-2)6-9(7)8/h1-2,7H,5-6H2/t7-,8-,9?/m0/s1
