19
gdb 84272	3.10119	1.4426	1.15904	2.5142	77.13	-0.2408	0.0038	0.2447	1089.0572	0.159287	-422.984808	-422.976461	-422.975516	-423.017453	32.19	
C	 0.0100494433	 1.580904539	 0.0397513369	-0.371407
C	 0.0263622145	 0.0502398085	 0.0398135151	-0.077469
C	 0.8244371901	-0.5374985125	-1.1486393514	 0.101206
O	 1.3780026042	 0.2925841757	-2.2304757108	-0.305769
C	 2.7323885373	-0.1657095001	-1.9205346517	-0.156148
C	 2.2065274445	-0.6961006179	-0.6126825793	 0.201532
C	 2.2710735093	-0.6254997635	 0.7089520885	-0.258642
C	 0.8368592826	-0.5415003948	 1.2547264217	 0.087
O	 0.7171647742	 0.312586187	 2.380908792	-0.422242
H	 1.0232359848	 1.9900365331	 0.0198427856	 0.121101
H	-0.5160145297	 1.9487844681	-0.8450549258	 0.116918
H	-0.4904133024	 1.9555408901	 0.9341181313	 0.125903
H	-1.0034795284	-0.321371507	 0.0565248155	 0.06811
H	 0.3381496881	-1.4172409488	-1.5902762922	 0.078452
H	 3.0681431466	-0.9135794261	-2.6507669927	 0.109223
H	 3.4582171343	 0.6529541431	-1.8714457433	 0.121868
H	 3.1422648648	-0.5176020857	 1.3444671261	 0.099866
H	 0.4411401149	-1.5384905209	 1.5074259411	 0.073861
H	 1.005911657	-0.1730599973	 3.1589272433	 0.286637
95.6788	180.2571	214.6696	226.2621	246.4606	277.369	336.5666	389.3683	456.0083	532.2896	673.0883	701.85	754.1921	797.7053	836.2282	867.1065	901.9342	945.2684	975.0733	985.1984	1019.6176	1048.981	1072.3158	1101.2722	1102.0034	1135.5291	1143.1878	1230.3749	1236.9665	1247.6699	1286.3507	1315.2191	1333.5849	1346.4119	1368.8326	1401.8562	1426.2367	1488.5634	1497.4275	1508.7127	1749.6791	2958.123	3008.5004	3015.9738	3053.9	3056.1908	3073.2005	3124.7806	3140.9885	3201.6211	3832.3254
CC1C2OCC2=CC1O	C[C@H]1[C@H]2OC[C]2[CH][C@H]1O	
InChI=1S/C7H10O2/c1-4-6(8)2-5-3-9-7(4)5/h2,4,6-8H,3H2,1H3	InChI=1S/C7H10O2/c1-4-6(8)2-5-3-9-7(4)5/h2,4,6-8H,3H2,1H3/t4-,6-,7-/m1/s1
