15
gdb 48258	1.71029	1.40743	0.8777	3.7067	72.89	-0.2647	-0.0093	0.2554	1288.5784	0.112378	-413.000835	-412.991596	-412.990652	-413.036584	31.323	
N	 0.2883969834	 1.3262107016	 0.3582507173	-0.478035
C	 0.2214201093	 0.0786261658	 0.1285504077	 0.106739
N	-0.9730581004	-0.5592924708	-0.1417287855	-0.030158
C	-1.0493274742	-2.0031684059	-0.1677227042	-0.327379
C	-1.4639463395	-2.5873310371	 1.1241380782	 0.269528
N	-1.7996007008	-3.0117128536	 2.1447315239	-0.290427
C	-2.2132520628	 0.1957968336	-0.0479985085	-0.30413
C	-3.0554088703	-0.0052584962	-1.2330378261	 0.271163
N	-3.7150845913	-0.1960075145	-2.1619681147	-0.303011
H	 1.2503602058	 1.6248877431	 0.4902118442	 0.238585
H	 1.0703443945	-0.6135582902	 0.0955947864	 0.109123
H	-1.7585685109	-2.3250244652	-0.9393222162	 0.186112
H	-0.0720574809	-2.4109227452	-0.4428070845	 0.171091
H	-2.7859277245	-0.0824397173	 0.8473765337	 0.172416
H	-1.9346384375	 1.2491776619	 0.0461202583	 0.208384
40.0399	46.5314	90.7859	158.2262	230.9382	287.4011	310.6056	356.3847	375.127	387.0284	506.9356	600.4352	687.6209	786.9898	848.2621	906.557	948.4795	974.0586	989.07	1039.4605	1134.5261	1208.0602	1249.3013	1311.9961	1370.2973	1388.3681	1409.2787	1438.427	1463.853	1470.3488	1722.6512	2359.6329	2364.1589	3021.6489	3046.7743	3058.7184	3096.7095	3102.402	3540.015
N=CN(CC#N)CC#N	N=CN(CC#N)CC#N	
InChI=1S/C5H6N4/c6-1-3-9(5-8)4-2-7/h5,8H,3-4H2	InChI=1S/C5H6N4/c6-1-3-9(5-8)4-2-7/h5,8H,3-4H2
