21
gdb 65134	2.99324	1.34576	1.23949	1.5343	81.25	-0.231	0.0797	0.3107	1125.7089	0.182523	-387.027086	-387.018734	-387.017789	-387.059857	33.12	
C	 0.0169261148	 1.4833924222	 0.2009770642	-0.462175
C	 0.074555523	-0.0280430918	 0.0549507795	 0.354793
C	 0.9904254388	-0.5894533698	-1.0112095478	-0.31402
C	 1.3581472813	-0.7312287292	 0.4422468426	-0.29177
C	-1.2461946468	-0.7377112331	 0.2553232087	-0.114462
C	-1.575817331	-1.7583423851	 1.3378670243	-0.164834
C	-1.0281720032	-1.2982330648	 2.687762548	-0.088392
O	-1.6310393583	 0.0144467781	 2.5372656864	-0.281448
C	-2.2491666698	-0.4016427088	 1.3163768893	 0.070425
H	 0.9983329856	 1.9329702672	 0.0176529519	 0.103467
H	-0.6874226252	 1.9207693038	-0.5165829983	 0.108093
H	-0.3091450763	 1.7587523287	 1.2075971348	 0.1402
H	 0.6725680422	-1.482545089	-1.5400157591	 0.104931
H	 1.5496898767	 0.1127572185	-1.6208770447	 0.106238
H	 2.1715453136	-0.127638644	 0.8317041007	 0.108441
H	 1.2873801624	-1.721073232	 0.879388648	 0.10901
H	-1.7550058955	-0.9989066511	-0.6731490305	 0.092182
H	-1.9664668377	-2.7439297962	 1.1232084393	 0.096629
H	-1.4830671449	-1.8279872476	 3.5323105882	 0.108407
H	 0.0562783822	-1.2434445909	 2.8222073372	 0.112958
H	-3.2712657318	-0.0842652953	 1.1412930873	 0.101331
73.1113	167.5229	183.9486	247.7434	301.7724	305.4997	333.8207	387.2205	515.6017	561.5222	734.43	782.057	786.8718	791.1004	813.9472	867.1652	903.1314	940.0716	953.4388	966.9381	974.4258	1003.3472	1021.5093	1043.9388	1054.8704	1072.5783	1081.4519	1082.3871	1113.0422	1123.2111	1162.3709	1170.5451	1194.9418	1261.9386	1302.4599	1316.343	1326.2463	1360.0235	1412.8605	1431.2763	1465.9303	1491.7296	1500.9701	1513.177	1514.2095	3026.7205	3035.2431	3088.5232	3089.6136	3104.4266	3116.962	3122.5018	3129.0838	3172.0586	3201.2406	3201.4161	3217.9612
CC1(CC1)C1C2COC12	CC1(CC1)[C@H]1[C@H]2CO[C@@H]12	
InChI=1S/C8H12O/c1-8(2-3-8)6-5-4-9-7(5)6/h5-7H,2-4H2,1H3	InChI=1S/C8H12O/c1-8(2-3-8)6-5-4-9-7(5)6/h5-7H,2-4H2,1H3/t5-,6+,7-/m1/s1
