16
gdb 5610	3.37807	1.98937	1.27218	3.4414	67.21	-0.1968	0.0464	0.2432	937.1454	0.131423	-379.944153	-379.936124	-379.93518	-379.9771	28.012	
C	 0.7893600099	 0.6658328511	 0.2730753162	-0.248733
O	-0.5725783582	 0.9307040397	-0.0275997834	-0.266643
C	-1.4164356542	-0.0743295434	 0.28417795	 0.377606
C	-1.2868222019	-1.3247324636	 0.8349534764	-0.228034
N	-2.5315659428	-1.9202126727	 0.9167093756	-0.267941
C	-3.3744117676	-1.0479946964	 0.4285322784	-0.006138
N	-2.7529454375	 0.1082574553	 0.0217074447	-0.082821
C	-3.3529849639	 1.2882621836	-0.564030774	-0.337576
H	 1.3519011541	 1.5508034857	-0.026430394	 0.13705
H	 0.9251634368	 0.4864951789	 1.3468806495	 0.131158
H	 1.1499680523	-0.2081816398	-0.2834521184	 0.131158
H	-0.3932938956	-1.8244120037	 1.171377546	 0.104374
H	-4.4432739239	-1.1723588736	 0.333824456	 0.121921
H	-4.4295069197	 1.1280137728	-0.6443781711	 0.141636
H	-3.1706719845	 2.1695543804	 0.0579175238	 0.146495
H	-2.9470048232	 1.4792342459	-1.5617487958	 0.14649
67.1181	91.8971	183.8574	194.521	204.6581	302.8697	327.3189	526.6872	630.3919	660.8829	679.6552	756.6039	772.2423	776.2476	928.3773	1070.0306	1080.5216	1132.8534	1154.6249	1184.1102	1214.45	1242.449	1268.9551	1297.1469	1372.9227	1443.6061	1463.4216	1478.8629	1483.0502	1486.043	1507.8221	1515.9532	1549.7842	1617.6492	3011.689	3043.9599	3072.2893	3105.0241	3140.5656	3143.3078	3242.3525	3261.2527
COC1=CN=CN1C	COc1cncn1C	
InChI=1S/C5H8N2O/c1-7-4-6-3-5(7)8-2/h3-4H,1-2H3	InChI=1S/C5H8N2O/c1-7-4-6-3-5(7)8-2/h3-4H,1-2H3
