17
gdb 85244	2.73363	1.6302	1.1657	4.1919	68.48	-0.2598	-0.0075	0.2523	1068.8238	0.13474	-458.997787	-458.989438	-458.988494	-459.030535	31.159	
C	 0.2177717481	 1.5346042369	-0.0709207935	-0.403017
C	-0.028212293	 0.0423446913	 0.0769080765	 0.09956
O	 0.4657953216	-0.6431459916	-1.1017565134	-0.247681
C	 1.2280441857	-1.724721201	-0.7896570388	 0.431456
O	 1.6159660793	-2.5111037529	-1.6039729493	-0.342589
C	 1.467098209	-1.7456949326	 0.7069181135	 0.250964
C	 1.8710655433	-3.0149555261	 1.3880758617	-0.494681
O	 2.1172643006	-0.5122006978	 1.1014829487	-0.281284
C	 0.7004454532	-0.6144897895	 1.236137905	-0.066026
H	 1.2914855961	 1.7340246009	-0.0904481584	 0.148822
H	-0.2308029198	 1.902980428	-0.996416009	 0.13825
H	-0.2287905651	 2.0747717638	 0.7697945333	 0.12274
H	-1.1020102609	-0.171838776	 0.1478304937	 0.101199
H	 2.7824083183	-3.4085630472	 0.9293531683	 0.155548
H	 2.0543562552	-2.8353211949	 2.4495633937	 0.134755
H	 1.0906820942	-3.7745045434	 1.2822204088	 0.138706
H	 0.2997318942	-0.574105438	 2.2449374294	 0.113278
129.3797	141.0809	171.2981	224.4747	234.813	290.0438	302.7972	406.2741	514.4312	531.2937	583.1354	693.7629	723.683	777.9652	823.5	878.7058	898.4165	954.7112	1004.822	1034.6867	1067.3854	1104.0176	1113.6671	1133.6947	1152.6625	1288.4247	1296.1803	1361.0751	1369.9091	1405.1244	1409.9379	1463.2893	1480.4881	1485.4022	1494.861	1498.573	1880.292	3034.4248	3049.8927	3050.2672	3118.895	3123.5654	3137.8734	3142.5533	3162.1623
CC1OC(=O)C2(C)OC12	C[C@H]1OC(=O)[C@@]2(C)O[C@@H]12	
InChI=1S/C6H8O3/c1-3-4-6(2,9-4)5(7)8-3/h3-4H,1-2H3	InChI=1S/C6H8O3/c1-3-4-6(2,9-4)5(7)8-3/h3-4H,1-2H3/t3-,4+,6+/m1/s1
