13
gdb 5417	5.53177	1.59486	1.24752	1.9165	60.55	-0.2658	-0.0491	0.2167	898.5104	0.09733	-394.817185	-394.81031	-394.809366	-394.848992	23.938	
O	 0.2408518786	 0.9428957514	 0.9335883631	-0.396192
C	-0.1072265081	 0.2156995994	-0.2155998305	-0.15761
C	-1.4722355523	-0.409292977	-0.0629451527	 0.358364
N	-2.1653396979	-0.227167752	 1.0594384066	-0.251052
C	-3.3558438274	-0.8282738449	 1.075597296	 0.080517
N	-3.881612065	-1.5644928901	 0.0980052691	-0.240777
C	-3.0912399247	-1.6725882439	-0.973617299	 0.080571
N	-1.8894186953	-1.1263513341	-1.1166280286	-0.277204
H	 1.1133614741	 1.3201318381	 0.7892402507	 0.294931
H	-0.1400772353	 0.8408867897	-1.1230716839	 0.121883
H	 0.5982320637	-0.6032156115	-0.4327945735	 0.121879
H	-3.9541985981	-0.7038528559	 1.9759449034	 0.133166
H	-3.4680442825	-2.2632806693	-1.8061848405	 0.131524
50.1299	165.0985	217.2145	231.299	352.7434	442.9099	493.5197	624.0778	703.9466	784.9409	838.4855	976.3533	1008.1593	1043.4585	1049.1002	1125.1744	1175.4385	1184.2889	1230.1781	1250.0537	1293.1237	1324.2799	1423.2316	1442.5228	1475.5745	1504.6128	1584.4035	1609.8676	2969.5539	2990.6029	3158.3997	3162.2034	3837.9862
OCC1=NC=NC=N1	OCc1ncncn1	
InChI=1S/C4H5N3O/c8-1-4-6-2-5-3-7-4/h2-3,8H,1H2	InChI=1S/C4H5N3O/c8-1-4-6-2-5-3-7-4/h2-3,8H,1H2
