17
gdb 65853	2.51787	1.28883	1.17074	2.2946	73.5	-0.2408	-0.0214	0.2194	1126.6916	0.13372	-421.82193	-421.813162	-421.812218	-421.855355	33.479	
O	-0.0477698764	 1.4221451568	 0.10147176	-0.462136
C	 0.0196366669	 0.0041666725	 0.0095959506	 0.216752
C	-1.4322699576	-0.5288135486	-0.1135311859	-0.250385
C	-1.2947497535	-1.9073131626	-0.7691003807	-0.327138
C	-0.0350149659	-1.8087888942	-1.6390092982	 0.415045
O	 0.3269119203	-2.6169107904	-2.4520632186	-0.310109
C	 0.683002853	-0.4994302436	-1.2966287012	-0.37476
C	 0.6960251211	-0.5622346201	 1.1828733173	 0.310284
C	 1.2750287951	-1.0098933485	 2.1369847013	-0.50071
H	 0.8143354627	 1.7448480705	 0.3853856267	 0.285536
H	-1.9403188712	-0.5402064856	 0.8514777249	 0.120796
H	-1.965412231	 0.1666538679	-0.7699423814	 0.120639
H	-1.1148404036	-2.6908090216	-0.0226681248	 0.143813
H	-2.1563308506	-2.2203401508	-1.3629437926	 0.133284
H	 0.4593127358	 0.2290654841	-2.0862819676	 0.140461
H	 1.765184912	-0.6302745206	-1.2472613895	 0.13142
H	 1.7787485827	-1.4058715452	 2.9844986596	 0.207207
63.1095	122.617	184.0107	207.7842	282.824	320.3396	399.8652	439.3878	458.5322	486.7109	549.628	602.3931	629.6204	631.3352	675.0335	729.6601	739.6579	808.8849	891.408	970.8796	995.1637	998.7627	1056.2774	1107.1289	1147.3634	1172.5678	1213.0592	1245.9204	1264.7792	1299.7101	1329.3794	1374.7235	1442.4651	1449.6091	1495.7232	1852.5676	2228.2591	3043.12	3046.7618	3061.6827	3112.1308	3125.6092	3128.7417	3498.4243	3812.7562
OC1(CCC(=O)C1)C#C	O[C@]1(CCC(=O)C1)C#C	
InChI=1S/C7H8O2/c1-2-7(9)4-3-6(8)5-7/h1,9H,3-5H2	InChI=1S/C7H8O2/c1-2-7(9)4-3-6(8)5-7/h1,9H,3-5H2/t7-/m0/s1
