14
gdb 44998	3.62168	1.32195	1.10655	4.7729	68.85	-0.2565	0.0139	0.2704	1059.5105	0.100456	-436.677668	-436.670165	-436.669221	-436.709591	28.973	
O	 0.0318533843	-0.0008129215	 0.0728749784	-0.373971
C	-0.0318163747	 1.1901645493	-0.0160421739	 0.45651
N	-1.1573422796	 1.9874126487	-0.0885651775	-0.361241
C	-0.8433663211	 3.3755212373	-0.0034765227	-0.07078
C	-0.0532655961	 3.8430981027	 1.1994633351	-0.349139
C	 0.6736642212	 3.3712919038	-0.047701072	 0.225886
O	 1.0765669967	 2.0101800157	-0.0554783723	-0.265098
C	 1.473688957	 4.2431253982	-0.8466390716	 0.241736
C	 2.1460737276	 4.9905957744	-1.5044210063	-0.38924
H	-2.0405431394	 1.5946638608	 0.1927508637	 0.269762
H	-1.4348719151	 4.0630102017	-0.5953356944	 0.133012
H	-0.0238856541	 4.9099643482	 1.3871137353	 0.140614
H	-0.0090180032	 3.2029338353	 2.073913032	 0.138458
H	 2.7433739367	 5.6442677154	-2.0911507137	 0.20349
112.2973	150.4536	180.1836	332.5044	411.0862	449.1508	460.3513	486.4658	544.7254	594.2081	609.8058	697.0011	723.0133	764.0237	775.3992	858.6517	902.8145	921.4478	974.9902	1016.9064	1040.8429	1070.1643	1140.3096	1182.1457	1256.9286	1304.0968	1390.7924	1404.7568	1460.246	1902.9384	2247.9173	3138.4524	3189.8002	3240.1552	3501.0456	3658.9094
O=C1NC2CC2(O1)C#C	O=C1N[C@H]2C[C@]2(O1)C#C	
InChI=1S/C6H5NO2/c1-2-6-3-4(6)7-5(8)9-6/h1,4H,3H2,(H,7,8)	InChI=1S/C6H5NO2/c1-2-6-3-4(6)7-5(8)9-6/h1,4H,3H2,(H,7,8)/t4-,6+/m0/s1
