16
gdb 10136	2.83548	1.25994	0.91788	4.5228	69.72	-0.3363	-0.0089	0.3274	1235.9882	0.12974	-342.814125	-342.805232	-342.804288	-342.848221	30.536	
C	-0.0009462705	 1.5778768806	 0.0371839384	-0.388377
C	-0.00108042	 0.0473796521	-0.0053659898	-0.192269
C	-1.4195034392	-0.5284241284	-0.002426841	-0.175266
C	-1.440729233	-2.0843987622	-0.0319327532	-0.299738
C	-2.8104770142	-2.5974271	 0.1086480431	 0.295113
N	-3.8951047683	-2.9675939129	 0.2470919017	-0.300049
C	-0.8139193123	-2.6153294644	-1.2517209341	 0.308204
N	-0.2966659511	-3.0048506228	-2.2075653961	-0.308658
H	 1.0207562837	 1.9675348105	 0.0356908661	 0.12665
H	-0.5195490832	 1.9978251933	-0.8310085029	 0.126678
H	-0.5004428358	 1.9519075341	 0.9372750919	 0.12217
H	 0.5311218983	-0.2982816139	-0.8990004362	 0.132896
H	 0.5518924643	-0.3465294328	 0.8574639587	 0.105533
H	-1.958048943	-0.2167441298	 0.8985677385	 0.131382
H	-1.9889037155	-0.1582119746	-0.8609225407	 0.138467
H	-0.8601204403	-2.4579331889	 0.8223388457	 0.177265
82.8807	90.6389	123.8715	137.1105	224.8492	245.0356	281.938	367.0897	388.6009	503.0765	583.3992	594.3516	747.7193	821.0503	906.8472	910.5892	1005.5937	1021.1646	1060.164	1113.1862	1141.1176	1240.769	1280.1247	1320.0415	1336.1938	1344.8076	1396.6487	1417.943	1484.2086	1493.7776	1500.384	1510.3912	2367.7914	2373.6491	3023.431	3031.4679	3036.9596	3052.9379	3064.8549	3098.9883	3108.8202	3114.6641
CCCC(C#N)C#N	CCCC(C#N)C#N	
InChI=1S/C6H8N2/c1-2-3-6(4-7)5-8/h6H,2-3H2,1H3	InChI=1S/C6H8N2/c1-2-3-6(4-7)5-8/h6H,2-3H2,1H3
