19
gdb 43822	2.90051	1.46631	1.14953	3.156	79.67	-0.232	-0.0085	0.2235	1103.0939	0.160356	-385.899052	-385.891465	-385.890521	-385.931071	30.663	
O	 0.0803867129	-0.0148864371	 0.1042269167	-0.332546
C	 0.0229584081	 1.182903806	-0.0211622585	 0.421731
C	-1.2687021753	 2.0032034957	-0.2006871547	-0.440052
C	-0.8246065647	 3.2850125137	-0.9016252362	 0.382315
C	-1.3709191552	 3.6466684429	-2.259388468	-0.318334
C	-1.7282353906	 4.4793051432	-1.0488779402	-0.316616
C	 0.6566870866	 3.4444587984	-0.6350070947	-0.107211
C	 1.0966786184	 3.3568160017	 0.7899102812	-0.302019
C	 1.1853509276	 2.1198448709	-0.1005605404	-0.148778
H	-2.0034669057	 1.4206293503	-0.760517902	 0.130547
H	-1.7019265293	 2.1974230861	 0.7891683803	 0.127974
H	-0.6904044511	 4.0740399264	-2.989162381	 0.113328
H	-2.1373696768	 3.009139926	-2.6877806483	 0.115575
H	-2.7387070514	 4.4061420225	-0.6599405448	 0.11304
H	-1.2888194793	 5.4677998959	-0.9613014298	 0.112829
H	 1.2462202462	 4.0296826908	-1.3323483228	 0.09352
H	 2.0475962821	 3.8046219599	 1.0554635806	 0.124804
H	 0.3555296485	 3.3826214012	 1.5818119368	 0.123605
H	 2.1593864388	 1.7134171054	-0.3403574442	 0.106286
82.7814	167.8036	251.5721	290.0632	341.4123	428.0379	473.5064	494.9143	538.6243	651.7237	729.1778	773.8456	785.1486	830.775	854.2657	881.5707	919.4585	931.9676	960.002	983.3584	998.1903	1013.4782	1056.0892	1066.3179	1077.4835	1083.6702	1101.0818	1168.1501	1181.158	1189.2636	1202.0421	1245.5555	1294.4571	1309.1277	1330.7137	1407.9684	1458.9063	1469.0707	1490.7744	1505.8331	1834.8797	3030.5682	3107.903	3123.4879	3127.6262	3134.1617	3168.8095	3201.1448	3202.0027	3216.802	3221.3245
O=C1CC2(CC2)C2CC12	O=C1CC2(CC2)[C@H]2C[C@@H]12	
InChI=1S/C8H10O/c9-7-4-8(1-2-8)6-3-5(6)7/h5-6H,1-4H2	InChI=1S/C8H10O/c9-7-4-8(1-2-8)6-3-5(6)7/h5-6H,1-4H2/t5-,6+/m1/s1
