14
gdb 16050	3.74564	1.73125	1.43821	4.4787	63.28	-0.2552	0.0091	0.2643	860.0363	0.108567	-378.679479	-378.672606	-378.671662	-378.710481	26.059	
O	 0.0044371658	 1.3700168977	 0.0408879831	-0.424894
C	-0.0329792371	-0.0079326886	 0.0154505732	 0.114688
C	-0.455381347	-0.7914911201	 1.2035334957	-0.125504
N	-1.4241909402	 0.0452109167	 1.9321728689	-0.357803
C	-2.407194673	-0.0811097491	 0.802590656	-0.233159
C	-1.3572436013	-0.7938588201	-0.0627569394	 0.132338
C	-1.6123710824	-1.7978371733	-1.0331788436	 0.179115
N	-1.8148193847	-2.6209404283	-1.8232770477	-0.35034
H	-0.3463258813	 1.6277411951	 0.9088153717	 0.301312
H	 0.7510910056	-0.4432118532	-0.5959273328	 0.133222
H	 0.1045968984	-1.5915179207	 1.6731097663	 0.121684
H	-1.7617707342	-0.3983175379	 2.7774818079	 0.243262
H	-3.246901309	-0.7357813223	 1.0455610366	 0.13453
H	-2.7772008194	 0.8764676639	 0.4252081941	 0.131549
141.8623	168.3117	222.0487	271.6406	432.6815	498.6892	522.2014	552.9884	588.0466	649.3154	759.2614	792.1239	838.6792	914.3675	962.9391	989.8631	1016.8087	1045.2462	1076.1188	1118.5493	1160.0216	1223.1647	1247.3357	1272.8226	1326.96	1358.0821	1403.0355	1471.8952	1505.1693	2336.896	3058.7973	3117.0489	3175.1542	3190.2396	3560.7911	3686.2394
OC1C2NCC12C#N	O[C@H]1[C@H]2NC[C@@]12C#N	
InChI=1S/C5H6N2O/c6-1-5-2-7-3(5)4(5)8/h3-4,7-8H,2H2	InChI=1S/C5H6N2O/c6-1-5-2-7-3(5)4(5)8/h3-4,7-8H,2H2/t3-,4+,5-/m1/s1
