22
gdb 22042	1.96154	1.35446	0.98248	2.0825	80.66	-0.2492	0.0049	0.2541	1317.1134	0.190439	-441.444392	-441.433398	-441.432454	-441.479706	41.132	
C	 0.1256845121	 1.479951257	 0.1575355927	-0.40389
C	-0.0029170443	-0.057268829	 0.0367182426	 0.156545
C	 0.7321506715	-0.7536529519	 1.2067486122	-0.403892
C	-1.5002615614	-0.4188103176	 0.1324949285	-0.420851
C	 0.6089798915	-0.515696431	-1.2927853592	 0.304712
C	-0.2442559077	-1.2345478591	-2.3284018345	-0.103832
O	 0.4525167489	-1.5910479927	-3.4905239349	-0.430007
N	 1.8164070882	-0.371625105	-1.6843434921	-0.190576
O	 2.6760198043	 0.28053012	-0.7936708253	-0.397413
H	 1.166124946	 1.8007639166	 0.1168050962	 0.142361
H	-0.4214588481	 1.9809206484	-0.6479720258	 0.11192
H	-0.3054927485	 1.8090312965	 1.1090765274	 0.109239
H	 0.3007747155	-0.4231158724	 2.157691466	 0.109251
H	 0.6160375018	-1.8409312186	 1.1474154416	 0.111923
H	 1.7967309771	-0.5217702725	 1.2075526038	 0.142352
H	-2.0956215714	 0.0613445758	-0.6494741859	 0.118167
H	-1.6723236672	-1.4978849736	 0.0828779226	 0.118164
H	-1.8877599914	-0.0718127658	 1.0952622056	 0.115215
H	-0.6766777847	-2.1327193464	-1.8595380482	 0.107574
H	-1.0973263932	-0.5869825541	-2.5861105411	 0.107576
H	 1.3599039636	-1.280252796	-3.3541012369	 0.286949
H	 3.5090560776	 0.2798285514	-1.2769932154	 0.308515
57.6571	110.6838	204.3261	228.6233	236.6547	244.4914	261.4991	282.7963	294.7973	298.3968	338.2012	357.6186	375.6129	408.7461	412.3548	497.6207	624.0443	626.1407	730.204	849.0507	934.5443	938.7747	964.5927	1001.9359	1015.1006	1037.2915	1062.1123	1092.8518	1168.9051	1222.7512	1240.7381	1266.46	1276.0094	1309.4905	1392.1191	1394.4985	1402.9217	1430.1518	1460.6769	1477.1084	1484.6875	1495.2383	1500.9253	1507.2862	1508.2353	1526.8489	1724.1979	2975.7997	2989.3056	3034.1317	3035.0407	3042.4219	3094.3748	3096.3376	3106.9278	3113.0751	3154.5292	3157.0153	3700.2023	3817.7985
CC(C)(C)C(CO)=NO	CC(C)(C)C(=NO)CO	
InChI=1S/C6H13NO2/c1-6(2,3)5(4-8)7-9/h8-9H,4H2,1-3H3	InChI=1S/C6H13NO2/c1-6(2,3)5(4-8)7-9/h8-9H,4H2,1-3H3
