21
gdb 101247	3.35147	0.85059	0.81268	1.2499	75.73	-0.2591	0.0558	0.3149	1522.9458	0.179208	-461.344402	-461.333804	-461.33286	-461.380414	38.572	
C	 0.2740375914	 1.5610710353	-0.3335682023	-0.456333
C	 0.0307103819	 0.1017926662	-0.0185623563	 0.397373
C	-1.1103508953	-0.5317828184	-0.7869015177	-0.451297
O	 1.2104305975	-0.7244652682	 0.0730961753	-0.306828
C	 0.4356485455	-0.512115864	 1.2592988916	 0.005572
C	 1.1235006089	 0.1971002695	 2.4019741779	 0.078374
O	 0.129623744	 0.5773653114	 3.335953861	-0.446369
C	 2.1457166954	-0.7215229351	 3.081472731	-0.10074
O	 2.6118357471	-0.1294043143	 4.2929458684	-0.424346
H	 1.1551862487	 1.9491089233	 0.1788282072	 0.126897
H	 0.4277198653	 1.6894100852	-1.4105634186	 0.122638
H	-0.591950612	 2.1651960253	-0.043736281	 0.128852
H	-0.9352020193	-0.4537718407	-1.865471201	 0.122956
H	-1.2115928516	-1.5894239412	-0.5322898497	 0.126668
H	-2.0555016575	-0.0261445956	-0.5623384316	 0.124506
H	-0.1343636743	-1.384134937	 1.5898321666	 0.085957
H	 1.6607482326	 1.0814018508	 2.0209549446	 0.053613
H	 0.5914818916	 0.6507460687	 4.1826488367	 0.28911
H	 1.6587271762	-1.6558474512	 3.3798126318	 0.11796
H	 2.9667251245	-0.9605814658	 2.3942810981	 0.115459
H	 3.2083018396	 0.5907724658	 4.0613614079	 0.289977
40.0594	103.4631	105.9904	153.4863	193.6378	204.3373	258.591	309.2772	342.2355	368.2716	390.3496	415.5773	467.5039	520.0653	543.3665	593.9654	712.4	829.6684	894.0471	932.8853	947.0031	996.3779	1003.8907	1062.6895	1073.8516	1102.1747	1132.1052	1140.5311	1152.6519	1198.556	1260.7435	1282.0347	1339.841	1347.6481	1371.7029	1403.9402	1408.5636	1419.1402	1424.3754	1472.7626	1478.5003	1486.0706	1494.1172	1501.2097	1526.3186	2964.2284	3029.5881	3034.0807	3041.6854	3078.0168	3091.3254	3096.8167	3102.4163	3124.7145	3139.6656	3746.232	3808.5386
CC1(C)OC1C(O)CO	CC1(C)O[C@H]1[C@@H](O)CO	
InChI=1S/C6H12O3/c1-6(2)5(9-6)4(8)3-7/h4-5,7-8H,3H2,1-2H3	InChI=1S/C6H12O3/c1-6(2)5(9-6)4(8)3-7/h4-5,7-8H,3H2,1-2H3/t4-,5-/m0/s1
