21
gdb 77572	2.24306	1.44441	1.28414	2.3965	78.18	-0.2419	0.0699	0.3118	1136.613	0.179459	-424.197053	-424.18724	-424.186296	-424.230613	38.147	
C	-0.465907356	 1.5555088197	 0.4145665786	-0.429547
C	-0.1228796246	 0.0811202747	 0.2385869626	-0.100752
C	 0.2572029209	-0.4501566998	-1.1527926108	 0.395418
O	-0.6458804987	-1.0409966745	-2.0213631449	-0.467572
C	 1.5831983042	 0.0815351887	-1.6144947654	-0.367118
C	 1.5425435046	-1.0546688737	-0.6153413691	-0.137438
C	 1.228676246	-0.5418609231	 0.7932855404	 0.399414
C	 2.2344066985	 0.3796064631	 1.4722027386	-0.451976
O	 0.9828268449	-1.6841603775	 1.6037216819	-0.479186
H	 0.3009484287	 2.2139119346	-0.0060420487	 0.112655
H	-1.4125326197	 1.7929788692	-0.0840877629	 0.114629
H	-0.5821489649	 1.8174687847	 1.4722179689	 0.111895
H	-0.9266710545	-0.5473726582	 0.6334887702	 0.084179
H	-0.953442152	-0.3710025317	-2.6411591908	 0.283981
H	 1.8540724774	-0.2323403025	-2.617943892	 0.11458
H	 1.9445691049	 1.0708395797	-1.3449560188	 0.101496
H	 1.9907934534	-2.0200104467	-0.814192558	 0.098827
H	 2.497328294	 1.2397875292	 0.8512494886	 0.115411
H	 1.8297583226	 0.7687563171	 2.4151677142	 0.103816
H	 3.1495117244	-0.1753678719	 1.6994659445	 0.125658
H	 0.665583606	-1.3755203113	 2.4597397829	 0.27163
119.9279	184.2819	207.6634	216.6987	236.1977	244.5449	256.7345	277.6178	340.9757	362.8464	429.3384	472.8476	484.7779	540.0729	591.6942	699.148	737.4242	819.5091	869.8788	916.1025	933.3139	965.7506	1000.0481	1019.4386	1024.5371	1076.5335	1095.638	1097.7132	1128.5442	1147.1206	1192.754	1224.5323	1234.7895	1266.7437	1312.2074	1353.3078	1385.0129	1402.2507	1405.155	1414.8482	1483.5616	1489.2208	1493.6473	1500.7691	1504.5414	3023.673	3027.658	3064.7538	3086.353	3091.412	3100.2489	3108.2584	3119.2468	3193.9298	3201.6448	3797.3263	3798.7434
CC1C2(O)CC2C1(C)O	C[C@H]1[C@@]2(O)C[C@H]2[C@]1(C)O	
InChI=1S/C7H12O2/c1-4-6(2,8)5-3-7(4,5)9/h4-5,8-9H,3H2,1-2H3	InChI=1S/C7H12O2/c1-4-6(2,8)5-3-7(4,5)9/h4-5,8-9H,3H2,1-2H3/t4-,5+,6-,7+/m1/s1
