21
gdb 75570	2.38527	1.64638	1.10075	1.1987	85.77	-0.2222	0.0244	0.2466	1164.1455	0.184201	-387.082803	-387.074505	-387.073561	-387.11559	32.678	
C	 0.3764124389	 1.4700804384	 0.0696746959	-0.472436
C	 0.0037952053	 0.0095553342	-0.0567419012	 0.310237
C	-0.2015803586	-0.5210724209	-1.2673605268	-0.163047
C	-0.56707216	-1.9280345727	-1.6562153504	-0.142321
O	-0.2074446425	-2.9544374299	-0.7517011192	-0.234135
C	-1.0029195539	-3.0257675172	 0.4105946428	-0.114261
C	-0.546763318	-2.0960368249	 1.5158010957	-0.037937
C	 0.9101328966	-1.7708416607	 1.6773412764	-0.289307
C	-0.0774732242	-0.6825590998	 1.261853893	-0.095785
H	 1.3372842075	 1.5863228321	 0.5867367456	 0.125941
H	 0.4522323234	 1.9573911869	-0.9052500548	 0.117103
H	-0.3660319307	 2.015018757	 0.667078918	 0.120613
H	-0.0971825948	 0.1408523521	-2.1265149723	 0.075068
H	-1.6508831961	-1.988322378	-1.8700881073	 0.095562
H	-0.0552016505	-2.1753532953	-2.5940782669	 0.111535
H	-2.0607712675	-2.836679585	 0.1628702337	 0.088138
H	-0.9296310112	-4.0614021488	 0.7655861302	 0.105936
H	-1.1186327489	-2.2292732792	 2.4320459584	 0.081139
H	 1.3415758681	-1.7288749226	 2.6715547774	 0.106632
H	 1.5700571382	-2.1322536025	 0.8974052355	 0.131696
H	-0.3193926812	 0.0086719869	 2.0658637663	 0.07963
66.6714	183.3681	224.9838	237.2074	282.7622	310.4729	355.7456	413.8873	465.8011	556.3014	649.0008	677.4531	753.0892	767.3026	820.8975	859.1731	876.2716	939.9408	959.5697	1016.4236	1034.3322	1035.5223	1064.7701	1074.4434	1097.2416	1117.7698	1141.8796	1144.4355	1153.8745	1193.6034	1237.1865	1282.2066	1334.2041	1357.0846	1394.3863	1399.3178	1411.2245	1424.1969	1434.7305	1478.2273	1479.7839	1491.9183	1494.592	1498.0737	1740.8869	2926.3339	2965.8651	3015.684	3042.37	3046.4002	3062.5001	3114.2642	3120.7677	3127.6306	3130.7196	3137.7623	3232.5487
CC1=CCOCC2CC12	CC1=CCOC[C@H]2C[C@@H]12	
InChI=1S/C8H12O/c1-6-2-3-9-5-7-4-8(6)7/h2,7-8H,3-5H2,1H3	InChI=1S/C8H12O/c1-6-2-3-9-5-7-4-8(6)7/h2,7-8H,3-5H2,1H3/t7-,8+/m1/s1
