21
gdb 77727	2.60296	1.55541	1.46836	1.4714	81.16	-0.2169	0.0728	0.2897	1040.8188	0.184702	-387.061777	-387.05392	-387.052976	-387.09345	32.31	
O	 0.1360466243	 1.1975112001	 0.140351968	-0.429719
C	-0.0839955685	-0.1840389707	 0.1539898237	 0.028842
C	-0.5703877558	-0.8215966702	 1.4142526903	 0.235484
C	-1.5411302305	 0.1112171659	 2.1648234655	-0.282369
C	-2.4558298279	 0.1599899771	 0.8974396562	-0.280359
C	-1.4719442014	-0.7715806184	 0.1604653013	 0.188313
C	-1.6760705853	-2.1874343771	-0.3405431834	-0.29575
C	-0.547519319	-3.0091638741	 0.3616852421	-0.215597
C	-0.2141619392	-2.2670074176	 1.695281444	-0.296891
H	-0.118114252	 1.5269874798	-0.7281655449	 0.285197
H	 0.6606598046	-0.7554851864	-0.4006983128	 0.079699
H	-2.0215147373	-0.3875485063	 3.0099322658	 0.094858
H	-1.122925897	 1.0616531869	 2.5032197927	 0.109453
H	-3.4276607973	-0.3123714215	 1.0595455306	 0.096984
H	-2.6177525019	 1.1445910067	 0.4494172042	 0.089545
H	-2.6617690344	-2.5422251228	-0.0156520421	 0.098389
H	-1.6382839276	-2.3071574897	-1.4296656685	 0.093323
H	-0.8381712243	-4.0504298747	 0.5294682196	 0.097671
H	 0.3411266715	-3.0381456848	-0.277543359	 0.106008
H	 0.8244903871	-2.4376883469	 2.0001032956	 0.098592
H	-0.8513091982	-2.6398018354	 2.5062146311	 0.098329
194.4985	199.4177	238.4658	245.3932	300.7085	303.8686	363.0536	494.2298	545.8871	614.9082	634.4019	750.2409	750.7385	772.2019	789.1078	847.6778	872.9596	903.9784	945.6829	970.6548	974.1627	1025.1062	1029.7109	1065.5817	1099.7924	1147.8245	1182.9087	1205.7028	1222.8892	1227.2772	1243.1458	1255.3937	1259.9959	1286.5793	1303.7282	1309.7779	1329.3592	1343.0275	1353.5326	1464.2062	1469.2338	1489.472	1491.0384	1498.3102	1512.5748	3024.0954	3028.5755	3043.3736	3050.4591	3060.0594	3063.7253	3065.2161	3089.6389	3098.4238	3098.6899	3119.9747	3804.3743
OC1C23CCC12CCC3	O[C@H]1[C@@]23CC[C@@]12CCC3	
InChI=1S/C8H12O/c9-6-7-2-1-3-8(6,7)5-4-7/h6,9H,1-5H2	InChI=1S/C8H12O/c9-6-7-2-1-3-8(6,7)5-4-7/h6,9H,1-5H2/t6-,7+,8-
