16
gdb 72057	2.47527	1.71613	1.32222	5.7431	75.25	-0.2399	0.0022	0.2421	993.3197	0.126236	-396.859152	-396.851734	-396.85079	-396.890868	29.104	
N	-0.1894749436	 1.3593786922	 0.0484340145	-0.600299
C	 0.044847165	-0.0300852243	-0.0061836315	 0.232059
C	 0.9335761608	-0.9094230809	-0.8876618975	-0.229992
N	 0.0896807866	-2.1084536145	-0.5008281611	-0.196837
C	 0.4012973507	-2.2252000494	 0.9826264709	-0.184195
C	-0.3026709147	-0.9007976877	 1.2077789859	-0.153513
C	-1.0265180713	-1.1116144156	-0.1070935468	 0.291029
C	-2.3776709142	-1.1155089105	-0.5094281446	 0.137095
N	-3.4857953398	-1.1066930164	-0.8477953174	-0.363693
H	 0.51994006	 1.8483969009	 0.5832021704	 0.242795
H	-0.2453406197	 1.7758880572	-0.8743543928	 0.245788
H	 0.8005352978	-0.7003068415	-1.9526186795	 0.119053
H	 1.9995821376	-1.0128236751	-0.6562885099	 0.10363
H	-0.1413946502	-3.0752879809	 1.4012904854	 0.128657
H	 1.4680684704	-2.3109011072	 1.2130920582	 0.107736
H	-0.7109863854	-0.4541196664	 2.1049988758	 0.120688
115.7261	154.9916	238.5944	330.3693	336.8933	436.3731	441.2758	532.6062	556.4122	607.1702	639.0892	717.896	759.7398	810.6489	850.8113	908.3101	925.9069	939.0465	988.6339	998.8431	1063.8783	1093.0378	1131.1059	1155.0812	1184.4383	1234.7222	1251.6653	1269.4744	1303.1942	1340.7061	1450.3303	1501.1109	1523.1652	1659.3506	2337.6949	3038.096	3052.4335	3103.6649	3117.2151	3209.1371	3511.2666	3591.2458
NC12CN3CC1C23C#N	N[C@@]12CN3C[C@@H]1[C@@]23C#N	
InChI=1S/C6H7N3/c7-2-6-4-1-9(6)3-5(4,6)8/h4H,1,3,8H2	InChI=1S/C6H7N3/c7-2-6-4-1-9(6)3-5(4,6)8/h4H,1,3,8H2/t4-,5-,6-/m0/s1
