24
gdb 6230	2.03623	1.95781	1.54354	0.0551	85.88	-0.2463	0.0792	0.3255	1064.6978	0.220178	-314.275175	-314.264488	-314.263544	-314.309605	39.638	
C	-0.1888504072	 0.9835182038	-1.8026432713	-0.417176
C	-0.0035503916	-0.2092709799	-0.8870946781	-0.08716
C	 1.3399712695	-0.6701109924	-0.3404728267	 0.281391
C	 1.6367890921	-2.1629869339	-0.34946962	-0.449155
C	 2.6002507859	 0.1315326158	-0.6314173093	-0.449418
C	 0.2747265492	-0.109249503	 0.6058140473	 0.281391
C	 0.4735496538	 1.2512600566	 1.2577851048	-0.449418
C	-0.484252209	-1.0462375918	 1.5347206624	-0.449157
H	 0.4697883993	 1.8194524006	-1.5565297557	 0.112921
H	 0.0102258652	 0.7088754933	-2.8449340177	 0.114295
H	-1.218631149	 1.3557566091	-1.7534470979	 0.114295
H	-0.6690241071	-1.0313809164	-1.1489630825	 0.069459
H	 2.1067328168	-2.4482411823	-1.2986064047	 0.109698
H	 2.3337538694	-2.436429303	 0.4525778844	 0.109459
H	 0.7417069928	-2.7775249149	-0.235337996	 0.111318
H	 2.4366871352	 1.2081167094	-0.684568811	 0.111243
H	 3.3590429974	-0.0477183302	 0.1399886887	 0.111498
H	 3.0339840923	-0.178946196	-1.5896926492	 0.110648
H	 0.9714046182	 1.9796333002	 0.617297923	 0.111242
H	-0.4946929807	 1.6790136296	 1.5447456442	 0.110649
H	 1.0696669223	 1.1575456847	 2.1736595081	 0.111498
H	 0.0884581132	-1.2543544021	 2.4471355083	 0.10946
H	-1.4305297401	-0.5857285652	 1.8438606153	 0.109697
H	-0.7281787877	-2.0036286922	 1.0702230438	 0.11132
118.0436	132.4026	142.6956	170.6311	179.5717	182.1784	242.4856	242.9969	308.9817	321.3333	378.5235	389.8807	432.7196	507.0519	516.8118	657.2046	681.3768	769.4197	940.8723	953.9724	966.7888	970.6496	991.4974	996.6485	1045.1479	1061.0029	1116.2244	1124.2466	1142.4916	1172.434	1211.7107	1231.4962	1292.5086	1345.3226	1402.1338	1404.9502	1414.0629	1414.6144	1427.7092	1453.4503	1472.9495	1481.8427	1486.4633	1489.6639	1495.7117	1495.9999	1503.123	1503.3267	1514.8345	1528.6425	3017.1372	3020.3501	3023.2048	3026.7969	3031.3292	3069.3227	3070.9767	3073.7837	3075.5112	3081.1437	3099.498	3110.4879	3121.8374	3126.2965	3128.4331	3143.912
CC1C(C)(C)C1(C)C	CC1C(C)(C)C1(C)C	
InChI=1S/C8H16/c1-6-7(2,3)8(6,4)5/h6H,1-5H3	InChI=1S/C8H16/c1-6-7(2,3)8(6,4)5/h6H,1-5H3
