19
gdb 91196	2.94319	1.56769	1.2212	2.3726	76.84	-0.2178	0.0278	0.2455	1063.9364	0.161467	-419.192615	-419.18484	-419.183895	-419.224889	29.771	
C	-0.080530127	 1.55685757	 0.0250388818	-0.326097
N	-0.048332978	 0.1141961262	 0.0850798058	-0.068529
C	-1.2690233582	-0.6119361932	 0.4829638304	-0.167146
C	-0.376380888	-1.6253166219	 1.2531432014	-0.010385
N	-0.1306505016	-2.8354268198	 0.4977869254	-0.270856
C	 0.9589464988	-2.950147182	-0.1355811466	 0.1387
O	 2.0312081	-2.1286957473	-0.1879793034	-0.219693
C	 2.0941425937	-1.0664590492	 0.7723268812	-0.091757
C	 0.7274461783	-0.537716124	 1.1544444976	-0.008115
H	 0.9205028491	 1.9456881512	-0.1914861154	 0.118951
H	-0.7436763774	 1.8807522193	-0.7838768234	 0.125322
H	-0.4341778307	 2.0239302838	 0.9649034291	 0.089172
H	-1.9174155438	-0.0354379485	 1.1633191121	 0.081963
H	-1.8653903339	-1.0121965802	-0.3421806815	 0.111772
H	-0.7218989109	-1.887206707	 2.2544020788	 0.08532
H	 1.1375953673	-3.8189339525	-0.7672553345	 0.122581
H	 2.6032434067	-1.4445649616	 1.6694422639	 0.110559
H	 2.7207459959	-0.2922142295	 0.3202589063	 0.120012
H	 0.8098407997	 0.0725544962	 2.070029121	 0.058224
105.5986	141.4638	212.5672	235.285	297.7332	317.4063	397.4688	484.6883	541.2016	641.3344	714.7951	799.2727	831.0654	856.125	891.7836	962.9833	974.0944	982.5668	1023.8233	1050.1253	1070.8872	1104.3063	1144.2587	1173.6682	1191.522	1207.3724	1236.5979	1244.0127	1276.3383	1293.5578	1330.178	1351.2638	1371.1536	1403.6784	1422.8384	1453.1756	1487.381	1490.8497	1497.9602	1514.9184	1727.7756	2918.4087	2951.2306	2968.369	3018.499	3055.0807	3078.6346	3087.5458	3092.049	3097.0759	3153.9509
CN1CC2N=COCC12	CN1C[C@H]2N=COC[C@@H]12	
InChI=1S/C6H10N2O/c1-8-2-5-6(8)3-9-4-7-5/h4-6H,2-3H2,1H3	InChI=1S/C6H10N2O/c1-8-2-5-6(8)3-9-4-7-5/h4-6H,2-3H2,1H3/t5-,6-/m1/s1
