24
gdb 60132	2.5983	0.95851	0.82802	0.8677	86.43	-0.2139	0.0769	0.2908	1533.7653	0.214567	-405.520677	-405.509506	-405.508562	-405.557426	40.841	
C	 1.258108107	-0.1551364675	-0.5418826899	-0.404571
C	 1.2029785907	-1.0536865674	 0.6911946374	 0.137312
O	 1.9920413279	-0.532115806	 1.7585468082	-0.442088
C	-0.210393034	-1.1935925278	 1.2655084695	-0.137812
N	-1.0817731557	-1.8499334782	 0.2973399086	-0.118945
C	-2.4157844927	-2.3132228009	 0.690048252	 0.001217
C	-2.9517443822	-2.1627096449	 2.0968554213	-0.416166
C	-2.2596350444	-1.1705104182	-0.261711449	 0.003228
C	-2.6455304716	 0.2534137334	 0.0739323193	-0.419268
H	 2.2823142126	-0.0834074817	-0.9270968633	 0.099612
H	 0.6292266525	-0.5599801062	-1.33957748	 0.131955
H	 0.9163761175	 0.8561612587	-0.2952616091	 0.115104
H	 1.5487824304	-2.0616000283	 0.412811333	 0.069419
H	 2.8812414655	-0.3834109854	 1.4232201814	 0.27923
H	-0.1413069959	-1.8095897641	 2.1686725705	 0.106646
H	-0.5501906935	-0.1971188935	 1.5823328605	 0.092752
H	-2.6624631759	-3.2820916713	 0.2529771467	 0.081998
H	-2.7422684151	-1.1857825972	 2.5366987207	 0.123042
H	-4.0372055455	-2.3098886153	 2.1036554513	 0.119756
H	-2.5151736626	-2.9213789128	 2.7562811798	 0.125035
H	-2.3965499432	-1.3962800729	-1.3200428847	 0.082197
H	-2.639077786	 0.4690012677	 1.1438137856	 0.124269
H	-1.969653255	 0.9652805295	-0.4135157634	 0.124873
H	-3.6564257908	 0.4543720902	-0.2966452967	 0.121206
33.0535	70.464	132.201	162.8174	175.4584	214.0827	242.7459	256.5582	265.295	298.1413	383.5874	388.1735	452.4447	470.7351	528.5433	539.582	743.3124	764.0674	847.4245	849.1419	919.0031	960.1499	962.4279	1023.2716	1042.722	1053.7493	1092.1535	1113.9078	1127.4564	1154.27	1169.3377	1179.8337	1199.6696	1239.7397	1291.4919	1341.792	1361.1337	1379.8633	1381.8552	1402.9058	1415.445	1418.5647	1427.912	1442.8979	1479.8557	1487.7002	1490.1365	1498.4602	1501.3175	1504.4637	1513.7511	2977.588	3003.0228	3025.1879	3034.326	3037.9376	3068.2337	3077.8259	3088.9082	3089.4176	3090.0359	3092.4961	3119.1323	3125.4432	3135.7103	3823.7847
CC(O)CN1C(C)C1C	C[C@@H](O)CN1[C@@H](C)[C@H]1C	
InChI=1S/C7H15NO/c1-5(9)4-8-6(2)7(8)3/h5-7,9H,4H2,1-3H3	InChI=1S/C7H15NO/c1-5(9)4-8-6(2)7(8)3/h5-7,9H,4H2,1-3H3/t5-,6-,7+,8?/m1/s1
