16
gdb 14665	5.61276	0.62906	0.58844	1.429	78.09	-0.2424	0.032	0.2744	1869.6309	0.127153	-346.538652	-346.528447	-346.527503	-346.577309	32.925	
C	 0.0339862459	 1.4818942407	-0.259199314	-0.495858
C	 0.0086765034	 0.0444616524	-0.030079537	 0.063407
C	-0.0156390165	-1.1433747333	 0.1568014644	 0.08616
C	-0.0378724145	-2.5898298013	 0.387460677	-0.49722
C	-1.3725273563	-3.1853293307	 0.2916478176	 0.087019
C	-2.4629794655	-3.6850200666	 0.2082170689	 0.098802
C	-3.7937055358	-4.2727927309	 0.1282504779	-0.21414
O	-3.8592710522	-5.1645576142	-0.9788725157	-0.409262
H	 0.6904331877	 1.7405532356	-1.0973171874	 0.147866
H	-0.9664447725	 1.8623925369	-0.4928626567	 0.149947
H	 0.3953720002	 2.0206511847	 0.623665659	 0.147021
H	 0.6249109487	-3.0878160136	-0.3343268271	 0.160442
H	 0.3894137403	-2.8113942417	 1.3756618233	 0.155007
H	-4.0144207185	-4.7957890126	 1.0733383295	 0.114621
H	-4.5362541684	-3.4636596488	 0.0325650571	 0.117222
H	-4.7512241561	-5.5259355164	-1.0019673469	 0.288968
14.7024	15.9831	60.0204	128.1857	180.0541	197.8183	229.5102	269.4814	333.762	374.3412	389.7756	484.7406	561.5867	766.9407	777.3392	929.2072	1028.1172	1045.7797	1053.1685	1054.6336	1131.124	1173.5851	1230.1369	1247.4133	1257.2849	1338.9189	1415.0367	1451.7532	1460.5617	1478.4481	1479.0279	1503.5265	2378.1379	2384.5056	2961.2298	2979.1474	3002.8472	3025.5932	3027.0236	3087.503	3088.4509	3817.3291	14.7032	15.9787	60.0204	128.1859	180.0542	197.8183	229.512	269.4812	333.7612	374.3422	389.7752	484.7404	561.5864	766.9406	777.3392	929.2071	1028.1172	1045.78	1053.1686	1054.6337	1131.124	1173.5851	1230.1367	1247.4136	1257.285	1338.9188	1415.0368	1451.753	1460.5619	1478.4483	1479.028	1503.5269	2378.1378	2384.5056	2961.2299	2979.1475	3002.8472	3025.5932	3027.0236	3087.503	3088.4509	3817.3295
CC#CCC#CCO	CC#CCC#CCO	
InChI=1S/C7H8O/c1-2-3-4-5-6-7-8/h8H,4,7H2,1H3	InChI=1S/C7H8O/c1-2-3-4-5-6-7-8/h8H,4,7H2,1H3
