19
gdb 113401	4.43844	0.99813	0.9371	3.2709	76.49	-0.2418	0.0758	0.3176	1321.8286	0.157687	-422.929218	-422.920908	-422.919964	-422.962421	31.693	
C	 0.4166415714	 1.4965816839	 0.2732523082	-0.374277
C	-0.2908362618	 0.2089316927	-0.1649189933	-0.21119
C	 0.3300987152	-0.3913726973	-1.4021377099	-0.095908
O	 1.6232891643	-1.04594469	-1.2199934848	-0.305802
C	 0.5288067208	-1.8217444938	-1.586751778	 0.566434
C	 0.0373925082	-3.141386262	-0.9639964674	-0.069817
C	-0.9513959997	-3.274127102	-2.1499706477	-0.222326
C	 0.4321936575	-2.8631019483	-2.7142328485	-0.075934
O	 1.0549615449	-3.8438258191	-1.7875149917	-0.311757
H	 1.4719294719	 1.3003105049	 0.4836243917	 0.138466
H	 0.3663307204	 2.2623700359	-0.508388308	 0.116713
H	-0.0416781253	 1.9095327872	 1.1764467307	 0.115969
H	-0.2591417069	-0.530716872	 0.6424930923	 0.105198
H	-1.3500592256	 0.4118174315	-0.3714966059	 0.102893
H	 0.299276718	 0.237732716	-2.2943975757	 0.095462
H	-0.0694836174	-3.4443100659	 0.0764056618	 0.104289
H	-1.2310268816	-4.3026080237	-2.3764900262	 0.116195
H	-1.7823279428	-2.5678165441	-2.2250709156	 0.100315
H	 0.7923356287	-2.8350129338	-3.7414854121	 0.105075
74.3426	115.5015	161.9796	207.1714	247.3661	322.7961	399.569	475.7777	501.0973	626.768	690.4682	758.1515	762.2887	799.0621	844.59	868.0718	908.0048	938.0219	945.1152	999.2806	1022.1466	1042.5557	1075.5358	1093.4041	1120.9382	1144.017	1151.6261	1166.027	1171.0397	1211.2663	1239.9916	1259.4415	1290.3548	1335.7318	1380.5149	1410.5589	1472.3743	1474.2967	1498.189	1506.8729	1555.5367	3025.1087	3038.0063	3065.819	3068.0859	3091.272	3107.5549	3119.1681	3135.1487	3139.5333	3159.0773
CCC1OC11C2CC1O2	CC[C@H]1O[C@]21[C@H]1C[C@@H]2O1	
InChI=1S/C7H10O2/c1-2-4-7(9-4)5-3-6(7)8-5/h4-6H,2-3H2,1H3	InChI=1S/C7H10O2/c1-2-4-7(9-4)5-3-6(7)8-5/h4-6H,2-3H2,1H3/t4-,5-,6+,7-/m1/s1
