23
gdb 88832	2.98869	1.04878	0.86934	1.6669	86.35	-0.2545	0.0819	0.3364	1437.5207	0.204909	-388.267384	-388.257671	-388.256727	-388.302566	36.351	
C	 0.2352080457	 1.5497094107	-0.4114748329	-0.421687
C	-0.0238052593	 0.1176322608	-0.0184578016	 0.072234
O	 1.1003827966	-0.7651421879	 0.047115707	-0.272177
C	 0.3743616043	-0.5029667337	 1.2597561684	 0.046036
C	 1.1047176184	 0.1922744095	 2.3711418336	 0.00812
C	 0.2969205848	 0.6007675475	 3.6361787694	-0.243093
C	 1.5036198594	 0.1666997619	 4.5096373479	-0.221885
C	 2.0671459479	-0.635698534	 3.2979516243	 0.009672
C	 1.8013385025	-2.1370784519	 3.3676638541	-0.401095
H	 1.1008508471	 1.9665895935	 0.1065275092	 0.129332
H	 0.424689656	 1.6140606746	-1.4882350918	 0.128815
H	-0.6398096806	 2.1702139784	-0.1889501024	 0.120605
H	-0.8905608388	-0.3262185224	-0.5150063192	 0.083056
H	-0.232195644	-1.3513851878	 1.5853778247	 0.080902
H	 1.6502304545	 1.0517438216	 1.9747902018	 0.07013
H	-0.0352681738	 1.639471977	 3.7027090015	 0.097198
H	-0.5738195149	-0.0451370605	 3.7877600536	 0.09979
H	 2.1409118129	 1.013028761	 4.7800674361	 0.098737
H	 1.2850152955	-0.4041992899	 5.4162582602	 0.093566
H	 3.1275802432	-0.4704684685	 3.0870932791	 0.07045
H	 0.7585191853	-2.3584482897	 3.6221623318	 0.109823
H	 2.0246617916	-2.6274856	 2.4146940746	 0.130433
H	 2.4280030857	-2.5973839802	 4.1392580105	 0.111039
36.426	100.7976	123.6557	180.0969	201.417	247.3852	263.878	346.8466	381.522	406.9309	466.9814	538.8341	679.0693	768.2178	783.9041	800.735	869.6969	884.2709	913.3121	953.5591	966.6421	967.7039	1002.0316	1025.2072	1068.175	1093.0008	1110.9477	1148.7366	1166.8743	1176.4476	1204.7265	1220.0934	1253.7708	1255.853	1278.1113	1285.5957	1304.1483	1319.7031	1367.1958	1405.3843	1411.3665	1425.089	1471.3782	1480.1679	1490.5518	1496.6169	1499.1289	1500.531	1513.4861	3026.3319	3038.4698	3049.7628	3049.9959	3058.4135	3066.8885	3077.1582	3083.1461	3092.5418	3096.558	3098.215	3101.2223	3113.5364	3136.3557
CC1OC1C1CCC1C	C[C@H]1O[C@H]1[C@H]1CC[C@H]1C	
InChI=1S/C8H14O/c1-5-3-4-7(5)8-6(2)9-8/h5-8H,3-4H2,1-2H3	InChI=1S/C8H14O/c1-5-3-4-7(5)8-6(2)9-8/h5-8H,3-4H2,1-2H3/t5-,6-,7+,8-/m1/s1
