21
gdb 53433	2.30938	1.12657	0.93819	1.8819	86.15	-0.2435	0.0479	0.2914	1389.448	0.18258	-387.084593	-387.074626	-387.073682	-387.121265	35.679	
C	-0.3016065941	 1.4046442789	 0.3011165228	-0.498728
C	-0.1779870466	-0.0409488942	 0.1664894233	 0.036008
C	-0.0400674756	-1.2341661784	 0.0539375307	 0.07626
C	 0.065027691	-2.6854804265	-0.0802955446	-0.198933
C	 0.8111455781	-3.3560080843	 1.096254354	-0.216236
C	-0.2473400899	-3.506883315	 2.2246469616	-0.202678
C	-1.6297970114	-3.3631335125	 1.5372954416	-0.224131
C	-1.3468186727	-3.3395362264	 0.0194383566	 0.147209
O	-2.3422917133	-2.730002107	-0.7651632687	-0.439971
H	 0.6478287003	 1.8545248886	 0.6117311833	 0.151016
H	-0.5938973007	 1.8704967275	-0.6463672901	 0.150223
H	-1.054930253	 1.6742551017	 1.0495141337	 0.14812
H	 0.5315546318	-2.9230469878	-1.0423855419	 0.097821
H	 1.1582888734	-4.3412079903	 0.7665971054	 0.099872
H	 1.6907661735	-2.7896068771	 1.4084560894	 0.106158
H	-0.1382871839	-4.4688675002	 2.7324131195	 0.099873
H	-0.1141312112	-2.7344377814	 2.9863429424	 0.107071
H	-2.330513955	-4.1583172875	 1.8028941525	 0.099894
H	-2.1024646144	-2.4141332123	 1.8114728306	 0.099649
H	-1.2618135462	-4.3650273864	-0.3587615035	 0.085471
H	-2.2853087701	-1.7801518795	-0.5957188684	 0.27603
26.8775	48.4311	89.4937	97.0067	184.1214	253.6914	294.9695	353.7354	409.245	421.7281	462.9217	556.4654	610.137	656.3777	747.5665	779.2765	851.4079	889.8759	927.2895	963.453	1011.6448	1040.2463	1051.924	1054.6535	1099.4416	1113.0824	1125.8004	1184.9622	1204.9817	1216.5171	1257.5877	1279.03	1299.6024	1329.5452	1334.7234	1362.3432	1373.7223	1414.613	1442.3677	1478.2556	1479.234	1485.5148	1492.6976	1511.8116	2355.1503	3027.5683	3038.1532	3042.6577	3050.7542	3056.6691	3064.6038	3088.2085	3088.4971	3089.0425	3105.477	3115.4865	3752.8001
CC#CC1CCCC1O	CC#C[C@H]1CCC[C@H]1O	
InChI=1S/C8H12O/c1-2-4-7-5-3-6-8(7)9/h7-9H,3,5-6H2,1H3	InChI=1S/C8H12O/c1-2-4-7-5-3-6-8(7)9/h7-9H,3,5-6H2,1H3/t7-,8+/m0/s1
