21
gdb 116604	2.98977	0.95869	0.86561	2.136	83.25	-0.2287	0.0301	0.2588	1476.2816	0.180416	-420.402557	-420.392096	-420.391152	-420.438601	37.795	
C	-0.1043923078	 1.7041334967	 0.0491387968	-0.36656
C	-0.1533513242	 0.2314700012	-0.3506810846	-0.132584
N	-1.5328242606	-0.2408280089	-0.4055821769	-0.351244
C	-1.786661765	-1.297861577	-1.0468289122	 0.363797
N	-1.0854499386	-2.2460970163	-1.7787342725	-0.357908
C	-2.3014490085	-2.8007476301	-2.4095190955	-0.199762
C	-3.1342599379	-1.9332829462	-1.4050766901	 0.303853
C	-3.8373013077	-2.6969947452	-0.2922832108	-0.435774
O	-4.0072387659	-1.0247146875	-2.043788934	-0.479189
H	 0.9290041589	 2.0591249812	 0.1161965174	 0.103739
H	-0.634184717	 2.3201115868	-0.6839976881	 0.1157
H	-0.5872245653	 1.8504848965	 1.0196979429	 0.123433
H	 0.3607365837	 0.0967849032	-1.3183868301	 0.075678
H	 0.4100137639	-0.366238462	 0.3814907101	 0.103383
H	-0.1829597172	-2.1255774576	-2.2157321328	 0.244921
H	-2.4632815103	-2.4820351724	-3.4430877092	 0.118797
H	-2.3906486571	-3.8872880407	-2.3232092319	 0.106832
H	-3.1726938493	-3.4386828367	 0.1614396865	 0.118587
H	-4.1620448737	-2.0017798587	 0.487404392	 0.129366
H	-4.7194850052	-3.2073735801	-0.6907112361	 0.123586
H	-3.8404658051	-0.1639402763	-1.6394740811	 0.291349
32.3718	102.1179	109.7003	141.3201	223.2259	238.2108	251.1079	279.5131	310.1013	343.3978	369.6804	414.6158	474.4269	574.8067	692.3893	718.6434	796.1265	823.5937	881.6129	913.622	939.492	980.4768	998.819	1072.6081	1112.1872	1119.8481	1137.3816	1144.061	1191.2588	1222.3746	1238.6471	1300.9641	1307.7134	1367.9361	1374.4012	1386.9604	1405.1215	1411.7598	1479.9612	1486.8872	1488.5001	1490.5775	1505.382	1514.9522	1813.0937	2945.1582	3001.5307	3037.6706	3038.6797	3048.6547	3105.9155	3109.8667	3114.7197	3116.5058	3117.3063	3596.8956	3778.7277
CCN=C1NCC1(C)O	CCN=C1NC[C@]1(C)O	
InChI=1S/C6H12N2O/c1-3-7-5-6(2,9)4-8-5/h9H,3-4H2,1-2H3,(H,7,8)	InChI=1S/C6H12N2O/c1-3-7-5-6(2,9)4-8-5/h9H,3-4H2,1-2H3,(H,7,8)/t6-/m0/s1
