19
gdb 36428	4.03035	1.0083	0.93551	1.7779	80.54	-0.2436	0.0572	0.3008	1294.9274	0.15883	-385.819896	-385.811492	-385.810548	-385.853545	31.896	
C	-0.1133142987	-1.0473623148	-0.3566994588	-0.451582
C	-0.0682350449	 0.1329129051	-0.1315978533	 0.297764
C	 0.0269812809	 1.562954648	 0.1354707572	-0.366969
C	 1.4749865726	 2.0641527272	 0.145178332	 0.015815
C	 2.3023799007	 1.9943727829	-1.1791836985	-0.252604
C	 2.6321415631	 3.5099162269	-1.0580341293	-0.07771
C	 1.6016285451	 4.4270658285	-1.7301822554	-0.075178
O	 0.7060599901	 4.3286027853	-0.5942021743	-0.292666
C	 1.6869121885	 3.5978328751	 0.1747587328	 0.087559
H	-0.1712619601	-2.0888345525	-0.5539614757	 0.192189
H	-0.5344135954	 2.1279443544	-0.6175193254	 0.142538
H	-0.445787358	 1.7909671948	 1.1000199025	 0.128103
H	 2.0236782707	 1.5926574588	 0.9668232596	 0.082624
H	 3.1685248276	 1.3323884597	-1.1300207265	 0.108276
H	 1.7227536601	 1.7316107075	-2.0689794144	 0.106871
H	 3.6779794752	 3.8120006211	-1.0612452855	 0.078339
H	 1.9348913476	 5.4627539989	-1.8766566438	 0.101609
H	 1.1425110083	 4.0622809317	-2.6575194477	 0.102669
H	 1.9050724965	 4.0849690013	 1.1296858446	 0.072351
57.4623	89.9127	119.798	224.9397	318.6868	346.8197	372.2438	479.1211	504.6349	615.528	634.1728	689.4088	768.005	806.6999	844.1583	861.0308	909.3141	926.0589	955.1392	977.551	1001.1113	1022.5816	1067.4081	1076.8777	1110.7804	1146.7681	1158.0987	1185.8163	1218.3738	1234.4874	1255.5927	1273.5034	1299.5363	1308.0072	1338.5716	1358.7278	1367.8001	1472.4459	1485.376	1520.6904	2236.4007	3006.6782	3022.2696	3049.192	3052.6469	3060.3297	3064.2175	3071.3675	3115.621	3129.1066	3507.3027
C#CCC1CC2COC12	C#CC[C@H]1C[C@H]2CO[C@@H]12	
InChI=1S/C8H10O/c1-2-3-6-4-7-5-9-8(6)7/h1,6-8H,3-5H2	InChI=1S/C8H10O/c1-2-3-6-4-7-5-9-8(6)7/h1,6-8H,3-5H2/t6-,7-,8-/m0/s1
