17
gdb 15123	7.79019	0.78439	0.744	4.6113	70.55	-0.2802	0.0114	0.2916	1482.5452	0.141196	-363.844574	-363.836007	-363.835062	-363.878958	29.616	
N	 0.0048386994	-1.0170894419	-0.5463450145	-0.293064
C	 0.0331252031	 0.1079251174	-0.2890735166	 0.265355
C	 0.0269382146	 1.5358492968	 0.0443948246	-0.181793
O	 1.3300238826	 2.0439088208	-0.0642262685	-0.237409
C	 1.3982436759	 3.4289696846	 0.2569305046	-0.069295
C	 2.8282791765	 3.8759558275	 0.1704573837	 0.007874
C	 3.421424559	 4.2395023746	-1.1656665022	-0.245653
C	 3.1331495042	 5.3180292529	-0.1538509349	-0.273657
H	-0.6711405657	 2.0500650103	-0.6377394434	 0.137078
H	-0.3754638671	 1.6546891106	 1.0646329879	 0.137709
H	 0.7726760997	 4.0091306408	-0.4426725669	 0.089288
H	 0.9951848606	 3.5941627852	 1.2703611358	 0.095546
H	 3.4875472108	 3.3840055366	 0.879002109	 0.097776
H	 4.453893977	 3.9697904157	-1.3550741374	 0.120231
H	 2.7782951411	 4.1733164612	-2.0367663563	 0.117182
H	 2.298755603	 5.9850764373	-0.3448958361	 0.113673
H	 3.9655125053	 5.7880089897	 0.3571304912	 0.119158
42.6152	86.6319	96.1663	133.6074	219.9038	310.0204	386.352	387.8159	429.1174	582.8995	773.057	816.8324	844.5999	918.199	944.5334	958.8365	1018.5882	1035.0346	1056.2018	1066.2119	1081.8242	1132.1771	1147.7916	1195.2948	1200.3996	1228.4456	1252.7523	1282.3442	1363.945	1403.6188	1456.8931	1470.3175	1493.74	1506.2805	1519.388	2374.0307	2952.3953	2965.0638	2982.4499	2988.1753	3133.7491	3139.5306	3158.5512	3213.1149	3228.3123
N#CCOCC1CC1	N#CCOCC1CC1	
InChI=1S/C6H9NO/c7-3-4-8-5-6-1-2-6/h6H,1-2,4-5H2	InChI=1S/C6H9NO/c7-3-4-8-5-6-1-2-6/h6H,1-2,4-5H2
