21
gdb 95985	2.71958	1.22178	1.09348	1.7527	78.1	-0.2454	-0.0164	0.2289	1227.0286	0.181549	-424.258115	-424.248391	-424.247447	-424.293471	35.005	
C	 0.2845408962	 1.4153832279	-0.4955792127	-0.401911
C	-0.1083222541	 0.1533952637	 0.2760479006	 0.105477
O	-0.4552834241	-0.9125738254	-0.5959810345	-0.25763
C	 0.7282258521	-1.6259446825	-0.955081144	-0.082816
C	 1.7754011933	-1.3529057989	 0.1498231054	-0.264836
C	 1.0301475382	-0.4576563036	 1.1558657225	-0.10008
C	 1.9009527168	 0.5905916351	 1.8386585832	 0.379884
C	 1.3858505407	 1.126676506	 3.1618693043	-0.481574
O	 2.9350534497	 0.9878310132	 1.3502842551	-0.308327
H	 1.2220382628	 1.2840758678	-1.0431399432	 0.132733
H	-0.5058354232	 1.6590194357	-1.2104969105	 0.124075
H	 0.4133358197	 2.2680076515	 0.1788640192	 0.116604
H	-1.0011208851	 0.3595018839	 0.8764224394	 0.082706
H	 0.4568477357	-2.683063231	-1.0351789841	 0.106837
H	 1.0922549361	-1.297983882	-1.9383123524	 0.099008
H	 2.1299622456	-2.2733804287	 0.6187532488	 0.107916
H	 2.6466146677	-0.8194739284	-0.2351481462	 0.134478
H	 0.5416089964	-1.0654082767	 1.9246538679	 0.082975
H	 0.3385645172	 1.4380463588	 3.0775383811	 0.138531
H	 1.4168852741	 0.3314359133	 3.916326789	 0.143473
H	 2.0007477341	 1.9641196702	 3.4933207111	 0.142477
50.1694	70.27	123.0227	138.4952	167.6124	225.8274	248.5974	343.935	364.5281	422.0303	562.5992	597.2973	660.2066	713.0019	777.5008	842.9486	870.822	910.0621	932.8395	972.6523	998.5856	1021.2234	1033.9438	1059.495	1120.1826	1123.6487	1146.3822	1186.1494	1227.9753	1245.1343	1276.8136	1298.5259	1323.7974	1368.2252	1377.971	1383.0674	1398.2866	1410.9181	1462.0088	1475.5646	1483.075	1492.1473	1507.5453	1533.1967	1804.1904	3007.0723	3032.8037	3041.1898	3043.1554	3056.0441	3068.3372	3078.8688	3092.8456	3112.6495	3124.9662	3127.9679	3152.3681
CC1OCCC1C(C)=O	C[C@H]1OCC[C@H]1C(=O)C	
InChI=1S/C7H12O2/c1-5(8)7-3-4-9-6(7)2/h6-7H,3-4H2,1-2H3	InChI=1S/C7H12O2/c1-5(8)7-3-4-9-6(7)2/h6-7H,3-4H2,1-2H3/t6-,7+/m1/s1
