15
gdb 7921	3.62869	1.8254	1.26621	2.5294	62.84	-0.277	-0.0143	0.2627	925.4354	0.119363	-399.865456	-399.85814	-399.857196	-399.897399	26.812	
C	-0.2699908691	 1.5267042323	 0.0193987925	-0.404154
C	 0.1238288934	 0.0513755008	-0.034430257	-0.137024
C	 0.9997557613	-0.394351796	-1.2140227102	-0.314962
C	 1.9328695317	-1.4148110567	-0.6063946445	 0.405234
N	 2.6366742202	-2.2560637706	-1.2172499929	-0.513201
O	 1.9165728093	-1.2751642463	 0.7764922579	-0.215415
C	 0.9415362839	-0.3801089483	 1.1795788429	 0.433281
O	 0.8168988179	-0.0628301242	 2.3211370438	-0.315768
H	 0.6140009967	 2.1701350087	-0.0346828226	 0.128963
H	-0.9286942476	 1.7812244141	-0.8152725814	 0.126089
H	-0.7900246117	 1.7452845589	 0.9548834803	 0.148896
H	-0.7860510641	-0.5632503943	-0.0010906031	 0.128181
H	 0.4551540942	-0.8196029055	-2.0571891633	 0.147988
H	 1.5953134989	 0.443559072	-1.5950465387	 0.144417
H	 3.189141795	-2.8173318848	-0.5670788537	 0.237475
70.9905	137.144	214.5589	244.9557	340.7589	396.8368	511.1404	554.1441	595.7606	635.982	721.0789	784.2846	892.8905	913.1344	921.4933	934.3287	1029.2891	1074.2484	1096.9883	1139.7237	1144.8654	1201.2989	1279.915	1309.2309	1323.7568	1353.4562	1412.6409	1474.2919	1496.292	1498.8317	1794.076	1911.9592	3023.436	3045.4969	3051.8562	3115.5649	3132.71	3133.8978	3481.0786
CC1CC(=N)OC1=O	C[C@H]1C[C]([NH])OC1=O	
InChI=1S/C5H7NO2/c1-3-2-4(6)8-5(3)7/h3,6H,2H2,1H3	InChI=1S/C5H7NO2/c1-3-2-4(6)8-5(3)7/h3,6H,2H2,1H3/t3-/m0/s1
