14
gdb 42459	7.42867	0.65547	0.60683	5.1531	69.78	-0.2893	-0.0151	0.2742	1696.3486	0.097707	-436.68735	-436.677883	-436.676939	-436.723875	31.763	
O	-0.0669761055	-0.2016787613	 0.0025679833	-0.324313
C	-0.0602084351	 0.9975623879	 0.0055346343	 0.483207
C	 1.1798610113	 1.8915965564	 0.0008648006	-0.47997
C	 2.4275455982	 1.1388336173	-0.0141346473	 0.294121
N	 3.4334547797	 0.5733953139	-0.0260871994	-0.292287
O	-1.154656904	 1.7772280035	 0.013988558	-0.243902
C	-2.4115560965	 1.0561968317	 0.0201057892	-0.232916
C	-3.4975291241	 2.0181194828	 0.0298080724	 0.284949
C	-4.4191388754	 2.7868828533	 0.0380070378	-0.403463
H	 1.1302584335	 2.5544143841	-0.8697902358	 0.188916
H	 1.1445998284	 2.5427823484	 0.8810124847	 0.188983
H	-2.453999761	 0.4103228208	-0.8629762938	 0.162156
H	-2.4425678282	 0.4052812524	 0.899957217	 0.16215
H	-5.2342369913	 3.4681963487	 0.0456484389	 0.212368
20.6608	41.1701	90.1076	155.8978	160.7075	271.7185	326.0487	341.5687	371.8996	442.3227	537.2294	584.072	626.0247	695.774	731.9482	909.2556	956.6915	957.8806	997.9321	1013.795	1034.8358	1203.7995	1217.3466	1250.0715	1346.9422	1401.9805	1437.4555	1486.8531	1842.3491	2253.6972	2381.3075	3051.4908	3059.0436	3088.7344	3095.6441	3504.1787
O=C(CC#N)OCC#C	O=C(CC#N)OCC#C	
InChI=1S/C6H5NO2/c1-2-5-9-6(8)3-4-7/h1H,3,5H2	InChI=1S/C6H5NO2/c1-2-5-9-6(8)3-4-7/h1H,3,5H2
