16
gdb 84647	2.84335	1.75734	1.19967	3.687	70.44	-0.2517	-0.0109	0.2408	996.0157	0.125576	-437.891768	-437.884501	-437.883557	-437.923335	28.6	
O	 0.4747920253	 1.0544801551	-0.761619426	-0.437625
C	 0.1713392867	-0.1349210641	-0.0884481041	 0.009022
C	 0.8574663185	-0.2153411386	 1.2702356094	-0.099298
C	 0.375365479	-0.981941074	 2.2486835954	-0.083106
C	-0.8581376073	-1.7778064699	 2.0169792174	-0.071515
C	-2.2309502759	-1.2083626852	 2.2789686758	-0.240649
N	-1.7102895487	-1.3280876326	 0.9249264345	-0.092741
C	-1.3304998438	-0.2069988268	 0.2018525439	 0.343056
O	-2.081902518	 0.6777955083	-0.1475223413	-0.359861
H	-0.3771024394	 1.5109118916	-0.861049066	 0.295883
H	 0.469377236	-1.0006125386	-0.7012496498	 0.111835
H	 1.7440418723	 0.3992021002	 1.3892867083	 0.120771
H	 0.8702197617	-1.0661022782	 3.2114942111	 0.109651
H	-0.7591082425	-2.8605568464	 2.0933917752	 0.116554
H	-3.0505183692	-1.8747705954	 2.5316366062	 0.133978
H	-2.2954921146	-0.2052896853	 2.69074018	 0.144046
110.2404	186.66	269.8913	325.3975	362.9478	431.6333	458.9238	496.9199	527.5514	590.5671	670.722	729.798	797.1964	837.9639	895.2152	938.997	965.6451	987.402	1012.768	1066.8816	1096.5786	1124.593	1133.476	1162.5118	1169.5432	1179.167	1244.388	1325.5033	1355.0939	1369.8377	1412.0214	1441.2525	1504.8305	1692.9362	1793.6185	2975.0801	3107.3638	3117.3325	3171.0944	3195.8678	3212.2839	3673.9141
OC1C=CC2CN2C1=O	O[C@H]1C=C[C@H]2CN2C1=O	
InChI=1S/C6H7NO2/c8-5-2-1-4-3-7(4)6(5)9/h1-2,4-5,8H,3H2	InChI=1S/C6H7NO2/c8-5-2-1-4-3-7(4)6(5)9/h1-2,4-5,8H,3H2/t4-,5-,7?/m0/s1
