23
gdb 117654	2.78184	1.01929	0.91473	2.939	77.8	-0.2476	0.0561	0.3037	1401.8476	0.202557	-462.562858	-462.551661	-462.550717	-462.598606	42.061	
C	 0.1421663297	 1.3360897778	-0.3797286311	-0.427727
C	 0.0252881747	-0.0702977385	 0.2025593994	 0.126965
O	 0.5232391995	-0.1307585764	 1.5389624923	-0.440335
C	-1.4033462216	-0.6763207034	 0.1102015166	 0.364298
C	-2.4011447924	 0.0913830377	 0.9939278277	-0.44643
O	-1.7726176467	-0.5494413927	-1.261717935	-0.486461
C	-1.3095665219	-2.1690517437	 0.5034385984	-0.224718
C	-2.6326729472	-2.9197004595	 0.5793633924	-0.114107
O	-3.2923875286	-2.8115891484	-0.6884080457	-0.418548
H	 1.1892799311	 1.6516145716	-0.3749447771	 0.115441
H	-0.2365553057	 1.3581708931	-1.4028786465	 0.146557
H	-0.430504379	 2.0636561981	 0.2085168924	 0.101063
H	 0.6793252471	-0.7363243979	-0.3725500338	 0.086779
H	 0.1614585481	 0.6213877613	 2.0188076102	 0.279017
H	-2.4319298357	 1.1456906254	 0.7076574018	 0.119783
H	-3.4118710692	-0.3048486733	 0.8636248946	 0.113753
H	-2.1435267608	 0.0199009156	 2.0562108877	 0.104845
H	-2.4888994318	-1.1815949656	-1.4111786082	 0.287047
H	-0.6705426608	-2.6627164709	-0.2383176968	 0.107805
H	-0.8066855103	-2.2496792415	 1.472110708	 0.118064
H	-2.4426048198	-3.9758886321	 0.8195600445	 0.096304
H	-3.2681662762	-2.5104235919	 1.3769052784	 0.096851
H	-4.1788112525	-3.1754791048	-0.6127427602	 0.293755
57.168	86.3886	155.9026	202.5818	231.1793	235.9258	259.1464	276.687	294.7555	308.2547	328.4499	369.515	414.8624	442.5898	476.8878	512.0096	543.9115	591.1755	715.6686	841.0607	885.1132	917.7168	929.7757	963.6537	1008.235	1041.7219	1064.4234	1093.4301	1112.5301	1115.4409	1163.758	1221.5829	1232.0242	1262.7826	1297.4801	1310.7696	1355.2288	1374.3075	1395.9011	1406.8779	1412.3336	1429.3318	1452.7195	1467.8128	1487.9896	1497.6494	1498.5654	1506.6483	1529.3631	2992.937	3021.4876	3029.6272	3039.0754	3040.6304	3047.0519	3097.6226	3100.1662	3108.4827	3120.3569	3145.1658	3739.5468	3812.7781	3837.8335
CC(O)C(C)(O)CCO	C[C@@H](O)[C@@](C)(O)CCO	
InChI=1S/C6H14O3/c1-5(8)6(2,9)3-4-7/h5,7-9H,3-4H2,1-2H3	InChI=1S/C6H14O3/c1-5(8)6(2,9)3-4-7/h5,7-9H,3-4H2,1-2H3/t5-,6+/m1/s1
