20
gdb 8331	5.11079	1.32624	1.30092	1.4423	75.18	-0.236	0.0804	0.3164	1051.8988	0.177003	-348.99008	-348.982155	-348.981211	-349.022573	30.444	
C	 0.4041909551	 1.5783812887	 0.0664172354	-0.397286
C	-0.0593598546	 0.1426566728	-0.0755260121	 0.158354
C	 0.4803192148	-0.6902412383	-1.2582730302	-0.370574
C	 1.0367280562	-1.6267997788	-0.1645895064	 0.476044
C	 0.6115184716	-3.1143445911	-0.1270937406	-0.285529
C	 2.0335063139	-3.4842361586	-0.6326335801	-0.214252
C	 2.5131692893	-2.0781171107	-0.1765492296	-0.284538
O	 0.5835155028	-0.7446292812	 0.8743650162	-0.332279
H	 1.4889836824	 1.6502485656	-0.0606057792	 0.117379
H	-0.0790803304	 2.2131076686	-0.6848254939	 0.113392
H	 0.148461842	 1.9668196358	 1.0573606896	 0.125936
H	-1.151333424	 0.0867050422	 0.0336471168	 0.072321
H	-0.266411015	-1.1229186366	-1.9269073757	 0.105154
H	 1.2449322683	-0.1805922325	-1.8500535325	 0.103626
H	 0.4559378598	-3.429052974	 0.9089853042	 0.111792
H	-0.2531717434	-3.415443725	-0.7249291141	 0.091972
H	 2.5169721404	-4.3503782315	-0.1775144903	 0.10122
H	 2.0677272864	-3.5985082632	-1.7193473001	 0.103003
H	 3.2091002139	-1.5268420367	-0.8148349413	 0.09178
H	 2.9043057106	-2.0955326055	 0.845086804	 0.112483
52.8418	114.3715	229.3887	240.5039	326.3734	351.2804	400.3288	434.3564	517.2676	687.8848	771.0001	783.9953	848.859	878.3126	905.8921	914.0211	923.9025	925.0253	958.8304	971.7143	1023.3508	1077.064	1109.7496	1158.9149	1166.9151	1191.213	1194.3787	1216.1819	1243.5198	1244.3642	1268.5135	1272.94	1306.6534	1326.5015	1388.518	1408.6574	1467.1017	1481.2983	1483.0439	1490.6451	1496.159	1504.7557	3001.9481	3031.2845	3050.7929	3055.1608	3063.1578	3066.8246	3102.4823	3103.4657	3107.2285	3110.693	3120.6534	3125.1419
CC1CC2(CCC2)O1	C[C@H]1CC2(CCC2)O1	
InChI=1S/C7H12O/c1-6-5-7(8-6)3-2-4-7/h6H,2-5H2,1H3	InChI=1S/C7H12O/c1-6-5-7(8-6)3-2-4-7/h6H,2-5H2,1H3/t6-/m0/s1
