15
gdb 55603	4.70437	0.76615	0.68101	3.68	66.72	-0.257	-0.0414	0.2156	1560.83	0.111144	-491.148598	-491.139314	-491.13837	-491.184542	31.913	
N	 0.5855579024	 0.2378609635	-0.6404115627	-0.513418
C	-0.1080578784	 0.1219769632	 0.5196306357	 0.389939
O	 0.1008805486	 0.7859517877	 1.5131675996	-0.350905
C	-1.2833696227	-0.8761044469	 0.4954774925	-0.429657
C	-1.0871109066	-2.1487741909	-0.2904030432	 0.464854
O	-0.5123361851	-2.2542330534	-1.3464855222	-0.354232
O	-1.6802825163	-3.1956532262	 0.3517302612	-0.194584
C	-1.6348983768	-4.4404793833	-0.2418738635	 0.11649
N	-2.2031765336	-5.3867816328	 0.3560052379	-0.407234
H	 1.3921162988	 0.8409953455	-0.6394360276	 0.262481
H	 0.4693956073	-0.4503203993	-1.369414318	 0.279939
H	-1.5533347987	-1.1007596005	 1.5259219881	 0.169199
H	-2.1375792119	-0.35611609	 0.0410117839	 0.172995
H	-1.0920292949	-4.4419497409	-1.186423267	 0.148345
H	-2.098963272	-6.2483482656	-0.1782407047	 0.245788
29.3223	58.1787	98.3984	134.3388	171.1502	270.8002	361.1241	383.7024	429.8984	507.2712	536.5286	576.4721	607.7304	699.7498	782.355	855.0944	878.311	950.4562	965.1725	1023.1028	1070.4496	1122.2394	1169.0327	1214.1808	1253.8788	1331.6722	1359.074	1389.7392	1441.8189	1616.2495	1749.4545	1807.6009	1816.3443	3041.675	3146.8584	3156.8284	3509.7491	3563.0748	3707.2835
NC(=O)CC(=O)OC=N	NC(=O)CC(=O)O[CH][NH]	
InChI=1S/C4H6N2O3/c5-2-9-4(8)1-3(6)7/h2,5H,1H2,(H2,6,7)	InChI=1S/C4H6N2O3/c5-2-9-4(8)1-3(6)7/h2,5H,1H2,(H2,6,7)
