21
gdb 57774	3.40533	0.72251	0.65169	1.9358	89.81	-0.2434	0.0347	0.2781	1822.2115	0.179249	-387.054143	-387.043461	-387.042517	-387.091447	38.198	
C	-0.0556645549	 1.6143459782	 0.3008146162	-0.374111
C	-0.0564439754	 0.1039758266	-0.0086586646	-0.133474
C	 0.8304743305	-0.6734316761	 0.9848540212	-0.373064
C	-1.4188374928	-0.4295741976	-0.0200376516	 0.172164
C	-2.5370732511	-0.8797843211	-0.012851565	-0.031276
C	-3.8943530452	-1.3751546041	 0.0117395297	 0.225223
C	-4.9444086379	-0.4017842137	 0.5069522067	-0.465235
C	-4.2762040134	-2.47591959	-0.8980688214	-0.210668
O	-4.0530834912	-2.7304755025	 0.4843457941	-0.260068
H	 0.9655097617	 2.0068263333	 0.2638542961	 0.113258
H	-0.6642265436	 2.1654525465	-0.4209676009	 0.122701
H	-0.4602361175	 1.8025315503	 1.3000316523	 0.124784
H	 0.3671428609	-0.0324247308	-1.0137276825	 0.105092
H	 0.4551568973	-0.5590002417	 2.0063055313	 0.126225
H	 0.8457488595	-1.7402098046	 0.7477727998	 0.127381
H	 1.8569768691	-0.2946522928	 0.9503608285	 0.112092
H	-4.9699965455	 0.490357047	-0.1260679775	 0.129024
H	-5.9297616191	-0.8742619889	 0.4991131008	 0.126124
H	-4.7160141314	-0.0860003019	 1.5290342862	 0.135072
H	-5.3114119313	-2.5501821263	-1.2314765744	 0.111531
H	-3.5330656286	-2.8876595399	-1.578540405	 0.117226
14.7555	73.9323	93.2942	177.9274	193.9766	223.8138	226.8445	264.9183	305.8085	360.7536	373.3669	482.2507	496.8849	540.0537	577.3136	617.869	774.2415	826.7661	888.8065	924.7529	931.5717	965.5592	1002.5964	1034.676	1096.8154	1118.826	1127.5329	1137.9885	1167.1276	1190.4653	1286.1272	1325.5568	1346.7496	1371.9873	1395.5024	1409.7155	1417.9087	1478.8713	1485.2793	1488.6543	1494.3965	1497.897	1510.6376	1522.0188	2357.999	3003.9626	3036.9412	3040.2465	3043.9413	3078.0534	3108.5955	3113.5616	3115.2833	3118.9379	3122.4624	3128.3291	3170.2871
CC(C)C#CC1(C)CO1	CC(C)C#C[C@@]1(C)CO1	
InChI=1S/C8H12O/c1-7(2)4-5-8(3)6-9-8/h7H,6H2,1-3H3	InChI=1S/C8H12O/c1-7(2)4-5-8(3)6-9-8/h7H,6H2,1-3H3/t8-/m0/s1
