21
gdb 103656	2.43872	1.39352	1.23094	2.5618	79.8	-0.2493	0.0013	0.2506	1154.4626	0.181505	-424.226456	-424.217045	-424.2161	-424.260364	35.996	
C	 0.4369857671	 0.9048542681	-0.3982926749	-0.250632
O	 0.3406288455	-0.4124681193	 0.1036100198	-0.287957
C	 0.6689352241	-0.6074159813	 1.5038321455	 0.356284
C	-0.368639834	 0.0575033501	 2.4062169372	-0.459022
C	 0.7547018577	-2.1390613866	 1.6639754189	-0.277532
C	 2.205420548	-2.4875754913	 1.2661267409	 0.097141
O	 2.3531712656	-2.7741291128	-0.1213522051	-0.442389
C	 2.9463711696	-1.2167624428	 1.648943438	-0.105094
C	 2.1098360247	-0.1878240721	 1.7743567427	-0.110099
H	 1.4554370811	 1.308945997	-0.3148221357	 0.108694
H	 0.1690697208	 0.8545954361	-1.456742999	 0.128883
H	-0.2561944962	 1.5966606316	 0.0990390338	 0.109113
H	-1.3725710881	-0.3029272877	 2.1622347876	 0.125257
H	-0.1602491562	-0.1752410341	 3.4546678406	 0.122139
H	-0.3610864579	 1.1470801323	 2.3049837099	 0.11524
H	 0.5790282431	-2.4062339839	 2.7103844926	 0.097921
H	 0.0210431346	-2.6543625167	 1.0406489632	 0.111775
H	 2.5805626698	-3.3746321548	 1.7848874064	 0.079163
H	 1.909813143	-2.0513167004	-0.5851274655	 0.280738
H	 4.0271930627	-1.1731963824	 1.7252205862	 0.102736
H	 2.3904168851	 0.836881901	 1.9928647068	 0.097641
76.4967	99.0511	175.299	207.5204	231.9325	286.1534	311.3085	360.5633	387.7961	440.153	460.9309	493.4907	576.5797	630.3205	780.301	786.3882	804.9572	847.582	867.9187	929.9546	950.7351	984.2625	1018.6553	1033.6982	1098.2147	1103.9224	1120.4567	1177.0739	1181.7245	1202.643	1218.4998	1255.6312	1278.0876	1312.1487	1326.9764	1376.0714	1402.9612	1448.8756	1469.7302	1473.0233	1484.6282	1491.6041	1503.5266	1510.5737	1672.8558	2995.3508	3038.2603	3049.3444	3057.9825	3073.1863	3107.4707	3111.204	3115.272	3122.7057	3179.4785	3206.6091	3763.2587
COC1(C)CC(O)C=C1	CO[C@@]1(C)C[C@@H](O)C=C1	
InChI=1S/C7H12O2/c1-7(9-2)4-3-6(8)5-7/h3-4,6,8H,5H2,1-2H3	InChI=1S/C7H12O2/c1-7(9-2)4-3-6(8)5-7/h3-4,6,8H,5H2,1-2H3/t6-,7+/m0/s1
