18
gdb 125109	2.99993	1.31611	0.94842	1.1181	76.45	-0.1916	0.0289	0.2205	1233.5295	0.14966	-435.288567	-435.279562	-435.278618	-435.32236	33.227	
C	 0.0959038384	 1.4570155352	-0.0281614049	-0.513375
C	 0.0382796157	-0.0323297673	-0.0404825626	 0.278831
C	 0.2221437945	-0.9382225743	-1.0673865179	 0.142671
O	 0.5128455908	-0.6511825683	-2.3621684955	-0.460422
C	 0.0485347475	-2.2195725366	-0.4874366988	 0.23638
C	 0.1266150186	-3.5235869499	-1.2176786354	-0.277016
N	 1.1515965117	-3.4187601017	-2.280844731	-0.523372
H	 1.1087652256	-4.2259091375	-2.8944584446	 0.239005
H	 0.7966669034	-1.5035061999	-2.7487131354	 0.294492
H	 2.0781830132	-3.4134292977	-1.8636726845	 0.242526
N	-0.2173888455	-2.1261560399	 0.8147644684	-0.305621
N	-0.2314353733	-0.8036526986	 1.0568277803	-0.266012
H	 0.7847113703	 1.8368505796	 0.7358436166	 0.125663
H	 0.4472112436	 1.8074197639	-1.0013192862	 0.15493
H	-0.8852585813	 1.9119284084	 0.1556015803	 0.130858
H	 0.3009213091	-4.3399897777	-0.5033700282	 0.11426
H	-0.8262744259	-3.7364214605	-1.7201686326	 0.121126
H	-0.4064259466	-0.4841418072	 1.993750272	 0.265078
82.5256	97.1855	147.7325	210.6311	256.2374	278.6988	333.9988	351.0527	412.2294	444.0218	515.5708	596.7458	665.607	712.9932	729.1219	738.9078	787.3151	896.2449	987.9097	1003.0231	1029.5669	1054.5515	1062.6816	1170.0623	1193.3171	1259.9089	1289.5837	1309.6127	1380.0023	1407.9344	1419.7699	1466.3803	1485.2856	1491.1612	1500.7039	1507.1118	1549.0154	1650.3296	1678.1398	3004.3045	3020.5562	3037.7129	3067.2399	3126.7441	3493.2305	3536.7059	3576.4295	3677.3373
CC1=C([O-])C(C[NH3+])=NN1	Cc1c(O)c(CN)n[nH]1	
InChI=1S/C5H9N3O/c1-3-5(9)4(2-6)8-7-3/h9H,2,6H2,1H3,(H,7,8)	InChI=1S/C5H9N3O/c1-3-5(9)4(2-6)8-7-3/h9H,2,6H2,1H3,(H,7,8)
