20
gdb 85934	2.72356	1.26345	1.06792	3.0971	76.14	-0.2355	0.0349	0.2704	1212.5234	0.17015	-440.338664	-440.32917	-440.328226	-440.372671	35.462	
C	-0.1144238644	 1.3009536506	 0.3575994854	-0.343886
N	-0.0432812653	-0.0967301567	 0.0032843142	-0.070889
C	-1.1380184028	-0.7966581474	-0.6389434842	-0.201636
C	-0.7121641717	-2.2847085522	-0.5987911172	 0.381905
C	-1.2924955367	-2.995080145	 0.6269093856	-0.439412
O	-1.1929184707	-2.8780845483	-1.7989843013	-0.474206
C	 0.8274434948	-2.1952805641	-0.5256866766	-0.399491
C	 1.1209329979	-0.8194020369	 0.0711760264	 0.410297
O	 2.1780560616	-0.4188215936	 0.5121461011	-0.395912
H	 0.8410711127	 1.5762869432	 0.8069780583	 0.165424
H	-0.2914596415	 1.9304425243	-0.5244836391	 0.123074
H	-0.9222398924	 1.4831098863	 1.0764243242	 0.121964
H	-2.081718348	-0.6216940378	-0.108994359	 0.105685
H	-1.2733387638	-0.4824287264	-1.6832823729	 0.116555
H	-2.3847454951	-3.0153057416	 0.5722624514	 0.125686
H	-0.9278110025	-4.0275002763	 0.6849929435	 0.111675
H	-0.9961396194	-2.4885719477	 1.5510437213	 0.131387
H	-1.0329470963	-3.8262822095	-1.747530583	 0.278825
H	 1.3003195813	-2.9820817317	 0.0665475156	 0.119592
H	 1.2468778624	-2.2295838993	-1.5368935239	 0.133362
77.3588	128.2814	158.2324	191.5318	261.6142	279.6835	289.5794	331.1429	341.9468	370.8664	445.1408	526.8957	546.6293	595.1596	658.8535	788.8942	803.8476	915.5218	956.8044	970.1413	978.9305	1016.9066	1083.8549	1129.2665	1134.9354	1158.8353	1200.9406	1206.8057	1259.3191	1274.6308	1305.3917	1321.6868	1384.7345	1403.6382	1431.6896	1451.5712	1462.974	1492.796	1493.445	1495.4322	1512.629	1540.4625	1809.6605	3005.3747	3012.7199	3027.5622	3051.2869	3057.0227	3061.9749	3095.7876	3112.4618	3117.4685	3144.5587	3812.1787
CN1CC(C)(O)CC1=O	CN1C[C@@](C)(O)CC1=O	
InChI=1S/C6H11NO2/c1-6(9)3-5(8)7(2)4-6/h9H,3-4H2,1-2H3	InChI=1S/C6H11NO2/c1-6(9)3-5(8)7(2)4-6/h9H,3-4H2,1-2H3/t6-/m0/s1
