16
gdb 81086	2.28281	1.5348	1.47746	2.8532	72.57	-0.2527	-0.0459	0.2068	1000.059	0.122152	-437.830031	-437.821694	-437.82075	-437.863059	30.468	
C	 0.0613132899	 1.471813463	-0.1400853015	-0.352913
N	-0.008501209	 0.0155058144	 0.0277554135	-0.105891
C	-1.1562186164	-0.5816585038	 0.8267589061	-0.129449
C	-0.251880981	-1.8289693775	 1.0085683964	-0.26644
C	 0.7072803631	-0.6204905672	 1.1989967312	 0.119762
C	 2.1774799106	-0.5882548079	 1.3890945221	 0.03854
O	 2.9191388076	 0.1453746579	 0.7821523664	-0.248672
C	-0.4669379237	 0.0192682024	 2.0705404346	 0.371972
O	-0.6397253465	 0.7623790332	 2.9779432185	-0.293548
H	 1.0613621481	 1.7171235319	-0.5010140469	 0.159942
H	-0.6701334947	 1.7612068379	-0.8999442949	 0.128188
H	-0.1343024099	 2.0496204051	 0.7753252615	 0.128635
H	-2.1876640841	-0.5249246356	 0.4839745312	 0.110625
H	-0.4400667965	-2.4725855449	 1.8681545657	 0.121215
H	-0.0746101495	-2.3707722203	 0.0786049938	 0.128414
H	 2.553199112	-1.2836777886	 2.1715846724	 0.089621
87.7886	139.8175	161.7292	203.0711	213.3813	315.4932	331.7678	419.2235	524.1236	542.5536	607.063	710.8647	752.7353	802.2512	831.3832	853.4289	962.7856	978.6077	1018.046	1039.0259	1102.6509	1146.9281	1163.7769	1175.6535	1192.6184	1212.8954	1227.0802	1318.3098	1423.7801	1445.7206	1479.0114	1495.8068	1503.6075	1802.7795	1908.6592	2890.9882	2997.7363	3085.3166	3091.6803	3143.6566	3146.7216	3168.0538
CN1C2CC1(C=O)C2=O	CN1[C@H]2C[C@]1(C=O)C2=O	
InChI=1S/C6H7NO2/c1-7-4-2-6(7,3-8)5(4)9/h3-4H,2H2,1H3	InChI=1S/C6H7NO2/c1-7-4-2-6(7,3-8)5(4)9/h3-4H,2H2,1H3/t4-,6-/m0/s1
