20
gdb 70335	2.16967	2.04227	1.36628	1.314	77.85	-0.2265	0.0771	0.3036	1016.991	0.171619	-403.119132	-403.111014	-403.11007	-403.150975	33.287	
C	-0.0051472127	 1.5094550905	-0.0719520015	-0.501943
C	 0.1368594836	 0.0103366059	-0.0737541158	 0.258923
N	-0.584861303	-0.8116329418	 0.9271366633	-0.377184
C	 0.8962717304	-0.762768196	 0.9460707149	-0.077126
C	 1.5754700869	-1.9623310784	 0.2903923305	-0.236037
C	 1.1580128834	-1.9218426649	-1.1824431101	-0.084921
C	-0.3048992289	-2.0731778117	-1.5683946544	-0.354537
C	 0.3034213887	-0.7040535481	-1.4213832764	 0.349479
O	 0.5337355994	 0.0978533459	-2.5430935452	-0.464736
H	 0.7747270783	 1.9756986531	-0.6794674887	 0.14048
H	-0.9736903449	 1.8195172333	-0.4830911801	 0.114643
H	 0.0661996443	 1.9034800353	 0.9470530039	 0.109924
H	-0.9461372889	-0.203491446	 1.6596265638	 0.221811
H	 1.3806236181	-0.2757527268	 1.7881529933	 0.080816
H	 2.6626766214	-1.848636636	 0.3672269258	 0.101105
H	 1.3076502152	-2.9018782955	 0.7857436554	 0.108617
H	 1.8860009293	-2.2117973434	-1.9317533228	 0.090542
H	-0.4827046054	-2.4067900481	-2.5858900996	 0.100651
H	-1.0216965096	-2.4010242028	-0.8262389008	 0.137215
H	-0.3210731657	 0.3425435455	-2.9136977155	 0.282276
148.7619	209.0098	244.6703	280.0745	310.0612	332.6649	388.4576	425.0409	449.9941	483.2705	601.2669	605.4915	687.9877	798.3698	802.2437	842.2143	850.9373	911.3918	915.9703	944.6988	963.2394	1017.8511	1046.3458	1056.8013	1078.0038	1085.0941	1098.2258	1121.3075	1156.0063	1206.9809	1223.0218	1243.8181	1301.1759	1319.6789	1333.419	1358.3985	1394.3362	1412.982	1431.6015	1469.0837	1483.6665	1484.5927	1504.0258	3026.3938	3039.2304	3077.6133	3086.8411	3118.7154	3133.1362	3143.4437	3173.3019	3235.6508	3478.5478	3796.96
CC12NC1CC1CC21O	C[C@]12N[C@H]1C[C@H]1C[C@@]21O	
InChI=1S/C7H11NO/c1-6-5(8-6)2-4-3-7(4,6)9/h4-5,8-9H,2-3H2,1H3	InChI=1S/C7H11NO/c1-6-5(8-6)2-4-3-7(4,6)9/h4-5,8-9H,2-3H2,1H3/t4-,5-,6-,7-/m0/s1
