18
gdb 124653	4.37003	0.97074	0.87424	1.5133	74.28	-0.2288	0.0024	0.2311	1354.9922	0.148248	-435.273605	-435.264809	-435.263865	-435.307607	32.083	
C	-0.0958063487	 1.5285475562	 0.0917165023	-0.395743
C	 0.0135863051	 0.0145140253	-0.0167273964	 0.148205
C	 0.7494042864	-0.6192779208	 1.1605198845	-0.397511
O	-1.3494074685	-0.4722860327	-0.0791359677	-0.289032
C	-1.5561152684	-1.6776464641	-0.617931861	 0.389708
N	-0.6082089658	-2.471014287	-1.1144947504	-0.309689
N	-1.3102015762	-3.5276497941	-1.5408069409	-0.083176
N	-2.6181489246	-3.4828285308	-1.3599760208	-0.189736
C	-2.810824249	-2.3058709593	-0.7672958371	-0.143305
H	 0.9011795287	 1.9774977779	 0.1219551819	 0.118619
H	-0.6372029818	 1.9402059285	-0.7639655325	 0.125157
H	-0.6289537382	 1.8102007719	 1.0051750648	 0.126041
H	 0.5105566645	-0.2625832871	-0.9531043485	 0.105669
H	 0.2452616845	-0.3756280758	 2.1011059025	 0.120761
H	 0.793547075	-1.7048105195	 1.0520474515	 0.139601
H	 1.7745637671	-0.2387263337	 1.2097264494	 0.116505
H	-0.8594783304	-4.3161728082	-1.9728276656	 0.290967
H	-3.7912670396	-1.9624718067	-0.4836078164	 0.126958
62.305	77.1085	158.3451	214.5301	250.731	315.1224	324.7288	389.9994	414.4159	450.7228	493.2228	702.3026	736.6522	751.0619	848.3939	850.1493	934.9461	948.179	951.4847	984.4906	1040.7605	1141.3687	1158.5105	1167.3073	1199.4683	1204.4483	1259.7903	1364.47	1375.6323	1384.4418	1401.8	1415.5843	1424.7993	1480.8314	1486.7044	1495.4098	1511.1079	1514.3413	1591.1603	3041.4687	3045.2037	3050.8464	3110.3702	3120.1841	3124.5516	3136.2905	3283.5146	3684.1058
CC(C)OC1=NNN=C1	CC(C)Oc1n[nH]nc1	
InChI=1S/C5H9N3O/c1-4(2)9-5-3-6-8-7-5/h3-4H,1-2H3,(H,6,7,8)	InChI=1S/C5H9N3O/c1-4(2)9-5-3-6-8-7-5/h3-4H,1-2H3,(H,6,7,8)
