26
gdb 119048	2.02933	1.05356	0.7967	1.1307	93.87	-0.2183	0.0861	0.3044	1622.9125	0.23862	-369.59443	-369.583074	-369.58213	-369.631402	41.545	
C	-1.7720066881	 1.4227422522	 1.7524857166	-0.381885
C	-1.6755771573	-0.097561333	 1.5942143738	-0.16383
C	-1.2682573331	-0.5179825336	 0.172785973	-0.24882
C	-1.2099020247	-2.0271264957	-0.0452329444	 0.329342
C	-0.0522745688	-2.7085795431	 0.685199292	-0.230279
C	 0.0381459196	-4.2286031121	 0.5329253552	-0.392877
C	-2.5000205085	-2.7438249019	-0.2998960814	-0.290143
N	-1.5115339798	-2.6051100932	-1.3615881347	-0.115103
C	-1.8400369462	-1.7822492391	-2.5129461325	-0.314914
H	-2.0651630184	 1.6998579703	 2.769909956	 0.111299
H	-0.8113557419	 1.9051331149	 1.5399553398	 0.114212
H	-2.512424585	 1.8472386196	 1.0651060928	 0.112668
H	-0.9580699857	-0.4904052381	 2.3234583234	 0.101468
H	-2.6417467927	-0.5563794901	 1.8394539919	 0.097746
H	-1.9768665574	-0.0674284047	-0.5292400073	 0.09233
H	-0.2860035884	-0.0841880243	-0.0631099839	 0.091624
H	 0.8779055324	-2.2539026566	 0.3156609215	 0.094227
H	-0.1080154926	-2.4531858246	 1.7503908532	 0.09757
H	 0.9632995809	-4.6006205637	 0.9834631228	 0.104686
H	-0.7939661325	-4.7365224911	 1.0313953624	 0.110098
H	 0.0244742268	-4.5113794925	-0.5219426042	 0.136887
H	-2.6785016315	-3.7521061011	 0.0644989315	 0.108076
H	-3.3978702895	-2.1268673942	-0.3616314473	 0.094893
H	-2.5402516814	-0.9567624973	-2.3106222472	 0.099473
H	-0.9237755253	-1.3583217697	-2.9373522273	 0.119943
H	-2.2981350408	-2.4216343871	-3.2751183657	 0.121311
44.8197	72.3441	96.3028	134.3741	189.9256	197.1217	230.4086	246.7773	256.961	302.4368	326.2384	373.9629	451.1793	506.5478	524.425	696.1483	729.8963	745.1592	827.5417	872.2108	894.719	911.1649	940.9334	996.3707	1044.884	1051.587	1063.6591	1088.1445	1107.2139	1122.8695	1140.122	1154.6523	1185.1133	1212.3278	1241.0537	1270.2318	1305.06	1316.8227	1331.1021	1382.765	1386.8648	1395.1105	1411.8373	1416.1908	1452.0884	1477.1827	1482.6226	1490.1805	1492.759	1494.7641	1500.0617	1504.605	1509.911	1511.1884	1522.8986	2975.549	3005.9122	3011.21	3027.4802	3029.8415	3041.744	3050.9434	3058.3484	3061.5929	3073.2595	3079.9286	3094.7302	3098.3676	3101.5545	3101.9052	3131.6819	3164.3833
CCCC1(CC)CN1C	CCC[C@@]1(CC)CN1C	
InChI=1S/C8H17N/c1-4-6-8(5-2)7-9(8)3/h4-7H2,1-3H3	InChI=1S/C8H17N/c1-4-6-8(5-2)7-9(8)3/h4-7H2,1-3H3/t8-,9?/m0/s1
