17
gdb 105339	2.42589	1.4887	1.146	2.5321	73.69	-0.2548	0.0328	0.2876	1096.6759	0.133853	-421.741184	-421.732583	-421.731638	-421.774352	32.698	
O	 0.1475370253	 1.3423726128	-0.1883951845	-0.421371
C	 0.0470450041	-0.0428464463	 0.0718320403	-0.115629
C	-1.4091852577	-0.5342552198	 0.0209019887	 0.090198
C	-2.1056711936	-0.4946686768	-1.4051624542	-0.304877
C	-2.2355930446	-2.0191083698	-1.3347682466	 0.050417
O	-0.914868595	-2.558184608	-1.1736893082	-0.246554
C	-1.5943509062	-2.0807567098	-0.0149461908	-0.031957
C	-2.2022155552	 0.1090658203	 1.0543441288	 0.250785
C	-2.8218998423	 0.6598459141	 1.9270161954	-0.452593
H	-0.3743716542	 1.797828477	 0.482755666	 0.287082
H	 0.6138620056	-0.5529411988	-0.7097659816	 0.128379
H	 0.4849681677	-0.3097957772	 1.0461021219	 0.091557
H	-3.0633665064	 0.0264498772	-1.3787381725	 0.124087
H	-1.4876420747	-0.1059217096	-2.2165927902	 0.12722
H	-2.9789139589	-2.6659304992	-1.784689817	 0.110608
H	-1.7173550999	-2.7556897366	 0.8238170685	 0.1123
H	-3.3848315741	 1.1352120507	 2.692130956	 0.200347
95.6304	125.6219	160.5767	171.1491	249.6723	371.6101	386.5773	428.8952	481.4916	531.244	550.0805	624.615	651.866	659.5429	787.5423	843.0728	861.8329	903.1226	921.9758	961.856	989.7852	1032.1113	1049.9954	1085.1563	1109.5267	1125.1033	1196.9662	1222.021	1231.2206	1263.7997	1296.9353	1368.3682	1388.8062	1422.3525	1469.7367	1508.7318	2224.0543	2985.6312	3082.1208	3113.442	3146.0288	3185.9738	3201.4929	3499.2993	3788.2555
OCC1(CC2OC12)C#C	OC[C@]1(C[C@H]2O[C@@H]12)C#C	
InChI=1S/C7H8O2/c1-2-7(4-8)3-5-6(7)9-5/h1,5-6,8H,3-4H2	InChI=1S/C7H8O2/c1-2-7(4-8)3-5-6(7)9-5/h1,5-6,8H,3-4H2/t5-,6-,7-/m1/s1
