17
gdb 8324	5.85594	1.30087	1.29138	3.8865	69.24	-0.2466	0.0381	0.2847	988.4671	0.142932	-363.879177	-363.871924	-363.870979	-363.910848	27.91	
O	-0.4584588328	-0.0324002439	 0.0097670034	-0.36168
C	-0.2689062444	 1.1534254219	 0.0133451151	 0.437313
C	-1.1444929289	 2.4306767343	 0.0332154464	-0.468267
C	 0.2017461159	 3.2162767633	 0.0177015252	 0.423441
C	 0.4451102228	 4.2965535821	-1.0655237708	-0.281429
C	 0.2113559017	 5.3740078251	 0.0295605404	-0.208723
C	 0.4771573173	 4.2844793085	 1.1052153673	-0.281434
N	 0.8728462063	 1.920036865	 0.0005595053	-0.392207
H	-1.7734756886	 2.5550463922	-0.8503568381	 0.129781
H	-1.7470736624	 2.5452169855	 0.9363051829	 0.129782
H	 1.4865706594	 4.286891298	-1.4026190975	 0.103408
H	-0.2060687331	 4.2901757066	-1.9431990115	 0.103962
H	 0.8700542993	 6.2438167438	 0.0246775982	 0.104469
H	-0.8250409963	 5.720651437	 0.0467927664	 0.110756
H	-0.1478176806	 4.2682371373	 2.0016148836	 0.103962
H	 1.5281172345	 4.2712456205	 1.411283618	 0.103404
H	 1.8499756601	 1.6649489727	-0.0148365643	 0.243461
69.611	123.7038	280.2288	331.3165	373.0948	429.5846	455.4632	514.1422	566.2311	688.3825	779.3088	789.4801	854.6192	888.0183	913.3613	929.9965	964.2631	975.6175	1036.6716	1060.8357	1104.8607	1163.296	1170.6244	1195.2088	1208.2456	1233.214	1251.4467	1269.2268	1273.6274	1306.7993	1391.9998	1456.2661	1470.588	1485.3721	1505.7324	1897.6784	3048.8678	3053.9692	3069.9831	3081.7387	3102.4866	3105.2406	3128.1322	3140.4562	3600.8294
O=C1CC2(CCC2)N1	O=C1CC2(CCC2)N1	
InChI=1S/C6H9NO/c8-5-4-6(7-5)2-1-3-6/h1-4H2,(H,7,8)	InChI=1S/C6H9NO/c8-5-4-6(7-5)2-1-3-6/h1-4H2,(H,7,8)
