19
gdb 54625	3.53688	1.21345	1.05445	3.2376	83.21	-0.2371	-0.0494	0.1877	1192.3344	0.159911	-385.883657	-385.875694	-385.87475	-385.916583	30.802	
C	-0.0238570135	 1.4911856349	-0.0065925723	-0.491668
C	-0.0041978532	-0.0278703425	 0.0006281182	 0.241264
O	 0.0162818612	-0.6572313451	 1.0421658505	-0.313435
C	-0.0108104419	-0.7105014636	-1.3065362225	 0.28338
C	 0.0039135314	-2.0370680172	-1.5326651599	-0.161093
C	-0.0125964063	-2.1521556983	-3.0522034815	-0.068292
C	 1.0350829804	-1.0403315416	-3.4241257792	-0.209824
C	-0.0353780254	-0.1285737903	-2.7332151428	-0.144324
C	-1.0976226838	-1.0683347429	-3.3988239139	-0.209825
H	 0.8448063947	 1.8860743193	-0.5459892792	 0.13566
H	-0.9154118525	 1.8633183749	-0.5243984774	 0.135674
H	-0.0160593576	 1.8592386904	 1.0197777048	 0.138715
H	 0.0230484307	-2.8383243641	-0.8078869188	 0.131181
H	-0.0049661329	-3.1423698331	-3.5051057449	 0.070367
H	 2.0221583415	-1.1028376666	-2.9602340705	 0.100156
H	 1.1187047809	-0.8749261887	-4.502541456	 0.098605
H	-0.0511130953	 0.9525106856	-2.8626876918	 0.064696
H	-1.2111057558	-0.9055156587	-4.4749010502	 0.098605
H	-2.0714374325	-1.1565844623	-2.9116722525	 0.100158
61.6885	134.8834	153.8238	180.4146	362.0269	436.5666	475.8126	509.024	550.2152	617.9593	644.6819	779.1145	805.6427	838.2996	867.5863	870.3497	887.4694	934.2319	959.3274	1005.6112	1007.2352	1041.4195	1059.338	1066.9955	1106.6685	1108.8069	1113.6351	1215.3335	1221.7756	1227.7207	1233.0785	1272.944	1280.3341	1325.574	1379.2813	1462.9984	1474.2949	1482.8303	1518.8101	1630.9747	1761.6771	3032.1908	3048.4682	3057.0472	3091.5025	3118.5936	3123.28	3128.738	3130.6056	3152.7832	3243.1521
CC(=O)C1=CC2CC1C2	CC(=O)C1=C[C@@H]2C[C@H]1C2	
InChI=1S/C8H10O/c1-5(9)8-4-6-2-7(8)3-6/h4,6-7H,2-3H2,1H3	InChI=1S/C8H10O/c1-5(9)8-4-6-2-7(8)3-6/h4,6-7H,2-3H2,1H3/t6-,7+
