19
gdb 70820	2.38048	1.66349	1.50886	1.6033	75.7	-0.2482	0.0689	0.3171	1005.1215	0.157591	-422.960275	-422.951652	-422.950707	-422.992612	34.106	
C	-0.0266743562	 1.4532199599	-0.0321289233	-0.518495
C	 0.0241345616	-0.0478777242	-0.061144539	 0.313311
C	 0.5782044726	-0.9684377412	-1.1799237874	-0.383841
C	 0.0708575738	-1.9317095444	-0.0916260692	 0.33445
O	-0.0138295971	-3.3126963151	-0.0978683456	-0.482674
C	 0.5291959351	-0.9989254048	 1.0863369412	-0.162583
C	-0.8545481548	-1.0514359256	 1.77147922	-0.344123
C	-1.1547259053	-1.0288063738	 0.2560840754	 0.338766
O	-2.3659150112	-0.9806652826	-0.4072347357	-0.483068
H	 0.9763346091	 1.8845303569	-0.1216347201	 0.117327
H	-0.6317963327	 1.8375277466	-0.8600988912	 0.129542
H	-0.4675720115	 1.8194018613	 0.9012745391	 0.122023
H	 0.0298215676	-0.9668975785	-2.1265504055	 0.10221
H	 1.6599040723	-0.931094785	-1.3521534633	 0.080699
H	 0.8734011279	-3.6771369552	-0.1858973442	 0.284479
H	 1.5191082988	-0.9709354939	 1.5386864676	 0.071815
H	-1.0959087847	-1.9736597343	 2.3078597129	 0.096832
H	-1.1562068038	-0.1732205332	 2.3499339088	 0.093719
H	-2.7873695516	-1.8439063829	-0.3279694104	 0.289612
173.9858	200.7814	211.1262	230.2172	259.2567	275.8957	302.3868	326.693	464.9463	481.1678	527.2875	591.5991	665.3992	683.5699	711.9075	790.6944	870.5538	899.7384	937.6789	973.0456	997.3786	1040.6887	1049.5463	1076.6813	1103.4691	1107.3712	1140.7938	1151.02	1174.9895	1207.1251	1239.2964	1255.9839	1284.7526	1335.5941	1350.3858	1407.8005	1420.2659	1487.7224	1493.4234	1504.4316	1519.0062	3028.6117	3034.7673	3049.1682	3093.7427	3097.572	3099.7986	3108.0667	3132.1236	3799.193	3805.7903
CC12CC3(O)C1CC23O	C[C@@]12C[C@@]3(O)[C@@H]1C[C@@]23O	
InChI=1S/C7H10O2/c1-5-3-6(8)4(5)2-7(5,6)9/h4,8-9H,2-3H2,1H3	InChI=1S/C7H10O2/c1-5-3-6(8)4(5)2-7(5,6)9/h4,8-9H,2-3H2,1H3/t4-,5-,6-,7-/m1/s1
