23
gdb 107938	3.65657	1.15382	1.05358	0.2746	89.83	-0.2362	0.0838	0.3201	1282.6668	0.205649	-351.121349	-351.112424	-351.11148	-351.154501	35.395	
C	-0.0568337557	 1.5107103247	-0.0698843197	-0.380703
C	-0.017077977	-0.021978327	-0.0143942016	-0.305209
C	 0.7111821365	-0.5498778444	 1.1973865377	 0.354585
C	 2.2431476268	-0.3253428933	 1.3925170695	-0.276164
C	 2.2197887013	-1.6040643281	 2.2223116664	-0.106818
C	 0.9437495525	-2.079329835	 1.5641885179	-0.197139
C	 0.89505393	-1.6342952033	 3.0077227686	 0.357235
C	 0.7186996842	-2.4676978813	 4.2419128607	-0.505072
C	 0.1471166671	-0.3539331052	 2.6378246645	-0.323722
H	 0.9533874742	 1.9319436201	-0.1031604595	 0.119868
H	-0.5929331771	 1.8595210383	-0.9576836628	 0.110829
H	-0.5607595976	 1.9265212473	 0.8090678071	 0.119885
H	-1.0421711302	-0.4159584401	-0.0202486663	 0.093146
H	 0.4641778487	-0.4097159733	-0.922241276	 0.093522
H	 2.7905241249	-0.4678646096	 0.4548269285	 0.091062
H	 2.5639926397	 0.610854754	 1.8656489675	 0.083025
H	 3.0591440366	-2.2094768419	 2.542560947	 0.077233
H	 0.6796451417	-3.0094712361	 1.0801320658	 0.080089
H	 1.2781179994	-3.4068981687	 4.1684653239	 0.11578
H	 1.0750281337	-1.9406958551	 5.1353373344	 0.116939
H	-0.3351458334	-2.721913355	 4.4046180624	 0.1146
H	 0.3963782054	 0.5781727615	 3.1611586965	 0.080108
H	-0.9368895214	-0.5108077985	 2.6683223376	 0.086923
84.9978	147.7777	187.7965	213.9691	243.5789	281.2187	346.9677	355.4142	441.2581	454.4491	578.0863	631.1193	740.079	744.3403	790.9589	824.3877	876.2395	892.9202	899.927	943.7844	947.9732	979.4697	991.0763	1009.4751	1038.2962	1057.7873	1062.456	1099.1935	1126.2633	1136.7678	1162.5843	1194.4912	1201.4459	1240.6848	1249.2838	1288.6925	1315.2332	1330.703	1377.8603	1406.0484	1410.2712	1428.0153	1484.7921	1486.8408	1491.7063	1499.3759	1499.5997	1507.6153	1510.865	3010.4141	3011.9108	3018.1276	3022.7366	3034.5522	3041.1682	3070.9992	3076.6747	3078.4997	3088.5924	3101.8518	3105.1922	3184.4898	3209.9423
CCC12CC3C1C3(C)C2	CC[C@]12C[C@@H]3[C@H]1[C@]3(C)C2	
InChI=1S/C9H14/c1-3-9-4-6-7(9)8(6,2)5-9/h6-7H,3-5H2,1-2H3	InChI=1S/C9H14/c1-3-9-4-6-7(9)8(6,2)5-9/h6-7H,3-5H2,1-2H3/t6-,7+,8-,9-/m1/s1
