17
gdb 44811	2.74731	1.53019	1.20132	3.5988	73.03	-0.2389	-0.0007	0.2382	1054.7425	0.137327	-417.968105	-417.960376	-417.959432	-418.000797	29.5	
O	 0.1976776639	 0.0095547576	 0.4863434964	-0.351825
C	 0.1271553458	 1.1853503676	 0.2553619375	 0.363063
N	-0.9692098613	 2.0556501827	 0.1248788239	-0.343935
C	-0.1006986459	 3.2187628625	-0.0868118714	-0.053106
C	 0.8717991155	 3.3870621797	 1.03691167	-0.337712
C	 1.1234252751	 2.3088210603	-0.0275351935	 0.199283
C	 2.3470335873	 2.2204835569	-0.8587999824	-0.120295
C	 3.1480802051	 0.9662212552	-0.8499476544	-0.245615
N	 2.3850526138	 1.3531943648	-2.0491338349	-0.326537
H	-1.7587358444	 2.0471031861	 0.7615685568	 0.245238
H	-0.3473546701	 3.9657999568	-0.8290497665	 0.124807
H	 1.5483151324	 4.2357092253	 0.9726511797	 0.129627
H	 0.591822509	 3.1072478514	 2.0486116165	 0.125462
H	 2.8689696204	 3.1654207301	-0.9979248401	 0.089748
H	 4.2280197078	 1.0154940004	-0.9565935628	 0.117221
H	 2.7739322441	 0.1449271003	-0.246143388	 0.143599
H	 1.5339962114	 0.7971944023	-2.0999976667	 0.240978
60.1209	141.5237	167.7565	220.2949	352.1598	436.7414	452.7896	479.4573	600.6234	684.4095	715.1392	771.005	829.1123	851.5096	859.7005	906.6861	934.5404	963.9584	978.1724	1011.4279	1023.7497	1064.1924	1095.8865	1106.4716	1134.3466	1150.7086	1184.0028	1226.6307	1266.7518	1295.2363	1300.5262	1325.6639	1360.3733	1443.4923	1488.4487	1510.0785	1879.8477	3111.6172	3113.9263	3120.6315	3199.3311	3208.4959	3213.9423	3495.9595	3541.9305
O=C1NC2CC12C1CN1	O=C1N[C@H]2C[C@@]12[C@H]1CN1	
InChI=1S/C6H8N2O/c9-5-6(4-2-7-4)1-3(6)8-5/h3-4,7H,1-2H2,(H,8,9)	InChI=1S/C6H8N2O/c9-5-6(4-2-7-4)1-3(6)8-5/h3-4,7H,1-2H2,(H,8,9)/t3-,4+,6+/m0/s1
