20
gdb 56031	3.74639	0.97506	0.83383	4.5156	75.5	-0.232	0.039	0.2709	1392.6683	0.172367	-440.333731	-440.324673	-440.323729	-440.369114	33.286	
N	 0.3296574715	 0.2236409689	-0.9163097746	-0.508466
C	-0.2632149969	 0.1395013091	 0.3078113146	 0.360834
O	-0.0880983109	 0.9572856344	 1.191712238	-0.362842
C	-1.2222771312	-1.044389955	 0.4805317256	-0.295336
C	-0.6637009452	-2.4230158247	 0.0990041401	 0.112182
C	-1.6669844451	-3.572956864	 0.3320916685	-0.243989
C	-2.2756413536	-3.7944388804	-1.0614720209	-0.222005
C	-1.0774865661	-3.5024363155	-1.9633591614	-0.065552
O	-0.3501061379	-2.4617100526	-1.3098117117	-0.278121
H	 1.0347732007	 0.9319194914	-1.0405584088	 0.251349
H	 0.2890833697	-0.5655200753	-1.5446110165	 0.269264
H	-1.5048736468	-1.0477279801	 1.5357665187	 0.125177
H	-2.1273587194	-0.851581686	-0.1094300194	 0.116
H	 0.2678838314	-2.5967595318	 0.6518663885	 0.089432
H	-1.1379605974	-4.4731092893	 0.6604736879	 0.108805
H	-2.409160236	-3.3260869904	 1.0941798516	 0.112912
H	-2.6779493783	-4.800206939	-1.2020116956	 0.108236
H	-3.0801063414	-3.0770532405	-1.2531123209	 0.113399
H	-0.4391450005	-4.3922911053	-2.0728851754	 0.097796
H	-1.3499841766	-3.1526046239	-2.9635501083	 0.110927
31.9424	48.4412	100.8604	178.0297	239.7192	327.9813	335.551	423.172	472.1164	556.3432	597.1521	605.7623	704.0581	722.715	823.7612	860.4531	869.8247	888.4672	930.695	966.3271	984.1828	997.456	1053.7003	1087.8517	1134.563	1144.6865	1192.55	1205.0885	1222.8385	1265.0448	1290.3034	1324.3271	1330.2313	1351.6163	1367.3195	1391.7862	1399.6549	1457.0587	1488.5482	1498.663	1527.8464	1616.1509	1798.2017	2990.3061	3020.841	3039.543	3054.1779	3059.0843	3081.0705	3108.0688	3115.0857	3118.5467	3556.3209	3704.4629
NC(=O)CC1CCCO1	NC(=O)C[C@H]1CCCO1	
InChI=1S/C6H11NO2/c7-6(8)4-5-2-1-3-9-5/h5H,1-4H2,(H2,7,8)	InChI=1S/C6H11NO2/c7-6(8)4-5-2-1-3-9-5/h5H,1-4H2,(H2,7,8)/t5-/m1/s1
