19
gdb 88761	3.93184	1.03651	0.91669	2.7183	75.46	-0.254	0.0799	0.3339	1304.0639	0.158147	-422.964447	-422.956033	-422.955089	-422.998155	31.548	
C	-0.0318213995	 1.485186682	-0.3029767419	-0.421761
C	-0.0160434498	 0.0120835745	 0.018785102	 0.076361
O	 1.2473918477	-0.6603256276	-0.0105804656	-0.269831
C	 0.5490818173	-0.5829985993	 1.2425249148	 0.050115
C	 1.2094458691	 0.1946639572	 2.3457317891	-0.047737
C	 0.3404432519	 0.5840551151	 3.604432206	-0.281207
C	 1.3064047861	-0.2376605605	 4.4673385442	 0.038061
O	 1.2850101299	-1.5771211533	 3.9586786335	-0.242752
C	 2.1157219948	-0.6153594704	 3.2989192199	 0.011564
H	 0.766531577	 2.0259086681	 0.2091557479	 0.125091
H	 0.0966410964	 1.6361485179	-1.3799483038	 0.130477
H	-0.9928714183	 1.9263928542	-0.0167563218	 0.121908
H	-0.816007517	-0.5550255739	-0.4633571641	 0.086245
H	 0.1300491466	-1.5341036928	 1.5739496348	 0.102649
H	 1.7376506771	 1.0629517865	 1.9476183724	 0.085317
H	 0.3666498839	 1.6568134093	 3.8076283575	 0.109837
H	-0.6950333202	 0.2344523488	 3.6152794917	 0.111944
H	 1.5785115691	-0.1095228849	 5.5082314949	 0.106448
H	 3.1683224979	-0.8531108411	 3.1998400386	 0.107273
49.9779	123.446	145.0143	185.5066	216.3442	376.2119	385.6211	414.3659	508.0877	580.0693	744.3452	778.3835	811.4855	843.2623	861.9826	887.5817	922.2716	934.9867	969.0204	989.5895	1021.1713	1021.4931	1053.2171	1101.6056	1119.41	1152.3379	1183.7177	1193.0874	1218.686	1235.8249	1240.1975	1273.5353	1290.4125	1302.7205	1384.773	1404.804	1421.4119	1469.4118	1474.4168	1489.472	1512.6317	3038.9449	3066.4081	3075.862	3094.5998	3098.9305	3108.7047	3125.5833	3134.595	3183.7849	3199.2039
CC1OC1C1CC2OC12	C[C@H]1O[C@H]1[C@H]1C[C@H]2O[C@@H]12	
InChI=1S/C7H10O2/c1-3-6(8-3)4-2-5-7(4)9-5/h3-7H,2H2,1H3	InChI=1S/C7H10O2/c1-3-6(8-3)4-2-5-7(4)9-5/h3-7H,2H2,1H3/t3-,4-,5-,6-,7+/m1/s1
