18
gdb 6194	3.79186	1.54152	1.46017	4.4288	67.17	-0.2624	0.0159	0.2783	946.6388	0.153621	-385.000006	-384.99209	-384.991146	-385.031945	30.085	
C	 0.1491774282	 1.4675698232	 0.0954676641	-0.428523
C	-0.057545856	-0.0545625306	 0.0102165563	 0.267723
C	-1.5439652832	-0.3895635318	-0.1335258871	-0.44618
C	 0.7798631111	-0.6362510771	-1.1532394151	-0.100616
O	 2.0957758596	-0.869706677	-0.6290614651	-0.219632
C	 2.0578636678	-0.979326085	 0.7298836352	 0.42635
O	 3.032508554	-1.221184986	 1.3787648422	-0.334989
C	 0.6257371083	-0.7526627807	 1.2008240769	-0.389224
H	 1.2118735769	 1.7241483734	 0.1566780109	 0.132976
H	-0.26677802	 1.9678421331	-0.7853846906	 0.117676
H	-0.347158615	 1.878021907	 0.9807422492	 0.120226
H	-1.9589944268	 0.046867734	-1.0490932126	 0.119685
H	-1.7085708958	-1.4715471665	-0.1717304979	 0.116575
H	-2.1184872614	 0.0082195507	 0.709280124	 0.124018
H	 0.3690224249	-1.5888156812	-1.5107919936	 0.107849
H	 0.8744422562	 0.0458642089	-2.0019354912	 0.120303
H	 0.6168915291	-0.1849622421	 2.1328735672	 0.134773
H	 0.1798884623	-1.7337254423	 1.4052908472	 0.131008
95.5574	177.3982	223.9821	257.2488	296.0779	327.3953	370.9013	396.1454	509.0634	545.0554	590.261	692.2167	799.1125	847.8548	910.9953	934.8664	951.4709	961.653	999.5925	1043.9524	1068.178	1132.5766	1163.0153	1210.3703	1224.048	1261.2477	1304.3164	1306.632	1390.6308	1405.21	1427.8182	1460.9774	1484.8843	1491.3205	1506.2828	1507.5838	1520.811	1886.1662	3023.3336	3027.2972	3032.6256	3046.0355	3093.486	3095.785	3101.8184	3103.0057	3105.3676	3120.4141
CC1(C)COC(=O)C1	CC1(C)COC(=O)C1	
InChI=1S/C6H10O2/c1-6(2)3-5(7)8-4-6/h3-4H2,1-2H3	InChI=1S/C6H10O2/c1-6(2)3-5(7)8-4-6/h3-4H2,1-2H3
