19
gdb 15154	8.58904	0.6805	0.66561	1.1549	81.63	-0.2337	0.0636	0.2973	1723.3493	0.163923	-327.872427	-327.862958	-327.862013	-327.90903	32.413	
C	 0.0713212898	 1.4785237741	-0.0174836327	-0.496432
C	 0.015992533	 0.0263051845	 0.0755823757	 0.083091
C	-0.0180145759	-1.1746864741	 0.1565620342	 0.043269
C	-0.0921226428	-2.6284976488	 0.2391093508	-0.349315
C	-1.4420582037	-3.1810392414	-0.2506034544	-0.130737
N	-1.4470450312	-4.6359247273	-0.1704538504	-0.056646
C	-1.9220753569	-5.2116064149	 1.0850217966	-0.221835
C	-2.7569897432	-5.274786366	-0.1458989608	-0.223549
H	 0.8826833889	 1.8060540964	-0.6771487548	 0.145963
H	-0.8632427956	 1.8884427969	-0.4166806662	 0.145133
H	 0.2388842819	 1.9361427041	 0.9639927803	 0.145218
H	 0.7064459114	-3.089397738	-0.3546131158	 0.135662
H	 0.0708733337	-2.955051753	 1.2746359611	 0.124839
H	-2.259296163	-2.7235718127	 0.334861022	 0.087753
H	-1.5937615245	-2.8943842984	-1.2968006547	 0.113169
H	-1.3881799082	-6.0891080052	 1.4379518944	 0.117334
H	-2.2471472121	-4.5284959715	 1.8689640571	 0.109808
H	-3.6375453276	-4.6347763513	-0.1803555781	 0.109991
H	-2.843648544	-6.1989332733	-0.7101980443	 0.117285
12.6396	57.1034	80.2517	111.417	216.8627	218.6005	294.222	366.7461	392.4518	428.4023	499.5811	748.1401	784.9489	795.2509	848.5711	906.7341	1009.1856	1031.4247	1050.9927	1052.7917	1060.0584	1086.9141	1113.3326	1118.4862	1167.4262	1169.5206	1179.7768	1244.5004	1304.5403	1312.6937	1324.4186	1395.7669	1415.6695	1475.6121	1479.2784	1479.8512	1489.4257	1499.5856	1523.0217	2374.3143	2945.6727	3020.2374	3024.3354	3052.4172	3071.8491	3083.7713	3084.0013	3090.5493	3095.6616	3175.2104	3189.4527
CC#CCCN1CC1	CC#CCCN1CC1	
InChI=1S/C7H11N/c1-2-3-4-5-8-6-7-8/h4-7H2,1H3	InChI=1S/C7H11N/c1-2-3-4-5-8-6-7-8/h4-7H2,1H3
