20
gdb 118438	2.29533	1.0581	0.81994	4.1044	72.	-0.2488	0.0125	0.2614	1455.3907	0.170436	-477.45216	-477.442086	-477.441141	-477.488104	35.847	
C	 0.2595736033	 1.6781672427	 0.0847566234	-0.3933
C	 0.6356473604	 0.202160106	 0.0080941857	-0.117223
N	 0.0283645932	-0.5475618329	 1.1134413068	-0.323267
H	 0.3234991856	-0.1463127637	 2.002516898	 0.237757
H	-1.7238954913	-1.1721801142	 1.436729004	 0.298843
C	 0.3427565456	-1.980558817	 1.1594090296	-0.13101
C	 1.6648080486	-2.3218465267	 1.857408369	-0.07825
O	 1.6413675158	-1.8856916002	 3.2079246217	-0.431536
C	-0.8163536735	-2.7116231811	 1.8732596625	 0.423949
O	-0.6861989588	-3.7805829392	 2.4154840815	-0.35922
O	-1.9688604923	-2.0417394727	 1.8340624231	-0.362473
H	 0.6373713171	 2.1338244321	 1.0068127704	 0.123537
H	 0.6888477696	 2.2282884568	-0.7572462543	 0.125085
H	-0.8268607274	 1.8039661963	 0.0653327612	 0.128355
H	 0.2639292309	-0.2312725976	-0.9281297291	 0.113299
H	 1.7329070481	 0.1000199061	-0.0096207904	 0.097838
H	 0.3648865164	-2.3594483251	 0.1286972622	 0.112211
H	 1.851259898	-3.3988658866	 1.7808953761	 0.122466
H	 2.4914681902	-1.7934307504	 1.3715655067	 0.110604
H	 1.0912299204	-2.5158954723	 3.6888708519	 0.302336
63.4353	71.433	99.1693	118.6372	158.0789	232.631	265.3643	296.1372	356.8573	377.9273	493.1973	510.6543	595.7289	598.5617	764.6225	796.4804	819.9213	851.9514	895.7954	941.9369	976.9111	1001.4745	1062.0911	1095.9633	1134.9091	1145.4904	1179.5176	1219.2012	1233.1538	1282.2721	1305.0563	1331.2992	1391.5711	1396.7704	1414.421	1420.0281	1442.6597	1482.168	1488.1442	1497.0626	1503.423	1521.5622	1851.322	2970.1714	3029.2668	3037.9825	3043.8862	3049.3563	3090.2629	3106.7137	3121.8244	3407.8675	3477.1276	3793.1018
CC[NH2+]C(CO)C([O-])=O	CCN[C@@H](CO)C(=O)O	
InChI=1S/C5H11NO3/c1-2-6-4(3-7)5(8)9/h4,6-7H,2-3H2,1H3,(H,8,9)	InChI=1S/C5H11NO3/c1-2-6-4(3-7)5(8)9/h4,6-7H,2-3H2,1H3,(H,8,9)/t4-/m0/s1
