20
gdb 92170	2.62224	1.93086	1.34362	2.2415	78.16	-0.1947	0.0844	0.2792	1006.257	0.171397	-403.093004	-403.085213	-403.084269	-403.124742	31.562	
C	-0.0618289543	 1.4865079299	-0.0398016039	-0.330401
N	-0.0218919925	 0.0370447375	 0.0478491763	-0.105225
C	-1.3671084466	-0.5682807924	 0.0169636408	-0.156847
C	-1.2377257687	-1.7798219713	 0.9267703139	 0.056359
O	-0.1970444493	-2.638522016	 0.3593566244	-0.305676
C	 0.7364168701	-2.0433882597	 1.2550195603	 0.060942
C	-0.3054822555	-1.3327230523	 2.0786878538	-0.230478
C	 0.6522329096	-0.5226856392	 1.2219026995	 0.34256
C	 1.7979935293	 0.2363681896	 1.8350624792	-0.505915
H	 0.9489895906	 1.8999896546	-0.078781949	 0.121322
H	-0.565542571	 1.7679309192	-0.9701497084	 0.121747
H	-0.605391379	 1.9735341657	 0.793096736	 0.088107
H	-2.1351172705	 0.1193528422	 0.414817961	 0.078635
H	-1.6501556638	-0.8556074083	-1.0011712844	 0.113216
H	-2.1555576938	-2.3280166373	 1.139959633	 0.084052
H	 1.624328083	-2.6083804849	 1.5191375344	 0.097151
H	-0.510245766	-1.274028692	 3.1398148038	 0.090894
H	 2.2554338784	-0.3576636228	 2.6321093698	 0.12257
H	 2.5725126605	 0.443711765	 1.0887859678	 0.132316
H	 1.4804463394	 1.1877401826	 2.2736035917	 0.124671
115.3281	236.8126	251.3069	276.9443	311.4586	355.0295	366.3257	396.5981	561.9517	584.7119	665.2954	704.3995	777.8713	799.953	860.4705	878.268	893.0471	916.9856	958.7081	1026.7113	1028.9896	1037.2078	1045.8464	1090.9127	1105.789	1146.851	1164.7635	1174.5196	1200.6129	1219.5088	1235.4805	1272.1152	1300.4194	1314.4319	1374.12	1408.5657	1420.1029	1458.6231	1484.8035	1486.3845	1500.4695	1506.8998	1510.5875	2914.7265	2943.2665	3032.3748	3065.3424	3066.6265	3096.4592	3104.6792	3114.0367	3116.1546	3164.8442	3189.7278
CN1CC2OC3C2C13C	CN1C[C@H]2O[C@@H]3[C@H]2[C@]13C	
InChI=1S/C7H11NO/c1-7-5-4(3-8(7)2)9-6(5)7/h4-6H,3H2,1-2H3	InChI=1S/C7H11NO/c1-7-5-4(3-8(7)2)9-6(5)7/h4-6H,3H2,1-2H3/t4-,5+,6-,7+/m1/s1
