23
gdb 95802	2.34277	1.46955	1.08455	1.7074	81.63	-0.246	0.0764	0.3224	1228.3661	0.206335	-425.448006	-425.438663	-425.437719	-425.481315	36.71	
C	-0.0540404358	 1.5750227866	 0.0033499159	-0.40717
C	 0.036077535	 0.0480468559	 0.0138152499	 0.015175
C	 0.7134543177	-0.5067083288	-1.2529014097	-0.216705
C	 0.9157754628	-2.0198103639	-1.1528140558	-0.084757
O	 1.5932981825	-2.3861330495	 0.0441851102	-0.271549
C	 0.8580467602	-2.0134860199	 1.21253806	 0.092854
C	 1.5551572874	-2.6336745621	 2.4133767055	-0.404342
C	 0.7866280973	-0.4764570387	 1.2592128035	 0.13537
O	 2.0994868234	 0.0666388503	 1.3500413578	-0.446493
H	 0.9465029763	 2.0149316729	 0.0362847729	 0.131927
H	-0.5625413881	 1.9351598001	-0.8971410316	 0.104722
H	-0.6089822504	 1.943222766	 0.8731692569	 0.108214
H	-0.982671313	-0.3652045109	 0.063316347	 0.06486
H	 0.1173255495	-0.2711655939	-2.1422039286	 0.095698
H	 1.6870388401	-0.0186213243	-1.3877380693	 0.102516
H	-0.0589525784	-2.5348700295	-1.1940118342	 0.087971
H	 1.5286175436	-2.3964575106	-1.9770530196	 0.106676
H	-0.1676339684	-2.412698909	 1.1332439679	 0.062673
H	 2.549603116	-2.2013584667	 2.5461929804	 0.129241
H	 0.9774796963	-2.4467400161	 3.3236872645	 0.115147
H	 1.6536143951	-3.7134371619	 2.276089039	 0.12072
H	 0.2609614752	-0.1559106793	 2.1670451648	 0.072808
H	 2.6471166657	-0.4669318867	 0.7598661126	 0.284446
126.4721	163.9835	205.1533	216.6704	230.9033	277.6061	289.1731	330.8831	356.5039	423.1616	453.109	461.5375	579.9441	597.8904	711.042	786.3171	829.1614	867.4848	922.331	960.0001	972.3507	991.0864	1001.482	1022.4607	1078.1883	1100.9354	1109.5963	1148.6298	1173.4094	1199.2592	1217.9843	1264.4751	1285.8945	1300.5426	1333.842	1350.1272	1374.431	1376.6869	1395.2805	1406.8622	1409.6823	1415.7636	1432.6299	1482.3377	1486.5561	1493.5441	1495.6927	1501.1952	1505.1239	2956.0052	2965.4047	2992.8104	3027.0565	3032.7991	3038.9099	3050.0714	3069.5702	3083.7582	3095.6812	3117.9921	3121.4918	3134.2764	3769.4527
CC1CCOC(C)C1O	C[C@H]1CCO[C@@H](C)[C@H]1O	
InChI=1S/C7H14O2/c1-5-3-4-9-6(2)7(5)8/h5-8H,3-4H2,1-2H3	InChI=1S/C7H14O2/c1-5-3-4-9-6(2)7(5)8/h5-8H,3-4H2,1-2H3/t5-,6-,7-/m0/s1
