19
gdb 112035	2.47207	1.44036	1.20407	1.6655	85.41	-0.2157	-0.0424	0.1733	1116.7025	0.161384	-385.900616	-385.892445	-385.891501	-385.933268	31.847	
O	-0.0207033159	 1.5565309824	 0.2190982841	-0.422729
C	 0.028231407	 0.1423018657	 0.2832502479	-0.071379
C	-1.3622787459	-0.4969505659	 0.0514547791	-0.098589
C	-1.9795270277	-0.0682175893	-1.2638681385	-0.122544
C	-1.5114661304	-0.3935563924	-2.4861422927	-0.061563
C	-0.4775056132	-1.3508795268	-2.8011659776	-0.1011
C	-0.1229185271	-2.419954233	-2.04345295	-0.09699
C	-0.7005631762	-2.8014038671	-0.7763173097	-0.053292
C	-1.3219742348	-2.0039105843	 0.1157438825	-0.109255
H	-0.2719973415	 1.785602949	-0.6823330497	 0.280806
H	 0.7535989654	-0.2695420243	-0.4298280709	 0.102714
H	 0.3725680902	-0.1090869515	 1.291465845	 0.10642
H	-2.0044198342	-0.1274994704	 0.8570014667	 0.08238
H	-2.8562838789	 0.5720952905	-1.2062648703	 0.098626
H	-1.987225487	 0.0770217461	-3.3451421596	 0.093274
H	-0.0282556516	-1.2643578945	-3.7875568209	 0.091832
H	 0.589629288	-3.1208251072	-2.4720168274	 0.092497
H	-0.6475298087	-3.8633396227	-0.5432194927	 0.092639
H	-1.8005671574	-2.4717977044	 0.9725632448	 0.096252
83.3642	145.633	181.0349	276.9318	319.2667	352.8425	384.5425	413.8367	489.3749	494.3294	645.0617	716.9697	783.4551	794.3169	800.9012	853.1256	908.9826	937.3835	958.	982.3868	994.9364	1007.7149	1011.9935	1067.1016	1078.4206	1097.2204	1197.5124	1242.6948	1248.034	1256.0332	1316.924	1370.7072	1387.983	1393.1922	1413.0347	1438.6424	1476.5232	1503.1773	1593.4189	1670.5644	1678.5943	3025.6441	3054.6247	3085.5306	3131.0702	3134.8623	3147.08	3160.4246	3161.6736	3169.9427	3802.2756
OCC1C=CC=CC=C1	OC[C@H]1C=CC=CC=C1	
InChI=1S/C8H10O/c9-7-8-5-3-1-2-4-6-8/h1-6,8-9H,7H2	InChI=1S/C8H10O/c9-7-8-5-3-1-2-4-6-8/h1-6,8-9H,7H2
