13
gdb 127523	3.26528	1.32652	0.94896	1.9073	68.64	-0.2567	-0.0604	0.1963	1132.2893	0.090742	-448.965603	-448.957736	-448.956791	-448.998344	27.869	
C	-0.0125891316	 1.4163448817	-0.0182284756	-0.33634
N	 0.030597312	-0.032275321	 0.0077319286	-0.019068
N	 0.1688875144	-0.7379056982	-1.1365949012	-0.294094
C	 0.1636950607	-1.9914034484	-0.694278818	 0.424751
O	 0.2816389184	-3.0172996975	-1.5379469997	-0.405441
N	 0.0331518082	-2.1442854694	 0.6418342422	-0.399002
C	-0.0488200539	-0.8820813555	 1.0568664446	 0.283286
C	-0.198667899	-0.4434958577	 2.3987453364	 0.256529
N	-0.3207917329	-0.0477087553	 3.4793560456	-0.33742
H	 0.914147796	 1.8033981873	-0.4474669116	 0.167244
H	-0.8567806601	 1.7473938916	-0.6270440408	 0.167245
H	-0.127688009	 1.7808405274	 1.003002764	 0.172926
H	 0.2534335468	-3.8247449049	-1.0097125044	 0.319383
101.6791	147.7752	148.29	186.0752	303.2106	356.1716	416.1802	444.3242	508.1137	568.2143	609.5723	670.4545	713.1461	769.0586	842.1158	1050.3531	1092.8024	1153.8593	1182.0089	1224.8946	1325.9742	1416.2211	1452.1319	1473.7031	1479.5067	1510.6169	1542.2148	1616.4308	2353.9298	3062.1455	3136.1247	3163.7312	3810.0839
CN1N=C(O)N=C1C#N	Cn1nc(O)nc1C#N	
InChI=1S/C4H4N4O/c1-8-3(2-5)6-4(9)7-8/h1H3,(H,7,9)	InChI=1S/C4H4N4O/c1-8-3(2-5)6-4(9)7-8/h1H3,(H,7,9)
