20
gdb 117230	3.88504	0.84433	0.74455	1.8068	77.19	-0.2525	0.0238	0.2763	1570.6378	0.169445	-440.272456	-440.262462	-440.261518	-440.308821	35.905	
C	-0.2526061092	 1.3376863719	-0.6383579393	-0.389232
C	-0.0198134678	-0.0546317697	-0.0823645794	-0.028075
O	-1.2968977112	-0.708616845	-0.0073955961	-0.245946
C	-1.3107772658	-1.9543037304	 0.5062128724	 0.372768
N	-0.2392166836	-2.5340763465	 0.875156072	-0.545159
C	-2.7101315986	-2.4794879654	 0.5664379678	-0.148858
C	-3.3640999137	-3.0040395384	-0.7110289135	-0.328427
C	-3.0007226814	-3.9505957649	 0.3939383212	 0.128617
O	-1.9930243853	-4.9113301204	 0.2553603274	-0.419843
H	 0.6991108736	 1.8721342443	-0.7137793231	 0.119808
H	-0.701729406	 1.2914245352	-1.6347065911	 0.125567
H	-0.9195747526	 1.9114255673	 0.0115179208	 0.126379
H	 0.6479932913	-0.6448754409	-0.7189811066	 0.115289
H	 0.4293777356	-0.0312993625	 0.9160124055	 0.119863
H	-0.4591902105	-3.4519794549	 1.2570293128	 0.237158
H	-3.3549687261	-1.9191483767	 1.2374595477	 0.113014
H	-4.4057374848	-2.7711521549	-0.9021391949	 0.12248
H	-2.7418507647	-3.0186966262	-1.6014303844	 0.120913
H	-3.8036219058	-4.3638813897	 0.9949216139	 0.115227
H	-1.3575750036	-4.6020228423	-0.3989930133	 0.288457
19.1918	80.8626	118.4306	130.0705	215.0751	237.0814	264.9988	286.7105	353.5918	400.4982	419.8387	510.9407	666.2086	727.5861	783.6202	806.3066	809.6839	866.4723	885.4796	929.0594	994.5062	1018.0794	1044.8738	1055.9672	1087.1954	1123.5324	1131.1239	1140.5227	1145.9487	1183.1244	1224.9252	1288.947	1309.5911	1340.3621	1379.4899	1411.5422	1440.1395	1449.5523	1485.5363	1488.5114	1496.3728	1521.2271	1703.0175	3044.5732	3045.9882	3081.403	3118.8345	3122.528	3125.2321	3147.7248	3173.2883	3213.6525	3512.0415	3816.8274
CCOC(=N)C1CC1O	CCO[C]([NH])[C@H]1C[C@H]1O	
InChI=1S/C6H11NO2/c1-2-9-6(7)4-3-5(4)8/h4-5,7-8H,2-3H2,1H3	InChI=1S/C6H11NO2/c1-2-9-6(7)4-3-5(4)8/h4-5,7-8H,2-3H2,1H3/t4-,5+/m0/s1
