21
gdb 111109	2.95737	1.22703	1.11434	1.988	78.58	-0.2414	0.0784	0.3198	1205.7468	0.183402	-424.199076	-424.19053	-424.189585	-424.232117	33.226	
C	-0.0015489424	 1.318841903	-0.2242779093	-0.242351
O	-0.0882779673	 0.036690745	 0.3550333153	-0.261273
C	-1.3500763948	-0.5603685751	 0.1941160444	 0.183514
C	-1.5963008916	-1.280003036	-1.1761516933	-0.065785
C	-0.6922095835	-2.4194716449	-0.617061009	-0.240716
C	-1.3554419445	-2.0151975107	 0.733771909	-0.064528
C	-2.8151153365	-2.4205199222	 0.5033093074	 0.128733
O	-3.6418911399	-1.8034013319	 1.4774972782	-0.442024
C	-3.0031565219	-1.8612453986	-0.9541216301	-0.26509
H	 0.9921526857	 1.7116856307	 0.0045200001	 0.125321
H	-0.1280795531	 1.2923512297	-1.3168677336	 0.104835
H	-0.7582415076	 2.0020680215	 0.1920672769	 0.10521
H	-2.1422629128	 0.1099014193	 0.5538186201	 0.069717
H	-1.3955183109	-0.7919059722	-2.1305877427	 0.058318
H	-0.8607086345	-3.4347670764	-0.9893921117	 0.082815
H	 0.3668672958	-2.1698427481	-0.6429931871	 0.117417
H	-0.9201336554	-2.2584108673	 1.7021740128	 0.070649
H	-2.9340760471	-3.5123243301	 0.5401973224	 0.064408
H	-4.5561057778	-2.0282236263	 1.2794402903	 0.281009
H	-3.7895894781	-1.0995596929	-0.971003627	 0.09456
H	-3.2556312318	-2.6386832163	-1.6813166333	 0.095261
89.4017	156.2986	182.0578	198.8026	269.3625	283.2325	367.2195	424.9668	445.7914	482.5206	545.8942	664.27	818.7137	833.1284	858.7523	891.1829	917.5893	955.4979	970.1654	999.0545	1006.8032	1030.7404	1049.1957	1081.0352	1095.8552	1134.4259	1153.3768	1182.354	1183.5476	1199.8443	1225.7144	1240.1715	1252.7838	1261.4906	1271.6818	1295.7467	1318.1298	1344.0241	1403.3723	1426.1479	1479.1339	1483.6376	1486.2579	1500.5434	1510.7521	2975.9614	2996.6772	3017.1263	3023.8066	3044.3488	3056.5752	3092.487	3106.583	3113.4697	3129.7315	3154.7648	3821.8669
COC1C2CC1C(O)C2	CO[C@H]1[C@H]2C[C@@H]1[C@@H](O)C2	
InChI=1S/C7H12O2/c1-9-7-4-2-5(7)6(8)3-4/h4-8H,2-3H2,1H3	InChI=1S/C7H12O2/c1-9-7-4-2-5(7)6(8)3-4/h4-8H,2-3H2,1H3/t4-,5+,6-,7-/m0/s1
