19
gdb 5614	3.03373	1.78509	1.23151	1.6509	78.25	-0.1952	0.054	0.2491	1032.0686	0.166172	-327.976159	-327.967592	-327.966648	-328.009275	31.728	
C	-0.0052184624	 1.5710174276	 0.0795089709	-0.36373
C	-0.0350266299	 0.0365914995	-0.0378504488	-0.298111
C	 0.689140662	-0.4920345921	-1.2437140561	 0.197597
C	 0.1106345061	-0.8968106688	-2.4262585571	-0.173782
N	 1.1077491349	-1.2900420691	-3.2818987736	-0.244089
C	 2.3234923544	-1.1472037512	-2.6618298521	-0.16597
C	 2.107318246	-0.6531157947	-1.395399208	 0.195068
C	 3.1617350891	-0.3564676211	-0.3711673018	-0.509636
H	 1.0215367038	 1.94494713	 0.1436372786	 0.118238
H	-0.470078305	 2.0354215779	-0.7959100853	 0.114133
H	-0.542341528	 1.9094152415	 0.9721659439	 0.103611
H	 0.3956909928	-0.3976873533	 0.8738755511	 0.096513
H	-1.0787478773	-0.2983892811	-0.0669033912	 0.094318
H	-0.9266303058	-0.9409428937	-2.7200974183	 0.11007
H	 0.9688782044	-1.643679148	-4.2112229205	 0.257258
H	 3.2409337792	-1.4127832233	-3.1636194481	 0.109858
H	 3.2302413366	 0.713965595	-0.1412705152	 0.122494
H	 2.9647933229	-0.8709748867	 0.5772877737	 0.120869
H	 4.1479183561	-0.6784198687	-0.719129682	 0.115291
59.4443	130.8647	156.2975	194.3683	253.148	267.6954	389.4464	400.175	443.8776	607.4642	639.1341	668.1194	689.6168	727.7606	760.3674	786.8828	907.5563	963.2413	1002.1208	1054.2505	1061.1914	1084.6802	1092.0903	1125.6821	1206.0823	1251.0457	1291.1306	1327.6319	1364.2381	1400.2264	1406.2228	1420.8603	1473.0084	1480.2978	1485.0329	1496.2028	1500.2006	1506.0847	1560.0801	1621.8019	3016.3375	3018.8447	3031.2606	3052.0142	3063.0741	3098.9241	3100.0668	3107.3686	3250.9222	3254.0011	3692.5133
CCC1=CNC=C1C	CCc1c[nH]cc1C	
InChI=1S/C7H11N/c1-3-7-5-8-4-6(7)2/h4-5,8H,3H2,1-2H3	InChI=1S/C7H11N/c1-3-7-5-8-4-6(7)2/h4-5,8H,3H2,1-2H3
