20
gdb 92160	2.21043	2.04357	1.52287	2.0255	77.47	-0.2283	0.0672	0.2955	977.4662	0.172425	-403.121299	-403.113424	-403.112479	-403.153066	31.833	
C	-0.0161102636	 1.4327282222	 0.0207589934	-0.502298
C	 0.0353301385	-0.0737448556	 0.0269542419	 0.369673
C	 0.720213262	-0.762974816	-1.0996254195	-0.059295
C	 0.8117430359	-2.2695368846	-0.9258351631	-0.254599
C	-0.6713209483	-2.1932375798	-0.474446053	 0.003724
C	-0.825026325	-2.0841527982	 1.0364431627	-0.236589
C	-0.0328350538	-0.795512473	 1.3705578391	 0.019508
O	 1.2945912202	-1.0237471381	 1.8381352566	-0.433526
N	-0.7941356514	-0.7586087585	-0.9991344301	-0.198357
H	 0.8439534507	 1.8444700388	 0.5594080768	 0.127047
H	-0.0029930426	 1.8209057055	-1.0010171608	 0.125983
H	-0.9295889413	 1.7938870763	 0.5057332015	 0.117923
H	 1.2352319947	-0.185094047	-1.8626192864	 0.083965
H	 0.9153997787	-2.7743546075	-1.8890080783	 0.104138
H	 1.5478138937	-2.6598607637	-0.2196738468	 0.10965
H	-1.3667998033	-2.876333657	-0.9618688049	 0.075276
H	-1.8813110156	-1.9556314173	 1.2975774061	 0.104064
H	-0.4394556265	-2.9545153494	 1.5772395104	 0.094654
H	-0.5772897877	-0.1762818358	 2.097334015	 0.066015
H	 1.2380220445	-1.3601075713	 2.7380697195	 0.283043
137.4844	197.9793	245.9858	280.3832	297.1555	313.4987	372.1486	423.7497	537.0622	579.3366	664.2162	707.0782	785.0133	830.3295	843.8339	861.0163	883.8112	927.8796	976.4207	995.9668	1016.1701	1040.914	1056.0465	1059.3984	1098.025	1111.2379	1149.3696	1178.3886	1200.3027	1233.3647	1264.9316	1276.1193	1279.6557	1311.5348	1351.7425	1363.9185	1408.786	1414.3913	1441.3674	1469.7908	1488.3889	1490.6034	1496.8557	2993.8004	3033.3027	3040.9735	3064.3777	3089.4776	3097.3721	3108.3752	3117.8734	3120.546	3141.9755	3816.1641
CC12C3CC(CC1O)N23	C[C@@]12[C@H]3C[C@@H](C[C@H]1O)N23	
InChI=1S/C7H11NO/c1-7-5-2-4(8(5)7)3-6(7)9/h4-6,9H,2-3H2,1H3	InChI=1S/C7H11NO/c1-7-5-2-4(8(5)7)3-6(7)9/h4-6,9H,2-3H2,1H3/t4-,5+,6+,7+,8?/m0/s1
