24
gdb 102503	1.86973	1.21711	0.82573	4.0437	89.44	-0.3075	0.0366	0.3441	1499.1704	0.216124	-368.444357	-368.433209	-368.432265	-368.480803	40.456	
C	-0.0047457937	-0.8070714104	 0.9339804107	-0.384469
C	-0.184788519	-0.0700449959	-0.3991698287	-0.212103
C	 0.8536408152	-0.3904743223	-1.4969248241	 0.034795
C	 2.2902886559	 0.0240335427	-1.1145758889	-0.192514
C	 2.4667132549	 1.5177565832	-0.8234856801	-0.396258
C	 0.8112008785	-1.88948062	-1.9259929005	-0.141309
C	-0.5906664122	-2.3952646408	-2.3271666959	-0.408901
C	 1.735502802	-2.1268085649	-3.041871801	 0.278939
N	 2.4445850574	-2.3154594106	-3.9355318721	-0.338758
H	-0.0856131595	-1.8934742752	 0.8214927989	 0.116681
H	 0.9659206318	-0.5944090896	 1.3918310617	 0.124716
H	-0.7762967804	-0.4986892493	 1.645873435	 0.119248
H	-1.1900698596	-0.2654850257	-0.7870517825	 0.101148
H	-0.1538678549	 1.0091295286	-0.2158773576	 0.105725
H	 0.5678870917	 0.1938853902	-2.3830281934	 0.084918
H	 2.6232505995	-0.5610022921	-0.2474447779	 0.097437
H	 2.9589291855	-0.2534402553	-1.9363796505	 0.127576
H	 2.1091132965	 2.1289960611	-1.6596845357	 0.118318
H	 1.9282834199	 1.8343690114	 0.074976341	 0.118404
H	 3.5236828719	 1.7551610146	-0.6698288066	 0.118645
H	 1.1736968728	-2.4991146143	-1.0880804924	 0.124365
H	-1.0217584974	-1.763261952	-3.1092953754	 0.135512
H	-0.534446324	-3.4168367053	-2.7107797338	 0.137365
H	-1.2640607428	-2.3924313281	-1.4679622604	 0.13052
61.2952	66.6111	110.8488	149.629	195.6222	207.7769	234.4473	243.8992	275.5529	290.6484	343.5414	380.1624	420.7577	517.0016	563.3522	588.5737	746.7755	776.2298	835.7011	848.5422	915.9457	926.6023	1012.7382	1020.11	1025.8835	1048.9226	1077.6636	1114.1299	1133.3613	1172.7094	1190.2277	1266.2686	1286.9939	1304.7791	1334.9205	1348.8202	1367.6484	1386.7342	1396.486	1412.7533	1414.9522	1419.3825	1485.136	1490.293	1495.2494	1500.4042	1503.2401	1505.3727	1511.4009	1519.4917	2351.3535	3003.2326	3027.0659	3033.5087	3035.0756	3041.4931	3047.3927	3052.8499	3069.7869	3072.5412	3101.7364	3103.0242	3108.5547	3113.5702	3123.9763	3136.563
CCC(CC)C(C)C#N	CCC(CC)[C@@H](C)C#N	
InChI=1S/C8H15N/c1-4-8(5-2)7(3)6-9/h7-8H,4-5H2,1-3H3	InChI=1S/C8H15N/c1-4-8(5-2)7(3)6-9/h7-8H,4-5H2,1-3H3/t7-/m0/s1
