20
gdb 68763	2.38727	1.70669	1.19824	3.4115	79.35	-0.2248	-0.0117	0.2131	1098.7233	0.170411	-403.172933	-403.163967	-403.163023	-403.206145	34.314	
C	-0.1238529709	 1.513831357	-0.0163685247	-0.490427
C	 0.0878772442	 0.0231147606	-0.0051285161	 0.279579
C	 0.3155830765	-0.6923373194	-1.3390007452	-0.257618
C	 0.857885571	-2.0870867264	-0.9647382932	-0.338414
C	 1.474504661	-1.906931979	 0.4246392239	 0.406519
O	 2.3810501055	-2.5446667733	 0.9000978745	-0.327132
C	 0.8115031946	-0.7202290279	 1.0780292427	 0.156586
C	 1.4204207459	-0.1541278822	 2.3291052244	-0.499186
N	-0.6794248219	-0.8346291646	 0.9140567426	-0.405534
H	 0.7032690922	 2.0253025251	-0.5201320668	 0.128255
H	-1.0450695459	 1.7642326346	-0.5554174182	 0.130283
H	-0.2081902923	 1.9229133732	 0.9949384015	 0.118847
H	-0.6061287768	-0.7368371951	-1.9276535375	 0.107173
H	 1.0569839844	-0.136000134	-1.9240292857	 0.10445
H	 0.0455577662	-2.8158751181	-0.8789331521	 0.145389
H	 1.5957465865	-2.4862880838	-1.6625193033	 0.122664
H	 2.4735050961	 0.0955876046	 2.1686265445	 0.137176
H	 0.8996130925	 0.7477492139	 2.6633614985	 0.111714
H	 1.3828664789	-0.8927590877	 3.1359984161	 0.142395
H	-1.0993926677	-0.2487725375	 1.6355725341	 0.227281
98.5825	141.8981	179.8205	192.7133	240.2878	263.027	311.8655	390.1812	455.7594	486.5164	508.003	564.5395	657.0192	670.0102	681.1416	808.0056	828.5582	879.9501	942.037	993.5746	999.9842	1020.5837	1062.5372	1077.4558	1104.4593	1110.818	1150.5338	1185.7677	1238.0308	1284.3776	1290.6973	1343.426	1375.167	1413.9725	1418.6236	1430.4465	1448.8057	1475.0209	1488.0552	1488.7585	1491.378	1506.9871	1836.0027	3028.0868	3039.5846	3041.4677	3064.5625	3083.9335	3090.0415	3105.5132	3107.6083	3115.6	3126.3914	3463.8304
CC12CCC(=O)C1(C)N2	C[C@@]12CCC(=O)[C@]1(C)N2	
InChI=1S/C7H11NO/c1-6-4-3-5(9)7(6,2)8-6/h8H,3-4H2,1-2H3	InChI=1S/C7H11NO/c1-6-4-3-5(9)7(6,2)8-6/h8H,3-4H2,1-2H3/t6-,7+/m1/s1
