16
gdb 45316	2.82933	1.73242	1.35961	3.2455	70.24	-0.2374	0.0113	0.2487	954.2516	0.126961	-434.060924	-434.053606	-434.052662	-434.093113	27.748	
N	 0.08639572	 0.8979521318	 0.8195288493	-0.542914
C	 0.051738052	-0.1470011842	 0.1124973699	 0.362594
N	 0.9193527533	-0.8817325683	-0.6815461983	-0.333823
C	 0.0019223974	-2.0152797559	-0.8880099893	-0.017315
C	 0.3219265461	-3.3082948383	-0.1330040423	-0.179844
N	-0.0160636253	-3.3238105517	 1.2868193427	-0.258286
C	-0.9683758658	-2.5962945238	 1.6816506692	 0.132651
O	-1.7049409209	-1.6980387083	 0.9716990769	-0.222127
C	-1.0856513987	-1.1465648123	-0.1747789323	 0.025235
H	 1.0188626014	 1.3148342826	 0.840833401	 0.212275
H	 1.9290063548	-0.8984280193	-0.6585983316	 0.244211
H	-0.1814787273	-2.2208431691	-1.9478621249	 0.089533
H	-0.2257758402	-4.1318861186	-0.611783434	 0.124892
H	 1.3854083479	-3.5514301169	-0.2413883781	 0.110548
H	-1.3287593305	-2.648825246	 2.7067754525	 0.132003
H	-1.8837132542	-0.7661047117	-0.8112802606	 0.120365
74.5875	100.6179	237.1861	330.1393	350.3128	433.5681	493.6909	514.3162	599.0481	677.8889	758.4148	796.8735	838.7548	865.5008	900.4095	930.2321	973.6124	1002.3706	1044.8883	1051.8836	1070.6168	1111.2582	1177.6729	1195.6896	1233.4569	1271.5034	1314.2495	1346.8518	1358.147	1374.1671	1396.8632	1413.7521	1480.1918	1738.9537	1804.7462	3013.158	3047.671	3052.2332	3127.2879	3167.6067	3460.0776	3598.9663
N=C1NC2CN=COC12	[NH][C]1N[C@H]2CN=CO[C@@H]12	
InChI=1S/C5H7N3O/c6-5-4-3(8-5)1-7-2-9-4/h2-4H,1H2,(H2,6,8)	InChI=1S/C5H7N3O/c6-5-4-3(8-5)1-7-2-9-4/h2-4H,1H2,(H2,6,8)/t3-,4+/m0/s1
