12
gdb 23782	6.01519	1.57793	1.2598	3.8137	58.51	-0.2505	-0.0834	0.1672	877.7207	0.083636	-418.825333	-418.818752	-418.817808	-418.85673	23.33	
C	-0.0224548976	 1.4919535288	 0.0298135601	-0.483532
C	 0.0004527784	-0.0088745169	-0.0120367371	 0.337946
C	 0.0710961586	-0.7352996013	-1.2113628286	-0.04001
N	 0.089665269	-2.0583459936	-1.2199776697	-0.276852
C	 0.0358921371	-2.5995847966	-0.0106966181	 0.390034
F	 0.0519242296	-3.9136899193	 0.0344613884	-0.045269
N	-0.0314521803	-1.9911543955	 1.1596365834	-0.241949
N	-0.0493148416	-0.6603427331	 1.151360248	-0.22278
H	 0.8775189575	 1.914364895	-0.4295217421	 0.143841
H	-0.8849250528	 1.8898049337	-0.5154054408	 0.143904
H	-0.0777272639	 1.8250111792	 1.0670657697	 0.158247
H	 0.112916056	-0.2322079204	-2.1752264433	 0.136421
63.853	119.5374	310.5961	347.2048	415.3444	484.094	524.3979	562.5297	663.7639	778.5862	826.0215	897.9104	970.3324	997.3984	1070.6909	1077.716	1148.6707	1263.8423	1354.1007	1368.5992	1411.5352	1466.776	1484.4846	1484.5806	1566.9092	1609.1464	3041.5192	3097.6477	3148.8574	3155.1358
CC1=CN=C(F)N=N1	Cc1cnc(F)nn1	
InChI=1S/C4H4FN3/c1-3-2-6-4(5)8-7-3/h2H,1H3	InChI=1S/C4H4FN3/c1-3-2-6-4(5)8-7-3/h2H,1H3
