20
gdb 118654	1.82818	0.9681	0.66352	3.0275	77.13	-0.2746	0.0161	0.2907	1691.1055	0.168337	-440.286022	-440.27514	-440.274195	-440.323209	37.26	
C	-0.0351442802	 1.5075678126	-0.0080191103	-0.387076
C	-0.0197041202	 0.0045454012	-0.2176805835	-0.052948
O	-1.276710432	-0.515257047	 0.2091671762	-0.244502
C	-1.4001907325	-1.9141237095	 0.1066545122	-0.027114
C	-2.686441287	-2.339233219	 0.8242226653	-0.220948
C	-2.6491546487	-2.0185642284	 2.3224046126	-0.074135
O	-3.808698097	-2.481910706	 2.991535532	-0.414661
C	-1.4209704903	-2.3506063249	-1.3102589665	 0.273928
N	-1.4367894308	-2.6820735916	-2.417212854	-0.324662
H	 0.9187656663	 1.9402742597	-0.3228307836	 0.124237
H	-0.8349876843	 1.9682680541	-0.5940438495	 0.134853
H	-0.1955733725	 1.7500074119	 1.0462550998	 0.128326
H	 0.1465369231	-0.2407433035	-1.2764942434	 0.119007
H	 0.7894570029	-0.4658784053	 0.3635409549	 0.095248
H	-0.5350453164	-2.4094337726	 0.5806937445	 0.112607
H	-3.5298948226	-1.8250227951	 0.3488799599	 0.118334
H	-2.8369008333	-3.4143935212	 0.6872524765	 0.129939
H	-1.8068338718	-2.5398961588	 2.7920910113	 0.111571
H	-2.4921257982	-0.9424291955	 2.4697214696	 0.112536
H	-4.5523718443	-1.9416977812	 2.706177946	 0.285461
63.4957	78.69	85.939	93.1662	122.3628	181.4107	230.4228	257.8357	294.4333	307.943	347.5424	403.4458	454.668	588.4004	620.6588	777.5341	823.5858	871.0709	923.5801	974.0241	1036.3501	1067.9687	1076.4497	1100.2954	1133.1966	1147.0203	1187.4962	1202.428	1281.0526	1301.085	1312.2636	1350.8116	1362.3855	1403.5337	1404.3265	1421.2504	1436.5941	1475.094	1483.769	1499.6049	1514.6066	1527.075	2352.0426	2958.8646	2978.2485	3021.6707	3023.3237	3045.7958	3048.1045	3066.3794	3103.8771	3123.3739	3126.1325	3818.7337
CCOC(CCO)C#N	CCO[C@@H](CCO)C#N	
InChI=1S/C6H11NO2/c1-2-9-6(5-7)3-4-8/h6,8H,2-4H2,1H3	InChI=1S/C6H11NO2/c1-2-9-6(5-7)3-4-8/h6,8H,2-4H2,1H3/t6-/m0/s1
