22
gdb 98269	2.47822	1.06717	0.9001	3.4764	79.7	-0.2318	0.042	0.2738	1425.9045	0.192188	-441.526311	-441.515104	-441.514159	-441.56301	39.794	
C	-0.7969968773	 1.4568297643	 0.4698514324	-0.333808
N	-1.1149733516	 0.0450798997	 0.5331372762	-0.303867
C	-0.783831889	-0.8212263103	-0.4623055752	 0.367748
O	-0.1905769459	-0.4922656998	-1.4776307306	-0.392948
C	-1.1619607812	-2.2929488212	-0.2149704157	-0.067246
C	 0.0049671637	-2.9915682408	 0.5087343803	-0.424349
C	-2.531256503	-2.4928925151	 0.475315356	 0.089829
C	-3.0531500364	-3.9258538853	 0.3809879195	-0.410513
O	-2.5264709913	-2.0475405947	 1.8422736286	-0.429899
H	-0.1452842065	 1.7569948298	 1.2987134395	 0.119378
H	-0.2785671133	 1.6354467131	-0.4728829971	 0.166049
H	-1.7032019189	 2.072587785	 0.5028371531	 0.121615
H	-1.6079895218	-0.3298836788	 1.3324626538	 0.257998
H	-1.2403701978	-2.7176465306	-1.2207654468	 0.102733
H	 0.9319478331	-2.8254689769	-0.0454320328	 0.147326
H	 0.1501703893	-2.5899441772	 1.5175138	 0.11229
H	-0.1503411846	-4.0720416657	 0.5844855307	 0.117153
H	-3.2536792556	-1.8280551695	-0.0112667501	 0.102963
H	-2.3791266185	-4.634164396	 0.8760735388	 0.114855
H	-4.0323539017	-3.9978556127	 0.8618245363	 0.128417
H	-3.1552620678	-4.2370069103	-0.6630598568	 0.127393
H	-1.9939545538	-2.6674695169	 2.3529184798	 0.286882
53.9638	78.0785	88.0908	125.5264	181.4385	223.2484	231.1023	265.3156	275.0353	287.998	332.6038	344.9467	383.1292	473.769	619.8066	665.8091	695.5101	767.8412	797.1731	871.7273	919.7601	972.0601	999.4531	1041.8263	1072.1054	1098.9843	1133.9386	1151.5296	1162.7657	1180.9412	1279.9381	1288.1413	1305.5679	1345.7201	1369.2785	1399.1775	1406.97	1427.0299	1436.9879	1489.1926	1494.0857	1496.8364	1499.6922	1501.9739	1511.6065	1586.7326	1769.8307	3023.1195	3032.3693	3038.146	3050.7857	3064.6771	3071.7552	3102.0011	3105.7341	3121.2848	3122.6849	3151.4857	3568.2986	3804.1179
CNC(=O)C(C)C(C)O	CNC(=O)[C@@H](C)[C@@H](C)O	
InChI=1S/C6H13NO2/c1-4(5(2)8)6(9)7-3/h4-5,8H,1-3H3,(H,7,9)	InChI=1S/C6H13NO2/c1-4(5(2)8)6(9)7-3/h4-5,8H,1-3H3,(H,7,9)/t4-,5+/m0/s1
