21
gdb 39896	2.57961	1.75159	1.55272	1.6052	81.09	-0.2337	0.0845	0.3181	990.2163	0.185705	-387.087949	-387.08064	-387.079696	-387.119295	30.355	
C	-0.0167317569	 1.4792162262	 0.0116239764	-0.361033
C	 1.2926000508	 0.708983108	-0.0118644208	-0.359684
C	-0.0131787185	-0.0162236594	 0.0102700611	 0.452818
C	-0.5245177555	-0.9273830468	 1.1244336792	-0.137244
C	-2.0380633773	-0.9822169103	 0.7980130581	-0.213968
C	-2.0515151686	-0.9794404147	-0.7684487303	-0.213453
C	-0.5467649893	-0.9099705137	-1.0960226583	 0.026772
O	 0.032785329	-2.1886172916	-0.7818286269	-0.28614
C	 0.1076082137	-2.2506759293	 0.6571117738	-0.069584
H	-0.2876892623	 1.9955084556	 0.9273748519	 0.11088
H	-0.3163908129	 1.998829638	-0.8934155213	 0.112162
H	 1.8681516264	 0.7094561415	-0.9319497428	 0.115961
H	 1.897859773	 0.711913112	 0.8894043311	 0.110668
H	-0.2762193273	-0.6474846994	 2.1493894218	 0.063082
H	-2.5175197377	-1.8687121289	 1.2229742077	 0.096615
H	-2.5509737352	-0.1043834398	 1.2003704115	 0.097403
H	-2.4931184317	-1.8839220813	-1.1926861097	 0.104995
H	-2.5904068391	-0.1154157635	-1.1690436089	 0.094925
H	-0.2887157638	-0.6578730662	-2.1257103429	 0.06897
H	 1.1582019402	-2.3394479025	 0.9639919795	 0.093719
H	-0.4363775667	-3.1330563837	 1.0169316001	 0.092139
160.1272	178.7534	246.911	253.2607	362.5371	379.0986	537.1781	574.2638	615.4837	754.612	782.6323	797.3513	848.6082	876.5182	888.373	904.8321	925.0307	958.3077	967.9192	978.8127	992.2835	998.5904	1031.1951	1050.8383	1058.3602	1081.4751	1087.8297	1146.3875	1182.684	1183.7743	1211.0246	1231.725	1255.4702	1270.2816	1277.9734	1299.8502	1319.328	1334.2731	1374.399	1422.6416	1467.4356	1476.4831	1498.5414	1512.8494	1526.9415	3006.0494	3044.0517	3050.1279	3059.7684	3091.5074	3104.3127	3109.7856	3114.3074	3119.777	3124.5492	3196.401	3211.0392
C1CC11C2CCC1OC2	C1CC21[C@H]1CC[C@@H]2OC1	
InChI=1S/C8H12O/c1-2-7-8(3-4-8)6(1)5-9-7/h6-7H,1-5H2	InChI=1S/C8H12O/c1-2-7-8(3-4-8)6(1)5-9-7/h6-7H,1-5H2/t6-,7-/m0/s1
