19
gdb 53621	4.95036	0.70864	0.6508	1.2332	80.35	-0.2409	0.0572	0.2981	1736.1568	0.1583	-423.000309	-422.990568	-422.989624	-423.037863	33.087	
C	 0.078085981	 1.4972816265	-0.012577822	-0.497317
C	 0.040190931	 0.0443103666	 0.0699871828	 0.10581
C	 0.0091641419	-1.1564761799	 0.145937277	 0.039827
C	-0.0468179671	-2.6106788665	 0.2217059864	-0.375092
C	-1.4334755259	-3.1903906284	-0.102983447	 0.11767
C	-1.4618167132	-4.7378676774	-0.0898375881	-0.132678
O	-2.6681423316	-5.0541288247	 0.5843075869	-0.231637
C	-2.8273163006	-4.014847267	 1.5153854398	 0.023922
O	-2.4021049011	-2.8275780911	 0.8824321343	-0.256791
H	 0.5610862421	 1.833920404	-0.9366956931	 0.144841
H	-0.9317378703	 1.9218915276	 0.0069386669	 0.149569
H	 0.6338683206	 1.9291886044	 0.8271507753	 0.146756
H	 0.6784904281	-3.0496533665	-0.4785983993	 0.124666
H	 0.2451930127	-2.9528215416	 1.223290714	 0.127003
H	-1.7741486249	-2.7921993804	-1.0653005425	 0.09541
H	-1.4935782486	-5.1829821082	-1.086231217	 0.121568
H	-0.5905102905	-5.1393352003	 0.4529481988	 0.094737
H	-3.8850423869	-3.9296695056	 1.7806833922	 0.120791
H	-2.2234772967	-4.2075035815	 2.4221026747	 0.080943
17.5248	42.5051	56.7046	88.8449	209.8286	238.141	276.2608	323.1553	385.3212	395.3807	493.1813	689.3253	741.2038	772.1675	836.9319	908.6909	970.3857	1014.1314	1042.3063	1052.4129	1055.7102	1085.7103	1104.9771	1118.1352	1172.0103	1181.5062	1212.4701	1242.9875	1269.6583	1293.915	1352.5135	1369.4617	1393.37	1415.1718	1435.1945	1457.9282	1478.7777	1479.2161	1511.3627	1544.9259	2377.531	2924.1329	2973.3212	3004.066	3025.6231	3033.4779	3051.5166	3085.2573	3085.7761	3086.6775	3108.8116
CC#CCC1COCO1	CC#CC[C@H]1COCO1	
InChI=1S/C7H10O2/c1-2-3-4-7-5-8-6-9-7/h7H,4-6H2,1H3	InChI=1S/C7H10O2/c1-2-3-4-7-5-8-6-9-7/h7H,4-6H2,1H3/t7-/m0/s1
