24
gdb 103992	2.43003	1.30723	1.1958	1.6605	89.11	-0.2188	0.0796	0.2984	1242.1828	0.216594	-368.384605	-368.374776	-368.373832	-368.418423	38.489	
C	 0.0211122209	 1.505931824	 0.2093868352	-0.390743
C	-0.114932731	 0.0115950087	-0.1056054054	-0.23374
C	 0.6960539989	-0.4692263012	-1.3142254439	 0.314156
C	 0.2491260722	 0.1844588919	-2.6225282067	-0.461889
C	 2.2717944566	-0.4365979102	-1.172808362	-0.274666
C	 2.2860661232	-1.9520363909	-1.3633569829	-0.104231
N	 1.4843527046	-2.5035375442	-0.2384607707	-0.378309
C	 0.8021996374	-2.0171003778	-1.4648125288	 0.308213
C	-0.106761247	-2.915410724	-2.2477783214	-0.51721
H	 1.0679511773	 1.7850050344	 0.3724722985	 0.115541
H	-0.3677211566	 2.1365073327	-0.5966390479	 0.111393
H	-0.5321828205	 1.7605079838	 1.118931336	 0.110317
H	 0.2003731747	-0.5750275176	 0.7624844661	 0.118375
H	-1.1748881084	-0.2259313694	-0.2754097246	 0.08102
H	 0.4365067375	 1.2625667529	-2.6084599838	 0.117232
H	 0.7920650743	-0.2306042108	-3.4790323627	 0.108985
H	-0.8224562048	 0.0344557047	-2.7994311757	 0.109415
H	 2.7521009944	 0.1183800102	-1.9823584377	 0.094317
H	 2.6663971121	-0.0965551235	-0.2116966617	 0.101443
H	 3.0451502413	-2.5589847139	-1.8438264216	 0.084983
H	 1.5268650871	-3.5204957634	-0.3108422251	 0.218656
H	-1.0608119476	-3.0683464066	-1.7287746129	 0.126709
H	-0.3293323479	-2.501385137	-3.236191598	 0.125736
H	 0.3518839612	-3.8998107327	-2.3953979121	 0.114298
99.8342	144.8061	173.717	207.5238	226.3929	258.7801	283.7665	298.3503	346.8715	373.6731	438.3917	475.5624	516.0343	608.6263	664.1587	766.0999	787.4873	851.1566	873.597	898.9505	918.5786	937.8782	970.2514	1014.1969	1017.2109	1028.4262	1057.7813	1064.4747	1107.5858	1113.6756	1151.8783	1165.4691	1218.1508	1238.7923	1266.17	1304.1035	1327.7086	1344.2984	1366.2409	1406.1732	1408.0373	1413.452	1436.6688	1478.3709	1483.1169	1488.6597	1492.8912	1499.8918	1504.0439	1508.3493	1510.8631	3007.2182	3021.6851	3024.2369	3032.3293	3057.4597	3077.4882	3080.94	3086.2549	3097.1981	3098.0276	3100.2991	3105.6634	3113.9593	3174.2906	3459.4844
CCC1(C)CC2NC12C	CC[C@@]1(C)C[C@H]2N[C@@]12C	
InChI=1S/C8H15N/c1-4-7(2)5-6-8(7,3)9-6/h6,9H,4-5H2,1-3H3	InChI=1S/C8H15N/c1-4-7(2)5-6-8(7,3)9-6/h6,9H,4-5H2,1-3H3/t6-,7+,8-/m1/s1
