19
gdb 93585	4.52321	0.92791	0.85396	2.2856	80.26	-0.2315	0.0021	0.2336	1395.5704	0.158551	-423.008774	-423.00005	-422.999106	-423.042976	31.872	
C	 0.2216458582	 1.5700039403	-0.1639862647	-0.387969
C	-0.0484439665	 0.0865339188	 0.0885104672	 0.110578
O	 0.4646733687	-0.6918669676	-0.9998378582	-0.282232
C	 1.2970162139	-1.7398606358	-0.520102414	-0.16702
C	 1.397124694	-1.5186384034	 0.9704928153	 0.326014
C	 0.6329418331	-0.4805423663	 1.3041541607	-0.248464
C	 2.2234855889	-2.3443766045	 1.865785463	-0.031909
C	 2.4401425997	-3.7890053955	 1.6504700268	-0.185692
O	 3.4596172577	-2.8503257631	 1.3286239115	-0.23167
H	 1.2976813279	 1.7622078874	-0.2033248231	 0.121487
H	-0.222194994	 1.8731029986	-1.1163371341	 0.12748
H	-0.2176992381	 2.1824018949	 0.6305811065	 0.110241
H	-1.1409322672	-0.063868617	 0.1492551096	 0.08015
H	 0.8521305618	-2.719032592	-0.7639679318	 0.09777
H	 2.2784170147	-1.6980965879	-1.0113260699	 0.123902
H	 0.496544243	-0.0760036122	 2.2998639347	 0.101631
H	 2.3044407941	-1.9786248703	 2.8892400682	 0.095615
H	 2.6391589235	-4.4265568572	 2.511178248	 0.120312
H	 1.9737812668	-4.2868942872	 0.8022598344	 0.119777
53.9616	86.6154	136.0663	165.1675	234.7226	267.0624	345.6975	411.6891	503.4307	544.4401	616.7809	729.5806	821.108	844.8187	860.3834	877.1459	915.9363	931.7419	978.9822	1024.2827	1047.6963	1079.3112	1096.7863	1109.769	1136.3666	1151.2046	1169.4352	1201.8844	1219.6722	1270.0086	1305.7487	1348.92	1372.1089	1389.5233	1400.0587	1417.8827	1485.2209	1495.0814	1522.8553	1526.3145	1723.5554	2938.9886	2962.0811	3024.1996	3037.712	3084.6001	3111.7038	3113.515	3122.7901	3173.1421	3208.0931
CC1OCC(=C1)C1CO1	C[C@H]1OCC(=C1)[C@H]1CO1	
InChI=1S/C7H10O2/c1-5-2-6(3-8-5)7-4-9-7/h2,5,7H,3-4H2,1H3	InChI=1S/C7H10O2/c1-5-2-6(3-8-5)7-4-9-7/h2,5,7H,3-4H2,1H3/t5-,7-/m1/s1
