18
gdb 54987	3.28108	1.08732	1.02787	4.2259	73.33	-0.24	0.0226	0.2627	1224.3871	0.147016	-439.082758	-439.073614	-439.07267	-439.117771	32.611	
N	-0.0405053624	 1.2402510915	 0.3488286641	-0.539323
C	-0.008207246	 0.007136821	-0.2331543249	 0.43462
O	 1.0026393215	-0.4474898772	-0.7437322637	-0.384937
C	-1.2918623793	-0.7595856063	-0.1837118278	-0.205954
C	-1.5614623288	-1.7211295495	-1.333656433	-0.347484
C	-1.1915266463	-2.2580171171	-0.0029838588	 0.304035
C	 0.0244138201	-3.0808837893	 0.4069937349	-0.1272
O	-0.8026872772	-3.8821117999	 1.289718522	-0.279503
C	-1.9906737523	-3.1424765028	 0.9481412534	-0.13938
H	 0.7961370797	 1.7994777046	 0.3253182594	 0.262494
H	-0.8791782163	 1.6354131922	 0.7345477839	 0.259032
H	-2.1496325279	-0.2698617712	 0.2690247632	 0.079641
H	-2.5881110739	-1.8197631987	-1.6710297329	 0.115746
H	-0.8026446417	-1.7443386158	-2.1086526786	 0.143326
H	 0.4788527064	-3.6820516567	-0.3890293229	 0.108691
H	 0.8113579904	-2.5460354634	 0.9474694313	 0.117433
H	-2.4312226587	-2.6392301504	 1.8199379188	 0.097088
H	-2.754324527	-3.7770164912	 0.4777452414	 0.101676
49.1583	71.6335	103.0866	138.5965	160.1785	306.5222	328.6864	383.6973	427.793	531.4898	592.3476	632.2675	763.1678	807.1483	853.9005	873.6948	896.3828	952.7111	963.8825	1020.661	1025.4019	1046.6512	1071.7412	1078.2538	1123.0273	1124.9001	1147.0775	1159.8497	1218.0314	1279.3665	1306.847	1339.3443	1399.0189	1439.0295	1492.0122	1508.8309	1532.6636	1617.2373	1773.8623	2993.1728	3032.3858	3033.1603	3083.1715	3128.6773	3144.3709	3224.1353	3607.7609	3745.7656
NC(=O)C1CC11COC1	NC(=O)[C@H]1CC21COC2	
InChI=1S/C6H9NO2/c7-5(8)4-1-6(4)2-9-3-6/h4H,1-3H2,(H2,7,8)	InChI=1S/C6H9NO2/c7-5(8)4-1-6(4)2-9-3-6/h4H,1-3H2,(H2,7,8)/t4-/m1/s1
