22
gdb 87801	3.40724	1.06201	1.03151	1.1171	88.46	-0.2107	0.0939	0.3046	1325.277	0.19325	-367.148952	-367.139963	-367.139019	-367.182219	35.214	
C	-0.2368717809	 1.4289589009	 0.0399331329	-0.404488
C	-0.0072816031	-0.0659469712	 0.0589632944	-0.045373
C	 1.3787934378	-0.6346412937	-0.1728462287	-0.372378
C	 0.740128234	-0.7158896808	 1.1841308394	 0.383749
C	 1.2926616144	-0.0975139401	 2.4963736286	-0.340293
C	 0.9191542589	-1.4120471768	 3.1994073461	-0.022236
C	 0.3890885521	-1.9893025484	 1.926328286	-0.13655
N	-0.53192734	-1.6074896101	 3.0210825163	-0.105474
C	-1.0381068578	-2.7619316624	 3.7592062227	-0.316175
H	 0.615646083	 1.9654773646	 0.4694842091	 0.113357
H	-0.3774625097	 1.7966554046	-0.9827520912	 0.113162
H	-1.1254149518	 1.7007616624	 0.620153872	 0.122241
H	-0.8278926309	-0.6515482753	-0.3498445291	 0.080326
H	 1.4783948765	-1.5467777603	-0.7536492903	 0.105878
H	 2.1981002894	 0.0668667694	-0.3048539219	 0.105203
H	 2.3713442223	 0.0771859334	 2.4590002646	 0.101641
H	 0.7849776669	 0.792342305	 2.8784564725	 0.105262
H	 1.4385253944	-1.8989778244	 4.0161205101	 0.089633
H	 0.4084993885	-3.0090581749	 1.5578950311	 0.085815
H	-0.3228571199	-3.5997618229	 3.8306039821	 0.094363
H	-1.2997651027	-2.4516455188	 4.7761064791	 0.12134
H	-1.9459211013	-3.1307921604	 3.2709863841	 0.120997
91.1395	158.0642	175.8643	215.3429	257.0159	278.1836	288.9026	379.0376	407.0967	455.798	490.351	573.1082	761.6011	783.621	823.3588	842.281	877.6238	879.4525	904.0778	921.3274	974.3472	994.0947	1013.8635	1041.5041	1063.7126	1098.2163	1111.1531	1125.8967	1131.5188	1155.572	1171.479	1184.8516	1202.7081	1228.5503	1252.2409	1290.2478	1324.9398	1364.2299	1408.5442	1431.5839	1453.7971	1472.2509	1489.0081	1492.9856	1494.8872	1500.2996	1507.405	2952.5543	3026.0396	3052.6993	3062.7509	3088.4086	3094.6093	3099.3097	3108.3957	3112.6239	3130.4666	3171.4796	3188.3702	3196.3087
CC1CC11CC2C1N2C	C[C@H]1C[C@]21C[C@@H]1[C@H]2N1C	
InChI=1S/C8H13N/c1-5-3-8(5)4-6-7(8)9(6)2/h5-7H,3-4H2,1-2H3	InChI=1S/C8H13N/c1-5-3-8(5)4-6-7(8)9(6)2/h5-7H,3-4H2,1-2H3/t5-,6+,7+,8+,9?/m0/s1
