19
gdb 69452	3.1128	1.1374	1.10349	2.3907	76.04	-0.2403	-0.0244	0.2159	1198.2047	0.158322	-423.027735	-423.019151	-423.018207	-423.061267	32.255	
C	 0.1955361009	 1.5389403782	 0.2218558568	-0.468505
C	 0.1880610078	 0.0446020917	 0.0779752249	 0.463288
C	-0.9380893132	-0.8212850385	 0.5865867579	-0.373965
C	 0.4625837973	-0.9522208643	 1.1714108445	-0.127683
C	 1.3596523009	-2.0247824005	 0.5621032673	-0.105077
C	 1.2089955445	-1.7419328617	-0.9616136458	-0.133835
O	 0.8356178874	-0.3787115529	-1.1034016745	-0.289498
C	 2.793111041	-1.8214137353	 1.0065582525	 0.156115
O	 3.4568780441	-2.6415444454	 1.585953888	-0.25309
H	 1.2201168042	 1.9234868937	 0.2036624284	 0.127024
H	-0.3583854547	 2.0079377662	-0.5976000695	 0.132572
H	-0.2728789617	 1.8364228038	 1.1637364999	 0.120717
H	-1.6836854684	-0.3483451491	 1.2167700736	 0.118755
H	-1.3267609085	-1.6174255513	-0.0392424541	 0.11935
H	 0.6360725951	-0.6469715871	 2.1973843983	 0.100659
H	 1.0654455896	-3.0470914612	 0.8144546961	 0.098649
H	 2.1340018629	-1.8978535818	-1.526442705	 0.120933
H	 0.4436727133	-2.4056533013	-1.3848839515	 0.11085
H	 3.2109185775	-0.8213586033	 0.7430012823	 0.08274
67.3599	94.1896	182.7766	211.2529	295.2158	303.659	340.9839	380.086	452.309	459.6276	615.0914	720.1516	757.0411	819.0734	866.3132	895.7408	921.2665	939.2304	943.2629	996.6573	1032.7086	1046.1257	1076.8336	1096.9793	1115.0059	1123.5067	1150.3461	1235.5929	1239.9248	1256.7799	1269.4054	1315.4662	1386.1172	1393.283	1428.2384	1429.943	1478.2598	1483.5339	1504.5673	1521.6834	1834.1597	2860.2898	3012.0809	3039.6871	3072.592	3081.7019	3105.6274	3121.7374	3132.5807	3171.0577	3218.1936
CC12CC1C(CO2)C=O	C[C@]12C[C@H]1[C@@H](CO2)C=O	
InChI=1S/C7H10O2/c1-7-2-6(7)5(3-8)4-9-7/h3,5-6H,2,4H2,1H3	InChI=1S/C7H10O2/c1-7-2-6(7)5(3-8)4-9-7/h3,5-6H,2,4H2,1H3/t5-,6+,7+/m1/s1
