19
gdb 80807	1.95925	1.6338	1.19873	2.5145	81.14	-0.2529	0.0173	0.2702	1140.7305	0.159438	-382.011348	-382.002555	-382.001611	-382.044692	33.074	
C	-0.1145760191	 1.6119784845	 0.1855607565	-0.448367
C	 0.0420128152	 0.1049236311	 0.1554848317	 0.046889
N	 1.1797422156	-0.5183953017	-0.6934308893	-0.180573
C	 2.1035311175	-0.1443438736	 0.4774267592	-0.213851
C	 0.8602804716	-0.7004237146	 1.211244156	 0.176497
C	 0.6222368348	-0.8370647205	 2.6341147366	 0.134356
N	 0.4213739935	-0.9490094956	 3.7676792441	-0.343325
C	 0.9276259569	-1.8151347918	 0.1200198245	 0.055418
C	-0.2262858368	-2.7250926418	-0.2479421548	-0.452174
H	-0.3798403307	 1.9654163139	-0.8162018588	 0.140132
H	-0.9351331279	 1.8769856772	 0.8602143137	 0.13634
H	 0.7723288493	 2.1576428352	 0.5114178682	 0.128405
H	-0.9218004182	-0.3359021039	-0.0991196374	 0.085941
H	 3.0169026372	-0.7411136093	 0.5217867709	 0.117153
H	 2.324744827	 0.9173068073	 0.5595069212	 0.118279
H	 1.8470952581	-2.4066533822	 0.1681165239	 0.088669
H	-0.0638170407	-3.1220800451	-1.2551804727	 0.141535
H	-0.2507464573	-3.5720920189	 0.4451201146	 0.13742
H	-1.2090557059	-2.2515602101	-0.226701758	 0.131255
112.8328	133.6218	139.7681	156.4524	256.6974	273.2131	319.3061	420.2808	509.5983	517.3049	531.7779	588.0246	626.2598	748.1395	768.4113	816.1554	872.801	883.6383	994.7271	1014.5276	1062.1236	1066.0138	1093.324	1131.4643	1136.7319	1159.9511	1174.4245	1200.0913	1204.5976	1244.16	1278.919	1402.7832	1411.4134	1433.9376	1437.6435	1491.317	1491.8849	1493.6003	1501.7357	1545.4577	2343.3423	3045.3627	3046.2569	3058.8898	3084.6507	3104.7542	3107.3012	3109.0076	3132.2613	3139.6758	3168.6765
CC1N2CC1(C#N)C2C	C[C@H]1N2C[C@]1(C#N)[C@H]2C	
InChI=1S/C7H10N2/c1-5-7(3-8)4-9(5)6(7)2/h5-6H,4H2,1-2H3	InChI=1S/C7H10N2/c1-5-7(3-8)4-9(5)6(7)2/h5-6H,4H2,1-2H3/t5-,6-/m1/s1
