20
gdb 22814	2.25272	1.45599	1.0251	0.649	84.22	-0.2381	0.0144	0.2525	1221.5689	0.171494	-403.131187	-403.122325	-403.121381	-403.16467	34.063	
C	-0.1087827371	 1.5270122454	 0.0719654446	-0.393656
C	 0.0469538358	-0.0110302658	 0.0405444221	-0.094004
C	 0.7390650892	-0.4666784199	-1.2232777107	-0.053856
C	 1.9218782646	-1.0789179972	-1.2564698269	-0.065577
C	 2.734982947	-1.3872254614	-0.0272512015	-0.253988
C	 2.2835646045	-0.5532254603	 1.1893989097	-0.308093
C	 0.7802701875	-0.5214322466	 1.2641207353	 0.369471
N	 0.0540483999	-0.896971248	 2.2445321274	-0.208939
O	 0.8089269001	-1.3379880668	 3.3483250897	-0.401376
H	 0.8661397185	 2.02340766	 0.1064186352	 0.118196
H	-0.6282483107	 1.8781261759	-0.8257873784	 0.114219
H	-0.686747325	 1.8339268583	 0.9479473932	 0.126942
H	-0.962547639	-0.4390404474	 0.0659855703	 0.098481
H	 0.2076786996	-0.2637109818	-2.1507623534	 0.086623
H	 2.3379411255	-1.3897699994	-2.2119357393	 0.0866
H	 2.6569235852	-2.4581654886	 0.2081029783	 0.121126
H	 3.798453154	-1.2050212478	-0.2237960152	 0.105247
H	 2.7072216854	-0.9394586414	 2.115325858	 0.132965
H	 2.6451292766	 0.4750936817	 1.0594564159	 0.11592
H	 0.1182176885	-1.5937478892	 3.9679471857	 0.303698
67.45	125.7661	211.0811	238.4665	239.9317	298.238	332.8414	390.5606	416.4631	477.1563	510.3424	587.86	638.759	722.5016	759.4671	781.612	859.4092	891.3566	941.3838	975.7657	1005.4979	1014.5526	1034.0588	1037.4333	1086.7663	1106.6428	1163.0905	1191.8273	1254.1421	1273.9145	1315.7374	1328.1461	1331.1469	1370.7018	1397.6523	1406.7574	1426.4643	1475.5083	1485.1166	1496.6701	1499.3201	1722.2493	1737.4717	3009.2435	3027.4404	3032.6535	3035.2314	3050.0479	3103.8519	3118.3993	3139.6609	3143.4128	3163.6665	3826.2171
CC1C=CCCC1=NO	C[C@H]1C=CCCC1=NO	
InChI=1S/C7H11NO/c1-6-4-2-3-5-7(6)8-9/h2,4,6,9H,3,5H2,1H3	InChI=1S/C7H11NO/c1-6-4-2-3-5-7(6)8-9/h2,4,6,9H,3,5H2,1H3/t6-/m0/s1
