25
gdb 119155	2.24828	1.06918	0.83364	0.1403	93.03	-0.2423	0.0908	0.3331	1539.4289	0.228629	-352.332284	-352.322183	-352.321239	-352.367725	38.6	
C	-0.0189011118	 1.6400614985	 0.0630067943	-0.380598
C	 0.0351384627	 0.1219348016	-0.1364932646	-0.189137
C	-1.3221721743	-0.5426751184	 0.1276375036	-0.271122
C	-1.3836096671	-2.0676115907	 0.0609897352	 0.371608
C	-0.3408079323	-2.8520118867	-0.7083528701	-0.302239
C	-0.3423035131	-2.8787996513	 0.8013292282	-0.308454
C	-2.7683423446	-2.672513513	 0.0455983451	-0.03065
C	-3.978731462	-2.0194167711	 0.6675209596	-0.280802
C	-3.8889881489	-2.1701349882	-0.8326959915	-0.281081
H	 0.9511115392	 2.1031284657	-0.142893966	 0.110513
H	-0.7563246801	 2.101394286	-0.6034438658	 0.113909
H	-0.2992169046	 1.8954409233	 1.0909529252	 0.114147
H	 0.3595931689	-0.0935672772	-1.1611193367	 0.102073
H	 0.8018723335	-0.2982252977	 0.525709127	 0.099731
H	-1.6733851831	-0.2277845835	 1.1199895081	 0.099527
H	-2.0400180031	-0.1232602049	-0.5901760977	 0.096041
H	-0.670687365	-3.7395713423	-1.2383040074	 0.104279
H	 0.4626556867	-2.3198634896	-1.2035576525	 0.108015
H	 0.4555283528	-2.3564095811	 1.3181770535	 0.107156
H	-0.6675969569	-3.7848217831	 1.3022494448	 0.105741
H	-2.7404034835	-3.7548720091	 0.149631684	 0.073996
H	-4.6765015207	-2.6456455292	 1.2128077534	 0.106398
H	-3.8752025441	-1.0202357696	 1.0749099591	 0.111695
H	-3.727886788	-1.2727231002	-1.4199736897	 0.112357
H	-4.5217433407	-2.903992578	-1.3200506594	 0.106897
58.7505	77.8541	100.5971	146.6092	241.7592	244.5275	261.5763	321.2872	342.0809	389.1773	460.2001	497.9817	676.7048	748.8255	779.9302	784.4604	820.2714	840.5983	847.4268	896.2731	916.9309	937.896	965.1539	975.5105	994.886	1051.821	1056.9133	1062.4107	1074.0257	1077.5247	1078.1248	1126.9661	1143.8452	1150.4771	1188.7164	1198.4886	1219.3047	1267.458	1280.7731	1313.6967	1337.6422	1345.7098	1403.3462	1411.7268	1424.839	1468.2109	1469.9979	1487.2621	1493.626	1499.6358	1505.3472	1510.1675	1514.3384	3003.2183	3027.3925	3029.5289	3032.2255	3063.9023	3096.8402	3101.6061	3121.8582	3127.543	3132.0282	3135.2113	3138.0322	3204.4072	3208.1831	3221.2937	3223.588
CCCC1(CC1)C1CC1	CCCC1(CC1)C1CC1	
InChI=1S/C9H16/c1-2-5-9(6-7-9)8-3-4-8/h8H,2-7H2,1H3	InChI=1S/C9H16/c1-2-5-9(6-7-9)8-3-4-8/h8H,2-7H2,1H3
