19
gdb 81867	2.80616	1.4174	1.08667	2.3961	74.77	-0.2402	-0.0205	0.2197	1139.0913	0.158259	-423.047062	-423.03846	-423.037515	-423.079978	33.47	
C	 0.1430029826	 1.647148019	 0.0309613231	-0.392094
C	 0.105575976	 0.1188803466	-0.0202260385	-0.103225
C	 0.7542458366	-0.5548500834	-1.2172576511	-0.126723
C	 2.273278124	-0.5457354647	-1.2872314917	-0.324928
C	 1.5693770425	-1.7516613393	-0.7500855696	 0.410155
O	 1.6890621118	-2.9174593574	-1.5039635045	-0.470182
C	 1.4445927057	-1.8583833768	 0.7591496223	-0.396616
C	 0.7985417646	-0.536109096	 1.1934145966	 0.375126
O	 0.8321425939	-0.071147951	 2.3028130805	-0.31114
H	 1.162683844	 2.0170731778	-0.1149308192	 0.121116
H	-0.4886751703	 2.0818582133	-0.7488652477	 0.112881
H	-0.207144743	 1.9987312308	 1.0047701131	 0.137214
H	-0.9451878	-0.2078429724	 0.0373755361	 0.100323
H	 0.2151020519	-0.6070221653	-2.1564225181	 0.090836
H	 2.7087911405	-0.6583067101	-2.2730555121	 0.127923
H	 2.8399175241	 0.0891195634	-0.6114321094	 0.118536
H	 0.8806562791	-3.4315320435	-1.3957736767	 0.279196
H	 0.7625793223	-2.6781287592	 1.0287816838	 0.117239
H	 2.3835739237	-2.029704112	 1.2925091132	 0.134361
85.4127	157.9204	196.8696	235.8227	271.786	323.5992	363.671	385.4946	469.4032	481.8293	537.8018	568.0666	628.9855	718.2929	760.2953	846.4185	888.2169	920.7932	941.2289	952.3511	994.419	1031.4649	1052.9342	1078.9883	1097.2084	1126.5583	1156.9366	1174.366	1219.7315	1249.1976	1275.7193	1314.4076	1331.4079	1343.8796	1402.5892	1417.0276	1454.9923	1491.7949	1495.4183	1497.3082	1845.3578	2983.3964	3014.7403	3043.1349	3095.5766	3111.3449	3123.1533	3126.1789	3175.3995	3221.9645	3787.0301
CC1C2CC2(O)CC1=O	C[C@H]1[C@H]2C[C@@]2(O)CC1=O	
InChI=1S/C7H10O2/c1-4-5-2-7(5,9)3-6(4)8/h4-5,9H,2-3H2,1H3	InChI=1S/C7H10O2/c1-4-5-2-7(5,9)3-6(4)8/h4-5,9H,2-3H2,1H3/t4-,5+,7+/m0/s1
