21
gdb 107136	2.71204	1.36906	1.19909	1.392	82.39	-0.2011	0.0881	0.2892	1164.0662	0.180731	-387.009836	-387.000868	-386.999924	-387.043101	34.943	
C	 0.0324337465	 1.3901969211	-0.0033081289	-0.252138
O	-0.0263935574	-0.0259514087	-0.0183596531	-0.273699
C	-1.3000458427	-0.5485542151	 0.0051002564	 0.448047
C	-1.6187724674	-1.7520631174	-0.811861899	-0.36045
C	-2.4339101177	-0.484485619	-1.0133055573	-0.215913
C	-3.438783788	-0.1724080569	 0.1416409201	 0.370631
C	-4.4926371094	 0.883712448	-0.0216024952	-0.490787
C	-3.4715654702	-1.2369356664	 1.2060456833	-0.353007
C	-2.3131156115	-0.2668731812	 1.1578996198	-0.189974
H	 1.0866908926	 1.6626919432	-0.0886901494	 0.127736
H	-0.5233079112	 1.8216878076	-0.8473260886	 0.10921
H	-0.3664138067	 1.8108729349	 0.9295279607	 0.112683
H	-0.8961396359	-1.9103597285	-1.6072004139	 0.11776
H	-2.0268776702	-2.6717747274	-0.4063110425	 0.108545
H	-2.4897076173	 0.0016716207	-1.9792316409	 0.087835
H	-5.2959343097	 0.5470565621	-0.68915274	 0.119019
H	-4.9466581182	 1.1404893397	 0.9410356133	 0.115811
H	-4.0733298194	 1.8024593641	-0.4495611389	 0.114295
H	-4.1743961384	-1.038709922	 2.0116486045	 0.106885
H	-3.359405061	-2.2943416642	 0.9946911186	 0.111053
H	-2.0946273869	 0.4007075657	 1.9822240811	 0.086457
96.0509	121.0241	176.1151	214.5985	242.3287	289.6511	318.6922	401.8892	442.7605	462.823	518.4264	577.4847	613.8277	785.187	810.9765	833.9144	856.1773	913.6658	927.5883	950.548	971.1751	982.9658	1008.3919	1018.7154	1059.0072	1090.4821	1094.6778	1098.3229	1131.831	1162.9086	1178.811	1191.5711	1225.5578	1258.2703	1303.7391	1357.329	1394.6014	1421.4301	1470.821	1483.3085	1487.9923	1493.9741	1502.0607	1506.6251	1516.4143	2996.6662	3014.7881	3051.2615	3069.1834	3094.8957	3114.8759	3121.5293	3128.3493	3183.4432	3189.5053	3196.8005	3205.7669
COC12CC1C1(C)CC21	CO[C@]12C[C@H]1[C@@]1(C)C[C@@H]21	
InChI=1S/C8H12O/c1-7-3-5(7)8(9-2)4-6(7)8/h5-6H,3-4H2,1-2H3	InChI=1S/C8H12O/c1-7-3-5(7)8(9-2)4-6(7)8/h5-6H,3-4H2,1-2H3/t5-,6+,7+,8+/m1/s1
