15
gdb 9799	3.06808	1.6617	1.41945	4.3522	61.16	-0.2865	0.0127	0.2992	918.4259	0.117151	-399.783721	-399.775367	-399.774423	-399.816634	30.296	
O	-0.0759570727	 1.3687416909	 0.0916956963	-0.415032
C	 0.0346450983	-0.038294578	 0.0266689958	-0.067267
C	 0.7054916348	-0.4574817636	-1.2260289705	 0.261848
N	 1.2339730308	-0.7755666161	-2.2028678562	-0.320639
C	 0.7670357145	-0.5978691376	 1.244367006	 0.401416
O	 1.9671011371	 0.0843840624	 1.4925253285	-0.468546
C	-0.0184292766	-1.132558668	 2.4098095231	-0.34255
C	 0.7584147137	-2.0705564171	 1.5060621424	-0.291986
H	 0.8265949118	 1.7121973589	 0.0839836433	 0.291602
H	-0.9883723563	-0.4273345026	 0.0038143914	 0.139805
H	 1.7684825889	 0.8185625939	 2.0839680542	 0.292575
H	 0.3870102969	-0.9477051869	 3.3986455336	 0.124313
H	-1.101685562	-1.1295384785	 2.3549629599	 0.125957
H	 0.2101353263	-2.7146048395	 0.8269321083	 0.130371
H	 1.6794078045	-2.4916635981	 1.8907033641	 0.138131
60.3403	133.1075	181.8737	210.8113	248.794	329.6298	345.6661	391.5465	488.1116	537.4459	548.784	614.9165	766.4721	814.8044	870.397	914.8585	945.6072	985.6185	993.436	1053.8115	1075.7267	1083.9558	1185.0983	1230.7099	1276.5839	1292.57	1341.4791	1372.577	1422.6486	1457.0948	1497.7283	2356.888	3072.1197	3134.3882	3143.2408	3220.12	3237.4311	3782.8088	3804.2183
OC(C#N)C1(O)CC1	O[C@@H](C#N)C1(O)CC1	
InChI=1S/C5H7NO2/c6-3-4(7)5(8)1-2-5/h4,7-8H,1-2H2	InChI=1S/C5H7NO2/c6-3-4(7)5(8)1-2-5/h4,7-8H,1-2H2/t4-/m0/s1
