19
gdb 83315	2.58716	1.46259	1.26603	3.657	74.54	-0.2379	-0.0081	0.2298	1072.4944	0.15954	-423.028546	-423.020108	-423.019163	-423.061843	31.763	
O	-0.2602915376	 1.4827700179	-0.2347569558	-0.411833
C	-0.0422730269	 0.1236261653	 0.0116921298	 0.094419
C	-0.4074689718	-0.5326942034	 1.3217430754	-0.100939
C	-1.2687783578	 0.2307184685	 2.3209666426	-0.231065
C	-2.4994647236	 0.7452698896	 1.5374163712	-0.221755
C	-2.6108381959	-0.1505076728	 0.2827991	-0.085404
C	-3.1478331332	 0.5660640874	-0.9420302216	 0.167611
O	-3.7194130534	 1.6250921525	-0.9261154197	-0.249248
C	-1.2342225631	-0.7875439418	 0.0678771299	-0.111136
H	 0.3745382205	 1.992272758	 0.2795916122	 0.291667
H	 0.8363024522	-0.2838317808	-0.4897211048	 0.088221
H	 0.2703700402	-1.2885875025	 1.7053032042	 0.084389
H	-1.5731010348	-0.462198985	 3.1133834423	 0.102916
H	-0.7283306394	 1.0481220172	 2.8120891252	 0.094523
H	-3.4105070062	 0.7168237772	 2.1398069568	 0.099624
H	-2.3578144322	 1.7767493096	 1.2149444683	 0.132117
H	-3.3150809431	-0.9791935114	 0.4587576681	 0.097903
H	-2.9946724034	 0.0134217466	-1.8984921505	 0.069589
H	-1.1863473205	-1.729094202	-0.4681558938	 0.088403
78.9853	100.895	176.2075	188.1174	250.1731	282.0459	336.8526	477.7749	518.6597	614.2041	691.3041	704.8355	763.9505	776.8495	823.7987	837.8866	936.988	952.718	972.0059	1032.0372	1039.5437	1045.4797	1067.1699	1103.3038	1111.7257	1140.1164	1201.9098	1225.5601	1238.1554	1274.3673	1288.1538	1290.6541	1326.6256	1331.8844	1361.8449	1373.9025	1426.6153	1454.2847	1490.2468	1508.6193	1830.9396	2857.3641	2985.9622	3033.6564	3064.5963	3079.3986	3091.5855	3137.4236	3155.835	3168.5009	3808.1392
OC1C2CCC(C=O)C12	O[C@H]1[C@H]2CC[C@@H](C=O)[C@@H]12	
InChI=1S/C7H10O2/c8-3-4-1-2-5-6(4)7(5)9/h3-7,9H,1-2H2	InChI=1S/C7H10O2/c8-3-4-1-2-5-6(4)7(5)9/h3-7,9H,1-2H2/t4-,5-,6+,7-/m0/s1
