15
gdb 43074	2.9321	1.97871	1.53326	3.3497	68.86	-0.2235	-0.0331	0.1905	861.2336	0.114258	-420.60646	-420.600175	-420.599231	-420.637153	25.202	
O	-0.0217339312	 0.0075223019	-0.0981664563	-0.286701
C	-0.0255989542	 1.1955125074	 0.0080025076	 0.406627
C	-1.1352127561	 2.2844089952	 0.0477752743	-0.009922
O	-1.3938377151	 2.785939301	 1.37573941	-0.309048
C	-0.3166224332	 3.7907898613	 1.2617495708	 0.065059
C	 0.9089083174	 3.407697672	 2.0486708301	-0.070333
C	 1.6747582969	 2.565342857	 1.3498729869	-0.074817
C	 1.1042621237	 2.286562312	-0.0216400516	-0.213827
C	-0.0271282532	 3.3455019428	-0.191684844	-0.114127
H	-2.0443895391	 2.1263961795	-0.5376974887	 0.09698
H	-0.7203749184	 4.7864383346	 1.4586639363	 0.086584
H	 1.0824195612	 3.7211298762	 3.0705932505	 0.111195
H	 2.5681647589	 2.0708242171	 1.7126625947	 0.118637
H	 1.8410345176	 2.1479158497	-0.8156796043	 0.100119
H	-0.0000299952	 4.0519098722	-1.0160865862	 0.093576
115.7317	209.5048	308.3117	410.0846	521.7489	551.8385	666.467	693.4045	751.33	797.6288	823.6656	846.4587	861.1443	917.4107	923.5804	956.7655	969.2071	987.9307	995.4772	1020.6561	1035.6577	1128.192	1143.4999	1193.0737	1198.9477	1220.0703	1253.1022	1269.1038	1304.7874	1322.5163	1359.6715	1653.5508	1891.3788	3083.7677	3087.6647	3095.0583	3162.1391	3199.1507	3223.88
O=C1C2OC3C=CC1C23	O=C1[C@H]2O[C@H]3C=C[C@@H]1[C@@H]23	
InChI=1S/C7H6O2/c8-6-3-1-2-4-5(3)7(6)9-4/h1-5,7H	InChI=1S/C7H6O2/c8-6-3-1-2-4-5(3)7(6)9-4/h1-5,7H/t3-,4+,5-,7+/m1/s1
