15
gdb 31300	2.25721	1.54745	0.92634	5.5462	78.68	-0.2102	-0.0274	0.1828	1197.9668	0.113747	-416.842899	-416.83458	-416.833636	-416.876301	29.849	
C	 0.0036284941	 1.4738133908	 0.0989134318	-0.33227
N	-0.0308649148	 0.0534477898	-0.1937181727	-0.408055
C	-1.1867098108	-0.6682041141	-0.0741484528	 0.213013
C	-1.3046205512	-2.0455981065	 0.0031011959	 0.185161
O	-2.636958593	-2.4016495248	 0.0623365304	-0.177135
C	-3.3387737545	-1.2578499326	 0.0300399953	-0.002829
C	-2.5297285529	-0.1660296831	-0.0495517649	-0.246964
C	-0.317629605	-3.0374409649	 0.033030198	 0.204179
N	 0.5525887863	-3.8073533945	 0.0584538114	-0.369531
H	 1.0156037383	 1.8433741873	-0.0773978333	 0.138799
H	-0.6674798846	 2.0172341179	-0.5741901261	 0.139196
H	-0.2792387451	 1.7120710643	 1.1348640502	 0.12523
H	 0.8149943081	-0.4579122543	 0.0064636997	 0.258508
H	-4.4108455413	-1.3655913975	 0.0723130082	 0.149227
H	-2.8447778836	 0.8637125624	-0.0873831111	 0.123472
83.8621	118.7862	152.4697	161.3519	235.2957	311.3974	401.7345	489.5091	516.2285	555.3149	610.2278	625.3375	709.4482	734.106	775.9472	834.0011	906.9164	1034.4961	1098.8306	1113.6426	1153.0606	1189.0686	1219.3594	1255.5353	1343.5387	1455.3545	1463.2295	1488.3433	1499.1873	1520.0529	1541.3559	1658.2543	2311.3694	2995.1036	3073.0028	3129.509	3263.9273	3284.0538	3617.132
CNC1=C(OC=C1)C#N	CNc1c(occ1)C#N	
InChI=1S/C6H6N2O/c1-8-5-2-3-9-6(5)4-7/h2-3,8H,1H3	InChI=1S/C6H6N2O/c1-8-5-2-3-9-6(5)4-7/h2-3,8H,1H3
