19
gdb 13273	6.39694	0.90105	0.83849	2.8059	76.78	-0.2412	0.0242	0.2654	1406.8995	0.164764	-365.042941	-365.034152	-365.033207	-365.077291	30.859	
C	-0.0197736331	 1.2201906038	 0.3907279563	-0.248808
O	-0.5253952152	 0.3162594424	-0.5823270343	-0.193083
C	-1.2288827849	-0.7282673633	-0.0945390091	 0.124848
N	-1.6740295274	-1.6117156063	-0.8696546297	-0.238411
C	-2.4385092507	-2.7062097078	-0.332641445	 0.081155
C	-1.9643944906	-4.1417035818	-0.6837448283	-0.2131
C	-2.5069063455	-4.6009696106	 0.695669926	-0.219721
C	-2.4422674531	-3.1254630313	 1.1733988964	-0.241894
H	 0.4709121128	 2.0234121796	-0.1603544957	 0.145297
H	-0.8242486645	 1.6465782436	 1.0030069224	 0.124809
H	 0.7142235106	 0.7368236841	 1.0475176111	 0.125131
H	-1.363233443	-0.7097488583	 0.9965075686	 0.076193
H	-3.4749366973	-2.5875289677	-0.6744422238	 0.086192
H	-2.3638637708	-4.6057365035	-1.5880690564	 0.097419
H	-0.8716313411	-4.1787608176	-0.7172567544	 0.103932
H	-3.5381496231	-4.9591147067	 0.6290406587	 0.102982
H	-1.9200008755	-5.3355250553	 1.2505863783	 0.097919
H	-1.4776325872	-2.9133919753	 1.6462899713	 0.096236
H	-3.2414609804	-2.749809668	 1.8173346475	 0.092905
47.4658	84.0244	123.8068	149.9082	174.0949	252.2985	323.7702	396.5494	494.7788	535.3098	677.8379	774.145	791.1953	898.0029	927.6624	950.9115	978.3172	985.9074	1028.7992	1072.7595	1110.9815	1141.3393	1177.6411	1184.8748	1191.9204	1238.1081	1251.1612	1255.5952	1269.792	1274.9402	1290.3285	1370.4017	1409.2801	1475.014	1484.4405	1488.4105	1494.5492	1501.9117	1510.0689	1774.731	3004.6795	3015.4266	3020.8564	3047.3835	3059.725	3062.9807	3072.0296	3099.3955	3110.3581	3124.3815	3142.6817
COC=NC1CCC1	COC=NC1CCC1	
InChI=1S/C6H11NO/c1-8-5-7-6-3-2-4-6/h5-6H,2-4H2,1H3	InChI=1S/C6H11NO/c1-8-5-7-6-3-2-4-6/h5-6H,2-4H2,1H3
