18
gdb 87063	2.51967	1.37176	1.11128	2.1034	77.98	-0.2355	0.0192	0.2547	1157.6104	0.147434	-398.085728	-398.076708	-398.075764	-398.119534	33.462	
N	-0.0025343925	 1.4398008428	-0.3646313816	-0.508389
C	 0.0087461727	 0.0346730069	-0.107006281	-0.007711
C	-0.1494866774	-0.4823338032	 1.2802769125	-0.334608
C	-1.2443523238	-0.7983345568	 0.2640309832	 0.188835
C	-2.4857619644	-0.0726608617	 0.3800994054	 0.228413
N	-3.4962849221	 0.4923188771	 0.4289448481	-0.367485
N	-1.2722632329	-2.1517096599	-0.2213731349	-0.125019
C	-2.3528131216	-3.0430131172	 0.2009247064	-0.237805
C	-2.2836335962	-2.5420344738	-1.2010733862	-0.241979
H	-0.3826271154	 1.64011116	-1.2847862727	 0.242048
H	-0.5726536193	 1.9401995557	 0.3091046923	 0.243314
H	 0.6819370559	-0.5234924629	-0.7504980616	 0.123516
H	 0.449409784	-1.3300180009	 1.590423055	 0.14117
H	-0.3901624911	 0.2259661905	 2.0661174291	 0.134012
H	-2.0487960227	-4.0569586094	 0.4427951557	 0.123752
H	-3.1388918435	-2.6315594712	 0.8297557654	 0.136199
H	-3.0268067362	-1.8040562501	-1.4943467674	 0.138253
H	-1.9283048238	-3.1839393957	-2.0015002876	 0.123483
73.5877	127.558	144.9915	182.9982	197.8806	258.2663	351.8267	367.6386	400.5291	484.9764	587.5715	612.1685	639.459	799.5613	813.5628	836.3071	867.1175	892.8698	907.2628	949.497	979.6259	1050.6509	1065.9445	1105.7651	1121.5743	1130.5401	1159.969	1175.9	1178.8406	1207.5619	1279.7084	1294.4489	1338.4578	1420.7394	1475.2183	1490.7482	1517.3963	1660.6977	2324.3257	3108.1076	3111.0025	3140.3144	3164.4927	3191.9275	3205.6688	3235.593	3501.9902	3583.4206
NC1CC1(C#N)N1CC1	N[C@H]1C[C@]1(C#N)N1CC1	
InChI=1S/C6H9N3/c7-4-6(3-5(6)8)9-1-2-9/h5H,1-3,8H2	InChI=1S/C6H9N3/c7-4-6(3-5(6)8)9-1-2-9/h5H,1-3,8H2/t5-,6+/m0/s1
