19
gdb 82242	2.5678	1.88374	1.40194	3.0079	73.06	-0.239	0.0612	0.3002	978.1093	0.160818	-422.995971	-422.988552	-422.987607	-423.027696	29.36	
C	-0.6994718559	 1.3813261241	-0.1606959735	-0.403465
C	-0.0478404326	-0.0011749842	-0.0526623505	-0.029208
C	 0.9361891158	-0.3052053587	-1.1754805805	 0.03632
O	 2.1421692659	 0.4586270651	-1.0923957978	-0.247349
C	 2.1745399699	-0.9031326609	-0.6447467083	 0.010083
C	 2.0660859761	-1.017573494	 0.8684437856	 0.100687
O	 2.8815372868	-0.0782248423	 1.5936378904	-0.289237
C	 1.7448216596	 0.7868706389	 1.8273382233	-0.081231
C	 0.7646164448	-0.2602259433	 1.2392623038	-0.100717
H	 0.0574452524	 2.1693764888	-0.1944111204	 0.136757
H	-1.3025023723	 1.4587566379	-1.0712389207	 0.116154
H	-1.3583340904	 1.574562528	 0.6918254658	 0.115887
H	-0.8392490955	-0.7616903469	-0.1065426509	 0.077307
H	 0.575968887	-0.4975475091	-2.1847764685	 0.092474
H	 2.812698904	-1.5669061823	-1.2226180691	 0.097041
H	 2.2125083781	-2.047003277	 1.2143504751	 0.073993
H	 1.6214983272	 1.0021603234	 2.8949845007	 0.096807
H	 1.8308461002	 1.7246933275	 1.2708045396	 0.1143
H	 0.1551383989	-0.733328265	 2.0102363858	 0.083396
120.6178	191.2461	211.4923	245.6876	266.273	416.2885	498.9878	543.3373	644.4215	672.8561	771.4388	815.2472	859.4748	869.2927	891.9693	917.8083	969.868	976.4776	1012.7329	1022.9124	1026.6857	1053.0653	1076.6207	1110.1427	1143.1882	1167.1637	1170.0705	1212.9352	1254.7217	1256.9223	1304.6436	1321.8365	1333.7802	1346.5844	1360.941	1378.6821	1407.3615	1430.6839	1493.728	1502.7881	1515.5716	3009.1735	3029.0438	3038.4766	3045.1845	3083.0582	3101.2451	3101.4526	3120.467	3126.9044	3149.2424
CC1C2OC2C2OCC12	C[C@H]1[C@H]2O[C@H]2[C@H]2OC[C@@H]12	
InChI=1S/C7H10O2/c1-3-4-2-8-6(4)7-5(3)9-7/h3-7H,2H2,1H3	InChI=1S/C7H10O2/c1-3-4-2-8-6(4)7-5(3)9-7/h3-7H,2H2,1H3/t3-,4+,5-,6+,7-/m1/s1
