17
gdb 93810	2.99385	1.38003	1.01174	3.1773	64.89	-0.2796	-0.0027	0.2768	1152.3405	0.135381	-496.138185	-496.129717	-496.128773	-496.171457	31.377	
C	-0.4966520995	 1.3669861232	 0.0803124976	-0.40503
C	-0.0376699966	-0.0649713074	-0.0537590208	 0.20803
O	 0.8578183286	-0.1692149209	-1.1091585674	-0.241919
C	 1.3042844216	-1.5023487685	-1.3630414397	-0.096303
C	 1.2275913127	-2.3872386632	-0.0979705772	-0.033228
O	 2.2013391032	-3.3892177865	-0.1217473228	-0.439387
C	 1.3714019844	-1.5304633408	 1.1562270089	 0.406809
O	 2.0981950339	-1.8477603115	 2.0629304512	-0.351565
O	 0.6234380462	-0.4193841093	 1.1934412008	-0.224296
H	 0.3726580337	 2.0183106016	 0.1949879597	 0.14818
H	-1.0492313055	 1.6601376316	-0.814955509	 0.136233
H	-1.1427286961	 1.4722386711	 0.9542305417	 0.139465
H	-0.8885600927	-0.7535418387	-0.1787160183	 0.088687
H	 0.7196553978	-1.945258311	-2.1788811029	 0.114133
H	 2.3496085474	-1.438744838	-1.6732999778	 0.140293
H	 0.2207471155	-2.8366512378	-0.0408952493	 0.109756
H	 2.6305929353	-3.3485119839	 0.7483166153	 0.300141
74.4185	126.7178	175.4684	215.8053	283.423	308.125	394.8569	406.1468	441.1146	479.3267	530.5013	601.	666.5293	735.759	789.2395	877.4379	940.0944	1029.0345	1052.7895	1070.9913	1110.1189	1134.8367	1155.2299	1176.5989	1239.0903	1258.7651	1292.828	1355.8246	1382.8787	1396.4215	1401.0714	1432.3423	1450.1428	1481.433	1488.2803	1517.4113	1837.6704	2949.4651	2980.6512	3028.8151	3062.4049	3112.7264	3145.8242	3148.2448	3687.5629
CC1OCC(O)C(=O)O1	C[C@H]1OC[C@@H](O)C(=O)O1	
InChI=1S/C5H8O4/c1-3-8-2-4(6)5(7)9-3/h3-4,6H,2H2,1H3	InChI=1S/C5H8O4/c1-3-8-2-4(6)5(7)9-3/h3-4,6H,2H2,1H3/t3-,4+/m0/s1
