26
gdb 6051	2.76644	1.39086	1.20943	0.0842	87.88	-0.2931	0.074	0.367	1213.1848	0.244209	-315.486417	-315.475511	-315.474567	-315.521486	41.328	
C	-0.0577004345	 1.579621987	 0.1833307928	-0.402847
C	 0.0839494635	 0.0616282021	 0.0115073871	-0.186086
C	 0.7042418338	-0.4454692693	-1.3211578979	 0.29264
C	-0.0799196579	 0.1114653833	-2.5259301217	-0.420321
C	 2.1641856003	 0.0447037143	-1.408845986	-0.422344
C	 0.678586357	-2.0160272254	-1.3010945138	 0.043351
C	-0.7344130445	-2.6211897783	-1.3876096801	-0.405127
C	 1.5598158721	-2.6765701632	-2.3764567378	-0.411406
H	 0.9041256682	 2.0987611568	 0.1342899224	 0.116052
H	-0.7127173116	 2.0181532547	-0.5756180308	 0.116624
H	-0.4968237832	 1.805812451	 1.1604494981	 0.110634
H	 0.6913380353	-0.331193134	 0.8380632452	 0.08764
H	-0.9105471289	-0.3807176795	 0.1336152949	 0.092369
H	 0.0637682015	 1.1918342152	-2.6218580927	 0.110823
H	 0.2561190495	-0.3401525283	-3.4648387824	 0.109246
H	-1.1551918572	-0.0704855108	-2.4337312953	 0.109743
H	 2.7832059563	-0.4053128318	-0.6237740253	 0.104555
H	 2.6166809957	-0.1989206752	-2.3737798902	 0.111967
H	 2.2225902126	 1.1309113481	-1.2956947477	 0.108816
H	 1.0974880661	-2.3060372277	-0.3261945292	 0.064681
H	-1.4227276892	-2.212166974	-0.6438470223	 0.112295
H	-1.1774450035	-2.4615611068	-2.3764511958	 0.114467
H	-0.6876993593	-3.7031654588	-1.2257293066	 0.108703
H	 2.617331011	-2.427675715	-2.2637950546	 0.113433
H	 1.4726292655	-3.7662876154	-2.3116925425	 0.107411
H	 1.2520365513	-2.3895050089	-3.3883044276	 0.112678
51.6531	83.4594	197.0777	202.4249	227.995	237.3799	257.7426	281.6337	302.7032	339.3553	357.3787	374.7549	382.1946	438.9711	463.2919	536.2208	686.5881	781.2052	809.7191	904.7648	922.9761	935.2077	941.2422	966.1123	998.6843	1022.4869	1030.04	1065.5177	1112.2086	1127.5041	1178.7926	1218.2177	1231.7249	1256.631	1320.2555	1349.85	1364.7106	1371.6999	1399.4702	1402.6825	1410.2998	1418.4279	1430.7779	1479.0054	1484.5327	1486.835	1489.0847	1495.0465	1506.5048	1508.8265	1510.8668	1513.094	1516.2646	1524.1476	2989.4198	3015.3792	3030.2831	3032.2679	3034.564	3038.4685	3041.5699	3061.7769	3088.7376	3095.6021	3097.0209	3099.2104	3101.2485	3105.6697	3108.3766	3113.0041	3115.7709	3120.8506
CCC(C)(C)C(C)C	CCC(C)(C)C(C)C	
InChI=1S/C8H18/c1-6-8(4,5)7(2)3/h7H,6H2,1-5H3	InChI=1S/C8H18/c1-6-8(4,5)7(2)3/h7H,6H2,1-5H3
