15
gdb 5565	3.38442	1.88196	1.26094	1.4996	63.11	-0.2319	0.0031	0.2349	924.6912	0.119401	-399.832699	-399.825059	-399.824115	-399.865002	27.348	
C	 0.0147251713	 1.4617024216	-0.2393785312	-0.504766
C	-0.1032605403	-0.0088872295	-0.0746984477	 0.273443
C	-1.136768479	-0.8914257274	 0.0023754375	 0.119145
C	-2.6165672068	-0.6490308916	-0.0692282332	-0.175363
O	-2.9739840016	 0.4257454722	-0.9301176789	-0.406043
N	-0.6264333829	-2.1788869014	 0.1754169369	-0.303523
C	 0.6530253315	-2.0139299821	 0.1969075453	 0.057488
O	 1.059073452	-0.7336623121	 0.0474446863	-0.174564
H	 0.66199368	 1.7174593483	-1.0856717668	 0.136849
H	-0.9781841239	 1.8771497377	-0.4161762899	 0.161613
H	 0.4426674362	 1.9321314488	 0.6534122214	 0.139495
H	-3.1040762313	-1.5901963887	-0.3590880896	 0.116917
H	-3.0152377131	-0.3732917094	 0.9138793493	 0.127367
H	-2.6611020987	 0.2011673943	-1.8130184119	 0.284149
H	 1.4248941566	-2.7591424408	 0.3095829625	 0.147794
62.8291	169.4575	185.5218	231.0841	264.4621	353.3137	370.7611	446.9298	646.2967	668.5029	697.6398	742.0669	833.1326	956.6071	969.069	979.4333	1064.6409	1071.0721	1120.6533	1159.7126	1196.989	1226.0136	1294.3334	1346.6739	1391.0569	1415.171	1422.9588	1486.3759	1489.176	1502.336	1560.6988	1666.1975	3012.9624	3031.9937	3060.3292	3082.247	3150.2774	3274.0182	3807.9725
CC1=C(CO)N=CO1	Cc1c(CO)nco1	
InChI=1S/C5H7NO2/c1-4-5(2-7)6-3-8-4/h3,7H,2H2,1H3	InChI=1S/C5H7NO2/c1-4-5(2-7)6-3-8-4/h3,7H,2H2,1H3
