22
gdb 6550	2.98803	1.56095	1.37829	1.4006	78.09	-0.2598	0.0652	0.3251	1055.8218	0.197938	-350.200753	-350.191051	-350.190107	-350.234387	37.026	
C	-1.8227023026	 0.1881331521	 1.4347636053	-0.431885
C	-0.6876839751	-0.0059275995	 0.4474371232	-0.010398
C	 0.0954437688	 1.1701429085	-0.0903326651	-0.311201
C	 0.7904170452	 0.1341861653	 0.7545165855	 0.012774
C	 1.4130484707	 0.4697081342	 2.1129229545	 0.315569
C	 1.5351178522	-0.8012286445	 2.9661243161	-0.427933
C	 2.7903942122	 1.1065014833	 1.8935637784	-0.383804
O	 0.6570685435	 1.4594094847	 2.8231701048	-0.460416
H	-1.7068279663	 1.1060746682	 2.0146295124	 0.124244
H	-2.7756517769	 0.265399534	 0.8994373834	 0.117242
H	-1.9130154503	-0.6550017933	 2.1308776181	 0.109269
H	-0.898264824	-0.7873678123	-0.2797174807	 0.080041
H	 0.3164619792	 1.2301783869	-1.150632692	 0.10207
H	-0.0896803643	 2.1257068537	 0.3899076668	 0.123121
H	 1.4141305372	-0.5670053522	 0.2032344419	 0.073801
H	 2.1500678876	-1.5559285247	 2.4659494491	 0.115835
H	 1.992858499	-0.568878811	 3.9326918864	 0.117544
H	 0.5497496706	-1.2472959289	 3.1444283776	 0.110891
H	 2.686085164	 2.0405598338	 1.3353627648	 0.124303
H	 3.2610667121	 1.3298075708	 2.8553122285	 0.113023
H	 3.4464293884	 0.437143983	 1.3291527993	 0.106394
H	-0.0687035312	 1.0123221478	 3.2680728317	 0.279514
61.6995	152.3411	206.0262	218.86	230.6187	255.6429	284.4768	325.215	353.9953	366.0488	401.9978	412.3919	522.0416	593.8414	702.3109	773.6963	847.3441	860.4399	927.0562	929.2307	948.7632	965.0153	1013.8307	1041.2107	1077.929	1083.0748	1117.9421	1128.4473	1154.4764	1199.3427	1206.5177	1227.2527	1273.8647	1358.9717	1389.9463	1396.8053	1408.8857	1415.7713	1420.5487	1479.8503	1483.7118	1489.2177	1496.1286	1504.845	1507.1659	1512.6765	3024.0695	3027.5551	3042.7965	3076.8412	3095.6276	3109.4446	3110.6557	3116.9269	3120.6112	3123.625	3128.3889	3133.7956	3215.0514	3831.7764
CC1CC1C(C)(C)O	C[C@H]1C[C@H]1C(C)(C)O	
InChI=1S/C7H14O/c1-5-4-6(5)7(2,3)8/h5-6,8H,4H2,1-3H3	InChI=1S/C7H14O/c1-5-4-6(5)7(2,3)8/h5-6,8H,4H2,1-3H3/t5-,6+/m0/s1
