16
gdb 91292	3.27004	1.39731	1.16269	3.5346	63.92	-0.2629	0.0423	0.3052	1041.3487	0.126267	-475.059898	-475.052604	-475.05166	-475.091936	28.342	
O	 0.5976794934	 1.029731201	-0.6378100056	-0.428561
C	 0.162106493	-0.1480070982	-0.0292314078	 0.147818
C	 0.1154462072	-0.230464101	 1.5319550338	-0.305858
C	-1.3184891815	-0.8110382586	 1.4433233523	 0.105718
O	-2.3406623293	-0.0478492654	 2.0803506067	-0.23821
C	-2.8575607233	 0.8627324548	 1.2004464945	 0.471148
O	-3.7281081368	 1.6370556852	 1.473542734	-0.379101
N	-2.1886667609	 0.7347877179	-0.0119506637	-0.378705
C	-1.3693589858	-0.456528788	-0.0725515123	-0.0748
H	-0.027433103	 1.7213702138	-0.3834922407	 0.283597
H	 0.7441229195	-0.9642316618	-0.4653934718	 0.098881
H	 0.8702860813	-0.8544366436	 2.0133092933	 0.116689
H	 0.1177454042	 0.7554240669	 2.0036104023	 0.123086
H	-1.4372804358	-1.8561043166	 1.726114293	 0.104097
H	-2.655263902	 1.1046901699	-0.8244832736	 0.268041
H	-1.7275785503	-1.1902332863	-0.7998293345	 0.086161
82.9118	135.427	231.5306	361.848	387.4407	427.3117	476.4172	537.8556	597.44	635.4998	698.7687	753.6406	769.8071	816.4627	889.503	907.5382	939.7145	953.8673	1044.5334	1051.2325	1099.2633	1130.5543	1154.265	1185.0975	1204.5504	1250.971	1259.7946	1277.3437	1326.5187	1345.5611	1387.6088	1407.9851	1443.7058	1467.2452	1896.2831	3064.0676	3073.9608	3082.4978	3120.6201	3137.4074	3650.0331	3760.6972
OC1CC2OC(=O)NC12	O[C@H]1C[C@H]2OC(=O)N[C@@H]12	
InChI=1S/C5H7NO3/c7-2-1-3-4(2)6-5(8)9-3/h2-4,7H,1H2,(H,6,8)	InChI=1S/C5H7NO3/c7-2-1-3-4(2)6-5(8)9-3/h2-4,7H,1H2,(H,6,8)/t2-,3+,4-/m0/s1
