14
gdb 128973	3.99101	1.71836	1.20118	1.4293	77.94	-0.2248	-0.0493	0.1755	941.2486	0.106733	-395.79058	-395.784808	-395.783864	-395.820579	23.638	
N	 0.0322101079	 1.3261218637	 0.0091817331	-0.158568
C	 1.2710952294	 1.8602761495	 0.0002029298	-0.148185
C	 2.1383334646	 0.7662214792	-0.0141620232	 0.240609
N	 3.4935912738	 0.7083868087	-0.0275299486	-0.34542
C	 3.9895172799	-0.5091753048	-0.0389931985	-0.037329
C	 3.2186348568	-1.711208905	-0.0381753559	-0.105312
C	 1.848059509	-1.6637169959	-0.0247174262	-0.189184
C	 1.26872239	-0.3760678034	-0.0120639213	 0.324224
N	-0.0275993896	-0.0169426746	 0.0023959597	-0.336748
H	-0.8368265106	 1.8363471471	 0.0203449264	 0.284144
H	 1.4442831992	 2.9235682153	 0.0043769204	 0.149428
H	 5.0749561422	-0.5876863179	-0.0498768944	 0.104322
H	 3.7407038972	-2.6617531285	-0.0484237855	 0.102038
H	 1.2329147201	-2.5567332933	-0.0236985357	 0.115982
229.0323	262.8622	438.9211	451.4149	555.5056	596.5261	626.8928	634.0421	693.3719	744.1604	776.1379	811.4044	844.6278	920.3269	941.581	966.3474	992.6989	1029.7379	1069.7277	1143.5236	1199.113	1237.4087	1321.87	1367.0915	1391.4829	1414.1599	1426.8796	1505.0704	1563.79	1577.3068	1651.5885	3145.3878	3186.4892	3203.6445	3277.3844	3652.6945
N1C=C2N=CC=CC2=N1	[nH]1cc2ncccc2n1	
InChI=1S/C6H5N3/c1-2-5-6(7-3-1)4-8-9-5/h1-4H,(H,8,9)	InChI=1S/C6H5N3/c1-2-5-6(7-3-1)4-8-9-5/h1-4H,(H,8,9)
