18
gdb 22813	2.7343	1.44332	1.00191	1.5908	79.68	-0.2193	-0.0313	0.1879	1172.2736	0.149509	-435.248694	-435.240343	-435.239398	-435.281478	32.677	
N	 0.0993875813	 1.3268084274	 0.7448846861	-0.551859
C	 0.0180686045	 0.0251608917	 0.3025317004	 0.3017
N	-1.116990603	-0.5699806931	 0.3246808127	-0.302679
C	-1.2461530413	-1.9821488835	 0.0177246251	-0.140515
C	-0.0577257013	-2.6246719762	-0.7060321938	-0.222062
C	 1.244994761	-2.1627091396	-0.0434857707	-0.276043
C	 1.2964879128	-0.6564912893	-0.0964404086	 0.320493
N	 2.396515789	-0.1574239216	-0.5220374765	-0.202333
O	 2.416674923	 1.2437359271	-0.6162598853	-0.396426
H	-0.8007956511	 1.7690605614	 0.8583011501	 0.245824
H	 0.8450954518	 1.8927841422	 0.3746957365	 0.266487
H	-1.4267330657	-2.5144945568	 0.9653622892	 0.103546
H	-2.1630741304	-2.1155211434	-0.569284674	 0.103944
H	-0.1421741327	-3.7163068588	-0.681684069	 0.09835
H	-0.0529107515	-2.3228380252	-1.7606870479	 0.106976
H	 1.2556114197	-2.4890491351	 1.0059820139	 0.115185
H	 2.1338850735	-2.5709056989	-0.5289066593	 0.116565
H	 3.3131013603	 1.4125851617	-0.9234621187	 0.312846
62.4543	194.1277	249.7549	294.4208	308.6003	353.5516	385.1215	410.2738	439.1627	469.2468	506.4152	584.0665	611.9795	669.2211	689.2006	770.0185	865.9122	893.9963	932.2762	962.3645	978.2106	1059.9071	1096.9169	1178.7116	1195.4749	1211.0701	1248.2207	1288.6235	1345.4518	1366.8857	1376.9201	1385.9841	1410.8844	1477.9662	1485.3854	1496.699	1613.9718	1696.6797	1710.1676	2979.0952	3013.2326	3027.8512	3042.2863	3078.1081	3107.6725	3572.887	3702.4464	3827.1671
NC1=NCCCC1=NO	NC1=NCCCC1=NO	
InChI=1S/C5H9N3O/c6-5-4(8-9)2-1-3-7-5/h9H,1-3H2,(H2,6,7)	InChI=1S/C5H9N3O/c6-5-4(8-9)2-1-3-7-5/h9H,1-3H2,(H2,6,7)
