16
gdb 48398	2.28176	1.72161	1.20407	3.0999	75.48	-0.2318	-0.0336	0.1981	1044.472	0.122173	-400.661384	-400.653	-400.652056	-400.694496	31.452	
O	-0.843514715	 0.9765801406	-0.4081613366	-0.240081
C	 0.2646405068	 0.818477441	 0.0238293129	 0.132487
C	 1.3937743308	 1.8511624136	-0.0890932695	 0.036131
N	 2.6028519584	 1.2524122336	-0.7929687707	-0.381171
C	 2.5742152774	 2.3922719652	-1.7491786603	 0.008204
C	 1.3164227682	 2.3070265835	-2.5470342835	-0.281675
C	 1.2799531044	 2.9373189592	-1.1743021243	-0.107238
C	 1.6929202627	 2.3574097085	 1.2374448474	 0.272437
C	 1.9226316367	 2.7315105757	 2.3576874777	-0.425872
H	 0.5772013957	-0.1130093778	 0.5440320492	 0.091029
H	 3.4063373514	 1.3183650764	-0.1748776867	 0.232074
H	 3.482754118	 2.8868040677	-2.0682750756	 0.101712
H	 1.2249114769	 3.0236194657	-3.3569368926	 0.119036
H	 0.8565972414	 1.341967204	-2.7328368005	 0.127955
H	 0.9404801184	 3.9463965917	-0.9894268276	 0.108278
H	 2.1311294278	 3.0779466512	 3.3401379706	 0.206694
78.0927	124.9105	155.8556	180.6329	236.1701	367.7606	430.5953	469.5542	501.2159	541.1897	638.2869	644.4174	711.8625	759.1165	783.964	837.8511	886.0172	945.5991	957.9358	976.934	1013.7576	1022.187	1048.4967	1083.3329	1085.0869	1153.6128	1167.2845	1210.7095	1284.3917	1311.1402	1388.6714	1412.8715	1483.0842	1839.578	2224.4915	2899.8488	3128.578	3193.2121	3211.9914	3221.2949	3498.2414	3518.0819
O=CC1(NC2CC12)C#C	O=C[C@]1(N[C@H]2C[C@@H]12)C#C	
InChI=1S/C7H7NO/c1-2-7(4-9)5-3-6(5)8-7/h1,4-6,8H,3H2	InChI=1S/C7H7NO/c1-2-7(4-9)5-3-6(5)8-7/h1,4-6,8H,3H2/t5-,6+,7-/m1/s1
