15
gdb 67258	3.13648	1.59757	1.31778	1.7031	64.6	-0.2335	0.06	0.2935	957.7488	0.111497	-457.646156	-457.639165	-457.63822	-457.677375	27.934	
O	-0.1229820471	 1.4414540777	 0.0169850356	-0.439878
C	 0.0172774814	 0.0871230313	 0.0253372521	 0.328093
C	 0.0862040994	-1.0067897715	-0.9832315511	-0.012999
O	 1.2024881774	-1.6797566734	-0.4017914267	-0.279203
C	 0.9020883249	-0.984653241	 0.837558574	-0.150818
C	-0.4243314792	-1.6199977486	 1.2795564681	 0.539908
C	-0.710192143	-2.782951902	 2.1077109539	-0.280589
O	-0.9299341295	-1.4339326994	 2.5843594727	-0.284769
C	-1.0635780528	-0.9837393316	 0.0716546762	-0.28729
H	 0.6559431128	 1.8306048162	-0.3988964103	 0.29894
H	-0.0765090154	-1.0615252021	-2.0514924099	 0.120343
H	 1.7504306336	-0.8463936037	 1.5041506629	 0.098425
H	-1.6160119606	-3.3623766413	 1.936779423	 0.119788
H	 0.1023194809	-3.3202743128	 2.5942513333	 0.120243
H	-2.106318133	-0.9069393776	-0.2047986238	 0.109806
122.4661	243.4186	299.9029	317.7915	356.1035	388.0594	491.3728	556.1145	598.3056	645.3173	759.6989	805.3039	868.5006	881.7262	894.6952	899.1862	928.114	968.7831	1013.3973	1024.7596	1068.5137	1095.9938	1114.1258	1121.6828	1160.0199	1173.7702	1194.8005	1221.4245	1283.8501	1317.5549	1458.2583	1491.9466	1549.5959	3086.6007	3155.6628	3174.0819	3210.2563	3220.6825	3779.5177
OC12C3OC1C1(CO1)C23	O[C@@]12[C@H]3O[C@@H]1[C@]1(CO1)[C@@H]23	
InChI=1S/C6H6O3/c7-6-2-3(6)9-4(6)5(2)1-8-5/h2-4,7H,1H2	InChI=1S/C6H6O3/c7-6-2-3(6)9-4(6)5(2)1-8-5/h2-4,7H,1H2/t2-,3-,4+,5-,6-/m0/s1
