23
gdb 88772	3.46047	1.00969	0.85948	0.2076	90.8	-0.2332	0.0315	0.2647	1431.0868	0.206752	-351.159046	-351.150021	-351.149076	-351.19322	34.818	
C	 0.1220139667	 1.5528466441	-0.3640021163	-0.407295
C	 0.037182894	 0.0685795376	-0.0788925761	 0.000678
C	 1.2724900143	-0.8006387037	-0.0892062794	-0.311947
C	 0.532099805	-0.5593874784	 1.2072578016	 0.001101
C	 1.1555227181	 0.2291200604	 2.3363193782	 0.027751
C	 0.1326625427	 0.8788934108	 3.3130397305	-0.268673
C	 0.83536971	 0.8162432534	 4.6479914619	-0.062509
C	 1.8965857381	 0.0118883912	 4.6150416901	-0.062617
C	 2.0938025886	-0.6093349987	 3.2531962882	-0.267902
H	 1.047588228	 1.991938236	 0.0193417521	 0.116669
H	 0.096696025	 1.7415100674	-1.4431721492	 0.11451
H	-0.7156166085	 2.097429862	 0.0868278153	 0.115414
H	-0.8560036015	-0.3971155511	-0.4888318798	 0.07874
H	 1.2269830395	-1.7820122732	-0.5490111898	 0.104869
H	 2.2283538426	-0.2993762128	-0.214025246	 0.10451
H	-0.0671315868	-1.3974675701	 1.5603841721	 0.074649
H	 1.7628819081	 1.0388326187	 1.9170775103	 0.069113
H	-0.1378174443	 1.8970286187	 3.0106703337	 0.09987
H	-0.8086495025	 0.3095056838	 3.3421926357	 0.099633
H	 0.4745840564	 1.3422209371	 5.5254842672	 0.086911
H	 2.5336760381	-0.2195269936	 5.4620111714	 0.087051
H	 1.7992385897	-1.6696593247	 3.2646586269	 0.100119
H	 3.1346285085	-0.5876610947	 2.9108949814	 0.099356
61.9682	82.4722	130.5368	203.0228	212.0876	339.3902	361.5989	384.6648	395.456	513.6081	607.2821	720.3584	769.5727	779.3276	815.8087	854.702	887.3896	915.1851	919.2921	952.0925	974.6803	977.1465	998.0714	1015.1503	1047.3266	1070.1097	1087.6849	1114.0047	1128.5329	1146.4854	1150.0605	1150.4706	1198.6039	1220.6363	1256.5249	1288.3584	1290.8888	1325.4492	1339.448	1369.0015	1395.303	1419.7745	1436.053	1483.1753	1490.6683	1493.0714	1494.6462	1506.9467	1687.2479	2995.3684	2996.0407	3026.2689	3034.063	3050.5662	3059.4454	3083.8895	3100.5122	3110.0774	3120.8064	3132.8345	3176.0345	3201.9548	3204.5006
CC1CC1C1CC=CC1	C[C@H]1C[C@H]1[C@H]1CC=CC1	
InChI=1S/C9H14/c1-7-6-9(7)8-4-2-3-5-8/h2-3,7-9H,4-6H2,1H3	InChI=1S/C9H14/c1-7-6-9(7)8-4-2-3-5-8/h2-3,7-9H,4-6H2,1H3/t7-,9+/m0/s1
