19
gdb 75480	2.94875	1.07924	0.83033	4.095	80.24	-0.2487	0.0074	0.2561	1378.5409	0.158499	-423.072311	-423.063204	-423.06226	-423.107178	32.632	
C	-0.0797326146	 1.5841154821	-0.1713692406	-0.503438
C	 0.0108358264	 0.0930241713	-0.1162855476	 0.32563
C	 0.090032127	-0.7737438403	-1.1272254234	-0.16815
C	 0.1303176106	-2.2127976617	-0.6782499931	-0.258467
C	 0.3494449337	-2.095532013	 0.8502513651	-0.241528
C	-0.0294614725	-0.643862524	 1.205050058	 0.034315
O	 0.916230166	-0.0733492508	 2.1370767261	-0.190865
C	 0.4979252325	 0.2247059209	 3.3788118861	 0.168482
O	 1.2187737823	 0.6796024414	 4.2159079933	-0.279639
H	 0.7376613247	 2.0451839649	 0.3938593598	 0.148374
H	-0.0383363931	 1.9495304633	-1.2003750945	 0.127321
H	-1.0147635668	 1.9425943384	 0.2791770126	 0.123855
H	 0.0907044822	-0.4916881484	-2.175128455	 0.095141
H	-0.8141377586	-2.722287467	-0.912598578	 0.111795
H	 0.9188053177	-2.7908468752	-1.1729324068	 0.111964
H	-0.2140827549	-2.8321915083	 1.4277417056	 0.103797
H	 1.4079734255	-2.2237678317	 1.0923544179	 0.13147
H	-1.028280638	-0.5701034201	 1.6619873028	 0.085997
H	-0.5776394301	 0.0058500882	 3.5340674117	 0.073944
45.7186	71.9149	149.6485	173.2905	216.9771	246.1774	265.5404	373.3089	402.9818	481.2855	592.4919	653.555	721.0999	818.1834	867.7445	900.3565	930.2781	957.3362	994.0585	1037.4807	1045.7906	1054.5281	1066.3797	1080.4162	1163.0114	1197.467	1202.8906	1249.7589	1279.5112	1301.4292	1330.6798	1354.6262	1375.0784	1413.4294	1438.8309	1477.4761	1483.8921	1491.966	1501.8803	1728.2894	1862.7178	2934.6291	2982.2823	3016.6053	3020.6377	3054.9847	3068.555	3076.3032	3114.3597	3119.4619	3185.6241
CC1=CCCC1OC=O	CC1=CCC[C@H]1OC=O	
InChI=1S/C7H10O2/c1-6-3-2-4-7(6)9-5-8/h3,5,7H,2,4H2,1H3	InChI=1S/C7H10O2/c1-6-3-2-4-7(6)9-5-8/h3,5,7H,2,4H2,1H3/t7-/m1/s1
