22
gdb 103879	2.33137	1.25375	1.00559	0.9263	88.16	-0.2246	0.0396	0.2642	1307.4958	0.191173	-367.150287	-367.139845	-367.138901	-367.185429	39.06	
C	-0.0438171336	 0.8465370861	-0.6168302614	-0.388004
C	 0.2225094163	-0.5432555502	-0.0198418559	-0.256541
C	 0.8690532355	-0.532038128	 1.36125802	 0.345513
C	 0.0741401515	 0.1838739801	 2.440119474	-0.440284
C	 1.7116666242	-1.7010164932	 1.7634208233	-0.304167
N	 2.3227947852	-0.394896953	 1.5448134761	-0.124981
C	 3.2747849879	-0.1784917474	 0.4496204081	-0.285767
C	 3.3663324752	-1.1749551854	-0.6236198441	 0.300744
C	 3.4846836576	-2.010303733	-1.4815476331	-0.464219
H	 0.8782348961	 1.4283622536	-0.717724227	 0.117393
H	-0.4854396593	 0.7548845561	-1.6138760278	 0.114612
H	-0.736530791	 1.4300546183	-0.003212955	 0.119709
H	-0.7312153796	-1.0810987187	 0.0657563979	 0.096602
H	 0.8388473747	-1.1226071842	-0.7109096367	 0.118951
H	-0.9328242956	-0.2409541211	 2.526324066	 0.109871
H	 0.5750928085	 0.0911664901	 3.4063580431	 0.121906
H	-0.029107139	 1.2514493506	 2.2209810014	 0.117873
H	 1.7148248961	-2.0581512167	 2.7914659251	 0.104264
H	 1.8819356309	-2.4709654307	 1.0132316956	 0.117447
H	 3.0728288818	 0.8081070286	 0.0165339968	 0.13807
H	 4.2677146577	-0.1054708519	 0.9128869493	 0.141126
H	 3.5828788587	-2.73819432	-2.2487696958	 0.199883
55.0376	113.4471	137.0307	179.2046	192.4928	223.5759	262.0803	285.0262	333.6777	363.6725	391.7311	425.1849	508.0743	604.8618	611.9803	661.017	680.9811	745.2458	790.2286	880.571	914.2025	926.0435	976.6853	998.3134	1011.4335	1045.6049	1062.8212	1117.6302	1135.6144	1147.8245	1179.5539	1266.7396	1283.9158	1312.8713	1342.6947	1366.9299	1402.5958	1411.1457	1419.2811	1468.5684	1479.7554	1491.481	1494.3067	1503.1573	1511.0685	1511.5014	2221.7088	3017.5434	3020.1671	3032.4319	3040.2853	3056.5049	3087.792	3093.5448	3098.3115	3105.7564	3117.5518	3123.3887	3171.7195	3501.7682
CCC1(C)CN1CC#C	CC[C@@]1(C)CN1CC#C	
InChI=1S/C8H13N/c1-4-6-9-7-8(9,3)5-2/h1H,5-7H2,2-3H3	InChI=1S/C8H13N/c1-4-6-9-7-8(9,3)5-2/h1H,5-7H2,2-3H3/t8-,9?/m0/s1
