16
gdb 29005	2.55403	1.55742	0.97331	2.1672	80.42	-0.2596	-0.082	0.1776	1151.1571	0.125509	-400.822805	-400.814947	-400.814003	-400.855404	28.881	
C	-0.0284826896	 1.5306562266	-0.0277821173	-0.513333
C	-0.0066261975	 0.022097204	 0.0220488045	 0.191503
C	-0.0312805733	-0.712005972	-1.169714378	-0.039262
N	-0.0155914	-2.0415707694	-1.2503730286	-0.269653
C	 0.0270288401	-2.7276931649	-0.1032153058	 0.000348
C	 0.0548402975	-2.1161235723	 1.1411772464	-0.174462
C	 0.0380351959	-0.7211365617	 1.213613465	 0.104602
C	 0.0682904003	-0.078403457	 2.5553991329	 0.094363
O	 0.1071363287	-0.694572936	 3.5947731748	-0.254228
H	 0.8612171603	 1.9706507346	 0.4347952263	 0.143566
H	-0.0634775207	 1.873126824	-1.0650921962	 0.135266
H	-0.901154852	 1.946838195	 0.4863859639	 0.143561
H	-0.0660054315	-0.1784203539	-2.1180974895	 0.108966
H	 0.0391400322	-3.8109736058	-0.189726808	 0.117779
H	 0.0892743896	-2.6909452415	 2.0592819065	 0.1312
H	 0.0530450001	 1.0301680004	 2.5579181933	 0.079785
107.1358	145.1161	167.0129	220.2439	253.1002	328.0602	444.5943	471.1904	525.0588	556.3728	662.9024	763.7732	809.3656	851.9782	865.4033	960.2833	1006.4606	1014.9453	1038.4816	1068.2339	1074.1673	1172.3288	1212.8506	1253.3344	1287.8091	1328.4718	1415.5987	1437.3829	1441.4165	1487.2602	1493.1449	1514.5483	1598.9456	1624.995	1796.2482	2929.2781	3037.2953	3093.2596	3116.401	3142.0018	3164.8828	3210.6522
CC1=CN=CC=C1C=O	Cc1cnccc1C=O	
InChI=1S/C7H7NO/c1-6-4-8-3-2-7(6)5-9/h2-5H,1H3	InChI=1S/C7H7NO/c1-6-4-8-3-2-7(6)5-9/h2-5H,1H3
