19
gdb 56746	2.83221	1.32483	1.08841	4.5465	79.5	-0.259	0.0222	0.2812	1156.4606	0.16085	-382.025698	-382.017306	-382.016361	-382.059013	32.045	
N	-0.0288514804	 1.4875127271	 0.0840511564	-0.501658
C	 0.0112240425	 0.0262727134	-0.0488101201	-0.281895
C	-1.3516890548	-0.5119823228	 0.100276863	 0.300386
N	-2.4166412268	-0.9539581649	 0.1723394157	-0.327383
C	 0.6271745435	-0.5003454559	-1.3409623901	 0.367734
C	 2.0745183339	-0.2164955009	-1.8502975234	-0.279834
C	 1.4113830435	-1.125615071	-2.925118748	-0.044915
C	 0.8483924937	-1.9863818426	-1.7583862621	-0.260266
C	 0.1390636884	-0.2389135962	-2.7995789896	-0.258142
H	 0.9204189876	 1.8443968426	 0.020484658	 0.239596
H	-0.542448681	 1.8850336646	-0.6981798229	 0.241964
H	 0.601078	-0.359901091	 0.7936752141	 0.131409
H	 2.2979773567	 0.8116241906	-2.1494846739	 0.090139
H	 2.8923448649	-0.6544320192	-1.2707294008	 0.095167
H	 1.8688299031	-1.4858436146	-3.8457419968	 0.081903
H	 1.5752330022	-2.5545124465	-1.1711843087	 0.094279
H	-0.0508710616	-2.5716080207	-1.9639614848	 0.111489
H	-0.8116253316	-0.6963010401	-3.0838181746	 0.110734
H	 0.2208606162	 0.7871666679	-3.1697375814	 0.089294
59.2864	114.2098	181.5524	211.5197	243.634	331.7513	390.4681	466.7463	538.4105	551.6703	595.9756	695.3359	801.6931	802.6392	866.4528	881.7967	904.089	952.1011	961.8499	963.0413	989.7078	1001.164	1094.0591	1095.9482	1113.15	1136.2632	1146.0314	1154.4431	1169.0059	1203.8733	1227.6621	1235.2516	1238.3618	1292.9426	1316.2229	1398.7746	1497.7299	1499.1212	1554.4637	1656.5396	2361.9247	3023.9987	3043.7206	3050.3814	3056.8629	3110.0288	3120.0201	3121.1406	3124.8527	3486.2988	3570.724
NC(C#N)C12CC(C1)C2	N[C@@H](C#N)[C@@]12C[C@@H](C1)C2	
InChI=1S/C7H10N2/c8-4-6(9)7-1-5(2-7)3-7/h5-6H,1-3,9H2	InChI=1S/C7H10N2/c8-4-6(9)7-1-5(2-7)3-7/h5-6H,1-3,9H2/t5-,6-,7-/m0/s1
