15
gdb 131636	3.26105	1.20109	0.89313	1.6006	64.7	-0.1989	0.0265	0.2254	1218.4521	0.112443	-491.086291	-491.077217	-491.076272	-491.120253	32.531	
O	-0.130551749	 1.3827437937	-0.4486310652	-0.426426
C	 0.0136860484	 0.0943594498	 0.1428741387	-0.194039
C	-1.3197437316	-0.5702992077	 0.1038735674	 0.318107
C	-1.6890175548	-1.8980737016	 0.0577124279	 0.079089
O	-0.8539596316	-2.9768819214	 0.028623958	-0.462086
C	-3.1006656294	-1.8745711019	 0.0676223217	 0.323016
O	-3.871851534	-2.9885532819	 0.0349699382	-0.4503
N	-3.5868277033	-0.6459407583	 0.1082612615	-0.331363
N	-2.4817370708	 0.1371020961	 0.1670514999	-0.271561
H	 0.6646328769	 1.8889283046	-0.2592050064	 0.294734
H	 0.7419166235	-0.5296370906	-0.3953038156	 0.120049
H	 0.3696060064	 0.1850912823	 1.1820845208	 0.110658
H	-1.399457329	-3.7652130923	-0.0644541583	 0.305978
H	-4.7930264418	-2.7019063784	 0.0251463439	 0.305896
H	-2.5610688799	 1.1300507375	 0.0348224676	 0.278248
55.8861	139.4035	184.7821	236.1026	247.3934	259.769	299.9968	317.5944	360.9965	377.1158	464.8005	569.5205	613.7126	661.9295	718.5623	761.6296	804.4251	1018.0285	1030.2988	1072.3489	1135.7186	1212.7932	1222.6824	1237.8638	1287.3473	1308.9855	1339.0726	1453.6491	1478.6503	1516.0346	1547.3491	1594.5873	1692.1203	2965.635	3011.5294	3693.1551	3806.0546	3823.4693	3835.8709
OCC1=C(O)C(O)=NN1	OCc1c(O)c(O)n[nH]1	
InChI=1S/C4H6N2O3/c7-1-2-3(8)4(9)6-5-2/h7-8H,1H2,(H2,5,6,9)	InChI=1S/C4H6N2O3/c7-1-2-3(8)4(9)6-5-2/h7-8H,1H2,(H2,5,6,9)
