21
gdb 88869	3.67437	0.93717	0.84083	2.5932	78.7	-0.2505	0.0772	0.3278	1434.0186	0.182866	-424.212718	-424.203616	-424.202672	-424.248041	33.068	
C	-1.0657739298	 0.9448495923	 0.4226675763	-0.422834
C	-0.0824750605	-0.142766868	 0.0733174037	 0.076744
O	 1.124268494	 0.2437340358	-0.5950932958	-0.269566
C	 1.2319232693	-0.3379610846	 0.7106467273	 0.04131
C	 1.8078680133	 0.5185295041	 1.8079613382	-0.00311
C	 1.6335225984	-0.0846280734	 3.2271068584	-0.268175
C	 2.9992267695	 0.1812343407	 3.9133925545	-0.071045
O	 3.7440922325	 1.0136265886	 3.0336090811	-0.242081
C	 3.337544242	 0.6821678205	 1.7193516971	-0.098759
H	-0.5748379806	 1.816109812	 0.8603545094	 0.130597
H	-1.5955938667	 1.2741719893	-0.4773032254	 0.131577
H	-1.8126760444	 0.5695833396	 1.1307866974	 0.122053
H	-0.5431176982	-1.0356049359	-0.356459814	 0.086732
H	 1.6322947211	-1.3565303228	 0.6994269368	 0.084188
H	 1.360794355	 1.5143834472	 1.7721157465	 0.082717
H	 0.8034621206	 0.3838449373	 3.7603073826	 0.112013
H	 1.4233571553	-1.157918842	 3.1779713977	 0.103536
H	 2.9125697118	 0.7026761687	 4.8704342268	 0.108943
H	 3.5339903574	-0.7653014891	 4.0877338831	 0.090893
H	 3.8065586933	-0.2600905377	 1.3835153066	 0.083199
H	 3.6549774763	 1.4835751175	 1.0490501919	 0.121066
35.5595	51.7205	129.8249	175.1539	192.4051	240.2429	366.0121	390.5373	398.837	528.8818	636.9942	695.0028	779.1149	809.9299	856.9929	900.8129	941.4366	960.1627	967.6168	989.8105	1011.6298	1052.8412	1081.1968	1109.0919	1126.4437	1145.1312	1175.9419	1188.9337	1227.5998	1232.4632	1274.2058	1287.9317	1301.4935	1311.9059	1316.3327	1364.5419	1398.7016	1408.311	1421.5735	1471.1015	1491.4701	1496.3365	1508.9227	1513.8142	1527.031	2947.0482	2981.4996	3039.4718	3053.1114	3057.0562	3078.5564	3079.8435	3084.8863	3099.815	3107.0001	3112.8549	3135.8031
CC1OC1C1CCOC1	C[C@H]1O[C@H]1[C@H]1CCOC1	
InChI=1S/C7H12O2/c1-5-7(9-5)6-2-3-8-4-6/h5-7H,2-4H2,1H3	InChI=1S/C7H12O2/c1-5-7(9-5)6-2-3-8-4-6/h5-7H,2-4H2,1H3/t5-,6+,7-/m1/s1
