20
gdb 16025	3.59156	1.80145	1.44389	1.696	74.29	-0.2555	0.0819	0.3373	939.0352	0.179397	-349.01336	-349.006141	-349.005197	-349.044516	29.013	
C	 0.074217424	 1.4918043258	 0.0092908503	-0.252391
O	 1.2194212271	 0.6338001404	-0.0062560895	-0.283508
C	-0.0919314057	 0.0345625678	 0.0030689177	 0.45051
C	-0.4364508257	-0.7138463955	 1.2773688571	-0.264736
C	 0.1685137663	-2.12790096	 1.2565464249	-0.19198
C	-0.2402232488	-2.8926250604	-0.011192389	-0.183421
C	 0.1442789229	-2.1143217078	-1.2782491889	-0.19198
C	-0.4608292929	-0.700186667	-1.2723539152	-0.264737
H	-0.0781719495	 2.0507070419	 0.9326172125	 0.106472
H	-0.0957374452	 2.0605685917	-0.904901526	 0.106473
H	-0.0754918983	-0.1482683038	 2.1420423745	 0.099135
H	-1.5298915576	-0.7814849508	 1.363586522	 0.094884
H	 1.2620258657	-2.0422119092	 1.2919363459	 0.109993
H	-0.1354457191	-2.679044084	 2.153085976	 0.08984
H	 0.2261466476	-3.8840205989	-0.0209631718	 0.092198
H	-1.3269442562	-3.0592878123	-0.0016951227	 0.089396
H	 1.2369231708	-2.0281459448	-1.3336204383	 0.109993
H	-0.1768233893	-2.6558599335	-2.1746658195	 0.08984
H	-1.5557251557	-0.7670103975	-1.3383710221	 0.094884
H	-0.1164082906	-0.125343012	-2.137662658	 0.099135
111.284	185.3896	289.7205	310.9565	382.9203	397.1025	452.8889	474.6239	559.5355	697.1515	784.7501	812.4887	842.9927	869.7046	879.5075	937.9151	947.8186	956.0157	1016.102	1038.8504	1077.1816	1098.8144	1128.9729	1132.5963	1166.1535	1171.8316	1249.2116	1267.227	1275.1088	1304.9295	1351.7226	1363.6584	1369.0242	1375.8901	1379.4652	1437.6764	1467.182	1477.9812	1487.0283	1490.3225	1503.9869	1532.2815	3007.046	3011.9341	3018.336	3027.8514	3028.0478	3063.8074	3069.78	3071.7942	3074.431	3078.9508	3082.5623	3155.7749
C1OC11CCCCC1	C1OC21CCCCC2	
InChI=1S/C7H12O/c1-2-4-7(5-3-1)6-8-7/h1-6H2	InChI=1S/C7H12O/c1-2-4-7(5-3-1)6-8-7/h1-6H2
