19
gdb 42336	4.13495	0.94526	0.86823	3.3971	76.78	-0.2487	-0.0205	0.2283	1375.8311	0.158992	-423.00698	-422.998158	-422.997214	-423.042353	31.398	
O	 0.1622986671	-0.121100163	 0.5254406558	-0.333947
C	 0.0268038604	 1.0533616103	 0.2473725909	 0.375469
C	 1.186184561	 1.9138980202	-0.1240731291	-0.105548
C	 2.5148011113	 1.628993318	 0.5666331582	-0.248401
C	 2.3423323149	 1.251658919	-0.8622328121	-0.249226
C	-1.3307118991	 1.730360186	 0.2374405118	-0.160713
C	-1.9444098734	 1.9765025396	-1.1724334572	-0.074183
O	-3.0458590062	 1.1018767481	-0.8876882684	-0.268326
C	-2.5594283802	 0.8309558261	 0.4478862184	-0.089322
H	 0.9633644491	 2.9471564242	-0.3668711176	 0.08844
H	 3.1327005217	 2.4839045281	 0.8154072067	 0.120437
H	 2.4958572858	 0.8314526949	 1.300308033	 0.140747
H	 2.2075606176	 0.2002576281	-1.0881890462	 0.141788
H	 2.839384832	 1.838412244	-1.625986726	 0.120429
H	-1.2910776339	 2.6308408934	 0.856477314	 0.099904
H	-2.2683949421	 3.0062376271	-1.3682108152	 0.104234
H	-1.3408522196	 1.62513859	-2.0191584836	 0.109485
H	-2.3169387072	-0.2255351309	 0.5965587085	 0.129588
H	-3.2674335993	 1.1649931367	 1.214931268	 0.099144
34.3738	55.7702	76.8595	158.8011	226.8408	273.7147	313.999	371.5275	599.1576	719.087	755.9823	802.264	826.3187	829.4885	880.3232	886.7141	896.6932	954.6162	1017.5515	1033.863	1050.2311	1066.2648	1092.4697	1101.5747	1116.6457	1128.8709	1135.4464	1162.2834	1167.81	1211.02	1223.1122	1228.3524	1307.8658	1341.322	1376.1878	1410.1527	1454.1	1485.1043	1510.9387	1536.2823	1782.085	3007.8545	3032.0524	3049.1649	3074.6909	3093.7673	3142.2276	3143.6446	3169.0398	3230.1632	3244.5715
O=C(C1CC1)C1COC1	O=C(C1CC1)C1COC1	
InChI=1S/C7H10O2/c8-7(5-1-2-5)6-3-9-4-6/h5-6H,1-4H2	InChI=1S/C7H10O2/c8-7(5-1-2-5)6-3-9-4-6/h5-6H,1-4H2
