19
gdb 22155	2.90058	0.75376	0.68985	2.4797	79.89	-0.2498	-0.0055	0.2443	1708.6966	0.155559	-456.297919	-456.287164	-456.28622	-456.335445	36.729	
C	 0.3533947299	 0.9914942644	 2.1229688479	-0.314803
N	 0.1795322422	 0.0770683374	 1.0138002861	-0.207552
C	 0.899912271	-0.9519275514	 0.9960756189	 0.130972
O	 0.8128871522	-1.8304686081	-0.0303312489	-0.205687
C	 1.5892099198	-3.0256767398	 0.1059339762	-0.173492
C	 0.9161786738	-4.035543617	 1.001561731	 0.352281
C	-0.4634795058	-4.5115311321	 0.6502792693	-0.485934
N	 1.6104170618	-4.4067379535	 2.0092956975	-0.157794
O	 0.9546215996	-5.3703392804	 2.7809261758	-0.38997
H	 0.6410782571	 1.9788261924	 1.7437973217	 0.127955
H	-0.6008001225	 1.1187644297	 2.6468445508	 0.127586
H	 1.1105386367	 0.6698881676	 2.8569829439	 0.096634
H	 1.6420573241	-1.2211281871	 1.7628617725	 0.088379
H	 1.6763056509	-3.4158572822	-0.9130448447	 0.127045
H	 2.5923117184	-2.8087397744	 0.4874496121	 0.12683
H	-0.4082345533	-5.4055050528	 0.0168220152	 0.142979
H	-1.0227411436	-4.7786231832	 1.5478702317	 0.15375
H	-0.9969567698	-3.7358856784	 0.0964805462	 0.151411
H	 1.5770435375	-5.5135211109	 3.5020291667	 0.30941
43.2147	50.5412	73.2425	78.5428	190.9665	208.706	217.3754	300.3543	312.4534	339.2755	376.2712	424.1965	468.9264	529.6087	594.3544	672.1152	819.906	944.5299	977.5803	984.3555	1019.0055	1053.6779	1057.1258	1103.017	1141.2302	1152.1846	1194.6046	1276.5399	1305.225	1382.0887	1398.6238	1403.0512	1417.2409	1450.2909	1478.1234	1480.7692	1486.4802	1488.0935	1505.3448	1733.2937	1779.8091	2967.45	3005.2332	3038.4878	3046.0969	3058.2149	3077.4032	3098.2637	3109.8488	3152.7031	3816.5621
CN=COCC(C)=NO	CN=COCC(=NO)C	
InChI=1S/C5H10N2O2/c1-5(7-8)3-9-4-6-2/h4,8H,3H2,1-2H3	InChI=1S/C5H10N2O2/c1-5(7-8)3-9-4-6-2/h4,8H,3H2,1-2H3
