20
gdb 53957	2.43386	1.25664	1.16939	4.8545	74.28	-0.2474	0.023	0.2704	1186.8042	0.170351	-440.308418	-440.298928	-440.297984	-440.342757	35.933	
C	 0.0208537233	 1.5785445147	 0.0120955334	-0.412851
C	-0.0163465746	 0.0430883789	 0.1280600678	 0.051016
N	 0.7697240382	-0.349126027	 1.3118072485	-0.567093
H	 0.6608215423	 0.3185213714	 2.0667948378	 0.244072
H	 0.4929949626	-1.2609478745	 1.6612266477	 0.244575
H	 2.1074105522	-0.7493717063	 0.0533916997	 0.304538
C	-1.4656959903	-0.4413932738	 0.1020170403	 0.042777
C	-1.9318722254	-1.7144604146	 0.7561248325	-0.294998
C	-2.3522735589	-0.3755636161	 1.3157443099	-0.285701
C	 0.7083172292	-0.5105604871	-1.1326105453	 0.446952
O	 1.9739297391	-0.8856517059	-0.9108869035	-0.377713
O	 0.1910141826	-0.5555890127	-2.2171600367	-0.354214
H	 1.0516505708	 1.9455762698	 0.0313158415	 0.12714
H	-0.4410078356	 1.8928236172	-0.9257900864	 0.150097
H	-0.5326320001	 2.0316403933	 0.8411345254	 0.118083
H	-1.9328650094	-0.2211471472	-0.8510865558	 0.117115
H	-2.6625440042	-2.3131127956	 0.2245227	 0.125488
H	-1.2378176836	-2.3091229779	 1.3429926655	 0.103599
H	-1.9046900364	-0.0756352819	 2.2584107881	 0.096913
H	-3.3800430917	-0.0533712249	 1.1928077495	 0.120204
63.2065	77.3911	172.3134	237.4615	252.2466	255.8452	296.9143	322.4168	375.2898	406.3878	475.0014	519.2925	617.072	723.3835	762.844	784.3593	818.2586	834.6689	869.4328	895.7814	929.2291	962.7607	984.5589	1023.3203	1058.2039	1073.3678	1081.4755	1142.3776	1152.4178	1193.7439	1218.7958	1222.2689	1249.1757	1311.6063	1389.0924	1402.2523	1425.9183	1470.043	1490.8911	1497.5006	1509.9032	1645.8895	1862.1766	3037.8819	3108.3638	3125.3635	3130.6903	3138.5752	3179.3968	3204.3743	3219.7543	3471.1257	3509.7058	3593.6822
CC([NH3+])(C1CC1)C([O-])=O	C[C@@](N)(C1CC1)C(=O)O	
InChI=1S/C6H11NO2/c1-6(7,5(8)9)4-2-3-4/h4H,2-3,7H2,1H3,(H,8,9)	InChI=1S/C6H11NO2/c1-6(7,5(8)9)4-2-3-4/h4H,2-3,7H2,1H3,(H,8,9)/t6-/m1/s1
