20
gdb 90263	3.53937	1.4564	1.21452	2.0938	79.14	-0.2026	0.0727	0.2753	1076.6452	0.171472	-403.074237	-403.066366	-403.065422	-403.106506	30.917	
C	-0.3284570096	 1.4333254123	-0.0531758382	-0.326869
N	 0.132937499	 0.0669140247	 0.0169187699	-0.065481
C	 1.2027883724	-0.3983212982	-0.9070159643	-0.282862
C	 1.979665435	-0.8772441475	 0.3076507918	 0.472566
O	 2.7795974447	-2.0322143031	 0.4523340214	-0.328725
C	 3.6040999603	-1.3399932596	 1.4359165147	-0.106979
C	 2.9109456649	 0.0181854907	 1.150168578	-0.129054
C	 1.7335972223	 0.4355674619	 2.0693937965	-0.268329
C	 0.7809192833	-0.4778520283	 1.2342143926	-0.070265
H	 0.4681076171	 2.1954947192	 0.0391699048	 0.091798
H	-0.8321280054	 1.6004491061	-1.0116210327	 0.123006
H	-1.0600534559	 1.6149926629	 0.7412976063	 0.122719
H	 0.8540104768	-1.1796964329	-1.5941653062	 0.111189
H	 1.70441049	 0.3860052244	-1.4930060923	 0.09106
H	 3.4536988351	-1.7416623119	 2.4457586717	 0.104009
H	 4.6642603459	-1.403389217	 1.171868816	 0.111565
H	 3.5474897067	 0.7884973108	 0.7121716932	 0.073694
H	 1.8355638903	 0.1372628594	 3.1174850475	 0.100269
H	 1.4927136393	 1.5014443366	 2.0409878079	 0.104381
H	 0.1461327479	-1.1774363907	 1.7860867111	 0.07231
79.6716	174.9778	212.5329	250.8446	316.0777	347.0912	386.4633	464.1018	481.4998	649.7384	731.3547	744.4957	819.4135	851.7806	881.6655	921.6645	936.4953	975.9532	994.4438	1020.3306	1064.0685	1068.4829	1102.7731	1107.8217	1144.1424	1151.3976	1168.1696	1192.2581	1204.2958	1232.6563	1252.9826	1266.203	1293.4229	1307.2476	1318.6574	1347.7745	1359.0494	1450.2814	1468.9336	1485.2119	1508.347	1513.3471	1517.0477	2926.3766	2988.9612	3021.899	3035.7799	3047.4566	3050.6279	3058.2751	3077.6634	3094.2307	3095.2461	3105.877
CN1CC23OCC2CC13	CN1C[C@@]23OC[C@@H]2C[C@@H]13	
InChI=1S/C7H11NO/c1-8-4-7-5(3-9-7)2-6(7)8/h5-6H,2-4H2,1H3	InChI=1S/C7H11NO/c1-8-4-7-5(3-9-7)2-6(7)8/h5-6H,2-4H2,1H3/t5-,6+,7+/m0/s1
