20
gdb 99653	2.43722	1.23864	0.90158	1.7838	82.55	-0.2416	0.0365	0.2781	1341.8173	0.168142	-403.068298	-403.058043	-403.057099	-403.103975	36.896	
C	 0.3558136944	 1.5594466882	 0.0049537263	-0.238611
O	-0.1283424817	 0.2646207629	-0.2871733052	-0.217718
C	 0.6666614443	-0.4452603064	-1.211919485	-0.045229
C	 1.998728269	-0.7632244896	-0.6666755974	 0.329601
C	 3.0860822004	-1.028782302	-0.2281606437	-0.480192
C	-0.0284343662	-1.7314501989	-1.6544555129	-0.037298
N	-0.7949782236	-2.4990778187	-0.6760827439	-0.319463
C	-1.4895732714	-1.9486889621	-1.8543537492	-0.005534
C	-2.5873778064	-0.9379935887	-1.6228182066	-0.402226
H	 1.3515455554	 1.525684103	 0.4662628262	 0.123304
H	 0.4095548531	 2.184588083	-0.9002151708	 0.102891
H	-0.3500724922	 2.0089578398	 0.7064651097	 0.130184
H	 0.8149263182	 0.1715439135	-2.1179359626	 0.092156
H	 4.0450415391	-1.2636740945	 0.1634934728	 0.198946
H	 0.6214829023	-2.2854499133	-2.331780696	 0.090556
H	-0.6162819841	-3.4939596532	-0.7751780716	 0.230494
H	-1.7128978203	-2.6583768397	-2.6529274296	 0.077324
H	-2.3435606072	-0.2886532411	-0.7841769046	 0.153325
H	-2.7376591955	-0.3210500453	-2.5161911773	 0.106622
H	-3.5310531975	-1.4536401867	-1.4128722987	 0.110865
40.8739	97.3466	125.6872	164.9579	176.8863	198.7846	252.0455	256.5686	328.5199	370.723	418.3728	517.8071	581.8035	621.6557	659.8108	674.2022	784.0477	839.2577	857.4333	947.2996	980.0101	1004.0504	1030.4547	1054.7719	1088.6833	1143.4869	1160.499	1184.0712	1199.9139	1230.983	1259.5816	1282.1436	1324.402	1366.4979	1397.6307	1427.6288	1470.4217	1480.7102	1485.2329	1497.0801	1504.1328	1511.1912	2227.5954	2928.1229	2981.4513	3034.0774	3047.3143	3083.5082	3087.8076	3106.8351	3124.3996	3174.4367	3501.5597	3511.1358
COC(C#C)C1NC1C	CO[C@@H](C#C)[C@H]1N[C@H]1C	
InChI=1S/C7H11NO/c1-4-6(9-3)7-5(2)8-7/h1,5-8H,2-3H3	InChI=1S/C7H11NO/c1-4-6(9-3)7-5(2)8-7/h1,5-8H,2-3H3/t5-,6-,7-/m0/s1
