25
gdb 83334	1.99738	1.58251	1.43649	0.1355	92.12	-0.273	0.0853	0.3582	1163.9932	0.229877	-352.363304	-352.353949	-352.353004	-352.396348	37.553	
C	-0.2348866478	 1.6021274827	 0.8178025157	-0.442331
C	-0.0599947768	 0.1194183652	 0.5158139698	 0.011067
C	 0.9496377363	-0.3967120603	-0.55548631	-0.042845
C	 2.2932180181	 0.1777712049	-0.0632727743	-0.226868
C	 2.1517867689	-0.1520216104	 1.4593963597	-0.25332
C	 0.7630487888	-0.8329369388	 1.4526432002	 0.339827
C	 0.2238345219	-1.3284769511	 2.775275278	-0.507017
C	 0.9216122505	-1.7656840828	 0.1968592739	 0.0188
C	-0.1982326984	-2.7474074708	-0.1295273248	-0.44162
H	 0.7097978114	 2.1175037997	 1.0105854108	 0.116001
H	-0.7210018161	 2.1117167168	-0.0220765029	 0.112612
H	-0.8730257653	 1.7464876069	 1.6973134411	 0.11254
H	-1.0473794792	-0.3127185893	 0.335519453	 0.063122
H	 0.7347547436	-0.3277899863	-1.6239265134	 0.046867
H	 3.1462888273	-0.3272938385	-0.5258377349	 0.091023
H	 2.398894168	 1.2483450971	-0.2591924582	 0.092222
H	 2.929824956	-0.833531697	 1.8181641246	 0.088814
H	 2.1793333858	 0.7380657377	 2.0952839967	 0.090089
H	 0.0880406403	-0.5008204298	 3.4816166928	 0.113204
H	-0.7451862396	-1.8253408485	 2.6574949604	 0.111366
H	 0.9109465685	-2.0449653074	 3.2414360557	 0.111377
H	 1.8756555502	-2.3077640311	 0.1686609631	 0.050883
H	-1.191271303	-2.290237681	-0.1431749469	 0.117141
H	-0.033534466	-3.1978227646	-1.1147566332	 0.113093
H	-0.2234529335	-3.5637868333	 0.6011341734	 0.113951
170.9767	178.3388	195.6965	205.7334	211.6772	238.5005	302.1923	313.4752	333.8959	412.7621	488.0744	582.0571	599.2843	691.1354	728.4257	779.0015	796.6287	854.7044	890.8828	913.3476	938.2039	957.5021	990.8318	1023.1973	1045.3781	1054.0464	1061.0942	1068.5866	1141.4009	1148.0966	1159.2656	1177.8567	1189.5927	1232.2711	1245.9441	1255.1687	1260.3134	1280.1708	1314.2083	1340.003	1391.0083	1404.5767	1407.5366	1414.6065	1424.3332	1486.2124	1490.9375	1491.8782	1496.4963	1498.2081	1503.766	1510.8524	1522.7645	3011.866	3018.7932	3029.05	3031.0404	3044.4717	3055.714	3069.9634	3077.6441	3079.8228	3084.1799	3085.7608	3089.1742	3091.7134	3097.8267	3109.2761	3114.8586
CC1C2CCC1(C)C2C	C[C@H]1[C@H]2CC[C@]1(C)[C@H]2C	
InChI=1S/C9H16/c1-6-8-4-5-9(6,3)7(8)2/h6-8H,4-5H2,1-3H3	InChI=1S/C9H16/c1-6-8-4-5-9(6,3)7(8)2/h6-8H,4-5H2,1-3H3/t6-,7-,8-,9+/m0/s1
