18
gdb 85743	3.36756	1.19806	1.02542	5.1341	75.64	-0.2787	0.0324	0.3111	1189.5816	0.148587	-401.96317	-401.955052	-401.954108	-401.995987	30.739	
C	 0.0543431715	 1.5670290461	 0.0150206477	-0.407519
C	 0.0382032031	 0.0370571251	 0.0148367619	-0.010442
C	 0.7657210475	-0.5904215748	-1.2009199736	-0.243518
C	 1.2568692793	-1.9861819274	-0.7178691608	-0.182543
C	 2.4244576319	-2.4822386769	-1.4426901127	 0.275896
N	 3.3454274148	-2.8772924673	-2.0182858575	-0.322758
C	 1.4871915782	-1.7827568586	 0.7803858459	 0.034892
O	 2.1779135356	-0.574846975	 1.092188456	-0.248752
C	 0.7445039182	-0.5932297764	 1.2039373592	 0.041682
H	 1.0830868317	 1.9373337483	 0.0636027783	 0.137663
H	-0.4095211717	 1.9660116527	-0.892373744	 0.121136
H	-0.4926383838	 1.9689993619	 0.8739153014	 0.118273
H	-1.0034183975	-0.3134898157	 0.03708428	 0.082236
H	 0.1286471412	-0.6672607167	-2.0838268441	 0.118288
H	 1.6323890033	 0.0185582748	-1.4648244597	 0.140632
H	 0.455883616	-2.7287296738	-0.8298916379	 0.128151
H	 1.6970074225	-2.6351045778	 1.4202186667	 0.114289
H	 0.3558741683	-0.4748581485	 2.2125462832	 0.102394
86.8927	133.8536	169.2882	233.0266	275.171	329.3734	383.8763	460.2007	547.0133	557.9355	619.4479	671.6888	831.073	833.9562	858.733	897.8345	934.1457	953.2314	995.7275	1030.3171	1050.8696	1069.99	1100.2499	1131.4374	1148.4337	1197.1576	1257.3984	1277.3884	1298.0414	1315.3883	1332.2695	1349.3278	1375.7929	1410.5603	1435.9213	1489.5653	1498.477	1501.463	2359.7773	3009.5278	3030.703	3036.4476	3083.5902	3105.0476	3112.7351	3132.8894	3145.4019	3163.3608
CC1CC(C#N)C2OC12	C[C@H]1C[C@@H](C#N)[C@H]2O[C@@H]12	
InChI=1S/C7H9NO/c1-4-2-5(3-8)7-6(4)9-7/h4-7H,2H2,1H3	InChI=1S/C7H9NO/c1-4-2-5(3-8)7-6(4)9-7/h4-7H,2H2,1H3/t4-,5-,6-,7+/m0/s1
