16
gdb 67334	3.11374	1.56952	1.31756	0.743	69.2	-0.2586	-0.0439	0.2147	975.5301	0.12312	-437.790133	-437.782581	-437.781637	-437.8224	28.799	
O	-0.1697448939	 1.2660954178	-0.1599876572	-0.468548
C	-0.03820824	-0.0989292352	-0.0748321277	 0.368343
C	 0.4455185395	-0.898619956	 1.163015198	-0.035111
C	-0.9593633062	-1.0768114657	 1.7457743691	-0.267866
C	-1.1252807138	-1.1980645569	 0.2284404976	-0.075892
N	 0.1871905454	-2.0151124098	 0.1067852532	-0.18143
C	 0.6994569947	-1.0674035469	-0.9908681786	-0.130476
C	 0.1465171065	-1.3071162575	-2.3685143481	 0.13847
O	-0.6445062803	-0.5561742789	-2.8911979519	-0.256665
H	-0.5776535532	 1.4571519361	-1.0143685872	 0.296771
H	 1.4173879162	-0.8352118274	 1.6548285261	 0.090635
H	-1.130131169	-1.9868664121	 2.3256367278	 0.112501
H	-1.4042664505	-0.1992231351	 2.2176879522	 0.117829
H	-1.9997487123	-1.4651742531	-0.3645093104	 0.097711
H	 1.7972085608	-1.0311180916	-1.0143856784	 0.096687
H	 0.504010376	-2.2208215978	-2.8908791846	 0.097042
74.2361	128.3807	211.9523	276.5996	339.1977	405.2002	414.1003	490.5904	626.2931	703.4058	734.6647	765.726	848.7633	881.5141	891.8529	922.7909	929.6669	949.8325	1018.8698	1027.1897	1061.7383	1081.5949	1114.0353	1142.6266	1169.2944	1187.0942	1208.102	1229.2226	1272.1933	1294.5701	1375.4103	1402.2183	1420.6453	1487.2796	1802.8003	2902.2096	3025.9982	3070.2029	3109.1388	3123.0096	3139.5412	3783.6251
OC12C3CC1N3C2C=O	O[C@@]12[C@H]3C[C@@H]1N3[C@H]2C=O	
InChI=1S/C6H7NO2/c8-2-5-6(9)3-1-4(6)7(3)5/h2-5,9H,1H2	InChI=1S/C6H7NO2/c8-2-5-6(9)3-1-4(6)7(3)5/h2-5,9H,1H2/t3-,4+,5-,6+/m0/s1
