19
gdb 12353	2.90989	2.0837	1.50264	2.3569	71.11	-0.2422	0.0331	0.2753	910.5763	0.166771	-365.087169	-365.079272	-365.078328	-365.119046	30.047	
C	-0.0486346118	 1.5465394739	-0.0435596614	-0.414165
C	 0.0560892963	 0.0205958722	-0.0057050151	-0.015214
C	 0.6971475802	-0.5626933339	-1.2721547757	-0.159805
N	 0.9551486908	-1.9961757918	-1.1894530533	-0.273439
C	 0.9862525189	-2.5228433782	-0.0404876301	 0.124013
O	 0.8514468626	-1.9527235359	 1.1813435998	-0.239316
C	 0.8125989403	-0.5070419318	 1.2238210612	 0.123478
C	 2.2360785323	 0.0177277975	 1.4060332935	-0.403064
H	 0.9313820725	 2.0158503284	-0.1765946796	 0.121771
H	-0.6823224344	 1.8658515869	-0.877003684	 0.121751
H	-0.4889362275	 1.9426081909	 0.8781692146	 0.115006
H	-0.9587154844	-0.3929495462	 0.0658475633	 0.088485
H	 0.0463294235	-0.3852093639	-2.1363894456	 0.108612
H	 1.6402972715	-0.045847963	-1.5014129936	 0.106941
H	 1.1323373	-3.5960356752	 0.0731212122	 0.119921
H	 0.234998887	-0.2833176428	 2.1271848434	 0.08998
H	 2.8528852302	-0.170382833	 0.5224157136	 0.132387
H	 2.2320455583	 1.0934205856	 1.6026108279	 0.122669
H	 2.7035820837	-0.4828387599	 2.2579508091	 0.129989
110.5622	161.4863	216.4317	238.7522	280.9313	314.6473	389.9286	466.7291	490.9343	536.993	579.8926	745.1594	848.873	881.0104	904.407	959.0724	969.514	984.8515	999.6662	1044.6855	1086.8018	1138.4544	1152.6938	1169.582	1205.2581	1250.9429	1324.2743	1344.3678	1360.9748	1386.797	1397.5661	1412.9353	1414.2585	1416.1276	1484.3867	1490.1613	1497.376	1504.1338	1508.0283	1733.9502	3000.5836	3017.7101	3032.0694	3046.9355	3048.4532	3051.0702	3097.8623	3105.5202	3123.2922	3124.6836	3152.3654
CC1CN=COC1C	C[C@H]1CN=CO[C@H]1C	
InChI=1S/C6H11NO/c1-5-3-7-4-8-6(5)2/h4-6H,3H2,1-2H3	InChI=1S/C6H11NO/c1-5-3-7-4-8-6(5)2/h4-6H,3H2,1-2H3/t5-,6-/m0/s1
