25
gdb 99768	1.793	1.35654	0.91847	1.3768	85.02	-0.246	0.0762	0.3221	1427.1089	0.225666	-426.624381	-426.612686	-426.611742	-426.660942	42.818	
C	-0.435768809	 1.3100533048	 0.1450769698	-0.250263
O	 0.1677469061	 0.0539827431	-0.0978936265	-0.273666
C	 0.8484453805	-0.5204564454	 1.0278097071	 0.10658
C	 0.1561181309	-1.8296944942	 1.4477477877	 0.02447
C	 0.8751724013	-2.4956424927	 2.6312782578	-0.400436
C	-1.3231632968	-1.5914030108	 1.7814148963	-0.398934
C	 2.3340781674	-0.6482046965	 0.6237823785	 0.123569
C	 2.589717644	-1.6795874503	-0.478129594	-0.408156
O	 2.8098662969	 0.6344929324	 0.2299720605	-0.443642
H	 0.2988738554	 2.0550215608	 0.4809135606	 0.116971
H	-0.8739290131	 1.6428507693	-0.800301565	 0.12377
H	-1.234529178	 1.245231938	 0.8968983363	 0.110551
H	 0.8064621868	 0.1868394614	 1.8692819386	 0.070306
H	 0.1957941574	-2.5094090826	 0.5873178806	 0.082998
H	 0.3364086732	-3.3940208081	 2.9489013639	 0.113693
H	 1.8978107478	-2.7961172123	 2.3865044328	 0.12023
H	 0.9227408645	-1.8195214048	 3.493572268	 0.11464
H	-1.8513710063	-1.1501006297	 0.9332045968	 0.126273
H	-1.8179211064	-2.5347612073	 2.0343147834	 0.108977
H	-1.4323067378	-0.9212470303	 2.6430638776	 0.10698
H	 2.9185495088	-0.9068794769	 1.5128183772	 0.08465
H	 1.9442918001	-1.4849622545	-1.3408774033	 0.124685
H	 3.6317679633	-1.6111462375	-0.8007960484	 0.120349
H	 2.4022620525	-2.7022355723	-0.1369705093	 0.114177
H	 2.2470397804	 0.8963906963	-0.5089608571	 0.281228
70.5937	82.146	97.2568	176.0226	180.6741	196.531	231.9935	246.5673	267.1168	292.9029	317.5752	350.4053	382.0827	445.7023	455.1527	476.4313	491.8952	641.1504	821.6162	864.2404	904.4236	928.785	958.3264	966.2039	981.4418	1056.3896	1076.314	1103.6343	1134.8423	1157.6319	1174.7639	1181.2688	1193.5868	1225.3761	1288.0379	1293.7361	1338.6251	1356.7088	1370.0777	1392.3309	1395.8076	1405.6468	1419.821	1430.0356	1479.289	1486.8647	1490.7419	1492.3918	1494.3553	1499.4993	1505.3011	1510.4724	1519.9271	2987.3796	2998.3461	3024.9519	3027.4237	3033.783	3040.3476	3046.4466	3057.5941	3088.4954	3095.7444	3104.9662	3107.8684	3111.8799	3121.6656	3123.6143	3784.7474
COC(C(C)C)C(C)O	CO[C@@H](C(C)C)[C@@H](C)O	
InChI=1S/C7H16O2/c1-5(2)7(9-4)6(3)8/h5-8H,1-4H3	InChI=1S/C7H16O2/c1-5(2)7(9-4)6(3)8/h5-8H,1-4H3/t6-,7+/m1/s1
