16
gdb 88346	4.51814	0.8598	0.80079	1.1346	71.05	-0.2565	-0.0328	0.2237	1417.1818	0.123012	-475.037915	-475.029212	-475.028268	-475.072101	31.369	
O	 0.0214267888	 1.2270721208	-0.4605706623	-0.416457
C	-0.0733116789	-0.1021334355	-0.1098798056	 0.15596
C	-0.3010797076	-0.5569838026	 1.282412488	-0.326175
C	-1.4350855428	-0.744583589	 0.2626015382	-0.234093
C	-2.5686555387	 0.1784614499	 0.3490012049	 0.517838
O	-2.5000255191	 1.3432020101	 0.6864454429	-0.400254
O	-3.7339037529	-0.4274336117	-0.0326400182	-0.210508
C	-4.8846688149	 0.3262021027	-0.0512974538	 0.113851
N	-5.9501634894	-0.245898258	-0.392869394	-0.415206
H	-0.67913785	 1.7081122091	 0.0083924478	 0.30613
H	 0.5496752416	-0.7144435891	-0.7532879093	 0.125659
H	 0.180023706	-1.4613016768	 1.6372270366	 0.131539
H	-0.470641485	 0.2070809101	 2.0336005872	 0.14157
H	-1.6602405426	-1.7407329756	-0.09352784	 0.121696
H	-4.7192828957	 1.3620053603	 0.2436246124	 0.146142
H	-6.722320549	 0.4186351854	-0.3665307149	 0.242308
54.1083	103.72	139.1583	158.0374	222.2072	282.565	368.1226	447.1926	481.7736	511.6826	540.2891	717.4418	742.3134	794.5852	822.8272	853.3361	895.625	949.1399	993.9085	1049.9576	1060.541	1071.3997	1097.8964	1116.6779	1139.5299	1181.2171	1238.1472	1263.1987	1360.3596	1384.7395	1411.8888	1449.1843	1483.2736	1746.3579	1773.4972	3137.1543	3145.5702	3175.4317	3206.9435	3233.0764	3508.2254	3683.646
OC1CC1C(=O)OC=N	O[C@H]1C[C@H]1C(=O)O[CH][NH]	
InChI=1S/C5H7NO3/c6-2-9-5(8)3-1-4(3)7/h2-4,6-7H,1H2	InChI=1S/C5H7NO3/c6-2-9-5(8)3-1-4(3)7/h2-4,6-7H,1H2/t3-,4+/m1/s1
