21
gdb 99975	2.70655	1.10299	0.96133	0.3784	80.04	-0.2636	0.0305	0.294	1310.8929	0.178001	-424.185144	-424.173931	-424.172987	-424.22064	41.357	
C	-0.0719968881	 1.5835552297	 0.1081484868	-0.431997
C	-0.0173805473	 0.0481919645	 0.057357356	 0.243279
C	 0.7247784006	-0.5044989948	 1.2855798047	-0.423937
C	-1.4460897751	-0.5239873126	 0.019596275	-0.100172
O	-2.129460189	-0.1193128945	 1.1989882595	-0.430288
C	 0.6965643051	-0.4375134598	-1.2421363883	-0.066974
O	 0.0017716214	-0.0483909212	-2.428143982	-0.430922
C	 2.100959926	-0.0227370081	-1.3055025019	 0.294488
C	 3.2394593171	 0.3547397395	-1.3925397702	-0.440763
H	 0.9340396707	 2.0117654015	 0.1434933071	 0.11868
H	-0.5904378567	 1.9908443211	-0.7670539045	 0.100301
H	-0.6219457988	 1.9076464813	 0.9937717302	 0.136399
H	 0.1662781572	-0.2685045174	 2.1938222865	 0.135702
H	 0.8256799628	-1.5948278966	 1.2280682766	 0.105121
H	 1.7275092422	-0.0773143432	 1.3672097863	 0.1217
H	-1.9568022627	-0.1636138254	-0.8821131592	 0.103153
H	-1.3933367983	-1.6240745547	-0.0430572721	 0.077765
H	-3.0470063739	-0.3939528665	 1.1208410739	 0.28813
H	 0.6590590492	-1.5350024144	-1.2473621795	 0.11245
H	 0.2559253729	 0.8584784614	-2.6286724727	 0.288431
H	 4.2506421947	 0.6713015202	-1.4682708222	 0.199452
74.0028	117.1297	134.5311	204.7516	214.2212	228.247	237.0375	242.0208	279.813	296.9662	331.6675	346.4989	391.225	419.8029	467.0642	588.3946	623.7168	644.3875	668.1292	762.4161	856.1426	939.6902	964.845	971.5397	982.2607	1038.6701	1060.7496	1090.7967	1176.8018	1207.6121	1227.8563	1261.8665	1282.9732	1294.8245	1348.8109	1393.2015	1407.0397	1416.4482	1455.6805	1485.8592	1494.7669	1501.2336	1516.7283	1527.333	2228.8107	2958.4662	3020.9732	3033.5214	3037.6394	3041.7319	3102.1903	3105.3878	3131.9556	3135.5412	3501.2374	3820.3187	3839.9542
CC(C)(CO)C(O)C#C	CC(C)(CO)[C@@H](O)C#C	
InChI=1S/C7H12O2/c1-4-6(9)7(2,3)5-8/h1,6,8-9H,5H2,2-3H3	InChI=1S/C7H12O2/c1-4-6(9)7(2,3)5-8/h1,6,8-9H,5H2,2-3H3/t6-/m0/s1
