17
gdb 82430	2.36526	1.8693	1.2148	2.4969	67.95	-0.25	-0.0367	0.2133	1012.0361	0.136222	-458.955532	-458.947769	-458.946825	-458.987996	29.901	
O	-0.0066790009	 1.4297576503	 0.0609782192	-0.436434
C	-0.0087959957	 0.0312269167	-0.0331935117	 0.029212
C	-1.4037993807	-0.565693508	 0.043427015	-0.076911
C	-2.4517808709	-0.2220052963	-0.9908724477	-0.294799
C	-1.8201213465	-1.5830262871	-0.9946631967	 0.09005
O	-0.9546188766	-1.8739163322	-2.0617393134	-0.25698
C	 0.4279881765	-1.8467086961	-1.7277350962	-0.170743
C	 0.7492613251	-0.4313952863	-1.275346578	 0.348944
O	 1.5087380998	 0.3176011949	-1.8465962777	-0.323171
H	 0.6928484053	 1.7253188779	-0.5427544239	 0.292904
H	 0.5720309644	-0.4123739597	 0.801668675	 0.095
H	-1.7655469832	-0.7337393504	 1.0524381581	 0.100894
H	-3.4785034715	-0.114632848	-0.6610541682	 0.119809
H	-2.1561742973	 0.44341915	-1.7942436773	 0.13515
H	-2.3977225066	-2.4467669643	-0.6726945605	 0.09943
H	 0.6712695333	-2.5759461927	-0.9394431547	 0.109045
H	 0.9853415653	-2.0881684988	-2.6340529011	 0.138599
68.185	145.9304	201.7091	293.056	372.541	386.6232	432.9802	444.1759	534.101	551.5029	649.0019	689.6906	776.5521	813.13	847.9765	888.661	974.3905	999.7433	1025.5218	1045.7277	1062.4738	1101.0602	1128.6724	1150.6727	1182.4098	1199.125	1238.6917	1250.6056	1275.3659	1338.3864	1355.8018	1378.6938	1403.3911	1433.3417	1479.251	1487.3687	1816.2469	2893.5588	2988.2656	3125.978	3129.3668	3142.9498	3160.0022	3233.2261	3698.5505
OC1C2CC2OCC1=O	O[C@H]1[C@H]2C[C@H]2OCC1=O	
InChI=1S/C6H8O3/c7-4-2-9-5-1-3(5)6(4)8/h3,5-6,8H,1-2H2	InChI=1S/C6H8O3/c7-4-2-9-5-1-3(5)6(4)8/h3,5-6,8H,1-2H2/t3-,5+,6-/m0/s1
