19
gdb 59101	2.14679	1.53292	1.12995	3.4695	71.05	-0.2733	0.0074	0.2806	1157.416	0.157818	-460.198298	-460.188947	-460.188003	-460.232444	34.511	
C	-0.0780203475	 1.6854738218	-0.0501256317	-0.416637
C	 0.0391182259	 0.1603915912	-0.0105478917	 0.104922
O	 0.814327417	-0.2691590484	 1.1048487438	-0.42819
C	-1.3492505748	-0.4989803629	-0.019440358	-0.226927
C	-1.5280880588	-2.0411111177	-0.0598014763	 0.120507
C	-0.3226325034	-2.9540367547	-0.0633548391	-0.417055
O	-2.173407674	-1.9836338806	 1.2727065883	-0.251191
C	-1.9909509437	-0.6378551794	 1.361515854	 0.454696
O	-2.2320273863	 0.0781847649	 2.2855004332	-0.347728
H	 0.916054443	 2.1345822577	 0.0177147685	 0.12912
H	-0.5519857542	 2.0247067817	-0.9767153548	 0.11828
H	-0.6837215333	 2.0426609784	 0.7902478867	 0.142663
H	 0.5991052177	-0.1868398867	-0.8868480249	 0.098629
H	 0.417828564	 0.1095086638	 1.8996575125	 0.295613
H	-2.0052515789	 0.0147337591	-0.727713137	 0.110868
H	-2.2767630571	-2.3673309463	-0.7872488518	 0.09827
H	 0.4276690202	-2.6159686477	 0.6521721227	 0.160311
H	-0.6287016669	-3.9749475516	 0.1828898685	 0.131537
H	 0.1260983313	-2.9696450527	-1.062577353	 0.122309
79.1774	102.9121	139.3302	191.9177	228.3282	263.5621	279.2882	360.5329	405.8421	426.5532	474.3783	526.7139	547.5005	708.6884	750.7747	808.1595	861.5051	878.4564	914.0086	1011.8013	1044.3525	1048.0041	1056.5856	1086.0251	1147.2322	1154.9325	1179.8043	1211.5997	1290.7548	1317.6582	1340.6551	1352.0322	1386.2734	1405.9041	1417.2353	1429.3451	1488.3846	1493.1135	1501.0737	1501.8165	1909.1193	3035.4286	3042.7561	3045.5069	3067.0744	3083.2582	3107.4473	3109.3224	3124.5332	3156.5467	3780.8283
CC(O)C1C(C)OC1=O	C[C@@H](O)[C@H]1[C@@H](C)OC1=O	
InChI=1S/C6H10O3/c1-3(7)5-4(2)9-6(5)8/h3-5,7H,1-2H3	InChI=1S/C6H10O3/c1-3(7)5-4(2)9-6(5)8/h3-5,7H,1-2H3/t3-,4-,5+/m1/s1
