19
gdb 126196	1.95798	1.69643	0.97508	2.2332	78.7	-0.2106	0.0327	0.2434	1235.2267	0.159285	-419.247694	-419.237981	-419.237037	-419.28292	34.939	
C	-0.2769860464	 1.6085915663	-0.0122945491	-0.368098
C	 0.0472163839	 0.1061725671	-0.0910174392	-0.307363
C	 0.7718391801	-0.4102896998	 1.1153239965	 0.042187
C	 2.0967901981	-0.79417893	 1.2560122355	 0.290639
C	 3.2284659691	-0.8196394495	 0.2812458474	-0.50422
N	 2.2542505339	-1.1702993055	 2.5510441682	-0.274102
N	 1.1147522529	-1.0633520713	 3.2858033993	-0.341266
C	 0.2353707941	-0.6047222183	 2.4125862651	 0.362189
O	-1.0506564587	-0.3587249719	 2.7541023543	-0.433462
H	 0.638078902	 2.2041193948	 0.068416439	 0.110282
H	-0.8231738789	 1.9400271701	-0.9015601296	 0.105411
H	-0.8936697901	 1.8210514552	 0.8657359868	 0.13416
H	-0.890061331	-0.4501465885	-0.2157708764	 0.112042
H	 0.6414140812	-0.0928827156	-0.9905825754	 0.09259
H	 3.8684625042	 0.0663427986	 0.3711299755	 0.139957
H	 3.8619736079	-1.7012298403	 0.4272558548	 0.129152
H	 2.8510013716	-0.8493977691	-0.7434890275	 0.144068
H	 3.0862508487	-1.519081113	 2.9930531824	 0.265387
H	-1.1432400724	-0.5878667891	 3.6872823524	 0.300447
42.8477	65.9937	135.7808	181.4889	198.7639	277.406	285.1008	318.1421	381.8304	392.0892	458.4089	510.4051	579.8839	657.3911	690.4471	752.6156	768.8697	808.4406	969.4562	993.1123	1006.6053	1056.3913	1085.3921	1128.7953	1164.8404	1225.9148	1264.6991	1300.0348	1319.0118	1360.8509	1404.7464	1416.0868	1458.3611	1478.4134	1486.5098	1493.6124	1496.1586	1508.7429	1537.5034	1560.1023	1646.2758	3024.3831	3028.4709	3034.3956	3058.5368	3081.6868	3102.8971	3116.4909	3122.5664	3685.8029	3795.3875
CCC1=C(C)NN=C1O	CCc1c(C)[nH]nc1O	
InChI=1S/C6H10N2O/c1-3-5-4(2)7-8-6(5)9/h3H2,1-2H3,(H2,7,8,9)	InChI=1S/C6H10N2O/c1-3-5-4(2)7-8-6(5)9/h3H2,1-2H3,(H2,7,8,9)
