22
gdb 78558	2.66555	1.44116	1.14274	0.9654	87.62	-0.2269	0.0911	0.3179	1186.376	0.193145	-367.156622	-367.147559	-367.146614	-367.189721	35.589	
C	-0.0792158829	 1.5147524293	 0.0944074631	-0.319926
N	 0.1267660553	 0.0809950481	-0.0490266374	-0.118745
C	 0.6610402896	-0.5213753292	-1.2564650824	-0.189594
C	 1.7687177205	 0.3071723155	-1.8899829509	 0.389395
C	 2.3426727363	 0.0746723232	-3.2552061438	-0.342714
C	 1.654782356	 1.382819514	-2.9330969742	-0.321068
C	 2.5575660693	 0.300482381	-0.5663273745	-0.387389
C	 1.4238412365	-0.557636608	 0.0540346131	 0.336603
C	 1.6340183691	-1.6558059134	 1.0545547781	-0.483689
H	 0.6812471924	 2.1453592489	-0.3848452776	 0.113004
H	-1.0513888283	 1.7723318503	-0.3381980949	 0.119029
H	-0.1108403366	 1.7604738553	 1.1608532573	 0.117331
H	 0.0807065984	-1.2925367473	-1.7558318117	 0.083022
H	 3.4225312928	 0.077404706	-3.365414063	 0.110172
H	 1.8310217849	-0.6230333016	-3.9115393827	 0.111569
H	 0.6828298242	 1.5745264582	-3.3764838099	 0.112421
H	 2.2747924915	 2.2670950339	-2.8217565647	 0.110779
H	 3.4972739243	-0.2539291501	-0.6415478823	 0.104217
H	 2.7564797454	 1.2651497228	-0.0875200041	 0.09431
H	 1.9161197043	-1.2471275752	 2.0328154064	 0.117527
H	 0.7143734542	-2.2319689351	 1.184876519	 0.129403
H	 2.4337015228	-2.3332224265	 0.7358235271	 0.114344
113.3352	169.6828	193.2229	200.7669	224.3271	255.819	309.846	354.6564	377.488	476.8879	492.9742	595.0832	683.3196	722.1715	777.216	834.9011	855.867	907.3926	910.8675	930.9311	967.1027	971.5668	996.5373	1020.936	1054.3978	1076.2877	1115.0823	1132.7585	1145.565	1160.3192	1183.3012	1188.8437	1206.6881	1232.8364	1235.7818	1269.2106	1382.3094	1399.8593	1431.5609	1453.3294	1464.4944	1481.0554	1484.6402	1489.7183	1494.7457	1504.3919	1507.5186	3011.9224	3024.4347	3041.6986	3075.6609	3082.5246	3093.8517	3099.0971	3118.3352	3119.3681	3123.1873	3146.199	3195.806	3210.9964
CN1C2C3(CC3)CC12C	CN1[C@H]2C3(CC3)C[C@@]12C	
InChI=1S/C8H13N/c1-7-5-8(3-4-8)6(7)9(7)2/h6H,3-5H2,1-2H3	InChI=1S/C8H13N/c1-7-5-8(3-4-8)6(7)9(7)2/h6H,3-5H2,1-2H3/t6-,7-,9?/m1/s1
