13
gdb 123518	4.11854	1.8065	1.25571	2.9848	75.6	-0.228	-0.0855	0.1425	895.0754	0.093769	-411.821631	-411.815958	-411.815014	-411.851612	22.64	
C	-0.0340624689	 1.3019110114	 0.0096688749	 0.017276
N	 1.1911151432	 1.8091412835	 0.0008361376	-0.254044
C	 2.0622306955	 0.7660823619	-0.0133699665	-0.156572
C	 1.3719135753	-0.4341238141	-0.0136461942	 0.38493
N	 1.7129040367	-1.7332581983	-0.0243060601	-0.298692
C	 0.7213645972	-2.5878925759	-0.0197484961	-0.060529
C	-0.6495115382	-2.1711216294	-0.0043288251	 0.019412
N	-1.0264706786	-0.9214486962	 0.0063886001	-0.202462
N	 0.003039167	-0.0511945845	 0.001561807	 0.000808
H	-0.9625408766	 1.8503958555	 0.0216474109	 0.150737
H	 3.1316890019	 0.9058428991	-0.0227563264	 0.131482
H	 0.9612220557	-3.6471263785	-0.0280722838	 0.128136
H	-1.4517826601	-2.9014457546	-0.0008545083	 0.139519
218.9489	231.8494	443.0976	454.0077	578.2965	596.371	649.25	672.8943	751.3246	766.5154	802.5635	851.0631	882.4672	898.635	942.8535	966.0744	1031.4343	1147.7226	1208.3579	1231.4888	1252.5106	1304.7781	1366.1185	1402.2611	1423.297	1470.2498	1504.1902	1581.9055	1628.445	3172.314	3196.7166	3261.5744	3270.2512
C1=NC=C2N=CC=NN12	c1ncc2nccnn12	
InChI=1S/C5H4N4/c1-2-8-9-4-6-3-5(9)7-1/h1-4H	InChI=1S/C5H4N4/c1-2-8-9-4-6-3-5(9)7-1/h1-4H
