18
gdb 53110	2.39382	1.10012	0.82551	3.6661	82.69	-0.2329	0.032	0.265	1428.0091	0.1457	-401.954142	-401.944131	-401.943187	-401.991583	34.64	
C	-0.0232754703	 1.5741608436	-0.1391788383	-0.498188
C	 0.0040220727	 0.1205805883	-0.0704586956	 0.04957
C	 0.0227834717	-1.0831628688	-0.0267822904	 0.119527
C	 0.0243438844	-2.5261973019	 0.0189214231	-0.373667
C	 0.2679093066	-3.2508008752	 1.4009404549	 0.05955
C	 0.4307050385	-2.3867792693	 2.6391238917	-0.395644
N	-1.0577097038	-3.8580878875	 1.2228807629	-0.329475
C	-1.3673749777	-3.2552289672	 0.0338928789	 0.433335
O	-2.3204055924	-3.3024317666	-0.6914816783	-0.356123
H	 0.9887200753	 1.9932101488	-0.1664450526	 0.147486
H	-0.5472972309	 1.9140362252	-1.0392697533	 0.155002
H	-0.5389842177	 2.0051256845	 0.7259380149	 0.149007
H	 0.6556510437	-2.9459499254	-0.7712132801	 0.124603
H	 1.0764754355	-3.9885574238	 1.3371988918	 0.087884
H	-0.3528008312	-1.626639872	 2.6905335442	 0.134302
H	 0.3835716845	-3.0006634867	 3.5449191041	 0.11385
H	 1.4004737181	-1.8801901799	 2.6245245108	 0.128903
H	-1.5614056271	-4.5441245659	 1.7660309814	 0.250077
10.1181	66.6577	78.7672	106.7785	221.1493	238.0448	255.7605	338.0623	384.4392	411.3247	431.7744	496.9605	527.9951	670.7972	727.3032	788.9371	857.0217	905.271	945.5196	1040.1633	1051.3891	1054.0136	1078.6812	1118.1482	1158.5118	1186.741	1201.1138	1277.7398	1333.9918	1384.5761	1390.9576	1414.3724	1416.691	1476.9614	1478.0957	1487.1548	1492.4953	1903.7023	2368.5952	3027.4069	3030.8651	3040.1892	3059.5453	3087.7981	3090.0667	3107.229	3128.9539	3606.1613
CC#CC1C(C)NC1=O	CC#C[C@H]1[C@@H](C)NC1=O	
InChI=1S/C7H9NO/c1-3-4-6-5(2)8-7(6)9/h5-6H,1-2H3,(H,8,9)	InChI=1S/C7H9NO/c1-3-4-6-5(2)8-7(6)9/h5-6H,1-2H3,(H,8,9)/t5-,6+/m1/s1
