16
gdb 33375	5.98565	0.62199	0.5812	6.7421	84.12	-0.2634	-0.0377	0.2258	1819.9377	0.124073	-400.71667	-400.707902	-400.706958	-400.751656	30.437	
N	 0.0438012211	-3.718885894	 0.2092713848	-0.339075
C	 0.0368047098	-2.5580381849	 0.161530486	 0.209562
C	 0.0248020954	-1.1944662634	 0.1023549733	 0.061846
C	 0.0085535172	 0.0123167287	 0.0499895837	 0.083551
C	 0.0079918983	 1.4627371206	-0.0239896084	-0.390444
C	 1.4145287443	 2.0524971953	-0.2005454732	 0.165763
C	 1.5455937527	 3.5868227847	-0.0900013424	-0.302812
C	 2.5166880561	 3.2691739672	 1.0656549104	-0.059193
O	 2.2400542143	 1.8537980475	 0.9613058791	-0.281807
H	-0.6177886879	 1.7852833786	-0.8672612882	 0.147998
H	-0.4385487499	 1.876782955	 0.8884557755	 0.148924
H	 1.880206748	 1.6205440673	-1.096019586	 0.094223
H	 1.9696176537	 4.0946958771	-0.9565577119	 0.120665
H	 0.627434507	 4.0954401347	 0.2121660505	 0.115443
H	 3.5703758817	 3.4918832965	 0.8601358534	 0.112061
H	 2.2542311682	 3.6650465489	 2.0526125134	 0.113296
47.8871	71.0749	90.4829	155.7248	197.5103	306.9115	363.9953	380.8198	486.2182	576.6358	579.4765	727.5927	738.7924	809.5839	868.7695	891.0968	962.9548	1003.6322	1041.3854	1092.7301	1116.7791	1165.5769	1172.8853	1210.8014	1229.5706	1258.6856	1286.779	1312.9657	1369.2651	1387.5808	1445.594	1490.6417	1532.3423	2266.9854	2402.7209	3016.1284	3021.0626	3028.1856	3065.2376	3070.2986	3079.7981	3138.4075
N#CC#CCC1CCO1	N#CC#CC[C@H]1CCO1	
InChI=1S/C7H7NO/c8-5-2-1-3-7-4-6-9-7/h7H,3-4,6H2	InChI=1S/C7H7NO/c8-5-2-1-3-7-4-6-9-7/h7H,3-4,6H2/t7-/m0/s1
