17
gdb 123440	5.24682	0.90866	0.80339	1.9156	73.9	-0.2532	-0.0108	0.2424	1379.7115	0.137557	-417.972204	-417.964429	-417.963485	-418.005885	28.622	
C	 0.1694443541	 1.2295711006	 0.6372039648	-0.345238
C	-0.0344735708	-0.0992026818	-0.0613496638	 0.034598
C	-1.397740033	-0.6248388867	-0.303082417	-0.249808
N	-0.5741529809	-0.1496752267	-1.4330718485	-0.316787
C	 1.4633649295	 1.8947560763	 0.2613775709	 0.381926
N	 2.2102809784	 2.4478493202	 1.1888353519	-0.199939
O	 3.3131426562	 2.9787568198	 0.525851232	-0.163294
C	 3.1948317445	 2.7198304517	-0.7834893718	 0.084058
C	 2.0508013482	 2.0368430852	-1.0325286748	-0.328421
H	-0.6699789629	 1.8942905986	 0.389269634	 0.112303
H	 0.1561503494	 1.0995746756	 1.7243688097	 0.13631
H	 0.7652231654	-0.8188221038	 0.1024183111	 0.104038
H	-1.5813506	-1.6950035412	-0.287921637	 0.123647
H	-2.241280639	-0.0172825339	 0.015632973	 0.113384
H	-0.8937824229	 0.777354337	-1.707472288	 0.226724
H	 3.9987750791	 3.0783932266	-1.407756804	 0.151879
H	 1.6833926647	 1.6677674626	-1.9750891025	 0.13462
37.9551	83.2465	123.8648	289.2954	309.2747	348.2393	451.289	615.815	667.6626	741.5706	792.1984	806.304	831.5892	876.34	908.8657	926.6431	937.4534	950.2493	978.6436	1006.9348	1052.3849	1086.1367	1126.6103	1145.3329	1159.8627	1177.4849	1254.1867	1265.9842	1293.623	1308.7712	1322.7924	1427.2103	1446.0433	1466.4141	1483.1104	1512.8473	1609.1388	3012.4142	3079.595	3109.3807	3130.3321	3195.3211	3261.6783	3289.5205	3481.0593
C(C1CN1)C1=NOC=C1	C([C@H]1CN1)c1nocc1	
InChI=1S/C6H8N2O/c1-2-9-8-5(1)3-6-4-7-6/h1-2,6-7H,3-4H2	InChI=1S/C6H8N2O/c1-2-9-8-5(1)3-6-4-7-6/h1-2,6-7H,3-4H2/t6-/m0/s1
