21
gdb 41547	3.11889	1.77648	1.6056	0.3156	83.55	-0.2469	0.0832	0.33	944.2264	0.18702	-349.919418	-349.913012	-349.912068	-349.949734	28.369	
C	-0.0110193	 1.5570156955	 0.2778039159	-0.245464
C	 1.5206850619	 1.58787195	-0.0078787057	-0.237554
C	 1.4490626443	 0.1208465121	-0.5303578599	 0.000902
C	-0.0271185498	 0.0252258828	-0.0327400911	-0.000427
C	-0.8038439244	-0.5726219345	-1.1955283771	-0.053954
C	-0.7412941361	 0.0213888998	-2.5986111937	-0.063631
C	 0.4741760706	 0.9229696542	-2.8001564988	-0.242992
C	 1.3421437072	-0.139836585	-2.0448089577	-0.061731
C	 0.1523422083	-1.145108026	-2.2096894604	-0.084302
H	-0.3013343465	 1.831494621	 1.2948849055	 0.091406
H	-0.6125299786	 2.1474790205	-0.4171142628	 0.102967
H	 1.8805975184	 2.3429663837	-0.7110846679	 0.096312
H	 2.1143996387	 1.6718829824	 0.9060198538	 0.09505
H	 2.1609783636	-0.5737975913	-0.0740130915	 0.058882
H	-0.1661492072	-0.5817228076	 0.8663902794	 0.061172
H	-1.7165892353	-1.124478437	-0.9943337978	 0.07701
H	-1.6239649008	 0.0066633927	-3.2286489824	 0.075946
H	 0.7519063979	 0.9569619731	-3.8575837963	 0.096764
H	 0.4479950863	 1.9480127622	-2.4199303338	 0.091257
H	 2.290195605	-0.3854288066	-2.524241577	 0.062501
H	 0.1786101466	-2.1660389921	-2.5668870906	 0.079887
194.1922	244.9452	300.2174	443.7791	505.8487	590.1776	657.2026	685.8171	744.9714	763.2419	783.682	797.3549	829.0163	867.8989	887.5189	926.8211	937.4826	955.8115	965.1905	976.809	998.5525	1026.4786	1045.9016	1064.3872	1068.38	1095.746	1106.2191	1126.3499	1147.2722	1190.0996	1205.8338	1227.6417	1230.2783	1252.4798	1257.1524	1273.6113	1287.2109	1294.3999	1328.0198	1335.1624	1354.4383	1396.4688	1481.415	1491.9453	1519.139	3046.126	3053.2758	3057.7628	3060.0699	3068.729	3094.3472	3099.7158	3104.972	3120.2816	3157.7768	3167.4262	3199.1674
C1CC2C1C1C3CC2C13	C1C[C@H]2[C@@H]1[C@H]1[C@H]3C[C@@H]2[C@@H]13	
InChI=1S/C9H12/c1-2-5-4(1)6-3-7-8(5)9(6)7/h4-9H,1-3H2	InChI=1S/C9H12/c1-2-5-4(1)6-3-7-8(5)9(6)7/h4-9H,1-3H2/t4-,5+,6-,7+,8-,9+/m0/s1
