19
gdb 65336	3.55952	1.04494	0.98129	1.0168	83.76	-0.238	0.0364	0.2744	1282.6968	0.156743	-385.827405	-385.818103	-385.817159	-385.861391	35.566	
O	 0.0492963084	 1.3583699503	-0.137237874	-0.471347
C	 0.0457576394	-0.0370495518	-0.0880327851	 0.40148
C	 1.1362308787	-0.7564369803	-0.8266535996	-0.334458
C	 1.1711761885	-0.7154863673	 0.703952779	-0.276403
C	 2.1019774094	 0.1294194348	 1.3842451691	 0.278474
C	 2.8222575563	 0.9120811213	 1.9511989886	-0.426063
C	-1.3311196868	-0.6241011739	-0.0187302359	-0.029997
C	-2.4033200082	 0.0438918827	 0.8045031234	-0.268701
C	-2.4836519294	 0.0700074722	-0.7013912552	-0.271136
H	 0.6220421214	 1.6851623021	 0.5696102797	 0.289865
H	 0.9218470793	-1.7155018869	-1.2858193483	 0.118182
H	 1.859792072	-0.1405908502	-1.3471359834	 0.129584
H	 0.9058538773	-1.6330500346	 1.2202313827	 0.116767
H	 3.4946339638	 1.5646215258	 2.4509947424	 0.200616
H	-1.3386125551	-1.7101912464	-0.041010202	 0.079191
H	-3.09376899	-0.5857852793	 1.3543262762	 0.106919
H	-2.1383628138	 0.9719791065	 1.2972038581	 0.118212
H	-2.271739252	 1.0132939065	-1.1900840647	 0.131637
H	-3.2279149992	-0.5452618816	-1.1945866011	 0.107177
68.1375	108.604	129.431	215.2551	231.9509	263.2851	340.9702	358.4147	420.9915	499.4285	537.3765	586.4984	625.7922	661.1285	710.5649	789.3812	792.5399	817.3087	857.3154	890.7181	935.1675	958.8458	989.3401	1044.5491	1061.5084	1068.9377	1081.3184	1085.4818	1121.6441	1130.0944	1200.9249	1217.1377	1234.0396	1288.6192	1353.2412	1371.8559	1440.789	1456.5729	1475.0095	1502.5565	2221.8031	3136.6433	3139.266	3140.3661	3146.7769	3153.6765	3223.9442	3235.8891	3237.7756	3501.9042	3741.3403
OC1(CC1C#C)C1CC1	O[C@]1(C[C@H]1C#C)C1CC1	
InChI=1S/C8H10O/c1-2-6-5-8(6,9)7-3-4-7/h1,6-7,9H,3-5H2	InChI=1S/C8H10O/c1-2-6-5-8(6,9)7-3-4-7/h1,6-7,9H,3-5H2/t6-,8+/m1/s1
