19
gdb 87437	4.53728	1.19514	1.11429	1.7977	80.51	-0.2508	0.0994	0.3503	1155.3234	0.159084	-385.794609	-385.787131	-385.786186	-385.826393	29.963	
C	 0.0037208807	 1.5618868444	-0.1842088308	-0.413626
C	-0.0344778989	 0.0668681808	-0.0017267444	-0.070103
O	 1.2379661453	-0.6276713379	-0.101350475	-0.320447
C	 0.5651880565	-0.6139457021	 1.1394572701	 0.523398
C	 1.1315719862	-0.1990954125	 2.4907446902	-0.17376
C	-0.0802470191	-0.8739201314	 3.2342703884	-0.031032
C	 0.8478694536	-1.6779254929	 4.1658602084	-0.274128
C	 1.5692607429	-1.6804069544	 2.8044931424	-0.026526
C	 0.216824461	-1.813776253	 2.0074182969	-0.176075
H	 0.8203457988	 2.0037999057	 0.3924301352	 0.124741
H	 0.1497082406	 1.8189016427	-1.2386820205	 0.128595
H	-0.9398818609	 2.0122453215	 0.1433323513	 0.119849
H	-0.8407655423	-0.4457360799	-0.5305091612	 0.08817
H	 1.6547728799	 0.7074091683	 2.7946059033	 0.077272
H	-1.0369124694	-0.3969431076	 3.4510441245	 0.073005
H	 1.3292012284	-1.1251800221	 4.9788651082	 0.09446
H	 0.4708591657	-2.6400579973	 4.5269000219	 0.094671
H	 2.5193577586	-2.1343497565	 2.5234572329	 0.083926
H	-0.3013280674	-2.7398039359	 1.7586958081	 0.077609
123.7893	162.743	195.2234	239.2217	337.9268	448.6488	478.3233	523.9041	605.8686	731.9669	794.9551	808.9423	836.0597	841.8038	874.9489	916.2848	948.3328	962.3334	979.7799	1006.8681	1019.2588	1029.6531	1060.3766	1097.3977	1118.7374	1126.7935	1137.7221	1150.824	1158.5205	1169.5095	1178.4164	1225.278	1240.1777	1243.4141	1306.7013	1361.4486	1409.0138	1478.1221	1493.1956	1513.2505	1557.3317	3034.6593	3038.9288	3085.1019	3095.4344	3097.8906	3102.444	3113.2011	3117.3533	3124.265	3127.5321
CC1OC11C2C3CC2C13	C[C@H]1O[C@]21[C@H]1[C@@H]3C[C@H]1[C@H]23	
InChI=1S/C8H10O/c1-3-8(9-3)6-4-2-5(6)7(4)8/h3-7H,2H2,1H3	InChI=1S/C8H10O/c1-3-8(9-3)6-4-2-5(6)7(4)8/h3-7H,2H2,1H3/t3-,4-,5+,6-,7+,8-/m1/s1
