19
gdb 62115	3.35487	0.76477	0.68009	3.9963	73.54	-0.2779	0.0071	0.285	1641.3364	0.156796	-460.161765	-460.151952	-460.151008	-460.198037	33.962	
C	-0.1531270241	 1.8225819316	-0.0359055484	-0.404311
C	-0.1373697297	 0.2902313677	-0.0963142456	-0.021263
C	-1.538482223	-0.2920464785	-0.3128592892	-0.09146
O	-2.4240464417	 0.1035121971	 0.7421800231	-0.180329
C	-2.8122889558	-0.8326560868	 1.6292301616	 0.167505
O	-3.5153319741	-0.5863629501	 2.5618206632	-0.273541
C	 0.776230293	-0.2064974698	-1.1973034502	 0.086786
C	 2.1508561412	-0.6485351986	-0.9369728158	-0.180843
O	 1.1084330187	-1.5979574896	-1.1726540546	-0.243007
H	 0.8437287427	 2.2165182168	 0.182455992	 0.120769
H	-0.4816522081	 2.2489556447	-0.9910127644	 0.118262
H	-0.840433336	 2.1686366951	 0.7390454472	 0.146028
H	 0.2386472882	-0.1084120673	 0.8546300872	 0.087529
H	-1.9773382878	 0.0833555457	-1.2437316833	 0.120585
H	-1.4843836986	-1.3853651697	-0.3729261171	 0.130688
H	-2.415260409	-1.8389848833	 1.3901373786	 0.081988
H	 0.5485345156	 0.1737959056	-2.1961602269	 0.095246
H	 2.9029578845	-0.5764182532	-1.7209198637	 0.120917
H	 2.5366393638	-0.6223758874	 0.0813532464	 0.11845
43.8207	58.8001	86.503	138.993	186.5694	226.0577	252.4373	288.7503	362.9768	393.6952	471.3121	504.3572	678.8608	812.4758	865.6942	894.2816	916.8176	959.4561	974.939	1041.3315	1049.0432	1087.7784	1123.7808	1143.5325	1157.7933	1166.2364	1192.4042	1194.9649	1285.6119	1294.1392	1314.9151	1355.7361	1399.5011	1412.8299	1432.2122	1446.2709	1495.7651	1503.7674	1507.3357	1530.2127	1867.1979	2945.0219	3028.4735	3033.2447	3037.43	3079.7662	3085.3268	3088.0485	3103.6297	3132.2877	3173.0437
CC(COC=O)C1CO1	C[C@@H](COC=O)[C@H]1CO1	
InChI=1S/C6H10O3/c1-5(2-8-4-7)6-3-9-6/h4-6H,2-3H2,1H3	InChI=1S/C6H10O3/c1-5(2-8-4-7)6-3-9-6/h4-6H,2-3H2,1H3/t5-,6+/m0/s1
