19
gdb 65345	3.98497	0.9937	0.91476	1.5595	83.27	-0.2392	0.0512	0.2903	1319.6959	0.156891	-385.822515	-385.813254	-385.81231	-385.856372	34.909	
C	 0.1798443527	 1.4705079228	-0.0444122081	-0.475776
C	 0.0377968754	-0.0426619609	 0.0562307574	 0.132079
C	 1.2946479426	-0.9059179739	 0.0187962715	-0.32831
C	 0.5283010323	-0.78495989	 1.3033150338	-0.069006
C	 1.1004683215	-0.0573845084	 2.4795542093	 0.042421
C	 2.3997767918	-0.4331430217	 3.0586130716	-0.171611
O	 2.2616157657	 0.7496092018	 2.2684081441	-0.227007
C	-1.1405034106	-0.5783759205	-0.5752614702	 0.272631
C	-2.1328714458	-1.0068390723	-1.104195228	-0.458452
H	 1.0942553039	 1.8122078875	 0.4431481235	 0.150107
H	 0.2097995228	 1.7765073572	-1.0946044148	 0.125524
H	-0.6725313474	 1.9722774144	 0.4245298879	 0.122856
H	 1.2542328864	-1.8420004929	-0.5245789223	 0.121013
H	 2.2350271563	-0.368805098	-0.0382913808	 0.133402
H	-0.0834596955	-1.6363797929	 1.5884640575	 0.103667
H	 0.3690401121	 0.3990404467	 3.1485522712	 0.100206
H	 2.5918251664	-0.2659007891	 4.1170665218	 0.117645
H	 2.9723178827	-1.2355990791	 2.5965561401	 0.118502
H	-3.0061047533	-1.3872923205	-1.5727123855	 0.190108
89.1598	114.3107	134.5424	186.1277	226.1041	247.8603	313.3506	351.8592	409.4763	541.1995	557.7643	585.7642	591.4858	641.6304	682.1247	756.3441	846.3812	868.4756	903.516	945.0837	964.884	993.0171	1021.275	1072.5582	1095.1952	1112.4465	1125.4217	1137.4542	1163.1908	1174.2721	1264.6851	1283.2033	1301.3883	1400.7905	1417.3949	1430.4994	1476.8002	1497.6364	1503.9629	1522.4741	2231.779	3043.0967	3087.3672	3096.593	3103.813	3139.9728	3143.9512	3150.4277	3178.2634	3235.8099	3504.9182
CC1(CC1C1CO1)C#C	C[C@]1(C[C@H]1[C@H]1CO1)C#C	
InChI=1S/C8H10O/c1-3-8(2)4-6(8)7-5-9-7/h1,6-7H,4-5H2,2H3	InChI=1S/C8H10O/c1-3-8(2)4-6(8)7-5-9-7/h1,6-7H,4-5H2,2H3/t6-,7+,8+/m0/s1
