23
gdb 113397	3.93063	1.01079	0.93118	0.0943	91.43	-0.2565	0.0941	0.3506	1391.008	0.20631	-351.090636	-351.08198	-351.081036	-351.123963	34.274	
C	 0.0097391821	 1.5067320308	-0.3557280747	-0.368673
C	-0.0376979176	 0.1047717398	 0.2624111001	-0.196659
C	-1.4206260884	-0.5165266768	 0.2213978612	-0.125344
C	-1.9019183322	-1.2162438675	-1.0558858582	-0.408648
C	-1.6208977532	-1.9908248318	 0.1863374611	 0.478099
C	-0.6931089204	-3.1889583655	 0.4815168019	-0.124175
C	-1.2377946648	-3.1356509461	 1.9423654878	-0.214319
C	-2.4866826137	-2.9508529588	 1.0261259834	-0.129095
C	-1.9129864031	-4.1003694481	 0.1416124026	-0.215226
H	 1.02020397	 1.9259960633	-0.3166256192	 0.107799
H	-0.3070792895	 1.4845214015	-1.4037242094	 0.117316
H	-0.6572519786	 2.194541579	 0.175837964	 0.112247
H	 0.66583557	-0.5529747432	-0.2636352075	 0.091973
H	 0.3126038415	 0.1519659277	 1.3021820744	 0.094967
H	-2.1836360658	 0.0592044615	 0.7444608609	 0.075993
H	-2.9315856346	-1.068421079	-1.3678682577	 0.105935
H	-1.1955925355	-1.2815473794	-1.879614725	 0.105929
H	 0.3418947203	-3.3251777535	 0.1648000729	 0.06913
H	-1.1885428482	-4.0683584236	 2.5116960104	 0.084911
H	-0.9408105173	-2.2755916298	 2.5471759545	 0.092332
H	-3.5223872086	-2.8067699489	 1.3381707414	 0.067797
H	-2.2328584282	-4.1219244535	-0.9026700001	 0.092925
H	-1.909127944	-5.0993511183	 0.5872356051	 0.084785
81.188	111.7707	152.8418	221.1295	242.1317	301.9844	360.901	419.4121	498.6718	605.9928	660.2946	771.7858	774.1107	795.8131	812.926	868.5317	893.9574	900.9468	918.0099	950.5016	976.7058	1008.1844	1016.2464	1035.039	1046.0677	1056.6875	1072.7835	1096.9431	1111.6723	1115.0647	1128.317	1159.8402	1179.9	1192.4625	1196.4813	1229.9246	1244.975	1249.5691	1291.0652	1329.2027	1369.9673	1409.9743	1436.5527	1483.6346	1492.5515	1496.8755	1504.0708	1506.754	1536.6541	3014.0846	3030.374	3045.3775	3048.8681	3051.3038	3096.8025	3097.9702	3102.8875	3103.9399	3109.1893	3110.6581	3117.759	3120.5838	3192.5678
CCC1CC11C2CC1C2	CC[C@H]1C[C@]21[C@H]1C[C@@H]2C1	
InChI=1S/C9H14/c1-2-6-5-9(6)7-3-8(9)4-7/h6-8H,2-5H2,1H3	InChI=1S/C9H14/c1-2-6-5-9(6)7-3-8(9)4-7/h6-8H,2-5H2,1H3/t6-,7-,8+,9-/m0/s1
