13
gdb 132060	2.41758	1.89887	1.06416	3.3733	68.22	-0.2081	-0.0407	0.1674	1014.6564	0.089801	-494.059967	-494.052493	-494.051549	-494.091856	28.346	
N	 0.0434287775	 1.3677286455	 0.151753589	-0.568995
C	-0.0097278949	 0.005172182	 0.0596790364	 0.264458
C	-1.1715113199	-0.7017782791	 0.035379238	 0.120946
F	-2.3443744689	-0.0542653891	 0.0458331687	-0.073317
C	-1.1976823483	-2.1349897349	-0.0041302043	 0.307584
N	-2.2277096128	-2.8681267604	-0.0275248825	-0.547519
O	 0.1027752134	-2.7015147053	-0.0191168192	-0.221532
C	 1.187871693	-1.9175560439	-0.0077328645	 0.133244
N	 1.2201535486	-0.6431612295	 0.0298114162	-0.330291
H	 0.912825593	 1.7881712679	-0.1352484153	 0.267728
H	-0.7970688889	 1.8752463898	-0.0727602092	 0.270301
H	-1.9783623087	-3.8552791004	-0.0577159023	 0.227347
H	 2.1011924569	-2.5038450025	-0.0354149711	 0.150047
116.3774	169.823	275.3329	288.5815	321.127	424.5968	457.4804	509.2019	523.2802	527.9035	546.1259	668.2239	691.216	743.8523	801.6979	889.643	932.2098	952.8628	1010.735	1151.3715	1214.1437	1244.7492	1342.7712	1400.6069	1438.436	1620.5069	1654.2484	1713.6791	1766.2099	3195.3323	3514.5832	3594.8738	3716.3553
NC1=C(F)C(=N)OC=N1	N[C@@H]1C(=C([NH])OC=N1)F	
InChI=1S/C4H4FN3O/c5-2-3(6)8-1-9-4(2)7/h1,7H,6H2	InChI=1S/C4H5FN3O/c5-2-3(6)8-1-9-4(2)7/h1,3,7H,6H2/t3-/m0/s1
