17
gdb 35171	3.80301	1.2196	1.09989	1.8115	79.8	-0.2555	0.0174	0.2729	1132.3327	0.135144	-384.575687	-384.568104	-384.56716	-384.607744	30.033	
C	-0.1098460372	-1.2193887753	 0.0851326234	-0.425917
C	-0.0417912279	-0.0194664373	 0.0551470353	 0.351446
C	 0.0243066899	 1.4139140231	-0.0113463299	-0.356887
O	 0.6126308967	 2.1063134295	 1.1378897738	-0.308699
C	 1.2981728678	 2.1348822622	-0.0807647375	 0.590969
C	 2.7574135089	 1.7561778892	-0.3569865613	-0.155287
C	 2.5075953257	 2.314754807	-1.7931906366	-0.221056
C	 1.8294407695	 3.354692068	-0.8466276005	-0.15659
C	 3.0957088823	 3.225516075	 0.0632247304	-0.227856
H	-0.1685641284	-2.2792844537	 0.1202694769	 0.202793
H	-0.8704184232	 1.9049841924	-0.3922925944	 0.121305
H	 3.27642645	 0.8416581188	-0.0757888039	 0.089471
H	 3.3966091532	 2.6709139712	-2.3178946937	 0.099768
H	 1.8545473671	 1.7328993298	-2.4479362307	 0.102392
H	 1.2938357641	 4.2620966371	-1.1228481701	 0.083521
H	 2.9727626706	 3.4768097506	 1.1181606683	 0.115142
H	 4.0201074306	 3.6360459724	-0.3505885095	 0.095485
101.2657	121.7843	220.7488	283.6371	360.8134	420.4357	512.8923	549.9235	608.7197	618.4373	662.5257	672.1459	789.1343	792.5839	850.3873	889.9223	906.063	947.0695	971.1939	1010.0837	1019.738	1040.9815	1065.8578	1078.4788	1087.3987	1124.2179	1133.6247	1184.1098	1192.9519	1229.8499	1237.6193	1250.644	1335.9832	1494.8337	1497.1961	1545.3955	2239.3795	3061.9689	3063.364	3116.0464	3125.8954	3131.0147	3135.7988	3137.1463	3502.213
C#CC1OC11C2CC1C2	C#C[C@H]1O[C@]21[C@H]1C[C@@H]2C1	
InChI=1S/C8H8O/c1-2-7-8(9-7)5-3-6(8)4-5/h1,5-7H,3-4H2	InChI=1S/C8H8O/c1-2-7-8(9-7)5-3-6(8)4-5/h1,5-7H,3-4H2/t5-,6+,7-,8-/m1/s1
