18
gdb 30874	2.57889	1.29206	0.90896	1.8954	77.18	-0.1622	0.061	0.2232	1285.4478	0.147583	-435.2712	-435.261122	-435.260177	-435.306646	35.806	
C	 0.2121923637	 0.9979158717	 0.4744359355	-0.247542
O	-0.4545876088	 0.2057886777	-0.509434288	-0.279007
C	 0.3764377043	-0.5119948897	-1.3149411905	 0.277177
C	 0.7190072334	-1.8417370163	-1.2634021511	 0.16873
N	 0.2437405278	-2.7988394268	-0.3372386745	-0.6172
C	 1.5587002162	-2.0969733844	-2.3935582193	-0.283324
C	 1.7007528277	-0.9151106562	-3.0875315596	 0.277657
N	 2.4360122119	-0.5552899611	-4.2406950876	-0.611625
N	 0.9741230164	 0.0474934186	-2.4340822852	-0.328904
H	 0.8390502531	 0.3755941332	 1.1247399247	 0.116736
H	 0.8437039828	 1.7667713779	 0.0106848626	 0.111258
H	-0.5653742578	 1.4838122021	 1.0685850429	 0.127144
H	-0.3285980888	-2.3522621914	 0.3702487995	 0.235589
H	 1.0014686391	-3.2869647926	 0.1277682144	 0.234035
H	 1.9772877128	-3.0515162253	-2.6751207903	 0.078137
H	 3.2295092297	-1.1740793906	-4.3593581205	 0.242954
H	 1.8753651117	-0.6234091879	-5.0863651504	 0.241605
H	 0.9238650749	 1.0121468311	-2.7109464825	 0.256581
49.8211	79.9156	136.4353	149.9299	203.5064	218.9319	253.5308	269.7569	311.2193	394.7703	430.681	535.2394	601.9368	632.9892	651.4158	691.5943	759.4072	799.4767	835.0397	842.3864	1018.2553	1030.2334	1087.6048	1166.6567	1172.4263	1184.6552	1202.1615	1237.4808	1249.3479	1350.8201	1454.5277	1466.7899	1485.1769	1499.0255	1506.7671	1570.2243	1638.0237	1651.5248	1680.1047	3004.8305	3067.4325	3122.3181	3242.6392	3478.5183	3503.8332	3581.9704	3593.9089	3686.2629
COC1=C(N)C=C(N)N1	COc1c(N)cc(N)[nH]1	
InChI=1S/C5H9N3O/c1-9-5-3(6)2-4(7)8-5/h2,8H,6-7H2,1H3	InChI=1S/C5H9N3O/c1-9-5-3(6)2-4(7)8-5/h2,8H,6-7H2,1H3
