17
gdb 41105	3.10879	1.93471	1.78313	0.9071	70.46	-0.2335	0.045	0.2785	838.7673	0.137271	-421.714076	-421.707819	-421.706875	-421.744259	26.448	
C	 0.023781049	 1.5362817635	 0.1111844397	-0.200219
O	 1.4673999654	 1.5255753506	-0.1456514186	-0.336771
C	 1.4269001885	 0.0920996726	-0.2697158251	 0.387805
C	 1.2692580701	-0.5722646048	-1.6622111616	-0.310819
C	-0.1490050801	-1.0118497042	-1.1775853519	 0.039243
O	-0.0357734076	-2.084307372	-0.2097459419	-0.301074
C	 0.2212558885	-1.2031242039	 0.9114813316	 0.039241
C	 1.7327591046	-0.8117022263	 0.9529304624	-0.310819
C	-0.0811162252	 0.0117256781	-0.0097978981	 0.141933
H	-0.207551381	 1.9489580961	 1.099806338	 0.118739
H	-0.517716147	 2.109165152	-0.6502456685	 0.118739
H	 1.2113907988	 0.1930894247	-2.4416912135	 0.116423
H	 1.9601887763	-1.36347835	-1.9624770814	 0.109323
H	-0.9557643386	-1.1993167531	-1.8899043482	 0.081255
H	-0.2997728511	-1.5381973814	 1.8112909497	 0.081256
H	 2.4596135178	-1.6214682764	 0.8553313282	 0.109323
H	 1.9680028818	-0.1977680154	 1.8272589791	 0.116423
218.3471	294.3506	318.625	398.0085	423.0483	483.2313	576.166	686.5948	717.3344	813.9923	816.2018	828.0575	853.6897	919.859	922.9009	933.1079	938.7688	957.8875	964.4701	1070.0543	1077.2693	1123.4836	1134.9394	1162.4255	1181.7936	1199.9713	1212.889	1223.7391	1252.7149	1255.5086	1289.2485	1297.8617	1329.1287	1333.4057	1453.3787	1464.8377	1506.2349	3023.7921	3057.1331	3058.0354	3070.6532	3079.4731	3085.6671	3122.3765	3124.5662
C1OC23CC4OC(C2)C134	C1O[C@@]23C[C@H]4O[C@@H](C2)[C@@]134	
InChI=1S/C7H8O2/c1-4-7-3-8-6(1,7)2-5(7)9-4/h4-5H,1-3H2	InChI=1S/C7H8O2/c1-4-7-3-8-6(1,7)2-5(7)9-4/h4-5H,1-3H2/t4-,5+,6+,7+
