18
gdb 126422	4.85935	0.88085	0.78577	3.3245	74.6	-0.2437	0.0227	0.2663	1471.4146	0.148472	-435.299895	-435.29052	-435.289576	-435.336294	32.521	
C	 0.1427285441	 1.5092575437	 0.0751445484	-0.373089
C	-0.1161721884	 0.0132010643	-0.161048618	-0.281369
C	 0.6626294784	-0.5317227657	-1.3152466495	 0.332959
N	 0.0836475125	-1.0301389358	-2.3990594465	-0.273564
N	 1.1513264579	-1.3838769758	-3.1584598783	-0.218947
C	 2.297576305	-1.0918911741	-2.519505058	 0.367678
C	 3.6449533147	-1.3672197848	-3.10527854	-0.195578
O	 3.4399150852	-1.9700891948	-4.3735955498	-0.428732
N	 2.032308497	-0.5494985718	-1.3468084746	-0.365247
H	 1.2073761939	 1.6926118985	 0.2432381474	 0.134848
H	-0.1697931407	 2.1018653578	-0.7903767272	 0.11901
H	-0.4113407981	 1.865093363	 0.9490058752	 0.109237
H	 0.1551756982	-0.5465216598	 0.7421229826	 0.114116
H	-1.1777660157	-0.1693569511	-0.3498420437	 0.117493
H	 1.0401703234	-1.8059184978	-4.0652334297	 0.285944
H	 4.2034718292	-0.4227175963	-3.1838446423	 0.126732
H	 4.2071901946	-2.0220753526	-2.4233045786	 0.127223
H	 4.2965090287	-2.1457025968	-4.7714929875	 0.301286
14.3402	48.2536	122.8373	172.3224	195.3653	229.2447	251.0596	344.301	424.9625	479.8986	582.5826	654.333	702.5877	730.2521	768.2953	802.9766	976.0824	1021.7464	1044.1674	1060.3276	1069.3323	1091.9465	1101.9123	1155.921	1203.1086	1230.0077	1266.3097	1303.7583	1345.2765	1377.0858	1404.946	1443.2526	1475.1251	1481.2801	1496.3041	1506.2663	1513.338	1543.4368	1594.6909	2990.6157	3017.1957	3037.3809	3040.5926	3092.2772	3110.0442	3124.3898	3677.7118	3852.054
CCC1=NNC(CO)=N1	CCc1n[nH]c(CO)n1	
InChI=1S/C5H9N3O/c1-2-4-6-5(3-9)8-7-4/h9H,2-3H2,1H3,(H,6,7,8)	InChI=1S/C5H9N3O/c1-2-4-6-5(3-9)8-7-4/h9H,2-3H2,1H3,(H,6,7,8)
