20
gdb 97405	3.46627	0.79447	0.75222	2.566	80.74	-0.2415	0.0242	0.2657	1613.0795	0.166972	-440.260624	-440.250201	-440.249257	-440.296649	37.359	
C	 0.3450287859	 1.0886756453	-0.2636637175	-0.315259
N	-0.2154282057	-0.1127655338	 0.3184444256	-0.20709
C	 0.5524982821	-0.8354226362	 1.0011086833	 0.129586
O	 0.0891491749	-1.9681984051	 1.5834748622	-0.206978
C	 1.037810625	-2.7041713981	 2.3133672829	 0.072883
C	 0.6960350529	-4.1430088996	 2.5768781066	-0.379447
C	 1.8379862123	-3.7846072626	 1.6405921924	 0.35365
C	 1.7044696279	-4.0370173692	 0.1579397785	-0.452852
O	 3.1416291298	-3.8905392509	 2.1512968094	-0.460926
H	 1.4132806409	 1.2413898446	-0.0381437099	 0.096876
H	 0.224479806	 1.0602536661	-1.3526737013	 0.127472
H	-0.2101313625	 1.9633903905	 0.093932098	 0.128476
H	 1.6175806204	-0.6329734208	 1.1905592526	 0.084634
H	 1.5365756512	-2.1475955158	 3.1031169306	 0.113589
H	 0.9400430834	-4.5401132448	 3.5554490585	 0.119638
H	-0.2212541973	-4.5141561215	 2.1332463348	 0.131417
H	 0.6898801505	-3.8279894431	-0.1883579555	 0.142581
H	 2.4007422479	-3.4022452857	-0.3994793443	 0.126616
H	 1.9365459814	-5.082312388	-0.0780437407	 0.111453
H	 3.3873746028	-4.8227041812	 2.1457039837	 0.28368
44.956	71.4124	104.2967	191.5984	208.675	220.5789	253.0959	295.8658	309.8153	360.1114	377.7219	412.695	452.0642	535.1022	599.2299	723.8596	839.7652	902.4691	910.6398	977.2996	981.8057	1026.0648	1045.308	1081.9199	1095.8196	1110.8748	1141.0189	1141.7189	1185.2595	1228.1615	1246.856	1300.3593	1345.1748	1394.3296	1410.193	1417.1512	1450.0736	1474.1016	1480.9191	1486.7654	1504.5301	1509.517	1779.8366	2967.5629	3003.5101	3031.1482	3058.3882	3077.3989	3093.3148	3131.1745	3137.4944	3140.2881	3233.8205	3788.9994
CN=COC1CC1(C)O	CN=CO[C@H]1C[C@]1(C)O	
InChI=1S/C6H11NO2/c1-6(8)3-5(6)9-4-7-2/h4-5,8H,3H2,1-2H3	InChI=1S/C6H11NO2/c1-6(8)3-5(6)9-4-7-2/h4-5,8H,3H2,1-2H3/t5-,6-/m0/s1
