22
gdb 86433	1.87341	1.64312	0.9316	1.813	85.01	-0.2375	0.0326	0.2701	1333.6288	0.193614	-404.392875	-404.383224	-404.38228	-404.427062	36.327	
C	 0.0526760995	 1.531241242	 0.1207959619	-0.403644
C	 0.0196867418	 0.0195393383	-0.0311571893	 0.134661
C	 0.7682398533	-0.5080065318	-1.2488846945	-0.222569
C	 0.7753371128	-2.0411939864	-1.2198799655	 0.048125
C	 1.7182275517	-2.6390420069	-2.2659810448	-0.384522
N	 1.1383448007	-2.5648532619	 0.0979050016	-0.316523
C	 1.0486924924	-1.8147105901	 1.1163282446	 0.389348
C	 1.462038429	-2.2788645223	 2.4828887428	-0.450505
O	 0.5931250323	-0.5302801205	 1.1716961402	-0.275764
H	 1.0855448991	 1.8900312915	 0.1658604321	 0.124605
H	-0.4448965579	 2.0079341923	-0.7291627671	 0.117566
H	-0.4577682188	 1.8364706888	 1.0383258568	 0.126384
H	-1.025059783	-0.3220311209	-0.0758166757	 0.082767
H	 0.3009505231	-0.1321572427	-2.1655170487	 0.098832
H	 1.7993135905	-0.1316024127	-1.2271696384	 0.101702
H	-0.241535164	-2.3981832912	-1.4436625932	 0.07956
H	 2.7488648077	-2.3188800469	-2.0797671479	 0.114213
H	 1.691890895	-3.7305936795	-2.2169051951	 0.123121
H	 1.4356976851	-2.3240513104	-3.2761743034	 0.102364
H	 2.2240712449	-1.6094835568	 2.894961033	 0.134829
H	 0.6079271745	-2.2540828309	 3.1674920293	 0.133857
H	 1.8553066803	-3.2925781007	 2.4208155813	 0.141592
93.5983	137.7929	140.7925	182.6115	226.1198	239.6192	257.2659	282.8637	415.1088	447.7274	456.5045	472.8076	523.0747	610.8146	649.067	839.6761	851.3564	884.4281	925.1502	951.6856	987.0324	997.9001	1035.6713	1061.5533	1080.7485	1139.3396	1147.5845	1176.038	1191.4751	1225.8845	1263.133	1295.7015	1348.609	1368.6225	1382.2788	1395.3102	1404.0417	1406.0071	1415.7259	1475.0667	1476.0265	1477.5439	1484.4439	1487.1761	1498.0276	1498.8551	1744.6401	2981.1138	2995.3099	3026.3357	3034.4169	3042.1677	3046.4623	3077.7123	3102.7584	3102.9746	3116.8457	3120.6329	3120.9471	3166.6096
CC1CC(C)N=C(C)O1	C[C@H]1C[C@@H](C)N=C(C)O1	
InChI=1S/C7H13NO/c1-5-4-6(2)9-7(3)8-5/h5-6H,4H2,1-3H3	InChI=1S/C7H13NO/c1-5-4-6(2)9-7(3)8-5/h5-6H,4H2,1-3H3/t5-,6+/m1/s1
