15
gdb 45762	3.06495	1.43046	1.12351	2.7204	65.02	-0.2552	-0.0395	0.2157	1056.7612	0.114185	-453.956043	-453.948698	-453.947754	-453.98856	26.969	
O	-0.134468431	 0.0458387125	 0.2237790539	-0.305504
C	-0.0325666775	 1.2227729387	 0.1076354917	 0.44084
O	-1.1445559106	 2.0745268376	 0.0261828606	-0.200556
C	-0.6278147932	 3.3382571687	-0.0725423282	 0.123189
N	 0.6306594743	 3.4908152686	-0.0910386855	-0.261426
C	 1.1885016436	 2.1399076347	 0.0050474067	-0.172066
C	 2.1560254788	 1.9585121441	 1.1672737017	 0.008234
C	 3.1438702643	 3.0138947589	 1.4823237632	-0.244871
N	 2.0134544756	 2.7468615159	 2.3946376315	-0.315649
H	-1.3699972427	 4.1259310936	-0.1269681918	 0.165374
H	 1.7135258684	 1.893887218	-0.9281401557	 0.146585
H	 2.4125507656	 0.9143746972	 1.3301603757	 0.120585
H	 4.1212307935	 2.7401124429	 1.8682292331	 0.124647
H	 3.1140481599	 3.9204852542	 0.8854547244	 0.133284
H	 1.309433271	 3.4687886944	 2.2519199886	 0.237335
78.8969	110.4809	163.1495	242.1072	338.1518	422.2849	522.9282	608.339	645.1377	723.2057	814.4279	845.6051	862.8003	870.052	930.6738	960.0924	988.4189	995.4813	1072.4291	1084.0531	1133.3302	1144.8504	1160.6239	1189.4901	1254.4698	1276.5705	1292.7254	1307.6251	1342.4772	1405.602	1505.3851	1690.7005	1928.9257	3024.6743	3118.6933	3142.3389	3209.2123	3225.5522	3489.5731
O=C1OC=NC1C1CN1	O=C1OC=N[C@H]1[C@H]1CN1	
InChI=1S/C5H6N2O2/c8-5-4(3-1-6-3)7-2-9-5/h2-4,6H,1H2	InChI=1S/C5H6N2O2/c8-5-4(3-1-6-3)7-2-9-5/h2-4,6H,1H2/t3-,4+/m1/s1
