22
gdb 122573	4.95775	0.66888	0.62574	1.8899	83.08	-0.245	0.0264	0.2714	1849.5341	0.194723	-404.376354	-404.3667	-404.365756	-404.412331	34.484	
C	 0.0069242311	 1.5498523698	-0.0582012716	-0.379936
C	 0.098829545	 0.0219403247	-0.0284865673	-0.166203
C	 0.7080979716	-0.5171534203	 1.2700637421	-0.164729
C	 0.803462696	-2.0455918223	 1.3033645384	-0.201309
C	 1.4172163954	-2.6009550936	 2.5821991721	 0.089524
C	 1.598663173	-4.1442091746	 2.6051824492	-0.201085
N	 3.0521494382	-4.3670576115	 2.705379934	-0.263416
C	 3.5688933778	-3.2123114543	 2.7603394362	 0.121178
O	 2.7854903886	-2.1098145312	 2.724728892	-0.23121
H	 0.9970857286	 2.0072406544	 0.0454846808	 0.115731
H	-0.4280767186	 1.9062328469	-0.9971120875	 0.111739
H	-0.6164128642	 1.9251616046	 0.7611270281	 0.113594
H	-0.9018718871	-0.4089791868	-0.1673438672	 0.09301
H	 0.6981228623	-0.3260533633	-0.8802899576	 0.096301
H	 1.7102055139	-0.0950829285	 1.410827136	 0.112965
H	 0.1083070164	-0.1721516594	 2.1241855115	 0.090733
H	-0.1974164785	-2.48618632	 1.196261596	 0.100235
H	 1.3941014286	-2.4061315473	 0.4504781189	 0.104998
H	 0.8669349142	-2.2358877468	 3.4562276761	 0.089749
H	 1.092582771	-4.6156987398	 3.4537182393	 0.116278
H	 1.2128618237	-4.6138966159	 1.6929384559	 0.113553
H	 4.630403603	-3.0031980948	 2.8385175848	 0.1383
46.354	67.6341	86.188	117.9973	155.2112	242.4989	273.2649	298.2434	431.2668	456.7748	538.5498	726.9387	739.9481	784.7019	842.1591	876.6665	905.5488	919.0963	962.4544	973.5956	983.2045	1010.2792	1044.805	1070.1082	1080.5824	1130.186	1134.269	1157.3697	1218.2991	1249.7993	1271.639	1308.7675	1317.3585	1322.3993	1331.5486	1341.791	1367.4862	1396.6134	1405.3693	1414.623	1473.572	1487.0506	1499.0314	1499.3347	1500.53	1512.8587	1710.4734	3007.8207	3009.736	3017.3018	3029.8077	3034.8562	3037.6551	3039.4343	3053.1425	3072.2513	3075.9603	3096.4653	3102.2195	3212.4774
CCCCC1CN=CO1	CCCC[C@H]1CN=CO1	
InChI=1S/C7H13NO/c1-2-3-4-7-5-8-6-9-7/h6-7H,2-5H2,1H3	InChI=1S/C7H13NO/c1-2-3-4-7-5-8-6-9-7/h6-7H,2-5H2,1H3/t7-/m0/s1
