15
gdb 37551	4.20037	1.71302	1.46629	2.3304	68.61	-0.2306	0.0091	0.2397	862.4296	0.113444	-416.671383	-416.665018	-416.664074	-416.702078	25.536	
N	 0.0058296784	 1.4139091714	 0.1988832838	-0.468728
C	 1.3300442478	 1.8372474566	-0.0631411546	 0.047533
N	 2.1744919108	 0.9990986494	-0.5565012125	-0.275295
C	 1.3360576441	-0.1466826273	-0.9775189618	-0.014113
C	 1.1519065683	-1.5678574213	-0.3918653974	-0.128688
C	 0.6103263832	-1.0489880961	 0.9560167955	 0.048763
O	-0.6228681502	-1.8375534171	 0.9182761873	-0.314098
C	-0.444092702	-1.4143934666	-0.4461626626	-0.031976
C	 0.1140316542	 0.0148111017	-0.106098877	 0.371886
H	-0.7834319053	 2.0025241678	-0.0206534749	 0.252035
H	 1.6017885453	 2.8515334664	 0.2176028569	 0.126971
H	 1.2173232919	-0.1101729134	-2.068606521	 0.078209
H	 1.6906387602	-2.4979186229	-0.5657763485	 0.095428
H	 1.1079818172	-0.9030400393	 1.9121735614	 0.107022
H	-1.150219694	-1.7388114194	-1.2098944047	 0.10505
103.4802	237.1597	310.8708	342.9065	519.9274	562.4121	613.3148	694.5613	720.2441	812.9165	818.6459	866.1815	890.9878	906.91	916.6173	933.7097	951.3443	1022.6242	1029.9349	1042.1376	1076.2714	1086.9089	1112.4014	1143.5818	1171.3364	1192.8165	1248.1502	1277.5441	1312.2588	1327.837	1337.0428	1381.6233	1603.0144	3015.8056	3127.0608	3137.1634	3152.7114	3178.2715	3617.6617
N1C=NC2C3C4OC3C124	N1[CH][N][C@H]2[C@H]3[C@@H]4O[C@H]3[C@]124	
InChI=1S/C6H6N2O/c1-7-3-2-4-6(3,8-1)5(2)9-4/h1-5H,(H,7,8)	InChI=1S/C6H6N2O/c1-7-3-2-4-6(3,8-1)5(2)9-4/h1-5H,(H,7,8)/t2-,3-,4-,5+,6-/m0/s1
