16
gdb 126206	2.27648	1.4076	0.92814	7.3427	74.26	-0.2523	-0.049	0.2033	1233.3648	0.124563	-434.082029	-434.073545	-434.072601	-434.116326	29.86	
C	-0.2618257789	 1.5764137772	-0.0448117536	-0.373184
C	 0.0357239196	 0.0668058036	 0.0313601511	-0.311998
C	 0.7960977829	-0.4415857549	-1.152268347	 0.288478
C	 2.1361946903	-0.733470116	-1.3750930392	 0.121921
C	 3.2429266788	-0.6480703525	-0.4195658246	 0.088965
O	 4.3982739201	-0.9020848234	-0.6594708992	-0.258287
N	 2.2872659152	-1.1389718806	-2.6796831362	-0.225372
N	 1.1419367254	-1.1149912283	-3.268800248	-0.098978
N	 0.2297938299	-0.6907778887	-2.3516453657	-0.234113
H	 0.6649619672	 2.1539025946	-0.1000381555	 0.140322
H	-0.8613023948	 1.8211377439	-0.926937278	 0.124039
H	-0.8158484851	 1.8985524956	 0.8410150692	 0.13128
H	 0.6107990804	-0.1491049761	 0.9358218403	 0.137684
H	-0.9037355312	-0.4912338702	 0.1246328237	 0.124468
H	 2.9291037179	-0.3150597601	 0.5965519401	 0.061206
H	-0.7387222678	-0.614343814	-2.6226909372	 0.283568
33.283	127.463	155.9296	173.3265	226.2772	261.5246	321.3888	398.9078	534.9784	600.1354	631.7259	726.5001	751.0428	787.4299	803.3539	969.738	1011.0178	1022.4525	1027.7888	1074.1533	1080.8104	1171.5192	1250.2077	1302.9167	1329.7505	1352.4148	1392.7331	1414.7061	1432.4983	1479.0611	1496.538	1500.0004	1506.0857	1595.9321	1809.1703	2859.9154	3039.1525	3045.1202	3090.7663	3119.5554	3126.4873	3643.1934
CCC1=C(C=O)N=NN1	CCc1c(C=O)nn[nH]1	
InChI=1S/C5H7N3O/c1-2-4-5(3-9)7-8-6-4/h3H,2H2,1H3,(H,6,7,8)	InChI=1S/C5H7N3O/c1-2-4-5(3-9)7-8-6-4/h3H,2H2,1H3,(H,6,7,8)
