21
gdb 88630	3.63078	1.0232	0.95429	1.192	83.13	-0.2407	0.0821	0.3228	1325.4195	0.183165	-387.034752	-387.02628	-387.025335	-387.068462	33.196	
O	-0.0890864956	 1.4707249076	 0.0444302534	-0.416412
C	-0.0215589551	 0.0745669843	-0.0298821381	 0.090994
C	-0.5215130093	-0.7527943142	 1.1271736622	-0.338249
C	-1.3241590044	-0.6652948347	-0.1614544097	-0.035188
C	-2.6180606316	 0.0890372127	-0.1890574818	-0.000785
C	-3.6037108927	 0.0690525244	-1.3291064334	-0.074418
C	-3.7124956568	-1.32065368	-1.9697880795	-0.230686
C	-4.0769503323	-1.9233184983	-0.5733109866	-0.229622
C	-3.9763422041	-0.5201234591	 0.0410340381	-0.078433
H	 0.557590326	 1.7625840843	 0.6949325826	 0.287498
H	 0.8300424011	-0.304882743	-0.5950822669	 0.082385
H	-0.0141222518	-1.6786912798	 1.3766585873	 0.10642
H	-0.9138441793	-0.2041370556	 1.9778613533	 0.111583
H	-1.283138445	-1.5454158913	-0.7945993016	 0.08748
H	-2.5303422159	 1.0790666699	 0.2495531922	 0.095078
H	-3.9423144663	 0.9892018581	-1.7913163775	 0.079743
H	-4.546995385	-1.391062894	-2.6709647788	 0.099867
H	-2.8168519949	-1.7051278031	-2.4695105463	 0.093508
H	-5.0927783919	-2.3237425021	-0.5538510171	 0.099067
H	-3.4012389493	-2.6805525623	-0.1623593739	 0.094349
H	-4.6509082456	-0.1238305036	 0.7916425919	 0.075819
35.0385	138.2159	177.3463	208.2285	279.4611	307.5979	397.259	459.0234	501.1814	574.0979	737.8127	759.0272	785.6851	789.9459	797.8137	845.1669	879.9895	941.9999	952.5205	956.8029	990.7634	1005.5174	1019.235	1029.1401	1054.0846	1080.4493	1084.6155	1121.6136	1131.4565	1141.5691	1175.7874	1222.8625	1223.8693	1242.0584	1244.5642	1262.6673	1297.9038	1306.1257	1319.9507	1366.4613	1416.5158	1463.6532	1483.453	1492.948	1504.9332	3040.9443	3049.6382	3092.431	3092.877	3111.1433	3124.3861	3151.8771	3162.0929	3165.3823	3179.0788	3213.7329	3809.9444
OC1CC1C1C2CCC12	O[C@H]1C[C@H]1[C@H]1[C@H]2CC[C@@H]12	
InChI=1S/C8H12O/c9-7-3-6(7)8-4-1-2-5(4)8/h4-9H,1-3H2	InChI=1S/C8H12O/c9-7-3-6(7)8-4-1-2-5(4)8/h4-9H,1-3H2/t4-,5+,6-,7+,8-/m1/s1
