18
gdb 62818	2.31079	1.54765	1.35402	2.534	79.47	-0.2366	0.0284	0.265	1055.467	0.146184	-401.84372	-401.835066	-401.834122	-401.876462	34.049	
C	-0.1470568237	 1.5861370822	-0.0654433775	-0.484088
C	 0.0231864159	 0.074675411	-0.0350674912	 0.396415
O	-1.2143483306	-0.5458593642	-0.3170997988	-0.473341
C	 1.2040938445	-0.6686523179	-0.7232366714	-0.092396
C	 2.168052143	-0.1335680627	 0.3631401604	-0.25673
C	 0.8898822034	-0.6369393774	 1.0924224988	 0.213083
N	 0.9963626616	-1.869948179	 0.1912873871	-0.363585
C	 0.5996730556	-0.6983666636	 2.4937273462	 0.045637
C	 0.3105300944	-0.717002792	 3.6617712282	-0.373501
H	 0.7813357388	 2.13571314	 0.0914284223	 0.128535
H	-0.571244984	 1.8868215851	-1.0281237228	 0.133319
H	-0.8471072653	 1.8964138852	 0.7203658703	 0.1194
H	-1.8627183708	-0.2250471554	 0.319202519	 0.286694
H	 1.3882758238	-0.7893040209	-1.7907403861	 0.087302
H	 3.0381015371	-0.7664389073	 0.530303814	 0.12169
H	 2.4030426895	 0.9281326853	 0.3943839603	 0.101095
H	 0.0478053547	-2.2209969715	 0.0375665474	 0.226242
H	 0.0733779722	-0.7451452469	 4.6965746937	 0.18423
112.5523	128.4556	180.9557	241.1947	296.1124	345.68	361.9403	423.1832	485.2763	519.2054	556.9774	601.0548	615.8231	623.6977	654.7581	721.9076	757.8564	814.931	908.6218	938.5367	962.8397	974.1866	1034.086	1082.7782	1093.0598	1125.7971	1172.148	1195.7191	1210.4657	1223.1914	1276.598	1301.105	1320.4684	1366.9316	1411.2502	1485.5446	1492.1393	1507.2487	2229.1174	3032.1238	3096.8949	3104.1926	3122.3227	3143.3535	3181.9344	3426.4975	3500.5109	3806.1366
CC1(O)C2CC1(N2)C#C	C[C@@]1(O)[C@H]2C[C@@]1(N2)C#C	
InChI=1S/C7H9NO/c1-3-7-4-5(8-7)6(7,2)9/h1,5,8-9H,4H2,2H3	InChI=1S/C7H9NO/c1-3-7-4-5(8-7)6(7,2)9/h1,5,8-9H,4H2,2H3/t5-,6-,7+/m1/s1
