15
gdb 49546	2.78323	1.27699	0.97903	3.5967	66.94	-0.2443	-0.0525	0.1919	1159.8888	0.110059	-457.692362	-457.684411	-457.683467	-457.725695	28.491	
O	 0.128499118	-0.1540975339	 0.2414771981	-0.252371
C	 0.1218697982	 1.0454727871	 0.3674954583	 0.137755
C	 1.347830528	 1.8920663689	 0.1527214438	-0.095276
C	 1.1614158188	 3.2269766045	-0.6282671993	 0.010402
O	 0.3783173515	 3.7673011375	 0.4956492984	-0.30541
C	 1.5611529205	 3.1079736692	 1.1094887041	 0.025095
C	 2.4488668633	 3.812125239	 0.0547629724	-0.07684
C	 3.829683269	 3.335713509	-0.30355176	 0.123194
O	 4.3948461051	 2.4009623806	 0.2071723771	-0.241259
H	-0.7944236958	 1.5991295038	 0.6500078059	 0.104257
H	 2.2195490328	 1.2807894308	-0.0759663864	 0.125366
H	 0.787568608	 3.3934388983	-1.6383563319	 0.118406
H	 1.6431910125	 3.1188112789	 2.1951877949	 0.121482
H	 2.4027139846	 4.9039793073	 0.1017862474	 0.11374
H	 4.3209644553	 3.934412919	-1.1033671228	 0.091458
78.267	96.7375	138.6203	202.0358	267.9661	302.4993	419.4965	487.8908	596.6325	707.1971	717.7188	767.4179	833.658	880.3939	915.5718	961.8486	1010.3914	1017.0518	1046.1023	1101.6426	1117.1869	1129.6836	1141.3766	1183.4397	1187.6579	1235.5273	1256.4241	1333.239	1367.5287	1422.4871	1426.4979	1818.266	1820.0583	2880.2935	2949.7535	3083.143	3126.0767	3137.9682	3144.6823
O=CC1C2OC1C2C=O	O=C[C@H]1[C@H]2O[C@@H]1[C@H]2C=O	
InChI=1S/C6H6O3/c7-1-3-5-4(2-8)6(3)9-5/h1-6H	InChI=1S/C6H6O3/c7-1-3-5-4(2-8)6(3)9-5/h1-6H/t3-,4-,5-,6+
