21
gdb 101375	3.17327	1.07068	0.93027	0.8898	78.65	-0.2485	0.0787	0.3272	1341.8736	0.180572	-424.176063	-424.166595	-424.165651	-424.210845	34.768	
C	-1.0702200762	 1.2600892377	 0.289573256	-0.235028
O	-0.8095025249	-0.1227917604	 0.3299512107	-0.251711
C	 0.5168879642	-0.4691839105	 0.7166609798	 0.133278
C	 0.7334924519	-0.3201815858	 2.2253132672	-0.413081
C	 0.724995774	-1.9017736005	 0.2471514396	-0.017102
C	 0.7145687676	-2.1817375767	-1.2999311333	-0.275688
C	 2.139860813	-2.7314306338	-1.1609119555	 0.031966
O	 2.9506102242	-1.6792763345	-0.6205978129	-0.245611
C	 2.1603291919	-2.4605138677	 0.2854268815	 0.000913
H	-0.3561467436	 1.7902271108	-0.3602887966	 0.103864
H	-2.0765866088	 1.3862251443	-0.118452521	 0.124539
H	-1.0399588177	 1.7286527105	 1.2843551829	 0.104435
H	 1.2310415399	 0.1753701428	 0.1806393525	 0.077938
H	 1.7525604296	-0.6128031364	 2.49752166	 0.121656
H	 0.5926828271	 0.7138280233	 2.552544211	 0.1169
H	 0.0290989511	-0.9519565175	 2.7764695205	 0.118745
H	 0.0242783458	-2.5642764774	 0.7651301991	 0.080779
H	-0.0222191719	-2.9359173109	-1.5837593974	 0.107129
H	 0.6137313136	-1.3102798918	-1.9502711487	 0.112362
H	 2.6475433977	-3.4927258429	-1.741634242	 0.103486
H	 2.6845571813	-2.9564159727	 1.0945828064	 0.10023
61.5348	83.6421	128.0451	159.7917	201.0481	233.5432	283.5536	350.7668	384.0461	443.7402	485.6972	577.3816	739.2323	810.1789	843.6298	857.4461	875.7677	913.755	937.8565	977.8192	999.0651	1014.7638	1048.3387	1078.2676	1111.3618	1123.5979	1146.3478	1182.7291	1202.909	1204.8734	1236.0032	1238.6587	1240.1773	1279.7145	1300.6523	1380.0393	1385.3949	1400.044	1406.7334	1474.7412	1478.6715	1483.3999	1492.8879	1503.4504	1513.6407	2974.6202	2986.2705	3022.4067	3037.7594	3064.0797	3074.6527	3106.8225	3109.1088	3112.0795	3130.5575	3176.0425	3192.6872
COC(C)C1CC2OC12	CO[C@@H](C)[C@H]1C[C@H]2O[C@@H]12	
InChI=1S/C7H12O2/c1-4(8-2)5-3-6-7(5)9-6/h4-7H,3H2,1-2H3	InChI=1S/C7H12O2/c1-4(8-2)5-3-6-7(5)9-6/h4-7H,3H2,1-2H3/t4-,5+,6+,7-/m0/s1
