20
gdb 73801	2.36146	1.34719	1.03109	4.2155	86.48	-0.2417	0.0104	0.2521	1245.7031	0.170853	-366.061546	-366.052085	-366.051141	-366.095913	34.583	
C	 0.0846380534	 1.5423637553	-0.0888013246	-0.497344
C	 0.0202899244	 0.0473028528	-0.0741674657	 0.229767
C	-1.0620864336	-0.7300399017	 0.0575511124	 0.220183
C	-2.496096983	-0.3457059415	 0.2392175616	-0.504711
C	-0.6747790954	-2.2107114702	 0.0629445431	-0.225947
C	 0.8016949712	-2.203438569	-0.4291536895	-0.233452
C	 1.2948108427	-0.7646308121	-0.1731032011	-0.291959
C	-0.8294746474	-2.7885799616	 1.404970032	 0.269909
N	-0.9554817779	-3.2287347287	 2.4670616774	-0.335793
H	 0.7246265496	 1.9094902098	 0.7236620641	 0.133332
H	 0.5314426534	 1.90507455	-1.0231320815	 0.128479
H	-0.8966420556	 2.0091105701	 0.0196438402	 0.127151
H	-2.637131633	 0.7370282805	 0.2535162426	 0.128177
H	-3.1204811879	-0.7556456704	-0.565311258	 0.126246
H	-2.8910931084	-0.7499252579	 1.1796104015	 0.14803
H	-1.314971525	-2.7982959584	-0.6072621661	 0.117719
H	 1.409507766	-2.9675475549	 0.0583263564	 0.122246
H	 0.8025339314	-2.4124375967	-1.502237952	 0.11395
H	 1.9578100597	-0.4076678678	-0.9699162144	 0.105267
H	 1.8692333853	-0.6871635177	 0.7607650014	 0.11875
66.0585	118.6099	151.2231	171.9722	175.6928	228.4708	294.1294	320.2479	362.1013	462.5841	508.983	564.4207	621.4317	647.6362	753.2695	809.5535	893.8653	908.2767	966.7233	987.4604	1006.0492	1034.693	1066.8	1091.0997	1106.6075	1178.5995	1185.2221	1221.2296	1258.3133	1273.4344	1315.5201	1343.5064	1352.9519	1412.0309	1422.6669	1478.153	1481.5791	1483.2905	1486.3519	1492.821	1499.136	1744.9877	2346.7887	3011.0476	3019.0821	3021.8458	3026.3135	3049.9924	3065.3094	3065.5761	3071.9919	3120.3493	3122.815	3126.7242
CC1=C(C)C(CC1)C#N	CC1=C(C)[C@@H](CC1)C#N	
InChI=1S/C8H11N/c1-6-3-4-8(5-9)7(6)2/h8H,3-4H2,1-2H3	InChI=1S/C8H11N/c1-6-3-4-8(5-9)7(6)2/h8H,3-4H2,1-2H3/t8-/m0/s1
