14
gdb 127524	2.57598	1.44022	0.92918	3.0928	69.11	-0.2501	-0.0767	0.1734	1166.8569	0.101183	-470.036863	-470.028572	-470.027628	-470.071242	28.675	
C	-0.1469508482	 1.4108234311	-0.0378105303	-0.331181
N	-0.0354709452	-0.0351937307	 0.0281185306	-0.006168
N	-0.1261269319	-0.7374017165	-1.121084896	-0.307267
C	-0.0085939686	-1.9917868376	-0.6865174884	 0.434733
O	-0.0453689184	-3.0148416342	-1.5429467171	-0.405172
N	 0.1472945724	-2.1404225037	 0.6400587365	-0.375198
C	 0.1252503743	-0.8809824822	 1.0795552753	 0.25851
C	 0.2555215341	-0.4574334772	 2.4833641318	 0.087507
O	 0.3936135018	-1.2238995955	 3.4038178235	-0.239679
H	 0.0829708222	 1.8467665068	 0.932916849	 0.153734
H	 0.558165104	 1.7863324333	-0.7817479817	 0.168608
H	-1.1604389882	 1.6931987639	-0.3343079906	 0.163593
H	 0.0586784246	-3.8200342931	-1.0205694388	 0.317726
H	 0.216885617	 0.6395502156	 2.6483792262	 0.080254
22.6644	122.8496	180.2184	193.8373	204.4672	305.8991	403.3525	433.3914	447.4678	545.9846	651.3082	679.9704	721.1691	769.3793	896.9449	1009.5702	1056.6161	1095.0373	1149.3106	1177.0698	1215.763	1316.6068	1411.4881	1419.5992	1469.8641	1472.8173	1477.5808	1521.2573	1546.5472	1611.0754	1802.6675	2906.761	3062.9355	3133.0372	3173.2781	3806.57
CN1N=C(O)N=C1C=O	Cn1nc(O)nc1C=O	
InChI=1S/C4H5N3O2/c1-7-3(2-8)5-4(9)6-7/h2H,1H3,(H,6,9)	InChI=1S/C4H5N3O2/c1-7-3(2-8)5-4(9)6-7/h2H,1H3,(H,6,9)
