15
gdb 54088	2.52193	1.18591	0.87395	1.7889	65.55	-0.2577	-0.0472	0.2104	1273.0802	0.110067	-491.112341	-491.102888	-491.101944	-491.147568	32.566	
N	 0.7170599453	 0.0069008344	-0.7600740906	-0.513854
C	-0.2455940235	 0.3423368183	 0.1234261044	 0.367448
O	-0.2842324242	 1.3634564913	 0.7819461593	-0.366749
C	-1.3642409437	-0.7005941227	 0.2934230645	-0.080275
O	-1.1425251415	-1.8103644132	-0.5466000719	-0.200578
C	-2.1547855937	-2.7024638835	-0.7103671505	 0.145503
N	-1.9679918993	-3.7014867088	-1.4514851971	-0.443479
C	-1.4637000499	-1.0887915625	 1.7741138053	 0.145073
O	-1.6302325538	-2.2201817582	 2.1401079994	-0.231904
H	 1.4842935934	 0.6419404303	-0.9048501706	 0.272174
H	 0.6754154971	-0.869204545	-1.2536208058	 0.290678
H	-2.298541902	-0.175846758	 0.0381859496	 0.14098
H	-3.0678763002	-2.4334288999	-0.1697594982	 0.10536
H	-2.8095322874	-4.2722264409	-1.4911146222	 0.237614
H	-1.3820535266	-0.2265027317	 2.4629293644	 0.132009
57.4933	76.2097	118.9043	149.6932	169.371	220.0607	311.2978	344.8156	367.1308	414.3313	521.5623	606.4293	615.0611	681.2604	738.6685	815.0101	849.3726	952.8071	1031.731	1033.3483	1045.1053	1101.9358	1179.1965	1235.4807	1275.9974	1321.9373	1380.4491	1385.99	1422.5183	1601.2972	1750.3615	1803.333	1839.1323	2965.8711	2996.3666	3071.1411	3526.0642	3599.3599	3737.6269
NC(=O)C(OC=N)C=O	NC(=O)[C@@H](O[CH][NH])C=O	
InChI=1S/C4H6N2O3/c5-2-9-3(1-7)4(6)8/h1-3,5H,(H2,6,8)	InChI=1S/C4H6N2O3/c5-2-9-3(1-7)4(6)8/h1-3,5H,(H2,6,8)/t3-/m0/s1
