18
gdb 23203	2.12713	1.54101	0.99293	1.8995	76.74	-0.2386	0.0075	0.246	1195.2351	0.146837	-439.008117	-438.999324	-438.99838	-439.041768	33.115	
O	 0.0301654404	 1.4202680111	 0.1544642652	-0.417208
C	 0.0397321929	 0.0153867673	-0.0410967156	-0.182033
C	-1.356169544	-0.5451122401	-0.0200430004	 0.256068
C	-2.0722783757	-1.0964081236	 1.1977286481	-0.3174
C	-1.9452674436	-1.9812562152	-0.0024289296	-0.122738
C	-3.0009684905	-1.5878668305	-1.0581833851	-0.333549
C	-2.368725605	-0.2007778807	-1.0538874215	 0.395536
N	-2.4267497084	 0.8519465629	-1.7585406153	-0.283977
O	-3.4471338906	 0.7735876489	-2.7253861268	-0.393365
H	-0.5379908187	 1.7878191934	-0.5350942544	 0.294225
H	 0.5249819013	-0.2465907619	-0.9950976407	 0.090621
H	 0.6436666438	-0.4128593963	 0.7657279844	 0.105532
H	-1.4094116966	-1.326760046	 2.0263420686	 0.122978
H	-3.0417235825	-0.7066928111	 1.4975656783	 0.118114
H	-1.40054731	-2.9163278513	 0.013168043	 0.10374
H	-2.8732699469	-2.0750122278	-2.0289317311	 0.134296
H	-4.0500188955	-1.6675264753	-0.757572843	 0.122374
H	-3.3709323004	 1.6225925263	-3.1736050739	 0.306787
73.7205	110.3735	155.2969	198.2619	271.4722	321.8217	363.5469	421.3572	426.8513	458.484	513.812	548.7807	683.7255	765.18	829.324	838.4143	882.1367	939.7947	967.1095	980.6817	1006.5384	1032.1676	1059.0416	1069.978	1088.477	1111.0694	1149.5369	1204.6332	1237.7702	1258.0744	1314.2772	1365.9365	1388.0815	1421.4291	1442.6952	1467.6658	1494.7992	1504.2591	1782.0895	2973.2772	3055.4842	3070.7005	3106.3078	3112.0345	3196.3222	3205.2568	3765.765	3819.9854
OCC12CC1CC2=NO	OC[C@]12C[C@H]1CC2=NO	
InChI=1S/C6H9NO2/c8-3-6-2-4(6)1-5(6)7-9/h4,8-9H,1-3H2	InChI=1S/C6H9NO2/c8-3-6-2-4(6)1-5(6)7-9/h4,8-9H,1-3H2/t4-,6-/m1/s1
