15
gdb 42856	3.28245	1.10934	0.98456	3.4981	70.04	-0.2707	-0.0218	0.2489	1184.1407	0.112869	-416.754775	-416.747089	-416.746144	-416.787824	28.278	
O	-0.1564434109	-0.0100494787	-0.0131216194	-0.305342
C	-0.0929528786	 1.1722539625	 0.0324649725	 0.501327
C	-0.9691933306	 2.4457305951	-0.0018931312	-0.164072
N	-0.0331570702	 2.930755028	 1.1034482552	-0.320685
C	 0.9239379718	 2.3381742248	 0.0730419092	-0.189046
C	 0.0548259457	 2.9768856606	-1.0627466653	 0.008235
C	 0.09396952	 2.4296004871	-2.4967022993	-0.395071
C	-0.9892784357	 2.9753778442	-3.3122266317	 0.263899
N	-1.8530992298	 3.4259644035	-3.9333172674	-0.298749
H	-2.047482753	 2.5813309175	 0.0385730622	 0.120408
H	 0.026643713	 3.95218901	 1.0316941122	 0.225562
H	 2.0045168001	 2.3489188981	 0.2011951363	 0.109733
H	 0.1121211564	 4.0695621055	-1.0478431282	 0.107443
H	 1.0502448317	 2.6879144932	-2.9660875931	 0.162412
H	 0.0236560802	 1.3358716287	-2.5000814322	 0.173945
55.5217	112.7216	146.3373	297.9499	316.6787	390.3151	444.6852	465.5385	597.9482	677.1367	758.1574	780.054	808.6659	855.4983	876.9532	943.6602	960.2512	994.993	1037.0402	1077.9272	1095.3247	1122.4331	1148.4645	1153.4735	1219.1368	1246.4068	1276.4581	1293.4956	1320.5596	1398.8996	1464.7891	1948.9201	2364.13	3043.699	3070.9868	3086.9902	3147.8536	3158.423	3385.2113
O=C1C2NC1C2CC#N	O=C1[C@H]2N[C@@H]1[C@H]2CC#N	
InChI=1S/C6H6N2O/c7-2-1-3-4-6(9)5(3)8-4/h3-5,8H,1H2	InChI=1S/C6H6N2O/c7-2-1-3-4-6(9)5(3)8-4/h3-5,8H,1H2/t3-,4-,5+
