22
gdb 77907	2.12181	1.50432	1.36785	2.0802	83.08	-0.2193	0.0653	0.2846	1141.9114	0.192326	-404.301451	-404.29144	-404.290496	-404.335428	37.805	
C	-0.398267824	 1.678227645	-0.1716913779	-0.422032
C	-0.1334732999	 0.1766312355	-0.2000929076	-0.0243
C	 0.5875797557	-0.4954153791	-1.3871590578	-0.125054
N	 1.9994908879	-0.2370729605	-1.4939179549	-0.116357
C	 2.6779939336	 1.0419891071	-1.3015886707	-0.32415
C	 1.6025519593	-1.159015058	-0.4600699887	 0.316585
C	 2.1807912898	-2.5453411611	-0.4334524782	-0.491964
C	 0.9356903778	-0.4798797593	 0.7526025252	 0.023213
O	 1.7986439591	 0.3370223347	 1.5204292307	-0.423231
H	 0.5086207108	 2.2718827631	-0.2875173721	 0.127553
H	-1.0859844479	 1.9591199064	-0.9768392846	 0.117357
H	-0.8702527098	 1.9707200735	 0.7740905377	 0.103289
H	-1.084857522	-0.3450376215	-0.0404207083	 0.070717
H	 0.0819182898	-0.9224636126	-2.2492036494	 0.084438
H	 2.4706570054	 1.5359197039	-0.3499939677	 0.136847
H	 3.756929755	 0.861763254	-1.3591770556	 0.115715
H	 2.4077041028	 1.7058366776	-2.1293266109	 0.111763
H	 2.3724649212	-2.8948974403	-1.4510052257	 0.128485
H	 3.1315518205	-2.5600062454	 0.1126835559	 0.125699
H	 1.5038230327	-3.2508731389	 0.0607473316	 0.110502
H	 0.4585101468	-1.2347735207	 1.3931133969	 0.070071
H	 1.3000724756	 0.6830927765	 2.2675540622	 0.284853
130.9119	147.6587	182.1775	185.4242	204.4015	235.3053	244.864	276.0065	277.9071	328.9463	347.6031	493.0187	559.6936	608.621	690.8147	717.8142	745.6428	820.2148	887.5922	904.1509	947.4281	990.2443	1024.8109	1059.5473	1098.2552	1136.2572	1142.3301	1153.0358	1165.9509	1184.4801	1211.6236	1238.2389	1242.7293	1288.4509	1318.1806	1371.8335	1394.7564	1407.6613	1422.3338	1437.6389	1476.6981	1484.7137	1489.0605	1492.3502	1497.3314	1502.3565	1527.2417	2995.2104	3026.816	3027.8459	3031.0212	3035.6125	3084.8651	3085.0544	3092.0429	3120.0484	3120.9824	3143.8898	3150.9984	3812.8389
CC1C2N(C)C2(C)C1O	C[C@H]1[C@H]2N(C)[C@@]2(C)[C@H]1O	
InChI=1S/C7H13NO/c1-4-5-7(2,6(4)9)8(5)3/h4-6,9H,1-3H3	InChI=1S/C7H13NO/c1-4-5-7(2,6(4)9)8(5)3/h4-6,9H,1-3H3/t4-,5+,6-,7+,8?/m0/s1
