19
gdb 12013	3.23172	1.98736	1.74141	2.7482	70.01	-0.2287	0.0659	0.2946	856.7408	0.16622	-365.04713	-365.039553	-365.038609	-365.078263	30.411	
C	-0.0185437987	 1.5437073686	-0.0127190427	-0.444697
C	 0.0441762388	 0.0163384108	-0.0185657532	 0.391829
O	-1.2774296228	-0.5355178225	 0.0338810937	-0.479082
C	 0.8348113141	-0.5840813106	-1.2082485509	-0.287282
C	 1.358281131	-1.9284460758	-0.6550816878	-0.15438
N	 1.5031972443	-1.7927904014	 0.8087732975	-0.096723
C	 2.2323904732	-0.5840200577	 1.2149811027	-0.26356
C	 0.7481904998	-0.5859056992	 1.1907625331	-0.018292
H	 0.9821236548	 1.9842661932	 0.0188817769	 0.118108
H	-0.5191011644	 1.9161675151	-0.9149805881	 0.105495
H	-0.5821238613	 1.8964316446	 0.8560116282	 0.125855
H	-1.7816421208	-0.1558742043	-0.693673489	 0.27469
H	 0.1900202201	-0.7138567662	-2.0816633428	 0.093291
H	 1.651362685	 0.0804217755	-1.5066989378	 0.100085
H	 0.6256356801	-2.7219154497	-0.8296387505	 0.116924
H	 2.3071551673	-2.2391929428	-1.1028725877	 0.101366
H	 2.7507415998	-0.6693723498	 2.1654966597	 0.115872
H	 2.7713893072	-0.0104159101	 0.4645009917	 0.105059
H	 0.1725430924	-0.6289004078	 2.110459257	 0.095442
147.4977	226.5784	247.9852	284.7059	323.0772	357.2567	403.0114	433.0083	489.8308	599.9129	662.2604	722.0996	809.8463	824.7561	859.5625	925.4129	945.2078	952.3464	1002.7829	1008.7199	1031.1008	1089.6084	1113.4363	1116.1544	1142.25	1186.0551	1204.6958	1214.6205	1242.7219	1270.2133	1319.257	1332.4074	1369.6698	1402.9645	1409.3136	1481.6725	1490.7384	1496.2179	1499.0912	1519.577	3026.8832	3051.4462	3056.5854	3089.5936	3094.0612	3104.9093	3108.5701	3118.604	3157.3858	3189.5516	3806.8615
CC1(O)CCN2CC12	C[C@@]1(O)CCN2C[C@@H]12	
InChI=1S/C6H11NO/c1-6(8)2-3-7-4-5(6)7/h5,8H,2-4H2,1H3	InChI=1S/C6H11NO/c1-6(8)2-3-7-4-5(6)7/h5,8H,2-4H2,1H3/t5-,6+,7?/m0/s1
