23
gdb 68487	2.53566	1.59317	1.21654	1.435	84.17	-0.2497	0.0793	0.3289	1122.2066	0.208815	-388.300639	-388.292613	-388.291668	-388.332332	33.944	
O	-0.0577175167	 1.4508748207	-0.0497912957	-0.481558
C	-0.0173325886	 0.0368879312	 0.0286067514	 0.43561
C	 0.2220498738	-0.564140342	 1.4477663121	-0.290537
C	-0.9375965548	-1.5654965151	 1.1706902823	 0.006087
C	-1.430891777	-0.5882372204	 0.0612233682	-0.269
C	-0.4929791751	-2.9498472738	 0.6752305575	-0.20288
C	 0.7667437394	-2.9854400836	-0.20944409	-0.189572
C	 0.7447789656	-2.0244489539	-1.4070708075	-0.20014
C	 0.9037641376	-0.5318538406	-1.0626436298	-0.268428
H	 0.8491125972	 1.7740472867	-0.0939352936	 0.269997
H	 1.2124402899	-0.9635298996	 1.6847803727	 0.084729
H	-0.0571881112	 0.1738713896	 2.2036175039	 0.098518
H	-1.6418866181	-1.6961311856	 1.9961352574	 0.065889
H	-2.1406593033	 0.1408123763	 0.45936588	 0.104863
H	-1.8350522076	-1.0084021063	-0.8638505078	 0.089667
H	-0.315966614	-3.595601794	 1.5447088553	 0.091561
H	-1.3295177981	-3.4042962365	 0.1263079402	 0.093075
H	 1.6556067753	-2.7808263832	 0.4013422694	 0.095046
H	 0.8922288776	-4.0101880037	-0.5785972835	 0.090642
H	 1.5522106788	-2.2943480362	-2.0977391855	 0.092102
H	-0.1869642021	-2.1722336269	-1.9673453929	 0.099609
H	 0.7271129789	 0.0571690239	-1.9705595899	 0.101123
H	 1.9453678826	-0.3413509569	-0.7612849842	 0.083596
202.5782	219.3625	257.9656	291.2664	320.7683	341.9772	388.7399	419.4655	434.9705	500.6596	533.2585	639.7343	761.4846	785.4207	832.7556	846.337	873.2254	887.1311	899.0457	937.3342	949.9537	990.1357	1011.78	1052.4745	1069.6359	1080.8042	1121.3896	1135.2891	1163.7328	1176.4384	1208.0922	1235.8476	1242.4121	1264.8817	1269.1462	1293.2135	1318.3637	1348.4239	1365.2574	1378.9212	1393.877	1397.7643	1402.7938	1467.8705	1482.3703	1486.256	1491.5988	1501.9361	1515.9074	2989.8189	3007.0756	3021.5877	3024.5048	3043.8865	3051.6361	3054.0967	3057.0443	3058.9673	3067.6658	3069.3988	3111.7114	3114.9657	3796.7821
OC12CC(C1)CCCC2	O[C@@]12C[C@@H](C1)CCCC2	
InChI=1S/C8H14O/c9-8-4-2-1-3-7(5-8)6-8/h7,9H,1-6H2	InChI=1S/C8H14O/c9-8-4-2-1-3-7(5-8)6-8/h7,9H,1-6H2/t7-,8-
