20
gdb 12887	2.46258	2.31059	1.67211	1.4895	74.36	-0.2307	0.0876	0.3183	904.6027	0.177454	-349.000023	-348.991955	-348.991011	-349.031969	30.936	
C	-0.0508111705	 1.551395623	-0.0285135544	-0.416393
C	 0.0481028361	 0.0448145216	 0.04849985	-0.080459
C	 1.3544067041	-0.6832515729	-0.1824722932	 0.038235
O	 2.5189949369	 0.1028173116	-0.1476934968	-0.260035
C	 2.9537104644	 0.1901449719	 1.2132364042	-0.06159
C	 1.6844271493	 0.0775813782	 2.0810103399	-0.312264
C	 0.7244434606	-0.7179195327	 1.1854204176	 0.30434
C	 0.0624794624	-1.9509821613	 1.7550814538	-0.484547
H	 0.9223240046	 2.0240139313	 0.1219645619	 0.129115
H	-0.4083366149	 1.8572069524	-1.017420941	 0.117246
H	-0.7501246785	 1.9504174573	 0.7147119416	 0.111473
H	-0.8215726466	-0.4773320708	-0.3472096464	 0.076627
H	 1.4154983116	-1.5496995051	-0.8360794545	 0.086361
H	 3.6483616842	-0.6342760068	 1.4369553158	 0.092485
H	 3.4924633291	 1.1348788509	 1.3314009624	 0.105508
H	 1.8824974398	-0.4566679011	 3.0148327093	 0.100672
H	 1.2883541306	 1.063035344	 2.3453267955	 0.106682
H	-0.6543611681	-1.6915906334	 2.5433051668	 0.117709
H	-0.4854434432	-2.4999147093	 0.9824256491	 0.115163
H	 0.8005481582	-2.6358134288	 2.1897524082	 0.11367
130.0028	172.3335	202.8444	220.9295	225.5964	278.4306	334.6868	457.1538	559.7977	594.9083	648.1905	743.6143	785.0232	862.2123	871.3901	932.3387	953.8191	981.1741	1008.5439	1015.5721	1055.3931	1073.6143	1116.7479	1140.1616	1147.5184	1152.5802	1208.5896	1237.9273	1271.4543	1285.4058	1314.6886	1340.8852	1385.7502	1410.9278	1418.7285	1446.405	1488.8215	1491.6074	1498.1664	1502.4311	1507.3544	1520.366	2982.3947	3018.1959	3033.3269	3049.7782	3076.5747	3080.4039	3089.1717	3093.5424	3096.5863	3112.9762	3128.2909	3137.9484
CC1C2OCCC12C	C[C@H]1[C@H]2OCC[C@@]12C	
InChI=1S/C7H12O/c1-5-6-7(5,2)3-4-8-6/h5-6H,3-4H2,1-2H3	InChI=1S/C7H12O/c1-5-6-7(5,2)3-4-8-6/h5-6H,3-4H2,1-2H3/t5-,6+,7-/m0/s1
