13
gdb 15290	4.90823	1.20994	1.05185	2.7999	63.84	-0.2855	-0.0186	0.2669	1047.5762	0.095467	-357.627521	-357.619971	-357.619027	-357.660097	26.226	
N	 0.0898426904	-1.0939490508	-0.5195985997	-0.289413
C	 0.069161148	-0.0231300321	-0.0885053654	 0.288093
C	 0.0239539825	 1.3411537492	 0.4431718047	-0.301419
N	 1.3205525696	 1.9934741844	 0.2492091187	-0.074735
C	 1.5471371824	 2.6554863148	-1.0231808408	-0.231418
C	 1.3430453099	 3.4642579664	 0.2253242332	-0.146132
C	 0.1244859034	 4.2232319559	 0.3703977675	 0.287462
N	-0.8548475321	 4.8221006461	 0.5132793582	-0.324152
H	-0.8149040561	 1.8741283781	-0.0310686664	 0.163485
H	-0.1851493109	 1.2990638136	 1.5173033147	 0.174335
H	 2.5469704836	 2.5622893051	-1.4344039748	 0.151262
H	 0.7392332049	 2.669750233	-1.7517315891	 0.14857
H	 2.2003866244	 3.9030856063	 0.7267745292	 0.154061
61.6481	105.4657	173.6032	216.8484	347.8346	362.6056	389.0355	510.3501	558.0624	634.0177	763.3734	840.826	902.3087	952.8983	999.2102	1035.6219	1044.8203	1122.0973	1129.6336	1153.9094	1275.0855	1314.0898	1369.7961	1381.0563	1473.1569	1506.7107	2351.857	2372.7947	2994.1274	3079.6871	3111.9307	3160.7825	3210.0433
N#CCN1CC1C#N	N#CCN1C[C@H]1C#N	
InChI=1S/C5H5N3/c6-1-2-8-4-5(8)3-7/h5H,2,4H2	InChI=1S/C5H5N3/c6-1-2-8-4-5(8)3-7/h5H,2,4H2/t5-,8?/m1/s1
