17
gdb 5237	6.74338	1.14065	1.0054	1.9351	72.53	-0.1973	0.0423	0.2396	1164.9365	0.143297	-363.886498	-363.878591	-363.877647	-363.919459	28.522	
C	-0.7001844803	 1.419308107	-0.5252631651	-0.222741
O	-0.6633722386	 0.0185004439	-0.6643266113	-0.243341
C	-0.735108637	-0.6590521089	 0.581115087	-0.186401
C	-0.7844857625	-2.1259672488	 0.3248806047	 0.306474
C	-0.2486676261	-3.1983855632	 1.0030290918	-0.241536
C	-0.6793610493	-4.3826333668	 0.3408433365	-0.139962
C	-1.4580570639	-3.995668298	-0.7250555679	-0.094153
N	-1.527930526	-2.626282862	-0.7145196633	-0.269924
H	-0.6595109923	 1.8491214224	-1.528980046	 0.127986
H	-1.6237913411	 1.7572738861	-0.0285713654	 0.104473
H	 0.1567931968	 1.793660913	 0.0561064553	 0.10805
H	 0.1340880462	-0.4217753187	 1.2144946055	 0.103759
H	-1.63226636	-0.3116842204	 1.1266285593	 0.094875
H	 0.3760478441	-3.1376987394	 1.8815406386	 0.086589
H	-0.4401897036	-5.3988547723	 0.613859653	 0.090434
H	-1.9536207732	-4.5720536977	-1.4896298876	 0.112075
H	-1.9417076731	-2.0436442362	-1.421821605	 0.263344
55.5731	94.4486	130.6952	226.944	282.8282	353.9581	404.5214	531.4704	632.0241	653.9847	716.3982	752.4107	793.5196	847.4873	898.3471	969.4854	987.7846	1025.594	1054.1347	1112.3587	1141.7303	1149.9692	1183.0682	1219.0442	1243.5603	1267.2584	1294.6569	1400.4123	1440.7965	1464.0604	1479.6122	1485.5004	1501.5464	1505.206	1523.0534	1618.5965	2924.0639	2970.3036	2992.3205	3015.7067	3114.78	3238.3747	3251.2374	3270.3491	3681.1367
COCC1=CC=CN1	COCc1ccc[nH]1	
InChI=1S/C6H9NO/c1-8-5-6-3-2-4-7-6/h2-4,7H,5H2,1H3	InChI=1S/C6H9NO/c1-8-5-6-3-2-4-7-6/h2-4,7H,5H2,1H3
