19
gdb 16333	3.62147	1.60554	1.37744	2.5381	70.73	-0.2372	0.0736	0.3108	975.8272	0.165998	-365.016525	-365.008537	-365.007593	-365.048611	30.534	
C	-0.0439315738	 1.5944100525	-0.1925024011	-0.413303
C	 0.0566484335	 0.0970138352	 0.0690968852	-0.053348
C	 1.1208591879	-0.7609025276	-0.6714416423	-0.175594
N	 1.6546617008	-1.3348520393	 0.6170569625	-0.18522
C	 2.1603896843	-0.1730473983	 1.3810985855	-0.276809
C	 0.7038645007	-0.4075455578	 1.3666981131	 0.292572
C	-0.0311667464	-0.9617661397	 2.5647496489	-0.155453
O	 0.7626946436	-1.9103080548	 3.2477968526	-0.417097
H	 0.9229588518	 2.0932904725	-0.073819426	 0.117507
H	-0.3936110383	 1.7879186336	-1.2124828135	 0.118641
H	-0.751660572	 2.0693417909	 0.4956898936	 0.120324
H	-0.9316634896	-0.3599319492	-0.0473211634	 0.081436
H	 0.7074295374	-1.5526055581	-1.2989350594	 0.11149
H	 1.8782109149	-0.2124263414	-1.2430797191	 0.103158
H	 2.6907190952	-0.4643498012	 2.2812196566	 0.132718
H	 2.5981236681	 0.6591639668	 0.8345590635	 0.109547
H	-0.2733870154	-0.1681835305	 3.2820115892	 0.11088
H	-0.9855547968	-1.4019334787	 2.2278072886	 0.08399
H	 1.1477188642	-2.4698026747	 2.5580214655	 0.294563
105.7663	152.853	193.9339	233.8579	256.6784	307.5115	426.8635	467.2974	515.9959	575.8794	640.7817	699.3758	784.2278	844.2717	872.2228	903.5555	943.1492	1003.0902	1033.6975	1073.3096	1080.9949	1100.1846	1116.7391	1140.3941	1161.7357	1206.9803	1218.8285	1233.806	1268.9564	1304.8799	1351.7372	1385.7373	1398.2963	1416.0545	1446.5703	1488.2184	1495.6324	1497.6764	1509.2624	1513.2815	2954.3664	3030.2686	3040.0043	3047.3783	3050.1216	3095.2854	3103.1469	3111.8158	3113.5719	3211.6982	3736.5921
CC1CN2CC12CO	C[C@H]1CN2C[C@@]12CO	
InChI=1S/C6H11NO/c1-5-2-7-3-6(5,7)4-8/h5,8H,2-4H2,1H3	InChI=1S/C6H11NO/c1-5-2-7-3-6(5,7)4-8/h5,8H,2-4H2,1H3/t5-,6+,7?/m0/s1
