16
gdb 65418	3.98347	0.8561	0.77723	4.9107	76.99	-0.2764	0.0062	0.2826	1440.5302	0.120944	-400.708558	-400.699098	-400.698154	-400.743412	33.775	
C	 0.0588688676	 1.5086240524	-0.1777215329	-0.472096
C	-0.0467002292	 0.0211651772	 0.0927931901	 0.171265
O	 1.1906802329	-0.7253835889	 0.0504591927	-0.263413
C	 0.5193286784	-0.6343688567	 1.297337602	 0.024431
C	 1.2127890395	 0.1249328355	 2.418653833	-0.380642
C	 2.1706823098	-0.719971825	 3.1328196312	 0.267139
N	 2.9169588142	-1.3961939838	 3.6984569026	-0.295035
C	-1.1715435297	-0.6262476862	-0.5466142229	 0.287256
C	-2.1193613321	-1.1331903333	-1.0838012159	-0.413616
H	 0.9506125077	 1.9385591002	 0.2806663089	 0.130557
H	 0.1157620211	 1.6797334866	-1.2561489826	 0.149435
H	-0.8268525664	 2.028238584	 0.1996019717	 0.139402
H	 0.0458650589	-1.5615897428	 1.6205565787	 0.122716
H	 1.7400063275	 0.9981045405	 2.027507525	 0.162821
H	 0.4635922361	 0.48235668	 3.1354465217	 0.163176
H	-2.9517351063	-1.5925721095	-1.5578999832	 0.206605
45.3232	97.3372	139.8999	165.2742	188.0623	243.3119	318.3365	381.0643	394.5028	430.867	490.1686	555.8521	608.0303	637.0123	671.2581	689.5423	816.1629	879.6997	928.4506	950.6726	1016.5384	1078.2545	1105.4004	1123.904	1231.3803	1248.523	1318.005	1334.87	1414.3607	1444.4329	1455.1761	1482.1321	1500.4392	2240.4692	2367.0833	3048.5055	3053.2868	3107.3265	3120.8964	3121.3489	3144.5361	3500.385
CC1(OC1CC#N)C#C	C[C@]1(O[C@H]1CC#N)C#C	
InChI=1S/C7H7NO/c1-3-7(2)6(9-7)4-5-8/h1,6H,4H2,2H3	InChI=1S/C7H7NO/c1-3-7(2)6(9-7)4-5-8/h1,6H,4H2,2H3/t6-,7-/m0/s1
