26
gdb 118118	3.1599	0.75189	0.67708	1.2961	93.74	-0.2191	0.0828	0.3019	1826.8078	0.238723	-369.591204	-369.579923	-369.578979	-369.628065	41.194	
C	-0.365307057	-3.0210410013	 2.5823854173	-0.379199
C	 0.9411889329	-3.315227962	 1.8389321632	-0.177955
C	 0.7981733662	-3.1804744436	 0.3179918539	-0.157534
C	 2.1004815606	-3.3780443086	-0.4847270126	-0.005453
C	 2.6740433387	-4.7967641397	-0.3355357844	-0.399582
C	 1.8353653894	-3.0703109837	-1.9511926176	 0.029363
C	 1.8494765807	-1.6750978806	-2.4774684756	-0.264406
N	 2.8547611805	-2.6386785506	-2.9122769977	-0.093541
C	 4.2271951128	-2.4117485141	-2.4874803151	-0.313681
H	-0.7154773245	-2.0023756293	 2.381458456	 0.113243
H	-1.1599324541	-3.7088579433	 2.2722247966	 0.114016
H	-0.2412115054	-3.1232179424	 3.6650522736	 0.1105
H	 1.7246201728	-2.6303301435	 2.1908650184	 0.092435
H	 1.2812550903	-4.3248955932	 2.0972637067	 0.099363
H	 0.0450300356	-3.8975448342	-0.0397907997	 0.090213
H	 0.3979730326	-2.1841714655	 0.0886819565	 0.093604
H	 2.837087052	-2.661928695	-0.0988886217	 0.068468
H	 2.923822108	-5.028195787	 0.7035661926	 0.114627
H	 1.949294091	-5.5443252244	-0.6800618728	 0.113572
H	 3.5834623435	-4.9210905736	-0.9306780841	 0.118818
H	 1.1218174224	-3.7631682324	-2.4014119573	 0.082156
H	 1.1380899355	-1.3450184552	-3.2307092524	 0.109715
H	 2.1655680657	-0.894496869	-1.783953329	 0.09868
H	 4.7064865918	-1.7439518852	-3.2109621627	 0.12123
H	 4.3363570074	-1.9556908354	-1.4907590267	 0.099595
H	 4.7752555706	-3.359574647	-2.4932328254	 0.121753
56.5487	68.3579	100.4421	118.6652	192.1575	205.9051	225.0408	238.4531	250.7845	319.5249	359.2425	378.6409	396.9793	490.4001	560.5512	742.5797	746.7761	818.6516	855.7919	875.7477	919.189	938.0662	968.5732	1009.0588	1034.8084	1037.9511	1072.3116	1102.3776	1119.2338	1131.4695	1150.4044	1164.2975	1185.0674	1201.5009	1207.5426	1259.1528	1285.7678	1325.5644	1332.1844	1339.5791	1357.7	1393.9209	1408.9479	1413.8775	1429.037	1447.861	1479.7902	1488.7079	1493.3169	1497.6421	1499.3483	1499.7381	1502.9202	1510.9936	1512.5326	2972.2503	3002.3958	3016.8596	3024.0393	3028.6951	3032.0296	3038.794	3061.3869	3062.9595	3075.4695	3082.4812	3095.7278	3096.0474	3099.593	3101.0521	3113.1806	3162.7221
CCCC(C)C1CN1C	CCC[C@@H](C)[C@H]1CN1C	
InChI=1S/C8H17N/c1-4-5-7(2)8-6-9(8)3/h7-8H,4-6H2,1-3H3	InChI=1S/C8H17N/c1-4-5-7(2)8-6-9(8)3/h7-8H,4-6H2,1-3H3/t7-,8-,9?/m1/s1
