16
gdb 51076	3.03141	1.17195	1.02201	4.2859	70.32	-0.255	-0.0277	0.2273	1176.4661	0.122691	-437.831247	-437.823046	-437.822102	-437.865139	29.618	
O	-0.0293252366	-0.113504576	-0.0584672406	-0.23745
C	 0.0099696905	 1.0842380032	-0.1492361479	 0.169497
C	 1.2995488592	 1.8932934254	-0.1268621278	-0.429511
C	 1.3102723316	 2.9560465877	-1.1877444968	 0.16951
C	 2.4335554063	 3.964482936	-1.6062791296	-0.291512
C	 1.294205741	 4.1633540027	-2.6557690299	-0.156067
N	 1.0670851282	 2.651601829	-2.6736322393	-0.346397
C	 0.3459461561	 4.1432764399	-1.4438371182	 0.49623
O	-0.5639855366	 4.7204043342	-0.9463712632	-0.318237
H	-0.9148107791	 1.6942228327	-0.238238508	 0.104343
H	 1.3634541406	 2.3833823905	 0.8554834523	 0.142987
H	 2.1480110436	 1.2075989396	-0.2138333459	 0.130599
H	 2.6968081971	 4.7867392911	-0.9333508661	 0.119605
H	 3.3195713693	 3.4728944036	-2.019027705	 0.115212
H	 1.2894767531	 4.7639985488	-3.5618257659	 0.111425
H	 1.9238951557	 2.2208664915	-3.0388590882	 0.219768
52.3045	74.6144	144.2972	188.7177	225.5666	368.8161	424.4188	510.8983	546.6587	665.5171	700.5677	769.2704	781.2501	802.0867	829.5189	887.5969	928.4216	983.9848	1025.7485	1045.8926	1064.1845	1078.4976	1116.076	1168.4593	1191.5232	1198.7178	1263.4934	1286.6321	1307.5054	1360.2386	1428.2113	1448.6118	1496.6732	1840.1017	1940.2077	2906.36	3020.3315	3040.3537	3090.9773	3114.7294	3160.2253	3376.7807
O=CCC12CC(N1)C2=O	O=CC[C@@]12C[C@@H](N1)C2=O	
InChI=1S/C6H7NO2/c8-2-1-6-3-4(7-6)5(6)9/h2,4,7H,1,3H2	InChI=1S/C6H7NO2/c8-2-1-6-3-4(7-6)5(6)9/h2,4,7H,1,3H2/t4-,6+/m1/s1
