12
gdb 42253	3.05113	1.1247	1.00404	5.921	67.84	-0.2894	-0.0919	0.1975	1161.5136	0.074501	-435.433168	-435.424725	-435.423781	-435.467381	29.102	
O	 0.2315206298	 0.3184654981	 0.9690338871	-0.268732
C	 0.2246130482	 1.3676200989	 0.3713433678	 0.259748
C	 1.4029635739	 1.9546898946	-0.231338569	 0.250308
C	 2.3670727044	 2.4625601369	-0.742727705	-0.410751
C	-1.0335905588	 2.1952859088	 0.2098225849	-0.058501
O	-2.2619665582	 1.5286655685	 0.4411961129	-0.196672
C	-1.8811604814	 2.506090022	 1.3944603203	-0.101424
C	-1.5416301645	 2.0538311265	 2.7266667647	 0.327717
N	-1.3039648621	 1.7630745698	 3.8190339695	-0.315296
H	 3.2323423964	 2.8958022256	-1.1843014401	 0.228611
H	-1.0325064543	 2.9192873719	-0.6040735158	 0.131467
H	-2.4585991133	 3.4290567484	 1.3737458929	 0.153524
34.9709	104.7224	139.8915	201.3138	230.3402	282.4574	307.6318	469.407	540.0661	566.6322	616.8632	668.2549	717.9583	758.5031	782.4133	887.3244	920.0845	983.7334	1071.8246	1107.2602	1129.1675	1267.6578	1371.612	1428.9136	1779.7838	2214.1691	2367.299	3125.9709	3136.4658	3489.6255
O=C(C#C)C1OC1C#N	O=C(C#C)[C@H]1O[C@H]1C#N	
InChI=1S/C6H3NO2/c1-2-4(8)6-5(3-7)9-6/h1,5-6H	InChI=1S/C6H3NO2/c1-2-4(8)6-5(3-7)9-6/h1,5-6H/t5-,6+/m0/s1
