23
gdb 100784	3.08377	0.91826	0.75133	1.6601	81.93	-0.2596	0.064	0.3236	1573.4752	0.202918	-425.408006	-425.397133	-425.396188	-425.444509	39.323	
C	-0.0236907341	 1.466447413	-0.4988919376	-0.380121
C	 0.0122214858	 0.0068358763	-0.0377843473	-0.197299
C	-1.3855675998	-0.6096451833	 0.1045332892	 0.131927
O	-2.1198234825	-0.4966221233	-1.1158483566	-0.431729
C	-1.3738524952	-2.069438113	 0.6054944836	-0.042886
C	-0.7567990988	-2.2253319267	 2.0047674603	-0.411891
C	-2.7850830697	-2.6262063669	 0.6121713156	 0.123546
C	-3.3195264641	-3.4713176383	-0.45591462	-0.178803
O	-2.9054461968	-4.0417633045	 0.7890041327	-0.251268
H	 0.9871482772	 1.8595717576	-0.6423804051	 0.109338
H	-0.5706068567	 1.5626423226	-1.4399385418	 0.127158
H	-0.5262216837	 2.098848698	 0.2413454578	 0.114791
H	 0.5892058595	-0.5986434873	-0.7531276384	 0.084385
H	 0.5415676851	-0.0653578306	 0.9181297909	 0.103792
H	-1.9640787571	-0.0059725339	 0.8183967898	 0.084805
H	-1.6484077778	-1.0040759083	-1.7863634929	 0.274905
H	-0.7844143626	-2.6721512822	-0.1018718473	 0.064888
H	-1.2565801759	-1.5726073617	 2.73035946	 0.114298
H	-0.8729730418	-3.2576320721	 2.3451609281	 0.138757
H	 0.3090993725	-1.9850560003	 2.0137344156	 0.117804
H	-3.500644424	-2.0479029935	 1.2018152897	 0.088356
H	-4.3906534821	-3.4934332341	-0.6509139069	 0.114784
H	-2.6906383874	-3.7163819876	-1.3114181094	 0.100464
45.2405	69.6046	99.8942	142.1253	203.397	216.9986	242.3815	270.8264	296.1941	306.5387	340.603	405.4778	450.7429	522.6963	560.1646	779.2537	809.3993	846.9283	876.1031	932.592	958.6052	970.7258	989.6839	1045.0781	1064.7463	1095.2265	1097.7224	1120.147	1149.9548	1154.8721	1171.0494	1196.2261	1242.8291	1264.8736	1297.0546	1319.7945	1332.6144	1364.2301	1387.3844	1403.4847	1409.0047	1417.8195	1449.0948	1480.4703	1495.6528	1497.3011	1505.9508	1509.597	1531.9619	2993.2519	2996.1714	3017.931	3034.4951	3039.0332	3070.5082	3078.8362	3082.7228	3102.6535	3105.4754	3123.8945	3126.5117	3165.0067	3794.045
CCC(O)C(C)C1CO1	CC[C@@H](O)[C@@H](C)[C@H]1CO1	
InChI=1S/C7H14O2/c1-3-6(8)5(2)7-4-9-7/h5-8H,3-4H2,1-2H3	InChI=1S/C7H14O2/c1-3-6(8)5(2)7-4-9-7/h5-8H,3-4H2,1-2H3/t5-,6-,7-/m1/s1
