23
gdb 89734	2.38187	1.40639	1.19647	1.3776	86.05	-0.2446	0.0722	0.3168	1200.6866	0.203754	-388.275681	-388.265807	-388.264863	-388.309494	38.619	
C	-0.9479428144	 1.0188851446	-0.1300391597	-0.427241
C	 0.1437529893	-0.0387105548	-0.0710342964	 0.00843
C	 1.5224642381	 0.2401133909	-0.7406128792	-0.343282
C	 2.1809436782	-0.4938411343	 0.4309261345	 0.363622
C	 2.9849680548	-1.7544519156	 0.3289976143	-0.313646
C	 3.6065133967	-0.4965949827	 0.8935224482	-0.348457
C	 0.89959451	-0.3609661894	 1.2690439752	 0.311798
C	 0.9466502714	 0.7827989398	 2.2782732052	-0.452204
O	 0.5383612881	-1.5744924648	 1.906932272	-0.476247
H	-0.5910767602	 1.9946772373	 0.2161832857	 0.111883
H	-1.3082878078	 1.1475863425	-1.1567269205	 0.116152
H	-1.8115072592	 0.741160498	 0.4857421017	 0.108742
H	-0.2405033144	-0.9960857554	-0.4372251117	 0.08098
H	 1.6808354349	-0.1714446866	-1.7407989293	 0.097575
H	 1.7623336069	 1.3096215062	-0.7616105264	 0.093111
H	 2.7414774562	-2.5545104698	 1.01875912	 0.128149
H	 3.2959747873	-2.0813159623	-0.6585385077	 0.104136
H	 4.3386751436	 0.0327508114	 0.2915677997	 0.106413
H	 3.8012044656	-0.4629641249	 1.9611989127	 0.108817
H	 1.2891872749	 1.7146341258	 1.8195540398	 0.122383
H	-0.044438219	 0.9709235641	 2.7104772906	 0.104228
H	 1.6346386469	 0.5331963024	 3.0918738103	 0.121071
H	-0.1612112479	-1.3864453321	 2.5410621709	 0.273588
82.5431	192.2033	209.9335	223.9285	229.2679	230.7399	248.4331	277.4452	324.4056	399.4377	403.0939	468.9109	515.3434	562.8379	663.755	761.8713	783.9254	854.0947	867.1488	907.8767	921.2835	936.4386	953.7541	986.2543	1007.135	1050.9718	1073.0859	1078.1136	1119.0023	1123.0823	1157.1331	1182.3449	1189.4564	1209.5069	1238.8894	1248.7935	1283.3225	1335.2674	1375.4431	1404.5608	1409.6854	1412.7756	1461.3213	1485.2709	1488.9039	1493.5531	1500.8261	1501.5321	1506.1176	3021.4621	3025.1925	3033.6509	3055.2754	3085.1706	3090.8876	3091.6036	3098.7464	3115.2711	3119.3724	3128.0704	3198.9469	3221.7606	3811.1217
CC1CC2(CC2)C1(C)O	C[C@H]1CC2(CC2)[C@]1(C)O	
InChI=1S/C8H14O/c1-6-5-8(3-4-8)7(6,2)9/h6,9H,3-5H2,1-2H3	InChI=1S/C8H14O/c1-6-5-8(3-4-8)7(6,2)9/h6,9H,3-5H2,1-2H3/t6-,7+/m0/s1
