21
gdb 87250	4.19901	0.73342	0.69476	3.0489	80.59	-0.2531	-0.026	0.2271	1682.559	0.178013	-424.215228	-424.204631	-424.203687	-424.251739	37.559	
C	-0.1387528225	 1.4063921289	-0.1857627782	-0.418774
C	 0.0174099566	-0.0572992224	 0.1597800466	-0.041455
C	 1.3403909154	-0.785063849	-0.0116795998	-0.352235
C	 0.7588461038	-0.5579804116	 1.3666301389	 0.436612
C	 1.4248257607	 0.3739621485	 2.3537363632	-0.461168
O	 0.1275958162	-1.6698414281	 1.9618786788	-0.294191
C	 0.9942446975	-2.647279495	 2.4880150941	-0.165132
C	 0.1720587269	-3.8893530561	 2.7855206832	 0.140352
O	 0.6004054732	-4.8497465154	 3.3679674652	-0.239084
H	 0.7723211958	 1.9767607883	 0.0170916719	 0.115877
H	-0.3648261847	 1.5252102893	-1.2508946099	 0.12254
H	-0.955091724	 1.8677568984	 0.3808483597	 0.122581
H	-0.8521146235	-0.6673328208	-0.069281849	 0.096603
H	 1.3173150995	-1.7913546816	-0.4155465497	 0.113722
H	 2.2101324733	-0.202610518	-0.3002840169	 0.110663
H	 1.8429961867	 1.2499227874	 1.8533939505	 0.12272
H	 0.7027413794	 0.7168899759	 3.1021518482	 0.127175
H	 2.2480824646	-0.1227332077	 2.8783335455	 0.120796
H	 1.7853417751	-2.9195864206	 1.7699552634	 0.122759
H	 1.4929982624	-2.3257618572	 3.4142691691	 0.125308
H	-0.8711594326	-3.8337312033	 2.4029937551	 0.094329
48.4153	61.714	100.1568	126.3967	184.1729	184.8536	238.1921	268.9493	294.9198	370.5322	401.8482	431.8388	521.7694	560.452	716.1957	739.6819	797.9751	878.3135	905.315	937.8521	968.1746	1016.3723	1040.816	1054.7923	1099.403	1114.5985	1122.5547	1136.8056	1144.8413	1188.3412	1235.3618	1248.8515	1324.9692	1352.1462	1401.1512	1408.909	1415.715	1426.2145	1477.4332	1481.5488	1484.0538	1494.0356	1499.6806	1516.3371	1843.8461	2896.6893	2976.8814	3017.2626	3031.8584	3038.7529	3092.0613	3097.0406	3103.5262	3124.4988	3129.1039	3150.7831	3213.9173
CC1CC1(C)OCC=O	C[C@H]1C[C@]1(C)OCC=O	
InChI=1S/C7H12O2/c1-6-5-7(6,2)9-4-3-8/h3,6H,4-5H2,1-2H3	InChI=1S/C7H12O2/c1-6-5-7(6,2)9-4-3-8/h3,6H,4-5H2,1-2H3/t6-,7-/m0/s1
