18
gdb 18615	3.03878	2.01312	1.67223	1.6719	72.84	-0.2192	0.0182	0.2374	871.1723	0.154403	-347.803937	-347.796487	-347.795543	-347.835195	29.294	
C	 0.0169926596	 1.4930472839	 0.0980975587	-0.49863
C	 0.0301886155	-0.00281894	 0.0321999219	 0.327583
C	 0.0929326942	-0.7698988069	-1.0666204334	-0.209324
C	 0.0445061228	-2.250145746	-0.751215908	-0.270884
C	 0.0397119902	-2.2984455613	 0.7778255443	-0.106178
C	 1.2359346637	-1.7127334539	 1.4752265146	 0.130455
O	 2.4498196281	-1.4831549037	 0.8319541931	-0.427424
C	 0.0073505306	-0.8420368266	 1.269468808	-0.195358
H	 0.8727992046	 1.8740292658	 0.6686511978	 0.133351
H	 0.0393751585	 1.9421878568	-0.8983627987	 0.123711
H	-0.8833807917	 1.8521732118	 0.612337838	 0.128936
H	 0.171243548	-0.3910216726	-2.0804832395	 0.088788
H	-0.8506330416	-2.7220682834	-1.1758371157	 0.109284
H	 0.90675889	-2.7896672145	-1.1669010245	 0.116136
H	-0.5263395278	-3.0756754394	 1.2784724668	 0.08413
H	 1.4175060295	-2.0467608789	 2.4917852428	 0.103557
H	 2.2640428195	-0.9546069824	 0.0441031502	 0.281454
H	-0.5630992536	-0.5134183486	 2.1326323137	 0.080412
140.0978	180.3181	213.0381	267.8536	307.3696	369.1429	443.1396	547.2628	592.4965	653.358	725.8155	756.0127	785.4107	821.1711	863.7734	942.419	971.0147	981.2877	1012.7776	1028.5159	1056.9085	1064.6645	1077.3969	1101.6606	1175.4729	1186.4551	1200.5406	1262.77	1303.1801	1333.9024	1360.0116	1367.8491	1414.5396	1449.3546	1478.9861	1481.7521	1490.1478	1694.3188	3014.2869	3020.9893	3040.6944	3068.701	3113.0086	3152.3505	3162.5889	3175.5685	3185.5174	3739.175
CC1=CCC2C(O)C12	CC1=CC[C@H]2[C@@H](O)[C@@H]12	
InChI=1S/C7H10O/c1-4-2-3-5-6(4)7(5)8/h2,5-8H,3H2,1H3	InChI=1S/C7H10O/c1-4-2-3-5-6(4)7(5)8/h2,5-8H,3H2,1H3/t5-,6+,7-/m1/s1
