15
gdb 81724	3.2485	1.31052	1.05851	6.1191	73.19	-0.2606	-0.0158	0.2448	1117.4283	0.112471	-416.811289	-416.803064	-416.802119	-416.844318	29.593	
C	-0.1158035535	 1.3646118478	-0.2801778378	-0.350589
N	-0.0236024762	 0.013654707	 0.2349496156	-0.093089
C	-1.0412344475	-1.033062934	 0.2108247468	-0.047456
C	-0.9547557871	-1.8496823679	-1.0353413219	-0.32165
C	 0.0633546249	-2.0823682176	 0.0981788395	 0.025804
C	 0.2108162167	-3.3221691031	 0.7758394682	 0.206226
N	 0.3425474562	-4.3322350927	 1.3250206266	-0.341926
C	 1.0349731014	-0.8775223322	 0.0846581044	 0.378113
O	 2.2128530016	-0.7197915593	-0.0404147285	-0.336821
H	 0.899301185	 1.7621958256	-0.3466539367	 0.168134
H	-0.5756797901	 1.3959633165	-1.2767612405	 0.128252
H	-0.6967855422	 1.9973173535	 0.3968547718	 0.140965
H	-1.8704176171	-1.0324030671	 0.9057719615	 0.143981
H	-1.6796603987	-2.6493746624	-1.1541645689	 0.15504
H	-0.6077164434	-1.3987897242	-1.95978072	 0.145015
100.2639	131.1422	148.5632	197.6047	217.4351	259.1456	403.7533	469.5442	523.2685	553.6572	605.0047	711.1398	764.605	807.53	885.933	929.8512	938.1469	985.8367	1019.0523	1047.0683	1097.058	1150.9806	1201.3344	1227.0066	1267.6282	1362.4066	1378.0897	1448.7422	1479.7318	1484.6765	1512.5943	1902.8988	2353.3207	3015.7665	3089.7662	3126.2368	3137.4599	3212.8381	3221.8881
CN1C2CC2(C#N)C1=O	CN1[C@H]2C[C@@]2(C#N)C1=O	
InChI=1S/C6H6N2O/c1-8-4-2-6(4,3-7)5(8)9/h4H,2H2,1H3	InChI=1S/C6H6N2O/c1-8-4-2-6(4,3-7)5(8)9/h4H,2H2,1H3/t4-,6-/m0/s1
