21
gdb 114285	2.2491	1.38718	1.04825	0.8194	88.23	-0.2414	0.049	0.2904	1249.3561	0.181686	-349.895798	-349.886657	-349.885713	-349.929624	35.237	
C	-0.088852225	 1.6568051738	 0.0638377937	-0.379616
C	-0.0115105234	 0.1412650869	 0.2776228737	-0.204594
C	-1.3453458801	-0.5528604585	 0.0197137125	 0.042997
C	-1.9478992708	-0.64702792	-1.4294562205	-0.270332
C	-2.1708980294	-2.1494221489	-1.2118605548	-0.069558
C	-0.8485150667	-2.8569448588	-1.0028255396	-0.196084
C	 0.3568919151	-2.5292169896	-1.7129521193	 0.331254
C	 1.3585626824	-2.3055093713	-2.3421515366	-0.455016
C	-1.4762908348	-2.0787962007	 0.1439254209	-0.110394
H	 0.87500076	 2.1365009259	 0.2601455406	 0.110319
H	-0.3746841314	 1.8976681264	-0.9660696332	 0.117404
H	-0.8305908738	 2.1162977497	 0.7275687645	 0.108563
H	 0.7601495175	-0.2864678881	-0.368434131	 0.118171
H	 0.2975103994	-0.0683375332	 1.3106469968	 0.089617
H	-2.1063369475	-0.1017150052	 0.6681036813	 0.073092
H	-2.8709088691	-0.0771693738	-1.5487717309	 0.101818
H	-1.2691470954	-0.3997595783	-2.2513019401	 0.110384
H	-3.0522058724	-2.7080690579	-1.5033864652	 0.090486
H	-0.9764061299	-3.9282250207	-0.8592222818	 0.112972
H	 2.2471519968	-2.0974989545	-2.8846796029	 0.192887
H	-1.7166629115	-2.606355173	 1.0606916522	 0.085631
73.8294	129.6489	133.0614	180.5283	213.6301	273.1289	341.483	405.8518	434.4832	538.1792	586.0208	598.1893	647.1495	712.9183	758.6751	776.9808	791.3489	826.8834	900.6978	939.5238	959.3862	974.0673	1004.0367	1009.2758	1021.2786	1071.9097	1085.1718	1129.2291	1136.6126	1179.364	1196.8018	1242.3427	1264.0219	1292.4358	1296.265	1329.0428	1354.5972	1398.0988	1408.1323	1417.3473	1484.3968	1492.3075	1499.45	1506.5641	2227.6377	3019.4066	3025.2409	3027.2146	3057.8065	3080.3125	3100.5678	3103.9219	3117.1609	3126.028	3164.5283	3183.5726	3503.1481
CCC1CC2C(C#C)C12	CC[C@H]1C[C@H]2[C@@H](C#C)[C@@H]12	
InChI=1S/C9H12/c1-3-6-5-8-7(4-2)9(6)8/h2,6-9H,3,5H2,1H3	InChI=1S/C9H12/c1-3-6-5-8-7(4-2)9(6)8/h2,6-9H,3,5H2,1H3/t6-,7+,8-,9+/m0/s1
