17
gdb 48863	3.73698	1.43889	1.41987	2.7261	70.43	-0.246	-0.0315	0.2145	958.7973	0.137059	-421.831732	-421.824718	-421.823774	-421.864547	27.48	
O	-0.2600402682	 0.3053504872	-0.5599124877	-0.264874
C	 0.1017121909	 1.1605439776	 0.2079944648	 0.06421
C	 1.3735594523	 1.9360549597	 0.0354517256	 0.280444
C	 2.7172550177	 1.1536539369	 0.0526485006	-0.25103
C	 3.5980007554	 2.3933183337	 0.0100492917	-0.119027
C	 2.8448134011	 3.4463604554	-0.8084758548	-0.118931
C	 1.5298124571	 2.8138148471	-1.238561796	-0.251034
C	 2.7740249649	 3.455733107	 0.701858161	 0.091439
O	 1.5410281456	 2.8840882269	 1.1003921114	-0.297201
H	-0.4867982726	 1.4392861194	 1.1088159259	 0.097418
H	 2.8372277634	 0.5743349378	 0.9722201817	 0.111521
H	 2.8137933589	 0.4947869115	-0.8125412669	 0.12256
H	 4.6769833194	 2.3581216732	 0.0704115818	 0.096103
H	 3.3464736525	 4.2183508244	-1.3754449302	 0.096093
H	 1.5894790818	 2.2069636525	-2.14418859	 0.122577
H	 0.7166685242	 3.5386469628	-1.3336195056	 0.111507
H	 3.1473140256	 4.2306525671	 1.3553403667	 0.108224
16.3785	181.9811	221.5993	395.7456	438.8143	478.7935	556.8526	662.0638	709.0446	717.8865	792.8339	808.0014	811.4954	873.8989	933.8815	954.2167	972.5362	981.5625	992.4234	1007.9586	1047.0474	1048.9986	1085.8747	1104.6303	1114.3668	1170.2261	1189.4993	1195.1423	1254.5302	1279.7204	1295.8538	1326.6028	1382.7743	1411.5855	1475.6665	1495.7667	1828.0185	2904.118	3066.1168	3069.85	3123.649	3128.8233	3208.9881	3214.5285	3231.6725
O=CC12CC3C(C1)C3O2	O=C[C@@]12C[C@H]3[C@@H](C1)[C@H]3O2	
InChI=1S/C7H8O2/c8-3-7-1-4-5(2-7)6(4)9-7/h3-6H,1-2H2	InChI=1S/C7H8O2/c8-3-7-1-4-5(2-7)6(4)9-7/h3-6H,1-2H2/t4-,5+,6-,7+
