17
gdb 91606	2.32629	2.03456	1.5068	3.8132	66.61	-0.2675	0.0061	0.2737	927.762	0.137887	-459.016216	-459.009141	-459.008197	-459.047634	28.018	
C	-0.1309294251	 1.5408666015	-0.0501322424	-0.412505
C	 0.0322596699	 0.0334216564	 0.023754614	 0.133049
O	 0.8334983531	-0.4456756102	-1.0929519837	-0.270993
C	 1.8574186886	-1.2158203463	-0.5231036866	 0.205482
C	 1.2027355117	-1.9158787117	 0.6695081905	-0.269569
C	 0.7993572723	-0.5427412198	 1.2499619907	-0.218445
C	 2.1681103363	 0.1393966274	 1.2435777336	 0.462058
O	 2.648659106	 0.9351588184	 1.9928105051	-0.351513
O	 2.8077384207	-0.3277473036	 0.1205987937	-0.238847
H	 0.8307049124	 2.0541408806	 0.0285678567	 0.149945
H	-0.5925650371	 1.8168030364	-1.0019701359	 0.133705
H	-0.7790694303	 1.8905382979	 0.7598835383	 0.123356
H	-0.9514296851	-0.451294865	-0.0344035928	 0.089029
H	 2.3791923518	-1.7800304345	-1.2915969126	 0.110896
H	 0.3582729915	-2.5451096073	 0.3818720659	 0.120815
H	 1.9071362028	-2.4741941257	 1.2877465701	 0.127886
H	 0.2763278606	-0.4874540346	 2.2009174451	 0.105651
142.0174	149.4649	222.8389	316.5374	433.9403	473.9543	502.6557	506.9919	576.7248	727.1844	747.1246	818.6221	843.9737	852.7253	891.5449	900.287	953.5243	973.9531	1017.9285	1044.2441	1050.3912	1092.1246	1126.9241	1142.8145	1179.0878	1206.2606	1257.433	1283.6898	1317.0562	1356.4857	1361.4098	1388.0679	1419.7712	1484.0285	1496.6822	1498.3493	1899.2227	3013.1987	3046.17	3081.6185	3118.0562	3131.691	3143.8429	3164.1414	3170.7975
CC1OC2CC1C(=O)O2	C[C@H]1O[C@@H]2C[C@H]1C(=O)O2	
InChI=1S/C6H8O3/c1-3-4-2-5(8-3)9-6(4)7/h3-5H,2H2,1H3	InChI=1S/C6H8O3/c1-3-4-2-5(8-3)9-6(4)7/h3-5H,2H2,1H3/t3-,4-,5+/m1/s1
