25
gdb 120639	3.57691	0.77988	0.75179	1.0245	90.5	-0.2313	0.0818	0.3131	1712.4512	0.226283	-389.48263	-389.471494	-389.47055	-389.519039	40.852	
C	-0.0894945292	 1.3808303358	 0.0658835499	-0.386703
C	-0.2982021912	-0.0727387205	-0.3219771542	-0.035979
O	-1.3019100522	-0.6215922307	 0.5198283347	-0.246379
C	-1.5454144923	-1.9706934907	 0.2750440424	 0.078381
C	-2.8389045224	-2.5230444873	 0.7878551462	-0.363869
C	-2.6128197545	-2.4065707415	-0.7136647719	 0.324153
C	-3.3860647509	-1.3290028103	-1.4496913612	-0.465554
C	-2.3563347192	-3.692431433	-1.4856944312	-0.245297
C	-3.6237146166	-4.4917791754	-1.8148520149	-0.376555
H	 0.688795177	 1.8336065285	-0.5557320279	 0.113924
H	-1.0136132326	 1.9510886312	-0.0657800072	 0.12584
H	 0.2130269337	 1.4581502348	 1.1140617893	 0.127268
H	-0.5988686195	-0.1572433567	-1.3773490147	 0.09135
H	 0.6380743604	-0.6430444889	-0.2049720658	 0.087516
H	-0.6542667877	-2.5984095042	 0.3497953728	 0.074407
H	-2.8371111497	-3.5051824451	 1.2495394387	 0.105823
H	-3.5141445691	-1.8088181608	 1.2471201203	 0.117489
H	-3.3786314912	-0.3936598527	-0.8851620369	 0.127939
H	-2.9463617958	-1.1325919055	-2.435289709	 0.107015
H	-4.4303202697	-1.6196570768	-1.6071171069	 0.114595
H	-1.8251737641	-3.4507347641	-2.4168118933	 0.091089
H	-1.6764380821	-4.3282392336	-0.9041210359	 0.089663
H	-3.3750907157	-5.4255115846	-2.3290088513	 0.10944
H	-4.1752855738	-4.7462750763	-0.9035198703	 0.116894
H	-4.2996662917	-3.9275165415	-2.4649056317	 0.11755
61.3445	78.8327	104.7785	115.3726	208.693	222.2447	231.8755	241.319	272.5641	310.4434	343.6217	371.6196	445.6278	484.9871	579.342	705.3367	784.5014	810.5199	823.4372	872.3437	895.821	924.9963	965.6915	1010.3995	1032.1868	1040.0767	1065.5475	1079.3001	1113.7785	1126.2219	1135.3978	1163.7803	1188.4202	1211.1485	1272.4882	1278.3262	1295.6591	1353.1909	1370.2754	1386.4118	1405.3674	1409.6122	1414.7975	1439.8987	1479.0913	1483.3704	1487.1786	1497.966	1499.1377	1505.0732	1505.9689	1509.3396	1527.8536	2968.2413	3003.3942	3007.1728	3024.9864	3034.5248	3042.3135	3044.2498	3067.7729	3081.0103	3102.2169	3105.0841	3118.2523	3120.6308	3120.9971	3127.7763	3215.3371
CCOC1CC1(C)CC	CCO[C@H]1C[C@]1(C)CC	
InChI=1S/C8H16O/c1-4-8(3)6-7(8)9-5-2/h7H,4-6H2,1-3H3	InChI=1S/C8H16O/c1-4-8(3)6-7(8)9-5-2/h7H,4-6H2,1-3H3/t7-,8-/m0/s1
