17
gdb 50834	3.16031	0.99715	0.8594	2.2891	70.03	-0.2464	-0.044	0.2024	1343.1375	0.133364	-458.958306	-458.949108	-458.948164	-458.994721	31.14	
O	 0.9270447148	-0.1307612753	-0.2200529803	-0.233065
C	 0.4265366818	 0.9571833188	-0.3263358946	 0.163114
C	 1.09154675	 2.2460067588	 0.1337582464	-0.382157
C	 1.0986587781	 3.2697194082	-1.0082727934	 0.338233
O	 0.0788451077	 3.6145143996	-1.5502321963	-0.292605
C	 2.4779854956	 3.7512612777	-1.4307611355	 0.038821
C	 3.2691892343	 2.7338123136	-2.3037441249	-0.299368
C	 3.1330251312	 3.8204313781	-3.3917248912	-0.060015
O	 2.4571108442	 4.7155928078	-2.48082052	-0.263165
H	-0.5700504963	 1.1079934417	-0.7900561199	 0.110729
H	 0.4737097709	 2.6720772427	 0.9345776851	 0.158899
H	 2.087340343	 2.0243004185	 0.523978079	 0.128044
H	 3.0156645863	 4.1130640454	-0.5420310269	 0.100456
H	 4.285246603	 2.5360902914	-1.9626166446	 0.12709
H	 2.7659340745	 1.7870658124	-2.5063393308	 0.131922
H	 4.0725356226	 4.2477517128	-3.7584348938	 0.113183
H	 2.4979589484	 3.5557435178	-4.2443387583	 0.119885
24.1568	58.5298	78.3381	99.0418	196.9907	201.1635	295.1958	367.049	473.2255	587.0951	654.1095	761.8404	803.2101	823.9224	864.0675	940.7634	960.0079	969.9874	1025.5858	1041.9764	1071.6913	1094.5278	1123.0308	1162.7883	1186.7964	1211.3123	1250.118	1256.773	1280.9496	1344.7898	1373.2305	1411.7647	1444.7227	1490.7897	1530.0688	1807.8084	1841.1895	2929.434	2998.543	3032.7919	3040.3748	3077.1172	3087.2874	3120.4125	3145.4791
O=CCC(=O)C1CCO1	O=CCC(=O)[C@H]1CCO1	
InChI=1S/C6H8O3/c7-3-1-5(8)6-2-4-9-6/h3,6H,1-2,4H2	InChI=1S/C6H8O3/c7-3-1-5(8)6-2-4-9-6/h3,6H,1-2,4H2/t6-/m1/s1
