19
gdb 47099	2.53235	1.71118	1.18071	2.0361	73.94	-0.2418	-0.0249	0.217	1065.1012	0.161382	-423.065074	-423.057471	-423.056526	-423.097822	29.387	
O	-0.2036702401	 0.1792434387	 0.5941829126	-0.305841
C	-0.0968063742	 1.3277168038	 0.2536895103	 0.357021
C	-1.2487604184	 2.3213831797	 0.0762423827	-0.189396
O	-0.6816310908	 3.5426145604	-0.3496512975	-0.269253
C	 0.7166647292	 3.5531721968	-0.0446507617	 0.115585
C	 1.0856090806	 4.0833528162	 1.3537784248	-0.237006
C	 2.4332719277	 3.403103269	 1.6406991866	-0.202497
C	 2.2695672153	 1.9642060339	 1.0874434139	-0.227941
C	 1.2006043692	 2.0891478006	-0.0273665725	-0.14208
H	-1.9684007364	 1.9672210443	-0.6704151457	 0.135906
H	-1.7827233065	 2.4154383072	 1.0348879048	 0.124986
H	 1.1932702122	 4.1561974928	-0.8225955654	 0.087681
H	 1.1205622073	 5.1743922945	 1.3998961049	 0.105295
H	 0.3300050864	 3.7472726277	 2.0754470665	 0.103876
H	 3.2315821824	 3.922378377	 1.0971810032	 0.103518
H	 2.7045360575	 3.4194214518	 2.6994986555	 0.104456
H	 3.2104840994	 1.5586771063	 0.7098484561	 0.10757
H	 1.91900018	 1.2754262945	 1.8624164707	 0.120683
H	 1.5684656993	 1.7583813647	-1.0039367197	 0.107435
49.3154	124.7379	191.771	242.9144	374.6583	443.5081	517.3905	553.9167	588.0871	649.601	707.6137	751.1985	820.426	877.8938	890.8757	914.8284	960.5472	979.6129	980.2199	1026.8567	1040.1752	1094.7345	1111.8542	1135.1638	1168.8993	1191.9602	1213.7036	1225.2432	1256.2497	1278.6176	1310.9106	1311.8561	1330.7998	1338.0374	1353.6942	1385.8381	1481.9049	1489.8685	1493.4277	1510.2254	1851.9102	2988.0173	3031.5854	3038.8912	3056.9075	3059.3955	3063.1156	3071.2132	3093.687	3104.4864	3110.3251
O=C1COC2CCCC12	O=C1CO[C@H]2CCC[C@@H]12	
InChI=1S/C7H10O2/c8-6-4-9-7-3-1-2-5(6)7/h5,7H,1-4H2	InChI=1S/C7H10O2/c8-6-4-9-7-3-1-2-5(6)7/h5,7H,1-4H2/t5-,7-/m0/s1
