16
gdb 30203	2.83825	1.61668	1.08418	5.4631	71.47	-0.2089	0.0224	0.2313	1078.3426	0.125037	-437.906532	-437.898879	-437.897935	-437.93911	28.678	
C	-0.6592406943	 1.546589329	-0.2722564176	-0.401915
C	 0.0415386236	 0.2166550565	-0.0847962238	 0.055443
C	 0.9981768738	-0.3015735271	-1.2371099993	-0.397272
C	 2.0769649146	-0.335828403	-0.1720167721	 0.283601
C	 3.1967138745	-0.7234508999	 0.4457993194	-0.180027
O	 3.0692154066	-0.3822558341	 1.7918006615	-0.230622
C	 1.7967453362	 0.1507371889	 2.037798101	 0.472616
O	 1.3869052539	 0.4508324453	 3.1239631751	-0.404508
N	 1.2527130933	 0.2467573564	 0.7792757057	-0.141168
H	 0.0438123917	 2.3147547198	-0.607258079	 0.131096
H	-1.4543855691	 1.4493610649	-1.0185544534	 0.127755
H	-1.1106988849	 1.8786325831	 0.6670829934	 0.148925
H	-0.6583442197	-0.556445089	 0.2472972213	 0.11442
H	 0.7294287103	-1.2638807597	-1.6753533863	 0.138202
H	 1.1542404395	 0.4296528155	-2.0339756041	 0.134283
H	 4.10612551	-1.2182772468	 0.1565772282	 0.149171
65.7607	133.8439	199.2097	248.372	314.2287	394.5129	410.7429	581.378	614.6122	663.3077	687.8379	707.959	746.872	782.0677	835.0599	905.908	932.2957	1029.5202	1060.5864	1068.8983	1098.0515	1108.9991	1182.9971	1224.7289	1236.1076	1274.285	1311.6082	1359.5695	1388.9698	1414.3506	1479.1094	1484.442	1495.4585	1706.1614	1888.3791	3040.8299	3062.2175	3074.7322	3115.3212	3121.9593	3131.9598	3301.6945
CC1CC2=COC(=O)N12	C[C@H]1C[C]2[CH]OC(=O)N12	
InChI=1S/C6H7NO2/c1-4-2-5-3-9-6(8)7(4)5/h3-4H,2H2,1H3	InChI=1S/C6H7NO2/c1-4-2-5-3-9-6(8)7(4)5/h3-4H,2H2,1H3/t4-/m0/s1
