21
gdb 61050	2.72434	1.12096	0.89999	3.8245	79.26	-0.2377	-0.0117	0.2261	1347.3687	0.180485	-424.224815	-424.214874	-424.21393	-424.260093	36.105	
C	 0.0191831354	 1.3899791751	 0.2483614494	-0.401442
C	-0.032180627	-0.1301337428	 0.0898272507	-0.08869
C	-1.4559022319	-0.6552708193	 0.0756795094	 0.139257
O	-2.4449649578	 0.0353757553	 0.0775449138	-0.250739
C	 0.7026140157	-0.6050011967	-1.1749200188	 0.02732
C	 2.2438571495	-0.4069143208	-1.2664543383	-0.237645
C	 2.3449663309	-1.8033075156	-1.938173572	-0.249116
C	 0.9201725394	-2.1286272652	-1.4122737111	 0.091185
O	 0.9169568072	-2.8003489335	-0.1626530797	-0.435241
H	 1.0538458328	 1.7424458799	 0.2909462348	 0.111762
H	-0.4811507386	 1.8861183124	-0.5885493881	 0.125528
H	-0.4906449368	 1.7038025194	 1.1627109782	 0.125372
H	 0.4578468856	-0.6223626512	 0.9417123637	 0.105026
H	-1.530849673	-1.7644161978	 0.0587273346	 0.088437
H	 0.2189007287	-0.1736838994	-2.0589808137	 0.081644
H	 2.6070606387	 0.4524381988	-1.8333878039	 0.102431
H	 2.7056542917	-0.3960752494	-0.2756186027	 0.11078
H	 2.3723778422	-1.7415624463	-3.0297170892	 0.104338
H	 3.1432191749	-2.4701628104	-1.6014986875	 0.096065
H	 0.2346945892	-2.6182174362	-2.1166169086	 0.066472
H	 1.2339358233	-3.6980318163	-0.3040942408	 0.287256
66.6011	77.62	110.8723	152.7765	192.5425	245.3521	273.8093	288.7184	328.9729	374.2275	410.9705	515.776	677.1579	693.44	744.9584	838.0544	873.2956	895.4793	937.3101	943.5492	957.0496	995.6158	1015.2708	1073.1301	1100.2055	1120.905	1149.8991	1173.1758	1203.6718	1222.31	1254.4741	1264.955	1277.2068	1295.4551	1328.5961	1349.0797	1368.6152	1404.9667	1413.6587	1427.0185	1469.8818	1490.7857	1491.321	1494.2554	1821.6733	2899.7858	3005.3837	3019.2155	3043.4412	3045.7904	3056.6839	3065.6132	3105.2884	3115.1007	3121.3668	3124.2172	3817.3228
CC(C=O)C1CCC1O	C[C@@H](C=O)[C@H]1CC[C@H]1O	
InChI=1S/C7H12O2/c1-5(4-8)6-2-3-7(6)9/h4-7,9H,2-3H2,1H3	InChI=1S/C7H12O2/c1-5(4-8)6-2-3-7(6)9/h4-7,9H,2-3H2,1H3/t5-,6+,7+/m0/s1
