18
gdb 62318	3.84081	1.27461	1.11522	4.3721	79.87	-0.2338	0.021	0.2548	1110.6945	0.147647	-364.744547	-364.736536	-364.735592	-364.776959	31.372	
C	-0.1974218364	 1.6264226088	-0.061300228	-0.4975
C	 0.0569444083	 0.1119809579	 0.0192228203	 0.138468
C	-1.1057866029	-0.6378853271	-0.4207281916	 0.23791
N	-2.0408174244	-1.2208457125	-0.7743360716	-0.348193
C	 1.3210378248	-0.6838978037	-0.3238547133	-0.087906
C	 2.6757944306	-0.116496952	 0.1789565788	-0.074306
C	 2.6155295141	 1.1538058462	 0.9815408373	-0.311594
C	 2.1439938886	-0.1297995437	 1.6072255842	-0.074315
C	 0.7937555691	-0.6971163421	 1.0923016231	-0.087905
H	 0.4977874339	 2.1152105877	-0.7468134819	 0.144636
H	-1.2074703948	 1.8065958331	-0.4355201596	 0.142845
H	-0.1224781779	 2.0996430724	 0.9198211389	 0.144639
H	 1.2721136239	-1.4716319909	-1.0644377816	 0.115251
H	 3.6114496816	-0.5155066259	-0.1899880452	 0.102119
H	 3.5918827115	 1.4604246876	 1.347939064	 0.1197
H	 1.971764129	 1.9871136659	 0.7495835652	 0.118781
H	 2.6129901792	-0.5404621342	 2.4916338605	 0.10212
H	 0.2772735618	-1.4965806275	 1.6075544606	 0.115249
78.5546	163.6493	188.0103	248.434	290.015	334.7555	441.573	517.9094	552.6787	582.5623	680.9834	688.0811	732.1696	773.0249	846.9285	865.4926	870.1412	925.4976	983.8475	985.35	1019.486	1021.0097	1033.9474	1056.8124	1082.5705	1087.9314	1095.8137	1160.5265	1201.8396	1261.3906	1271.5538	1281.7805	1327.1592	1381.1421	1416.5983	1487.7253	1503.2604	1512.1354	2344.5598	3055.8514	3127.2231	3134.6101	3141.9478	3188.089	3197.5503	3197.5735	3207.4425	3262.4657
CC1(C#N)C2C3CC3C12	C[C@@]1(C#N)[C@H]2[C@H]3C[C@H]3[C@@H]12	
InChI=1S/C8H9N/c1-8(3-9)6-4-2-5(4)7(6)8/h4-7H,2H2,1H3	InChI=1S/C8H9N/c1-8(3-9)6-4-2-5(4)7(6)8/h4-7H,2H2,1H3/t4-,5+,6-,7+,8+
