21
gdb 76815	2.82992	1.56527	1.3103	1.7214	84.34	-0.2029	0.0465	0.2495	1073.3904	0.182441	-383.089828	-383.081559	-383.080614	-383.122018	33.212	
C	-0.5936866361	 1.4888178148	 0.464946388	-0.417455
C	-0.2144632652	 0.0406666571	 0.1831268424	-0.007231
C	 0.2536418675	-0.5589542567	-1.2182299969	-0.034288
N	 1.1814806254	-0.1694076462	-2.4634373431	-0.174603
C	 1.90787513	 0.7331698667	-1.4697971503	-0.209594
C	 1.6109935929	-0.5394812883	-0.6170996161	 0.292098
C	 2.0922028878	-1.3078416394	-1.8985749174	-0.242627
N	 1.1140156374	-0.5027991892	 0.7545375072	-0.185094
C	 1.8456161109	 0.2315438028	 1.7697606304	-0.340096
H	 0.1846810241	 2.2123482728	 0.2208697023	 0.128366
H	-1.4882155572	 1.7446374092	-0.1117343306	 0.130876
H	-0.8390539276	 1.6126456732	 1.5256268148	 0.122777
H	-1.0373359168	-0.591364486	 0.5348712693	 0.095913
H	-0.2367992044	-1.5121803937	-1.4162917428	 0.084116
H	 2.9471228718	 0.9332497907	-1.7444766954	 0.094247
H	 1.373445179	 1.6603229059	-1.2721122562	 0.105003
H	 1.6966964655	-2.3122254944	-2.062877273	 0.111896
H	 3.1270860259	-1.2094557889	-2.240361636	 0.103094
H	 2.1350299177	 1.2537573665	 1.4711654284	 0.09722
H	 1.2487642743	 0.2993886012	 2.6850475892	 0.120106
H	 2.7604652371	-0.318350858	 2.0141233057	 0.125275
141.5663	195.0721	209.4877	229.398	247.2996	263.6916	404.0833	491.9508	514.1087	532.6668	582.5317	625.3413	716.1844	751.7899	810.6156	829.4276	852.5178	901.6168	966.1934	991.1727	1009.5347	1053.8126	1054.6725	1077.4666	1105.6824	1116.3056	1141.672	1158.7633	1163.242	1181.5309	1197.4818	1217.8952	1252.9926	1257.1995	1287.4292	1348.1293	1379.7534	1409.2332	1446.351	1482.7342	1493.2654	1494.5742	1504.3131	1509.4529	1545.547	2955.7314	3033.3806	3041.9245	3049.5582	3060.4871	3066.475	3097.9727	3099.1732	3101.7076	3132.0274	3136.53	3161.4198
CC1C2N3CC2(C3)N1C	C[C@H]1[C@H]2N3C[C@@]2(C3)N1C	
InChI=1S/C7H12N2/c1-5-6-7(8(5)2)3-9(6)4-7/h5-6H,3-4H2,1-2H3	InChI=1S/C7H12N2/c1-5-6-7(8(5)2)3-9(6)4-7/h5-6H,3-4H2,1-2H3/t5-,6+/m0/s1
