21
gdb 107414	3.13945	1.2043	1.09377	1.0634	78.34	-0.2413	0.0733	0.3145	1210.7561	0.182514	-424.213398	-424.204506	-424.203562	-424.246661	34.48	
C	 0.4304634071	 1.3342730287	-0.2002909318	-0.253761
O	 0.023100416	-0.0065925703	-0.0037319912	-0.292119
C	 0.4295242395	-0.5447097094	 1.2145735726	 0.452468
C	 1.8593719898	-0.9977816399	 1.3817162007	-0.353852
C	 0.7315235449	-2.0152124477	 1.2985483718	-0.106262
C	 0.1496828609	-2.548297632	 2.5966617468	-0.246167
C	-0.1366940315	-1.2981265608	 3.4697023817	 0.087935
O	 0.9678781331	-0.9477465194	 4.3051254127	-0.42668
C	-0.3413375464	-0.1441803296	 2.4690347053	-0.279139
H	 1.5225377052	 1.4392100211	-0.1316994344	 0.108552
H	 0.1055518761	 1.6226320043	-1.2029129167	 0.122634
H	-0.0293149492	 2.0166357254	 0.5289139109	 0.108139
H	 2.48456637	-0.9233016112	 0.4982084015	 0.107657
H	 2.3602145058	-0.836241969	 2.3288240393	 0.128455
H	 0.6758699549	-2.624707408	 0.4039111334	 0.089447
H	-0.7876452326	-3.0794398682	 2.3913341662	 0.101761
H	 0.8091119812	-3.2502159872	 3.1222506054	 0.087359
H	-1.0300859143	-1.4463466469	 4.0917407177	 0.068567
H	 1.1659996082	-1.7061520304	 4.8639030823	 0.280206
H	-0.021333852	 0.7999033577	 2.919156491	 0.110496
H	-1.4003592668	-0.0547039472	 2.2023134148	 0.104304
100.0185	134.5784	167.1001	182.0031	293.4196	314.9818	344.9865	395.2055	399.3446	412.8325	477.2256	613.7762	674.7187	757.1111	818.5691	841.5845	892.353	922.1184	944.8287	959.7927	981.9375	1018.9422	1048.738	1059.3951	1074.9908	1111.6905	1127.0972	1183.1047	1185.9132	1196.5564	1217.3304	1250.7747	1259.0654	1280.2981	1310.5855	1329.5635	1363.8457	1397.8782	1420.9442	1467.2451	1474.3368	1481.6194	1488.7911	1497.5477	1509.2368	2989.8432	2997.2181	3024.12	3040.2501	3048.1936	3061.6606	3096.4188	3115.1646	3134.8738	3177.1451	3231.2923	3814.3689
COC12CC1CC(O)C2	CO[C@]12C[C@H]1C[C@@H](O)C2	
InChI=1S/C7H12O2/c1-9-7-3-5(7)2-6(8)4-7/h5-6,8H,2-4H2,1H3	InChI=1S/C7H12O2/c1-9-7-3-5(7)2-6(8)4-7/h5-6,8H,2-4H2,1H3/t5-,6-,7+/m1/s1
