15
gdb 70785	3.94236	1.34119	1.13629	2.854	70.94	-0.257	0.0103	0.2673	1031.1074	0.113179	-416.725056	-416.717819	-416.716875	-416.756578	28.395	
O	 0.1425673012	 1.3086798515	 0.1357564235	-0.46283
C	 0.1072641167	-0.0537751378	 0.0854336174	 0.422092
C	 0.7795881446	-0.9946408977	 1.0872972507	-0.3516
C	 0.0977596099	-1.9507888067	 0.0743797953	 0.231585
C	 0.0785734022	-3.3817974027	 0.0481445498	 0.151416
N	 0.0510505767	-4.5382626259	 0.009059606	-0.348716
C	-1.141583641	-0.9910558754	-0.1202006712	-0.137407
N	-1.0301677689	-0.8839173396	-1.6055717608	-0.353597
C	 0.3871045282	-0.9927208181	-1.1476314458	-0.137413
H	-0.3622130078	 1.6455281054	-0.6161865364	 0.302544
H	 1.8718660483	-1.0045744794	 1.0957678861	 0.123275
H	 0.374889967	-1.0029383991	 2.1018866784	 0.123276
H	-2.0851927713	-1.0196268105	 0.4246005124	 0.104745
H	-1.3393748987	-1.7441604795	-2.064242368	 0.227886
H	 1.2478957827	-1.0232642345	-1.8155611174	 0.104744
132.8777	142.8951	270.7493	332.8758	382.2477	443.7425	450.5879	520.5466	543.9572	586.5353	691.7169	696.0721	787.6241	885.7232	893.5579	926.1363	927.122	1013.6991	1034.2703	1058.5734	1088.7276	1117.6789	1125.3811	1147.778	1165.0346	1170.7218	1275.1929	1283.9792	1289.3034	1353.9767	1425.9792	1520.0514	2343.9549	3067.2764	3123.6337	3127.853	3132.1427	3422.287	3777.4518
OC12CC3(C#N)C1NC23	O[C@@]12C[C@@]3(C#N)[C@@H]1N[C@@H]23	
InChI=1S/C6H6N2O/c7-2-5-1-6(9)3(5)8-4(5)6/h3-4,8-9H,1H2	InChI=1S/C6H6N2O/c7-2-5-1-6(9)3(5)8-4(5)6/h3-4,8-9H,1H2/t3-,4+,5+,6-
