18
gdb 6889	3.20076	1.46503	1.35558	1.1825	64.13	-0.2359	0.0559	0.2918	995.586	0.151767	-422.048248	-422.039263	-422.038319	-422.081183	33.722	
C	 0.0106022911	 1.5973030179	-0.1446380493	-0.450651
C	-0.0072962706	 0.0966738318	 0.0198155427	 0.34074
O	-1.1542150218	-0.539513589	-0.487744561	-0.462573
C	 1.2755698331	-0.697156935	-0.0453280428	 0.027015
O	 2.4892405247	-0.0166304762	-0.1464906347	-0.429502
C	 0.5060254299	-0.5994161695	 1.2652372873	-0.139067
C	 1.1626117441	 0.129131874	 2.4170922277	-0.117031
O	 2.4835734724	-0.3721441538	 2.687230568	-0.416181
H	 0.9849261429	 2.0134511483	 0.1158085232	 0.139618
H	-0.1756889143	 1.8515148281	-1.1952427867	 0.108958
H	-0.768262391	 2.0740726636	 0.4586749245	 0.120167
H	-1.1525119976	-0.4219871855	-1.444930043	 0.279673
H	 1.2269981982	-1.6465788053	-0.5790547496	 0.085939
H	 2.9568221618	-0.1639333497	 0.689082805	 0.296355
H	-0.0669876544	-1.4827688808	 1.5328688074	 0.096584
H	 1.3093291442	 1.187496744	 2.1957860128	 0.125223
H	 0.5400138691	 0.0677435877	 3.3194729553	 0.105963
H	 2.4018650284	-1.3084773506	 2.8979687032	 0.28877
100.6859	162.2573	192.9808	196.2583	266.0108	277.3185	315.6175	337.1597	381.71	422.5179	471.8353	502.8247	604.3415	662.5588	726.8299	827.3924	862.3818	967.7479	977.2341	989.9038	1028.5934	1062.6305	1098.1	1118.1007	1159.1355	1201.0045	1248.7605	1290.1051	1331.078	1343.0265	1365.4849	1397.5658	1409.1373	1423.7965	1444.4074	1492.0468	1498.2244	1510.2021	3018.4705	3030.8775	3090.2568	3098.4976	3114.8525	3142.4352	3151.2095	3708.2802	3785.4914	3810.4963
CC1(O)C(O)C1CO	C[C@@]1(O)[C@@H](O)[C@H]1CO	
InChI=1S/C5H10O3/c1-5(8)3(2-6)4(5)7/h3-4,6-8H,2H2,1H3	InChI=1S/C5H10O3/c1-5(8)3(2-6)4(5)7/h3-4,6-8H,2H2,1H3/t3-,4+,5+/m1/s1
