17
gdb 66497	3.62264	1.81223	1.6927	0.6357	76.34	-0.1915	-0.0751	0.1164	849.6032	0.136427	-384.533482	-384.527042	-384.526098	-384.563604	27.988	
O	-0.1240266825	 1.4192974605	 0.1785864037	-0.472082
C	 0.054365228	 0.0624409113	 0.0275169732	 0.406344
C	-0.9684633316	-1.025094088	 0.1021316905	-0.118175
C	-0.2020749816	-0.773245611	-1.2031517577	-0.167377
C	 0.9111661355	-1.8270928214	-1.2955225686	-0.033186
C	 1.9297627968	-1.4371355583	-0.4462995833	-0.087413
C	 1.1520236669	-0.8106769869	 0.6730190381	-0.170994
C	-0.0044349064	-2.0312544101	 0.7592196807	-0.04501
C	 0.3907707826	-3.0247976173	-0.4409738036	-0.24549
H	 0.4393446884	 1.8723364618	-0.458759135	 0.28781
H	-2.0479226599	-0.9877371749	 0.1724506422	 0.093192
H	-0.7262305184	-0.3768477694	-2.0632218047	 0.084798
H	 2.7453044153	-2.1197061017	-0.2087106443	 0.105995
H	 1.6280151451	-0.4854116827	 1.5964462744	 0.079598
H	-0.2944465743	-2.4484716379	 1.7272909879	 0.070019
H	-0.4941054656	-3.5389962641	-0.8306157547	 0.103926
H	 1.1547312915	-3.7561967999	-0.1718036188	 0.108045
241.2688	291.0747	321.7769	396.4112	441.7669	546.2296	564.3973	632.0351	658.2784	681.3245	735.698	766.8258	788.969	863.955	870.4126	899.428	916.305	941.8783	974.9795	978.099	995.5325	1024.6669	1053.811	1075.5903	1099.8498	1146.2717	1157.3383	1194.6912	1208.6995	1219.8997	1246.528	1255.2983	1293.4972	1309.9441	1433.8879	1474.6959	1490.7419	3046.7326	3083.2247	3114.8948	3125.097	3135.6395	3192.4004	3201.474	3793.1468
OC12C3C1C1=CC2C3C1	O[C@@]12[C@H]3[C@@H]1[C]1[CH][C@@H]2[C@@H]3C1	
InChI=1S/C8H8O/c9-8-5-2-3-1-4(5)7(8)6(3)8/h2,4-7,9H,1H2	InChI=1S/C8H8O/c9-8-5-2-3-1-4(5)7(8)6(3)8/h2,4-7,9H,1H2/t4-,5+,6-,7+,8+/m0/s1
