12
gdb 129259	5.84402	1.08456	0.91479	3.7443	76.59	-0.2595	-0.1101	0.1494	1164.4871	0.076419	-431.59642	-431.588957	-431.588013	-431.629446	27.292	
N	-0.037061937	 1.2886368026	 0.0101085771	-0.498575
C	-0.0508643362	 0.0279514106	 0.0029011305	 0.46062
O	 1.1712828518	-0.678234659	-0.0080865509	-0.25956
N	 1.2496760291	-2.0478896254	-0.0162825544	-0.111919
C	 0.1210971529	-2.6876059673	-0.0131620279	 0.155133
C	-1.1555736557	-1.9717967432	-0.001314637	-0.03106
N	-1.2377335376	-0.6957981959	 0.0062886874	-0.227474
C	 0.1460448544	-4.1072424491	-0.0214446306	 0.253559
C	 0.0914352711	-5.308828928	-0.0279100613	-0.351882
H	 0.9208111372	 1.6399990033	 0.0063486027	 0.240974
H	-2.0745611294	-2.5559120588	 0.0009735308	 0.151572
H	 0.0659421995	-6.3712308897	-0.0335245864	 0.218611
25.3995	142.3368	184.4817	324.7767	427.6118	440.9702	457.3642	528.9127	571.9804	635.358	643.6075	684.8395	725.2669	779.5809	799.4819	873.8369	913.1029	984.9757	1017.7654	1060.9341	1248.5559	1266.9231	1420.0512	1559.5654	1694.9572	1745.7711	2236.0136	3149.3931	3498.7383	3501.4586
N=C1ON=C(C=N1)C#C	[NH]C1=N[CH]C(=NO1)C#C	
InChI=1S/C5H3N3O/c1-2-4-3-7-5(6)9-8-4/h1,3,6H	InChI=1S/C5H3N3O/c1-2-4-3-7-5(6)9-8-4/h1,3,6H
