15
gdb 23108	1.94001	1.7817	0.93432	4.9828	76.69	-0.2003	-0.0407	0.1596	1165.6441	0.112354	-453.928444	-453.91977	-453.918826	-453.962407	30.656	
O	 0.0191206789	 1.2920769047	 0.071272783	-0.394586
N	 0.0627210178	-0.1106111413	-0.0394951147	-0.255656
C	-1.1101534485	-0.6209957132	-0.0034532132	 0.290696
C	-1.2447222225	-2.1423248297	-0.110805976	-0.239117
N	-2.6875977041	-2.3357628866	 0.0339904349	-0.291165
C	-3.3183505383	-1.1530873164	 0.131614082	-0.016734
C	-2.4631860625	-0.0766567207	 0.1314739343	 0.050882
C	-2.9550939713	 1.2938693133	 0.2531557904	 0.039016
O	-4.1386702516	 1.5635971838	 0.3675219759	-0.313357
H	 0.9514180815	 1.5288365288	 0.0339462171	 0.305532
H	-0.8920285364	-2.5155386096	-1.0790960285	 0.144499
H	-0.6919693919	-2.6626567939	 0.6779859248	 0.146666
H	-3.147893189	-3.2193452356	-0.0912408705	 0.269002
H	-4.3961942157	-1.0975665549	 0.2102272481	 0.168864
H	-2.1846040062	 2.0822438313	 0.2319333524	 0.095459
47.3861	136.1867	181.1538	191.9345	248.6989	254.3872	278.6329	371.0133	412.1395	485.777	549.2631	676.3051	686.7702	804.8205	864.018	967.3125	978.8018	995.8608	1012.2159	1046.6471	1069.6686	1181.4056	1195.0732	1270.0392	1313.7374	1342.52	1393.8235	1433.9256	1481.1881	1519.2151	1591.0984	1726.4299	1748.6239	3000.3986	3036.484	3075.7247	3237.6194	3688.2975	3823.2111
ON=C1CNC=C1C=O	ON=C1CNC=C1C=O	
InChI=1S/C5H6N2O2/c8-3-4-1-6-2-5(4)7-9/h1,3,6,9H,2H2	InChI=1S/C5H6N2O2/c8-3-4-1-6-2-5(4)7-9/h1,3,6,9H,2H2
