19
gdb 106354	3.09695	1.34381	1.1514	4.3935	75.26	-0.2602	0.0162	0.2763	1132.0025	0.16004	-423.056944	-423.049003	-423.048059	-423.089441	31.027	
C	 0.0538617425	 1.546165334	 0.0464070609	-0.386501
C	-0.0817735191	 0.0249041722	-0.085267188	-0.292595
C	 0.7345241179	-0.5529527189	-1.2094119376	 0.455682
C	 2.2767368599	-0.4524120618	-1.3632160209	-0.275428
C	 1.9899915028	-1.507248283	-2.4851711886	-0.196301
C	 0.874402624	-2.0622498554	-1.5357617575	-0.284419
C	 1.1188348148	-0.651381618	-3.3944713359	 0.456926
O	 1.0895653204	-0.4994119969	-4.577816101	-0.35285
O	 0.281285045	-0.0194042898	-2.5074897468	-0.286288
H	 1.0884714397	 1.8358237172	 0.257897794	 0.118259
H	-0.2532419121	 2.0432281251	-0.8771559797	 0.144394
H	-0.5706397089	 1.9207522457	 0.8620667921	 0.117426
H	 0.2304186704	-0.4678242891	 0.8434028569	 0.10337
H	-1.1315623292	-0.2470892345	-0.2481683564	 0.116662
H	 2.6939549943	 0.5132051849	-1.6560215372	 0.120039
H	 2.8215201224	-0.8772333984	-0.5176268958	 0.111842
H	 2.7508379319	-2.1182936276	-2.9620077885	 0.09935
H	 1.2807960029	-2.6453088231	-0.7068635413	 0.111534
H	 0.0116342304	-2.5606191628	-1.9833505787	 0.118898
90.8364	146.2389	190.9865	217.0617	301.141	372.5748	483.001	498.8775	510.1688	581.4425	673.2785	763.9547	780.5913	795.2429	850.8778	887.5101	908.5557	936.1295	937.4288	986.4817	1016.5401	1043.7306	1056.8689	1067.7234	1110.5514	1125.7497	1171.9346	1209.0137	1232.6748	1235.5691	1273.2849	1308.8727	1327.054	1396.5429	1411.7636	1474.9503	1476.9133	1498.3764	1509.2929	1512.6917	1911.3678	3032.5972	3043.2291	3067.2727	3068.6663	3073.2323	3110.2804	3128.0452	3134.8175	3139.0652	3168.3048
CCC12CC(C1)C(=O)O2	CC[C@@]12C[C@@H](C1)C(=O)O2	
InChI=1S/C7H10O2/c1-2-7-3-5(4-7)6(8)9-7/h5H,2-4H2,1H3	InChI=1S/C7H10O2/c1-2-7-3-5(4-7)6(8)9-7/h5H,2-4H2,1H3/t5-,7+
