19
gdb 114326	2.29114	1.40242	1.24576	1.9337	71.49	-0.2348	0.0725	0.3073	1129.2242	0.157598	-460.11229	-460.103116	-460.102172	-460.145852	34.565	
C	-0.3296442847	 1.2538022815	 0.0572584799	-0.242132
O	 0.263151406	-0.0153781494	-0.139436682	-0.261965
C	 0.7493600134	-0.607612986	 1.0547217192	 0.034482
C	-0.2755132233	-1.2704500049	 2.0413406452	-0.270888
C	 0.4448486975	-2.6055988424	 1.8429571887	-0.155939
C	 0.4048725165	-2.9664158018	 0.3750282311	 0.050055
O	-0.6766542985	-2.6910967854	-0.4646302061	-0.439936
C	 1.4125838158	-1.9568407652	 0.823872393	 0.297998
O	 2.7811478068	-2.1179345547	 0.6997667793	-0.460523
H	 0.3900155395	 1.9629059025	 0.4919991028	 0.114056
H	-0.644439587	 1.6225038627	-0.9215607744	 0.132409
H	-1.2068837941	 1.1982748206	 0.7171231665	 0.117509
H	 1.4206720955	 0.0883946452	 1.5747584165	 0.08701
H	-0.2138572826	-0.869078269	 3.0541239116	 0.105637
H	-1.3149964945	-1.2577745093	 1.7028235176	 0.110365
H	 0.655090386	-3.3383702407	 2.6116456438	 0.096572
H	 0.8469303091	-3.9383502768	 0.1644957946	 0.100838
H	-0.6091424298	-1.760270783	-0.7185107046	 0.293643
H	 2.9922602686	-2.2210631538	-0.2345427229	 0.290808
99.6696	152.3446	162.4056	197.107	216.1742	265.5066	303.96	312.6464	412.3072	457.2188	476.9437	528.7886	598.9716	659.4309	784.563	820.3177	838.8307	908.8156	952.3531	999.8212	1011.798	1039.5849	1093.9123	1116.9857	1129.1663	1159.9682	1184.8656	1186.3572	1221.4532	1228.5244	1242.671	1292.4962	1323.5443	1336.389	1373.5496	1415.9939	1464.8567	1480.7237	1487.3374	1498.7973	1509.3851	2988.8809	3022.6932	3042.3456	3064.3413	3120.8522	3123.008	3136.2528	3196.9382	3736.3189	3799.3985
COC1CC2C(O)C12O	CO[C@H]1C[C@H]2[C@@H](O)[C@@]12O	
InChI=1S/C6H10O3/c1-9-4-2-3-5(7)6(3,4)8/h3-5,7-8H,2H2,1H3	InChI=1S/C6H10O3/c1-9-4-2-3-5(7)6(3,4)8/h3-5,7-8H,2H2,1H3/t3-,4-,5+,6-/m0/s1
