14
gdb 25043	5.62016	1.03656	0.87515	2.4168	85.33	-0.216	-0.0574	0.1586	1236.363	0.101218	-399.549722	-399.542173	-399.541229	-399.581809	28.923	
N	-0.0276843223	 1.3450030222	 0.0106130072	-0.532849
C	-0.0343202113	 0.0771987174	 0.0035127348	 0.387047
O	 1.1775912302	-0.6344177727	-0.0078092628	-0.231066
C	 1.2155921287	-1.9757065716	-0.0155695168	 0.01257
C	 0.1100362396	-2.7599898235	-0.013301125	 0.00797
C	-1.1736017632	-2.0820227707	-0.0017477407	-0.139618
C	-1.2335612309	-0.737058108	 0.0061722088	-0.144355
C	 0.2106432405	-4.1752988041	-0.0218534249	 0.226531
C	 0.2677616215	-5.3782313999	-0.0289582746	-0.416027
H	 0.9260081033	 1.7065626591	 0.0068919995	 0.225513
H	 2.2296744678	-2.3552922606	-0.0238214143	 0.147974
H	-2.0755699198	-2.6830750715	 0.0003162984	 0.125277
H	-2.1698859739	-0.1946208793	 0.0148716353	 0.132739
H	 0.3256651898	-6.4383629168	-0.0352759149	 0.198294
82.6385	144.0873	202.1337	351.6493	407.3131	433.9559	444.3286	523.3058	524.5387	567.4461	637.1803	667.2365	717.2467	729.1308	782.9763	833.7999	864.1292	903.4835	956.7774	1006.8454	1054.9899	1174.8241	1195.5496	1240.5831	1297.7355	1360.4412	1435.6937	1589.1344	1674.9145	1744.2115	2229.4195	3201.465	3221.3313	3228.8444	3496.1147	3504.0072
N=C1OC=C(C=C1)C#C	[NH]C1=CCC(=CO1)C#C	
InChI=1S/C7H5NO/c1-2-6-3-4-7(8)9-5-6/h1,3-5,8H	InChI=1S/C7H6NO/c1-2-6-3-4-7(8)9-5-6/h1,4-5,8H,3H2
