21
gdb 94715	3.21972	1.24754	1.0684	1.9735	78.72	-0.2363	0.0794	0.3156	1208.5654	0.182265	-424.22115	-424.212391	-424.211447	-424.254005	34.748	
C	 0.0149111324	 1.5227349979	 0.0992783372	-0.400713
C	 0.0148797222	 0.0072730637	-0.0304660497	 0.154996
C	 0.6561207353	-0.4919097511	-1.3284788564	-0.217467
C	 0.5560885619	-2.022150279	-1.4193490835	-0.294451
C	 0.8813607472	-2.7040806841	-0.1018143001	 0.365127
O	 0.2973442301	-3.9724309971	 0.0598935408	-0.465775
C	 2.1900294441	-2.4687464332	 0.6207826686	-0.36609
C	 0.8960875058	-1.8784695593	 1.1504598717	 0.064007
O	 0.737471794	-0.491926033	 1.0972377731	-0.271803
H	 1.036713417	 1.9111825807	 0.0438585488	 0.120987
H	-0.5753362065	 1.9772677479	-0.7019808779	 0.111906
H	-0.4117444002	 1.8219284696	 1.0602658657	 0.124353
H	-1.0234913953	-0.3640311289	 0.0137348756	 0.068118
H	 0.1595117743	-0.036304396	-2.1919434113	 0.098486
H	 1.70147566	-0.1593743417	-1.3471778505	 0.102657
H	-0.4768094847	-2.29989491	-1.6614495997	 0.11073
H	 1.1881339554	-2.4101030126	-2.2285586026	 0.089998
H	 0.8030320959	-4.5973304309	-0.472125044	 0.279936
H	 2.6171561552	-3.3113115417	 1.1533213127	 0.109364
H	 2.9025310696	-1.7685695586	 0.197765205	 0.113872
H	 0.4628385062	-2.3312279826	 2.0389200667	 0.10176
95.5845	172.5779	218.2681	248.7204	278.4308	291.605	370.2935	390.6318	398.0132	465.7159	489.8814	512.4787	617.6306	695.9299	776.5205	845.2569	893.146	906.5054	937.2738	940.8151	973.4994	1004.7386	1019.1429	1039.1954	1069.7299	1107.792	1127.7619	1166.1417	1182.6565	1197.7526	1243.6473	1256.2592	1288.2715	1336.1045	1340.9721	1365.3951	1379.9067	1401.1568	1409.0958	1411.0055	1475.0815	1477.4758	1484.8013	1499.8441	1502.4694	2954.4678	3017.0769	3028.4981	3042.1203	3057.9432	3078.1199	3114.7982	3121.9672	3131.2988	3138.1464	3226.8314	3788.428
CC1CCC2(O)CC2O1	C[C@H]1CC[C@@]2(O)C[C@H]2O1	
InChI=1S/C7H12O2/c1-5-2-3-7(8)4-6(7)9-5/h5-6,8H,2-4H2,1H3	InChI=1S/C7H12O2/c1-5-2-3-7(8)4-6(7)9-5/h5-6,8H,2-4H2,1H3/t5-,6+,7+/m0/s1
