23
gdb 41870	3.06158	1.4031	1.0187	0.2126	89.96	-0.2353	0.0324	0.2677	1223.8269	0.209982	-351.194181	-351.186245	-351.185301	-351.226859	32.02	
C	-0.0450848912	 1.5662595869	-0.0854153819	-0.213975
C	 1.4442504654	 2.019325975	-0.0274553171	-0.239521
C	 2.2007910932	 0.8123333283	 0.5464887539	 0.060125
C	 3.6990792974	 0.7023464619	 0.266313719	-0.288833
C	 4.1960028413	-0.6989061793	 0.5395138334	-0.050124
C	 3.3978844459	-1.7553531626	 0.7027247066	-0.050113
C	 1.8903003814	-1.699218166	 0.607255446	-0.288835
C	 1.4342831515	-0.3882929084	-0.0322655193	 0.060126
C	-0.0360066918	 0.0237624074	 0.1322108874	-0.23952
H	-0.6438167796	 2.0636834144	 0.682853729	 0.097622
H	-0.4948210206	 1.83113141	-1.046523294	 0.097622
H	 1.8145394411	 2.2332988027	-1.0376352963	 0.092109
H	 1.5844146617	 2.9314378478	 0.5601067102	 0.091128
H	 2.0574045601	 0.7936395802	 1.6381485449	 0.065768
H	 3.9088683987	 0.9714183397	-0.7809014766	 0.101093
H	 4.2661991971	 1.4219519999	 0.8711958541	 0.098034
H	 5.2737507118	-0.8306170417	 0.6068431204	 0.079582
H	 3.8381328187	-2.7273165073	 0.9146015754	 0.079581
H	 1.5218257159	-2.563204021	 0.0388394361	 0.098035
H	 1.4520938745	-1.8023050434	 1.6124514658	 0.101093
H	 1.6684712368	-0.4356125318	-1.1072296818	 0.065768
H	-0.3692006993	-0.2171286614	 1.1492241163	 0.092109
H	-0.70735039	-0.5021824313	-0.5529919616	 0.091127
61.086	149.4856	158.8894	311.2452	337.9008	398.0613	451.5071	510.9514	512.967	628.7243	678.4773	754.5034	783.8847	813.4607	875.0649	901.1925	915.5205	934.5945	956.8531	990.6415	998.5185	1012.9033	1013.8573	1079.2847	1087.8518	1114.3848	1126.1232	1151.6888	1169.7428	1213.3291	1215.36	1257.218	1267.3311	1284.4123	1309.9693	1323.1782	1329.5366	1336.483	1339.4986	1373.9884	1393.8059	1394.7233	1409.1742	1477.1067	1477.4556	1489.7029	1495.8749	1514.5204	1716.9175	2974.1319	2981.614	2987.445	2995.6474	3028.7148	3028.7823	3032.9125	3034.6219	3055.9616	3072.0948	3082.1007	3100.433	3136.8317	3161.0341
C1CC2CC=CCC2C1	C1C[C@@H]2CC=CC[C@H]2C1	
InChI=1S/C9H14/c1-2-5-9-7-3-6-8(9)4-1/h1-2,8-9H,3-7H2	InChI=1S/C9H14/c1-2-5-9-7-3-6-8(9)4-1/h1-2,8-9H,3-7H2/t8-,9-/m0/s1
