12
gdb 129132	3.16029	1.56531	1.04682	0.8193	73.26	-0.2649	-0.0813	0.1836	1031.7533	0.07729	-431.603618	-431.596313	-431.595369	-431.635824	26.905	
N	-0.0919864395	 1.2814428118	-0.1794240786	-0.494122
C	-0.004802508	 0.0237902592	-0.0099363993	 0.285559
N	 1.1986850396	-0.6696712382	 0.1913730965	-0.3131
C	 1.1187509398	-1.9294625392	 0.3454171947	 0.158553
O	 0.0144375412	-2.697692047	 0.3407682775	-0.209723
N	-1.2382660346	-2.0966715243	 0.1468078296	-0.156714
C	-1.2329903805	-0.8111965138	-0.0175056895	 0.131971
C	-2.5036781672	-0.2045312992	-0.2138952025	 0.333209
C	-3.5755634532	 0.3129416891	-0.3802305385	-0.343288
H	 0.846730919	 1.6869527756	-0.1438088262	 0.233334
H	 1.9975323319	-2.549667907	 0.5069966421	 0.16003
H	-4.5194036486	 0.778432283	-0.527701246	 0.214289
65.4301	148.0676	190.0516	372.3157	382.7149	421.8861	471.4057	555.4935	562.1878	585.4716	667.5125	672.0085	721.6724	820.5938	894.3783	926.7718	932.4403	981.2051	1012.7461	1156.0659	1234.7549	1372.2116	1428.6167	1586.9684	1679.3119	1710.8675	2240.8146	3176.5188	3456.0444	3499.7034
N=C1N=CON=C1C#C	[NH][C]1N=CON=C1C#C	
InChI=1S/C5H3N3O/c1-2-4-5(6)7-3-9-8-4/h1,3,6H	InChI=1S/C5H3N3O/c1-2-4-5(6)7-3-9-8-4/h1,3,6H
