27
gdb 123132	5.43734	0.41858	0.40063	1.3016	94.12	-0.2613	0.0815	0.3428	2791.4885	0.249808	-390.703204	-390.690945	-390.690001	-390.74211	43.366	
C	-0.0442540622	 1.5719238132	-0.0257506754	-0.387609
C	 0.0344785664	 0.040340736	 0.0373712107	 0.043174
C	 0.9007064842	-0.4049370143	 1.2242933361	-0.380075
C	-1.3786913838	-0.5704822763	 0.0756294355	-0.165796
C	-1.4362663801	-2.0975711919	-0.0488317511	-0.18801
C	-2.8685461775	-2.6418186436	-0.1072852182	-0.183486
C	-2.9294800365	-4.1674191857	-0.2256842038	-0.165199
C	-4.3526892701	-4.7054314696	-0.2858095378	-0.073802
O	-4.2849985878	-6.1201014612	-0.3942825842	-0.421902
H	 0.9531995875	 2.0196036069	-0.0892022285	 0.107161
H	-0.61928571	 1.9073471037	-0.8954147208	 0.107397
H	-0.5316676669	 1.9758533657	 0.8700109805	 0.109784
H	 0.521963224	-0.3087440701	-0.8850962622	 0.068774
H	 0.4445579809	-0.1016414094	 2.1748510528	 0.108678
H	 1.0371594733	-1.4897452413	 1.2511795206	 0.114111
H	 1.895202662	 0.0511326226	 1.175356219	 0.108162
H	-1.8750144053	-0.261912594	 1.0077024133	 0.086798
H	-1.9703290697	-0.1302542973	-0.7390138507	 0.085967
H	-0.8943792998	-2.409548753	-0.9527188222	 0.091812
H	-0.914150403	-2.5655725231	 0.7948372798	 0.097494
H	-3.4136697646	-2.3212831768	 0.7917078543	 0.091967
H	-3.3945270264	-2.1856742097	-0.9576777067	 0.091506
H	-2.3960830124	-4.498198973	-1.125544757	 0.102934
H	-2.4190064089	-4.6333415637	 0.6263499045	 0.103017
H	-4.903537341	-4.4017053265	 0.6199960397	 0.081618
H	-4.8804945852	-4.2649447972	-1.1480177002	 0.081626
H	-5.182849967	-6.4616378506	-0.4344895281	 0.283899
45.308	47.3354	75.5943	106.8003	126.1034	160.2125	197.498	221.9017	239.3539	257.0377	264.0145	339.1509	387.5232	420.7589	482.4446	500.469	736.1272	765.158	818.8352	843.7238	926.3686	935.3434	956.6456	968.333	996.9542	1032.3	1045.878	1054.928	1070.7421	1083.178	1146.305	1190.765	1194.0025	1217.0959	1227.1646	1271.7662	1278.2318	1312.2538	1319.6945	1325.4513	1335.543	1357.8269	1371.8488	1391.4926	1399.4551	1404.2102	1423.3182	1462.8307	1477.1992	1485.2163	1488.2521	1492.7487	1496.874	1505.1721	1508.9866	1512.606	1529.054	2955.419	2980.1195	2990.1003	2997.4092	3002.2425	3013.2348	3021.2447	3026.465	3027.6515	3030.0618	3031.1097	3060.7912	3075.9272	3085.2648	3091.522	3096.0427	3106.4985	3830.5674
CC(C)CCCCCO	CC(C)CCCCCO	
InChI=1S/C8H18O/c1-8(2)6-4-3-5-7-9/h8-9H,3-7H2,1-2H3	InChI=1S/C8H18O/c1-8(2)6-4-3-5-7-9/h8-9H,3-7H2,1-2H3
