14
gdb 48422	2.26606	1.66671	1.23922	1.8251	67.42	-0.2596	-0.0666	0.193	1006.2539	0.101296	-432.887798	-432.879863	-432.878918	-432.920736	28.373	
O	 0.1288855054	-0.0667338817	 0.0362951046	-0.237207
C	 0.0827484426	 1.1310352003	 0.0062499818	 0.140019
C	 1.351269342	 2.0100851492	-0.0492260165	 0.033095
C	 1.5247117751	 2.8081240431	 1.3142389482	-0.216131
N	 2.5689757679	 2.09488327	 2.0418141501	-0.223242
C	 3.0572854831	 1.2342514534	 1.2414161503	 0.072453
N	 2.561672403	 1.1966909078	-0.0626166054	-0.316962
C	 1.233041903	 2.9049181579	-1.2029433904	 0.254202
N	 1.0849663057	 3.6138295349	-2.1037928039	-0.321065
H	-0.8692115274	 1.6992813168	 0.0355622915	 0.120902
H	 1.8293822808	 3.8395474062	 1.1121464818	 0.151072
H	 0.5913728067	 2.8429767149	 1.8862032903	 0.133919
H	 3.8649710542	 0.5586741895	 1.5052305105	 0.145994
H	 2.4466066677	 0.2792902778	-0.4786797629	 0.262951
90.4411	99.8837	170.4487	188.031	269.4135	332.0812	471.2013	507.5128	526.9394	543.6681	598.9347	736.2982	826.3948	839.3122	910.559	954.6191	971.3872	994.2366	1070.3101	1118.5912	1128.8233	1183.6927	1232.7352	1313.9324	1343.0602	1397.5737	1426.0462	1493.6677	1704.81	1837.3979	2353.1608	2934.9032	3046.8099	3087.6075	3199.7763	3559.3951
O=CC1(CN=CN1)C#N	O=C[C@]1(C[N][CH]N1)C#N	
InChI=1S/C5H5N3O/c6-1-5(3-9)2-7-4-8-5/h3-4H,2H2,(H,7,8)	InChI=1S/C5H5N3O/c6-1-5(3-9)2-7-4-8-5/h3-4H,2H2,(H,7,8)/t5-/m1/s1
