27
gdb 123154	7.03884	0.41809	0.40976	0.1008	98.07	-0.2691	0.0913	0.3604	2792.9502	0.251263	-353.55929	-353.547977	-353.547033	-353.597231	40.84	
C	-0.1728804872	 1.5760477264	 0.0780913457	-0.378992
C	 0.0175900751	 0.0588309242	 0.0014368115	-0.162361
C	 0.6762770968	-0.531742115	 1.2528396582	-0.15874
C	 0.8744358099	-2.0494688642	 1.1830790697	-0.17794
C	 1.5295115797	-2.6395632692	 2.436240484	-0.171061
C	 1.7385503236	-4.157579324	 2.3585390423	-0.206022
C	 2.3842884947	-4.7387659749	 3.5988293153	 0.037668
C	 1.5422936053	-5.1195381917	 4.7915373636	-0.253867
C	 2.1999301366	-6.1912837701	 3.9551832479	-0.277276
H	 0.7871964585	 2.089829827	 0.2011778541	 0.112267
H	-0.6456408153	 1.9676658479	-0.8281900413	 0.109335
H	-0.805079839	 1.8531431739	 0.9292770833	 0.11229
H	-0.9553165073	-0.4252366378	-0.1574823083	 0.092575
H	 0.6254859714	-0.1905475072	-0.878540638	 0.09263
H	 1.648733527	-0.0452769738	 1.4141647973	 0.089536
H	 0.0671646584	-0.2841880298	 2.1337748821	 0.08976
H	-0.0978984499	-2.5352069959	 1.0186737216	 0.089506
H	 1.485540997	-2.2956571639	 0.303154976	 0.089905
H	 2.4990105722	-2.1498590624	 2.6042365961	 0.089353
H	 0.9165842274	-2.4044224105	 3.3166754563	 0.094911
H	 0.770720316	-4.6509987703	 2.1925717023	 0.087479
H	 2.3531941485	-4.3945826212	 1.4786087988	 0.092125
H	 3.3608882759	-4.3186984634	 3.8300654565	 0.077301
H	 1.9297548887	-4.9313712784	 5.7868075908	 0.107655
H	 0.4663413359	-5.0027777783	 4.7066376687	 0.106814
H	 1.5643316145	-6.792357246	 3.3126553392	 0.10744
H	 3.0388244658	-6.7329269415	 4.378411756	 0.107709
43.3439	55.7001	76.1503	102.9929	131.241	157.5645	186.4258	247.5739	254.4695	324.4344	372.1396	458.9564	474.909	731.2408	742.187	775.0351	785.0921	820.6253	836.2926	883.7644	896.8675	922.9154	961.9066	997.8517	1016.8874	1034.9968	1055.1954	1059.6692	1071.3198	1076.7433	1084.1657	1134.7165	1144.0383	1198.4661	1206.7491	1227.1618	1235.7406	1251.4193	1284.4384	1307.7962	1321.8978	1328.997	1335.3774	1359.0465	1391.5102	1399.6948	1413.7293	1419.4988	1469.0111	1480.9628	1482.946	1486.272	1495.9464	1500.0034	1506.0585	1508.5672	1514.8471	2997.6874	3000.7955	3001.5324	3010.9945	3016.5194	3019.1105	3026.0733	3028.0823	3034.3931	3050.54	3062.9316	3093.9584	3099.554	3125.7428	3126.3929	3132.01	3203.2074	3218.6013
CCCCCCC1CC1	CCCCCCC1CC1	
InChI=1S/C9H18/c1-2-3-4-5-6-9-7-8-9/h9H,2-8H2,1H3	InChI=1S/C9H18/c1-2-3-4-5-6-9-7-8-9/h9H,2-8H2,1H3
