17
gdb 43474	2.57721	1.70516	1.23567	2.8222	71.99	-0.2414	-0.0266	0.2148	1010.7382	0.137109	-421.863336	-421.856003	-421.855059	-421.895571	28.552	
O	-0.0317210195	 0.1085795444	-0.6679729938	-0.321092
C	 0.0136167284	 1.1861833188	-0.1273327034	 0.407856
C	-1.2307268447	 1.8570685787	 0.4656561087	-0.432039
C	-1.0533751161	 3.3476473918	 0.7768392469	 0.407856
O	-1.990455923	 4.0764964948	 0.9918645722	-0.321092
C	 0.3886696342	 3.8125780473	 0.7716877114	-0.112903
C	 1.0130876267	 3.4120462095	-0.6037162536	-0.247984
C	 1.2823210407	 2.0022592905	 0.0144049666	-0.112903
C	 1.3042953782	 2.7176258775	 1.3999744362	-0.256926
H	-2.1024111586	 1.6938146378	-0.1727318523	 0.15791
H	-1.455682696	 1.3493343685	 1.413952781	 0.164424
H	 0.4603034623	 4.8454509046	 1.1105580397	 0.092102
H	 0.3923789592	 3.4808964435	-1.5007894625	 0.121764
H	 1.9508785713	 3.9453961884	-0.7720486672	 0.124199
H	 2.1467966614	 1.4290289443	-0.3185810918	 0.092102
H	 2.2975074131	 3.1193790488	 1.6116312184	 0.122602
H	 0.9442650124	 2.1732000809	 2.2765857237	 0.114124
58.2609	125.3739	273.2707	349.8866	406.7834	430.0813	481.3047	504.9184	545.676	639.278	704.0265	789.2382	825.2694	884.6946	896.3571	903.7183	924.5283	1002.6865	1009.4734	1022.2053	1057.5677	1071.3616	1146.6284	1167.8914	1203.6905	1247.8376	1253.7799	1254.6306	1264.3215	1277.1566	1311.5357	1332.7981	1410.1322	1483.3263	1511.8358	1814.4366	1836.5103	3033.3996	3063.2392	3064.7321	3111.1999	3117.6071	3121.3292	3122.837	3127.2161
O=C1CC(=O)C2CC1C2	O=C1CC(=O)[C@@H]2C[C@H]1C2	
InChI=1S/C7H8O2/c8-6-3-7(9)5-1-4(6)2-5/h4-5H,1-3H2	InChI=1S/C7H8O2/c8-6-3-7(9)5-1-4(6)2-5/h4-5H,1-3H2/t4-,5+
