20
gdb 110515	2.61011	1.54725	1.2327	2.0049	78.68	-0.2341	0.0818	0.3158	1107.2188	0.170381	-403.075151	-403.066638	-403.065693	-403.108266	32.432	
C	 0.0968390728	 1.2248029626	-0.3009532697	-0.241618
O	-0.0179282779	-0.0374414106	 0.3179499096	-0.25489
C	-1.2831051368	-0.6226189191	 0.1723464791	 0.135181
C	-1.7259393491	-1.2602470955	-1.1462541575	-0.099884
C	-2.3928454208	-2.3618687377	-0.4062433758	-0.106386
N	-1.1952142707	-2.6608480853	-1.2340815112	-0.15055
C	-0.3862600861	-2.8366903735	 0.0203968848	-0.177763
C	-1.4338538357	-2.0270922853	 0.808546667	 0.228192
C	-1.6711761694	-2.1921852247	 2.2852864774	-0.518175
H	 1.1026552506	 1.5985181841	-0.0957099327	 0.128973
H	-0.0414281974	 1.1622643564	-1.3903308718	 0.111919
H	-0.6370841969	 1.9413612662	 0.1004553237	 0.10395
H	-2.0721860515	 0.0563195847	 0.5337595912	 0.065311
H	-2.0160575348	-0.7936090383	-2.0781982047	 0.095605
H	-3.3593795101	-2.8353620032	-0.5132924106	 0.096694
H	-0.3898861484	-3.8987646541	 0.2810681112	 0.100523
H	 0.6366334865	-2.4516421344	-0.0208213695	 0.11212
H	-0.8060426878	-1.8307251971	 2.8522942494	 0.1335
H	-2.5477602051	-1.625431065	 2.6172993033	 0.117867
H	-1.8304910915	-3.2432544403	 2.5487933369	 0.119431
72.276	163.8593	175.4719	213.0653	226.3385	270.6587	310.7794	389.4181	520.361	575.6338	629.6922	731.2003	781.5945	813.7456	835.2378	880.4649	923.3924	945.4236	973.645	992.1127	1007.4325	1021.2814	1050.0226	1137.0917	1143.7129	1153.0401	1163.6551	1183.9146	1186.2398	1210.7282	1231.8057	1257.508	1273.4766	1319.2982	1356.3897	1396.7584	1415.0476	1481.6316	1489.1887	1490.5322	1492.9968	1499.292	1509.0887	2973.2707	2982.0082	3026.6672	3027.3822	3051.6531	3094.4948	3096.0166	3112.225	3116.6499	3199.8278	3213.8468
COC1C2C3N2CC13C	CO[C@H]1[C@@H]2[C@H]3N2C[C@@]13C	
InChI=1S/C7H11NO/c1-7-3-8-4(5(7)8)6(7)9-2/h4-6H,3H2,1-2H3	InChI=1S/C7H11NO/c1-7-3-8-4(5(7)8)6(7)9-2/h4-6H,3H2,1-2H3/t4-,5+,6-,7+,8?/m0/s1
