17
gdb 68719	2.45431	1.64893	1.32583	2.616	79.88	-0.2377	0.0325	0.2702	1026.9234	0.135215	-380.760172	-380.752047	-380.751103	-380.792496	31.813	
C	-0.0258558473	 1.5190932566	 0.04829643	-0.479213
C	-0.0513429501	 0.0231694899	 0.0370851215	 0.275509
N	 1.1515072335	-0.7304423308	-0.3019308108	-0.403619
C	 0.5650380495	-0.9649302392	 1.0325384651	 0.111559
C	 1.3374623104	-0.7245983408	 2.2046926077	 0.304825
C	 1.9684110232	-0.5411471441	 3.2119932867	-0.433663
C	-0.6889440669	-1.820199039	 0.9334607063	-0.165009
N	-1.8396887828	-0.9702659756	 1.3290451127	-0.320511
C	-1.2831894775	-0.8664490502	-0.0429770662	-0.140345
H	 0.9374919456	 1.8784054545	 0.4174114274	 0.142375
H	-0.1741194575	 1.9202461453	-0.9609207894	 0.120871
H	-0.8201690029	 1.9038111131	 0.6941427401	 0.13893
H	 0.9621784815	-1.5117443201	-0.927809532	 0.226928
H	 2.5281152823	-0.372824513	 4.0983274145	 0.189729
H	-0.7508537857	-2.9015085918	 0.9652224054	 0.102886
H	-2.6793216385	-1.5512033095	 1.279247998	 0.228222
H	-1.8907931967	-1.0771853552	-0.9154918371	 0.100526
117.951	138.0807	191.6074	218.8587	291.8884	361.4084	443.7634	528.5786	557.9288	577.437	596.204	626.6193	652.1032	696.1385	786.8041	791.7348	842.1925	850.2503	920.9026	944.5173	1033.4822	1049.8465	1070.6456	1101.2767	1111.4547	1136.9996	1155.4769	1180.056	1278.4499	1280.4512	1345.6155	1353.0552	1406.342	1447.2695	1484.7743	1490.109	2240.6573	3036.2617	3103.1779	3132.1603	3178.6121	3191.8322	3444.1733	3461.9049	3503.3239
CC12NC1(C#C)C1NC21	C[C@@]12N[C@]1(C#C)[C@H]1N[C@@H]21	
InChI=1S/C7H8N2/c1-3-7-5-4(8-5)6(7,2)9-7/h1,4-5,8-9H,2H3	InChI=1S/C7H8N2/c1-3-7-5-4(8-5)6(7,2)9-7/h1,4-5,8-9H,2H3/t4-,5+,6+,7-/m1/s1
