17
gdb 30571	6.56331	0.66928	0.61195	0.7373	92.45	-0.2049	-0.0107	0.1942	1808.626	0.1361	-384.702487	-384.693779	-384.692835	-384.737599	31.146	
C	 0.0810262909	 1.501722857	 0.0078858823	-0.366209
C	-0.0233539627	-0.0348051882	 0.0039189861	-0.330101
C	-1.4011596585	-0.5088403429	 0.0142018355	 0.25221
C	-2.5490022968	-0.8845979859	 0.0225455336	-0.11045
C	-3.8867270384	-1.3141821688	 0.0314862047	 0.214412
C	-5.078677186	-0.6393366606	 0.0435570292	-0.30131
C	-6.1084022378	-1.6266983418	 0.0479667556	-0.158565
C	-5.4737897956	-2.8297680676	 0.038677826	-0.03095
O	-4.1294463978	-2.6661549752	 0.0287279395	-0.17272
H	 1.1305172703	 1.809715651	-0.0000786032	 0.117348
H	-0.4104329923	 1.9270252574	-0.8711826537	 0.130713
H	-0.3953663175	 1.9214333685	 0.8978684033	 0.130712
H	 0.4932106338	-0.4353356002	-0.8783194701	 0.133445
H	 0.5081416387	-0.4408623045	 0.8746833964	 0.133434
H	-5.1930691604	 0.4326812296	 0.0484702147	 0.112106
H	-7.1743062497	-1.4623716573	 0.0569735648	 0.113462
H	-5.8188146601	-3.8506979106	 0.0377626453	 0.132464
24.8098	73.0001	101.3029	186.0143	213.6873	302.2167	422.9808	461.1036	502.9038	572.573	607.9251	687.7958	753.377	787.8076	811.4894	855.8917	871.7416	902.9374	950.1198	1024.4845	1047.3262	1087.2888	1103.0282	1113.9505	1193.2223	1230.6922	1280.7832	1282.5709	1349.5276	1410.508	1412.101	1475.656	1495.3078	1505.2839	1518.363	1613.6226	2348.2944	3015.7898	3042.1512	3046.4898	3120.6376	3125.4039	3254.3228	3269.3929	3285.0574
CCC#CC1=CC=CO1	CCC#Cc1ccco1	
InChI=1S/C8H8O/c1-2-3-5-8-6-4-7-9-8/h4,6-7H,2H2,1H3	InChI=1S/C8H8O/c1-2-3-5-8-6-4-7-9-8/h4,6-7H,2H2,1H3
