20
gdb 38877	2.72071	2.12624	1.95277	0.8617	75.51	-0.2216	0.0907	0.3123	847.5783	0.177672	-403.128788	-403.123055	-403.122111	-403.15843	26.214	
C	 0.0083514256	 1.5905562625	 0.0263736111	-0.207612
C	 1.533165258	 1.7653414112	-0.0280456171	-0.061477
C	 1.7544316884	 0.9033850832	-1.2967717293	-0.172344
N	 1.296400798	-0.3865223649	-0.7120652324	-0.115847
C	 2.349031473	-0.4874123837	 0.3376261622	-0.193241
C	 2.0989926439	 0.8183840566	 1.1181095669	 0.105654
O	 1.0916440192	 0.5160990146	 2.0987163924	-0.27623
C	 0.0871998364	-0.3214066919	 1.5108163991	-0.094826
C	 0.0057094356	 0.0310425079	 0.0214466422	-0.017805
H	-0.4581118373	 1.9907208992	 0.9271743157	 0.109887
H	-0.475695477	 2.0353010298	-0.8466462272	 0.09238
H	 1.9059431716	 2.7902314505	-0.0204590648	 0.06202
H	 1.1284591886	 1.2182815582	-2.1354646094	 0.09883
H	 2.7844128457	 0.8169149022	-1.6483538845	 0.098762
H	 2.2480848712	-1.3716155202	 0.9668247736	 0.110532
H	 3.3272120138	-0.5354375508	-0.1462671251	 0.100419
H	 2.9442252751	 1.2376743422	 1.665213852	 0.076988
H	 0.2984347704	-1.3852120239	 1.6827878261	 0.098939
H	-0.8599820905	-0.0864100095	 2.0072570514	 0.106854
H	-0.8544532297	-0.4289712631	-0.4669187229	 0.078118
311.2679	386.4921	445.8423	493.9308	533.9588	586.9633	618.453	667.0839	760.7655	774.3969	850.9264	855.0264	868.5721	884.7597	904.4278	929.4636	936.2132	953.7054	987.1471	1003.1202	1022.1534	1041.6542	1069.9448	1102.9333	1116.61	1154.9357	1173.7241	1204.081	1213.718	1233.6292	1267.5686	1277.1487	1282.8042	1300.7661	1310.3958	1327.4987	1333.1628	1353.3793	1388.6805	1496.1293	1508.4524	1531.8766	1552.1031	3010.4946	3062.3989	3068.4605	3069.4811	3076.3008	3098.1753	3101.4387	3112.4428	3115.7315	3127.4461	3130.7932
C1C2CN3CC2OCC13	C1[C@@H]2CN3C[C@@H]2OC[C@@H]13	
InChI=1S/C7H11NO/c1-5-2-8-3-7(5)9-4-6(1)8/h5-7H,1-4H2	InChI=1S/C7H11NO/c1-5-2-8-3-7(5)9-4-6(1)8/h5-7H,1-4H2/t5-,6-,7+/m1/s1
