20
gdb 8878	3.25629	1.29227	0.98249	2.587	72.29	-0.2398	-0.0101	0.2297	1245.5803	0.173166	-386.157013	-386.146754	-386.145809	-386.193134	35.281	
C	-0.2884878911	 1.5646034852	-0.4164300275	-0.382906
C	-0.9023542009	 0.1954622235	-0.6938515286	-0.268699
C	-1.2040857526	-0.5897349328	 0.5678355713	 0.353812
O	-0.9940956015	-0.1518786259	 1.6764926382	-0.314467
C	-1.7709062322	-2.0132177886	 0.4087912638	 0.042366
C	-2.8901024168	-2.2732961175	 1.4204951112	-0.400593
O	-2.1728407187	-2.1926144872	-0.9367083663	-0.245774
C	-2.3260022379	-3.536661656	-1.3341277728	-0.236476
H	-0.0975034051	 2.0973306867	-1.3522347203	 0.107737
H	-0.9544427894	 2.1745705117	 0.1994212851	 0.129326
H	 0.6556557302	 1.4700159983	 0.1266158974	 0.12713
H	-1.8367960423	 0.2716846573	-1.2638959519	 0.13591
H	-0.2557012013	-0.4240196101	-1.3286355594	 0.124378
H	-0.9238721438	-2.6891154401	 0.6300831217	 0.091827
H	-3.7721242208	-1.6779321664	 1.1653464374	 0.124687
H	-3.1756894048	-3.3280248377	 1.4401298303	 0.113797
H	-2.5471096766	-1.9827944424	 2.415138202	 0.147743
H	-2.5273975257	-3.5325064046	-2.4081214608	 0.130293
H	-1.4105645737	-4.1195482898	-1.1466611563	 0.106333
H	-3.162615465	-4.033925634	-0.8239539345	 0.113576
31.2725	72.1411	90.3926	162.3645	185.4811	194.6168	216.9378	266.456	309.4662	358.2093	411.4882	467.0071	532.9607	641.5516	744.6392	803.3359	871.8475	980.3022	1002.1955	1022.6275	1085.0045	1098.0196	1123.6549	1143.8913	1182.2334	1185.7971	1224.8478	1266.7328	1326.359	1357.5899	1373.3823	1391.6381	1413.6184	1436.9237	1477.5476	1483.428	1492.4283	1493.35	1497.7103	1502.37	1511.7716	1804.6959	2934.4321	2980.1646	3035.2513	3037.568	3049.4883	3050.2501	3061.0219	3114.3274	3120.1155	3120.8903	3124.2317	3145.2517
CCC(=O)C(C)OC	CCC(=O)[C@@H](C)OC	
InChI=1S/C6H12O2/c1-4-6(7)5(2)8-3/h5H,4H2,1-3H3	InChI=1S/C6H12O2/c1-4-6(7)5(2)8-3/h5H,4H2,1-3H3/t5-/m1/s1
