18
gdb 24352	3.43294	1.54506	1.10565	1.5992	78.36	-0.1824	0.0479	0.2302	1075.4495	0.151567	-401.991516	-401.984327	-401.983383	-402.022892	29.13	
C	-0.0237096417	 1.5392310311	-0.0161404257	-0.216056
C	 1.4051070509	 2.0864972987	 0.0370301646	-0.072957
O	 2.0843810361	 1.7349489547	 1.2430947128	-0.285229
C	 1.9463647423	 0.4181724165	 1.5720591335	 0.289937
C	 2.6934089987	-0.2659949303	 2.5024236375	-0.217425
N	 2.1835713236	-1.5474705779	 2.542055296	-0.243307
C	 1.1456422049	-1.6758066739	 1.6588495448	-0.194182
C	 0.9649622167	-0.4616562892	 1.0309219425	 0.168263
C	-0.0152276261	-0.0016989083	-0.009585549	-0.335341
H	-0.5736225343	 1.9159542997	 0.8541638076	 0.111356
H	-0.5220129869	 1.9245977554	-0.912030837	 0.095093
H	 1.9800141425	 1.7156711394	-0.8265117743	 0.094271
H	 1.4129252547	 3.1791255432	 0.0068910009	 0.106326
H	 3.5108976674	 0.0464062463	 3.128892499	 0.118058
H	 2.5311735543	-2.2809925452	 3.132137209	 0.25952
H	 0.6201112839	-2.6111110052	 1.5485614623	 0.114353
H	-1.0222218767	-0.3886965036	 0.182671936	 0.103153
H	 0.2686277597	-0.3655521513	-1.0071033106	 0.104168
113.0461	210.7948	308.9439	334.6297	397.0579	412.6771	453.3901	522.2609	622.5978	626.6888	669.1994	694.9596	713.0649	735.561	873.2432	881.8797	911.9178	938.6344	1000.646	1070.2238	1078.7471	1098.6916	1139.9579	1199.2004	1208.3159	1217.0154	1262.3111	1300.1426	1330.0244	1361.5627	1369.4484	1408.2873	1423.4247	1474.183	1479.008	1489.5892	1503.5463	1567.6012	1638.9516	2980.7705	3002.1037	3036.2236	3055.6314	3084.8832	3093.5665	3256.0224	3279.6483	3699.9412
C1COC2=CNC=C2C1	C1COc2c[nH]cc2C1	
InChI=1S/C7H9NO/c1-2-6-4-8-5-7(6)9-3-1/h4-5,8H,1-3H2	InChI=1S/C7H9NO/c1-2-6-4-8-5-7(6)9-3-1/h4-5,8H,1-3H2
