20
gdb 98469	2.20185	1.42198	0.98087	3.0062	76.35	-0.2501	0.0089	0.259	1271.7234	0.169449	-440.292822	-440.282832	-440.281888	-440.328231	35.643	
C	 0.0654792129	 1.4661696539	 0.677632809	-0.381364
C	-0.1218595836	 0.2140717613	-0.1903635697	-0.271237
C	-1.4746180171	-0.4578259508	-0.0218004347	 0.149192
C	-1.5540540934	-1.9512925647	 0.0371657771	-0.25973
N	-1.7649453036	-1.164960997	 1.2506772144	-0.31988
C	-2.7024373402	 0.209099309	-0.5921934354	 0.461101
O	-3.8232266816	-0.2207004162	-0.5024240894	-0.363833
O	-2.392548701	 1.3412877309	-1.2622582706	-0.242635
C	-3.5051533629	 2.0101799039	-1.8697029355	-0.243439
H	 1.0700983542	 1.8789070847	 0.5452841038	 0.114209
H	-0.6576247953	 2.2397383036	 0.4101075503	 0.133607
H	-0.0628398028	 1.2368260141	 1.7409838773	 0.115661
H	 0.024533321	 0.4715065625	-1.2442412473	 0.113888
H	 0.652222413	-0.5218251837	 0.0612121609	 0.090371
H	-2.447906489	-2.4378832128	-0.3394737398	 0.140256
H	-0.6249102746	-2.5011818008	-0.0890694388	 0.113152
H	-0.9151955919	-1.1629703384	 1.812114367	 0.23279
H	-3.0894582304	 2.887391828	-2.3656007691	 0.131803
H	-3.9977637594	 1.3564922557	-2.5938147613	 0.141724
H	-4.2356668143	 2.3062435968	-1.1129057581	 0.144364
44.549	113.8294	120.6748	149.5951	176.9463	214.0811	242.4308	314.3286	332.2064	343.7722	440.0405	469.472	576.1896	752.8486	762.3671	800.6814	874.5414	881.1593	930.255	977.4282	997.3704	1023.157	1051.7946	1101.5726	1116.7571	1151.3017	1179.2316	1198.0378	1219.589	1260.0839	1281.8598	1321.9121	1376.6129	1395.3944	1408.8351	1470.283	1480.0131	1480.5122	1494.1898	1495.7382	1498.339	1511.6907	1822.8874	3026.9052	3040.5959	3052.9872	3076.4239	3104.9411	3111.7955	3128.2986	3131.3337	3159.1336	3209.7382	3482.7113
CCC1(CN1)C(=O)OC	CC[C@]1(CN1)C(=O)OC	
InChI=1S/C6H11NO2/c1-3-6(4-7-6)5(8)9-2/h7H,3-4H2,1-2H3	InChI=1S/C6H11NO2/c1-3-6(4-7-6)5(8)9-2/h7H,3-4H2,1-2H3/t6-/m0/s1
