18
gdb 61001	2.11727	1.31735	1.16975	4.7218	73.5	-0.2557	-0.0493	0.2064	1172.2724	0.144693	-439.080887	-439.071225	-439.070281	-439.116433	33.438	
C	-0.2535883459	 1.4900294305	-0.3369480622	-0.418914
C	-0.096797881	-0.0232724627	-0.130536024	-0.081056
C	-1.4593302847	-0.709330367	-0.0482121292	 0.142423
O	-1.6456610482	-1.7648945654	 0.4986130449	-0.2424
C	 0.8179360837	-0.6459068668	-1.1867310778	-0.022102
C	 0.7855367708	-2.1103259223	-1.5346909946	-0.258877
N	 0.3522741542	-1.1098405473	-2.4792895744	-0.055755
C	-0.8780044204	-1.0095875598	-3.0930432873	 0.130581
O	-1.5277160726	-1.9415712914	-3.499720483	-0.287844
H	 0.7225600239	 1.9816833296	-0.3728940663	 0.131441
H	-0.7736040001	 1.7117674872	-1.2750306681	 0.131714
H	-0.8262770729	 1.9415285806	 0.4789218348	 0.131498
H	 0.3921191915	-0.2158799223	 0.8330906728	 0.121413
H	-2.2991804467	-0.1574656167	-0.5276763502	 0.092637
H	 1.7876685562	-0.1496585758	-1.228862014	 0.10813
H	 1.7159383895	-2.6194873849	-1.7712090532	 0.130354
H	 0.0172843856	-2.7252056176	-1.0751263796	 0.164919
H	-1.1709278827	 0.0476947722	-3.2487634886	 0.081838
49.2366	67.3853	89.3608	178.1991	197.3078	209.6939	249.0524	309.567	310.605	421.2787	513.6479	546.6733	649.6135	752.5123	845.3729	901.1503	954.9564	966.8578	1015.5021	1032.6672	1051.3247	1097.084	1112.2202	1132.5519	1145.9078	1173.0289	1177.8669	1297.5179	1315.8999	1380.6172	1409.8032	1414.6679	1423.0604	1441.047	1495.3879	1499.362	1516.419	1797.18	1827.4423	2876.9136	2935.6846	3034.9692	3039.328	3103.6747	3108.5465	3116.5385	3117.1063	3211.215
CC(C=O)C1CN1C=O	C[C@@H](C=O)[C@H]1CN1C=O	
InChI=1S/C6H9NO2/c1-5(3-8)6-2-7(6)4-9/h3-6H,2H2,1H3	InChI=1S/C6H9NO2/c1-5(3-8)6-2-7(6)4-9/h3-6H,2H2,1H3/t5-,6+,7?/m0/s1
