15
gdb 127779	3.56581	1.64852	1.13544	5.2097	75.85	-0.1955	-0.0163	0.1792	1009.4744	0.115794	-412.986042	-412.978943	-412.977999	-413.01758	27.158	
C	 0.0047365494	 1.429885192	-0.0392174602	-0.343417
N	 0.0005557101	-0.008519142	 0.0494582821	-0.147558
N	-0.0461323271	-0.7716391962	-1.0956355706	-0.137942
N	-0.0408303007	-2.02540387	-0.8028013221	-0.304582
C	 0.010147216	-2.1365661832	 0.5701398135	 0.263884
C	 0.0463368839	-3.0550888786	 1.6083564203	-0.189668
N	 0.0929983211	-2.3036562683	 2.7523734095	-0.220109
C	 0.0897176825	-0.9402502086	 2.5097331539	-0.232665
C	 0.0371258785	-0.8336150754	 1.1349662476	 0.341091
H	 0.9156204386	 1.8482719097	 0.402958972	 0.137058
H	-0.0344352385	 1.6918568387	-1.0971118039	 0.164473
H	-0.8651992669	 1.8576170169	 0.4711750743	 0.137047
H	 0.0437822037	-4.1307667038	 1.6390124464	 0.137036
H	 0.1253616589	-2.6997357115	 3.6768632992	 0.268475
H	 0.1219953605	-0.2273565898	 3.314224128	 0.126877
114.7993	148.7765	260.0178	275.6389	351.5293	535.6889	536.2811	588.7647	617.0728	625.545	656.649	706.5729	710.7811	775.0334	836.2583	944.4183	977.691	1061.5545	1119.8235	1153.4901	1171.1538	1226.755	1268.2439	1303.0668	1370.1521	1396.1026	1442.0561	1449.3029	1481.0764	1488.8434	1513.1335	1543.9249	1672.1267	3028.7375	3083.9194	3152.2267	3284.5294	3287.7818	3667.9786
CN1N=NC2=CNC=C12	Cn1nnc2c[nH]cc12	
InChI=1S/C5H6N4/c1-9-5-3-6-2-4(5)7-8-9/h2-3,6H,1H3	InChI=1S/C5H6N4/c1-9-5-3-6-2-4(5)7-8-9/h2-3,6H,1H3
