15
gdb 11495	3.29234	1.56607	1.18649	1.8375	62.45	-0.2461	-0.1036	0.1425	991.9363	0.117615	-399.783986	-399.775987	-399.775043	-399.817121	27.855	
O	 0.1454457235	 1.9678973906	 1.3670132822	-0.218033
C	 0.6415841889	 1.3044585104	 0.4928133505	 0.085473
C	 1.3530001892	 1.8980510676	-0.7337843419	 0.308412
O	 1.8188877593	 1.1268573001	-1.539040687	-0.271498
C	 1.4330412991	 3.4074914804	-0.8287036369	-0.33688
C	 2.6038088206	 3.9406658495	-0.0107574711	 0.01472
C	 2.4985930241	 5.2572580345	 0.6658457355	-0.242684
N	 2.5275726892	 4.0159086908	 1.4538925959	-0.312887
H	 0.6236235528	 0.1952921594	 0.4843168908	 0.119338
H	 1.5619381056	 3.6712010586	-1.8825285306	 0.13424
H	 0.5005010953	 3.8430266936	-0.4556389194	 0.124491
H	 3.5763032383	 3.6205851515	-0.3798499256	 0.108831
H	 3.3761270791	 5.8894753965	 0.7674634912	 0.123491
H	 1.5597471741	 5.7979496788	 0.5718995022	 0.114433
H	 1.5897102109	 3.7679109678	 1.7623830242	 0.248552
71.1559	100.4509	137.9313	158.3455	237.0776	345.2238	403.2503	477.6548	568.9235	583.3127	781.7994	814.089	828.8781	936.9472	946.047	986.1873	997.8969	1065.6827	1115.7672	1129.7004	1164.4879	1228.3127	1261.981	1271.3055	1306.4935	1322.3164	1361.142	1408.4477	1457.3544	1513.1733	1805.5466	1815.1272	2939.6232	3051.1225	3105.8561	3108.1725	3130.7155	3191.5579	3497.96
O=CC(=O)CC1CN1	O=CC(=O)C[C@H]1CN1	
InChI=1S/C5H7NO2/c7-3-5(8)1-4-2-6-4/h3-4,6H,1-2H2	InChI=1S/C5H7NO2/c7-3-5(8)1-4-2-6-4/h3-4,6H,1-2H2/t4-/m0/s1
