18
gdb 26445	3.08376	1.13029	0.90254	4.5046	79.62	-0.2128	-0.0118	0.201	1287.5885	0.147782	-401.996691	-401.98788	-401.986935	-402.031308	32.249	
C	 0.0233961525	 1.5958128168	 0.4054388093	-0.416193
C	-0.0483878373	 0.1312021155	-0.0534311888	-0.16354
C	 0.8160904403	-0.7270442301	 0.8640852454	 0.170712
O	 1.752379881	-1.396772205	 0.514567322	-0.256033
C	-1.4449678176	-0.435898651	-0.0325041763	 0.25401
C	-2.5563021576	 0.0838849086	 0.5998330751	-0.18183
N	-3.6037769249	-0.7751650194	 0.389440496	-0.239717
C	-3.187210327	-1.8430002756	-0.3638039768	-0.069025
C	-1.8536913476	-1.664960412	-0.6373522388	-0.245058
H	 1.0414199042	 1.9845008157	 0.3126046781	 0.12555
H	-0.6416277248	 2.2180477767	-0.1999127668	 0.12744
H	-0.2801011737	 1.6977366502	 1.4534047856	 0.120189
H	 0.3761047021	 0.0355244319	-1.058457958	 0.094552
H	 0.4880419329	-0.696236636	 1.9305975733	 0.067552
H	-2.6903660803	 0.9913391078	 1.1652133336	 0.119587
H	-4.540429163	-0.6335329667	 0.7240311201	 0.263101
H	-3.8705366229	-2.6299985185	-0.6392504569	 0.122817
H	-1.2260831864	-2.3329807988	-1.207684816	 0.105885
37.5395	59.7091	153.3794	204.0319	239.3129	305.3647	376.8613	405.2419	475.1074	482.2411	639.8434	664.9985	694.2861	714.2183	774.4222	837.2192	887.904	904.6832	941.2993	972.9619	1066.3595	1080.2088	1096.5562	1097.8903	1146.6629	1166.3883	1240.7326	1280.2214	1296.8644	1347.4259	1400.4865	1409.7715	1418.868	1464.258	1494.9793	1503.2686	1522.8658	1600.6829	1830.674	2849.0605	3035.2305	3055.0384	3103.7296	3118.0199	3245.7393	3268.0891	3271.6868	3686.3802
CC(C=O)C1=CNC=C1	C[C@@H](C=O)c1c[nH]cc1	
InChI=1S/C7H9NO/c1-6(5-9)7-2-3-8-4-7/h2-6,8H,1H3	InChI=1S/C7H9NO/c1-6(5-9)7-2-3-8-4-7/h2-6,8H,1H3/t6-/m0/s1
