16
gdb 45173	2.96333	1.95441	1.65931	3.6313	68.79	-0.248	0.0073	0.2552	854.2035	0.127215	-437.852059	-437.845964	-437.845019	-437.882371	25.437	
N	-0.0913398975	 1.257881901	-0.1258385859	-0.551836
C	-0.0387209971	 0.0043747872	 0.0110043065	 0.446347
O	 1.1245361507	-0.7208981749	 0.0668695332	-0.249374
C	 0.9330972378	-2.0254124304	 0.6273257546	 0.043468
C	 0.1940663401	-1.8929107791	 1.9831765644	-0.265986
C	-1.1162327525	-1.9872667104	 1.1807977573	-0.102504
C	-0.381217977	-2.6990548572	 0.0247838572	 0.118553
O	-0.9832054437	-1.9007692185	-0.9868248557	-0.283938
C	-1.242839607	-0.896875666	 0.0489218158	-0.005228
H	 0.8516260152	 1.653234541	-0.1531276079	 0.223845
H	 1.8905784441	-2.5395621025	 0.5650645555	 0.096015
H	 0.3277289972	-2.7800773905	 2.608677479	 0.115581
H	 0.4102999023	-0.9946226418	 2.5666782228	 0.121395
H	-2.0537462879	-2.3218096527	 1.6223441804	 0.08989
H	-0.3545784937	-3.7685540377	-0.1876553274	 0.091333
H	-2.178880081	-0.3608569676	-0.0942607301	 0.11244
140.7036	321.2304	394.9776	412.8208	450.3847	551.6309	644.1472	694.4063	761.2426	766.1267	813.1464	833.3772	855.2972	886.3642	920.903	950.4519	972.4539	1000.3989	1035.2034	1046.383	1066.2515	1090.9126	1133.5373	1153.664	1195.1637	1213.4452	1238.9011	1264.2357	1277.0279	1297.5425	1327.5904	1332.7684	1389.1498	1479.4576	1776.446	3060.2413	3108.5412	3118.0562	3126.1015	3134.1696	3147.8704	3458.0076
N=C1OC2CC3C2OC13	[NH][C]1O[C@H]2C[C@@H]3[C@H]2O[C@H]13	
InChI=1S/C6H7NO2/c7-6-5-2-1-3(8-6)4(2)9-5/h2-5,7H,1H2	InChI=1S/C6H7NO2/c7-6-5-2-1-3(8-6)4(2)9-5/h2-5,7H,1H2/t2-,3+,4-,5+/m1/s1
