21
gdb 105416	2.67429	1.21558	1.01509	3.1168	78.87	-0.2522	-0.0418	0.2104	1251.6016	0.181796	-424.221653	-424.212297	-424.211353	-424.255912	34.941	
O	-0.0932523076	 1.6838287391	 0.1135793868	-0.437321
C	 0.0189392984	 0.2816369601	-0.0208401423	-0.115851
C	-1.3418165619	-0.4386926534	-0.0181386208	 0.32167
C	-2.2304353437	 0.037617816	 1.1569848743	-0.358443
C	-1.5342382575	 0.0199686261	 2.4963047229	 0.140829
O	-0.7341854108	 0.8609053142	 2.8437160592	-0.249381
C	-2.0501858697	-0.3661734264	-1.4061925772	-0.259564
C	-1.4952070374	-1.7778207647	-1.7389079083	-0.209591
C	-1.1624129099	-1.9743456365	-0.2344752955	-0.269136
H	-0.2296482972	 1.84965652	 1.057222132	 0.292938
H	 0.5234933186	 0.0899860212	-0.9750250654	 0.102182
H	 0.6561369244	-0.1427454753	 0.7690530014	 0.093054
H	-2.5167799339	 1.0748048728	 0.9510277137	 0.140505
H	-3.1371337152	-0.5745070064	 1.1985961761	 0.102734
H	-1.7733753476	-0.8261075503	 3.175987705	 0.093175
H	-3.1404026953	-0.365370637	-1.313252144	 0.094479
H	-1.7577671439	 0.4687760602	-2.0475543126	 0.11424
H	-2.1932264777	-2.4883526265	-2.1863201249	 0.100271
H	-0.5990132064	-1.7424838817	-2.3630442617	 0.109393
H	-0.1807593286	-2.3911781837	 0.0120012154	 0.098794
H	-1.9242986972	-2.5612655978	 0.2870108359	 0.095025
79.7442	114.0534	137.9191	154.8443	197.3435	236.1672	311.6548	345.2282	373.921	481.5509	555.4566	596.2136	644.2103	714.5911	793.7166	857.7983	879.9615	904.4852	915.3262	942.6586	975.6366	992.5433	1007.3844	1061.456	1090.9301	1123.3404	1133.784	1196.6312	1205.9791	1231.4031	1252.3595	1258.5456	1272.1164	1292.7508	1312.3759	1331.1789	1405.7713	1425.165	1446.6951	1469.9278	1478.4241	1486.5154	1501.0383	1510.7964	1797.2993	2900.5412	2993.9762	3040.1921	3043.9829	3054.2594	3059.5655	3068.1757	3089.5792	3096.55	3104.5708	3122.4777	3728.3111
OCC1(CC=O)CCC1	OCC1(CC=O)CCC1	
InChI=1S/C7H12O2/c8-5-4-7(6-9)2-1-3-7/h5,9H,1-4,6H2	InChI=1S/C7H12O2/c8-5-4-7(6-9)2-1-3-7/h5,9H,1-4,6H2
