16
gdb 6726	4.02345	1.22534	0.98209	8.4577	65.99	-0.2261	0.0118	0.2378	1140.5843	0.130057	-417.07175	-417.063379	-417.062435	-417.105068	29.963	
N	-0.0667193665	 0.8009095381	-0.6769114835	-0.474513
C	-0.6026383596	-0.400969943	-0.4593337354	-0.002083
N	-0.955980786	-0.6601393431	 0.7920868832	-0.21656
H	-0.7875601424	 0.004671302	 1.5465861639	 0.214227
C	-1.521191215	-1.9458999518	 1.2203358727	-0.160531
C	-2.4534856964	-2.609772043	 0.1929977788	-0.319011
C	-1.7848155824	-3.450528164	-0.9099281268	 0.385173
O	-0.9048254159	-2.8264345201	-1.6813540576	-0.377908
O	-2.0725544348	-4.6141075258	-1.0600668259	-0.343906
H	 0.2142021779	 1.0519800828	-1.6082336675	 0.280595
H	 0.0849721084	 1.5053432252	 0.0407693442	 0.229649
H	-0.7907013029	-1.8556529527	-1.3828569673	 0.28389
H	-0.7143904177	-2.6352034267	 1.5012300336	 0.132886
H	-2.0960276611	-1.7439382149	 2.1296109964	 0.114842
H	-3.1138205083	-3.2977883806	 0.7240695922	 0.129189
H	-3.0762599173	-1.8355292624	-0.270261661	 0.124061
57.3255	127.5011	159.7213	201.0944	249.3247	271.9132	376.5676	423.9227	482.3654	572.3479	616.6616	623.4579	726.9375	731.8775	814.8071	914.5054	958.0186	1038.8058	1058.0326	1066.7956	1172.9295	1195.2395	1265.5332	1311.0169	1333.6356	1356.5158	1402.8756	1424.3589	1460.9007	1505.549	1540.0751	1599.8355	1661.6994	1836.8953	2699.1751	3023.5539	3047.9347	3074.5227	3120.6493	3426.3897	3460.7201	3696.5066
NC=[NH+]CCC([O-])=O	N[C]NCCC(=O)O	
InChI=1S/C4H8N2O2/c5-3-6-2-1-4(7)8/h3H,1-2H2,(H2,5,6)(H,7,8)	InChI=1S/C4H8N2O2/c5-3-6-2-1-4(7)8/h6H,1-2,5H2,(H,7,8)
