17
gdb 46966	3.00577	1.64683	1.20924	2.1512	73.39	-0.2337	-0.0272	0.2065	1014.5316	0.137411	-421.859706	-421.85252	-421.851576	-421.891704	27.788	
O	-0.0142759891	 0.0050470762	-0.1811505472	-0.305058
C	-0.0215340607	 1.1951691298	-0.0156802266	 0.36511
C	-1.2503368479	 2.0798192673	 0.1912493033	-0.180654
O	-0.7736804779	 3.3508562524	 0.571677037	-0.270422
C	 0.5699823512	 3.5432911143	 0.0929039274	 0.100217
C	 1.3567685871	 4.3095255531	 1.1704805119	-0.273645
C	 2.0638533734	 3.2107008578	 1.9270518613	-0.060801
C	 1.9868235718	 2.0357434276	 1.3049520243	-0.076101
C	 1.1914998626	 2.1308147556	 0.0185559197	-0.190577
H	-1.8236323632	 2.110415568	-0.7514582956	 0.118171
H	-1.9055531205	 1.6817521682	 0.97222296	 0.139456
H	 0.543573376	 4.0593750155	-0.8752014977	 0.074459
H	 2.0737716293	 5.0120816429	 0.7260601508	 0.110045
H	 0.6713726704	 4.8975544328	 1.7896176618	 0.126663
H	 2.5880263561	 3.3864868945	 2.8597632898	 0.101554
H	 2.4233660726	 1.1008763119	 1.6350796557	 0.113595
H	 1.8107713687	 1.9390835219	-0.864740266	 0.107987
78.9245	132.1659	194.3998	319.4391	406.8215	458.2529	539.4925	569.6269	645.4087	719.6212	770.6365	823.5192	837.3196	856.3228	910.4214	944.8383	967.8495	973.4286	998.405	1029.9092	1062.2968	1101.3462	1126.794	1160.6929	1196.8316	1212.4064	1232.3882	1250.5664	1289.4142	1319.9917	1328.3778	1363.5994	1379.2749	1467.1688	1481.3064	1678.1664	1855.781	2962.8689	3015.5067	3031.5219	3052.0941	3079.5423	3081.5454	3191.7176	3218.6108
O=C1COC2CC=CC12	O=C1CO[C@H]2CC=C[C@@H]12	
InChI=1S/C7H8O2/c8-6-4-9-7-3-1-2-5(6)7/h1-2,5,7H,3-4H2	InChI=1S/C7H8O2/c8-6-4-9-7-3-1-2-5(6)7/h1-2,5,7H,3-4H2/t5-,7-/m0/s1
