13
gdb 5511	3.7575	1.97813	1.30657	3.9034	67.31	-0.2495	-0.0345	0.2151	863.2888	0.09787	-357.697679	-357.690634	-357.68969	-357.729491	24.558	
C	-0.032721538	 1.4434487489	 0.0652200366	-0.345696
N	-0.0113060767	-0.0087406696	 0.0294480758	-0.066427
C	-0.0292176004	-0.8066220083	-1.0665990997	 0.01643
N	 0.0006030853	-2.0912765577	-0.7651024494	-0.258307
C	 0.0400981611	-2.1387882292	 0.5945433875	-0.155625
C	 0.0343292123	-0.8610554466	 1.1235509265	 0.179
C	 0.0643680734	-0.3909568623	 2.451538502	 0.212648
N	 0.0882995079	 0.011432774	 3.538764775	-0.350708
H	 0.8690998352	 1.8295852073	 0.5472792486	 0.165489
H	-0.0778640941	 1.8161882978	-0.9589276492	 0.152755
H	-0.9070327803	 1.8010572204	 0.6150417061	 0.165822
H	-0.0645874467	-0.3938393448	-2.0643560885	 0.144248
H	 0.0707788909	-3.0699005398	 1.1391102686	 0.140371
71.1307	143.1676	169.8398	214.445	342.9736	510.4242	539.4955	605.3996	656.1383	680.4426	719.0409	839.8725	879.1775	932.2931	1081.9161	1153.3588	1160.6698	1201.8829	1259.8421	1317.4065	1385.6722	1397.6759	1452.5043	1480.6142	1499.3344	1524.3787	1565.079	2336.3731	3054.6138	3123.565	3151.219	3249.482	3260.5877
CN1C=NC=C1C#N	Cn1cncc1C#N	
InChI=1S/C5H5N3/c1-8-4-7-3-5(8)2-6/h3-4H,1H3	InChI=1S/C5H5N3/c1-8-4-7-3-5(8)2-6/h3-4H,1H3
