18
gdb 6761	6.55926	0.66665	0.63014	2.6331	75.16	-0.2519	0.0312	0.2831	1794.8172	0.1504	-384.892061	-384.881897	-384.880953	-384.928702	34.196	
C	 0.0741535971	 1.4024038414	-0.0076783972	-0.219096
O	 0.118377164	-0.0019484755	-0.108434947	-0.225393
C	 0.4625559937	-0.610919262	 1.1202968292	-0.200601
C	 0.4975351149	-2.0596194041	 0.9749543944	-0.048531
C	 0.5374481573	-3.2582905153	 0.8650036284	 0.170461
C	 0.5608198271	-4.7212292494	 0.7708534569	-0.020568
C	 1.4612226908	-5.3377956481	 1.8519899853	-0.384058
O	-0.7510570403	-5.2794735778	 0.8019527104	-0.413287
H	 1.0493536991	 1.8238429301	 0.2849755088	 0.104761
H	-0.1964820017	 1.7880106471	-0.9928964327	 0.132765
H	-0.6772202071	 1.7377965795	 0.7253097951	 0.104688
H	 1.4467867042	-0.2486755757	 1.4669912887	 0.115331
H	-0.2641347479	-0.3327935524	 1.9043169523	 0.113548
H	 0.9528540725	-5.0029884412	-0.2139993531	 0.121322
H	 1.0999651829	-5.0691028038	 2.8499550448	 0.115698
H	 1.44911864	-6.4264184045	 1.7550287991	 0.12612
H	 2.4902024	-4.9797086827	 1.7543125034	 0.12492
H	-1.2026519066	-4.9103775353	 1.5689712032	 0.281921
22.9005	71.4543	78.0577	134.0949	183.2453	235.0261	249.8749	258.789	319.8541	340.3236	404.7577	474.6646	549.9734	585.36	753.7504	899.7477	977.3521	1016.1306	1026.7951	1068.6313	1095.5059	1145.3034	1181.4699	1183.1976	1220.3341	1255.2059	1280.8635	1336.4629	1398.079	1408.9023	1418.5235	1477.4871	1485.3417	1487.9262	1491.7548	1494.1612	1515.6521	2363.8304	2941.3892	2958.0169	2967.9072	3010.38	3037.5401	3041.2338	3114.5097	3122.1286	3127.9032	3806.2702
COCC#CC(C)O	COCC#C[C@@H](C)O	
InChI=1S/C6H10O2/c1-6(7)4-3-5-8-2/h6-7H,5H2,1-2H3	InChI=1S/C6H10O2/c1-6(7)4-3-5-8-2/h6-7H,5H2,1-2H3/t6-/m1/s1
