13
gdb 24542	3.97556	1.79533	1.2368	4.2927	74.91	-0.2515	-0.0846	0.1669	907.8688	0.09379	-415.663051	-415.657366	-415.656422	-415.693031	22.708	
O	-0.0588005674	 1.3184823078	 0.0098008282	-0.174744
C	 1.0950457477	 2.0130435831	 0.0026468205	 0.038242
C	 2.3211285398	 1.4232201052	-0.0125332174	-0.15057
C	 2.4510483906	 0.0058123523	-0.0218731476	-0.206499
C	 1.2923922037	-0.7194677907	-0.01485137	 0.245406
N	 1.0010016531	-2.0596610749	-0.0196955	-0.342427
C	-0.324442508	-2.0598080485	-0.0069185719	 0.026263
N	-0.9900191702	-0.8422551437	 0.0064127716	-0.357712
C	 0.022280525	-0.0175841864	 0.0013958956	 0.37604
H	 0.9162619764	 3.0790476605	 0.0104511128	 0.155294
H	 3.1943866783	 2.0628745659	-0.0173012523	 0.129124
H	 3.4274835714	-0.4657582586	-0.0339674543	 0.137475
H	-0.8957354604	-2.9803086021	-0.0066962452	 0.124109
220.5294	270.346	386.9582	464.9224	541.2116	580.2815	626.1686	640.6508	770.0358	784.2591	808.4311	910.3964	919.7822	928.4567	953.6883	977.9508	1040.9534	1085.9407	1163.9559	1215.3915	1263.8757	1282.6063	1324.111	1399.5084	1416.2275	1460.0708	1559.3137	1599.1648	1685.4642	3199.8067	3219.1537	3222.236	3247.2747
O1C=CC=C2N=CN=C12	o1cccc2ncnc12	
InChI=1S/C6H4N2O/c1-2-5-6(9-3-1)8-4-7-5/h1-4H	InChI=1S/C6H4N2O/c1-2-5-6(9-3-1)8-4-7-5/h1-4H
