18
gdb 52140	5.67324	0.73094	0.72103	3.9155	75.58	-0.2449	0.0178	0.2627	1576.9668	0.147047	-438.996913	-438.98847	-438.987526	-439.03206	30.321	
N	 0.43661219	 0.452554394	 1.5115803349	-0.436533
C	 0.0261752079	-0.0559892057	 0.4325263272	 0.135487
O	-0.8448213088	-1.083194372	 0.4590813594	-0.183291
C	-1.1501266408	-1.7029478067	-0.7937975155	-0.138636
C	-2.457416232	-2.445398027	-0.6181792073	 0.034454
C	-2.916135329	-3.5900163212	-1.5664075661	 0.022756
C	-1.8720793307	-4.5554204486	-0.9534253708	-0.233823
C	-2.5762410893	-3.773947276	 0.1812499616	 0.05355
O	-3.8664067549	-4.0123471315	-0.5132283735	-0.30753
H	 1.0645987027	 1.2285988259	 1.3132139939	 0.229896
H	 0.2983778449	 0.2616311079	-0.5845114824	 0.082982
H	-1.2590389726	-0.9383969392	-1.5759773845	 0.110153
H	-0.3245427057	-2.3628413816	-1.0837114478	 0.112104
H	-3.2702355531	-1.756374227	-0.3786327885	 0.098252
H	-3.2935311668	-3.5295133555	-2.5878450669	 0.097022
H	-2.1453958436	-5.6089905734	-1.0118559364	 0.11575
H	-0.8094296319	-4.388903798	-1.13982036	 0.099406
H	-2.5463417964	-3.9296817445	 1.2587218227	 0.108
29.5773	53.2227	95.0162	150.7165	281.879	321.9704	368.3289	550.0718	617.4612	653.2718	727.4622	798.2207	821.9414	841.9499	879.319	908.9853	930.6715	992.1043	1008.9655	1028.9992	1044.9767	1076.2356	1101.8326	1123.0683	1133.6807	1167.7387	1171.7709	1201.7058	1214.6831	1252.5094	1267.0211	1284.6913	1303.2965	1365.5756	1416.3227	1436.6935	1490.3945	1516.585	1749.2282	3000.3219	3015.8002	3053.7063	3077.5667	3099.8458	3113.347	3134.2304	3153.6156	3519.782
N=COCC1C2CC1O2	[NH][CH]OC[C@H]1[C@H]2C[C@@H]1O2	
InChI=1S/C6H9NO2/c7-3-8-2-4-5-1-6(4)9-5/h3-7H,1-2H2	InChI=1S/C6H9NO2/c7-3-8-2-4-5-1-6(4)9-5/h3-7H,1-2H2/t4-,5+,6-
