13
gdb 15651	3.60916	1.79875	1.27006	2.2926	54.37	-0.2785	-0.0378	0.2407	885.7607	0.096183	-435.77468	-435.767749	-435.766805	-435.806326	24.758	
O	 0.0954978722	 1.414106494	-0.0263706562	-0.413442
C	 0.0889643566	 0.0122125445	 0.0630968791	-0.054246
C	-1.352199865	-0.5303940266	 0.036638526	-0.161653
N	-2.0076206855	-0.1940523799	-1.2315766177	-0.266599
C	-2.3666838727	-1.3033791611	-1.7275949685	 0.123846
O	-2.0980749397	-2.4558386546	-1.0358685001	-0.201702
C	-1.4277788171	-2.0486582665	 0.1265804093	 0.433365
O	-1.0302376027	-2.8195730599	 0.9390149641	-0.308492
H	-0.4039680868	 1.647258472	-0.8183924708	 0.300214
H	 0.6631754738	-0.4593483075	-0.7498625777	 0.100979
H	 0.5578710186	-0.2626010066	 1.0119349258	 0.137799
H	-1.9010671816	-0.0784895296	 0.8706358397	 0.146357
H	-2.8765934001	-1.4529471481	-2.6716521831	 0.163575
98.2607	134.4102	167.9672	299.7944	359.0943	439.3521	527.5133	605.6172	649.5364	711.4258	844.2571	877.3213	884.9404	953.1788	1050.8739	1065.9104	1092.6334	1099.4446	1156.1491	1207.302	1257.2365	1300.8999	1340.9029	1388.6827	1424.0215	1504.9128	1693.0262	1922.2065	2984.0304	3059.5413	3099.7364	3228.2738	3790.7927
OCC1N=COC1=O	OC[C@H]1N=COC1=O	
InChI=1S/C4H5NO3/c6-1-3-4(7)8-2-5-3/h2-3,6H,1H2	InChI=1S/C4H5NO3/c6-1-3-4(7)8-2-5-3/h2-3,6H,1H2/t3-/m1/s1
