16
gdb 129981	4.84111	0.80982	0.72651	4.1503	67.72	-0.2435	0.0052	0.2487	1502.1493	0.124863	-471.211478	-471.202721	-471.201777	-471.245714	31.491	
N	-0.0730873535	 1.2875263537	-0.2454369617	-0.593762
C	-0.0628552264	-0.0601241498	-0.0901629224	 0.496345
N	-1.0579190814	-0.8900003861	-0.2505043244	-0.387532
C	-0.4422048311	-2.1014292149	-0.0226207686	 0.362302
C	-1.1679081043	-3.4019601875	-0.1118174281	-0.322247
C	-1.6780551104	-3.6841502266	-1.5368992643	-0.062818
O	-2.3791606847	-4.9114709329	-1.6179424122	-0.413382
N	 0.8320635205	-2.0394036964	 0.260894596	-0.195011
O	 1.0992886864	-0.6405439308	 0.2175069488	-0.20932
H	 0.6726616586	 1.8027395325	 0.193989876	 0.277457
H	-0.9830982975	 1.7182464296	-0.2222205819	 0.280833
H	-0.5077667863	-4.2105417555	 0.210100691	 0.136058
H	-2.0257970188	-3.3702328121	 0.572050479	 0.112051
H	-2.2878662079	-2.8382278181	-1.8832709258	 0.111671
H	-0.8264293333	-3.7774304423	-2.2180698653	 0.12415
H	-3.2019807499	-4.8156521628	-1.1278803563	 0.283206
59.1584	89.3079	101.9978	245.5763	301.9042	304.3949	357.6371	378.2862	398.8133	452.0073	468.495	673.3534	720.4028	776.1679	797.7245	820.1124	893.273	1011.0319	1017.7857	1037.4419	1058.551	1081.6354	1124.9012	1161.8688	1293.0609	1308.1672	1369.5128	1398.8882	1416.0118	1443.5697	1475.0836	1513.1119	1579.9099	1608.4903	1685.4154	3012.5945	3031.7798	3084.2107	3118.4004	3602.8207	3718.8369	3816.6755
NC1=NC(CCO)=NO1	Nc1nc(CCO)no1	
InChI=1S/C4H7N3O2/c5-4-6-3(1-2-8)7-9-4/h8H,1-2H2,(H2,5,6,7)	InChI=1S/C4H7N3O2/c5-4-6-3(1-2-8)7-9-4/h8H,1-2H2,(H2,5,6,7)
