22
gdb 85925	2.43548	1.37964	1.14481	3.1652	83.24	-0.2491	0.0333	0.2823	1213.788	0.193547	-404.393755	-404.384131	-404.383187	-404.42799	36.798	
C	 0.5806342838	 1.5674080857	-0.1497291015	-0.400116
C	 0.008749376	 0.1577800081	 0.0619945086	-0.067419
C	 0.269634178	-0.8414564729	-1.0828186565	-0.285994
C	 1.3696641296	-1.7946169484	-0.5495934018	 0.370008
C	 1.0744811166	-3.2642332946	-0.8371583987	-0.423208
C	 2.7736488297	-1.4090901932	-1.0233297708	-0.420169
O	 1.328589996	-1.6283544631	 0.8952918162	-0.265584
C	 0.6321537933	-0.5216942135	 1.2697624774	 0.388709
N	 0.5183664903	-0.1130358072	 2.4607084283	-0.546946
H	 1.6563749191	 1.5420538616	-0.3514896467	 0.119537
H	 0.0900545058	 2.058331849	-0.9961058115	 0.113164
H	 0.4216258076	 2.1705280556	 0.7473128719	 0.146142
H	-1.0632516389	 0.2570136556	 0.2530270773	 0.106626
H	-0.6356856811	-1.4120181153	-1.3077355767	 0.105738
H	 0.5830193655	-0.3485970739	-2.0066123455	 0.106111
H	 1.0556438638	-3.4444306589	-1.9167767564	 0.118735
H	 1.8396575421	-3.9087400217	-0.3948027669	 0.125118
H	 0.1030985811	-3.547653373	-0.4224346146	 0.122782
H	 2.9904928016	-0.3597247222	-0.8051823427	 0.125652
H	 3.5261053672	-2.0237113727	-0.521052324	 0.126642
H	 2.8678751929	-1.5604725142	-2.1033865952	 0.117777
H	 1.03693988	-0.7186724807	 3.0990712798	 0.216693
66.3676	78.5052	223.7251	227.0015	243.4131	260.2422	293.6582	319.9944	350.7081	366.5914	454.9401	497.3131	594.9799	636.7586	676.5593	762.1075	832.2292	870.6396	890.5819	911.9359	935.5899	945.0021	973.8112	1014.4515	1044.2354	1069.2969	1101.2488	1132.5599	1170.5304	1199.2291	1244.1448	1269.7985	1298.9749	1325.6401	1347.7655	1361.6779	1400.6486	1407.0002	1418.2316	1476.1416	1483.4914	1491.1897	1495.3289	1498.7263	1501.6472	1508.6022	1764.4717	3036.839	3038.1395	3042.5708	3056.4128	3069.7872	3102.1652	3105.945	3110.7117	3116.9094	3118.8364	3121.8552	3128.6604	3470.9911
CC1CC(C)(C)OC1=N	C[C@H]1CC(C)(C)O[C]1[NH]	
InChI=1S/C7H13NO/c1-5-4-7(2,3)9-6(5)8/h5,8H,4H2,1-3H3	InChI=1S/C7H13NO/c1-5-4-7(2,3)9-6(5)8/h5,8H,4H2,1-3H3/t5-/m0/s1
