14
gdb 7876	3.8662	1.8224	1.24803	1.5759	68.51	-0.2616	-0.0727	0.189	914.6132	0.108202	-378.790049	-378.782731	-378.781787	-378.821721	26.77	
C	-0.0347190244	 1.4864659328	 0.0729028472	-0.487025
C	-0.0083919832	 0.0006168821	-0.0205791935	 0.311062
C	-0.0296367039	-0.8033741697	-1.0936850944	-0.342858
C	 0.0140095924	-2.2273339277	-0.6564646981	 0.423552
O	 0.0110688677	-3.2364126303	-1.31983827	-0.353657
N	 0.0614712168	-2.1704361785	 0.7410758018	-0.405754
C	 0.0512097006	-0.8576029879	 1.2022344634	 0.324799
N	 0.0831099311	-0.3964974349	 2.3879187356	-0.519122
H	 0.853086696	 1.853264341	 0.5983064654	 0.154251
H	-0.079549618	 1.9461316146	-0.9165105619	 0.1294
H	-0.8962428683	 1.8182999815	 0.6614708657	 0.154284
H	-0.0714378242	-0.5277620035	-2.1377035918	 0.129576
H	 0.0978885314	-2.9935345816	 1.3195323205	 0.261271
H	 0.1222543059	-1.1407142378	 3.0871480601	 0.220222
105.8298	130.506	190.7277	262.2044	368.9982	373.1336	458.3438	562.0512	583.1671	655.85	704.1821	771.2726	780.4443	875.9926	893.8394	939.2162	1010.6536	1064.8852	1077.5243	1155.4097	1203.2114	1312.6035	1340.3965	1403.3532	1414.9052	1468.6598	1477.5101	1685.5519	1743.2893	1838.3206	3044.371	3099.7233	3134.4082	3244.0825	3458.9436	3661.6637
CC1=CC(=O)NC1=N	CC1=C(NC(=O)[CH]1)[NH]	
InChI=1S/C5H6N2O/c1-3-2-4(8)7-5(3)6/h2H,1H3,(H2,6,7,8)	InChI=1S/C5H6N2O/c1-3-2-4(8)7-5(3)6/h2H,1H3,(H2,6,7,8)
