23
gdb 89180	2.38865	1.34527	1.1362	1.1889	86.45	-0.2401	0.0729	0.313	1246.51	0.203607	-388.270432	-388.260393	-388.259449	-388.304267	38.938	
C	-0.0552196678	 1.5189307641	-0.0052184029	-0.409751
C	 0.0271832208	-0.0022064748	 0.0484289551	 0.02184
C	 1.1089298717	-0.6224634587	-0.9011324413	-0.32462
C	 1.8535382902	-1.1575882201	 0.3280324442	 0.349863
O	 3.2353588737	-1.0852311303	 0.4509958592	-0.458704
C	 0.8040893085	-0.547965308	 1.2569348006	-0.152831
C	 1.0011221989	-2.0566384956	 1.1965421181	 0.244573
C	-0.0444491451	-3.0121269059	 0.6477249325	-0.461742
C	 1.731765266	-2.615697669	 2.4095187628	-0.456232
H	 0.9347296119	 1.9699370033	 0.1260623382	 0.119238
H	-0.4553801778	 1.8578018187	-0.9671594374	 0.110993
H	-0.7062871097	 1.907706809	 0.7859596524	 0.111458
H	-0.9754609839	-0.427155033	-0.0730687185	 0.064484
H	 0.7790958434	-1.3490277925	-1.6515109538	 0.085573
H	 1.6919384332	 0.1567844188	-1.3990897024	 0.105953
H	 3.6099176865	-1.9306617796	 0.1797763485	 0.283527
H	 0.9421496584	-0.0128506213	 2.1909178662	 0.079874
H	-0.5531084408	-2.6303889347	-0.2397989762	 0.118989
H	 0.4138870561	-3.9710510954	 0.3771846388	 0.107445
H	-0.8111277705	-3.2201516621	 1.4035480688	 0.114076
H	 1.0239116966	-2.8340477983	 3.2169588653	 0.112855
H	 2.2432914541	-3.5545290537	 2.1625645938	 0.10324
H	 2.4822746957	-1.918113041	 2.7870100681	 0.129898
129.7218	175.4437	179.3466	186.3075	230.6737	244.305	253.5917	276.6239	326.071	372.159	394.0358	436.0052	467.6359	515.2079	641.3694	673.3238	724.7753	842.9315	899.5634	933.0683	942.4112	948.7529	970.4506	982.0898	1019.8098	1058.3609	1063.2412	1115.6999	1140.8478	1160.172	1175.5345	1208.2473	1221.3261	1257.125	1272.7	1289.5473	1329.4293	1372.3408	1403.6101	1410.1423	1422.3751	1435.0541	1481.6974	1488.6711	1493.6814	1496.2564	1500.6157	1507.2713	1514.8089	3020.3927	3023.2544	3025.6073	3033.522	3042.9299	3074.3002	3077.9789	3090.4185	3095.3611	3103.2986	3122.5656	3125.7326	3163.4322	3790.0936
CC1CC2(O)C1C2(C)C	C[C@H]1C[C@@]2(O)[C@@H]1C2(C)C	
InChI=1S/C8H14O/c1-5-4-8(9)6(5)7(8,2)3/h5-6,9H,4H2,1-3H3	InChI=1S/C8H14O/c1-5-4-8(9)6(5)7(8,2)3/h5-6,9H,4H2,1-3H3/t5-,6-,8+/m0/s1
