14
gdb 129679	3.20083	1.27013	0.91376	5.1464	67.57	-0.2312	-0.018	0.2132	1175.8095	0.101856	-470.015654	-470.007505	-470.00656	-470.04929	28.8	
N	-0.1922760902	 1.4193939383	-0.0895067107	-0.609566
C	-0.1125549332	 0.0244284285	-0.0765947465	 0.284421
C	-1.1095503326	-0.8990782392	 0.0250066995	 0.224104
N	-2.4664976732	-0.6084712128	 0.1412566248	-0.423067
C	-3.4692843055	-1.5307868888	 0.243091734	 0.14149
O	-3.3146793776	-2.731934501	 0.2460364532	-0.309341
C	-0.4306322775	-2.1494341785	-0.0172002517	-0.025496
N	 0.8653052707	-1.9847104873	-0.1343087197	-0.135744
O	 1.0787104684	-0.6130201265	-0.1729565739	-0.190975
H	 0.3234427592	 1.8358353815	 0.6807813424	 0.261419
H	 0.1745967117	 1.812318062	-0.9519248153	 0.261413
H	-2.7036131635	 0.3735303016	 0.1488490647	 0.263121
H	-4.458062213	-1.0416762778	 0.3240768906	 0.088456
H	-0.8577560636	-3.13741406	 0.0348350586	 0.169766
53.2992	97.2932	162.2061	224.5183	247.4108	264.5933	408.0942	452.4089	602.2322	622.0103	641.8771	699.0198	718.3187	808.5735	877.7524	926.7923	950.7519	958.5852	1018.2583	1128.3771	1171.8892	1214.7472	1217.135	1250.5744	1420.9322	1462.0358	1511.4626	1517.2591	1645.9729	1729.836	1803.8091	2961.3599	3288.4551	3490.5041	3555.7706	3605.5441
NC1=C(NC=O)C=NO1	Nc1c(NC=O)cno1	
InChI=1S/C4H5N3O2/c5-4-3(6-2-8)1-7-9-4/h1-2H,5H2,(H,6,8)	InChI=1S/C4H5N3O2/c5-4-3(6-2-8)1-7-9-4/h1-2H,5H2,(H,6,8)
