22
gdb 97245	2.21083	1.51152	0.95377	2.4415	85.81	-0.2391	0.0246	0.2638	1298.4589	0.194704	-404.374859	-404.36536	-404.364416	-404.409417	35.266	
C	 0.0008902031	 1.4867159415	 0.112712246	-0.325643
N	 0.0148268658	 0.0351769519	 0.0699584804	-0.286288
C	-1.0618493885	-0.6094362535	-0.0774782204	 0.393127
O	-2.2837959541	 0.0188815147	-0.1253379546	-0.26471
C	-3.2852546157	-0.4936841694	-1.0140058749	-0.069282
C	-3.461700782	-2.0001175069	-0.8933432152	-0.21947
C	-2.1054305998	-2.680570627	-1.0824764081	-0.204753
C	-1.0854665434	-2.1309314352	-0.0678015867	-0.061432
C	 0.3045830248	-2.7405795853	-0.2486385153	-0.390019
H	 0.8669786076	 1.8633966374	-0.4412736348	 0.117678
H	-0.9125953798	 1.9398151961	-0.2875508964	 0.115612
H	 0.1193003923	 1.8211172933	 1.1511648127	 0.12362
H	-4.1995156259	 0.0484455325	-0.7588645079	 0.114046
H	-3.0115477759	-0.228211397	-2.0459206129	 0.102838
H	-3.8703852992	-2.2436208551	 0.0950738722	 0.106798
H	-4.1891978266	-2.3377849329	-1.6399453279	 0.100595
H	-2.1888371403	-3.7661269459	-0.9648992813	 0.099296
H	-1.7400009441	-2.500819783	-2.1031942234	 0.100004
H	-1.4591194426	-2.4046125034	 0.9319748845	 0.095829
H	 0.716633063	-2.4864729427	-1.2301041731	 0.117829
H	 0.9984647543	-2.3639149327	 0.5036166771	 0.135208
H	 0.249460257	-3.8315521976	-0.1703759399	 0.099119
58.1499	94.4626	143.426	190.7269	223.612	236.0964	301.3704	317.7381	393.0267	439.3902	445.1356	562.6209	585.3204	685.112	756.7794	856.1123	885.0479	908.8153	944.0427	989.126	1027.0621	1037.8552	1070.5691	1108.3304	1125.3817	1137.8102	1152.426	1166.1505	1195.3973	1213.4493	1256.4887	1301.1443	1324.8048	1354.7441	1378.4056	1381.8175	1411.4536	1419.9807	1434.544	1479.1357	1486.0379	1490.3276	1493.163	1495.6284	1498.6778	1510.8916	1762.356	2979.3006	2996.9276	3015.2202	3015.9973	3030.9323	3041.2272	3069.6032	3071.9084	3078.1927	3092.2879	3093.8586	3105.7653	3143.6756
CN=C1OCCCC1C	CN=C1OCCC[C@H]1C	
InChI=1S/C7H13NO/c1-6-4-3-5-9-7(6)8-2/h6H,3-5H2,1-2H3	InChI=1S/C7H13NO/c1-6-4-3-5-9-7(6)8-2/h6H,3-5H2,1-2H3/t6-/m1/s1
