19
gdb 58603	2.16026	1.27223	1.06029	5.397	75.14	-0.2619	0.0346	0.2965	1231.9401	0.158191	-419.193192	-419.183505	-419.182561	-419.228142	35.529	
C	 0.9532363366	-1.4472277024	 0.1534120957	-0.44234
C	-0.0489074699	-0.7092425951	-0.7343159499	 0.052112
O	-0.0948935861	-1.2661325657	-2.0479999985	-0.423273
C	-1.4745165963	-0.6038229978	-0.1854520468	 0.301489
C	-2.35185765	 0.3693881255	-0.9746159797	-0.385602
C	-1.8983509873	 1.7539585246	-0.8372003228	 0.275341
N	-1.5186560707	 2.8397678731	-0.7265613175	-0.317722
C	-2.1339551822	-1.7943113149	 0.4177876244	-0.301564
N	-1.7752290094	-0.6323419931	 1.2477474752	-0.340189
H	 1.906642358	-1.5071395445	-0.3767701435	 0.142022
H	 1.1301123822	-0.9206737317	 1.0964260039	 0.130647
H	 0.6341610254	-2.4711150629	 0.3800515579	 0.115772
H	 0.3234659672	 0.3100568121	-0.8902300009	 0.121929
H	-0.4272746976	-2.1678711884	-1.9688122262	 0.278918
H	-2.3307701461	 0.0963291902	-2.0346209086	 0.162063
H	-3.3850123307	 0.304744148	-0.6222083647	 0.152199
H	-3.2008151345	-1.9513048923	 0.2819923259	 0.124545
H	-1.5599080104	-2.7106435036	 0.5269376982	 0.115587
H	-0.9417471882	-0.832120441	 1.7933272581	 0.238066
50.2272	70.4413	125.7488	222.9546	242.5963	280.1817	324.1947	339.0872	359.1057	386.4733	403.5027	475.1917	486.4452	621.677	708.4429	839.1604	875.0231	906.1966	931.9449	954.6371	980.3293	996.9173	1030.5711	1066.0005	1094.2459	1115.0746	1138.1811	1221.804	1253.181	1292.7651	1296.7533	1323.2818	1378.5824	1395.6494	1415.7319	1424.3323	1449.9018	1490.3638	1495.4558	1520.0743	2361.3552	3034.7898	3049.7586	3060.4113	3102.9791	3107.8939	3109.5187	3125.3165	3188.3714	3522.6772	3792.1896
CC(O)C1(CC#N)CN1	C[C@@H](O)[C@@]1(CC#N)CN1	
InChI=1S/C6H10N2O/c1-5(9)6(2-3-7)4-8-6/h5,8-9H,2,4H2,1H3	InChI=1S/C6H10N2O/c1-5(9)6(2-3-7)4-8-6/h5,8-9H,2,4H2,1H3/t5-,6-/m1/s1
