17
gdb 54635	4.04864	1.19708	0.99304	1.8656	75.73	-0.2215	-0.0543	0.1672	1188.2917	0.135693	-418.027011	-418.018574	-418.017629	-418.06056	31.122	
C	-0.0320228119	 1.4733224963	-0.1085272358	-0.478151
C	-0.0051994088	-0.0339946144	-0.1064734574	 0.335339
O	 1.0152560549	-0.6924752993	-0.1149123559	-0.320203
C	-1.3225540574	-0.7384250497	-0.0747487788	 0.25938
N	-2.4722833198	-0.1543194243	 0.0385041579	-0.304509
C	-3.4610801454	-1.1909481619	 0.0594946338	-0.011473
C	-3.5833178686	-2.0988432389	-1.1499939822	-0.298335
C	-2.6995532542	-2.5454740837	-0.0218974547	-0.024384
N	-1.3409886631	-2.1064686977	-0.1141789669	-0.320692
H	 0.9771304161	 1.8571323156	 0.0436834176	 0.136317
H	-0.4220287334	 1.829451975	-1.0684371745	 0.153606
H	-0.7175744539	 1.8436423051	 0.657625975	 0.160068
H	-4.3419491163	-1.0106080932	 0.6650378337	 0.099279
H	-4.5333777897	-2.6110132191	-1.2529127023	 0.119557
H	-3.1191171724	-1.7909715654	-2.0811021797	 0.121728
H	-2.9070478775	-3.4352249824	 0.560674124	 0.10663
H	-0.5229838286	-2.6566931119	 0.0839645361	 0.265841
63.2398	102.6594	119.2558	185.2074	294.6675	344.2502	383.924	435.9866	510.2054	569.9583	611.7859	668.0141	732.1767	747.3962	826.4114	894.3752	942.8297	969.4115	990.3061	1042.2055	1046.2912	1049.7467	1075.5655	1101.5781	1128.4698	1159.7304	1191.2407	1297.1843	1336.8012	1366.9473	1388.7293	1455.9476	1458.9835	1462.78	1495.8802	1621.7419	1782.8795	3050.2729	3117.0526	3130.4382	3162.5312	3170.415	3179.198	3224.8545	3672.9833
CC(=O)C1=NC2CC2N1	CC(=O)C1=N[C@H]2C[C@H]2N1	
InChI=1S/C6H8N2O/c1-3(9)6-7-4-2-5(4)8-6/h4-5H,2H2,1H3,(H,7,8)	InChI=1S/C6H8N2O/c1-3(9)6-7-4-2-5(4)8-6/h4-5H,2H2,1H3,(H,7,8)/t4-,5+
