19
gdb 65041	2.76422	1.42913	1.20274	1.5434	70.99	-0.2528	0.0574	0.3102	1091.6778	0.157038	-460.114546	-460.105473	-460.104529	-460.148419	34.568	
O	 0.0541559334	 1.2720970101	 0.4429079313	-0.463075
C	 0.0748254886	-0.0905224863	 0.1077071008	 0.36668
C	 1.162029062	-0.5773124585	-0.8148897043	-0.328776
C	 1.2314218834	-0.8531953891	 0.6761815148	-0.298428
C	-1.3066127205	-0.717205795	 0.0636235278	 0.281518
O	-1.1469894055	-2.0959357727	-0.1699063038	-0.480369
C	-2.2506995513	-0.2976154658	 1.22421311	-0.123892
O	-3.0983866531	 0.4428112976	 0.3209458382	-0.268009
C	-2.3480805588	 0.0179565337	-0.826968728	-0.135031
H	-0.2266327667	 1.7734388743	-0.3303453092	 0.286268
H	 0.9414070153	-1.4096746389	-1.4719680602	 0.127452
H	 1.8320162061	 0.1755891995	-1.21506983	 0.110152
H	 1.9382939704	-0.2756778276	 1.2600000842	 0.120459
H	 1.0579324991	-1.8684632433	 1.0090234599	 0.13015
H	-2.0172661184	-2.5066076823	-0.1853801373	 0.285987
H	-2.77639159	-1.1426858632	 1.6910416222	 0.086094
H	-1.8132253725	 0.3416334131	 1.9959903944	 0.12402
H	-1.9912653821	 0.8626380145	-1.4314875069	 0.087583
H	-2.9177745995	-0.65813959	-1.481236704	 0.091217
54.9746	81.0778	224.2012	248.7314	281.1135	292.5229	321.4134	352.7532	413.6942	416.954	446.2475	542.1277	594.5265	776.6355	795.7505	864.3046	897.6232	919.5091	934.0543	959.4856	994.287	999.9061	1038.7779	1053.0782	1073.8789	1088.7361	1094.2294	1146.8695	1155.0194	1197.1598	1212.8398	1266.793	1278.1651	1295.0365	1350.1498	1371.1231	1433.6592	1442.2581	1492.5474	1497.8837	1529.0521	2986.4538	3003.7395	3031.0191	3091.6761	3139.7135	3150.498	3232.0524	3248.6732	3799.0991	3819.6239	54.9731	81.0768	224.201	248.7313	281.1113	292.5246	321.4134	352.7536	413.6941	416.954	446.2476	542.1277	594.5265	776.6355	795.7504	864.3044	897.6233	919.509	934.0544	959.4855	994.287	999.9054	1038.7773	1053.0782	1073.8789	1088.7361	1094.2292	1146.8694	1155.0191	1197.16	1212.8395	1266.7929	1278.1653	1295.0361	1350.1498	1371.1227	1433.6592	1442.2583	1492.5475	1497.8831	1529.0515	2986.4536	3003.7393	3031.0189	3091.676	3139.7135	3150.498	3232.0524	3248.6732	3799.0998	3819.6237
OC1(CC1)C1(O)COC1	OC1(CC1)C1(O)COC1	
InChI=1S/C6H10O3/c7-5(1-2-5)6(8)3-9-4-6/h7-8H,1-4H2	InChI=1S/C6H10O3/c7-5(1-2-5)6(8)3-9-4-6/h7-8H,1-4H2
