14
gdb 31208	2.44053	1.53791	0.94911	5.7419	72.38	-0.2228	-0.0066	0.2162	1158.0988	0.101282	-436.719971	-436.711893	-436.710949	-436.753384	28.573	
C	 0.0274219478	 1.4315395204	-0.0678212716	-0.254837
O	 0.0184944386	-0.0007577492	-0.0312255157	-0.255327
C	 0.5905296286	-0.6457004873	-1.0322643933	 0.401758
C	 0.718373977	-1.9988870762	-1.2404183659	 0.007193
C	 1.4293788991	-2.1205202641	-2.493197287	-0.268086
C	 1.6675463265	-0.8667403843	-2.9290239417	-0.022253
O	 1.1520898574	 0.0526200095	-2.0316286003	-0.189825
C	 0.2486988868	-3.0292756495	-0.3988739191	 0.201232
N	-0.1312136354	-3.8866343671	 0.2820436159	-0.357816
H	 1.0520797917	 1.8139843735	-0.0712208947	 0.145935
H	-0.5022604718	 1.8011638623	-0.9504551343	 0.145908
H	-0.487948626	 1.7461516073	 0.8386634617	 0.154775
H	 1.7102902485	-3.0417285362	-2.9770763497	 0.139965
H	 2.1529328912	-0.4441504792	-3.7906063442	 0.151379
58.4661	125.0473	163.0172	174.814	248.3188	294.4446	440.9888	526.8569	538.4121	616.7347	630.3089	677.6013	727.4751	739.6244	840.7211	901.8212	1022.7389	1051.1713	1128.2569	1175.3079	1175.792	1205.5633	1280.7827	1304.3667	1433.0228	1487.3908	1494.4359	1499.6352	1583.0564	1657.4916	2344.019	3044.7437	3118.3924	3166.9985	3272.1209	3307.7174
COC1=C(C=CO1)C#N	COc1c(cco1)C#N	
InChI=1S/C6H5NO2/c1-8-6-5(4-7)2-3-9-6/h2-3H,1H3	InChI=1S/C6H5NO2/c1-8-6-5(4-7)2-3-9-6/h2-3H,1H3
