18
gdb 80012	2.57177	2.11896	1.70872	1.5681	73.87	-0.2009	0.0037	0.2047	878.651	0.149042	-401.893666	-401.886765	-401.885821	-401.92454	28.674	
C	 0.0736545155	 1.4825688144	-0.2959627455	-0.333491
N	 0.0015465691	 0.09135865	 0.1274085523	-0.028261
C	-1.2711639794	-0.5212956725	 0.5367293087	-0.135503
C	-0.794529167	-1.9762723217	 0.6963806839	-0.060911
C	 0.4603785705	-1.9042724908	 1.1469558382	-0.060912
C	 0.7794962159	-0.4036368688	 1.2730241469	-0.135508
C	-0.0757282478	 0.0155351375	 2.5140432114	 0.049545
O	-0.8605010986	 1.2065673121	 2.3501709472	-0.253538
C	-1.4452575206	-0.0630221456	 2.0223084022	 0.049545
H	 1.1071149808	 1.6903844233	-0.5967633027	 0.112561
H	-0.547692025	 1.5949633903	-1.192077238	 0.112546
H	-0.235117737	 2.2275037834	 0.4430229778	 0.130829
H	-2.1022046714	-0.3320784491	-0.1423508781	 0.071841
H	-1.4011023165	-2.8534578149	 0.5197908852	 0.105419
H	 1.1261951522	-2.7084558394	 1.4272177934	 0.105419
H	 1.8279825263	-0.1065859369	 1.2687909255	 0.071839
H	 0.2208012397	-0.2351478499	 3.528684698	 0.09929
H	-2.2906743067	-0.3791983214	 2.6269329033	 0.099292
125.8791	273.6808	274.7986	342.9134	376.7661	470.8488	491.3285	627.4227	657.8019	702.6165	715.9064	807.6348	840.0726	855.0634	891.883	892.7832	913.0416	915.2208	924.8684	970.0286	1000.9197	1025.9953	1089.012	1119.5978	1143.8384	1175.059	1203.3609	1209.3406	1216.7843	1262.4043	1265.8983	1278.4915	1325.5596	1342.702	1402.1131	1449.7341	1477.6605	1528.0234	1626.5302	3019.5812	3081.4917	3093.9333	3120.6691	3122.7166	3147.2727	3160.9182	3218.0513	3243.6125
CN1C2C=CC1C1OC21	CN1[C@H]2C=C[C@@H]1[C@H]1O[C@@H]21	
InChI=1S/C7H9NO/c1-8-4-2-3-5(8)7-6(4)9-7/h2-7H,1H3	InChI=1S/C7H9NO/c1-8-4-2-3-5(8)7-6(4)9-7/h2-7H,1H3/t4-,5+,6-,7+
