19
gdb 112152	3.06599	1.06323	0.834	3.3455	79.72	-0.2345	-0.0367	0.1977	1379.3244	0.158265	-423.068477	-423.059028	-423.058084	-423.103411	33.998	
C	 0.0231782607	 1.5447892432	 0.0155204661	-0.491873
C	-0.0395029018	 0.0524076549	-0.001091125	 0.202261
C	-1.101919863	-0.7578115568	-0.1093437711	-0.154364
C	-0.7599214078	-2.2301352941	-0.0817136503	-0.035863
C	-1.2882434529	-2.9786229778	-1.3078921697	-0.084819
O	-2.7028175891	-2.8713082461	-1.3029091342	-0.4214
C	 0.7771039233	-2.2457669979	 0.0333662351	-0.37126
C	 1.1931057104	-0.7701294988	 0.1175057873	 0.331838
O	 2.3208246244	-0.3523761318	 0.2532284598	-0.330177
H	 0.6498187056	 1.9132928984	-0.8041189972	 0.140862
H	-0.9686034723	 1.9951261244	-0.0708358649	 0.120712
H	 0.492148634	 1.898705195	 0.9401375784	 0.14238
H	-2.1309933362	-0.4322779173	-0.2150041349	 0.119882
H	-1.2303796001	-2.6955443461	 0.7944785066	 0.098357
H	-0.8532971084	-2.5375295976	-2.2193746358	 0.0899
H	-0.9653844293	-4.0305238127	-1.2590155809	 0.092935
H	-3.0447742958	-3.3041828794	-2.0903347514	 0.290771
H	 1.1425067584	-2.7863602181	 0.9106315059	 0.132303
H	 1.2604529796	-2.7009311815	-0.8386621338	 0.127555
48.9721	99.9624	118.6702	153.508	221.2236	256.1258	262.0486	330.2845	366.7482	440.8245	534.2121	605.0555	615.1324	695.0802	760.7621	856.8236	897.3184	911.2785	994.1227	1020.7657	1054.3172	1069.4512	1076.2474	1077.878	1112.6214	1167.5529	1214.4264	1241.4537	1252.7807	1283.0209	1313.4195	1339.4841	1355.2455	1413.3541	1450.5058	1453.8684	1473.5847	1483.8423	1521.3458	1697.5939	1807.7412	2964.9656	2996.0637	3024.5917	3036.7205	3052.3476	3089.9302	3100.2025	3122.9732	3199.8653	3834.0591
CC1=CC(CO)CC1=O	CC1=C[C@@H](CO)CC1=O	
InChI=1S/C7H10O2/c1-5-2-6(4-8)3-7(5)9/h2,6,8H,3-4H2,1H3	InChI=1S/C7H10O2/c1-5-2-6(4-8)3-7(5)9/h2,6,8H,3-4H2,1H3/t6-/m1/s1
