21
gdb 120138	2.71598	1.0664	0.9014	2.8313	78.61	-0.2325	0.0749	0.3074	1366.3468	0.181398	-424.175001	-424.165565	-424.16462	-424.209772	35.038	
C	 0.8339907791	 2.0558350958	 2.9962306005	-0.418911
C	 0.4559605273	 0.6523848548	 2.5658522955	 0.158959
O	 0.009322138	 0.5344532095	 1.1802278305	-0.302266
C	 0.7982934614	-0.6478029841	 1.0161169123	 0.062444
C	 2.2605674113	-0.3504030175	 1.0621832848	-0.032048
C	 2.9048285365	 0.8891872833	 0.4801577778	-0.223433
C	 4.1475827995	 1.3318913331	 1.2438593006	-0.061409
O	 4.6607473198	 2.4908153365	 0.6036798573	-0.421386
C	 1.4704492521	-0.4770400507	 2.3645732775	-0.184781
H	-0.0273818533	 2.7229105097	 2.8855063168	 0.127775
H	 1.1186151349	 2.0500661451	 4.0542360378	 0.115959
H	 1.662184958	 2.4670748626	 2.4177317627	 0.1365
H	-0.3555996078	 0.2860649873	 3.2108383158	 0.082503
H	 0.3322630563	-1.4982986329	 0.5306780422	 0.099818
H	 2.8451879876	-1.2592571875	 0.915525279	 0.08875
H	 3.1932577463	 0.6872755779	-0.5587432733	 0.103582
H	 2.1845713551	 1.7097575175	 0.4451243389	 0.125716
H	 3.885545962	 1.5366237582	 2.2940837447	 0.086334
H	 4.8910747098	 0.5173853546	 1.2507286953	 0.078934
H	 5.4504227415	 2.7710823699	 1.0751833829	 0.284431
H	 1.7181486746	-1.216814283	 3.1146544204	 0.09253
51.7362	102.1959	119.7853	198.525	215.7014	258.4905	268.2065	298.7563	380.1557	439.7506	557.1538	623.4733	688.4715	762.3355	802.4528	807.8813	859.24	910.7533	927.633	1004.2298	1017.9259	1028.1951	1051.3433	1059.5925	1078.8245	1095.643	1097.6763	1128.3508	1157.9439	1198.5882	1232.1435	1243.7061	1265.59	1301.3469	1310.1814	1322.5802	1356.0112	1394.6376	1409.0302	1453.1455	1457.8484	1480.7761	1494.7829	1503.0471	1527.9869	2959.03	2987.116	2996.4627	3040.1998	3041.4907	3100.6872	3101.7633	3114.8549	3145.32	3169.4223	3194.4552	3830.0869
CC1OC2C(CCO)C12	C[C@H]1O[C@H]2[C@@H](CCO)[C@@H]12	
InChI=1S/C7H12O2/c1-4-6-5(2-3-8)7(6)9-4/h4-8H,2-3H2,1H3	InChI=1S/C7H12O2/c1-4-6-5(2-3-8)7(6)9-4/h4-8H,2-3H2,1H3/t4-,5+,6-,7+/m1/s1
