20
gdb 6205	3.69447	1.47318	1.38591	1.6328	78.06	-0.2253	0.025	0.2503	1036.4694	0.175086	-349.028	-349.019073	-349.018128	-349.061077	33.342	
C	 0.0343465346	 1.5194493254	-0.0305996704	-0.493397
C	-0.0061032398	 0.0256612429	-0.021627095	 0.301004
C	-1.0333578293	-0.7883061926	 0.2013620335	-0.237388
C	-0.6157868213	-2.2365686037	 0.1109305005	 0.350137
C	-0.785589638	-2.9847158813	 1.4415060999	-0.402017
C	-1.3217114558	-2.9849915506	-1.0294751036	-0.402017
O	 0.7942992612	-2.1635536981	-0.1950152693	-0.307457
C	 1.2191960419	-0.8128514084	-0.2873838331	-0.162906
H	 0.7428758036	 1.9014533922	 0.7152412618	 0.129133
H	 0.369780882	 1.9012320358	-1.0031979135	 0.129137
H	-0.9476935749	 1.9489549691	 0.1825551727	 0.127809
H	-2.0515748026	-0.4899264383	 0.4222566809	 0.091057
H	-1.8436051129	-3.0691440675	 1.7116557361	 0.107035
H	-0.3701146839	-3.9939683322	 1.3615860932	 0.119786
H	-0.2638795986	-2.4576402915	 2.2446560968	 0.114615
H	-1.1797518025	-2.458127548	-1.9767353251	 0.114615
H	-0.9104563133	-3.9942600159	-1.1286908261	 0.119785
H	-2.3965523448	-3.069393592	-0.8368637727	 0.107035
H	 1.645622388	-0.6144383532	-1.2850540134	 0.097017
H	 2.0207425464	-0.6142155122	 0.4437928869	 0.097018
70.9833	149.3617	172.3802	209.0714	237.0544	279.3302	330.664	333.2358	399.3283	407.311	523.1255	575.8148	646.1302	820.3935	844.5222	885.37	910.1597	919.935	952.0598	1000.3862	1007.186	1015.0872	1094.4181	1094.8045	1139.849	1181.8913	1212.1861	1213.0092	1267.1985	1329.2323	1384.7221	1388.845	1408.3296	1415.8384	1475.1387	1479.755	1480.5842	1489.7593	1495.049	1502.5473	1522.913	1736.388	2957.8817	2970.5892	3019.7037	3032.2581	3037.7779	3065.2233	3102.9183	3109.9278	3115.8906	3117.9187	3120.4007	3201.8868
CC1=CC(C)(C)OC1	CC1=CC(C)(C)OC1	
InChI=1S/C7H12O/c1-6-4-7(2,3)8-5-6/h4H,5H2,1-3H3	InChI=1S/C7H12O/c1-6-4-7(2,3)8-5-6/h4H,5H2,1-3H3
