16
gdb 133625	2.89528	1.10084	1.00396	0.6717	57.35	-0.2758	0.0751	0.3509	1186.4184	0.118894	-569.384382	-569.375552	-569.374608	-569.418907	32.034	
C	 0.1686777826	 1.5351541496	-0.0053493091	-0.466791
C	 0.0145535262	 0.0326831008	-0.0653903283	 0.418423
C	-1.1968949566	-0.5659412785	 0.6357992571	-0.411987
C	-2.4992806608	-0.4181283661	-0.1279353573	 0.280998
F	-2.4392457075	-1.0045361973	-1.3348755373	-0.078818
F	-3.5107781535	-0.9870163322	 0.5445271005	-0.072601
F	-2.8323405596	 0.8694758231	-0.3307740298	-0.08109
C	 0.6469867674	-0.738226945	-1.1464184785	-0.219144
O	 1.2213768835	-0.7068579951	 0.1631304791	-0.2818
H	 1.0822803873	 1.8428663485	-0.5188256784	 0.129694
H	-0.6859675713	 2.0359309718	-0.4664970971	 0.13933
H	 0.2334903661	 1.8692228994	 1.0361570673	 0.127498
H	-1.0291925727	-1.6349566164	 0.7866290339	 0.145098
H	-1.3410468081	-0.1080226557	 1.6195911227	 0.133743
H	 0.2232447562	-1.6928244425	-1.4522759584	 0.119802
H	 1.2102303307	-0.2135302045	-1.9164758764	 0.117645
33.2902	102.9282	158.576	194.8684	290.4587	306.1614	345.6305	395.1876	401.0085	454.9354	537.3117	542.5219	667.6276	752.5762	832.3102	859.7867	911.3085	925.0216	962.5227	1025.9201	1086.395	1114.9611	1135.8569	1167.5842	1190.3566	1258.62	1276.8374	1305.8301	1382.0175	1403.4928	1424.5528	1470.6155	1485.6659	1499.8246	1535.5738	3042.9372	3065.7688	3089.9627	3112.4873	3122.6608	3138.9974	3177.4685
CC1(CC(F)(F)F)CO1	C[C@@]1(CC(F)(F)F)CO1	
InChI=1S/C5H7F3O/c1-4(3-9-4)2-5(6,7)8/h2-3H2,1H3	InChI=1S/C5H7F3O/c1-4(3-9-4)2-5(6,7)8/h2-3H2,1H3/t4-/m1/s1
