21
gdb 117366	3.09793	0.84218	0.73771	3.3551	81.58	-0.2348	0.0404	0.2752	1631.9333	0.182153	-420.412059	-420.402038	-420.401093	-420.448723	35.623	
C	 0.7635805847	 0.8152815113	 0.3729550719	-0.370818
C	-0.0307406101	-0.4368063113	-0.0072579672	-0.143439
N	 0.6156892884	-1.2239159881	-1.04146232	-0.299922
C	 0.1472019354	-1.3043421572	-2.3123928218	 0.388027
O	-0.8691992887	-0.7645407854	-2.7151812425	-0.38683
C	 1.030758025	-2.123994679	-3.2604615178	-0.260674
N	 1.9679635936	-2.9960188753	-2.5620465403	-0.080474
C	 1.5517308222	-4.3864973416	-2.3807667245	-0.221646
C	 2.6128717635	-4.0318680558	-3.3623094899	-0.217082
H	 1.7617386391	 0.5566812581	 0.7430640481	 0.111528
H	 0.8819306669	 1.4748364279	-0.4915643986	 0.131445
H	 0.246963829	 1.3708974579	 1.162212799	 0.117111
H	-0.1898458304	-1.0647640104	 0.8783664543	 0.102079
H	-1.01165873	-0.1632315104	-0.4026228287	 0.146127
H	 1.4877506557	-1.6991382808	-0.8570252168	 0.252641
H	 0.3583931472	-2.6601303585	-3.9473954906	 0.11445
H	 1.604681341	-1.4107333281	-3.8647473644	 0.133067
H	 1.8121509945	-4.8388387907	-1.4285848618	 0.120689
H	 0.5804944883	-4.6778792899	-2.7758268536	 0.123422
H	 2.354233413	-4.089260953	-4.4177998653	 0.118098
H	 3.6585663318	-4.2202706497	-3.1374333793	 0.1222
33.0111	65.5696	74.0505	114.6155	139.8478	227.2383	302.9282	337.2441	374.3782	425.4097	464.6642	571.5745	641.3402	678.5024	772.7867	787.3069	844.3148	891.8817	909.6474	943.6147	1004.5656	1034.9839	1056.2679	1084.1002	1117.3417	1124.7788	1133.6729	1172.0583	1174.3176	1189.5266	1258.9969	1266.9086	1320.6817	1324.7682	1354.4257	1393.1227	1410.404	1469.0978	1484.3088	1492.8099	1493.4115	1502.9531	1521.1513	1554.3437	1782.1867	2993.0635	3026.3459	3034.2577	3057.2727	3095.9542	3101.5982	3105.9375	3114.138	3123.333	3184.7231	3199.0963	3598.928
CCNC(=O)CN1CC1	CCNC(=O)CN1CC1	
InChI=1S/C6H12N2O/c1-2-7-6(9)5-8-3-4-8/h2-5H2,1H3,(H,7,9)	InChI=1S/C6H12N2O/c1-2-7-6(9)5-8-3-4-8/h2-5H2,1H3,(H,7,9)
