21
gdb 105096	2.32392	1.37007	1.17756	1.1423	79.32	-0.2476	0.0876	0.3353	1194.9157	0.180096	-424.181113	-424.171424	-424.17048	-424.215584	36.098	
C	 0.3673253468	 0.8640808984	-0.6194900267	-0.259366
O	-0.3794336054	 0.4285896188	 0.5133869595	-0.287307
C	-1.4665717414	-0.3960316496	 0.2187385985	 0.397734
C	-2.7149898543	-0.0975480161	 1.0036671227	-0.311013
C	-2.6569394519	 0.2427375132	-0.4668856074	-0.325057
C	-1.1798397399	-1.8469420532	-0.0663064446	 0.010231
O	 0.0405710812	-2.1933140875	-0.725023787	-0.266283
C	-0.1727296976	-2.6826918288	 0.6120522156	 0.067556
C	 0.7605383954	-2.2210842061	 1.7010703062	-0.43439
H	 1.1338486564	 1.5426397562	-0.2376016333	 0.120766
H	 0.8393503266	 0.0232440272	-1.134294959	 0.141687
H	-0.2700744768	 1.4104481052	-1.3276726513	 0.104946
H	-3.3333941187	-0.9286395972	 1.3257392939	 0.114061
H	-2.6444204458	 0.7210329641	 1.7099308509	 0.128391
H	-2.5674501729	 1.2905834304	-0.7289727744	 0.122409
H	-3.2357277474	-0.3513245517	-1.166147778	 0.117273
H	-2.0570608449	-2.3677593591	-0.4604864251	 0.080794
H	-0.3858207539	-3.7546494046	 0.6298397701	 0.085019
H	 0.8858770579	-1.1394316205	 1.6848622281	 0.154301
H	 0.3596942768	-2.5149688159	 2.6776965456	 0.117232
H	 1.7379561797	-2.7025645532	 1.5872283559	 0.121018
53.8825	135.4773	168.7967	181.3817	213.0171	228.3479	257.6134	303.8933	335.7258	387.3444	450.9777	511.2025	609.063	734.726	768.9601	791.607	835.9419	898.4892	935.0971	963.1593	968.0841	993.7756	1036.4015	1057.0828	1078.456	1095.1304	1101.3446	1164.9054	1178.0067	1182.6223	1191.8764	1224.1976	1274.3353	1287.9119	1334.6953	1395.8784	1422.971	1453.9628	1464.0734	1476.3292	1484.3687	1494.1685	1500.7671	1510.6467	1520.3766	3011.3656	3037.2239	3060.8275	3076.5566	3093.0127	3093.7143	3130.4624	3134.2858	3138.2957	3167.2404	3219.0881	3233.8393
COC1(CC1)C1OC1C	COC1(CC1)[C@H]1O[C@H]1C	
InChI=1S/C7H12O2/c1-5-6(9-5)7(8-2)3-4-7/h5-6H,3-4H2,1-2H3	InChI=1S/C7H12O2/c1-5-6(9-5)7(8-2)3-4-7/h5-6H,3-4H2,1-2H3/t5-,6-/m0/s1
