15
gdb 51157	3.14219	1.24965	0.98385	4.9348	67.96	-0.2604	-0.033	0.2274	1160.4569	0.110667	-457.765831	-457.757691	-457.756746	-457.799682	29.102	
O	-0.0237925546	-0.0038820547	-0.108214679	-0.260109
C	-0.009270589	 1.1858023925	-0.0726198722	 0.156758
O	 1.155448641	 1.882835567	 0.0685682676	-0.225797
C	 1.0439081493	 3.2660451821	 0.1055291888	 0.318471
C	 1.2714541534	 4.1197728375	-1.1332617839	-0.337812
C	 2.1692835711	 4.3196716853	 0.044181696	-0.132185
C	 1.4491869147	 5.1949884584	 1.085093106	-0.353784
C	 0.3918321513	 4.0635262816	 1.1996487932	 0.351149
O	-0.4698773482	 3.8048550881	 1.9887743729	-0.307339
H	-0.8935165877	 1.8413903245	-0.1405994226	 0.106522
H	 1.6880101522	 3.5420585643	-1.9523717524	 0.145968
H	 0.5593320017	 4.8856863574	-1.4283031243	 0.130465
H	 3.2308623379	 4.1174001942	 0.0194994776	 0.13054
H	 1.9808416267	 5.3046258723	 2.0341271635	 0.14638
H	 1.1053641001	 6.1749985694	 0.7439399286	 0.130773
39.9452	111.1537	130.0802	172.6675	286.2299	360.6514	415.3761	450.9039	561.5161	574.5474	659.0112	761.5051	836.9244	859.7004	911.3051	960.9936	983.0566	1018.0956	1022.4283	1031.3118	1070.3506	1088.9542	1128.8359	1151.6123	1206.3181	1255.6355	1286.0246	1361.2694	1426.99	1456.9437	1491.0076	1872.5643	1888.7454	3005.888	3064.7328	3117.0661	3121.5108	3210.7616	3224.662
O=COC12CC1CC2=O	O=CO[C@]12C[C@H]1CC2=O	
InChI=1S/C6H6O3/c7-3-9-6-2-4(6)1-5(6)8/h3-4H,1-2H2	InChI=1S/C6H6O3/c7-3-9-6-2-4(6)1-5(6)8/h3-4H,1-2H2/t4-,6-/m1/s1
