18
gdb 70668	2.52714	1.5665	1.14772	3.6923	72.04	-0.2301	-0.0244	0.2057	1090.2583	0.146554	-439.076867	-439.068258	-439.067314	-439.110496	31.827	
C	-0.4019620231	 1.2170496808	-0.2847090135	-0.490591
C	 0.1162699922	-0.1595455171	 0.0159963349	 0.401939
O	-0.5675459412	-0.9189312778	 1.0297037205	-0.288939
C	 0.8120683945	-0.5906206318	 1.2343464627	-0.020321
C	 1.7660254386	-1.7102310691	 0.887723022	-0.191321
N	 1.3098148254	-2.1496310953	-0.4391694868	-0.327674
C	 0.6212606862	-1.0555899119	-1.1231568415	-0.1251
C	-0.5493403386	-1.5784711117	-1.9475739208	 0.161683
O	-0.9755533247	-1.0279897844	-2.9303004675	-0.254981
H	 0.3773834504	 1.8347219323	-0.7425201269	 0.127436
H	-1.2424299863	 1.169887168	-0.9842487544	 0.149672
H	-0.7420047756	 1.6990140803	 0.6347657094	 0.133629
H	 1.0243189465	 0.0793065888	 2.0635261412	 0.099974
H	 2.7923913046	-1.3066329363	 0.9011082588	 0.093486
H	 1.7228293556	-2.5406680759	 1.6023645384	 0.118671
H	 2.0504280174	-2.5544880423	-0.9949826464	 0.230333
H	 1.2521042343	-0.4388157696	-1.7826672738	 0.083183
H	-0.9941637961	-2.5102998569	-1.5387950262	 0.098922
56.0101	102.4125	184.3925	216.7012	231.5714	291.7698	350.451	420.124	468.9569	495.7489	562.6125	623.1671	696.113	832.6222	855.27	912.8314	927.9117	977.5499	989.879	1027.4409	1046.2733	1071.7261	1113.5779	1120.9003	1132.4567	1207.993	1227.7556	1270.0267	1292.7661	1302.1178	1357.5387	1392.8654	1414.487	1445.2956	1462.8904	1485.552	1498.9048	1509.3641	1825.3946	2919.0023	2965.0544	2981.4745	3042.6082	3048.1668	3107.8996	3130.3172	3152.1294	3581.8659
CC12OC1CNC2C=O	C[C@]12O[C@H]1CN[C@H]2C=O	
InChI=1S/C6H9NO2/c1-6-4(3-8)7-2-5(6)9-6/h3-5,7H,2H2,1H3	InChI=1S/C6H9NO2/c1-6-4(3-8)7-2-5(6)9-6/h3-5,7H,2H2,1H3/t4-,5-,6+/m0/s1
