19
gdb 7817	3.22422	1.81643	1.24247	1.6793	73.63	-0.238	0.0318	0.2698	1017.0915	0.166089	-365.097415	-365.089258	-365.088313	-365.129782	30.532	
C	 0.0108581861	 1.5693559393	-0.0212740778	-0.383534
C	 0.0608831657	 0.0406215995	-0.0075022049	 0.062683
C	 0.7260696548	-0.5357296264	-1.2631683995	-0.227575
C	 0.9669727188	-2.0221531806	-1.0506430823	-0.081237
O	 1.7265430567	-2.2560545144	 0.1415063273	-0.25994
C	 1.4787600489	-1.424163055	 1.1947205464	 0.391383
C	 2.2390085696	-1.8824044374	 2.4051773146	-0.449756
N	 0.7324973333	-0.3990273312	 1.2178653786	-0.316355
H	 1.0232503818	 1.9853575006	-0.0582558729	 0.114728
H	-0.5457286178	 1.9366496499	-0.8900477661	 0.102625
H	-0.4704184966	 1.9386499359	 0.8878819336	 0.12349
H	-0.9752192508	-0.3283887564	 0.0376835224	 0.08047
H	 0.1059984515	-0.3793677268	-2.1522204406	 0.100964
H	 1.6850540161	-0.0321320717	-1.4364319705	 0.107835
H	 0.0135998962	-2.5616836659	-0.9679594589	 0.107843
H	 1.5431579575	-2.4732404024	-1.8625410484	 0.114057
H	 3.3105048334	-1.9235811045	 2.1842503436	 0.13573
H	 2.058486198	-1.1961098996	 3.2312846083	 0.141976
H	 1.9297769168	-2.8937000929	 2.6886026172	 0.134612
101.7308	140.7765	182.7704	235.0977	250.5484	284.447	384.8286	447.7515	467.7736	533.7377	626.2613	652.4599	805.7707	860.3192	889.1662	932.0048	968.507	997.3175	1018.1348	1061.7261	1094.4609	1139.7432	1143.1885	1184.9536	1219.1936	1264.6612	1276.0798	1333.8561	1348.0569	1380.0197	1401.4736	1404.9015	1416.727	1475.4382	1477.1901	1478.3858	1486.9294	1497.9728	1512.1951	1745.0566	2981.7425	3015.3227	3031.9767	3036.1001	3046.7206	3082.255	3094.3957	3103.1572	3103.3953	3120.9773	3167.17
CC1CCOC(C)=N1	C[C@H]1CCOC(=N1)C	
InChI=1S/C6H11NO/c1-5-3-4-8-6(2)7-5/h5H,3-4H2,1-2H3	InChI=1S/C6H11NO/c1-5-3-4-8-6(2)7-5/h5H,3-4H2,1-2H3/t5-/m0/s1
