15
gdb 11176	3.67443	1.53533	1.38637	3.9931	64.53	-0.2558	-0.0336	0.2222	918.3859	0.119722	-362.713622	-362.706432	-362.705488	-362.745571	26.452	
O	 0.0102669922	 0.0074816279	-0.1252094428	-0.299362
C	-0.0277222126	 1.2024640032	-0.0121563925	 0.415573
C	-1.2868218934	 2.0617144079	 0.1438876971	-0.317265
C	-0.777582535	 3.4270788296	 0.6210097627	-0.231407
C	 0.630970647	 3.565618733	-0.0362207733	-0.167709
C	 1.2004455806	 2.1281690214	 0.0164842395	-0.329437
C	 0.5218767899	 4.0503723464	-1.414159397	 0.271608
N	 0.4240049441	 4.4280907607	-2.5023297231	-0.317963
H	-1.7533236023	 2.1413351148	-0.8465169607	 0.155658
H	-2.0096996879	 1.5819468356	 0.806230938	 0.137782
H	-1.435438442	 4.2579992558	 0.3626466881	 0.133172
H	-0.646216718	 3.4285424603	 1.7080168796	 0.118825
H	 1.2559866976	 4.2736540176	 0.5144979021	 0.132068
H	 1.7189067613	 1.9669802015	 0.9687809079	 0.143012
H	 1.9003104984	 1.8842897844	-0.7841130755	 0.155446
63.8412	125.0831	198.0591	274.4439	438.6846	450.0861	480.3362	536.2863	621.2958	689.3775	740.3953	793.2159	814.7749	907.6801	942.4736	975.5076	1000.2195	1066.7368	1137.9774	1156.2397	1177.4375	1196.085	1255.8943	1288.3749	1304.7869	1337.0891	1362.731	1445.7969	1450.8863	1496.6731	1856.599	2355.1564	3042.2106	3053.908	3057.9057	3080.3009	3120.0861	3126.7791	3130.2933
O=C1CCC(C1)C#N	O=C1CC[C@@H](C1)C#N	
InChI=1S/C6H7NO/c7-4-5-1-2-6(8)3-5/h5H,1-3H2	InChI=1S/C6H7NO/c7-4-5-1-2-6(8)3-5/h5H,1-3H2/t5-/m0/s1
