18
gdb 71351	3.2872	1.55382	1.23263	1.7	77.47	-0.2381	0.0714	0.3096	1035.6579	0.147306	-401.826346	-401.818874	-401.81793	-401.857907	30.299	
O	-0.0594649238	 1.3856084271	 0.060907276	-0.464252
C	 0.0568578554	 0.0090748613	 0.0518856595	 0.350343
C	 0.7567335558	-0.9467519623	 1.0138864041	-0.251211
N	 0.0836090122	-1.9201619607	 0.0517628438	-0.153144
C	-1.1453099819	-0.9673749034	-0.0602984724	-0.151527
C	-1.0849357323	-1.0233846245	-1.5747453924	 0.452486
C	-1.8124012384	-1.8448074805	-2.5831209123	-0.353768
C	-1.8515677031	-0.3235910131	-2.6440601086	-0.345435
C	 0.3675630536	-0.971004935	-1.1432765362	-0.195311
H	 0.8209774323	 1.7705885439	-0.0132022196	 0.283245
H	 1.8504203894	-1.0033179088	 0.9940484234	 0.096061
H	 0.3806889252	-1.0156463012	 2.0395726894	 0.104804
H	-1.9878824424	-1.0710657352	 0.6251047915	 0.084688
H	-1.2331946528	-2.3702365369	-3.3354542624	 0.115749
H	-2.7123357368	-2.3650925188	-2.2716994604	 0.116865
H	-2.7765413663	 0.1752059077	-2.3736597975	 0.117605
H	-1.2990310141	 0.1688764691	-3.437811686	 0.113327
H	 1.2876532181	-1.0716619088	-1.7222511699	 0.079475
126.5231	212.4652	238.9823	255.8434	340.1884	378.7676	471.5716	508.0854	559.2767	676.2952	721.6931	766.4485	831.7986	858.3883	866.2715	897.0151	912.2557	918.7803	958.4406	997.4945	1042.0513	1051.4479	1061.7049	1075.1092	1083.818	1090.9338	1106.9163	1162.3644	1181.2018	1184.628	1217.2043	1236.7286	1248.0047	1289.5163	1368.6387	1436.2797	1462.65	1519.9685	1524.7448	3036.9593	3098.3447	3099.2514	3109.4345	3125.7638	3129.1777	3202.8611	3217.0169	3800.7677
OC12CN3C1C1(CC1)C23	O[C@@]12CN3[C@@H]1C1(CC1)[C@@H]23	
InChI=1S/C7H9NO/c9-7-3-8-4(7)6(1-2-6)5(7)8/h4-5,9H,1-3H2	InChI=1S/C7H9NO/c9-7-3-8-4(7)6(1-2-6)5(7)8/h4-5,9H,1-3H2/t4-,5+,7+
