23
gdb 59091	2.01862	1.44546	0.9649	2.7048	86.12	-0.2353	-0.0153	0.22	1326.6982	0.203709	-388.31377	-388.303638	-388.302693	-388.348529	38.212	
C	-0.2606832659	 1.60136579	-0.0606546843	-0.392803
C	-0.0526467074	 0.0853819854	 0.0731148557	 0.008433
C	-1.4014842367	-0.6470375613	 0.1536640231	-0.398573
C	 0.7883087529	-0.4609962134	-1.0833768441	-0.076611
C	 2.3158922844	-0.1173151846	-1.2801655736	-0.034237
C	 3.0799935004	 0.2383175139	-0.0067733289	-0.397912
C	 2.5703619208	-1.5901905072	-1.7366962694	-0.341077
C	 1.2052497786	-1.9416719516	-1.1295553215	 0.378685
O	 0.7168323888	-2.9597099677	-0.7261391998	-0.304943
H	 0.6869232617	 2.1465659551	-0.1085954693	 0.113777
H	-0.8250838832	 1.8357429887	-0.9712637687	 0.111419
H	-0.828735491	 1.9918517488	 0.7902154666	 0.113721
H	 0.489564022	-0.106130459	 1.0083673583	 0.077189
H	-1.9940536087	-0.4691174884	-0.7521987964	 0.106169
H	-1.2591945017	-1.7247304112	 0.2566907385	 0.147353
H	-1.9857958017	-0.2856388311	 1.0064311907	 0.105514
H	 0.2674710836	-0.2526278687	-2.0305954687	 0.095998
H	 2.5016374906	 0.6324151281	-2.0522052107	 0.075094
H	 2.9308971755	-0.5155322839	 0.774945015	 0.123581
H	 4.1546379672	 0.2897018691	-0.2106024074	 0.117785
H	 2.7713821838	 1.2053852408	 0.4009544483	 0.122857
H	 2.5653928776	-1.715648779	-2.8242319686	 0.126067
H	 3.4379244684	-2.1122760727	-1.3246664246	 0.122513
76.4811	90.8733	154.0938	188.4138	234.7288	253.3924	263.1847	296.4245	310.4981	361.3476	396.1751	449.777	485.4951	575.7739	707.4855	721.3111	810.7601	871.481	885.8775	893.0957	937.179	968.8797	986.498	1007.9487	1030.8373	1074.8284	1094.0436	1128.4826	1157.9981	1177.8882	1206.3543	1209.4277	1236.4446	1269.2473	1289.1486	1346.3186	1364.0481	1380.3641	1398.5256	1415.1457	1421.0632	1445.4797	1488.8174	1491.4228	1496.4974	1500.1511	1505.2814	1515.5624	1875.2545	2995.0439	3019.8894	3024.8268	3030.3277	3031.5653	3055.3084	3076.073	3087.0753	3094.1334	3098.0902	3103.0784	3108.6146	3114.377	3133.5077
CC(C)C1C(C)CC1=O	CC(C)[C@H]1[C@@H](C)CC1=O	
InChI=1S/C8H14O/c1-5(2)8-6(3)4-7(8)9/h5-6,8H,4H2,1-3H3	InChI=1S/C8H14O/c1-5(2)8-6(3)4-7(8)9/h5-6,8H,4H2,1-3H3/t6-,8-/m0/s1
