15
gdb 16400	3.70714	2.29682	1.81037	3.3983	62.01	-0.2544	0.0136	0.268	748.6321	0.121446	-399.787831	-399.781731	-399.780786	-399.818006	23.906	
N	-0.0895262668	 1.2683117816	-0.2483755186	-0.532567
C	-0.0463509394	 0.038366596	 0.0368532599	 0.445139
O	 1.1151095764	-0.6152644158	 0.3438596219	-0.271114
C	 1.042258909	-1.9952360369	 0.7562802997	-0.076482
C	-0.3624466605	-2.546159971	 0.5818611165	 0.070746
C	-0.9619771794	-2.1277655959	-0.7745541123	-0.256724
C	-1.2679916885	-0.8435072648	 0.0263690166	 0.00166
O	-1.2609622953	-1.6237845754	 1.2608825991	-0.291651
H	 0.8467214948	 1.67827217	-0.2000141528	 0.221791
H	 1.7714773768	-2.5530800179	 0.1579373888	 0.117151
H	 1.3346690132	-2.044616547	 1.8110088645	 0.126921
H	-0.4506766896	-3.5767383731	 0.9355314412	 0.092152
H	-0.3063534267	-2.059109844	-1.6447370667	 0.118724
H	-1.8700603079	-2.6826613268	-1.0099336736	 0.123221
H	-2.1807397159	-0.2719923291	-0.1318279642	 0.111033
129.1829	219.7118	362.3428	418.2731	419.0491	527.2638	648.6292	708.9321	783.3342	846.073	876.3197	893.711	926.2975	932.6563	960.9184	979.3262	1023.7263	1078.3436	1084.842	1104.7128	1168.385	1204.7785	1242.178	1251.7178	1293.5728	1322.2346	1336.5794	1350.3052	1424.7528	1488.9126	1500.5514	1767.7397	3036.1544	3078.8227	3083.4332	3087.2532	3143.4034	3151.0454	3453.1232
N=C1OCC2CC1O2	[NH][C]1OC[C@@H]2C[C@H]1O2	
InChI=1S/C5H7NO2/c6-5-4-1-3(8-4)2-7-5/h3-4,6H,1-2H2	InChI=1S/C5H7NO2/c6-5-4-1-3(8-4)2-7-5/h3-4,6H,1-2H2/t3-,4+/m0/s1
