16
gdb 31593	3.30637	1.06793	0.85319	1.9714	70.59	-0.1837	0.0212	0.2049	1311.8947	0.123468	-475.031863	-475.022538	-475.021594	-475.066329	33.416	
N	 0.2500717577	 1.2758095369	-0.3589565211	-0.60232
C	 0.0185517345	-0.0777744086	-0.1485901362	 0.283159
C	-1.1241772793	-0.803783419	 0.0189402843	 0.19943
O	-2.3713642204	-0.247610452	 0.1690646097	-0.455747
C	-0.7271236411	-2.1806697392	 0.0880200355	-0.392807
C	 0.6266080636	-2.1975616953	-0.025044079	 0.346309
C	 1.6614382735	-3.2618962271	-0.0535847053	-0.177881
O	 2.2303968413	-3.4785256748	-1.3443162689	-0.413722
O	 1.0928992675	-0.9062182494	-0.17145463	-0.215859
H	 0.9319100816	 1.6670126931	 0.2829304132	 0.252409
H	-0.6198367648	 1.7893051938	-0.2836865699	 0.259607
H	-2.9803828271	-0.6780918636	-0.4396964963	 0.299142
H	-1.3681031792	-3.0390202517	 0.2203977943	 0.111876
H	 2.4505923572	-3.0338416645	 0.6805080267	 0.098689
H	 1.2009185051	-4.2092674837	 0.238951327	 0.121426
H	 2.56406228	-2.628502505	-1.6502588042	 0.286289
60.2496	109.9805	121.2526	222.2004	243.2287	264.9852	271.8207	310.1162	323.5309	419.0481	517.3626	599.4946	656.4846	665.8689	708.4535	788.9641	802.4071	843.8332	940.7	993.8286	1027.9621	1085.9209	1147.874	1166.3944	1196.9748	1274.5941	1317.7837	1342.6308	1369.5091	1415.434	1462.09	1486.28	1613.6575	1639.3587	1717.6719	2977.778	3098.4654	3249.7783	3508.3018	3611.3495	3807.4259	3815.12
NC1=C(O)C=C(CO)O1	Nc1c(O)cc(CO)o1	
InChI=1S/C5H7NO3/c6-5-4(8)1-3(2-7)9-5/h1,7-8H,2,6H2	InChI=1S/C5H7NO3/c6-5-4(8)1-3(2-7)9-5/h1,7-8H,2,6H2
