17
gdb 38132	2.95911	1.92514	1.43453	1.2331	72.78	-0.2417	0.0045	0.2462	914.7435	0.139233	-417.963863	-417.957232	-417.956288	-417.994894	26.429	
C	-0.0536491314	 1.4536507524	-0.0329539223	-0.248537
C	 1.2658346248	 0.7641830133	 0.0325557106	-0.037703
C	 2.0577335101	 0.7022435226	 1.3146008645	 0.087884
O	 1.7041984469	 1.6753331724	 2.325611263	-0.290706
C	 1.6819706944	 0.6530774016	 3.3479596629	-0.077402
C	 1.683404015	-0.4615761129	 2.2768613644	-0.037883
N	 0.3649650103	-1.0378398107	 2.132566425	-0.216109
C	-0.348444081	-0.7204289637	 1.1290726645	 0.053312
N	 0.0252325129	-0.0142600755	-0.0273114881	-0.109269
H	-0.3875351082	 1.9433170137	 0.8765559866	 0.147001
H	-0.3822030031	 1.898376171	-0.9670572079	 0.127564
H	 1.8498719924	 0.696677572	-0.8815238544	 0.102082
H	 3.1312902075	 0.7519571844	 1.092836692	 0.072576
H	 2.5856008833	 0.6835168692	 3.9699681805	 0.100647
H	 0.7885344721	 0.7072470347	 3.9762379194	 0.116695
H	 2.422722636	-1.2555794885	 2.4020763399	 0.091218
H	-1.3752823519	-1.0860837461	 1.0848530995	 0.118629
118.4565	176.561	271.5211	365.7245	452.0723	494.8114	562.2948	628.8393	699.0438	777.7428	824.0726	848.5309	872.1385	942.5506	963.0439	966.8821	981.3715	1000.6625	1041.6678	1081.9817	1091.9762	1097.2026	1122.0842	1155.5028	1170.0203	1176.2929	1229.1933	1263.0727	1330.9846	1335.1743	1336.126	1381.2684	1405.1691	1416.6126	1498.5806	1515.2471	1699.2203	3015.6037	3022.5612	3083.7061	3095.7256	3120.2872	3123.5018	3141.6011	3219.7454
C1C2C3OCC3N=CN12	C1[C@H]2[C@H]3OC[C@H]3N=CN12	
InChI=1S/C6H8N2O/c1-5-6-4(2-9-6)7-3-8(1)5/h3-6H,1-2H2	InChI=1S/C6H8N2O/c1-5-6-4(2-9-6)7-3-8(1)5/h3-6H,1-2H2/t4-,5+,6+,8?/m1/s1
