14
gdb 129831	3.21892	1.41659	0.98413	4.8098	69.37	-0.2147	-0.0381	0.1766	1099.3227	0.102966	-470.055473	-470.047814	-470.046869	-470.087296	29.917	
N	 0.0564755567	 1.3953020223	 0.1379178924	-0.590415
C	-0.0322033811	 0.0318607713	 0.0503723866	 0.299165
C	-1.1916859167	-0.6896772741	 0.0286300771	-0.341515
C	-1.18559193	-2.1367696338	-0.0077659242	 0.439653
O	-2.1595370243	-2.8740570872	-0.0257192938	-0.412726
N	 0.1059353902	-2.6746275049	-0.0247193868	-0.295824
N	 1.275420794	-2.0030572511	-0.0192244189	-0.304213
C	 1.2063827506	-0.7180848697	 0.0185301052	 0.415404
O	 2.3499669495	 0.0148875696	 0.0188643607	-0.433856
H	 0.9401571157	 1.811670178	-0.106282206	 0.274509
H	-0.7629237292	 1.9371742363	-0.08218737	 0.26314
H	-2.162723993	-0.2093779365	 0.043342966	 0.109831
H	 0.1840497331	-3.6805204337	-0.0548540998	 0.269078
H	 3.0877385345	-0.6082168764	-0.0182939386	 0.30777
120.3147	191.0934	313.883	358.8054	377.5103	387.4542	423.5878	429.4967	472.388	494.3328	527.6528	593.296	615.8833	722.4317	743.0618	755.6571	807.9034	874.249	954.1543	1097.4087	1151.4068	1245.7375	1270.4766	1312.7173	1350.917	1434.058	1518.0172	1616.2226	1640.3729	1694.2573	1774.7299	3205.6588	3598.543	3623.2568	3715.5626	3784.1759
NC1=CC(=O)NN=C1O	Nc1cc(=O)[nH]nc1O	
InChI=1S/C4H5N3O2/c5-2-1-3(8)6-7-4(2)9/h1H,(H,7,9)(H3,5,6,8)	InChI=1S/C4H5N3O2/c5-2-1-3(8)6-7-4(2)9/h1H,(H,7,9)(H3,5,6,8)
