15
gdb 98040	4.06776	0.62768	0.54749	0.6869	77.86	-0.2645	-0.033	0.2315	1910.1148	0.111032	-416.81728	-416.807214	-416.806269	-416.854895	32.97	
C	 0.4222730721	 1.4089456456	 0.058959536	-0.340796
N	 0.5647577797	 0.0027923057	-0.2649824447	-0.311204
C	-0.405669141	-0.7009635254	-0.9125652264	 0.266219
O	-1.4701704591	-0.237418004	-1.2798250033	-0.354509
C	-0.051854888	-2.0998946972	-1.136218782	-0.007185
C	 0.1901816583	-3.2597748847	-1.3455297692	 0.152467
C	 0.4681304001	-4.6685939902	-1.6072144914	-0.480413
C	 1.7834794299	-5.0961453459	-1.1127852936	 0.279603
N	 2.816012145	-5.4383823318	-0.7265191441	-0.29454
H	 1.202114306	 2.007051802	-0.4246385261	 0.133464
H	-0.5531043165	 1.731737937	-0.3057534522	 0.17597
H	 0.4729077151	 1.5725123556	 1.1408239742	 0.133465
H	 1.4082449135	-0.4834367087	-0.0071643785	 0.260826
H	-0.3010514444	-5.2985756242	-1.1422096185	 0.193317
H	 0.4181924691	-4.870112284	-2.6850099201	 0.193316
21.7746	53.095	70.4121	94.8798	144.1738	191.1758	294.088	349.8027	353.938	381.5028	408.1978	492.8742	580.7417	625.4004	759.8289	828.1619	919.4335	931.6234	1005.1144	1136.4636	1151.5447	1174.4362	1231.6806	1260.7491	1334.8907	1440.7273	1441.4161	1490.7407	1498.1994	1560.2612	1762.1843	2362.4092	2375.5007	3029.1277	3032.0297	3060.6651	3086.0189	3158.3841	3643.8295
CNC(=O)C#CCC#N	CNC(=O)C#CCC#N	
InChI=1S/C6H6N2O/c1-8-6(9)4-2-3-5-7/h3H2,1H3,(H,8,9)	InChI=1S/C6H6N2O/c1-8-6(9)4-2-3-5-7/h3H2,1H3,(H,8,9)
