17
gdb 30973	2.52433	1.38435	0.93893	3.4279	74.29	-0.1874	0.0417	0.2291	1239.3506	0.134928	-455.160703	-455.151496	-455.150551	-455.19489	33.087	
C	 0.164377525	 1.2111233765	-0.3071171528	-0.252751
O	-0.4516002405	 0.2212278375	 0.5270140235	-0.26821
C	 0.4049158824	-0.5240400304	 1.2496882564	 0.271435
C	 0.7051491579	-1.8244837465	 1.1572397389	 0.22665
C	 0.2891282426	-2.9028734045	 0.2345357504	-0.497808
O	 1.6051177285	-2.1403998181	 2.1815800928	-0.252388
C	 1.8451643021	-1.0050858404	 2.9274209097	 0.460228
N	 2.5485758135	-0.9108408142	 3.9760282672	-0.600274
N	 1.1627757328	 0.025046732	 2.3015179274	-0.401939
H	 0.733056295	 1.9353100964	 0.2868990311	 0.129119
H	 0.8343568031	 0.7394191088	-1.0350069038	 0.128917
H	-0.6475881309	 1.722368571	-0.8259099217	 0.141037
H	 1.1435990436	-3.3260883277	-0.3066422519	 0.137389
H	-0.1973997219	-3.7245573538	 0.7731840473	 0.140561
H	-0.4198604587	-2.5007922935	-0.4928326169	 0.141965
H	 2.9291039048	-1.8185976381	 4.2311227221	 0.223459
H	 0.8931166307	 0.8425815852	 2.8231984801	 0.272613
69.248	130.6201	149.6163	182.5229	198.2073	243.2314	248.4369	337.2358	420.1294	436.8877	545.6938	619.8257	636.045	682.739	720.9537	761.0465	825.9704	935.2151	987.8466	1019.6137	1062.7387	1069.2529	1141.6149	1173.7727	1201.4297	1253.5102	1281.8769	1348.7687	1403.827	1426.7877	1470.639	1482.2039	1487.2321	1496.8133	1503.4818	1772.6897	1812.8701	3022.1544	3025.2915	3073.2709	3090.0359	3129.5908	3145.5457	3536.7157	3663.5596
COC1=C(C)OC(=N)N1	COC1=C(C)O[C@@H]([NH])N1	
InChI=1S/C5H8N2O2/c1-3-4(8-2)7-5(6)9-3/h1-2H3,(H2,6,7)	InChI=1S/C5H9N2O2/c1-3-4(8-2)7-5(6)9-3/h5-7H,1-2H3/t5-/m0/s1
