14
gdb 96798	3.04762	1.43783	1.04388	2.33	66.32	-0.2782	-0.0445	0.2336	1095.8833	0.100267	-473.83653	-473.828891	-473.827947	-473.869164	27.575	
C	-0.0091673856	 1.4258333472	-0.0585952488	-0.343725
N	-0.0180216774	-0.0277380804	-0.0764686457	-0.31607
C	-1.0954368264	-0.6629328504	-0.069477128	 0.479549
O	-2.3753843526	-0.095240533	-0.0293035162	-0.240774
C	-3.3415298519	-1.0529873721	 0.2314782758	 0.463871
O	-4.4672602574	-0.7702310497	 0.4939537421	-0.311304
C	-2.6834300485	-2.4066801771	 0.1330944027	-0.129951
O	-2.0830047709	-2.5800881649	-1.1557721693	-0.228409
C	-1.2515964021	-2.145346364	-0.0711049229	-0.081681
H	 0.6476024369	 1.7579546578	 0.7515607415	 0.139618
H	 0.4358602773	 1.780835461	-0.9943652871	 0.144589
H	-0.9969814588	 1.8809719054	 0.0622185467	 0.140464
H	-3.1201187157	-3.2752281606	 0.6108317428	 0.14321
H	-0.4409340168	-2.7964781593	 0.2306617463	 0.140614
100.2566	118.2169	164.3003	205.5037	276.4257	386.9436	447.5167	486.3061	616.7947	667.8081	727.6501	764.5001	853.7995	860.6306	894.3274	920.3551	1001.8612	1042.2359	1050.8156	1125.03	1134.6012	1160.8202	1227.9493	1269.494	1300.3496	1391.8491	1437.8585	1491.0581	1495.0178	1820.8219	1918.5405	3030.677	3095.5551	3110.2902	3201.5524	3214.2381
CN=C1OC(=O)C2OC12	CN=C1OC(=O)[C@H]2O[C@@H]12	
InChI=1S/C5H5NO3/c1-6-4-2-3(8-2)5(7)9-4/h2-3H,1H3	InChI=1S/C5H5NO3/c1-6-4-2-3(8-2)5(7)9-4/h2-3H,1H3/t2-,3+/m1/s1
