13
gdb 21057	4.00322	1.8541	1.27744	2.9399	56.25	-0.2097	0.0433	0.2529	879.4945	0.09665	-431.965751	-431.958389	-431.957445	-431.997425	26.425	
C	 0.1135983946	 1.4001430849	-0.0658209374	-0.324898
N	 0.0815505661	-0.0378669689	-0.0138348745	-0.074595
N	 0.128899927	-0.8025101789	-1.1817112122	-0.36778
C	 0.0799218307	-2.0183748088	-0.7472986352	 0.505291
O	 0.0971963318	-3.1280664702	-1.491298709	-0.411922
N	 0.0047089884	-2.1065394981	 0.6099682724	-0.419599
C	 0.0029048096	-0.7955311763	 1.1294866683	 0.477282
O	-0.0543335441	-0.4506229905	 2.2906251319	-0.431938
H	 1.0385195852	 1.7537015354	-0.5325986545	 0.136983
H	-0.7399852025	 1.7897990464	-0.6296493197	 0.136973
H	 0.0646375572	 1.7563041982	 0.9644473053	 0.167013
H	 0.1531691635	-2.8506838395	-2.4156296435	 0.32119
H	-0.0465063175	-2.9399594036	 1.169072778	 0.286
110.7229	140.5329	195.9287	276.8756	352.1673	361.4453	424.4092	449.4332	569.3442	642.1085	688.7626	698.6162	753.7274	845.3619	1023.0702	1048.5807	1151.0592	1160.709	1208.7849	1266.2999	1309.0844	1421.1674	1446.4371	1481.582	1519.9296	1580.7884	1688.7549	1844.4589	3036.3977	3094.6475	3151.1584	3693.0841	3788.8769
CN1N=C(O)NC1=O	Cn1nc(O)[nH]c1=O	
InChI=1S/C3H5N3O2/c1-6-3(8)4-2(7)5-6/h1H3,(H2,4,5,7,8)	InChI=1S/C3H5N3O2/c1-6-3(8)4-2(7)5-6/h1H3,(H2,4,5,7,8)
