18
gdb 93581	4.53239	0.99396	0.90806	2.0751	74.9	-0.2474	0.0044	0.2518	1323.8705	0.147803	-439.080991	-439.072506	-439.071562	-439.115127	30.572	
C	 0.2378616052	 1.5551504476	-0.0329483519	-0.38812
C	 0.0599567336	 0.0392428969	 0.0264749156	 0.024292
C	 0.7079975936	-0.7214049693	-1.16503848	-0.122311
O	 1.5578156167	-1.7079376416	-0.5390280062	-0.257737
C	 1.4903669528	-1.4539055358	 0.7934682795	 0.418505
N	 0.7209223286	-0.5346403497	 1.2138596782	-0.331427
C	 2.3262989394	-2.3078709947	 1.6660027346	-0.019818
C	 2.697094906	-3.6784330743	 1.271577734	-0.172353
O	 3.6421582853	-2.6183018892	 1.1995543376	-0.221911
H	 1.3000278768	 1.8153648583	-0.0852973019	 0.123131
H	-0.2642955147	 1.9717017741	-0.9126803682	 0.113405
H	-0.1841452471	 2.0228438885	 0.8601108	 0.132689
H	-1.0119092502	-0.1866315298	 0.0930653652	 0.08972
H	-0.0093470042	-1.2428326232	-1.8032333891	 0.119171
H	 1.3360800559	-0.0750214352	-1.7876873547	 0.116927
H	 2.2490200007	-2.0505199262	 2.7188808658	 0.120716
H	 2.8730622963	-4.417477753	 2.0517418227	 0.121986
H	 2.3551683055	-4.0625958233	 0.3135024788	 0.133135
45.0514	84.8544	140.8265	173.2285	238.4404	297.9484	345.5637	416.694	503.7389	660.9573	690.5349	739.4101	848.9273	862.6056	885.8448	925.9793	937.1019	958.1526	985.7894	1028.7785	1091.2644	1101.1249	1121.8672	1158.5634	1160.4625	1171.3824	1225.5643	1259.9666	1287.8886	1322.9673	1365.9296	1385.4193	1406.7077	1422.3617	1487.9741	1496.8406	1514.7358	1520.7748	1732.9889	3017.9477	3035.405	3044.3061	3092.5705	3101.1592	3106.6855	3124.6346	3160.0337	3189.9402
CC1COC(=N1)C1CO1	C[C@H]1COC(=N1)[C@H]1CO1	
InChI=1S/C6H9NO2/c1-4-2-9-6(7-4)5-3-8-5/h4-5H,2-3H2,1H3	InChI=1S/C6H9NO2/c1-4-2-9-6(7-4)5-3-8-5/h4-5H,2-3H2,1H3/t4-,5+/m0/s1
