17
gdb 34055	3.24133	1.32583	1.13716	4.7761	72.81	-0.268	0.0168	0.2848	1089.2211	0.138714	-417.998161	-417.990597	-417.989653	-418.030249	29.012	
N	-0.0277161901	-1.14378732	 0.0265390111	-0.335126
C	 0.0077038674	 0.0117249174	 0.0450871495	 0.260795
C	 0.0272179029	 1.45608223	 0.0088672576	 0.129393
C	-1.1204691544	 2.0827154294	-0.7854362386	-0.171769
O	-0.9621018038	 3.4785076965	-0.8911496241	-0.243451
C	 0.2396308599	 3.8141767395	-1.5757541594	-0.082811
C	 1.4755006419	 3.5048906957	-0.7217223416	-0.251132
C	 1.3323919347	 2.1995733946	 0.0498668847	-0.044064
N	 0.4734646769	 2.1316326323	 1.2388686937	-0.345792
H	-1.1747945108	 1.6128095849	-1.7798757402	 0.117232
H	-2.0706403706	 1.9093181895	-0.271183561	 0.135776
H	 0.2841368015	 3.258351354	-2.5250072045	 0.104263
H	 0.1756836159	 4.8794846056	-1.8096105139	 0.120978
H	 2.3588951553	 3.454938258	-1.3666638457	 0.119373
H	 1.6551807113	 4.3162527196	-0.0061950086	 0.123674
H	 2.2375859278	 1.6078496139	 0.1534974878	 0.119088
H	-0.0570658258	 2.9996840595	 1.3187772034	 0.243573
114.1085	144.8109	178.9194	293.2319	373.5781	396.2315	410.7418	519.6732	543.4108	585.9561	591.9858	736.9222	803.9807	857.2578	893.0098	929.8056	978.9228	1016.6879	1032.3339	1066.0519	1109.0889	1127.64	1164.2877	1195.6802	1247.4694	1268.8305	1303.0004	1321.6072	1342.3233	1366.3209	1370.1687	1422.3196	1441.5374	1484.2347	1492.6264	1507.2332	2355.8756	2988.4841	2991.6043	3036.0327	3081.3726	3085.8889	3102.5489	3148.9275	3465.7624
N#CC12COCCC1N2	N#C[C@]12COCC[C@H]1N2	
InChI=1S/C6H8N2O/c7-3-6-4-9-2-1-5(6)8-6/h5,8H,1-2,4H2	InChI=1S/C6H8N2O/c7-3-6-4-9-2-1-5(6)8-6/h5,8H,1-2,4H2/t5-,6+/m1/s1
