12
gdb 24877	3.72974	1.30028	0.96415	1.0298	71.38	-0.26	-0.1089	0.1511	1098.3578	0.080633	-427.891095	-427.884098	-427.883153	-427.922989	25.413	
N	-0.1485649837	 1.3100401262	 0.0089059187	-0.548196
C	 0.014826058	 0.0522504513	 0.001024227	 0.422594
N	-1.1463806308	-0.7603913623	 0.0028222298	-0.346844
C	-1.0604085138	-2.1051887043	-0.0050474078	 0.339045
N	 0.0616090121	-2.7618815763	-0.0147503929	-0.314207
C	 1.1763541361	-1.9433195015	-0.0163039221	 0.062026
N	 1.2196439971	-0.6515446093	-0.0094093137	-0.271036
C	-2.3100238999	-2.8296232999	-0.0022580783	 0.270638
N	-3.325554658	-3.3798126951	 0.0002210015	-0.294365
H	 0.7624369892	 1.7659198738	 0.006498955	 0.239411
H	-2.0384598363	-0.282787381	 0.0103018867	 0.296621
H	 2.1236837699	-2.4778910117	-0.0243897837	 0.144312
112.4016	138.1527	152.6843	353.3016	424.7972	451.5286	481.7835	568.1284	596.3863	660.0171	743.9893	783.3333	786.6288	868.3814	907.2642	1009.2902	1017.8443	1054.1805	1193.2343	1263.8847	1302.1934	1423.0531	1490.3818	1562.9664	1646.4796	1751.3389	2368.8511	3167.5805	3517.9791	3595.8436
N=C1NC(=NC=N1)C#N	[NH]C1=NC=N[C@@H](N1)C#N	
InChI=1S/C4H3N5/c5-1-3-7-2-8-4(6)9-3/h2H,(H2,6,7,8,9)	InChI=1S/C4H4N5/c5-1-3-7-2-8-4(6)9-3/h2-3,6H,(H,7,8,9)/t3-/m0/s1
