15
gdb 128635	5.05323	0.94464	0.82137	3.4188	64.23	-0.2666	-0.0085	0.2581	1351.732	0.112262	-491.071692	-491.063127	-491.062182	-491.105742	29.637	
C	-0.0415332688	 1.2794663307	-0.0167420184	-0.253011
O	-0.1767631691	-0.1364258365	-0.2299800539	-0.249512
C	 0.5480157187	-0.6748504802	-1.1836632285	 0.535781
N	 0.5507245151	-1.9319325083	-1.5171195377	-0.4276
C	 1.463200409	-1.9337369972	-2.5454390907	 0.360519
C	 1.8062023499	-3.2088211168	-3.2570881818	-0.159209
O	 0.644370647	-3.941072635	-3.5826776536	-0.410696
N	 1.9906917409	-0.7771387782	-2.841415989	-0.194067
O	 1.3709111328	 0.0959455372	-1.9002354378	-0.222669
H	 0.9867066152	 1.5306492928	 0.2552310441	 0.154439
H	-0.3291105954	 1.832327056	-0.9144883069	 0.155203
H	-0.7182490915	 1.5112594785	 0.8042146174	 0.155366
H	 2.3328237348	-2.9804082066	-4.1866595622	 0.140164
H	 2.4889728206	-3.7916343944	-2.6173801773	 0.113394
H	 0.0945052909	-3.9598656121	-2.7898324833	 0.301898
67.1657	89.4106	142.3556	159.535	213.734	260.2311	356.4584	382.8101	453.3708	527.6999	645.7379	704.9914	763.0252	801.1111	884.0146	994.2392	1003.4685	1026.8537	1079.8441	1124.256	1177.7014	1204.1621	1218.299	1356.8067	1364.6224	1392.8796	1442.2392	1479.2099	1487.7795	1496.1091	1496.3956	1586.7443	1663.4227	2974.4796	3053.4825	3108.4046	3131.956	3172.5908	3789.5194
COC1=NC(CO)=NO1	COc1nc(CO)no1	
InChI=1S/C4H6N2O3/c1-8-4-5-3(2-7)6-9-4/h7H,2H2,1H3	InChI=1S/C4H6N2O3/c1-8-4-5-3(2-7)6-9-4/h7H,2H2,1H3
