17
gdb 125003	2.32523	1.86411	1.04258	3.7274	84.49	-0.1797	-0.0178	0.1619	1107.6834	0.138381	-414.207183	-414.198777	-414.197833	-414.239965	32.166	
C	 0.0622372487	 1.5052305975	 0.0287269104	-0.513092
C	-0.0183930284	 0.0077101102	 0.0398096739	 0.31542
C	-1.1882829475	-0.6968135771	 0.0302350137	 0.199263
N	-2.4456587891	-0.1204498375	 0.0465365142	-0.596894
C	-1.147927105	-2.1555024067	 0.0601673988	 0.244527
N	-2.2688819587	-2.8067909997	 0.0505286814	-0.591157
C	 0.1954483303	-2.7002640909	 0.0844861227	-0.077954
N	 1.3016398924	-2.0087325427	 0.0816868315	-0.2024
N	 1.1738303968	-0.6849825534	 0.0587281696	-0.292369
H	 1.0128421093	 1.8564859228	 0.4431428306	 0.128081
H	-0.0294842507	 1.9208027945	-0.9829982028	 0.141022
H	-0.7420815932	 1.9292370297	 0.6373459972	 0.154046
H	-2.5707833323	 0.7212708195	-0.4942657117	 0.242335
H	-3.1553741986	-0.8279348145	-0.1176886317	 0.268744
H	-2.106888286	-3.8138811996	 0.0697301413	 0.202204
H	 0.3256286854	-3.7790612037	 0.093837097	 0.110886
H	 2.0462478365	-0.1824936283	 0.0647569238	 0.267337
88.8846	132.3903	186.3996	278.4077	303.156	336.2212	380.8398	441.2469	486.7535	505.4041	534.1413	576.6409	615.5434	673.9778	689.2978	779.5698	807.7307	879.7695	912.7128	970.8035	1019.0355	1054.4819	1120.8044	1167.8449	1239.8423	1301.6529	1338.024	1376.2163	1411.5981	1446.5989	1478.3621	1497.076	1530.2279	1582.9005	1613.1413	1652.7525	1681.4701	3020.1173	3079.2681	3109.3948	3167.6389	3466.2948	3508.4303	3647.3485	3651.6643
CC1=C(N)C(=N)C=NN1	Cc1c(N)c([NH])cn[nH]1	
InChI=1S/C5H8N4/c1-3-5(7)4(6)2-8-9-3/h2H,1H3,(H2,6,9)(H2,7,8)	InChI=1S/C5H13N4/c1-3-5(7)4(6)2-8-9-3/h3-6,8-9H,2,7H2,1H3
