21
gdb 102814	2.18269	1.02496	0.74581	3.0408	79.6	-0.2501	-0.0219	0.2282	1531.7602	0.179574	-424.216249	-424.205959	-424.205015	-424.252894	36.016	
C	-0.8079251897	 0.2353295166	 0.5824905071	-0.389822
C	-0.1658663624	-1.0651064797	 0.0897498231	-0.185744
C	 0.4470220801	-0.9744401681	-1.3203956827	-0.024144
C	 1.2346031173	-2.2548273108	-1.6828918328	-0.28579
C	 2.4932709532	-2.4017990529	-0.8616401799	 0.155546
O	 2.7740243304	-3.3530117978	-0.1789072156	-0.24134
C	-0.6100658358	-0.7223418799	-2.3773573353	 0.089265
C	-0.860967846	 0.6022438845	-2.959167816	-0.180866
O	-0.1300506555	-0.3905609975	-3.6817647905	-0.244218
H	-0.080371747	 1.0545170826	 0.5982622539	 0.1163
H	-1.6412444756	 0.5441384524	-0.0559058924	 0.121423
H	-1.1951960832	 0.1168860656	 1.5987675972	 0.120244
H	 0.6151211327	-1.3746081714	 0.7942413974	 0.113754
H	-0.9096504179	-1.873442785	 0.1005282858	 0.103561
H	 1.1478528837	-0.1277294341	-1.3509148897	 0.078301
H	 0.6219572445	-3.1532359746	-1.5572578538	 0.116067
H	 1.5355191009	-2.1809807935	-2.736861565	 0.138095
H	 3.1825022774	-1.5257893492	-0.9308934703	 0.070897
H	-1.4329144424	-1.4417389775	-2.3819100239	 0.094769
H	-1.8437282292	 0.8448017236	-3.3610277856	 0.118118
H	-0.2763385156	 1.4552504967	-2.6171743509	 0.115584
48.3374	68.8925	87.0711	97.4221	167.0798	198.8993	228.9546	265.6884	344.9718	395.682	437.4986	484.4563	556.1176	745.7573	790.8163	853.3613	864.9114	900.2547	953.154	998.3832	1010.1755	1015.8958	1043.8752	1088.786	1124.4828	1146.658	1158.4573	1168.8305	1186.6986	1219.7834	1263.9855	1285.733	1298.1951	1338.4157	1357.9194	1381.144	1414.0099	1429.1398	1448.607	1465.2785	1488.6727	1500.5249	1507.8326	1530.2816	1833.7344	2842.8826	3004.3074	3021.2893	3025.4017	3035.8234	3057.4912	3078.9008	3084.3542	3095.0967	3102.3502	3111.0923	3169.8748
CCC(CC=O)C1CO1	CC[C@@H](CC=O)[C@H]1CO1	
InChI=1S/C7H12O2/c1-2-6(3-4-8)7-5-9-7/h4,6-7H,2-3,5H2,1H3	InChI=1S/C7H12O2/c1-2-6(3-4-8)7-5-9-7/h4,6-7H,2-3,5H2,1H3/t6-,7+/m0/s1
