20
gdb 75838	2.44378	1.70021	1.19408	3.6931	79.65	-0.2258	0.0321	0.2579	1096.4149	0.171342	-403.190971	-403.182233	-403.181289	-403.223964	33.475	
C	 0.0562982864	 1.4089732766	 0.0389322976	-0.355757
N	-0.1031116458	-0.0291279954	 0.0343056626	-0.1016
C	-0.0262932511	-0.7570203876	-1.1316675843	 0.385824
O	 0.0298112934	-0.2911763514	-2.2506392449	-0.388993
C	 0.0055755236	-2.2454302394	-0.7548183466	-0.355598
C	 0.1059818491	-2.2581206629	 0.7573042138	-0.091713
C	 1.2888357239	-1.5679736149	 1.4128461821	-0.334845
C	-0.0221381409	-0.8311917053	 1.2320474827	 0.341875
C	-0.8741354745	-0.4063030317	 2.4007636275	-0.474967
H	 0.998096165	 1.7035700082	 0.5199024858	 0.121242
H	 0.0672324573	 1.7358115105	-1.0022715021	 0.164804
H	-0.7690875563	 1.9032275529	 0.5624457114	 0.124905
H	-0.9115041393	-2.7253711589	-1.1122850245	 0.130384
H	 0.8422040645	-2.7264538739	-1.2697790322	 0.133382
H	-0.3870797716	-3.0481871762	 1.311291994	 0.094491
H	 1.5562314645	-1.8960468752	 2.4120215015	 0.114178
H	 2.1291615847	-1.2721348828	 0.7921886724	 0.117319
H	-0.5493264967	 0.5553083555	 2.8132804588	 0.124993
H	-1.9252189768	-0.3128681546	 2.1070338934	 0.126329
H	-0.8080253296	-1.1465062836	 3.203000331	 0.123748
117.9105	131.5286	167.0301	223.928	235.3497	271.242	333.7917	394.6964	452.6498	488.537	576.6835	588.2454	656.0857	685.691	801.6373	831.3074	870.5039	925.5958	963.348	977.0128	1032.6111	1055.212	1075.9124	1103.2691	1124.3083	1128.7994	1158.4519	1190.1635	1196.5628	1272.0978	1292.6951	1344.9605	1378.7462	1402.9686	1425.1566	1443.2021	1466.7793	1483.9961	1484.4657	1495.356	1506.5387	1517.4924	1805.4838	3015.0819	3031.2096	3056.4445	3072.0493	3092.8606	3096.3763	3113.1616	3122.7511	3142.7072	3176.9993	3212.819
CN1C(=O)CC2CC12C	CN1C(=O)C[C@H]2C[C@@]12C	
InChI=1S/C7H11NO/c1-7-4-5(7)3-6(9)8(7)2/h5H,3-4H2,1-2H3	InChI=1S/C7H11NO/c1-7-4-5(7)3-6(9)8(7)2/h5H,3-4H2,1-2H3/t5-,7+/m0/s1
