19
gdb 65484	2.90496	1.22799	1.0198	3.3736	80.21	-0.254	0.0341	0.2881	1219.2271	0.159264	-382.052167	-382.043423	-382.042479	-382.085695	33.298	
C	-0.6355706014	 1.558814875	-0.0963134975	-0.453153
C	 0.0851459899	 0.2137067848	 0.0235826269	 0.142639
C	 1.3771581823	 0.0193016229	-0.8570161389	-0.350947
C	 2.0931332357	-0.5127303311	 0.3874577717	 0.382638
C	 2.8536499863	-1.7757881658	 0.4907120254	-0.296865
N	 3.5107657768	-0.4669083856	 0.7046327669	-0.36703
C	 0.9786007263	-0.0039045122	 1.3025209217	-0.325491
C	-0.8533506268	-0.8897794903	-0.1659145791	 0.257072
N	-1.5999813149	-1.7599225577	-0.3177651242	-0.346825
H	 0.078009005	 2.3751801021	 0.0484013843	 0.123423
H	-1.095999483	 1.6721475	-1.0822688106	 0.137538
H	-1.4218827365	 1.6507380781	 0.6586181387	 0.139624
H	 1.2897851473	-0.6417001779	-1.7214620987	 0.125959
H	 1.7623379027	 0.9912801599	-1.1824859561	 0.111207
H	 2.7677000165	-2.3927014043	 1.3810684113	 0.126872
H	 3.0604738899	-2.3243228663	-0.4249008123	 0.118431
H	 4.0510807818	-0.2063501657	-0.1174613422	 0.231755
H	 1.2290511088	 0.9528163347	 1.7695180225	 0.116436
H	 0.5914068433	-0.6868209008	 2.0602287899	 0.126717
48.372	168.6889	181.836	226.8631	259.444	306.3564	319.434	388.5602	406.0059	456.0384	584.2161	594.2575	672.72	791.2382	841.9886	869.3186	902.3073	905.7879	912.8598	959.6382	978.6254	993.4523	1036.1053	1094.0788	1121.7039	1135.0985	1145.4135	1176.0681	1240.2018	1262.7356	1270.1972	1287.5357	1303.2828	1412.1071	1423.3169	1468.407	1486.8236	1490.0368	1497.5081	1516.9301	2348.7842	3039.5155	3050.0242	3065.0494	3105.7309	3115.5048	3116.4054	3119.2434	3129.6958	3192.3488	3491.0004
CC1(CC2(CN2)C1)C#N	C[C@]1(C[C@]2(CN2)C1)C#N	
InChI=1S/C7H10N2/c1-6(4-8)2-7(3-6)5-9-7/h9H,2-3,5H2,1H3	InChI=1S/C7H10N2/c1-6(4-8)2-7(3-6)5-9-7/h9H,2-3,5H2,1H3/t6-,7-
