21
gdb 111328	2.46271	1.40771	1.06977	1.7289	82.54	-0.2478	0.0824	0.3302	1222.7284	0.181639	-387.037808	-387.029056	-387.028112	-387.071236	33.776	
C	 0.0890928594	 1.6007194565	 0.0704919937	-0.38515
C	-0.063148589	 0.0789824272	-0.0228174056	-0.187166
C	 0.6428153605	-0.5189261505	-1.233824949	-0.112418
C	 2.1894452093	-0.575814223	-1.197711405	 0.025939
O	 2.5696102555	-1.4235006139	-0.107446243	-0.248066
C	 2.1900904815	-2.0386302791	-1.3511879065	-0.07595
C	 0.6772520884	-2.0694068745	-1.3986067789	 0.356256
C	-0.2407446303	-3.1128030149	-0.840437772	-0.320554
C	-0.1595490896	-2.8883925772	-2.3350258127	-0.335014
H	 1.1426148269	 1.889610563	 0.1511345194	 0.119742
H	-0.3246504002	 2.0991217359	-0.8136760899	 0.110275
H	-0.4294066408	 1.9974194793	 0.9486588172	 0.113705
H	 0.338648186	-0.3958817804	 0.8785917238	 0.115682
H	-1.1290936193	-0.1806109074	-0.0648797316	 0.090112
H	 0.3000123135	-0.0447133891	-2.1617024525	 0.073041
H	 2.9089023064	 0.1660575079	-1.5246625615	 0.100781
H	 2.9079604137	-2.7059504565	-1.815252301	 0.102072
H	 0.1969384784	-4.0159007737	-0.4279571162	 0.116264
H	-1.1353408495	-2.777417615	-0.3257395985	 0.115801
H	-0.9968298317	-2.4041896431	-2.8279497734	 0.11231
H	 0.3351139309	-3.6419568714	-2.9402711868	 0.112337
85.1202	123.7775	155.0726	205.184	243.1757	270.4373	281.829	421.1685	496.8202	553.3153	620.8555	752.0669	775.6602	797.8011	851.7264	856.8199	871.3592	891.9761	935.2678	952.9734	964.7285	985.1588	995.4956	1049.0967	1055.3772	1066.0334	1077.1924	1098.916	1157.2673	1186.2536	1200.2804	1216.3208	1231.7119	1268.0686	1280.3426	1340.8663	1364.9902	1387.6634	1399.3676	1411.8934	1465.179	1487.9513	1500.4342	1505.1605	1506.3533	3022.3673	3029.0881	3034.1253	3071.621	3098.3011	3103.3734	3120.421	3129.1254	3173.7934	3189.1907	3198.8068	3215.5201
CCC1C2OC2C11CC1	CC[C@H]1[C@H]2O[C@H]2C21CC2	
InChI=1S/C8H12O/c1-2-5-6-7(9-6)8(5)3-4-8/h5-7H,2-4H2,1H3	InChI=1S/C8H12O/c1-2-5-6-7(9-6)8(5)3-4-8/h5-7H,2-4H2,1H3/t5-,6+,7+/m0/s1
