15
gdb 56624	2.48559	1.11277	1.01016	5.127	68.5	-0.2694	-0.0544	0.215	1226.2134	0.110102	-453.986092	-453.976688	-453.975744	-454.021079	31.937	
C	-0.0957378755	 1.5316709932	 0.0290904697	-0.38419
C	 0.0760368176	 0.002589565	 0.0152771863	-0.163021
C	 0.7381329099	-0.4472721997	-1.2213660535	 0.289921
N	 1.2488394251	-0.7769824397	-2.2035073116	-0.301404
N	 0.766936465	-0.5075272038	 1.2092736172	-0.097118
C	 2.1435617661	-0.2391190446	 1.356207697	 0.170538
O	 2.8141052833	-0.5191833362	 2.3063171031	-0.25075
C	 0.010750342	-1.2275535001	 2.1532967377	 0.171253
O	 0.4075628388	-1.6638779615	 3.1928552561	-0.250107
H	 0.8728594887	 2.0370543496	 0.0211883143	 0.15244
H	-0.6600856237	 1.8554475059	-0.8488380443	 0.153895
H	-0.6381403493	 1.8262827145	 0.9306821328	 0.146716
H	-0.9184693735	-0.4568786068	 0.0190819485	 0.154523
H	 2.5420265325	 0.2670858535	 0.4569001936	 0.11395
H	-1.034515477	-1.3473286593	 1.801441353	 0.093354
44.7623	103.7061	149.1366	176.4527	202.0348	234.2715	239.0793	265.3063	354.133	412.9023	488.5986	524.1004	574.5228	707.7367	860.3338	944.4952	993.384	1013.2413	1034.9852	1085.4856	1116.1167	1186.6783	1252.8214	1319.8793	1391.2516	1415.0265	1454.2148	1479.4789	1488.1743	1494.7125	1809.7283	1885.1546	2362.6888	2917.1846	2959.0801	3053.7528	3056.8496	3138.2648	3139.5384
CC(C#N)N(C=O)C=O	C[C@@H](C#N)N(C=O)C=O	
InChI=1S/C5H6N2O2/c1-5(2-6)7(3-8)4-9/h3-5H,1H3	InChI=1S/C5H6N2O2/c1-5(2-6)7(3-8)4-9/h3-5H,1H3/t5-/m0/s1
