20
gdb 96672	3.47081	0.93843	0.79609	2.757	78.44	-0.2442	0.0249	0.2691	1483.4457	0.168644	-440.265817	-440.255659	-440.254714	-440.302679	34.674	
C	-0.4723059247	 1.2969747059	-0.1202565836	-0.328724
N	-0.1834652381	-0.1208724886	-0.0972356868	-0.286914
C	 0.661595775	-0.6213880521	-0.8956870436	 0.400499
C	 1.4867060329	 0.0474347302	-1.9707444643	-0.488047
O	 0.9331964004	-1.9519294632	-0.8520322706	-0.258746
C	 0.2692755506	-2.6913468802	 0.1606443191	 0.103114
C	-1.2101454655	-3.0414822503	-0.0715435457	-0.08042
O	-0.9113234157	-4.4565737445	-0.0253246413	-0.277392
C	 0.5072302378	-4.2021617096	 0.0328172843	-0.105046
H	 0.0973076911	 1.8811069347	-0.8557173065	 0.102314
H	-1.5397421118	 1.4482700801	-0.3206965969	 0.127432
H	-0.2767148576	 1.7229394991	 0.870973625	 0.127685
H	 2.2159596804	 0.7329579414	-1.5278893969	 0.146675
H	 2.0230110119	-0.7055759731	-2.547894237	 0.144842
H	 0.8540877309	 0.6294984352	-2.6459106315	 0.145149
H	 0.477295025	-2.2508116356	 1.1369175104	 0.101289
H	-1.9132995177	-2.7374090247	 0.7095725446	 0.111844
H	-1.5885468364	-2.7281891119	-1.0519916842	 0.10316
H	 1.022774081	-4.4810833541	-0.895006266	 0.106882
H	 0.9840207705	-4.7024186686	 0.8830858812	 0.104405
53.6302	62.2544	70.7263	78.5216	121.7042	161.9265	266.9332	296.3419	364.0972	373.5432	492.6582	583.9524	624.527	756.7391	824.8821	884.5644	894.5981	970.3574	1011.36	1022.6773	1052.3939	1055.2212	1113.3746	1133.6373	1134.6628	1143.6272	1151.7663	1157.7739	1190.4989	1258.9951	1290.9164	1303.2092	1352.1168	1396.2523	1414.1164	1448.693	1478.0553	1480.2441	1498.2273	1500.1337	1508.1707	1526.8259	1755.5439	3002.0804	3016.3306	3031.3838	3053.2637	3065.1307	3067.2764	3070.205	3084.4286	3104.1813	3115.3903	3155.9299
CN=C(C)OC1COC1	CN=C(C)OC1COC1	
InChI=1S/C6H11NO2/c1-5(7-2)9-6-3-8-4-6/h6H,3-4H2,1-2H3	InChI=1S/C6H11NO2/c1-5(7-2)9-6-3-8-4-6/h6H,3-4H2,1-2H3
