15
gdb 18814	4.27464	2.18803	1.82721	1.3615	63.15	-0.238	-0.0195	0.2185	733.6893	0.121066	-362.638506	-362.632689	-362.631745	-362.668338	23.421	
O	-0.002287008	 0.0205628928	-0.1985369849	-0.318472
C	-0.017324535	 1.2071753724	-0.012312678	 0.422551
C	-1.2683128733	 2.1000993281	 0.1254875709	-0.362618
C	-0.7187740703	 3.4209532959	 0.6264036029	-0.020631
C	 0.7033750927	 3.2962471263	 1.0219374264	-0.057407
C	 1.1765840073	 2.1455326696	 0.1011534507	-0.171847
C	 1.0174390941	 3.1933265423	-1.0445375293	-0.165304
N	 0.3231002357	 4.1705282326	-0.1417329461	-0.148296
H	-1.8007628606	 2.1597019408	-0.8298420468	 0.138811
H	-1.9599627053	 1.6595281361	 0.8508047488	 0.137945
H	-1.3716058372	 4.0960946337	 1.1670787837	 0.107386
H	 1.1716470253	 3.6686992502	 1.92478339	 0.103152
H	 2.1386416479	 1.6582463468	 0.2359279705	 0.09436
H	 1.9770200109	 3.6206546975	-1.3410472428	 0.127589
H	 0.4611086559	 2.9016032149	-1.9424531061	 0.112782
120.9166	311.3679	393.5329	443.9744	515.7637	634.931	688.9887	735.9705	765.1376	779.2048	820.3873	886.3055	935.5906	945.8253	950.4166	999.2084	1026.5191	1056.4849	1068.9675	1143.2965	1168.4653	1183.4588	1193.3668	1217.3358	1249.7347	1269.5624	1285.9946	1321.1794	1386.5728	1448.3487	1506.7531	1856.4657	3041.2976	3053.5762	3092.9618	3114.2089	3155.2727	3181.662	3192.6547
O=C1CC2C3C1CN23	O=C1C[C@H]2[C@H]3[C@@H]1CN23	
InChI=1S/C6H7NO/c8-5-1-4-6-3(5)2-7(4)6/h3-4,6H,1-2H2	InChI=1S/C6H7NO/c8-5-1-4-6-3(5)2-7(4)6/h3-4,6H,1-2H2/t3-,4+,6-,7?/m1/s1
