17
gdb 50176	3.3093	1.28311	1.0836	1.0036	74.41	-0.2359	-0.0461	0.1898	1119.0419	0.13731	-417.988854	-417.981217	-417.980272	-418.021493	28.889	
O	-0.3231510658	 0.5847907281	 1.0955160694	-0.241616
C	 0.338129873	 0.7328522969	 0.1011181094	 0.161407
C	 1.4748159833	 1.7216040358	-0.0155666275	-0.110259
N	 2.6071580207	 1.2476546244	-0.8818713657	-0.375811
C	 2.0971316738	 1.9904826659	-1.9470924076	 0.385177
N	 1.9098192191	 1.9021371169	-3.1963083165	-0.306953
C	 0.832949527	 2.905909221	-3.4512458454	-0.158911
C	 0.0739951455	 3.0997687535	-2.0830506833	-0.266023
C	 1.2315271082	 2.8678836643	-1.0966804607	-0.104866
H	 0.1503945093	 0.1361851857	-0.8208118319	 0.091846
H	 1.7786218278	 2.0626638146	 0.9752629033	 0.11037
H	 2.8313330704	 0.2636186913	-0.9850174634	 0.247886
H	 1.2593046785	 3.8523677348	-3.8098688127	 0.109742
H	 0.1717073898	 2.529624357	-4.2360997311	 0.11475
H	-0.3971679988	 4.080283312	-1.9849210178	 0.111179
H	-0.7080670046	 2.3405590861	-1.9903382698	 0.117233
H	 1.6983248728	 3.7933468319	-0.7534378787	 0.114848
74.9518	94.21	225.0662	246.8512	362.5712	391.0014	446.6171	471.1238	603.2524	646.8246	718.149	773.7884	818.8519	845.6783	898.0538	931.3306	977.5847	988.4237	1001.3107	1028.4724	1072.5963	1105.7639	1153.1002	1170.2761	1197.4443	1233.8036	1276.0321	1285.6192	1300.7232	1324.9644	1333.8356	1350.7513	1421.5839	1483.9206	1504.4017	1772.887	1830.3786	2873.6372	3020.8063	3061.8304	3088.6223	3093.0314	3109.1946	3118.9068	3543.9436
O=CC1NC2=NCCC12	O=C[C@H]1N[C]2[N]CC[C@@H]12	
InChI=1S/C6H8N2O/c9-3-5-4-1-2-7-6(4)8-5/h3-5H,1-2H2,(H,7,8)	InChI=1S/C6H8N2O/c9-3-5-4-1-2-7-6(4)8-5/h3-5H,1-2H2,(H,7,8)/t4-,5+/m0/s1
