19
gdb 34377	2.50833	1.60598	1.28867	0.8222	86.82	-0.243	0.0154	0.2585	1066.1835	0.159967	-348.725046	-348.71712	-348.716176	-348.757229	31.771	
C	-0.0416345623	-1.2139098815	-0.0866717614	-0.442745
C	-0.0339281268	-0.0116646965	-0.0311248571	 0.230829
C	-0.022894228	 1.4376462453	 0.0221262269	 0.154873
C	-0.3492767498	 2.1900734217	-1.3152649968	-0.268786
C	 0.8558860676	 3.1335078223	-1.061866505	-0.23314
C	 1.3588786196	 2.2074019108	 0.0829172918	-0.045076
C	 1.4695605292	 2.8364181327	 1.4819965211	-0.281595
C	 0.0550746551	 2.7379505468	 2.0080609367	-0.060898
C	-0.7366747337	 1.9923606731	 1.2391485165	-0.146695
H	-0.04828152	-2.2746348894	-0.1307732285	 0.187282
H	-0.208388097	 1.5407732966	-2.1819614513	 0.110873
H	-1.3401827524	 2.6469903216	-1.3728077431	 0.102699
H	 1.5394621522	 3.2696123142	-1.902342065	 0.101991
H	 0.5590567864	 4.1205294802	-0.6973681054	 0.103668
H	 2.2204202774	 1.6021131716	-0.1993678241	 0.077256
H	 2.1709097406	 2.2984799416	 2.134209287	 0.109575
H	 1.8276290085	 3.8728756528	 1.4315771114	 0.104566
H	-0.2579666256	 3.2198859294	 2.9283794948	 0.095568
H	-1.7790075409	 1.7647589266	 1.4327408814	 0.099755
107.2556	145.3665	170.3544	247.2339	339.8133	441.3046	495.4119	515.3677	546.2549	611.0558	618.2447	644.9129	722.3002	760.373	776.778	814.7554	874.3645	907.6855	939.7536	957.1533	977.5971	996.7568	1017.5352	1051.1275	1104.1179	1107.6667	1152.7801	1161.6841	1209.4151	1225.5392	1243.5494	1270.0182	1277.4312	1310.8075	1326.4842	1375.8993	1477.0102	1481.5807	1495.907	1679.0159	2225.5385	3012.2357	3041.9016	3060.9612	3066.6639	3101.8463	3113.4488	3127.941	3180.4775	3206.5412	3502.3633
C#CC12CCC1CC=C2	C#C[C@]12CC[C@H]1CC=C2	
InChI=1S/C9H10/c1-2-9-6-3-4-8(9)5-7-9/h1,3,6,8H,4-5,7H2	InChI=1S/C9H10/c1-2-9-6-3-4-8(9)5-7-9/h1,3,6,8H,4-5,7H2/t8-,9+/m1/s1
