20
gdb 39667	4.53923	1.02424	0.87347	2.4088	80.33	-0.2093	0.0179	0.2272	1322.4103	0.171922	-403.112185	-403.10394	-403.102996	-403.145917	30.524	
C	-0.0741010851	 1.4171771131	-0.1563622127	-0.084622
O	 1.271406037	 1.6690757119	 0.2965793697	-0.275427
C	 1.4409118316	 0.2914638473	 0.687032217	-0.084622
C	 0.1022360731	-0.1066469566	 0.026662322	 0.001207
N	-0.8586602475	-0.772161398	 0.8644577937	-0.076027
C	-0.4808508998	-2.1217637693	 1.3073361331	-0.199677
C	-1.8091716705	-2.8062570437	 1.4856163291	-0.069033
C	-2.7830598388	-2.0826193296	 0.9434621005	-0.069034
C	-2.2285986444	-0.8231173522	 0.3343819695	-0.199677
H	-0.8232015831	 1.8518273841	 0.5182955399	 0.100947
H	-0.2397835119	 1.7826614611	-1.1759102753	 0.100767
H	 2.3545190879	-0.1450050172	 0.2683149685	 0.100767
H	 1.4399118488	 0.1702468594	 1.778151159	 0.100947
H	 0.2548034133	-0.6246299911	-0.9387719236	 0.057688
H	 0.133987196	-2.6613058682	 0.5581903076	 0.087599
H	 0.1149744113	-2.0832858247	 2.2297891105	 0.108632
H	-1.9119022354	-3.7687042138	 1.9708325189	 0.101666
H	-3.8337124565	-2.3407223929	 0.9009790467	 0.101667
H	-2.7936195369	 0.0779160179	 0.6106029059	 0.108632
H	-2.2568251392	-0.8848367974	-0.7727517802	 0.087599
71.6619	77.3249	114.4453	163.5009	276.8412	352.2928	407.0317	437.9412	586.6334	694.4573	790.7112	796.0587	862.0696	892.0462	928.0843	942.1235	961.4268	995.0492	1020.7283	1022.7609	1033.8751	1039.5683	1059.2555	1120.3113	1130.8431	1163.4733	1178.8161	1181.0209	1194.4297	1213.7439	1254.7468	1280.3825	1308.495	1326.3579	1349.0923	1377.245	1385.7116	1417.0516	1500.8121	1509.1013	1521.0461	1527.3953	1694.267	2886.973	2892.8354	2917.0478	3004.4037	3010.3686	3010.5145	3018.9264	3064.8935	3067.7952	3203.2139	3227.8464
C1OCC1N1CC=CC1	C1OCC1N1CC=CC1	
InChI=1S/C7H11NO/c1-2-4-8(3-1)7-5-9-6-7/h1-2,7H,3-6H2	InChI=1S/C7H11NO/c1-2-4-8(3-1)7-5-9-6-7/h1-2,7H,3-6H2
