17
gdb 90760	2.63255	1.67628	1.37584	2.6632	68.66	-0.2351	0.0368	0.2719	977.9674	0.137987	-455.133225	-455.125546	-455.124602	-455.16601	29.037	
O	 0.3462413921	 1.2917496833	-0.3377511131	-0.424799
C	 0.105505126	-0.0648350027	-0.0568925512	 0.111147
C	 0.1837729381	-0.483735914	 1.4405066147	-0.218031
N	-1.3017812638	-0.6370210572	 1.4797414094	-0.122395
C	-1.3987553892	-0.5053499003	 0.0060302428	-0.034258
C	-2.5159978429	 0.518000644	-0.2123755337	-0.127748
O	-2.8385210079	 0.9931860796	 1.1056682682	-0.252146
C	-2.0246634139	 0.4165616191	 2.0486274264	 0.396449
N	-1.9213825647	 0.7889925735	 3.2525940475	-0.558752
H	 0.020461583	 1.8312149508	 0.3915764932	 0.296825
H	 0.7259018949	-0.6337885268	-0.7528599649	 0.098178
H	 0.6932009145	-1.433652866	 1.6190659843	 0.123965
H	 0.5604251623	 0.2681628007	 2.1394465504	 0.136039
H	-1.5901900476	-1.4578876059	-0.4951125207	 0.094415
H	-2.1901333163	 1.3616495183	-0.8288933444	 0.13091
H	-3.4127900016	 0.0729334879	-0.6509317145	 0.125127
H	-2.5169702128	 1.5964122757	 3.4248513455	 0.225073
54.8085	98.7227	225.1181	251.8517	308.4119	396.3093	441.3413	537.2731	657.3073	698.6	714.4088	753.2161	799.1412	819.1507	833.2661	908.691	981.9108	1006.4474	1012.1968	1028.5119	1072.4145	1090.3649	1106.2943	1151.5091	1202.3619	1216.3244	1245.1071	1261.5576	1280.6717	1295.031	1317.5988	1364.7152	1406.1727	1432.5347	1497.169	1520.2812	1765.0893	3052.1182	3060.9687	3068.0976	3092.209	3102.5282	3119.9631	3520.3328	3801.2791
OC1CN2C1COC2=N	O[C@H]1CN2[C@H]1CO[C]2[NH]	
InChI=1S/C5H8N2O2/c6-5-7-1-4(8)3(7)2-9-5/h3-4,6,8H,1-2H2	InChI=1S/C5H8N2O2/c6-5-7-1-4(8)3(7)2-9-5/h3-4,6,8H,1-2H2/t3-,4-/m0/s1
