21
gdb 104147	3.16564	1.06324	1.01787	2.9485	81.59	-0.2301	0.0157	0.2457	1311.009	0.180909	-424.240563	-424.230841	-424.229897	-424.274906	36.396	
C	 0.0960189032	 1.4588261721	-0.0997442378	-0.493169
C	-0.0051089935	-0.0303720114	-0.0379548687	 0.300942
C	-1.051261022	-0.7910586339	 0.2735626748	-0.2575
C	-0.7054901077	-2.2537402488	 0.1977387952	 0.317849
C	-0.89318184	-3.0086614183	 1.5165695625	-0.41253
C	-1.425693119	-2.9731440493	-0.9625971304	-0.065728
O	-0.8794232577	-4.2571465202	-1.185530796	-0.423853
O	 0.7053016364	-2.2555251564	-0.1396239193	-0.32251
C	 1.1683982237	-0.9263152062	-0.3485495035	-0.166257
H	 0.8591723594	 1.8335325504	 0.5939611836	 0.131546
H	 0.3929381335	 1.7946366779	-1.101309051	 0.131392
H	-0.8546052758	 1.9361216955	 0.150386584	 0.130734
H	-2.0398276342	-0.4396502943	 0.5441949227	 0.098048
H	-1.9413364953	-2.9734742518	 1.8321076214	 0.1095
H	-0.6104060974	-4.056006435	 1.387528265	 0.134086
H	-0.2772874556	-2.5624341631	 2.301102776	 0.114026
H	-2.4874918399	-3.1102750501	-0.7297455933	 0.099858
H	-1.354045547	-2.342565724	-1.8626213129	 0.079727
H	 0.074296865	-4.1182892937	-1.2495725166	 0.288321
H	 1.5194606354	-0.7980552253	-1.3859562661	 0.101008
H	 2.0310623984	-0.7263258039	 0.3066998106	 0.104509
75.4045	125.8675	135.773	173.9896	228.7696	241.2737	290.4138	333.3164	350.0274	396.9879	454.0433	494.3025	520.2311	617.8457	674.9199	815.3986	841.59	896.3245	906.8041	926.6318	957.8881	1000.4753	1013.1006	1069.4101	1085.2693	1094.5657	1121.6191	1163.8804	1190.7918	1210.4197	1231.4523	1266.9058	1319.8477	1375.9539	1383.6966	1399.9868	1414.8301	1432.4614	1479.8929	1482.4014	1489.3211	1493.9622	1502.3553	1522.432	1732.7044	2964.2596	2979.618	2985.7283	3020.7693	3042.0234	3066.9372	3069.763	3114.4775	3117.4146	3134.8989	3205.4732	3772.9237
CC1=CC(C)(CO)OC1	CC1=C[C@@](C)(CO)OC1	
InChI=1S/C7H12O2/c1-6-3-7(2,5-8)9-4-6/h3,8H,4-5H2,1-2H3	InChI=1S/C7H12O2/c1-6-3-7(2,5-8)9-4-6/h3,8H,4-5H2,1-2H3/t7-/m0/s1
