22
gdb 105083	2.85217	1.08555	1.01944	3.014	82.38	-0.2386	0.0691	0.3076	1333.6035	0.193024	-404.305688	-404.295909	-404.294965	-404.340491	36.578	
C	-2.784703487	 1.8536159611	-0.6148464527	-0.409164
C	-2.0663049158	 0.5187069651	-0.3988259288	-0.252936
C	-2.6199111457	-0.6949352251	-1.1414462845	 0.274722
C	-4.0428712831	-0.7710952708	-1.5741556927	-0.276086
N	-2.9651672514	-0.6046605166	-2.567482516	-0.337638
C	-1.9610569834	-1.9758516743	-0.6907584599	 0.015071
O	-2.2746277171	-3.185459873	-1.3695448382	-0.262443
C	-0.9121454489	-2.7311596346	-1.4034344537	 0.077513
C	-0.3290201989	-2.3625490489	-2.7429357949	-0.433493
H	-2.2512325833	 2.6535680624	-0.0935845062	 0.123226
H	-2.8299737355	 2.1379257348	-1.6720594059	 0.116241
H	-3.8071861091	 1.8334568395	-0.2270839367	 0.127276
H	-1.0094247322	 0.6286029949	-0.6782097186	 0.109022
H	-2.0651385075	 0.2892888785	 0.6746617861	 0.107483
H	-4.5280841501	-1.7418450674	-1.6054830107	 0.132652
H	-4.7006557138	 0.0697100976	-1.3777399407	 0.108489
H	-2.9237276227	 0.3664096988	-2.8672119079	 0.22637
H	-1.9725303638	-2.0717960785	 0.3997055471	 0.079168
H	-0.2527888994	-3.3330082061	-0.7722411942	 0.081735
H	-1.0558408258	-1.812699546	-3.3396123299	 0.163279
H	 0.5714555386	-1.7521706446	-2.6078942207	 0.109052
H	-0.0345719842	-3.269047677	-3.2830534101	 0.120461
59.3769	74.9462	164.9128	190.5548	219.1864	236.6943	279.9686	320.0084	365.1886	383.4751	405.7768	521.2792	592.5638	711.1159	776.8807	789.2618	820.6229	874.1281	905.8482	950.7504	976.7684	987.1156	1019.6702	1033.3517	1059.2493	1095.5757	1098.7466	1127.8482	1147.5572	1174.5301	1181.6833	1262.6631	1267.7527	1298.2916	1327.2232	1361.0365	1388.8325	1399.4084	1417.9821	1425.9359	1470.0545	1487.4336	1495.6451	1501.7183	1504.5632	1508.9477	1516.6531	3013.7304	3033.7804	3036.7542	3042.5951	3052.4522	3071.9687	3089.7969	3100.3931	3113.9008	3122.2027	3163.9422	3209.5286	3497.7428
CCC1(CN1)C1OC1C	CC[C@]1(CN1)[C@H]1O[C@H]1C	
InChI=1S/C7H13NO/c1-3-7(4-8-7)6-5(2)9-6/h5-6,8H,3-4H2,1-2H3	InChI=1S/C7H13NO/c1-3-7(4-8-7)6-5(2)9-6/h5-6,8H,3-4H2,1-2H3/t5-,6-,7-/m0/s1
