13
gdb 128697	2.4503	1.55815	0.95826	5.5195	67.86	-0.2585	-0.0465	0.212	1132.5223	0.091074	-448.93158	-448.923805	-448.92286	-448.964404	27.266	
C	 0.0039389959	 1.4127198632	-0.0241122556	-0.247453
O	 0.0141312987	-0.0192231163	-0.0215822984	-0.254671
C	 0.6053812254	-0.6023037278	-1.0552614866	 0.344109
N	 1.1771502818	 0.0325823335	-2.0727528882	-0.295651
N	 1.6179409358	-0.9762987301	-2.8345459871	-0.086215
N	 1.3872712454	-2.1957195449	-2.4099917859	-0.252537
C	 0.7309505469	-2.0021807112	-1.255774414	 0.139833
C	 0.2738572629	-3.060448033	-0.4341264657	 0.249034
N	-0.1129137101	-3.9013082226	 0.2602678188	-0.34039
H	 1.0251648226	 1.8052008956	-0.0239521598	 0.144788
H	-0.5255085323	 1.7926061687	-0.9029314418	 0.144783
H	-0.5154669337	 1.7045363081	 0.8880069715	 0.1478
H	 2.1066643007	-0.8037832033	-3.6985182172	 0.306571
99.6271	125.8761	170.8262	190.4479	250.8507	353.4768	428.7807	491.1911	553.3889	567.1006	636.8605	701.4029	758.227	781.8797	984.1679	1043.4029	1179.3608	1185.6561	1205.2299	1226.0981	1300.349	1350.9277	1455.9161	1463.0171	1483.7775	1497.6896	1539.7158	1604.4874	2359.4916	3042.4423	3114.8217	3163.6875	3666.5251
COC1=NNN=C1C#N	COc1n[nH]nc1C#N	
InChI=1S/C4H4N4O/c1-9-4-3(2-5)6-8-7-4/h1H3,(H,6,7,8)	InChI=1S/C4H4N4O/c1-9-4-3(2-5)6-8-7-4/h1H3,(H,6,7,8)
