22
gdb 96165	2.4878	1.44975	1.00323	2.1214	82.01	-0.2211	0.0763	0.2974	1224.9456	0.196526	-404.329341	-404.321005	-404.32006	-404.361742	33.689	
O	-0.0569725311	 1.4635393167	 0.0355859019	-0.44009
C	-0.0016521456	 0.0402656008	-0.0348433965	 0.138507
C	 0.7447203955	-0.5190068415	 1.1862422053	-0.213125
C	 0.8911915067	-2.0466870434	 1.2711015571	-0.199884
C	-0.4473389105	-2.8063243267	 1.3158504941	-0.226703
C	-1.0918746615	-2.9098413633	-0.0530518796	 0.026848
C	-2.5446750711	-2.6733921028	-0.2802240627	-0.26716
N	-1.5539782259	-1.7259291975	-0.7836531861	-0.08592
C	-1.4599471658	-0.4234361919	-0.1302999655	-0.157862
H	 0.8376013884	 1.788336082	 0.1780298037	 0.27882
H	 0.5081896944	-0.2788900287	-0.9584925523	 0.073554
H	 1.7495259368	-0.0729337291	 1.2042508293	 0.079934
H	 0.2284577826	-0.1504464792	 2.0830020087	 0.101891
H	 1.4854550867	-2.4146019209	 0.423904042	 0.098882
H	 1.469293809	-2.2801375175	 2.172654536	 0.094775
H	-0.2801642948	-3.8238467501	 1.6886625938	 0.098945
H	-1.1207382923	-2.3261995299	 2.0348060562	 0.097945
H	-0.5917640947	-3.6245560761	-0.707695266	 0.085653
H	-3.0939267862	-3.2352007348	-1.0316279369	 0.111793
H	-3.1382967534	-2.3760449798	 0.5840894035	 0.105747
H	-1.9191869235	-0.3967909769	 0.871648376	 0.082414
H	-2.0022556937	 0.2997400104	-0.747729392	 0.115037
132.8653	177.8701	254.8231	280.5568	283.6005	304.6283	364.0315	396.4591	435.8005	476.3126	525.7394	547.9322	746.4151	784.7919	847.5691	859.8023	904.3398	939.493	943.0649	979.9948	1020.1064	1053.3863	1063.0306	1084.4002	1106.5846	1115.9869	1129.1553	1142.9139	1177.814	1214.9783	1232.7277	1244.0042	1262.9419	1295.4616	1337.9554	1345.0004	1351.3941	1363.7638	1382.1887	1401.4167	1428.1679	1441.9492	1484.1847	1485.453	1491.1251	1504.116	1520.2666	2960.3095	2973.5506	2999.5793	3017.8293	3031.4852	3044.0192	3061.8968	3067.7758	3071.2747	3085.2211	3096.3101	3170.5546	3818.6545
OC1CCCC2CN2C1	O[C@H]1CCC[C@H]2CN2C1	
InChI=1S/C7H13NO/c9-7-3-1-2-6-4-8(6)5-7/h6-7,9H,1-5H2	InChI=1S/C7H13NO/c9-7-3-1-2-6-4-8(6)5-7/h6-7,9H,1-5H2/t6-,7-,8?/m0/s1
