16
gdb 24096	6.82077	0.72877	0.68166	7.2667	75.87	-0.2356	0.0188	0.2545	1557.8934	0.126662	-396.989645	-396.981493	-396.980549	-397.023614	29.239	
N	-0.0533716796	-1.1617509595	-0.1162895028	-0.310928
C	-0.0427778813	-0.0075252489	-0.0564054814	 0.253447
C	-0.0039420986	 1.4499924035	 0.0245873195	-0.327222
C	 1.4392788683	 2.0071731481	 0.0297528688	-0.31498
C	 1.4408872739	 3.5030937772	 0.0528984846	 0.296169
C	 2.0536366775	 4.3511711418	 0.939204289	-0.197432
N	 1.7472648277	 5.6223547175	 0.5038990959	-0.22987
C	 0.9702005369	 5.4914125028	-0.6064600528	 0.015614
N	 0.7655088362	 4.2306257181	-0.9064927553	-0.305807
H	-0.546767824	 1.875689424	-0.8249884765	 0.17574
H	-0.5328928887	 1.7670559205	 0.9300284315	 0.148125
H	 1.9855698567	 1.615799558	 0.8928223476	 0.120269
H	 1.9534792843	 1.6425877494	-0.8666808641	 0.13562
H	 2.6646748686	 4.1767169521	 1.8091442496	 0.134491
H	 2.043442709	 6.484350657	 0.9299606868	 0.271138
H	 0.5877597531	 6.3438988283	-1.1477189504	 0.135626
54.4216	70.0725	102.5093	197.415	312.0115	374.4021	407.3216	513.3414	529.1059	658.9106	694.5277	732.2746	757.2769	777.5668	825.4148	948.9648	953.6706	977.7084	1022.3834	1024.991	1096.7929	1133.2067	1178.1618	1245.7814	1281.2038	1291.6783	1312.9463	1353.1123	1380.7813	1456.5128	1468.7594	1485.4076	1529.5248	1602.5049	2360.3877	3041.8218	3056.4412	3086.7237	3107.0411	3253.1922	3274.7923	3667.3339
N#CCCC1=CNC=N1	N#CCCc1c[nH]cn1	
InChI=1S/C6H7N3/c7-3-1-2-6-4-8-5-9-6/h4-5H,1-2H2,(H,8,9)	InChI=1S/C6H7N3/c7-3-1-2-6-4-8-5-9-6/h4-5H,1-2H2,(H,8,9)
