19
gdb 84861	2.21469	1.62201	1.19998	3.5958	84.02	-0.2308	-0.0449	0.1859	1113.69	0.15992	-385.919096	-385.910497	-385.909553	-385.952946	32.203	
C	 0.2340496306	 1.5183608843	-0.1864140762	-0.399457
C	-0.0578769477	 0.0183941276	 0.0610114725	-0.125613
C	 0.3865527241	-0.8325743335	-1.1048117191	-0.091764
C	 1.6155219362	-1.2275908729	-1.4296350165	-0.046896
C	 2.917498711	-0.9767578181	-0.7194595797	-0.317658
C	 2.9474046879	-0.7327493637	 0.758496882	-0.033316
C	 1.9615780948	-0.5294534943	 1.6395950901	-0.143529
C	 0.5018304994	-0.3986850775	 1.4230192355	 0.350157
O	-0.2524744104	-0.5377419219	 2.3670891733	-0.331797
H	 1.3087922292	 1.7045613422	-0.2636538566	 0.124517
H	-0.2341179408	 1.8443515166	-1.1198181199	 0.121844
H	-0.1651000811	 2.1274516995	 0.6305323216	 0.129606
H	-1.139721661	-0.093587197	 0.1764015617	 0.099147
H	-0.4173281088	-1.1189674256	-1.7794915147	 0.096201
H	 1.7279688589	-1.7950748344	-2.3513058651	 0.092983
H	 3.5798196619	-1.8349040153	-0.9056878785	 0.128013
H	 3.4451333555	-0.143005156	-1.215794096	 0.135837
H	 3.956569077	-0.7750284184	 1.1677325963	 0.105475
H	 2.2191936133	-0.4618872216	 2.6936804893	 0.106249
46.8698	69.6083	206.6441	233.9913	242.3683	331.1531	374.0111	406.2276	446.7495	510.1652	642.3057	662.3324	719.194	776.2595	816.9372	847.0545	867.386	900.8312	960.0617	997.6238	1007.4706	1021.7531	1038.0969	1082.0473	1113.7616	1209.9227	1226.5724	1262.4135	1300.806	1323.4694	1359.8774	1396.3032	1402.193	1421.5121	1433.5424	1444.4619	1493.0214	1498.557	1707.4087	1739.7077	1759.1712	2961.5268	3010.3203	3039.0297	3066.5806	3112.4966	3120.3104	3127.4239	3134.3398	3158.1767	3166.6228
CC1C=CCC=CC1=O	C[C@H]1C=CCC=CC1=O	
InChI=1S/C8H10O/c1-7-5-3-2-4-6-8(7)9/h3-7H,2H2,1H3	InChI=1S/C8H10O/c1-7-5-3-2-4-6-8(7)9/h3-7H,2H2,1H3/t7-/m0/s1
