18
gdb 61952	6.43443	0.58828	0.55852	4.1849	79.33	-0.2684	0.0241	0.2925	1888.7296	0.144779	-401.92976	-401.919506	-401.918562	-401.965868	36.199	
O	-0.1431993143	 1.3903094888	 0.0101975053	-0.414944
C	-0.0178329664	-0.0203325537	 0.0079945595	 0.125773
C	 0.6723927473	-0.5420778805	-1.257005861	-0.203991
C	-0.0622128123	-0.1065852088	-2.5400959238	-0.360207
C	 0.6210933577	-0.5389963195	-3.7518871571	 0.288112
C	 1.2073040778	-0.9072130042	-4.7344095043	-0.431642
C	 0.7101300115	-0.5254105774	 1.2755431841	-0.376802
C	 0.0663579057	-0.0878855082	 2.5114855403	 0.272505
N	-0.4445888376	 0.2468668609	 3.4918465908	-0.299996
H	 0.7400383254	 1.7771579281	-0.0153295913	 0.285518
H	-1.0504360277	-0.3872765855	 0.0370083527	 0.114675
H	 1.7061501507	-0.1719645987	-1.2873281629	 0.10587
H	 0.7343468597	-1.6355102302	-1.2220794908	 0.116717
H	-1.0832402102	-0.5100221853	-2.5283818443	 0.134649
H	-0.1689966125	 0.9837501633	-2.533650372	 0.146349
H	 1.712157689	-1.2253143967	-5.6126615875	 0.19718
H	 0.755671829	-1.6202732563	 1.2692242494	 0.156044
H	 1.7478995772	-0.1674723261	 1.271236133	 0.14419
45.2747	73.5837	93.0826	124.0928	154.5044	254.165	307.0194	310.3079	344.8122	395.6866	408.4426	449.5872	515.8907	615.5307	621.7695	644.7889	772.3638	861.734	923.6337	931.7791	970.3857	1026.9092	1048.0104	1077.2596	1118.7808	1169.5306	1198.7399	1259.3824	1294.5641	1316.2296	1357.7836	1367.0175	1388.8517	1422.8305	1458.866	1474.7727	1490.2278	2240.8245	2367.4208	3018.1465	3028.7697	3030.6635	3053.0634	3063.1992	3077.4306	3086.9036	3506.8304	3788.9956
OC(CCC#C)CC#N	O[C@@H](CCC#C)CC#N	
InChI=1S/C7H9NO/c1-2-3-4-7(9)5-6-8/h1,7,9H,3-5H2	InChI=1S/C7H9NO/c1-2-3-4-7(9)5-6-8/h1,7,9H,3-5H2/t7-/m0/s1
