18
gdb 106532	2.29559	1.56905	1.13408	2.2157	73.01	-0.2492	-0.0014	0.2478	1119.9234	0.147098	-439.027524	-439.018791	-439.017847	-439.061003	32.524	
C	-0.1165876995	 1.5727453031	-0.0932369218	-0.436668
C	-0.0484465376	 0.0573737603	 0.016618358	-0.009744
C	 1.1830244547	-0.6815449843	-0.606019215	-0.163783
N	 2.0013448953	-0.1186416289	 0.5567986623	-0.335868
C	 0.7042769371	-0.5836329113	 1.2325217819	 0.178412
C	 0.4855482477	-0.5198493722	 2.7151279858	-0.214312
O	 1.3915662727	-1.3757173752	 3.3940728675	-0.418324
C	 0.8825451133	-1.842555094	 0.3582849783	 0.405311
O	 0.9750857007	-3.0298756215	 0.4729858264	-0.351459
H	 0.8473553368	 2.0306790733	 0.1315564983	 0.147733
H	-0.4154137112	 1.8655900355	-1.1050155606	 0.12102
H	-0.8651869773	 1.9738713707	 0.5979993594	 0.120179
H	-1.0101150076	-0.4126338844	-0.2078729255	 0.086914
H	 1.5506188064	-0.6577013327	-1.6299632331	 0.101831
H	 2.7816606813	-0.7331843484	 0.8037558703	 0.237284
H	 0.6703474059	 0.4909151961	 3.0926000669	 0.128185
H	-0.5645374475	-0.7706668712	 2.9344102743	 0.102352
H	 1.2350546387	-2.2732037749	 3.0770510265	 0.300936
79.9973	125.0392	160.1681	211.1888	223.1713	257.6604	338.4198	399.1345	441.6889	519.4943	546.1234	686.3842	723.8456	761.5109	784.9509	812.004	891.9979	912.7628	998.6042	1011.6737	1053.8093	1062.5018	1087.0776	1106.6112	1153.5424	1175.9088	1200.5218	1226.8441	1237.4283	1262.0834	1335.4639	1381.2904	1399.3251	1409.5621	1433.3876	1492.1045	1494.4697	1504.571	1881.5045	2983.2122	3041.1339	3073.8535	3079.6564	3097.6043	3146.1641	3147.311	3421.7569	3794.2404
CC1C2NC1(CO)C2=O	C[C@H]1[C@H]2N[C@]1(CO)C2=O	
InChI=1S/C6H9NO2/c1-3-4-5(9)6(3,2-8)7-4/h3-4,7-8H,2H2,1H3	InChI=1S/C6H9NO2/c1-3-4-5(9)6(3,2-8)7-4/h3-4,7-8H,2H2,1H3/t3-,4+,6-/m0/s1
