20
gdb 83309	2.48073	1.51095	1.27662	2.1239	77.94	-0.231	-0.0237	0.2073	1083.9696	0.171195	-403.139953	-403.131341	-403.130396	-403.173352	32.346	
C	 0.1771582479	 1.5486197838	 0.2038816444	-0.431188
C	 0.0135399025	 0.043535697	 0.2085829323	 0.011638
C	 0.2927436325	-0.8541828816	-0.9441084017	-0.040795
C	 1.1471215612	-0.3530995343	-2.1042491488	-0.236429
C	 2.4909742733	 0.0872977308	-1.4733668321	-0.253687
C	 2.4677277945	-0.5138949057	-0.0487198366	-0.047781
C	 3.0411774399	 0.3719787121	 1.0416436361	 0.150672
O	 3.7329923147	 1.3387291119	 0.8474172144	-0.246616
N	 1.1013424944	-0.9640733155	 0.2899970751	-0.138531
H	 0.882682981	 1.9193890037	-0.5396580994	 0.133442
H	-0.7950502651	 2.0076884542	-0.006433099	 0.124657
H	 0.5002878309	 1.9134725284	 1.1848060311	 0.13243
H	-0.8116902092	-0.2684703686	 0.8477642012	 0.09375
H	-0.3832088949	-1.6814001712	-1.1473670465	 0.088878
H	 1.2982165083	-1.1722467101	-2.8137070137	 0.109502
H	 0.665144641	 0.4593873512	-2.6576140613	 0.110238
H	 3.347151705	-0.2783753669	-2.0447596272	 0.109156
H	 2.5976896275	 1.1725163085	-1.4198766132	 0.130719
H	 3.0832588948	-1.4271194073	-0.0184372088	 0.108704
H	 2.7798854596	 0.0398699598	 2.0707868037	 0.091243
79.6474	118.8933	161.2908	185.8672	200.9059	279.9831	317.5855	453.009	510.1668	594.1302	674.8329	697.9432	740.6778	756.0773	822.9656	835.2541	911.9799	942.2194	973.9647	990.1174	1031.2098	1045.5542	1087.3128	1118.4326	1131.0163	1146.1393	1164.6926	1184.2158	1237.4317	1275.6609	1295.6662	1310.8159	1329.3896	1346.4149	1375.8827	1409.5298	1420.013	1435.4907	1484.1984	1498.1757	1502.7602	1519.2896	1827.7684	2891.5773	2979.7118	3040.7346	3049.7169	3077.4971	3082.7201	3092.1822	3104.3776	3118.2589	3132.5425	3151.8748
CC1C2CCC(C=O)N12	C[C@H]1[C@H]2CC[C@@H](C=O)N12	
InChI=1S/C7H11NO/c1-5-7-3-2-6(4-9)8(5)7/h4-7H,2-3H2,1H3	InChI=1S/C7H11NO/c1-5-7-3-2-6(4-9)8(5)7/h4-7H,2-3H2,1H3/t5-,6-,7+,8?/m0/s1
