21
gdb 36926	4.4482	0.92376	0.8152	0.9871	85.53	-0.2338	0.0216	0.2554	1461.4636	0.182939	-387.076239	-387.067603	-387.066659	-387.11059	32.734	
C	-0.4003380756	 1.2158055056	-0.058161339	-0.285878
C	 1.0839760839	 1.0335602737	 0.1958803327	-0.294989
C	 0.2207868462	-0.1609794733	-0.0454784183	 0.147877
O	 0.0229838238	-1.0083028302	 1.0409371298	-0.261675
C	-1.0741958463	-1.9121211168	 0.8983070631	 0.108155
C	-0.95383538	-3.0017369404	 1.9864830488	-0.243524
C	-2.3897757953	-3.24457409	 2.5127625453	-0.256649
C	-3.1432409193	-2.030398775	 2.0251621599	-0.061898
C	-2.4394843738	-1.3104244111	 1.1544858543	-0.08649
H	-1.0117517081	 1.4840100754	 0.7956667947	 0.119858
H	-0.7232537918	 1.6367650724	-1.0044727258	 0.108755
H	 1.7900513487	 1.3281822292	-0.5721360625	 0.11223
H	 1.4304750097	 1.1767602781	 1.2129635883	 0.12526
H	 0.3173758914	-0.6784146468	-1.0016284081	 0.080346
H	-1.0297125121	-2.3415630651	-0.1171932718	 0.065467
H	-0.4702589501	-3.909749391	 1.6200581912	 0.098426
H	-0.3232595509	-2.5874968838	 2.7781704829	 0.121783
H	-2.8253170796	-4.1625788356	 2.0950161616	 0.107544
H	-2.4291370423	-3.3590209964	 3.6021437736	 0.105057
H	-4.1582354993	-1.8116232393	 2.3406879191	 0.092638
H	-2.7841358193	-0.4203864894	 0.6423960002	 0.097705
48.5439	70.1758	101.7869	181.3496	281.1974	333.0844	374.4255	449.8172	541.2363	635.8316	751.889	759.7984	778.9784	811.5392	828.7498	856.6929	891.6937	925.2478	965.7728	972.4683	979.8603	1006.9505	1029.7546	1049.3937	1069.8442	1077.0183	1092.4582	1126.4305	1138.5981	1180.9496	1195.2709	1208.7821	1234.2634	1243.9905	1290.0273	1306.7945	1332.918	1348.1563	1382.3716	1419.5885	1453.3028	1481.0421	1497.3417	1500.5266	1686.2373	2948.1585	3015.343	3051.3854	3069.3231	3083.2431	3115.7502	3133.5079	3141.4532	3180.6072	3215.693	3220.1269	3234.3909
C1CC1OC1CCC=C1	C1CC1O[C@H]1CCC=C1	
InChI=1S/C8H12O/c1-2-4-7(3-1)9-8-5-6-8/h1,3,7-8H,2,4-6H2	InChI=1S/C8H12O/c1-2-4-7(3-1)9-8-5-6-8/h1,3,7-8H,2,4-6H2/t7-/m1/s1
