23
gdb 122309	4.73773	0.70269	0.67439	0.7905	87.32	-0.2461	0.0886	0.3347	1773.5261	0.205335	-388.253104	-388.243436	-388.242491	-388.288388	35.648	
C	 0.0651114339	 1.3715844323	 0.1993399706	-0.227715
O	 0.0369407684	-0.013288154	-0.0391793843	-0.228215
C	-1.2575447489	-0.5645296825	 0.0696514443	-0.043123
C	-1.1731513077	-2.0625854273	-0.210789844	-0.333905
C	-2.5137979082	-2.7401990528	-0.1430679583	 0.391548
C	-3.1406856108	-3.1904710818	 1.151803454	-0.317892
C	-2.8667692045	-4.2148408137	 0.0836639644	-0.114618
C	-3.9559944741	-4.1486824761	-0.9917294104	-0.218382
C	-3.6089781907	-2.6408192154	-1.2213616796	-0.285955
H	 1.1014587195	 1.702632132	 0.0944105859	 0.124622
H	-0.5586623756	 1.9253486719	-0.521165762	 0.100888
H	-0.2857849819	 1.6212493874	 1.2139154605	 0.10096
H	-1.6697488566	-0.388545682	 1.0782641855	 0.086205
H	-1.9431945073	-0.0769461864	-0.6456688356	 0.084749
H	-0.7227441715	-2.2039996381	-1.2014785874	 0.102305
H	-0.4860172139	-2.5138004153	 0.5149348846	 0.103139
H	-2.4683636993	-3.2188115265	 2.0041711565	 0.107001
H	-4.1646417411	-2.9188001334	 1.4024975498	 0.098722
H	-2.2015926496	-5.0524858564	 0.2602100596	 0.082117
H	-3.7357307179	-4.7602926146	-1.8694536646	 0.101899
H	-4.973512314	-4.3770868456	-0.6566320581	 0.09377
H	-4.4066358121	-1.9132504459	-1.0367303194	 0.091121
H	-3.2015712961	-2.4603465559	-2.2199034718	 0.100756
58.3557	87.9159	100.0464	123.1342	219.8673	236.277	287.6693	323.2819	350.6038	432.1355	472.482	676.6274	732.0971	785.7584	802.4394	843.4562	886.992	931.6321	953.7857	971.5166	994.5491	1000.6544	1021.3418	1048.0387	1065.484	1087.3951	1123.0791	1156.3795	1163.9838	1180.2307	1214.933	1220.6344	1229.7032	1242.749	1260.0188	1266.7294	1297.8019	1319.8767	1330.8672	1401.5718	1425.7757	1481.6401	1481.973	1484.504	1485.9619	1488.5913	1505.1893	1513.8516	1531.8652	2944.0833	2966.267	2972.0029	3006.0442	3024.5673	3037.4749	3046.2835	3067.8917	3087.7205	3096.7825	3108.3989	3110.0175	3171.9987	3190.6728
COCCC12CC1CC2	COCC[C@]12C[C@H]1CC2	
InChI=1S/C8H14O/c1-9-5-4-8-3-2-7(8)6-8/h7H,2-6H2,1H3	InChI=1S/C8H14O/c1-9-5-4-8-3-2-7(8)6-8/h7H,2-6H2,1H3/t7-,8-/m1/s1
