22
gdb 111311	2.30182	1.33403	1.12801	0.5408	81.88	-0.2278	0.0761	0.3039	1236.1223	0.192721	-404.307789	-404.298102	-404.297158	-404.341841	37.246	
C	 1.2563709043	 0.9223286229	 0.8913797805	-0.382669
C	 0.1419586564	 0.5375350513	-0.0887079154	-0.199539
C	 0.6690113099	-0.1941413637	-1.3174181952	-0.032239
C	 1.1522723191	-1.6440232214	-1.1485732264	-0.060368
N	-0.0456496744	-2.4434871552	-0.7840076545	-0.345866
C	 0.2315471414	-2.1306864181	-2.205316044	-0.081078
C	-0.3151472414	-0.719268756	-2.4585568694	 0.391913
C	-1.8104121387	-0.5035065238	-2.2946726457	-0.459208
O	 0.1295066241	-0.3276615806	-3.7497099442	-0.485907
H	 1.7883415782	 0.0355027957	 1.2526596836	 0.117337
H	 1.994332364	 1.5808786712	 0.4189790036	 0.109525
H	 0.8544810689	 1.4446907577	 1.765161897	 0.110557
H	-0.589570494	-0.0996791377	 0.4186011867	 0.11667
H	-0.3929085673	 1.4428212705	-0.4050228119	 0.085284
H	 1.4407314386	 0.3959821514	-1.8233612385	 0.070298
H	 2.1448407838	-1.9904101451	-0.8874554108	 0.088645
H	 0.2655506195	-3.400591261	-0.6230575988	 0.229529
H	 0.3581497655	-2.9073432934	-2.9496261602	 0.092958
H	-2.1607092205	-0.924267129	-1.3501006816	 0.14237
H	-2.0588332136	 0.5651918813	-2.307816206	 0.10155
H	-2.3462573283	-0.9859139496	-3.1183489855	 0.116525
H	-0.1275875855	 0.5911971625	-3.8823417935	 0.273716
77.2246	137.4599	160.5737	221.4253	239.2815	261.9307	276.1585	289.712	310.975	375.6496	487.2192	521.4229	562.4521	632.6147	756.8619	793.1882	832.6975	847.4327	889.4232	906.3551	937.1673	960.1297	967.358	1015.0419	1047.5282	1078.5943	1091.1861	1101.8464	1126.0881	1135.9676	1189.2119	1192.3128	1221.4305	1280.373	1286.7567	1296.4376	1348.3324	1373.3553	1383.8003	1401.6059	1406.8556	1410.7562	1482.5613	1490.3067	1499.3917	1500.9729	1505.9944	3019.3514	3026.8683	3027.9572	3050.8079	3073.9458	3091.5754	3098.2688	3100.8273	3134.4501	3180.3104	3196.0765	3478.813	3803.8751
CCC1C2NC2C1(C)O	CC[C@H]1[C@H]2N[C@H]2[C@]1(C)O	
InChI=1S/C7H13NO/c1-3-4-5-6(8-5)7(4,2)9/h4-6,8-9H,3H2,1-2H3	InChI=1S/C7H13NO/c1-3-4-5-6(8-5)7(4,2)9/h4-6,8-9H,3H2,1-2H3/t4-,5+,6+,7+/m0/s1
