17
gdb 41390	2.68894	2.05377	1.36512	2.7624	73.17	-0.226	0.0064	0.2325	937.9875	0.13879	-417.955562	-417.948718	-417.947773	-417.986747	27.215	
C	-0.0280603228	 1.5777147306	 0.1620174428	-0.081728
O	 1.3067921293	 1.6506726303	-0.3948342384	-0.31348
C	 1.3429993674	 0.2358254581	-0.5928770904	 0.371441
C	 2.2439528253	-0.2864431568	-1.7555894005	-0.272374
N	 3.1797927141	-0.830871243	-0.7048081757	-0.368105
C	 2.1842836716	-0.6699512158	 0.2565141826	 0.329598
N	 1.6883145572	-1.2806258495	 1.2507587673	-0.312207
C	 0.2909003129	-0.7684075983	 1.3566471001	-0.176798
C	-0.0549612159	 0.0399329169	 0.0491135949	-0.200124
H	-0.0724880544	 1.9809015747	 1.1797011069	 0.110631
H	-0.7456016783	 2.1096200166	-0.4730834268	 0.106492
H	 1.7892111423	-1.0589650858	-2.3836335823	 0.119777
H	 2.6852330877	 0.50407836	-2.3661551065	 0.132275
H	 3.643263264	-1.7246936911	-0.8188080486	 0.243504
H	-0.3680603818	-1.6342116833	 1.4747941315	 0.111718
H	 0.1642987137	-0.1480905168	 2.2528614306	 0.110544
H	-0.8801085824	-0.3902098269	-0.5178695575	 0.088835
112.2665	234.4154	255.1782	271.0112	376.9788	475.5372	584.203	618.8878	661.8453	734.9633	788.3861	838.5158	850.4099	874.5122	923.6751	938.3396	970.5729	1002.0302	1011.5318	1039.9079	1103.6281	1113.828	1162.6948	1166.552	1177.5176	1203.5925	1217.3327	1233.7489	1302.0129	1315.8697	1328.3568	1347.9778	1360.7686	1486.4483	1497.4616	1523.5803	1767.5549	3026.0433	3029.5782	3049.8037	3072.1111	3075.9337	3116.9819	3121.9249	3557.3407
C1OC23CNC2=NCC13	C1O[C@@]23CN[C]2[N]C[C@@H]13	
InChI=1S/C6H8N2O/c1-4-2-9-6(4)3-8-5(6)7-1/h4H,1-3H2,(H,7,8)	InChI=1S/C6H8N2O/c1-4-2-9-6(4)3-8-5(6)7-1/h4H,1-3H2,(H,7,8)/t4-,6+/m0/s1
