21
gdb 53416	2.87133	0.97811	0.77416	0.2601	94.52	-0.228	0.0308	0.2588	1547.2252	0.181616	-349.956986	-349.946924	-349.945979	-349.99387	35.891	
C	 0.0632561527	 1.5235987081	-0.0421280581	-0.498296
C	 0.0238015506	 0.0676950412	-0.0255209946	 0.052477
C	-0.0013246345	-1.1369278196	-0.0139758534	 0.078538
C	-0.0318445941	-2.596510329	 0.014141232	-0.250251
C	 0.6579250218	-3.2168887575	 1.2662503566	-0.212712
C	-0.1352536514	-4.5099982806	 1.5654954052	-0.26009
C	-1.4633224207	-4.2494034188	 0.898875402	-0.171365
C	-1.4342555259	-3.2136342223	 0.0597183847	 0.3429
C	-2.5374700613	-2.7022976205	-0.8086772538	-0.49341
H	 1.039433284	 1.8986873871	 0.2854619558	 0.146112
H	-0.1197258433	 1.91738298	-1.0482654866	 0.145065
H	-0.6943044404	 1.9526981516	 0.6232195668	 0.145279
H	 0.4665906224	-2.9606923996	-0.8995187088	 0.098572
H	 1.7262930747	-3.3840414012	 1.1105786373	 0.099399
H	 0.5502154124	-2.517129922	 2.0994276211	 0.11344
H	 0.3509533721	-5.3965663014	 1.1326336046	 0.102551
H	-0.2220877679	-4.7043711917	 2.6405719276	 0.101282
H	-2.332473837	-4.8793380465	 1.060004312	 0.083688
H	-3.4654333888	-3.2568799268	-0.6458159678	 0.118512
H	-2.7252705355	-1.6396407081	-0.617848814	 0.135751
H	-2.2739046699	-2.7834084124	-1.8716273787	 0.122557
13.8992	72.6636	84.2768	157.9362	182.1804	242.7365	255.1339	300.0447	340.2563	425.8546	454.6881	530.815	577.388	655.9177	772.4448	831.488	864.6421	891.4789	929.3661	946.8872	1002.0363	1036.603	1052.7368	1054.1355	1058.0606	1075.6898	1152.9395	1170.2673	1200.0796	1234.6434	1264.2803	1294.8559	1310.6532	1330.4771	1355.7824	1412.9949	1415.1596	1476.0287	1479.1111	1479.9438	1485.5038	1489.5806	1501.7993	1725.615	2366.3448	2959.9521	3000.2785	3018.8697	3024.4366	3049.198	3066.7844	3071.33	3083.6871	3084.268	3112.2152	3113.3607	3180.5257
CC#CC1CCC=C1C	CC#C[C@H]1CCC=C1C	
InChI=1S/C9H12/c1-3-5-9-7-4-6-8(9)2/h6,9H,4,7H2,1-2H3	InChI=1S/C9H12/c1-3-5-9-7-4-6-8(9)2/h6,9H,4,7H2,1-2H3/t9-/m0/s1
