17
gdb 55791	2.65337	0.90864	0.83042	2.3833	71.75	-0.1825	0.0419	0.2244	1430.9132	0.13476	-455.204167	-455.194151	-455.193207	-455.242235	33.526	
O	 0.088195889	 0.0731266204	-1.2954658104	-0.309806
C	 0.601041009	 0.516345228	-0.3470489353	 0.581256
O	 1.1575880303	 0.9258439353	 0.5860816305	-0.287702
C	-1.9300839103	 2.3960872814	 0.0877898006	-0.504195
C	-2.7912345271	 1.3642163031	 0.04175946	 0.417303
N	-3.0747309862	 0.5679391059	-1.0726161899	-0.340414
H	-2.282266256	 0.3713202231	-1.6626910202	 0.254692
C	-3.9071544228	-0.5709547309	-0.6743601509	-0.1512
C	-3.8887082555	-0.5136311873	 0.8660380399	-0.172161
N	-3.5997648429	 0.9020129216	 1.0846510723	-0.332928
H	-1.7706421694	 2.9461536469	 1.0048522278	 0.08512
H	-1.457476238	 2.7592373193	-0.8143608024	 0.089273
H	-4.929016494	-0.4508547199	-1.0549182888	 0.114527
H	-3.5137300659	-1.5154087604	-1.0594344191	 0.110258
H	-4.846443772	-0.7989447318	 1.309740633	 0.110847
H	-3.1070679988	-1.1741704467	 1.2750134089	 0.094004
H	-3.3163157593	 1.1816365522	 2.011279384	 0.241126
22.9329	35.0402	65.8203	85.0875	112.5243	174.1463	199.0758	388.9396	440.1505	524.6373	643.066	662.3394	680.8254	689.7598	699.3574	708.5263	742.6411	908.3241	936.2435	938.6201	963.9481	1059.1081	1095.5448	1143.5741	1223.7975	1238.6481	1294.1578	1337.8586	1373.4831	1396.3318	1398.7847	1433.9637	1478.0867	1517.7458	1528.5496	1715.5993	2428.556	2966.4532	3022.5198	3081.1913	3089.6928	3178.0314	3265.1728	3621.7384	3642.3798
[O-]C(=O)CC1=[NH+]CCN1	O=C=O.C=C1NCCN1	
InChI=1S/C5H8N2O2/c8-5(9)3-4-6-1-2-7-4/h1-3H2,(H,6,7)(H,8,9)	InChI=1S/C4H8N2.CO2/c1-4-5-2-3-6-4;2-1-3/h5-6H,1-3H2;
