19
gdb 69687	3.1321	1.21224	1.15359	3.116	80.35	-0.2162	-0.0244	0.1917	1161.2101	0.157607	-385.82206	-385.813674	-385.81273	-385.855462	32.261	
C	 0.2320431057	 1.444442572	 0.4727383857	-0.494411
C	 0.1312935177	-0.0428118895	 0.2993519871	 0.367246
C	-0.7865159174	-0.9245486219	 1.0912566507	-0.3656
C	 0.7017026436	-1.1775637459	 1.1436983417	-0.109024
C	 1.3063990769	-1.8391894436	-0.126468821	-0.097731
C	 0.3273835456	-2.1905221585	-1.2069177872	-0.112428
C	-0.993318437	-2.9058537063	-1.0949917876	 0.103857
O	-1.8404580433	-2.8713108336	-1.9519727386	-0.256808
C	 0.6925447354	-0.7332379658	-0.9764114838	-0.132888
H	 1.2328105309	 1.8112496028	 0.2160199505	 0.118863
H	-0.4872020911	 1.9683733255	-0.1690533704	 0.125399
H	 0.0257190948	 1.7324415542	 1.5083697599	 0.119261
H	-1.1727532252	-0.4581231217	 1.9943036458	 0.114565
H	-1.502100007	-1.5984210449	 0.6338071889	 0.123572
H	 1.2531051881	-1.111186434	 2.0730563521	 0.091766
H	 2.3287179046	-2.1957904132	-0.1436517643	 0.093427
H	 0.8302732825	-2.5341615622	-2.1121729665	 0.123596
H	-1.1169346301	-3.5421577012	-0.1905992854	 0.091169
H	 1.1592714252	-0.1617504021	-1.7693405376	 0.096167
43.5936	114.599	210.4425	231.3805	287.6762	292.6708	392.4132	415.6205	546.501	575.5819	641.8885	694.5307	754.5366	786.3761	827.5137	873.1941	893.9624	928.4461	954.1065	974.7802	997.2818	1005.153	1039.1702	1045.2443	1062.1035	1083.0581	1102.716	1125.7627	1195.6927	1220.036	1256.3269	1290.8647	1323.1031	1369.8426	1408.87	1420.095	1434.5861	1483.4236	1499.0492	1509.3405	1809.8859	2877.3434	3018.2025	3074.662	3098.9783	3106.4369	3122.6617	3179.4387	3187.0934	3193.9485	3201.3516
CC12CC1C1C(C=O)C21	C[C@]12C[C@H]1[C@H]1[C@@H](C=O)[C@@H]21	
InChI=1S/C8H10O/c1-8-2-5(8)6-4(3-9)7(6)8/h3-7H,2H2,1H3	InChI=1S/C8H10O/c1-8-2-5(8)6-4(3-9)7(6)8/h3-7H,2H2,1H3/t4-,5+,6-,7-,8+/m1/s1
