17
gdb 10025	3.25254	1.08464	0.8487	4.0866	77.56	-0.265	0.022	0.287	1369.9595	0.139994	-326.723394	-326.713627	-326.712683	-326.75972	32.759	
C	-0.0001324172	 1.5509457887	 0.1067483547	-0.401667
C	 0.0588413749	 0.0245987396	 0.0529589729	-0.170023
C	 0.6675040539	-0.5200243966	-1.2718053743	-0.31793
C	 2.0510606631	-0.0416292397	-1.4455051026	 0.296207
N	 3.1293447823	 0.3546323316	-1.5681793282	-0.331792
C	 0.6106367149	-1.9807256194	-1.3450115346	 0.047013
C	 0.544700775	-3.1810922831	-1.3824053692	 0.128524
C	 0.4753186716	-4.6336947345	-1.4372246527	-0.500111
H	 0.9982715977	 1.991604041	 0.0299110617	 0.147223
H	-0.6108061995	 1.954940815	-0.7082348949	 0.119772
H	-0.4427060003	 1.8823925203	 1.0501828958	 0.123246
H	 0.6458691301	-0.3707984611	 0.8875173509	 0.127087
H	-0.9442634266	-0.4045877498	 0.1372105944	 0.118014
H	 0.0862885245	-0.09760307	-2.1044464341	 0.149084
H	 1.4724077849	-5.0687845953	-1.5634078453	 0.158768
H	 0.0456852536	-5.0453260763	-0.5177085124	 0.153093
H	-0.1441383631	-4.9698646505	-2.275533452	 0.153494
18.0247	80.9386	90.0068	121.2387	170.8629	243.691	275.2896	287.013	341.7343	392.7686	471.9144	542.5903	567.593	753.5707	814.0864	877.2151	941.4592	1043.7504	1052.4636	1053.0911	1102.3819	1108.9287	1182.6704	1261.6709	1294.3354	1338.1578	1363.9133	1414.1726	1417.1602	1476.517	1476.8332	1487.4272	1498.4153	1506.2306	2359.9501	2380.8405	3004.3303	3031.4578	3037.5877	3055.3291	3091.2666	3094.1316	3095.7242	3111.4178	3120.2122
CCC(C#N)C#CC	CC[C@@H](C#N)C#CC	
InChI=1S/C7H9N/c1-3-5-7(4-2)6-8/h7H,4H2,1-2H3	InChI=1S/C7H9N/c1-3-5-7(4-2)6-8/h7H,4H2,1-2H3/t7-/m1/s1
