16
gdb 50460	4.50742	1.04257	0.87095	2.7538	77.86	-0.2463	-0.062	0.1842	1252.6843	0.125948	-437.95077	-437.9431	-437.942156	-437.983253	28.648	
O	-0.1060626741	-0.0524318839	 0.2579533242	-0.304663
C	-0.0499620973	 1.1491967623	 0.1622628709	 0.15697
N	 1.1010497652	 1.8651950852	-0.1200065546	-0.084252
C	 1.1058671449	 3.3305505557	-0.1265451522	-0.194358
C	 2.0591028537	 3.8610775808	-1.1954203445	-0.324305
C	 3.4523534555	 3.2351867907	-1.0658028011	 0.375244
O	 4.4579264365	 3.8368585892	-1.3852746862	-0.333037
C	 3.4514716759	 1.8418313884	-0.6096360968	-0.26015
C	 2.3151263465	 1.2145673126	-0.2439725655	 0.058573
H	-0.9227944514	 1.8160600497	 0.285311473	 0.094257
H	 0.083080269	 3.6800630908	-0.2899659599	 0.12886
H	 1.4292522859	 3.6849896503	 0.8621044815	 0.132923
H	 1.6794416196	 3.6164960326	-2.1961961792	 0.136147
H	 2.1482361116	 4.9474156536	-1.1316369256	 0.135838
H	 4.3884221995	 1.2998674195	-0.6394951423	 0.118155
H	 2.261262579	 0.1576114927	-0.0101610217	 0.163799
76.7574	150.1486	224.3506	277.7316	285.5206	388.7976	392.7231	462.0462	518.4526	618.8238	654.5284	753.483	769.1878	840.8091	863.7315	979.787	998.9119	1010.402	1026.3266	1063.5542	1116.2904	1199.225	1201.6349	1251.7301	1318.9775	1338.2672	1358.4644	1394.6963	1429.0903	1451.1413	1460.9782	1499.3422	1658.8454	1777.5679	1808.7629	2970.2364	3011.9125	3035.7103	3094.0674	3120.0795	3208.3767	3223.2911
O=CN1CCC(=O)C=C1	O=CN1CCC(=O)C=C1	
InChI=1S/C6H7NO2/c8-5-7-3-1-6(9)2-4-7/h1,3,5H,2,4H2	InChI=1S/C6H7NO2/c8-5-7-3-1-6(9)2-4-7/h1,3,5H,2,4H2
