17
gdb 19417	4.10094	2.0019	1.62767	1.4807	74.22	-0.2226	0.0149	0.2376	828.51	0.144224	-326.69004	-326.683606	-326.682662	-326.720275	26.411	
C	-0.0029803822	 1.5218762995	-0.0209478713	-0.29976
C	 1.3003898992	 0.7737414983	-0.0031452664	-0.323415
C	-0.0094551191	 0.0093082397	-0.0009646839	 0.398065
C	-0.4653904197	-0.7737009157	 1.1833224759	-0.158156
C	-1.0283003341	-1.9334830479	 0.8269426105	-0.070057
C	-1.0729930893	-2.052065209	-0.6611171692	-0.091638
N	-1.9102409135	-0.9886329515	-1.2976334162	-0.33886
C	-0.4432017034	-0.8109455829	-1.191722136	-0.159953
H	-0.3122942941	 2.0383587165	 0.8814606374	 0.115205
H	-0.3111585543	 2.0084808036	-0.9398120637	 0.118327
H	 1.8900576887	 0.7463520112	-0.9143712841	 0.112072
H	 1.8887282308	 0.7761683019	 0.9083094087	 0.113207
H	-0.3621003127	-0.4019850222	 2.197032495	 0.094994
H	-1.4382255978	-2.6751385368	 1.5009028774	 0.096587
H	-0.9936548784	-3.0139598889	-1.1564235252	 0.086405
H	-2.1192534205	-1.28004353	-2.2520507351	 0.223522
H	 0.1519159805	-0.8003185957	-2.0994504539	 0.083455
145.8526	230.1724	286.7874	390.9828	435.0186	520.0746	617.4851	740.1392	763.1706	773.4282	806.0196	843.0267	853.6829	904.4475	918.2017	922.8643	939.4255	955.8866	970.6726	996.9697	1058.623	1070.5175	1077.8044	1105.1963	1142.3413	1162.2383	1189.1008	1247.4609	1279.8301	1296.5794	1350.4702	1394.3498	1425.757	1465.1001	1498.2664	1651.3385	3123.982	3132.9643	3154.1189	3167.7798	3187.0468	3205.0332	3217.4831	3222.1552	3467.129
C1CC11C=CC2NC12	C1CC21C=C[C@H]1N[C@@H]21	
InChI=1S/C7H9N/c1-2-7(3-4-7)6-5(1)8-6/h1-2,5-6,8H,3-4H2	InChI=1S/C7H9N/c1-2-7(3-4-7)6-5(1)8-6/h1-2,5-6,8H,3-4H2/t5-,6-/m1/s1
