19
gdb 117312	3.97061	0.82307	0.76334	2.3881	74.17	-0.2295	-0.0092	0.2203	1554.1761	0.156919	-456.37068	-456.360252	-456.359308	-456.407625	35.831	
C	-0.8877104405	 0.8302968904	-0.7988809193	-0.319095
N	-0.1998380262	 0.2612771452	 0.358365506	-0.25945
C	-0.9561918756	-0.7617856309	 1.0425519776	-0.286106
C	-1.0794820937	-2.083017697	 0.2857015116	 0.437095
O	-0.4328715821	-2.3903520964	-0.6810175672	-0.357255
O	-1.9928766541	-2.8907851933	 0.8870104573	-0.236524
C	-2.2049438949	-4.1811158768	 0.3793730827	 0.384608
C	-2.8820495902	-4.2020312172	-0.9611018087	-0.477006
N	-1.8745264149	-5.1279277414	 1.1376137729	-0.433284
H	-0.2368998228	 1.5698623123	-1.2734529931	 0.123296
H	-1.1811805853	 0.091737142	-1.5612109753	 0.110406
H	-1.7901394181	 1.3525334213	-0.4609444595	 0.119603
H	 0.6847139841	-0.1351236748	 0.0574555195	 0.23019
H	-0.4881403541	-0.9995792658	 2.0070734576	 0.144021
H	-1.9618128226	-0.396686749	 1.2780642596	 0.135047
H	-2.2232241529	-3.7576130217	-1.7110733116	 0.175492
H	-3.12825082	-5.2241343472	-1.2545238382	 0.130352
H	-3.8010402643	-3.607915964	-0.9253600566	 0.14636
H	-2.1247124119	-6.0226002057	 0.7168066946	 0.232252
39.7905	53.3471	77.2764	132.1962	145.4777	173.3777	213.7702	285.6518	311.401	406.4825	466.515	511.4549	545.6078	595.9189	697.6961	770.7345	828.4354	887.1228	950.9833	957.3838	999.0752	1012.1676	1067.0006	1079.1035	1147.3073	1153.4238	1184.1047	1210.3105	1309.2279	1319.5952	1368.4832	1401.8904	1443.6877	1461.5095	1469.9839	1488.4133	1489.729	1503.0157	1526.7205	1768.3804	1823.9948	2983.4457	3029.9853	3049.2551	3061.682	3081.1841	3107.6093	3121.8818	3145.5282	3493.5349	3527.4343
CNCC(=O)OC(C)=N	CNCC(=O)O[C](C)[NH]	
InChI=1S/C5H10N2O2/c1-4(6)9-5(8)3-7-2/h6-7H,3H2,1-2H3	InChI=1S/C5H10N2O2/c1-4(6)9-5(8)3-7-2/h6-7H,3H2,1-2H3
