20
gdb 121064	3.6821	0.86902	0.84351	2.8157	77.21	-0.2539	0.0315	0.2854	1465.1368	0.171456	-440.297379	-440.288252	-440.287308	-440.332115	32.958	
C	-0.2520585954	 1.3105778796	-0.4841157586	-0.23187
O	-0.0599153271	-0.0543734545	-0.1931249108	-0.235232
C	 0.7122181626	-0.7240699879	-1.1643757887	-0.061034
C	 0.8069387567	-2.1972529954	-0.7728885193	-0.045573
C	-0.5712702227	-2.8799202208	-0.7900230606	-0.090348
O	-0.74471128	-3.3725004032	-2.1308440412	-0.239363
C	 0.4648933609	-3.5048050626	-2.753366712	 0.417637
N	 0.6289034729	-3.9565266647	-3.9207817769	-0.544389
C	 1.5627680544	-3.0215881162	-1.8270577742	-0.325461
H	 0.7034809085	 1.856044963	-0.5295195272	 0.107171
H	-0.7743227778	 1.4532478838	-1.443000895	 0.109309
H	-0.8619560789	 1.7331010782	 0.3178072431	 0.129907
H	 0.2522218088	-0.6216562738	-2.1628903348	 0.100119
H	 1.7228723083	-0.2865915454	-1.2264980425	 0.091377
H	 1.2602082606	-2.2619793463	 0.21927321	 0.090713
H	-0.6157944573	-3.7248035023	-0.0921832177	 0.107741
H	-1.3879949526	-2.1910105239	-0.5692716086	 0.132919
H	-0.2683182507	-4.2299580458	-4.3258850365	 0.2203
H	 2.3234820762	-2.4670580906	-2.3796539364	 0.133843
H	 2.0545862426	-3.8884916713	-1.3732210221	 0.132234
58.7281	90.8967	111.9097	166.7651	186.7828	237.5678	321.5543	371.2801	437.3453	485.451	528.8345	682.2745	734.6381	840.5068	869.4807	895.5209	906.8462	947.8253	983.5223	1004.2496	1025.1268	1076.4174	1115.1624	1133.3211	1158.3761	1183.6811	1200.7297	1217.7709	1244.4894	1252.1299	1278.3136	1282.2702	1325.3701	1370.0658	1401.1833	1426.2819	1472.7507	1481.6635	1486.8502	1502.2915	1524.8782	1526.5213	1777.5954	2950.6108	2975.4383	2982.0214	3020.3023	3032.7189	3057.8228	3086.3172	3117.1607	3119.0263	3124.4785	3469.3925
COCC1COC(=N)C1	COC[C@H]1CO[C]([NH])C1	
InChI=1S/C6H11NO2/c1-8-3-5-2-6(7)9-4-5/h5,7H,2-4H2,1H3	InChI=1S/C6H11NO2/c1-8-3-5-2-6(7)9-4-5/h5,7H,2-4H2,1H3/t5-/m0/s1
