16
gdb 9114	3.81525	1.08111	0.8794	3.2555	70.38	-0.2664	0.0022	0.2686	1302.2144	0.12792	-379.926646	-379.917413	-379.916469	-379.961492	31.151	
C	 0.2162245917	 1.1262813811	 0.5035966972	-0.318467
N	-0.1481827474	 0.048879561	-0.3932988041	-0.195806
C	-1.0585717013	-0.7305433312	-0.0285077667	 0.133358
O	-1.4430229632	-1.7520340663	-0.8425221548	-0.204497
C	-2.4783183857	-2.5976590422	-0.3535176479	-0.02349
C	-2.9778180135	-3.4348991221	-1.5283074797	-0.398534
C	-1.9870093477	-3.4518116088	 0.7485224787	 0.272885
N	-1.6110200752	-4.1146986041	 1.6167042377	-0.308155
H	 1.2785965932	 1.04341898	 0.7571270376	 0.137072
H	 0.0840407921	 2.086112055	-0.0076646113	 0.133213
H	-0.3640435429	 1.1465468082	 1.439890775	 0.10214
H	-1.6092291227	-0.6724748966	 0.9223802426	 0.091148
H	-3.3014638355	-1.9887730221	 0.0459585875	 0.132661
H	-3.352483713	-2.7674598478	-2.3070921116	 0.145022
H	-2.1611781584	-4.033916375	-1.9362414759	 0.157818
H	-3.7810581106	-4.100519529	-1.2042932444	 0.143633
47.5319	63.9745	140.91	193.4465	208.9372	218.2097	267.0618	310.3306	323.9516	433.9322	512.1142	583.5304	641.1528	816.8711	940.7807	966.6983	1048.5655	1059.1646	1114.237	1141.2463	1150.4752	1162.238	1224.3969	1334.9647	1357.8306	1409.4901	1416.4567	1449.8868	1480.1319	1481.2628	1494.6769	1504.5567	1788.0297	2358.5938	2975.3829	3003.5665	3016.795	3061.3175	3067.0071	3087.0777	3144.6315	3149.0149
CN=COC(C)C#N	CN=CO[C@@H](C)C#N	
InChI=1S/C5H8N2O/c1-5(3-6)8-4-7-2/h4-5H,1-2H3	InChI=1S/C5H8N2O/c1-5(3-6)8-4-7-2/h4-5H,1-2H3/t5-/m0/s1
