16
gdb 34761	3.41033	1.50377	1.45364	4.1368	75.96	-0.2421	-0.0299	0.2122	942.9868	0.126895	-363.612972	-363.606351	-363.605407	-363.643763	27.201	
N	-0.091697893	-1.1482546369	-0.1338446035	-0.327238
C	-0.020611629	 0.0003540907	-0.024814425	 0.2726
C	 0.0263565123	 1.4580417991	 0.0620501707	-0.141941
C	-0.2657197841	 2.0701954189	 1.4782821343	-0.115694
C	 0.9726860544	 1.5358518966	 2.2271013558	-0.068722
C	 1.9924503702	 1.5540065496	 1.3713614458	-0.068722
C	 1.4586752585	 2.1008922153	 0.0312478845	-0.115696
C	 1.0262275934	 3.562925025	 0.2619666449	-0.086751
C	 0.0058946176	 3.5447623833	 1.1182001563	-0.086749
H	-0.6266348134	 1.8786327097	-0.707186834	 0.12234
H	-1.2342701363	 1.8476568687	 1.9220466315	 0.083633
H	 0.9732084892	 1.2531577419	 3.2701854208	 0.112745
H	 3.0253247988	 1.2897017047	 1.5481461643	 0.112745
H	 2.0681877838	 1.9064459854	-0.8492211456	 0.083633
H	 1.5222565663	 4.4165896827	-0.1783168007	 0.111908
H	-0.5314450887	 4.3800316753	 1.5450826099	 0.111909
151.9284	154.9305	406.5523	411.771	451.1395	498.8301	519.1817	579.2248	679.8373	734.6229	762.0192	808.5837	822.3749	878.9131	890.6838	915.5852	928.2034	928.9701	946.5347	949.7596	999.0563	1026.845	1081.3218	1134.4915	1155.0806	1226.3753	1236.4892	1258.4456	1265.5278	1290.3581	1329.8497	1346.063	1620.4892	1659.8816	2355.595	3084.1164	3136.815	3138.6693	3218.909	3223.3981	3244.1544	3248.7771
N#CC1C2C=CC1C=C2	N#C[C@H]1[C@H]2C=C[C@@H]1C=C2	
InChI=1S/C8H7N/c9-5-8-6-1-2-7(8)4-3-6/h1-4,6-8H	InChI=1S/C8H7N/c9-5-8-6-1-2-7(8)4-3-6/h1-4,6-8H/t6-,7+,8-
