16
gdb 44673	4.3776	1.31269	1.06641	4.5784	76.63	-0.2404	-0.0267	0.2136	1081.9245	0.127324	-400.798227	-400.791466	-400.790522	-400.829306	27.135	
O	 0.0796080948	-0.0508091273	-0.0650482981	-0.377013
C	 0.0320882422	 1.1566636354	 0.0050315395	 0.41395
N	-1.135663974	 1.9209149503	 0.0990907911	-0.35696
C	-0.8478511057	 3.3282279583	-0.1053430141	-0.060588
C	-1.2331017742	 4.3981992882	 0.9018097382	-0.099309
C	-0.1919728972	 5.1948841876	 1.160385671	-0.056943
C	 1.088281211	 4.7443619324	 0.4620501955	-0.365741
C	 0.6620555009	 3.3734599465	 0.0184848527	 0.323247
C	 1.160066698	 2.1388861068	 0.0694585633	-0.357021
H	-1.9898797764	 1.5031352864	-0.2375166208	 0.244601
H	-1.1898743472	 3.6393768564	-1.1078521764	 0.103463
H	-2.2428801248	 4.5370466889	 1.2688101361	 0.106521
H	-0.2248152746	 6.0860335156	 1.7771833881	 0.106856
H	 1.3381343885	 5.4116677268	-0.3759057288	 0.126963
H	 1.9609601787	 4.7257569043	 1.1226172008	 0.128551
H	 2.1813506998	 1.8263113933	 0.2359663621	 0.119423
126.2604	203.5795	301.4175	329.1307	429.9609	504.2113	538.6019	571.2686	681.3888	691.7448	735.83	787.5867	796.2873	862.7743	900.0124	912.3222	934.7937	968.0561	987.5613	1001.217	1094.9986	1123.3127	1139.3387	1161.3035	1191.7935	1266.5797	1274.4983	1296.0666	1342.0635	1362.8896	1403.5179	1474.1378	1660.102	1714.0523	1823.2815	2946.9662	3003.9849	3073.4267	3190.7495	3216.4365	3237.7342	3627.4874
O=C1NC2C=CCC2=C1	O=C1N[C@H]2C=CC[C]2[CH]1	
InChI=1S/C7H7NO/c9-7-4-5-2-1-3-6(5)8-7/h1,3-4,6H,2H2,(H,8,9)	InChI=1S/C7H7NO/c9-7-4-5-2-1-3-6(5)8-7/h1,3-4,6H,2H2,(H,8,9)/t6-/m0/s1
