15
gdb 54623	4.10321	1.04345	0.8368	6.2918	70.38	-0.2523	-0.0641	0.1883	1277.0443	0.113379	-454.024903	-454.01639	-454.015446	-454.058738	30.625	
N	-0.0732904672	 1.3380288838	-0.024618009	-0.544465
C	 0.0209146401	-0.0285977184	-0.0466557893	 0.336924
O	 1.0872154195	-0.6083408818	-0.1213846647	-0.350098
C	-1.2767507082	-0.7625236155	-0.0070772945	 0.232099
C	-1.3888422253	-2.0946372939	 0.0287660715	-0.311767
C	-2.8298386646	-2.4877676856	 0.0499012906	 0.450056
O	-3.3177756338	-3.5957859084	 0.0791841078	-0.378974
N	-3.5156784146	-1.2883675971	 0.0271139192	-0.349815
C	-2.6553544083	-0.1328999618	-0.0180643239	-0.281762
H	 0.7905485979	 1.8515434112	 0.0491893184	 0.267461
H	-0.9214761744	 1.8134365412	 0.2307947462	 0.261559
H	-0.5771374059	-2.8066419671	 0.0380499606	 0.151929
H	-4.5206958899	-1.2522741638	 0.0138692681	 0.258145
H	-2.8089521305	 0.5280618463	 0.8494621342	 0.123129
H	-2.8127155249	 0.4717932409	-0.923446115	 0.135578
51.3083	107.1353	156.5079	173.2385	249.9982	362.7898	390.6774	421.6864	441.8918	526.4499	563.6786	639.0185	706.7687	714.2117	777.4379	883.4917	926.319	947.596	1011.7366	1067.9281	1081.6244	1093.5467	1194.7405	1197.6714	1294.8275	1325.0663	1369.1419	1425.6886	1504.9926	1620.9085	1679.3065	1784.3374	1827.1097	2980.7788	3009.7766	3260.9127	3597.7838	3670.8346	3728.7268
NC(=O)C1=CC(=O)NC1	NC(=O)C1=CC(=O)NC1	
InChI=1S/C5H6N2O2/c6-5(9)3-1-4(8)7-2-3/h1H,2H2,(H2,6,9)(H,7,8)	InChI=1S/C5H6N2O2/c6-5(9)3-1-4(8)7-2-3/h1H,2H2,(H2,6,9)(H,7,8)
