20
gdb 115434	4.68183	0.80119	0.71918	4.7324	79.83	-0.2767	0.0388	0.3155	1541.9858	0.172241	-403.177697	-403.168498	-403.167554	-403.213247	33.605	
O	 0.064501359	 1.3930033894	-0.2458142362	-0.421712
C	 0.0338630221	 0.0004650423	 0.0225952662	-0.099776
C	-1.4228618609	-0.4386484478	 0.0528950674	 0.051622
C	-2.1761896402	-0.2042367046	-1.2729189797	-0.213473
C	-3.3324926579	-1.2080333322	-1.2207479012	-0.222213
C	-2.6467656474	-2.481866529	-0.6655358372	-0.127576
C	-1.5912905971	-1.9536144881	 0.3598480305	-0.258173
C	-3.574582807	-3.4551887343	-0.0996839134	 0.258329
N	-4.3139137792	-4.218434234	 0.3561513992	-0.328993
H	 0.9820843042	 1.680014391	-0.2616194354	 0.289576
H	 0.569338711	-0.5696421044	-0.7564879835	 0.081819
H	 0.5143654934	-0.232195836	 0.9866572544	 0.090297
H	-1.9225306716	 0.140685909	 0.8376795586	 0.089247
H	-2.5054786221	 0.8294027396	-1.3909882347	 0.117869
H	-1.5187698987	-0.4348902442	-2.1220061501	 0.097176
H	-4.1036550543	-0.8700965053	-0.5200139556	 0.120674
H	-3.8148723687	-1.3851250838	-2.18493874	 0.113788
H	-2.1222691004	-2.9757451327	-1.4915921203	 0.122606
H	-0.6505132408	-2.5008674411	 0.2461633077	 0.11117
H	-1.9313276133	-2.1168259938	 1.3844595733	 0.127744
13.7822	114.3133	147.4129	167.5214	226.5429	267.5826	280.3901	371.2195	421.5159	518.7477	536.9321	567.4053	613.3945	785.9131	832.8702	877.6678	916.0221	961.0403	977.7871	1016.6407	1026.7729	1051.6436	1077.3473	1101.298	1107.6983	1178.8288	1195.5425	1230.2276	1255.0667	1276.309	1293.7256	1311.293	1315.5589	1329.5584	1337.8398	1365.1054	1387.1783	1460.1639	1491.926	1493.0307	1504.7792	1521.1796	2354.9252	2949.8833	2984.3936	3023.0042	3038.3069	3043.8422	3054.8898	3059.1579	3108.8459	3111.0409	3118.8129	3831.2239
OCC1CCC(C1)C#N	OC[C@H]1CC[C@@H](C1)C#N	
InChI=1S/C7H11NO/c8-4-6-1-2-7(3-6)5-9/h6-7,9H,1-3,5H2	InChI=1S/C7H11NO/c8-4-6-1-2-7(3-6)5-9/h6-7,9H,1-3,5H2/t6-,7-/m0/s1
