19
gdb 65792	3.69344	1.17886	1.11212	2.4869	76.	-0.2508	0.0153	0.2661	1156.4568	0.158802	-423.008921	-423.00057	-422.999626	-423.041988	32.296	
O	-0.0039357321	 1.1942904676	-0.6142162626	-0.478245
C	 0.0832933046	-0.1856165305	-0.2777656949	 0.361262
C	 1.1606618732	-0.8817112291	-1.161976722	-0.299729
C	 2.405269192	-0.8001232482	-0.3106738558	-0.081828
C	 2.1171840727	-0.5093453774	 0.9588156776	-0.07671
C	 0.6304796377	-0.3451571346	 1.172187925	-0.306874
C	-1.294759913	-0.7861930868	-0.4551206595	 0.051748
C	-2.5133643765	 0.0205173321	-0.5784258416	-0.177816
O	-1.9248599579	-0.6100384444	-1.7211523053	-0.246317
H	 0.8895655234	 1.5529143408	-0.5815418001	 0.28176
H	 0.8981186023	-1.9274897696	-1.3725543235	 0.113082
H	 1.2330526005	-0.3762563156	-2.1299634985	 0.120983
H	 3.3986077156	-0.9936485174	-0.7000482676	 0.096034
H	 2.8384486998	-0.427365556	 1.7642623189	 0.096105
H	 0.3553672211	 0.5270118855	 1.7740799022	 0.113482
H	 0.209606222	-1.2272515499	 1.6754867686	 0.106477
H	-1.3821081666	-1.7977096505	-0.053831426	 0.087259
H	-3.4667435714	-0.3961319583	-0.255532264	 0.106331
H	-2.4307584475	 1.1031536526	-0.5583813508	 0.132996
68.1339	102.2521	194.9431	265.9169	315.7666	360.3349	373.921	395.712	421.1809	510.4007	661.5371	708.3105	784.387	789.6191	859.8808	893.6191	921.1385	937.828	954.4651	975.3312	976.8068	999.6932	1041.5294	1083.796	1114.9671	1120.1021	1131.3667	1161.3291	1178.0463	1180.1171	1232.2661	1280.6587	1293.9856	1315.6045	1361.9345	1370.6303	1460.9496	1469.0646	1476.7644	1520.8046	1676.9277	3009.4385	3018.2269	3073.5593	3080.0433	3088.3731	3096.7388	3183.6557	3197.2257	3208.5108	3808.2602
OC1(CC=CC1)C1CO1	O[C@]1(CC=CC1)[C@H]1CO1	
InChI=1S/C7H10O2/c8-7(6-5-9-6)3-1-2-4-7/h1-2,6,8H,3-5H2	InChI=1S/C7H10O2/c8-7(6-5-9-6)3-1-2-4-7/h1-2,6,8H,3-5H2/t6-/m1/s1
