15
gdb 19606	3.39498	2.43272	1.84571	2.7845	64.33	-0.2134	0.0022	0.2155	746.7792	0.118964	-362.604365	-362.597909	-362.596965	-362.634726	25.282	
C	 0.0090262875	 1.5322503306	 0.0360599738	-0.337235
N	 0.0682981774	 0.0752115847	-0.0112865809	-0.083905
C	 0.7732180093	-0.5623269347	-1.1261795469	-0.020522
C	 1.3441629175	-1.6239084323	-0.2725976425	-0.104445
C	 2.298353315	-0.5423326856	-0.8668710061	-0.215738
C	 2.445098958	-0.025620548	 0.5284744481	 0.436172
O	 3.3579542086	 0.4050362859	 1.1756481167	-0.340606
C	 1.0431125502	-0.6035970965	 0.888433414	-0.151918
H	 0.9862715781	 2.0271883572	-0.0864272674	 0.116128
H	-0.6596591779	 1.8866100423	-0.7546085734	 0.124754
H	-0.4126688093	 1.8402538128	 0.9977964164	 0.129673
H	 0.3808474849	-0.6079732273	-2.1352734666	 0.111649
H	 1.412739037	-2.6983128116	-0.3197729426	 0.126885
H	 3.0427648958	-0.6611496343	-1.6412104205	 0.113794
H	 0.7488216979	-0.8047536731	 1.9159859577	 0.095313
143.5727	212.5977	238.4463	335.4774	426.5855	556.3264	645.3742	668.221	743.9191	779.8419	810.6172	828.2852	852.7524	867.0603	913.2928	955.4875	1012.8618	1045.0941	1066.3767	1093.0805	1121.3923	1162.8405	1178.1088	1181.0395	1202.4825	1241.2932	1295.5213	1349.1394	1449.589	1488.2644	1499.2314	1876.0573	2974.4541	3071.8457	3109.8576	3151.04	3185.0296	3227.5444	3259.0601
CN1C2C3C2C(=O)C13	CN1[C@@H]2[C@H]3[C@@H]2C(=O)[C@@H]13	
InChI=1S/C6H7NO/c1-7-4-2-3(4)6(8)5(2)7/h2-5H,1H3	InChI=1S/C6H7NO/c1-7-4-2-3(4)6(8)5(2)7/h2-5H,1H3/t2-,3+,4-,5+/m1/s1
