20
gdb 88227	3.85834	0.72449	0.66217	2.1823	91.97	-0.2276	0.0353	0.2629	1747.5432	0.170815	-365.947965	-365.938458	-365.937513	-365.983802	34.553	
C	-0.3229471828	 1.4635779066	 0.0819765369	-0.407595
C	 0.0079744707	-0.0089569984	 0.0293916292	 0.017461
C	 1.3928872495	-0.4792560543	-0.3012705675	-0.2853
C	 0.8583456631	-0.6678182419	 1.1151146352	-0.192421
C	 1.4005701981	 0.0937620938	 2.2007632334	 0.087692
C	 1.8506726962	 0.727652305	 3.1253429926	 0.076811
C	 2.3934072123	 1.453336987	 4.2381611761	-0.161105
C	 1.9302279685	 2.8465950703	 4.5192320001	-0.226944
N	 1.542284424	 1.7570426256	 5.4187526776	-0.30729
H	 0.5093881946	 2.0383504675	 0.4972116739	 0.128249
H	-0.5372629366	 1.8496976988	-0.920422299	 0.117442
H	-1.2013970024	 1.6502355915	 0.7091161989	 0.11862
H	-0.7991552088	-0.6407925265	-0.331815619	 0.090591
H	 1.5218056073	-1.3688661657	-0.9076290269	 0.116445
H	 2.1626945678	 0.2733516177	-0.431554775	 0.123744
H	 0.5742049626	-1.68437984	 1.3732900309	 0.108474
H	 3.4138848474	 1.1978025847	 4.5131212188	 0.113592
H	 2.6315611821	 3.5619297052	 4.9396503482	 0.12291
H	 1.1872961272	 3.2680829463	 3.8487437175	 0.120555
H	 0.5895387592	 1.4679237366	 5.2092606081	 0.238069
28.5301	69.3282	97.9243	169.0979	193.166	221.4016	320.5319	358.2709	430.851	489.6668	538.5847	592.9571	689.8504	763.1897	806.998	827.3987	859.3732	895.444	932.2657	959.4443	976.1011	1004.7698	1056.1213	1067.8387	1100.3283	1109.4408	1130.6274	1143.8554	1163.4043	1199.9947	1209.0424	1242.6168	1261.5734	1299.7138	1368.9487	1394.2755	1414.4436	1424.2691	1483.8926	1494.1049	1501.6425	1504.2028	2346.6129	3033.3403	3093.6075	3112.7205	3113.3585	3133.572	3134.7848	3136.4538	3147.1866	3203.6734	3225.8269	3502.7139
CC1CC1C#CC1CN1	C[C@H]1C[C@H]1C#C[C@H]1CN1	
InChI=1S/C8H11N/c1-6-4-7(6)2-3-8-5-9-8/h6-9H,4-5H2,1H3	InChI=1S/C8H11N/c1-6-4-7(6)2-3-8-5-9-8/h6-9H,4-5H2,1H3/t6-,7+,8-/m0/s1
