18
gdb 41921	2.2559	2.23289	1.92626	2.0233	69.72	-0.2094	0.0603	0.2697	852.5922	0.151923	-439.043174	-439.036641	-439.035696	-439.073902	26.913	
C	 0.0170659202	 1.5334339304	 0.0987797692	-0.058806
O	 1.3053101115	 2.121713115	-0.0358442636	-0.257781
C	 2.26857762	 1.4088523974	-0.7602897541	 0.050661
C	 1.9225646657	 0.066214248	-1.3861753937	-0.10634
N	 0.5766867187	-0.4522276362	-1.2597875445	-0.303637
C	 0.0313836526	-0.0017428465	 0.0307209563	-0.085143
C	 0.8772758558	-0.6625776073	 1.12174053	-0.041442
O	 2.2329881349	-0.2308991376	 1.1129859637	-0.258484
C	 2.7649485803	 0.1108946024	-0.1328271981	 0.059763
H	-0.381053684	 1.8906201894	 1.0554549861	 0.108672
H	-0.6496453696	 1.9016454997	-0.6990593645	 0.083945
H	 2.9664799798	 2.0827590595	-1.2475291921	 0.09561
H	 2.4158334545	-0.2146281149	-2.3120974542	 0.097255
H	 0.0078217555	-0.0691529164	-2.0116194148	 0.219617
H	-0.9969881534	-0.3679337978	 0.1267075962	 0.085915
H	 0.4894104292	-0.4202434635	 2.1161267779	 0.107125
H	 0.8244443288	-1.7508507722	 0.9775165782	 0.104012
H	 3.8165429897	-0.1504048292	-0.1978958982	 0.099057
130.4215	209.1085	346.2246	374.1123	463.5733	492.0824	578.1563	656.9201	687.092	722.192	769.0318	797.3291	856.6098	886.0258	914.8722	947.6547	976.7716	987.5808	1018.1685	1086.0806	1100.4039	1102.7276	1118.9142	1134.5406	1178.952	1192.7441	1246.6644	1256.3006	1269.7054	1307.651	1330.1551	1342.2489	1370.0357	1407.9463	1414.4033	1446.7218	1479.9883	1498.6518	1512.1201	2959.4001	3005.492	3049.8952	3055.8362	3079.3383	3143.379	3148.5055	3159.9338	3473.6306
C1OC2C3NC1COC23	C1O[C@@H]2[C@@H]3N[C@H]1CO[C@H]23	
InChI=1S/C6H9NO2/c1-3-2-9-6-4(7-3)5(6)8-1/h3-7H,1-2H2	InChI=1S/C6H9NO2/c1-3-2-9-6-4(7-3)5(6)8-1/h3-7H,1-2H2/t3-,4+,5-,6+
