19
gdb 105019	2.10427	1.37619	1.26329	2.3154	76.81	-0.2651	0.0347	0.2998	1142.1957	0.157281	-422.965891	-422.956314	-422.95537	-422.999978	36.367	
O	 0.2933299243	-0.545771364	 1.5893599268	-0.42942
C	 0.0264148979	-0.4867849258	 0.1810055208	-0.162117
C	-1.4562451394	-0.6219969603	-0.125755396	 0.341565
C	-1.8544249359	-0.7911841892	-1.5700593974	-0.316669
C	-1.9947745301	-1.9447047393	-0.6096620376	-0.307507
C	-2.3711807053	 0.1646032706	 0.8162961847	-0.148862
O	-2.5196649481	-0.4958300216	 2.0651702222	-0.422976
C	-1.8919167819	 1.5478632167	 0.9963165636	 0.32601
C	-1.4622023486	 2.6600159348	 1.1608642546	-0.470458
H	 0.3022323089	 0.3635323681	 1.9082299278	 0.297063
H	 0.4100692428	 0.4559507565	-0.226720496	 0.11299
H	 0.583465096	-1.3048090821	-0.2886574712	 0.109563
H	-2.7533703687	-0.2918880777	-1.9157384244	 0.118336
H	-1.0616973189	-0.8312839563	-2.3107579515	 0.113394
H	-1.299244651	-2.7728834169	-0.6964495479	 0.114847
H	-2.9896101808	-2.2312014785	-0.2873810247	 0.127176
H	-3.377124046	 0.203957144	 0.381015455	 0.108901
H	-1.623444638	-0.757206861	 2.3238358806	 0.287496
H	-1.1190859671	 3.6548784821	 1.3064409906	 0.200669
77.5014	103.0436	147.8552	217.3109	232.6875	265.8755	305.4748	351.4717	362.5833	423.8368	490.632	532.5027	596.4396	618.9427	639.6238	660.574	776.0355	804.4543	879.8794	929.3472	936.1852	964.7999	990.0516	1026.1122	1044.0118	1054.3898	1069.1235	1082.9861	1186.0941	1212.2862	1243.0603	1309.0208	1324.5643	1360.489	1396.496	1420.9418	1452.4472	1471.9364	1494.4878	1508.1704	2220.125	3027.357	3036.3461	3075.8043	3126.2911	3134.587	3205.088	3222.1855	3498.9354	3719.257	3808.6191
OCC1(CC1)C(O)C#C	OCC1(CC1)[C@@H](O)C#C	
InChI=1S/C7H10O2/c1-2-6(9)7(5-8)3-4-7/h1,6,8-9H,3-5H2	InChI=1S/C7H10O2/c1-2-6(9)7(5-8)3-4-7/h1,6,8-9H,3-5H2/t6-/m0/s1
