23
gdb 99992	2.62779	1.14263	0.98503	1.0819	87.79	-0.2513	0.0552	0.3065	1342.6478	0.200924	-388.256861	-388.245403	-388.244459	-388.292922	42.329	
C	-0.1556746568	 1.3389366054	 0.1266908521	-0.245299
O	 0.0225986414	-0.0473083137	-0.0533544049	-0.280106
C	 0.7050937963	-0.4891400658	-1.2354552643	 0.365432
C	 0.0139488938	 0.006488031	-2.5136681179	-0.436314
C	 2.1746213965	-0.0448621251	-1.2035439223	-0.431047
C	 0.6215164309	-2.0470111746	-1.101956681	-0.160859
C	-0.8252694444	-2.5777033168	-1.022875063	-0.406934
C	 1.3608353408	-2.7335620873	-2.1592042089	 0.332881
C	 1.9406639446	-3.317738128	-3.0365354299	-0.486242
H	 0.7952693883	 1.8865413347	 0.1854113182	 0.106696
H	-0.7693447862	 1.7930593767	-0.6632799251	 0.107566
H	-0.6784496402	 1.4599025216	 1.0792060825	 0.12685
H	 0.1804523571	 1.0761354457	-2.6684969329	 0.112726
H	 0.4177390631	-0.5210759408	-3.381909433	 0.1333
H	-1.0640869822	-0.1688669786	-2.4716364366	 0.122328
H	 2.6430666549	-0.3524368408	-0.2635782449	 0.117427
H	 2.7280520817	-0.495535927	-2.0304726548	 0.134372
H	 2.2645171721	 1.0412347153	-1.2946496606	 0.110515
H	 1.1073299843	-2.2727948455	-0.1434908171	 0.108929
H	-0.8178511392	-3.643447542	-0.7801324692	 0.119494
H	-1.373536718	-2.0390520442	-0.2488928968	 0.134157
H	-1.3456817835	-2.4593721319	-1.9768755885	 0.121553
H	 2.4624051147	-3.8347351884	-3.8033375211	 0.192575
62.4131	70.2182	142.7672	174.258	198.8497	218.1996	237.761	262.899	270.1612	299.872	356.1544	359.6038	406.4076	426.2254	466.1143	557.161	593.0654	622.4443	642.0167	723.6284	817.9882	892.1182	922.9549	945.6386	997.2519	1043.9193	1077.1031	1098.4724	1123.3973	1180.1985	1185.5926	1202.0165	1220.2772	1270.8644	1322.2564	1333.4893	1392.9934	1397.0678	1412.0454	1474.6361	1480.0512	1481.2497	1494.0043	1499.5721	1500.1654	1506.5878	1511.8352	1517.0883	2229.2962	2994.687	3019.5004	3040.3991	3048.1191	3049.6466	3054.8266	3106.5652	3112.3222	3117.2507	3120.8463	3127.1808	3131.06	3148.8707	3503.794
COC(C)(C)C(C)C#C	COC(C)(C)[C@@H](C)C#C	
InChI=1S/C8H14O/c1-6-7(2)8(3,4)9-5/h1,7H,2-5H3	InChI=1S/C8H14O/c1-6-7(2)8(3,4)9-5/h1,7H,2-5H3/t7-/m0/s1
