18
gdb 88810	2.84616	1.29706	1.07809	0.9644	72.77	-0.2317	-0.0399	0.1918	1162.4271	0.146068	-439.036593	-439.027955	-439.027011	-439.070352	31.631	
C	 0.0897536897	 1.4836743344	-0.2048552652	-0.338814
N	-0.1267588785	 0.0877532807	 0.1680924158	-0.084889
C	 1.0234098595	-0.8103421868	 0.0893256021	-0.261185
C	 0.4538543262	-0.4072109398	 1.4080997767	-0.024257
C	 1.191050155	 0.4806897797	 2.3955957302	-0.018347
O	 1.6174886696	-0.2720914061	 3.5630005763	-0.287467
C	 3.011514601	 0.055420586	 3.3983104764	-0.179435
C	 2.660262303	 0.8629248197	 2.1472707055	 0.339426
O	 3.2547401234	 1.5049320049	 1.3353384266	-0.2761
H	 1.0909052624	 1.8705497829	 0.0379916685	 0.134178
H	-0.0590372822	 1.5783913594	-1.2846967382	 0.127486
H	-0.6603077828	 2.1086910671	 0.2909455462	 0.121709
H	 0.8277467873	-1.8008019016	-0.3128318865	 0.117594
H	 1.9817093103	-0.3809970061	-0.1970560016	 0.126578
H	-0.1752795977	-1.1170077094	 1.9446272188	 0.112654
H	 0.5680304871	 1.3384947008	 2.6896593325	 0.115342
H	 3.4175782442	 0.6453989194	 4.2297687282	 0.136528
H	 3.6438998824	-0.8258346251	 3.2332753276	 0.138998
65.5475	104.3439	143.1903	182.0278	247.6177	285.5583	352.7559	426.9958	440.3159	491.3449	588.65	706.5364	738.8202	802.6173	893.211	917.7088	974.1464	1000.8959	1011.6462	1043.9865	1051.0109	1084.2314	1124.4761	1134.8029	1136.7868	1154.9113	1180.0543	1211.6131	1256.5159	1294.4853	1315.8046	1334.0336	1393.9314	1457.0353	1479.6903	1495.792	1511.0525	1515.4991	1913.0013	2993.1287	3000.2787	3020.6226	3067.1017	3074.9052	3098.7202	3102.8659	3111.3645	3184.7627
CN1CC1C1OCC1=O	CN1C[C@H]1[C@H]1OCC1=O	
InChI=1S/C6H9NO2/c1-7-2-4(7)6-5(8)3-9-6/h4,6H,2-3H2,1H3	InChI=1S/C6H9NO2/c1-7-2-4(7)6-5(8)3-9-6/h4,6H,2-3H2,1H3/t4-,6+,7?/m0/s1
