18
gdb 72151	2.5807	2.02485	1.78032	2.0119	69.03	-0.2085	0.0632	0.2716	864.5001	0.150678	-439.054784	-439.048235	-439.047291	-439.085201	27.885	
O	-0.0399643975	 1.3744597427	 0.0686816761	-0.498867
C	 0.0504690404	-0.0132962431	 0.0346882982	 0.401955
C	 0.8935012584	-0.7848930506	 1.0596645311	-0.262479
N	 0.5409790133	-2.1582258162	 0.6258340356	-0.119326
C	-0.9530178946	-2.0859450207	 0.6979842617	-0.189504
C	-1.3053826049	-0.773078871	-0.0314816762	 0.051806
O	-1.1681336106	-0.9836581646	-1.4594290839	-0.299308
C	 0.2591749134	-0.7790913155	-1.3194649318	 0.014162
C	 0.9033477973	-2.0892652017	-0.8260836615	-0.188288
H	 0.8408498392	 1.7431489169	-0.0588010257	 0.282463
H	 1.9710446906	-0.6104785634	 0.9686515946	 0.095557
H	 0.5870097704	-0.6041541197	 2.0937852471	 0.110676
H	-1.4132661259	-2.9515941915	 0.2173758948	 0.116157
H	-1.2477340728	-2.0627656633	 1.7524152593	 0.105473
H	-2.2385068413	-0.2759068524	 0.2405985394	 0.086258
H	 0.7077167819	-0.2932444448	-2.1896992343	 0.075731
H	 1.9955931355	-2.0685169547	-0.9086386225	 0.100793
H	 0.5224089872	-2.9580700965	-1.3670625418	 0.116741
232.2215	271.5655	310.5861	381.8247	423.8721	474.4673	490.4723	617.0918	623.5952	649.6959	780.2272	835.1122	851.2205	870.5242	902.027	911.1728	941.6659	986.3031	991.703	1010.1456	1021.5771	1082.547	1104.9349	1130.071	1158.1411	1181.2675	1184.6027	1256.8697	1273.0773	1277.3229	1282.3988	1303.2119	1328.2789	1333.7993	1349.2834	1404.4328	1469.7227	1476.1349	1505.2412	3041.2387	3046.1022	3051.6928	3082.0587	3098.8242	3103.0412	3114.8271	3120.5003	3803.4646
OC12CN3CC1OC2C3	O[C@@]12CN3C[C@@H]1O[C@@H]2C3	
InChI=1S/C6H9NO2/c8-6-3-7-1-4(6)9-5(6)2-7/h4-5,8H,1-3H2	InChI=1S/C6H9NO2/c8-6-3-7-1-4(6)9-5(6)2-7/h4-5,8H,1-3H2/t4-,5+,6-
