21
gdb 113327	2.51451	1.05996	0.86257	4.8015	85.12	-0.2506	0.0255	0.276	1449.6139	0.180885	-383.262187	-383.251943	-383.250999	-383.297639	36.972	
C	-0.2602783954	 1.572186987	 0.3104076806	-0.379406
C	 0.1933973122	 0.1744797292	-0.1044898625	-0.121041
N	 0.7585573464	-0.5191281784	 1.0519808449	-0.108858
C	-0.0950850228	-1.3761246995	 1.8496895643	-0.276244
C	 1.0034126301	-1.9678453152	 1.0090435706	 0.152039
C	 0.6643795207	-2.8431339447	-0.1945621118	-0.254305
C	 0.515130467	-4.3241477904	 0.173044532	-0.395107
C	 2.2389311008	-2.3476096658	 1.6753483976	 0.281154
N	 3.2185948496	-2.6810785689	 2.1910577761	-0.350208
H	 0.5747279787	 2.1373727187	 0.732217006	 0.135697
H	-0.6550630466	 2.1174912764	-0.5520485955	 0.116847
H	-1.0496623882	 1.517732675	 1.0670869181	 0.121554
H	-0.6532520547	-0.3663445043	-0.5558793321	 0.089807
H	 0.9785847957	 0.2440124205	-0.8654606782	 0.115676
H	 0.01143073	-1.3015864088	 2.9279980598	 0.135447
H	-1.1085631393	-1.5693066428	 1.4959182614	 0.115383
H	-0.2637375239	-2.4817130121	-0.6447655708	 0.109313
H	 1.4510981843	-2.726083132	-0.949356454	 0.120476
H	-0.296151862	-4.4717522631	 0.8931156302	 0.121964
H	 0.2903397423	-4.9184474006	-0.7170716434	 0.120998
H	 1.4343904153	-4.7162791402	 0.617414627	 0.148814
67.5444	88.7359	130.9327	150.3528	160.7606	217.0159	243.6533	279.3753	323.1699	342.824	420.9912	482.139	570.3698	632.811	663.6076	773.2392	800.1963	817.6281	895.4775	921.8033	959.4082	1003.8313	1041.5193	1077.8271	1093.5462	1104.3111	1127.0204	1173.3121	1199.3095	1249.5975	1290.3837	1312.9337	1351.1041	1383.1473	1387.7429	1412.5158	1415.0109	1481.8225	1487.965	1489.5868	1497.8627	1503.0378	1507.4339	1516.8807	2353.3232	2975.9377	3039.4405	3042.0432	3042.5457	3062.4731	3082.339	3093.9861	3111.561	3112.9912	3122.4466	3126.999	3183.3098
CCN1CC1(CC)C#N	CCN1C[C@]1(CC)C#N	
InChI=1S/C7H12N2/c1-3-7(5-8)6-9(7)4-2/h3-4,6H2,1-2H3	InChI=1S/C7H12N2/c1-3-7(5-8)6-9(7)4-2/h3-4,6H2,1-2H3/t7-,9?/m0/s1
