21
gdb 26345	2.44216	1.33819	0.98672	1.7976	85.67	-0.1754	0.0569	0.2322	1279.8479	0.183126	-383.308365	-383.298506	-383.297562	-383.342891	37.261	
C	 0.3361012856	 1.6647835201	-0.1758443593	-0.389554
C	-0.0117984448	 0.197391321	 0.1106226638	-0.090281
C	 0.2439175839	-0.6685350002	-1.1410401622	-0.376855
C	 0.7086130428	-0.3453010435	 1.3180235298	 0.251315
C	 1.9034936529	 0.0779956779	 1.8637223003	-0.179913
N	 2.1835836583	-0.6986735268	 2.9534450774	-0.2507
C	 1.1866408962	-1.6364900678	 3.1252048969	-0.161298
C	 0.2576326995	-1.438141252	 2.1278173675	 0.137326
N	-0.9799350103	-2.1003690135	 1.9620011543	-0.609943
H	 1.3943780481	 1.7763175186	-0.4395988213	 0.108955
H	-0.2507825723	 2.0459683088	-1.0180141311	 0.104179
H	 0.1375463704	 2.2963561122	 0.6948647569	 0.115453
H	-1.0880864336	 0.1464113937	 0.3286645717	 0.081954
H	 1.3024017791	-0.6332160885	-1.4214626074	 0.11341
H	-0.0101437009	-1.7198123593	-0.9675629762	 0.101946
H	-0.3477759581	-0.3166964373	-1.9938328144	 0.104014
H	 2.5661327529	 0.8750421513	 1.5679973793	 0.110651
H	 2.9851680017	-0.5946812517	 3.5478326233	 0.256
H	 1.2148992195	-2.3463475479	 3.9361556973	 0.101576
H	-1.0490617357	-2.9231985313	 2.5481719087	 0.233399
H	-1.1372414052	-2.3841174738	 1.0020276348	 0.238367
48.8743	136.399	166.264	184.9048	233.8891	263.013	278.9875	293.2901	347.7569	380.544	447.1997	509.9829	596.1152	623.9453	630.7052	709.8052	719.0674	749.5787	808.1446	882.6361	909.4506	928.4611	961.2638	1071.8002	1081.7311	1096.0276	1117.3017	1142.6008	1173.8607	1216.5516	1277.6154	1344.6494	1347.4826	1365.6541	1395.0445	1417.0915	1432.3709	1479.5568	1482.9953	1491.1259	1500.2807	1510.4417	1564.394	1626.8288	1659.1131	2999.9168	3021.9124	3028.684	3088.1619	3090.2848	3097.0764	3109.0696	3257.5119	3262.2505	3517.8532	3605.1194	3700.5903
CC(C)C1=CNC=C1N	CC(C)c1c[nH]cc1N	
InChI=1S/C7H12N2/c1-5(2)6-3-9-4-7(6)8/h3-5,9H,8H2,1-2H3	InChI=1S/C7H12N2/c1-5(2)6-3-9-4-7(6)8/h3-5,9H,8H2,1-2H3
