17
gdb 71878	3.04096	1.93578	1.47285	2.4061	72.06	-0.2364	-0.0245	0.2118	893.5256	0.13716	-417.926127	-417.919286	-417.918342	-417.956756	28.677	
O	 0.073684074	 1.3943892453	 0.0638015913	-0.490829
C	 0.0229285147	-0.0044103324	 0.0180620899	 0.380477
C	 0.1383959054	-0.6528717621	-1.4388954472	-0.291049
C	-1.2932469458	-1.295795461	-1.3190172766	-0.019305
N	-1.2861699001	-2.7282428514	-0.7584232799	-0.34996
C	-0.8527890911	-2.0372043139	 0.4547515418	 0.185839
N	 0.2903662769	-2.1511744595	 0.994427369	-0.188111
C	 0.7729263153	-0.7527633551	 1.1597578795	-0.233334
C	-1.3710244986	-0.6502507853	 0.0832872794	-0.139598
H	 0.9885921739	 1.6689936427	-0.0633189455	 0.281591
H	 0.1313422555	 0.1507964036	-2.1785361363	 0.114518
H	 0.9622583409	-1.3397336415	-1.6382182689	 0.123377
H	-2.0041886307	-1.145927408	-2.1316781984	 0.088502
H	-2.267706421	-3.0071663104	-0.7036296508	 0.229269
H	 1.8627688482	-0.751674514	 1.044071905	 0.106822
H	 0.5356913344	-0.3095945162	 2.1365593417	 0.113018
H	-2.2496324617	-0.2096499109	 0.5511994859	 0.088772
240.2221	258.827	280.1641	325.1201	380.5325	415.4602	486.4499	570.9284	609.7415	668.9982	744.3668	760.797	803.5926	853.6619	857.7042	901.9101	916.1718	955.9239	976.975	1002.6122	1044.7179	1060.8597	1073.1742	1113.2654	1151.2023	1186.1031	1187.8764	1202.916	1230.3812	1240.3289	1264.4015	1308.3469	1335.3028	1385.8791	1452.3208	1486.6911	1688.2426	3015.7626	3067.7283	3073.9565	3110.2527	3134.5908	3142.4043	3440.3578	3798.8615
OC12CC3NC(=NC1)C23	O[C@@]12C[C@H]3N[C]([N]C1)[C@@H]23	
InChI=1S/C6H8N2O/c9-6-1-3-4(6)5(8-3)7-2-6/h3-4,9H,1-2H2,(H,7,8)	InChI=1S/C6H8N2O/c9-6-1-3-4(6)5(8-3)7-2-6/h3-4,9H,1-2H2,(H,7,8)/t3-,4+,6+/m1/s1
