20
gdb 107515	1.97547	1.64882	1.08481	2.2009	85.25	-0.2259	0.0512	0.2771	1196.3393	0.16979	-365.939263	-365.930075	-365.929131	-365.973219	34.959	
C	 0.0023078812	 1.4982560218	 0.3538976652	-0.373498
C	-0.0015421315	 0.0558355965	-0.1746378768	-0.315068
C	-1.3640011618	-0.5711646379	-0.1550669243	 0.364343
N	-2.0157169001	-1.0111712895	 1.100418751	-0.365498
C	-1.8287074237	-1.9786166192	-0.01220014	-0.126235
C	-3.0146346193	-1.7580761738	-0.9516007007	-0.233748
C	-2.5173468791	-0.270026038	-1.1510001794	-0.232877
C	-3.4226061812	 0.8257110661	-0.8669337317	 0.353938
C	-4.1731321256	 1.7395448792	-0.6473198538	-0.472245
H	 1.0068181268	 1.9291385206	 0.3058469466	 0.110515
H	-0.6696986073	 2.1323677063	-0.2317679825	 0.135351
H	-0.3365244233	 1.5354196913	 1.3937205284	 0.125454
H	 0.3862014183	 0.0382948777	-1.2015603952	 0.102374
H	 0.6823258908	-0.5634936594	 0.4214350036	 0.094899
H	-1.266746459	-1.1802170189	 1.7729566524	 0.223305
H	-1.2558172504	-2.8863414534	 0.1352983552	 0.093569
H	-2.9697117852	-2.3326679633	-1.8784632947	 0.104678
H	-3.9963095152	-1.8663715128	-0.4875398213	 0.119041
H	-2.1041108292	-0.1591303786	-2.1592804326	 0.10017
H	-4.8365470951	 2.5415906553	-0.4384698592	 0.191532
77.1262	93.9548	136.42	199.8185	207.344	285.8422	333.0605	385.2379	455.0687	505.5241	551.8695	613.2068	627.7604	665.9976	701.709	779.0206	806.2952	891.2278	901.0652	934.9949	967.2058	969.2534	1019.995	1042.0345	1070.0254	1097.7146	1102.3874	1120.6254	1167.3183	1196.696	1229.6599	1272.2939	1292.855	1326.4285	1349.0297	1367.9533	1414.0451	1441.0602	1475.5186	1479.1548	1497.3369	1506.728	2232.8858	3011.1206	3041.4468	3044.4726	3048.2747	3076.6115	3112.3275	3116.645	3138.2226	3185.4169	3459.1946	3504.8473
CCC12NC1CC2C#C	CC[C@]12N[C@H]1C[C@H]2C#C	
InChI=1S/C8H11N/c1-3-6-5-7-8(6,4-2)9-7/h1,6-7,9H,4-5H2,2H3	InChI=1S/C8H11N/c1-3-6-5-7-8(6,4-2)9-7/h1,6-7,9H,4-5H2,2H3/t6-,7+,8-/m1/s1
