19
gdb 99952	2.09383	1.38777	1.06589	4.6413	77.71	-0.2452	-0.0783	0.1669	1219.9001	0.156351	-419.218211	-419.207675	-419.206731	-419.253992	37.444	
C	-0.2509034138	 1.3652783798	 0.1307158655	-0.328999
N	 0.2427507168	-0.0072280909	 0.0663552052	-0.301384
C	 0.8226517376	-0.4795739102	-1.1970519136	 0.137657
C	-0.0777991522	-0.1031409599	-2.3891771196	-0.434953
C	 2.2675881041	-0.0175450991	-1.4330896732	-0.422477
C	 0.7866190948	-2.0096381617	-1.0589639251	 0.292545
O	 1.7380998643	-2.7420517465	-1.1458671703	-0.285892
C	-0.552701667	-2.5773797438	-0.7714339933	 0.262903
N	-1.5786666235	-3.0839915304	-0.6031916345	-0.322447
H	 0.4771730244	 2.1307962225	-0.1835398613	 0.105174
H	-1.1488871441	 1.4774644383	-0.4820460872	 0.138048
H	-0.535189142	 1.5765003252	 1.1647919497	 0.132439
H	 0.9120608611	-0.1614090033	 0.8124729814	 0.226815
H	-0.0452145353	 0.9748788666	-2.564712012	 0.133608
H	 0.2755184798	-0.5987023487	-3.2975833902	 0.135315
H	-1.1158252781	-0.3962086619	-2.2124574484	 0.153112
H	 2.920350807	-0.3542174827	-0.6229474301	 0.125721
H	 2.6695352185	-0.4192943803	-2.3669169559	 0.133038
H	 2.3048300774	 1.074365377	-1.4840604372	 0.119776
36.4751	85.3732	154.3864	168.0755	213.589	215.909	264.7962	289.6966	309.9538	327.5268	362.2284	379.9894	404.4702	490.4616	622.1709	672.3804	756.5686	764.6713	823.9662	939.5335	957.5167	1009.4285	1062.8124	1099.6346	1127.5569	1151.4435	1229.4636	1245.2082	1274.1453	1396.646	1415.2722	1459.6278	1474.5381	1479.0367	1492.054	1498.0293	1504.704	1511.0371	1528.681	1796.4283	2334.8397	2970.5887	3045.678	3050.8767	3083.5325	3119.7322	3121.1601	3122.7542	3127.0708	3131.4594	3526.7697
CNC(C)(C)C(=O)C#N	CNC(C)(C)C(=O)C#N	
InChI=1S/C6H10N2O/c1-6(2,8-3)5(9)4-7/h8H,1-3H3	InChI=1S/C6H10N2O/c1-6(2,8-3)5(9)4-7/h8H,1-3H3
