15
gdb 33753	2.53676	1.64056	1.26737	0.2683	73.07	-0.2531	0.0053	0.2585	1009.0262	0.110269	-420.485718	-420.47814	-420.477196	-420.517657	29.51	
C	 0.0924814186	-1.1549984483	 0.000574377	-0.343381
C	 0.0313326665	 0.0454652209	 0.0122282753	 0.062677
C	-0.0828330317	 1.467880529	 0.0098093188	 0.233833
C	-0.7011349089	 2.4318889257	 1.069070797	-0.264863
C	 0.0288273762	 3.29572289	 0.0111799179	-0.070035
O	 1.1451439205	 2.320210014	 0.0250021974	-0.336186
C	-0.6100887192	 2.4330297636	-1.0860531091	 0.479305
C	-0.6875804601	 2.4143764405	-2.5303210599	-0.295618
O	-1.8682799386	 2.501372193	-1.6749290339	-0.278707
H	 0.1530199755	-2.215575275	-0.0080008998	 0.193121
H	-1.7902761564	 2.487916904	 1.1226276521	 0.124235
H	-0.2111777135	 2.3944693574	 2.0421203158	 0.118703
H	 0.2821491678	 4.3531027307	 0.0271065985	 0.111371
H	-0.4720999361	 3.3134876835	-3.1033725369	 0.130047
H	-0.5830560808	 1.4733884112	-3.0658042802	 0.135498
114.0399	155.3237	197.3332	287.4441	316.9857	468.9666	484.8262	494.2381	583.0482	625.208	631.6367	690.4678	696.8535	741.6324	827.2478	873.498	904.3207	950.6583	971.3327	998.3106	1061.238	1081.7924	1103.6029	1119.6254	1161.458	1195.121	1211.45	1216.0877	1311.3032	1456.0278	1480.477	1563.8031	2241.0627	3076.2586	3099.741	3156.4409	3163.2888	3191.3325	3499.2253
C#CC12CC(O1)C21CO1	C#C[C@@]12C[C@@H](O1)[C@]12CO1	
InChI=1S/C7H6O2/c1-2-6-3-5(9-6)7(6)4-8-7/h1,5H,3-4H2	InChI=1S/C7H6O2/c1-2-6-3-5(9-6)7(6)4-8-7/h1,5H,3-4H2/t5-,6+,7+/m1/s1
