21
gdb 111173	2.60544	1.1919	0.94181	0.6992	89.86	-0.2527	0.0458	0.2985	1333.5029	0.182225	-349.872714	-349.86391	-349.862966	-349.906267	34.415	
C	 0.0692509088	 1.5662990291	 0.0116788471	-0.37333
C	 0.0740243985	 0.0435237583	 0.1983878955	-0.238642
C	-1.320198148	-0.5547508935	 0.0661888015	 0.067563
C	-2.0214178308	-0.7436572738	-1.323004398	-0.060254
C	-1.0975780876	-1.9687704944	-1.5768615062	-0.247532
C	-1.5556703127	-2.0926664317	-0.0953877604	-0.076646
C	-2.9987115679	-1.749726421	-0.6147603996	-0.167561
C	-4.0156662931	-1.2694542429	 0.2984007693	 0.306781
C	-4.8903698655	-0.8988840935	 1.0370451982	-0.447772
H	 1.06938526	 1.9871655104	 0.1537954808	 0.110949
H	-0.2688349004	 1.8411541439	-0.9932436243	 0.116738
H	-0.6021659201	 2.0509491259	 0.7289630067	 0.117145
H	 0.7808807431	-0.404903774	-0.5073032699	 0.09627
H	 0.4556003057	-0.1968416316	 1.1996669284	 0.097741
H	-1.978136131	-0.098872558	 0.8131531043	 0.079372
H	-2.31388408	 0.0289396201	-2.0358292477	 0.074921
H	-1.4759099562	-2.7274925206	-2.2677430141	 0.090527
H	-0.0422436454	-1.7717400019	-1.7603982547	 0.097928
H	-1.3055819605	-2.8815244698	 0.6161215272	 0.074126
H	-3.4155918994	-2.5055834414	-1.2880029615	 0.092022
H	-5.6571590475	-0.5669286895	 1.6922405772	 0.189655
70.2437	125.2327	155.7204	195.4497	229.8913	329.0421	387.4601	446.5893	499.7821	511.2576	605.4377	613.4137	639.8398	739.2682	772.5248	834.5842	838.8395	879.7017	900.2236	901.494	965.5514	1016.3483	1023.0667	1048.0741	1051.8569	1089.5482	1103.0399	1111.479	1139.5949	1163.4834	1186.8159	1212.9004	1230.3882	1231.0534	1264.6701	1298.6136	1350.5656	1375.7339	1410.6407	1441.1955	1484.8659	1500.628	1506.715	1532.2658	2228.0632	3022.4205	3031.6542	3050.7269	3053.6574	3062.0302	3071.3704	3097.1461	3100.9393	3103.3892	3104.1618	3143.2253	3503.6852
CCC1C2CC1C2C#C	CC[C@H]1[C@H]2C[C@@H]1[C@H]2C#C	
InChI=1S/C9H12/c1-3-6-8-5-9(6)7(8)4-2/h1,6-9H,4-5H2,2H3	InChI=1S/C9H12/c1-3-6-8-5-9(6)7(8)4-2/h1,6-9H,4-5H2,2H3/t6-,7-,8-,9+
