20
gdb 119623	4.12688	0.96838	0.87944	1.9807	75.9	-0.2466	0.0808	0.3274	1379.9095	0.171659	-440.249294	-440.240558	-440.239614	-440.28322	32.148	
C	-0.2135180209	 1.3438330225	-0.0717720184	-0.220802
O	-0.1596996361	-0.062286823	-0.0888991481	-0.240423
C	 0.7347820767	-0.5660674984	-1.0611758426	-0.151974
C	 0.7078359743	-2.0638859091	-0.9888246773	 0.315726
C	 1.0139051769	-2.7492620755	 0.3354133221	-0.146134
O	 1.2516015526	-4.117111989	 0.0075920301	-0.259896
C	 1.8345545767	-4.159725536	-1.2913181861	-0.10726
C	 1.2256294938	-2.9839565909	-2.0352759696	-0.10532
N	-0.2196623874	-2.7843345236	-1.8725542539	-0.366957
H	 0.7692835074	 1.7884791564	 0.1540702402	 0.101903
H	-0.5595310198	 1.7504946752	-1.0350425146	 0.107289
H	-0.9204001419	 1.6349828178	 0.7088089638	 0.128501
H	 0.4442096654	-0.2404430392	-2.071572364	 0.100584
H	 1.756228075	-0.1932717762	-0.8648672408	 0.082849
H	 1.8988830617	-2.2846112653	 0.8004354256	 0.093644
H	 0.1891573594	-2.7166924471	 1.0522855031	 0.125268
H	 2.9312554693	-4.0523574789	-1.2507619248	 0.09656
H	 1.5993224112	-5.1375002645	-1.7251933041	 0.114437
H	 1.6619749356	-2.6524803742	-2.9724758776	 0.095232
H	-0.6251185499	-3.579083901	-1.3792039029	 0.236773
68.2863	101.6186	121.9224	225.1837	246.5778	279.584	328.896	353.9664	417.5717	451.3104	673.3179	715.7765	775.6091	874.5197	893.2465	935.3583	961.2364	980.621	996.1052	1032.7746	1074.0156	1087.1884	1108.0459	1145.9604	1155.3987	1182.7816	1185.4935	1211.8804	1226.4793	1251.6412	1260.8643	1301.1929	1321.0747	1353.2193	1371.6807	1408.2567	1468.8925	1484.2072	1485.9326	1498.3409	1506.7029	1518.3794	1520.7035	2943.4846	2969.0909	2969.5239	2976.4189	3005.8552	3013.4446	3068.5865	3093.4028	3115.3511	3161.5407	3471.2332
COCC12COCC1N2	COC[C@]12COC[C@H]1N2	
InChI=1S/C6H11NO2/c1-8-3-6-4-9-2-5(6)7-6/h5,7H,2-4H2,1H3	InChI=1S/C6H11NO2/c1-8-3-6-4-9-2-5(6)7-6/h5,7H,2-4H2,1H3/t5-,6+/m1/s1
