19
gdb 126262	1.87296	1.73933	0.97109	2.5541	78.14	-0.208	0.0436	0.2516	1238.2263	0.158891	-419.241611	-419.23186	-419.230916	-419.276646	35.161	
C	-0.0006263885	 1.631660602	 0.0895239142	-0.3629
C	-0.0761933043	 0.0996261848	-0.0423283854	-0.325601
C	 0.6554505573	-0.4527777423	-1.2297576163	 0.005454
C	 0.1273117279	-0.7807739316	-2.4637980501	 0.374071
O	-1.1243909311	-0.7428143857	-2.9749495196	-0.430812
N	 1.1366769157	-1.2262862622	-3.2401084391	-0.264193
N	 2.3305100158	-1.2186445674	-2.5865158955	-0.304498
C	 2.0416402295	-0.7508340961	-1.3772720321	 0.294628
C	 3.1211114285	-0.6013237234	-0.3520635059	-0.498165
H	 1.0378960626	 1.964619814	 0.178458814	 0.126116
H	-0.4270782591	 2.1239021685	-0.7905940227	 0.113394
H	-0.5449254575	 1.9802384865	 0.9735384092	 0.109784
H	 0.3156380896	-0.3586997675	 0.874017975	 0.111984
H	-1.1331272452	-0.203989345	-0.0818494163	 0.078766
H	-1.7200718835	-0.409534392	-2.2958754438	 0.30963
H	 1.077765407	-1.5547391524	-4.1881207667	 0.273395
H	 3.2697160869	 0.446397101	-0.0660670051	 0.125168
H	 2.8857582988	-1.1552028349	 0.5642706449	 0.123162
H	 4.0625336495	-0.9830584063	-0.7528466587	 0.140617
37.1079	120.6199	144.5714	184.3982	188.2488	245.339	270.3926	287.023	344.6072	414.2588	453.8904	506.5803	578.1569	680.0764	685.0556	734.8827	757.8403	807.6562	964.5895	999.0543	1002.8249	1062.3453	1083.4801	1133.1008	1150.9935	1176.9271	1246.8223	1297.0406	1350.7438	1370.8264	1402.9006	1409.1342	1432.298	1478.2579	1483.0942	1488.6875	1495.9343	1504.4325	1514.974	1586.3993	1640.8119	2991.0518	3028.2581	3032.8962	3042.5862	3076.276	3102.5156	3108.9791	3130.3986	3685.793	3830.0122
CCC1=C(O)NN=C1C	CCc1c(O)[nH]nc1C	
InChI=1S/C6H10N2O/c1-3-5-4(2)7-8-6(5)9/h3H2,1-2H3,(H2,7,8,9)	InChI=1S/C6H10N2O/c1-3-5-4(2)7-8-6(5)9/h3H2,1-2H3,(H2,7,8,9)
