20
gdb 57797	3.889	0.62637	0.59185	3.233	85.35	-0.2388	0.0297	0.2685	1957.894	0.167943	-403.165615	-403.15429	-403.153345	-403.20542	38.911	
C	-0.1729859238	 1.5664522825	 0.6027694344	-0.373847
C	-0.0330207027	 0.1884252551	-0.0741488805	-0.124749
C	 0.9272233908	-0.727293389	 0.7112274386	-0.372003
C	-1.3388251124	-0.4494771486	-0.243602655	 0.140163
C	-2.4137410851	-0.9806679702	-0.3478244129	 0.039909
C	-3.7106782096	-1.6204241086	-0.4885931071	-0.495283
C	-4.0342340958	-2.6273955667	 0.6350825418	 0.425775
N	-5.0729329866	-3.4633965957	 0.3273535229	-0.527376
O	-3.4681010286	-2.6499133195	 1.7038537379	-0.335729
H	 0.8056737211	 2.0504217394	 0.6850103062	 0.109057
H	-0.8353579779	 2.2211348051	 0.03010416	 0.119224
H	-0.5896111189	 1.4588876808	 1.608852987	 0.128416
H	 0.3975738371	 0.348350643	-1.0729915339	 0.099178
H	 1.9108086246	-0.2551981388	 0.8039503214	 0.10741
H	 0.5382018787	-0.9183744466	 1.7157089558	 0.133381
H	 1.0501816797	-1.6903474867	 0.2090595873	 0.121464
H	-4.5120192699	-0.8678497483	-0.4793594689	 0.155349
H	-3.7885933199	-2.1242975641	-1.4614594551	 0.1301
H	-5.4395310137	-3.54227154	-0.604918309	 0.257322
H	-5.3107957569	-4.178014313	 0.9956460389	 0.26224
10.8187	18.4732	59.9896	115.9014	180.324	182.8431	226.326	263.2329	284.0035	323.5178	359.6302	405.3341	489.8381	529.8178	540.1727	605.6386	646.8444	747.6459	818.932	894.1065	931.3839	949.8631	963.1716	1074.3481	1089.4182	1121.0668	1153.8652	1210.0789	1222.0914	1272.4964	1325.2349	1351.1558	1375.4063	1394.8547	1417.2193	1450.188	1484.7283	1489.2365	1497.8797	1510.3458	1618.4342	1820.2128	2374.3667	3000.4157	3008.2734	3035.4637	3037.2986	3039.3551	3107.4077	3112.3508	3118.0577	3121.8548	3601.9949	3735.7168
CC(C)C#CCC(N)=O	CC(C)C#CCC(=O)N	
InChI=1S/C7H11NO/c1-6(2)4-3-5-7(8)9/h6H,5H2,1-2H3,(H2,8,9)	InChI=1S/C7H11NO/c1-6(2)4-3-5-7(8)9/h6H,5H2,1-2H3,(H2,8,9)
