18
gdb 50537	2.19971	1.6036	1.01106	3.1651	72.62	-0.2426	-0.0286	0.214	1166.0704	0.146069	-439.029403	-439.020711	-439.019767	-439.063882	30.947	
O	-0.7757408529	 1.5125255655	 0.598580205	-0.248151
C	 0.0739614651	 1.0551463771	-0.1209273168	 0.140759
C	 1.4621468098	 1.6562937804	-0.2538366913	 0.029345
O	 2.3610076917	 0.8225070682	-1.0035696293	-0.287447
C	 2.5377897817	 1.8314211954	-2.0228212898	-0.08521
C	 1.582271773	 2.8039427508	-1.299888915	-0.02323
N	 0.3550790865	 3.0816349353	-2.0112963479	-0.061915
C	-0.4669786095	 4.1682045813	-1.4792977753	-0.213044
C	 0.2976904173	 4.3482708974	-2.7420727438	-0.236252
H	-0.0869850145	 0.1520539944	-0.7490898462	 0.093978
H	 1.8471509368	 1.8999199504	 0.7441179369	 0.103724
H	 3.581998257	 2.1548290652	-2.0988671325	 0.105855
H	 2.1775084073	 1.4975324128	-3.0018000949	 0.116464
H	 2.0677147276	 3.7098583278	-0.9057279367	 0.071144
H	-1.5373129173	 3.9923188574	-1.4980166353	 0.133528
H	-0.1067155574	 4.691530442	-0.5961583367	 0.12064
H	 1.1738832803	 4.9938365387	-2.7101463917	 0.114206
H	-0.2055901926	 4.3107576799	-3.7032199085	 0.125607
64.6458	66.0009	107.759	147.1589	234.8973	269.8102	335.3548	403.9304	495.3193	542.2338	727.8368	812.7213	830.1051	890.3549	894.6359	923.7936	980.9937	1007.3417	1029.2514	1051.7191	1081.485	1096.7841	1107.7544	1115.7445	1121.947	1165.9937	1172.2317	1202.4518	1234.3947	1261.5302	1305.4683	1324.8064	1346.3893	1381.0771	1397.0526	1491.8225	1513.6469	1518.932	1826.5639	2902.5206	2975.5533	3028.0457	3038.3553	3082.9193	3100.4761	3111.4163	3188.9578	3206.52
O=CC1OCC1N1CC1	O=C[C@H]1OC[C@H]1N1CC1	
InChI=1S/C6H9NO2/c8-3-6-5(4-9-6)7-1-2-7/h3,5-6H,1-2,4H2	InChI=1S/C6H9NO2/c8-3-6-5(4-9-6)7-1-2-7/h3,5-6H,1-2,4H2/t5-,6-/m1/s1
