20
gdb 108277	2.78995	1.32485	1.05615	3.9401	79.33	-0.2392	0.0299	0.2691	1204.8314	0.171281	-403.167086	-403.158417	-403.157473	-403.200434	33.181	
C	 0.0080143962	 1.5708884601	-0.1102926245	-0.387397
C	 0.0260139297	 0.0474810034	 0.0654126278	-0.263039
C	-1.3588710817	-0.564258239	 0.0658568636	 0.393121
C	-2.3030286725	-0.3390046622	 1.2918215683	-0.273017
C	-2.5910527537	-1.8682079583	 1.3536223034	-0.227593
C	-1.663451092	-2.1044282905	 0.1229575351	-0.273671
C	-2.4178942832	-1.8912869965	-1.201977353	 0.43074
O	-3.1040015608	-2.5596935032	-1.9279195405	-0.36573
N	-2.0640357911	-0.5530353991	-1.2284815243	-0.371761
H	 1.0217181117	 1.9810400465	-0.0891412075	 0.120935
H	-0.4418709154	 1.8520523717	-1.0685484138	 0.117259
H	-0.5653341285	 2.0583333728	 0.6856823426	 0.120557
H	 0.6126752408	-0.4128368133	-0.7383891696	 0.105882
H	 0.5221145256	-0.2094603942	 1.0095442908	 0.099985
H	-1.779976539	 0.0371361624	 2.1748468753	 0.105752
H	-3.1608425557	 0.308392739	 1.0966168476	 0.101305
H	-2.2078976298	-2.3360097916	 2.2623309877	 0.111911
H	-3.6281972303	-2.181307354	 1.2176750931	 0.121114
H	-0.9023773259	-2.8814499859	 0.1691560268	 0.093259
H	-2.5386686643	 0.2064161922	-1.699825829	 0.24039
89.3268	110.0925	156.7921	210.7215	226.0256	339.0063	351.3447	399.2168	470.304	503.8964	636.0138	665.1126	737.0841	751.003	786.3212	806.1908	902.1958	925.4606	940.0927	969.1216	985.3853	997.0322	1029.1078	1085.0556	1109.3988	1128.8016	1157.6805	1211.1625	1214.6223	1230.9984	1257.3081	1279.5208	1305.8237	1314.5684	1347.7674	1384.8268	1412.8571	1471.6379	1479.4331	1493.7221	1502.6558	1505.9799	1886.2242	3026.9007	3034.5158	3060.829	3064.0736	3074.6696	3102.0034	3108.3781	3109.5389	3127.2912	3136.2658	3572.4554
CCC12CCC1C(=O)N2	CC[C@]12CC[C@H]1C(=O)N2	
InChI=1S/C7H11NO/c1-2-7-4-3-5(7)6(9)8-7/h5H,2-4H2,1H3,(H,8,9)	InChI=1S/C7H11NO/c1-2-7-4-3-5(7)6(9)8-7/h5H,2-4H2,1H3,(H,8,9)/t5-,7-/m0/s1
