13
gdb 132314	2.02424	1.9673	0.99797	5.7263	65.13	-0.2298	-0.0258	0.204	1066.4832	0.091587	-490.280075	-490.272701	-490.271757	-490.312007	27.824	
N	 0.0015307982	 1.325873326	 0.105989636	-0.570825
C	-0.0157468365	-0.0251633598	 0.035816943	 0.522437
N	-1.1766659408	-0.6485028385	 0.022025701	-0.395873
C	-1.0575121334	-1.9921901663	-0.0066950044	 0.322116
F	-2.2245236241	-2.6059130292	-0.0152831109	-0.052237
N	-0.0122290207	-2.7487415414	-0.0315187631	-0.37147
C	 1.212645964	-2.1103158377	-0.0207862431	 0.415838
N	 2.37318281	-2.6319481522	-0.0356648493	-0.572801
N	 1.1563421638	-0.6912488079	 0.0127283032	-0.354642
H	 0.8302189915	 1.8458915451	-0.1261456034	 0.271542
H	-0.8883702742	 1.7806898364	-0.0179560482	 0.286035
H	 2.2777547437	-3.6454475196	-0.0577238899	 0.229811
H	 2.0503410786	-0.2235016048	 0.050130589	 0.270068
126.1163	195.9368	203.6286	280.7778	340.6073	380.3645	482.1557	542.6344	565.5618	595.0111	612.3981	666.1836	734.4194	736.8208	796.4189	854.1446	956.4884	1003.0377	1073.9695	1118.961	1172.0287	1305.5936	1333.052	1435.2451	1534.8708	1594.655	1662.6098	1668.6429	1747.766	3520.9398	3608.4968	3618.3434	3734.3419
NC1=NC(F)=NC(=N)N1	N[C@@H]1N=C(F)N=C([NH])N1	
InChI=1S/C3H4FN5/c4-1-7-2(5)9-3(6)8-1/h(H4,5,6,7,8,9)	InChI=1S/C3H5FN5/c4-1-7-2(5)9-3(6)8-1/h2,6H,5H2,(H,7,8,9)/t2-/m1/s1
