15
gdb 132590	3.14282	1.38832	0.96933	3.1241	73.15	-0.2221	-0.0343	0.1878	1131.7081	0.113152	-458.161024	-458.15324	-458.152296	-458.19312	29.838	
C	-0.0499795507	 1.5155748007	-0.0299441147	-0.502878
C	-0.0170800508	 0.0125137201	-0.0141322667	 0.284051
N	-0.0091665246	-0.6383950235	-1.1709482876	-0.274719
C	 0.0077145082	-1.9748050474	-1.1605246835	-0.17959
C	 0.0207591561	-2.6461828161	 0.0526620916	 0.296853
F	 0.0404145925	-3.9750836891	 0.0679146699	-0.069375
N	 0.0215755973	-2.0484420136	 1.2229870548	-0.363834
C	-0.0019117317	-0.7124624266	 1.2061240732	 0.324983
N	-0.0588047434	-0.07643821	 2.4233687348	-0.565712
H	 0.8451311028	 1.9496659461	 0.4366243929	 0.122994
H	-0.0967072755	 1.8641573528	-1.0622596263	 0.14935
H	-0.9196660964	 1.9040432081	 0.5142007828	 0.134981
H	 0.0115910832	-2.5056200039	-2.1055644874	 0.120779
H	 0.1663478489	-0.6591392718	 3.215491881	 0.262999
H	 0.2803525842	 0.8698599141	 2.4757225951	 0.259115
121.6303	172.6765	239.9124	295.8227	339.1529	346.0018	405.687	481.8916	494.2009	524.1853	540.7301	587.7094	695.7469	741.2408	771.6768	797.8182	876.7673	982.9508	1020.9425	1057.7717	1129.7252	1222.9945	1257.0048	1302.4215	1346.4526	1403.5026	1463.5253	1483.2516	1485.7705	1509.5837	1603.425	1614.9514	1644.3757	3011.153	3061.8982	3144.8855	3194.5161	3587.4294	3706.6652
CC1=NC=C(F)N=C1N	Cc1ncc(F)nc1N	
InChI=1S/C5H6FN3/c1-3-5(7)9-4(6)2-8-3/h2H,1H3,(H2,7,9)	InChI=1S/C5H6FN3/c1-3-5(7)9-4(6)2-8-3/h2H,1H3,(H2,7,9)
