14
gdb 129276	3.45176	1.74398	1.16705	4.5575	71.61	-0.219	-0.0523	0.1666	966.7595	0.103558	-432.86723	-432.860658	-432.859713	-432.89835	25.423	
N	-0.1651069471	 1.2983821968	-0.0101311005	-0.613158
C	-0.0546613182	 0.0389732151	-0.0093937031	 0.47713
O	 1.0960547072	-0.7278002025	 0.0003654942	-0.259902
N	 0.7803188443	-2.1339069528	-0.0028309075	-0.253213
C	-0.5114135227	-2.1384763477	-0.0138910671	 0.45
C	-1.5926772593	-3.1121554993	-0.0236733792	-0.197007
C	-2.7481737973	-2.4257615064	-0.0337414327	-0.077596
C	-2.5149974735	-0.9268822917	-0.0311882016	-0.230981
N	-1.070135563	-0.8898425205	-0.0180896144	-0.118845
H	 0.7490527314	 1.743662645	-0.0022342674	 0.233917
H	-1.4562880258	-4.1826103537	-0.0227137076	 0.145174
H	-3.7429795056	-2.8505332315	-0.0427577161	 0.134411
H	-2.9290434872	-0.4325589608	-0.9194749496	 0.155037
H	-2.9450916832	-0.4330555601	 0.8497034326	 0.155033
108.8313	187.1488	290.3294	304.2617	454.0199	566.3126	643.5746	667.435	673.4526	710.4016	752.4848	792.0612	800.2206	867.4686	874.8296	940.0056	959.1765	1011.2082	1011.7805	1099.9168	1151.1921	1185.2801	1213.0768	1284.5728	1358.4485	1392.7416	1452.057	1503.4029	1613.6356	1682.3998	1789.8171	3024.9212	3052.8191	3232.2398	3266.3285	3538.8789
N=C1ON=C2C=CCN12	[NH][C@H]1ON=C2C=CCN12	
InChI=1S/C5H5N3O/c6-5-8-3-1-2-4(8)7-9-5/h1-2,6H,3H2	InChI=1S/C5H6N3O/c6-5-8-3-1-2-4(8)7-9-5/h1-2,5-6H,3H2/t5-/m1/s1
