18
gdb 56015	3.97045	1.02208	0.86946	6.4206	73.63	-0.244	-0.0016	0.2423	1302.5748	0.149727	-439.126116	-439.118079	-439.117135	-439.15946	30.103	
O	 0.0413524544	 0.185697627	 0.9802641904	-0.372881
C	 0.0010575878	 1.3370866496	 0.2942683992	 0.387728
O	 0.9922075805	 1.8511976173	-0.1530177358	-0.330103
C	-1.3935838382	 1.959425455	 0.1642415512	-0.321792
C	-2.5177737433	 0.9703798841	-0.2200352539	-0.057615
N	-2.6259569745	-0.1424175354	 0.7746890422	-0.322754
H	-2.7375514992	-1.0123481679	 0.2676545882	 0.243095
H	-0.891243444	-0.0849696569	 1.1840293533	 0.302536
C	-3.848463333	 0.0896916207	 1.5872241769	-0.221957
C	-4.6072383841	 1.1512934396	 0.8283581131	-0.078189
C	-3.8802269131	 1.623847348	-0.1789866241	-0.057682
H	-1.6471146033	 2.4164187332	 1.1295007265	 0.127122
H	-1.3272070723	 2.7638739749	-0.5709499845	 0.130186
H	-2.2851966198	 0.5492441622	-1.205728019	 0.100504
H	-4.4083973611	-0.8441417804	 1.7097283557	 0.11994
H	-3.5858114317	 0.4319115128	 2.5979544937	 0.127708
H	-5.5948225985	 1.4868410941	 1.1199981171	 0.111461
H	-4.1641322866	 2.4162361322	-0.8604712601	 0.112692
65.2895	101.07	146.9272	199.629	287.8947	377.9772	420.8272	494.7619	605.989	686.7797	730.3566	745.9451	807.884	825.672	858.1143	886.5582	935.9494	962.9089	967.0464	980.0465	1005.8177	1024.0739	1069.5641	1105.5029	1128.7343	1188.4167	1223.0993	1260.4168	1283.3679	1319.3932	1350.0685	1359.1785	1379.1091	1446.2388	1463.7856	1490.4493	1507.3461	1686.519	1860.5723	3009.8115	3027.4001	3041.6903	3058.013	3119.9787	3202.9492	3226.8527	3249.3747	3547.1877
[O-]C(=O)CC1[NH2+]CC=C1	OC(=O)C[C@H]1NCC=C1	
InChI=1S/C6H9NO2/c8-6(9)4-5-2-1-3-7-5/h1-2,5,7H,3-4H2,(H,8,9)	InChI=1S/C6H9NO2/c8-6(9)4-5-2-1-3-7-5/h1-2,5,7H,3-4H2,(H,8,9)/t5-/m0/s1
