20
gdb 116568	5.03253	0.80038	0.76383	2.1609	84.77	-0.2382	0.0309	0.2691	1588.0469	0.169639	-403.133085	-403.123905	-403.122961	-403.168102	33.958	
C	-0.4811843002	 1.4081654507	-0.0320511753	-0.359158
C	 0.1799804266	 0.0451443149	 0.1767490317	-0.150069
N	 0.775406311	-0.4247291323	-1.0719321916	-0.33417
C	 1.9645954362	-0.8056504592	-1.082447535	 0.453229
C	 2.9189588862	-1.3312473178	-2.1357779842	-0.466366
C	 3.8986283729	-1.3868189685	-0.9685030583	 0.456282
C	 4.8841703787	-2.4167431689	-0.5468487353	-0.331235
C	 5.3257094185	-0.9867916564	-0.8507962149	-0.331038
O	 2.8996416746	-0.8843352591	-0.0512510066	-0.283452
H	 0.2631877078	 2.1645734445	-0.2997811647	 0.116296
H	-1.2159790995	 1.3578779861	-0.8406205335	 0.123898
H	-0.9877926538	 1.7352481773	 0.8815999778	 0.106948
H	 0.9097509846	 0.0980090781	 0.9953091663	 0.108321
H	-0.5851688041	-0.6842773304	 0.4725219254	 0.106727
H	 2.6360724478	-2.2926054638	-2.5694744736	 0.136892
H	 3.1578300309	-0.6230056018	-2.9317104186	 0.136604
H	 4.8691935195	-2.7208407766	 0.4939883051	 0.13283
H	 5.1425273995	-3.2033452116	-1.2481752357	 0.122405
H	 5.8860983805	-0.7953552593	-1.760019333	 0.122355
H	 5.5977801223	-0.3616306361	-0.0074753461	 0.1327
28.7369	82.2261	132.8489	164.1222	251.6229	287.5589	308.7546	369.3469	440.0124	493.8017	557.5753	581.9331	753.9181	774.9619	819.5854	842.1919	885.8767	907.7978	920.1118	949.7917	997.9573	1040.8659	1050.597	1058.8381	1075.3333	1092.1605	1115.8915	1150.2496	1171.1893	1184.7744	1224.5868	1272.3097	1302.5663	1382.035	1385.7713	1406.6202	1449.9858	1467.0368	1488.489	1492.9484	1506.7956	1510.3851	1849.7925	3009.259	3037.4016	3044.7959	3077.5254	3108.1391	3117.4706	3130.4784	3131.3408	3133.5239	3214.855	3228.2223
CCN=C1CC2(CC2)O1	CCN=C1CC2(CC2)O1	
InChI=1S/C7H11NO/c1-2-8-6-5-7(9-6)3-4-7/h2-5H2,1H3	InChI=1S/C7H11NO/c1-2-8-6-5-7(9-6)3-4-7/h2-5H2,1H3
