16
gdb 44330	3.18029	1.94319	1.54203	3.479	71.35	-0.2176	-0.0203	0.1973	864.806	0.126855	-400.752183	-400.745894	-400.744949	-400.782735	26.01	
O	 0.1420762724	 0.1919002571	 0.5147520884	-0.297232
C	 0.0862669713	 1.286511922	 0.0442023319	 0.396965
C	-1.1039758902	 2.2682846275	 0.0858681293	-0.359494
C	-0.6990827019	 3.3921357413	-0.8406387933	-0.062466
C	 0.5561292584	 4.2598148629	-0.5997152174	-0.102184
C	 1.4467544473	 3.9689345592	 0.5654683506	-0.094002
C	 1.8219102563	 2.6891686211	 0.5211750095	-0.096545
N	 1.2204767669	 1.9753758672	-0.5973860012	-0.159647
C	 0.6277067958	 3.0208745639	-1.4507547038	-0.048084
H	-2.0221241966	 1.7744283772	-0.2449422507	 0.136691
H	-1.2517993619	 2.5539765741	 1.1328579029	 0.142891
H	-1.4582625938	 3.8445340987	-1.4673550173	 0.100726
H	 0.5436721337	 5.2460621134	-1.0479780594	 0.099203
H	 1.7658873914	 4.7017564346	 1.2933651631	 0.109699
H	 2.4115350839	 2.117469206	 1.223986423	 0.133845
H	 0.8365771671	 2.9742512736	-2.5125386854	 0.099634
110.31	256.3202	341.7742	467.3594	494.5073	580.407	624.5885	699.4496	714.1952	743.6271	775.7401	810.3612	817.1217	842.7263	914.0629	925.7756	952.1803	978.3249	1016.078	1023.4519	1046.3659	1079.4795	1093.65	1099.4354	1142.4015	1159.1899	1193.9466	1271.8272	1283.7932	1332.1643	1358.3845	1376.7752	1455.8116	1645.5602	1878.2573	3055.4749	3097.8597	3175.7271	3180.2527	3192.0219	3225.3424	3250.6865
O=C1CC2C3C=CN1C23	O=C1C[C@H]2[C@H]3C=CN1[C@@H]23	
InChI=1S/C7H7NO/c9-6-3-5-4-1-2-8(6)7(4)5/h1-2,4-5,7H,3H2	InChI=1S/C7H7NO/c9-6-3-5-4-1-2-8(6)7(4)5/h1-2,4-5,7H,3H2/t4-,5+,7-/m1/s1
