21
gdb 66369	2.22723	1.37451	1.29871	1.2578	83.31	-0.2594	0.0365	0.2959	1149.9846	0.182703	-387.080669	-387.071704	-387.07076	-387.113606	35.764	
O	-0.0826803315	 1.4037190892	 0.02010898	-0.462595
C	 0.0298756781	-0.021406922	-0.0385088793	 0.205352
C	 0.7885536922	-0.5523297876	 1.2007332817	-0.225596
C	 0.7362081749	-2.0818315047	 1.3159145368	-0.203515
C	-0.7131619811	-2.588787838	 1.3134963587	-0.180025
C	-1.4775696979	-2.0819936994	 0.0821264862	-0.20632
C	-1.4166415072	-0.5537494772	-0.0312175396	-0.204943
C	 0.7294282452	-0.4125958494	-1.2734430693	 0.338482
C	 1.3293650289	-0.7038978786	-2.2746659232	-0.523866
H	 0.7974567333	 1.7718185163	-0.1159927464	 0.278061
H	 1.8262659017	-0.2006854523	 1.1675669241	 0.08815
H	 0.3154912012	-0.0894748333	 2.0751231117	 0.102474
H	 1.2812608843	-2.5266682892	 0.4740219077	 0.107587
H	 1.2527842872	-2.4000715036	 2.2280261768	 0.092665
H	-0.7319001044	-3.6837393513	 1.3455867566	 0.090664
H	-1.2204449765	-2.2399362122	 2.2237501164	 0.092493
H	-1.0481589833	-2.5281348726	-0.8236883748	 0.107256
H	-2.5242292394	-2.4024002682	 0.1234071765	 0.093561
H	-1.9145429362	-0.0873020955	 0.8275665851	 0.103672
H	-1.9271595076	-0.2002431791	-0.9314956467	 0.107578
H	 1.8482997083	-0.9591086814	-3.165681719	 0.198865
113.7622	140.6131	202.8685	246.1947	276.0998	323.5888	327.6591	381.3148	427.2325	451.5543	522.2955	565.8365	616.8896	626.7555	661.465	676.6567	789.9107	830.4025	860.8065	909.9371	949.1938	954.9736	979.2792	1040.9538	1061.9053	1085.0122	1089.8448	1146.3358	1174.5595	1196.4587	1280.2754	1285.3423	1292.9975	1338.818	1358.2645	1371.8412	1374.3576	1380.6992	1399.4636	1477.0195	1483.8221	1485.0497	1492.0723	1504.4508	2223.3748	3012.1796	3026.8463	3029.5615	3030.3123	3037.7641	3064.7698	3067.4958	3073.2375	3079.2895	3093.7209	3499.3928	3804.6209
OC1(CCCCC1)C#C	OC1(CCCCC1)C#C	
InChI=1S/C8H12O/c1-2-8(9)6-4-3-5-7-8/h1,9H,3-7H2	InChI=1S/C8H12O/c1-2-8(9)6-4-3-5-7-8/h1,9H,3-7H2
