19
gdb 99644	2.36248	1.15366	0.84935	2.6194	76.86	-0.2459	0.023	0.2689	1365.9753	0.158096	-419.178232	-419.168428	-419.167484	-419.213455	35.028	
C	-0.4905533813	 1.3203517465	-0.0121633356	-0.323418
N	 0.0192103606	-0.0402833307	 0.0639371567	-0.083535
C	 1.4165638305	-0.2681713916	-0.2775046309	-0.253608
C	 0.9381681092	-0.4465424785	 1.1230920494	 0.009323
C	 1.3979456352	 0.493758718	 2.2345440294	-0.198766
C	 0.4048465466	 0.509787012	 3.4264848513	-0.069862
O	 0.8046681381	 1.3829896733	 4.4542675387	-0.415982
C	 2.7200563268	 0.0913199505	 2.7246995206	 0.267061
N	 3.7399824476	-0.2362831759	 3.1603294214	-0.32456
H	 0.2461929733	 2.1060099629	 0.2197080651	 0.106338
H	-0.846530992	 1.4952590105	-1.0318585867	 0.134824
H	-1.3433649199	 1.4318558096	 0.664937396	 0.130829
H	 1.6292781746	-1.1290861743	-0.905012641	 0.127092
H	 2.0414606316	 0.6035971505	-0.4734219953	 0.11424
H	 0.7599869654	-1.4604858425	 1.4789047588	 0.109497
H	 1.4899220558	 1.5188045711	 1.8620012138	 0.133252
H	-0.560603494	 0.8736530876	 3.0643572031	 0.128148
H	 0.2621347234	-0.5205183748	 3.7853374772	 0.109321
H	 1.6117583487	 1.0340543055	 4.8500868782	 0.299805
55.4714	95.0427	117.8373	158.5274	200.8588	208.3512	277.2027	338.0492	373.7469	386.0614	423.9149	503.7243	533.5891	600.2596	750.8004	832.6319	890.222	920.558	1016.36	1029.6669	1047.32	1082.7704	1107.1921	1118.6499	1130.8865	1158.682	1176.4964	1200.5294	1205.4349	1249.3164	1330.4524	1342.9797	1391.7866	1417.5659	1419.0646	1452.8052	1486.4807	1502.5743	1504.046	1515.5684	2349.4478	2972.8903	2997.0394	3068.3303	3073.2493	3086.6177	3097.6251	3106.6276	3113.9095	3179.2924	3797.5633
CN1CC1C(CO)C#N	CN1C[C@H]1[C@@H](CO)C#N	
InChI=1S/C6H10N2O/c1-8-3-6(8)5(2-7)4-9/h5-6,9H,3-4H2,1H3	InChI=1S/C6H10N2O/c1-8-3-6(8)5(2-7)4-9/h5-6,9H,3-4H2,1H3/t5-,6+,8?/m1/s1
