16
gdb 52911	2.40542	1.12681	0.87226	4.6195	79.28	-0.2711	-0.0165	0.2546	1367.2187	0.122244	-400.709355	-400.699841	-400.698897	-400.745712	32.306	
C	 0.160593706	 1.5888674625	-0.1370403628	-0.503073
C	 0.0668245224	 0.1401961922	-0.0580348856	 0.12305
C	-0.0165483468	-1.0593703311	-0.004695275	 0.035551
C	-0.1099363866	-2.5068590289	 0.0849109335	 0.097696
C	 0.3404100546	-3.1690040874	 1.4312430166	-0.321311
C	-1.0961344255	-3.7167311913	 1.4817840033	-0.072444
O	-1.4629225797	-2.9925893255	 0.2814902043	-0.289679
C	 0.4989321727	-3.1375744159	-1.1043981931	 0.264375
N	 0.9859466152	-3.6564586031	-2.0146625862	-0.337888
H	 0.471540948	 2.0208348591	 0.8199690652	 0.155692
H	 0.8874521738	 1.8930377945	-0.8974782587	 0.162593
H	-0.8068687757	 2.0266209208	-0.4049048128	 0.162822
H	 1.1433249312	-3.8991457323	 1.3407696286	 0.141927
H	 0.5847968281	-2.4321288717	 2.1946824704	 0.137143
H	-1.1894495624	-4.7989450848	 1.342213198	 0.122591
H	-1.703561465	-3.4061124871	 2.3371881944	 0.120954
24.02	64.379	86.6783	109.3779	192.049	214.9399	304.3395	325.9698	457.9104	482.3622	511.4374	566.1486	587.3957	778.0707	855.5573	883.5144	950.8794	991.6922	1003.5827	1037.5029	1049.6497	1053.1327	1133.281	1166.4081	1211.4402	1257.654	1275.6571	1346.0625	1412.1064	1473.1238	1474.6969	1483.8671	1530.3251	2354.5396	2371.2959	3033.7003	3041.382	3089.2296	3098.2291	3099.7336	3105.4146	3170.2578
CC#CC1(CCO1)C#N	CC#C[C@]1(CCO1)C#N	
InChI=1S/C7H7NO/c1-2-3-7(6-8)4-5-9-7/h4-5H2,1H3	InChI=1S/C7H7NO/c1-2-3-7(6-8)4-5-9-7/h4-5H2,1H3/t7-/m0/s1
