17
gdb 88249	3.53652	0.76469	0.66324	1.5254	83.87	-0.2442	0.028	0.2722	1664.4552	0.132605	-384.604602	-384.594585	-384.593641	-384.641922	35.176	
O	-0.3584449949	 1.1090085538	-0.8243248032	-0.427186
C	-0.1563694283	-0.1208624109	-0.2115141534	 0.143171
C	-0.1862508164	-0.2103397896	 1.2834206464	-0.307306
C	-1.3278474681	-0.8226069879	 0.469234921	-0.229003
C	-2.6034354831	-0.1758911647	 0.4095870354	 0.02457
C	-3.6538637007	 0.4046330333	 0.2927718717	 0.127723
C	-4.9414595546	 1.0929466898	 0.1768649952	-0.49298
C	-5.1656551555	 1.6916886708	-1.1410207385	 0.309799
C	-5.3515214769	 2.1878134476	-2.218344674	-0.43961
H	-1.3013137947	 1.1997647377	-1.0147580913	 0.294078
H	 0.5416918108	-0.7596876538	-0.7482601067	 0.100866
H	 0.4853244954	-0.89628261	 1.7877006353	 0.118329
H	-0.4066071911	 0.706826606	 1.8163512357	 0.131885
H	-1.3478054967	-1.9060506131	 0.4018606413	 0.11527
H	-5.7529028797	 0.3855352586	 0.3972210781	 0.164235
H	-5.014845365	 1.8738114786	 0.9465484075	 0.163197
H	-5.5153839304	 2.6244311736	-3.1723492305	 0.202962
11.404	57.6031	91.3896	136.2273	149.4493	272.3612	294.8713	321.8084	393.051	409.2278	471.7514	539.3121	625.7435	640.0472	653.2411	732.4387	783.123	835.4593	908.9567	932.8652	952.4992	997.6006	1048.4619	1058.2441	1116.3062	1155.7878	1184.7445	1229.1608	1233.1504	1333.8321	1366.9832	1376.9524	1404.1038	1451.3527	1471.2005	2246.9561	2359.8305	3008.2748	3032.8788	3127.2322	3140.7026	3153.1749	3238.8552	3505.8952	3752.1792
OC1CC1C#CCC#C	O[C@H]1C[C@H]1C#CCC#C	
InChI=1S/C8H8O/c1-2-3-4-5-7-6-8(7)9/h1,7-9H,3,6H2	InChI=1S/C8H8O/c1-2-3-4-5-7-6-8(7)9/h1,7-9H,3,6H2/t7-,8+/m1/s1
