19
gdb 61575	3.45543	0.88191	0.78878	4.7809	72.68	-0.2497	0.023	0.2726	1467.4151	0.160006	-456.343083	-456.333985	-456.333041	-456.377816	33.301	
N	 0.0651364185	 1.3150021107	-0.0514933068	-0.537185
H	 1.2159511295	 0.5110178415	 1.2093473547	 0.305831
H	 0.4874387672	 2.2088296822	-0.2795257608	 0.245261
H	-0.4884083775	 1.0266193772	-0.8545288531	 0.253361
C	-0.8243350459	 1.4356435815	 1.1106915931	-0.129334
C	-1.9716770236	 0.4192920045	 0.9925554099	-0.14555
N	-2.7046185869	 0.637428596	-0.2485261131	-0.078839
C	-4.0324456088	 0.0393234419	-0.3319691008	-0.222942
C	-3.8750383608	 1.5110565109	-0.1716220641	-0.225782
C	-0.0484123581	 1.1330322902	 2.4062005392	 0.421624
O	-0.4899471725	 1.36223246	 3.5011407588	-0.349675
O	 1.1389132869	 0.5556685039	 2.1906910431	-0.365019
H	-1.2607598463	 2.436280736	 1.2229414752	 0.101139
H	-1.5520140205	-0.59375562	 0.9607468773	 0.11744
H	-2.6005356912	 0.4969846301	 1.8919981155	 0.119874
H	-4.299086048	-0.3859520036	-1.2949642294	 0.123641
H	-4.3917296313	-0.5191653702	 0.5302950349	 0.120842
H	-4.1276379356	 1.9372352884	 0.7976640863	 0.123143
H	-4.0261580951	 2.175683159	-1.0168686101	 0.122169
63.2241	80.0476	108.0183	138.6595	243.3429	322.0878	345.7947	366.8554	418.8412	439.8753	562.4283	659.714	714.7828	785.2939	832.0837	868.6263	884.4616	904.4583	920.5919	967.5936	1015.1066	1034.3891	1055.2059	1113.71	1122.4656	1125.887	1167.0042	1184.2305	1216.5529	1250.4073	1288.9096	1314.1616	1325.0039	1360.6222	1392.9754	1436.1198	1487.4427	1496.65	1524.8546	1659.1417	1867.4762	2995.7684	3025.1418	3059.9867	3101.1957	3105.554	3184.9524	3199.0931	3431.8593	3491.8133	3574.0526
[NH3+]C(CN1CC1)C([O-])=O	N[C@@H](CN1CC1)C(=O)O	
InChI=1S/C5H10N2O2/c6-4(5(8)9)3-7-1-2-7/h4H,1-3,6H2,(H,8,9)	InChI=1S/C5H10N2O2/c6-4(5(8)9)3-7-1-2-7/h4H,1-3,6H2,(H,8,9)/t4-/m0/s1
