20
gdb 119171	3.2451	1.01668	0.86093	2.3549	75.96	-0.241	0.0765	0.3175	1395.5724	0.169921	-440.217774	-440.208305	-440.207361	-440.252762	33.962	
C	 0.0946137333	 1.4237415624	 0.369986304	-0.228273
O	 0.0212154581	 0.0399827661	 0.1134428751	-0.245037
C	 0.9354897113	-0.3926170971	-0.8695527233	-0.142124
C	 0.7235661773	-1.8721052029	-1.1393063525	 0.278972
C	 0.2945345312	-2.7627717074	-0.0321420512	-0.271588
N	-0.6464786024	-2.3942672496	-1.1107643096	-0.350838
C	 1.6192390263	-2.4004249269	-2.2204071886	-0.006239
C	 1.1344781422	-3.3228118821	-3.2509143383	-0.165894
O	 1.3477696968	-1.9400352702	-3.5505441384	-0.245073
H	 1.0848238625	 1.7128045022	 0.7540988622	 0.109963
H	-0.1100544439	 2.0149969154	-0.5353994769	 0.11295
H	-0.6598213189	 1.6557953033	 1.1251711871	 0.13109
H	 0.7859563881	 0.165211562	-1.8083382931	 0.114932
H	 1.9740998388	-0.2129763975	-0.5418739944	 0.092764
H	 0.5997300714	-3.8056494538	-0.0302913108	 0.111742
H	 0.1512695951	-2.3135970011	 0.9450539613	 0.125798
H	-1.2542987107	-1.6544247966	-0.7643767412	 0.241103
H	 2.6821888847	-2.4127440435	-1.9697554277	 0.089447
H	 1.8332989282	-4.0132960222	-3.7215322749	 0.107363
H	 0.0938838404	-3.6326271505	-3.2138969289	 0.138943
62.7517	88.886	103.9549	147.3392	223.999	234.0809	259.9572	340.3435	357.3603	408.1951	481.7208	610.6989	725.1178	837.625	870.2977	880.1419	937.3953	959.8126	991.9773	1007.3995	1011.2615	1075.1869	1110.3836	1119.0164	1140.8539	1160.217	1162.3207	1177.0246	1187.6925	1225.0685	1259.6559	1287.2385	1290.6504	1312.9146	1378.8096	1416.0219	1456.5768	1479.3526	1485.8592	1500.2932	1504.3645	1518.9074	1527.3203	2953.6273	2980.2222	2992.4627	3027.4096	3084.5994	3094.3001	3115.6172	3119.1109	3197.8112	3209.9711	3495.4872
COCC1(CN1)C1CO1	COC[C@]1(CN1)[C@H]1CO1	
InChI=1S/C6H11NO2/c1-8-4-6(3-7-6)5-2-9-5/h5,7H,2-4H2,1H3	InChI=1S/C6H11NO2/c1-8-4-6(3-7-6)5-2-9-5/h5,7H,2-4H2,1H3/t5-,6-/m1/s1
