15
gdb 76248	2.77186	1.36507	1.08134	1.8233	68.22	-0.2521	-0.042	0.2101	1101.3776	0.109487	-457.71767	-457.70874	-457.707796	-457.751364	32.697	
O	 0.1481605213	 1.3513592072	 0.0156593171	-0.422826
C	 0.028664516	-0.038956481	-0.0004335589	 0.090576
C	 0.2264863799	-0.6220752843	 1.4441015007	-0.002921
O	 0.9863042636	 0.1623406144	 2.3213478041	-0.435954
C	-1.2969950555	-0.5147564965	 1.5817549008	 0.345058
O	-1.9765848425	-0.2328883264	 2.5226580772	-0.292832
C	-1.48397128	-0.4982333409	 0.0442486375	-0.354252
C	-2.5149265245	 0.3144351036	-0.5476488985	 0.343675
C	-3.3844790067	 0.9892482731	-1.0285917696	-0.412386
H	 0.7299591403	 1.5620927671	 0.7612725897	 0.29459
H	 0.6213144919	-0.4981662059	-0.7982121045	 0.086766
H	 0.5813970247	-1.6598301577	 1.4212875202	 0.114581
H	 0.3932267865	 0.4576840516	 3.025387996	 0.309493
H	-1.5391798018	-1.5364473773	-0.3097600414	 0.13543
H	-4.1462220733	 1.595490083	-1.4524371505	 0.201004
75.0955	115.583	147.781	184.4329	253.1616	287.1071	333.339	361.6365	485.7971	494.5798	527.2014	600.6968	630.3613	638.323	653.0497	782.2987	807.3446	859.5944	932.3399	979.6507	1046.8025	1093.4066	1137.3014	1157.0383	1202.0854	1249.2774	1298.4779	1350.2703	1366.7831	1378.3815	1400.9145	1888.6173	2244.7882	3024.5617	3035.0019	3055.8104	3505.0536	3715.601	3759.7699
OC1C(O)C(=O)C1C#C	O[C@H]1[C@@H](O)C(=O)[C@H]1C#C	
InChI=1S/C6H6O3/c1-2-3-4(7)6(9)5(3)8/h1,3-4,6-7,9H	InChI=1S/C6H6O3/c1-2-3-4(7)6(9)5(3)8/h1,3-4,6-7,9H/t3-,4+,6+/m0/s1
