18
gdb 23445	3.57488	1.16829	1.04347	1.5603	75.59	-0.2426	0.0022	0.2447	1176.635	0.148508	-439.035545	-439.027681	-439.026737	-439.068382	30.16	
O	-0.0381071046	 1.3564677467	 0.3718697456	-0.392504
N	 0.0576418635	-0.0465512285	 0.4247299291	-0.239921
C	-1.0092164057	-0.589268177	 0.0130418893	 0.439903
C	-2.3597548718	-0.1180425011	-0.4792089936	-0.336638
C	-2.8063568463	-1.6149329538	-0.5370924765	-0.034487
C	-2.9327985873	-2.215200421	-1.9375141243	-0.09334
O	-1.5995576101	-2.3430300633	-2.4179892854	-0.247869
C	-0.8173962398	-2.796053486	-1.3206126572	-0.091656
C	-1.3608600322	-2.0587161235	-0.0830130414	-0.152294
H	 0.8198584037	 1.6312138675	 0.7124953158	 0.306345
H	-2.902235393	 0.5139765193	 0.2296602413	 0.125785
H	-2.332645589	 0.3934340741	-1.4468716844	 0.130572
H	-3.6328250377	-1.875202874	 0.1239483248	 0.079371
H	-3.4249518533	-3.2010436133	-1.8887907482	 0.088277
H	-3.4823785867	-1.5867604933	-2.644147199	 0.111754
H	-0.931988282	-3.8839188126	-1.1840113293	 0.089404
H	 0.2302008465	-2.5746582966	-1.5366332468	 0.125075
H	-1.2522769843	-2.6370786735	 0.8362927201	 0.092224
53.461	156.518	189.9769	255.5694	329.2082	377.7016	380.7056	471.0372	541.9214	625.9591	705.0794	750.2236	790.892	854.028	867.7541	924.1581	940.6664	969.6142	985.5785	1020.4495	1032.4476	1072.6126	1106.5957	1151.8224	1154.4085	1186.9007	1202.9976	1239.5106	1253.3985	1274.5474	1292.6134	1322.7398	1349.5775	1393.947	1407.768	1452.0597	1499.002	1512.8315	1781.1192	2963.5583	2972.2209	3051.6896	3087.2321	3094.9633	3099.1916	3106.2521	3117.2127	3817.9115
ON=C1CC2COCC12	ON=C1C[C@H]2COC[C@@H]12	
InChI=1S/C6H9NO2/c8-7-6-1-4-2-9-3-5(4)6/h4-5,8H,1-3H2	InChI=1S/C6H9NO2/c8-7-6-1-4-2-9-3-5(4)6/h4-5,8H,1-3H2/t4-,5+/m0/s1
