21
gdb 101248	3.25273	0.87529	0.80664	2.6353	75.48	-0.25	0.0629	0.3129	1491.7465	0.179648	-461.340133	-461.329671	-461.328727	-461.375519	38.963	
C	 0.0179348531	 1.5878432017	-0.137968164	-0.441442
C	 0.0020281196	 0.084702343	 0.0207956611	 0.391749
O	-1.2105059698	-0.514477193	-0.3688675857	-0.469227
C	 1.255783541	-0.7335834465	-0.1733955849	-0.359494
C	 0.6208006773	-0.6025893903	 1.2043757241	-0.068673
C	 1.2992159796	 0.1467227912	 2.3225011105	 0.077121
O	 0.3692131683	 0.8992391398	 3.1195897052	-0.446608
C	 2.098790486	-0.7765319801	 3.2481244626	-0.057549
O	 2.6532787745	-0.0519746195	 4.3228969104	-0.426785
H	 0.9675927845	 2.0234726511	 0.1813653742	 0.122414
H	-0.1309901195	 1.8589532867	-1.1905666515	 0.103876
H	-0.7828156928	 2.0432973336	 0.4510119832	 0.133831
H	-1.3097807625	-0.3850807992	-1.3189743784	 0.280108
H	 1.1602267943	-1.6889583011	-0.6764783529	 0.11494
H	 2.1914327241	-0.2121924275	-0.3513247127	 0.112821
H	 0.0629627609	-1.4799163246	 1.527516371	 0.092612
H	 1.9852243255	 0.9018495279	 1.9236898054	 0.091109
H	-0.3922941174	 0.3330827973	 3.2912616808	 0.284583
H	 1.4340405097	-1.5857311618	 3.6041021498	 0.070762
H	 2.9222355888	-1.2469547592	 2.700093433	 0.109634
H	 1.9536967047	 0.5535352505	 4.6027275287	 0.284219
57.9036	105.084	117.132	182.9406	203.6932	249.7833	292.0726	308.9804	323.1862	350.1014	378.3121	426.4907	486.5972	522.6007	523.9301	571.812	723.1181	844.5993	873.64	896.1555	923.6492	968.516	1023.42	1043.2873	1056.4719	1067.1436	1091.3313	1102.3038	1120.6185	1155.5298	1211.2507	1226.4229	1272.057	1292.9108	1304.34	1364.5117	1383.4743	1407.9066	1419.7078	1431.2083	1445.4957	1477.5904	1485.7498	1504.3525	1507.9716	2931.7797	3028.7819	3054.826	3072.8543	3097.9422	3125.21	3126.539	3129.1456	3220.0256	3758.7722	3788.9384	3796.1458
CC1(O)CC1C(O)CO	C[C@@]1(O)C[C@H]1[C@@H](O)CO	
InChI=1S/C6H12O3/c1-6(9)2-4(6)5(8)3-7/h4-5,7-9H,2-3H2,1H3	InChI=1S/C6H12O3/c1-6(9)2-4(6)5(8)3-7/h4-5,7-9H,2-3H2,1H3/t4-,5-,6+/m0/s1
