21
gdb 100802	3.88563	0.72752	0.70197	0.8584	81.05	-0.2555	0.0489	0.3044	1666.613	0.178474	-424.185049	-424.173746	-424.172802	-424.221749	40.425	
C	-0.098886275	 1.5951458739	-0.088453221	-0.41743
C	 0.0277977285	 0.066799453	-0.0245892596	 0.031729
C	 0.7177272008	-0.4742093103	-1.2799272529	-0.090579
O	-0.0735789799	-0.1275871699	-2.4089718519	-0.426499
C	 0.771491066	-0.443162314	 1.2290247298	 0.119727
O	 2.1148756419	 0.0174162771	 1.2828122104	-0.4303
C	 0.0089913711	-0.1308406687	 2.5367548589	-0.409752
C	 0.6220577865	-0.7285819376	 3.7155208065	 0.311636
C	 1.1249851719	-1.2317185782	 4.6838858833	-0.432828
H	 0.8860046077	 2.0752413701	-0.0402412296	 0.104301
H	-0.5562085662	 1.8851141117	-1.0361926066	 0.143409
H	-0.7152912799	 1.9964653791	 0.7214125924	 0.112344
H	-0.9818756842	-0.3662332181	-0.0056671699	 0.081302
H	 1.7295684379	-0.0500699769	-1.3490496049	 0.10015
H	 0.8238606273	-1.5678074444	-1.1963131225	 0.083392
H	 0.4180624711	-0.3589675848	-3.2018159749	 0.28734
H	 0.8621240389	-1.5331613673	 1.1525836323	 0.097554
H	 2.1054780966	 0.9504530243	 1.521253982	 0.283048
H	-0.055982231	 0.9576246502	 2.6694190146	 0.124619
H	-1.0252094609	-0.4845473659	 2.4368603829	 0.133037
H	 1.572556191	-1.6736596333	 5.5390957204	 0.1938
59.356	68.4669	99.7093	117.5811	210.9815	217.1053	243.246	253.0127	272.93	304.2563	325.8225	347.9857	393.5489	468.0075	536.6166	618.6963	636.312	669.6134	830.431	865.2938	923.5467	945.7194	961.6097	1005.4288	1030.0502	1081.1762	1106.6141	1120.5032	1172.5021	1189.5601	1238.9169	1269.524	1288.8667	1308.4	1346.0998	1365.8273	1382.163	1404.421	1425.5662	1456.0312	1468.2465	1493.965	1513.0051	1523.9617	2241.6228	2969.9413	3009.6011	3015.0917	3026.965	3033.4716	3040.1179	3057.3493	3098.4385	3133.9049	3507.5409	3809.4346	3836.8259
CC(CO)C(O)CC#C	C[C@@H](CO)[C@@H](O)CC#C	
InChI=1S/C7H12O2/c1-3-4-7(9)6(2)5-8/h1,6-9H,4-5H2,2H3	InChI=1S/C7H12O2/c1-3-4-7(9)6(2)5-8/h1,6-9H,4-5H2,2H3/t6-,7-/m0/s1
