20
gdb 7348	4.10975	1.14432	0.92179	3.6048	74.45	-0.2252	0.0674	0.2925	1306.8005	0.175752	-382.35941	-382.34908	-382.348136	-382.39547	35.086	
C	-0.2321854053	 1.5007126755	-0.0485897745	-0.393557
C	 0.1579129614	 0.0299806868	 0.0642488336	-0.10483
N	 0.6712054703	-0.470316493	-1.2047882833	-0.381671
C	 0.6949874599	-1.8369113084	-1.4288655304	 0.505956
O	 0.1788164146	-2.6285529846	-0.6529522787	-0.427182
N	 1.3019260488	-2.232140533	-2.6065156029	-0.122684
C	 1.5159122113	-3.648423927	-2.836063335	-0.340668
C	 1.8275791729	-1.3075877897	-3.588268608	-0.349193
H	 0.629482437	 2.1270844126	-0.3093681145	 0.108439
H	-0.9985625483	 1.6444697974	-0.8160096304	 0.12541
H	-0.6240632486	 1.8646384901	 0.9057122904	 0.121665
H	 0.8913998698	-0.1062232189	 0.8732012492	 0.099748
H	-0.7036125209	-0.5878616458	 0.3229010389	 0.142332
H	 1.3993755412	 0.0853130131	-1.6244407283	 0.234575
H	 1.0704919522	-3.9597907955	-3.7894582466	 0.114772
H	 2.5867627701	-3.8937686776	-2.8634315412	 0.111555
H	 1.042310027	-4.1964389064	-2.0232587897	 0.170623
H	 2.8591536533	-0.9837784298	-3.3749747005	 0.114806
H	 1.8346769756	-1.7936790155	-4.5684096596	 0.132117
H	 1.1903246677	-0.4227022602	-3.6676343185	 0.137789
38.6285	85.6432	106.9475	127.7415	135.9051	183.7393	200.8046	277.7643	318.9315	349.2199	405.2821	480.2346	530.4542	624.4644	760.6274	801.0897	872.5495	921.8689	1024.2585	1088.027	1098.5338	1133.4846	1139.5249	1163.8872	1174.8044	1226.4194	1287.6795	1300.8913	1366.086	1403.5462	1415.8089	1432.0641	1470.1334	1492.3365	1496.3981	1498.3682	1500.1533	1507.6384	1521.003	1523.8506	1547.9958	1758.8911	2972.8988	2992.2936	3001.9692	3030.4497	3047.6593	3069.6175	3091.0496	3111.0875	3117.9745	3123.5174	3168.1884	3625.9383
CCNC(=O)N(C)C	CCNC(=O)N(C)C	
InChI=1S/C5H12N2O/c1-4-6-5(8)7(2)3/h4H2,1-3H3,(H,6,8)	InChI=1S/C5H12N2O/c1-4-6-5(8)7(2)3/h4H2,1-3H3,(H,6,8)
