18
gdb 121681	7.65882	0.55377	0.52312	5.0172	74.5	-0.267	-0.0382	0.2288	2028.8009	0.144141	-439.103222	-439.092677	-439.091732	-439.141358	34.781	
C	-0.0953227574	 1.3368903547	 0.1480070217	-0.231514
O	-0.0103536153	-0.0647783324	 0.029982979	-0.236415
C	 0.6518710004	-0.4739565708	-1.1446918264	-0.056721
C	 0.6731166759	-1.9962224478	-1.1470928326	-0.3156
C	 1.3623762464	-2.5781748036	-2.3646946501	 0.374128
O	 1.8399388659	-1.9048155967	-3.2409214785	-0.264459
C	 1.4100983285	-4.1204547374	-2.4024867973	-0.45585
C	 2.0707166372	-4.6570733755	-3.5850922182	 0.289527
N	 2.5900542612	-5.1031760478	-4.5144621235	-0.292231
H	 0.9011323296	 1.804362347	 0.1809701239	 0.108965
H	-0.6558032619	 1.7831673776	-0.6881976151	 0.108989
H	-0.6194247816	 1.5541033988	 1.0815576823	 0.129976
H	 0.1367033852	-0.0991116937	-2.0427206211	 0.106855
H	 1.6790773792	-0.078968097	-1.1801839716	 0.106697
H	 1.1711380189	-2.3661250492	-0.2410648762	 0.138476
H	-0.3521281479	-2.3859942178	-1.0947142486	 0.138727
H	 1.9190887357	-4.4807492808	-1.4999248537	 0.175353
H	 0.3858222399	-4.5087040576	-2.343439224	 0.175095
21.7806	41.6861	79.9207	86.4626	117.5516	172.1712	229.3487	281.4257	312.7356	368.8317	420.7175	467.2601	489.0337	701.4875	747.2952	860.3458	888.5305	946.4673	995.5163	1042.7871	1076.8366	1099.7456	1165.2946	1177.1359	1206.3153	1231.5524	1244.1926	1302.3204	1313.2761	1346.2152	1425.5009	1434.9291	1456.9771	1483.0706	1485.2436	1505.0634	1527.3823	1827.3339	2376.5402	2971.4997	2984.6513	3009.0592	3020.9135	3028.1452	3042.6062	3061.6386	3077.15	3118.4844
COCCC(=O)CC#N	COCCC(=O)CC#N	
InChI=1S/C6H9NO2/c1-9-5-3-6(8)2-4-7/h2-3,5H2,1H3	InChI=1S/C6H9NO2/c1-9-5-3-6(8)2-4-7/h2-3,5H2,1H3
