17
gdb 26505	3.68315	1.23152	0.99688	1.4255	74.03	-0.225	0.0139	0.2389	1172.1406	0.135811	-421.834258	-421.826321	-421.825377	-421.867118	30.139	
C	-0.2962320486	 1.3377648696	-0.829320557	-0.483531
C	-0.0532120158	 0.0585132793	-0.059755235	 0.301527
C	 1.1383220795	-0.7567867594	-0.3714722473	-0.224186
O	 1.1116682954	 0.0702385606	 0.7898964367	-0.274458
C	-1.239489616	-0.5971524162	 0.5429686043	 0.229259
C	-2.5515492479	-0.4094034959	 0.2288063489	-0.114664
O	-3.3494583424	-1.1980845808	 0.9960071106	-0.149153
C	-2.5293098018	-1.8985921318	 1.8242704972	 0.008918
C	-1.2323670373	-1.5770397763	 1.5967222166	-0.302942
H	 0.6506381746	 1.751905679	-1.1824743271	 0.128654
H	-0.9395142535	 1.15439862	-1.696635618	 0.123644
H	-0.7853657585	 2.082072752	-0.1935892442	 0.133159
H	 1.1163841681	-1.8296949091	-0.1858426767	 0.112614
H	 1.8155120562	-0.4350854488	-1.1627499148	 0.11234
H	-3.0609849334	 0.2144571113	-0.486250078	 0.135762
H	-3.0205547233	-2.5677314456	 2.5111290789	 0.138339
H	-0.3650305855	-1.949673878	 2.1173058448	 0.124718
55.4181	164.8317	178.9485	210.1383	322.036	359.9967	432.3108	469.8747	553.5697	619.7175	675.8988	736.9809	786.3213	793.885	843.5617	866.5425	894.1531	922.5368	971.4026	1020.2281	1047.4864	1095.4489	1101.0637	1138.5164	1163.2735	1167.8825	1203.2627	1261.3301	1330.5979	1378.7097	1401.3202	1419.1127	1483.8785	1497.3399	1524.0781	1542.7203	1632.5786	3040.0887	3075.7667	3105.7412	3130.3098	3164.6024	3263.5364	3278.8673	3288.2533
CC1(CO1)C1=COC=C1	C[C@]1(CO1)c1cocc1	
InChI=1S/C7H8O2/c1-7(5-9-7)6-2-3-8-4-6/h2-4H,5H2,1H3	InChI=1S/C7H8O2/c1-7(5-9-7)6-2-3-8-4-6/h2-4H,5H2,1H3/t7-/m0/s1
