20
gdb 103973	2.52466	1.42765	1.13828	1.5702	74.81	-0.228	0.0516	0.2796	1142.6252	0.169937	-440.221183	-440.212194	-440.21125	-440.254441	34.964	
C	-0.2558696776	 1.4431215348	-0.218011757	-0.314789
N	 0.0440598615	 0.0555360875	 0.096469979	-0.07266
C	 1.2963234215	-0.591618288	-0.2002298656	-0.041154
C	 2.5308332977	 0.2907299482	 0.0867577192	-0.321856
C	 2.1024164208	 0.3720218671	 1.5786149577	 0.397339
O	 2.9723415314	-0.4469092952	 2.3395103326	-0.474545
C	 1.9751185684	 1.7168648048	 2.2861787722	-0.153777
O	 1.5875548539	 1.5147408932	 3.6477646346	-0.427428
C	 0.8090811429	-0.4290669654	 1.2213718296	-0.144831
H	 0.6115519089	 2.114073411	-0.2804152309	 0.108363
H	-0.7638700573	 1.471638521	-1.1876112606	 0.124921
H	-0.9471606525	 1.8417189763	 0.5316027296	 0.118703
H	 1.2919618457	-1.4731804529	-0.8321256377	 0.094894
H	 3.4717070256	-0.255659923	 0.0094061139	 0.128216
H	 2.610184291	 1.2269532244	-0.4740561284	 0.096871
H	 2.7439272359	-0.2684878115	 3.2628129973	 0.28181
H	 2.959911804	 2.1942206605	 2.3274839715	 0.120008
H	 1.2843930218	 2.3945918227	 1.7740110532	 0.096726
H	 0.6617569762	 1.2478237848	 3.6508030479	 0.29139
H	 0.3607212701	-1.1688247505	 1.8788390721	 0.091798
92.0931	149.7192	168.2104	227.8947	268.8797	295.6386	347.7105	383.6022	384.1869	445.0628	498.1685	547.4081	575.4026	718.6098	726.2	823.5471	836.1876	901.1369	909.9207	960.1445	983.9328	1024.6543	1036.5937	1043.4102	1057.0666	1119.4519	1131.1984	1153.4368	1182.0252	1214.9853	1218.7174	1247.7013	1277.0719	1287.2592	1360.519	1386.6493	1400.2935	1422.8791	1450.8285	1471.3854	1489.792	1496.9025	1511.4093	3004.0279	3044.0508	3057.4728	3069.322	3093.7772	3097.962	3132.3095	3148.0411	3170.6589	3741.4094	3806.6278
CN1C2CC(O)(CO)C12	CN1[C@H]2C[C@@](O)(CO)[C@@H]12	
InChI=1S/C6H11NO2/c1-7-4-2-6(9,3-8)5(4)7/h4-5,8-9H,2-3H2,1H3	InChI=1S/C6H11NO2/c1-7-4-2-6(9,3-8)5(4)7/h4-5,8-9H,2-3H2,1H3/t4-,5-,6+,7?/m0/s1
