23
gdb 57564	3.78893	0.62735	0.62442	3.1247	84.12	-0.2507	-0.0232	0.2275	1905.6272	0.200767	-425.438992	-425.427516	-425.426571	-425.476915	40.562	
C	-0.0661627267	 1.5722273941	 0.0931788913	-0.415057
C	 0.0170601066	 0.0381667714	 0.0655535937	 0.368079
C	 0.5949161879	-0.505008519	 1.3819736341	-0.413636
C	-1.3690498341	-0.5620301028	-0.1891675865	-0.396162
O	 0.7867838048	-0.4192860252	-1.0626753914	-0.285788
C	 2.1305561039	-0.0082045714	-1.1696505815	-0.076303
C	 2.7164307447	-0.7066906779	-2.3999859849	-0.27216
C	 4.0803104147	-0.1699198503	-2.7643492463	 0.152382
O	 5.0742680085	-0.836417552	-2.8944139294	-0.23448
H	 0.8994487851	 2.0333328524	 0.3208810667	 0.114389
H	-0.4136108308	 1.9527021698	-0.8721663	 0.11944
H	-0.7719899337	 1.8977576142	 0.863368257	 0.117412
H	-0.0789637574	-0.2756515821	 2.213077652	 0.116591
H	 0.7130482444	-1.5911195496	 1.3253030532	 0.121687
H	 1.5668342647	-0.0630177233	 1.6203270159	 0.114569
H	-1.7719095568	-0.1952734588	-1.1373236897	 0.118207
H	-1.303929622	-1.6521263757	-0.2457029829	 0.12034
H	-2.0627971674	-0.2942950794	 0.6129173924	 0.1102
H	 2.2101456434	 1.0837984004	-1.2916778906	 0.090098
H	 2.7134148382	-0.2802752726	-0.2777101013	 0.101752
H	 2.7774694074	-1.7870786986	-2.2515443228	 0.12815
H	 2.0401801122	-0.5096195807	-3.2436181099	 0.129641
H	 4.1119769925	 0.935350657	-2.918194689	 0.070649
39.439	46.4847	70.7332	126.168	140.0051	206.4547	249.4434	265.7645	282.1508	290.4853	337.8137	363.6287	453.3003	456.5998	488.5439	543.4515	748.1745	792.6062	872.4958	885.6092	909.1911	921.4637	956.1762	1010.7977	1037.8519	1044.0717	1099.0545	1123.9278	1142.0741	1220.7685	1227.1623	1252.7837	1268.5727	1282.2007	1312.8885	1393.5191	1394.8682	1420.7025	1428.8806	1430.2676	1467.4667	1471.7648	1483.6963	1486.7954	1499.752	1500.5813	1517.2199	1531.888	1837.5131	2845.5807	2975.6717	3010.5035	3028.1393	3037.7558	3039.9729	3046.9258	3106.344	3111.2766	3113.0212	3115.0495	3118.5986	3121.0282	3123.5543
CC(C)(C)OCCC=O	CC(C)(C)OCCC=O	
InChI=1S/C7H14O2/c1-7(2,3)9-6-4-5-8/h5H,4,6H2,1-3H3	InChI=1S/C7H14O2/c1-7(2,3)9-6-4-5-8/h5H,4,6H2,1-3H3
