16
gdb 62279	3.26883	1.57303	1.33836	3.205	71.43	-0.2552	0.0296	0.2849	962.3378	0.124097	-400.692583	-400.685197	-400.684253	-400.724205	28.848	
C	 0.0176978811	 1.5403632217	 0.0354187411	-0.468872
C	 0.0482325149	 0.0141701686	-0.013543195	 0.139139
C	-1.2784753746	-0.5640134569	 0.1860916532	 0.251128
N	-2.3327048618	-1.0059964536	 0.3614054418	-0.344286
C	 0.7834741179	-0.697472965	-1.1648932826	-0.139224
C	 2.2515532394	-0.7600209555	-0.704968051	 0.057491
O	 2.3501841857	-0.0962182747	 0.5572996807	-0.279286
C	 1.1020892629	-0.7393535601	 0.8965240661	 0.036609
C	 1.2941593177	-1.8013676908	-0.2453108137	-0.133607
H	 1.0399274831	 1.9195261393	-0.0055840839	 0.14612
H	-0.5479277789	 1.9413581413	-0.8106762606	 0.133388
H	-0.4556867332	 1.8942008775	 0.9561264931	 0.134553
H	 0.4765618682	-0.7666277972	-2.2000707785	 0.111282
H	 3.108034767	-0.7774660512	-1.3645745597	 0.125743
H	 0.9416987112	-0.8834709375	 1.9618127749	 0.109641
H	 1.2589596791	-2.8791674159	-0.2945002259	 0.120177
147.4971	153.0229	204.1354	250.7365	286.9949	477.8386	504.1595	547.2884	590.3336	641.4885	779.5209	786.0572	804.943	820.0534	862.2044	887.3101	940.7192	943.5544	982.632	1027.6381	1032.3754	1057.3256	1074.9492	1138.805	1155.4949	1178.3551	1189.9851	1220.6786	1229.9019	1312.0231	1366.6776	1403.977	1488.0701	1496.628	2349.512	3048.3858	3115.8673	3147.3282	3162.5966	3208.9384	3219.23	3236.9323
CC1(C#N)C2C3OC1C23	C[C@@]1(C#N)[C@H]2[C@H]3O[C@@H]1[C@@H]23	
InChI=1S/C7H7NO/c1-7(2-8)4-3-5(4)9-6(3)7/h3-6H,1H3	InChI=1S/C7H7NO/c1-7(2-8)4-3-5(4)9-6(3)7/h3-6H,1H3/t3-,4+,5-,6+,7+/m0/s1
