16
gdb 49623	4.5047	0.96061	0.8858	2.3325	71.5	-0.2515	-0.0349	0.2166	1284.4274	0.122803	-437.813824	-437.80605	-437.805106	-437.8465	29.01	
O	-0.3708665267	 0.7028895391	-0.8284904905	-0.255986
C	 0.2367369452	 0.9800404342	 0.1736927075	 0.158761
C	 1.4699493277	 1.817267836	 0.1896770789	-0.107832
C	 1.6007088022	 2.8474088016	 1.2641523259	-0.151885
N	 2.3554849602	 1.5496068615	 1.3505121074	-0.14159
C	 3.6360183879	 2.3033430517	 1.064640398	-0.25819
C	 2.8710180023	 3.6324207359	 1.0301207893	 0.455991
C	 3.1107645964	 4.9320021853	 0.4036343165	-0.268294
O	 3.2409837224	 4.7350147105	 1.823886657	-0.268863
H	-0.0827557297	 0.6302791	 1.1797054542	 0.091453
H	 1.9046547776	 2.0128318162	-0.7882874272	 0.109444
H	 0.7977050505	 3.1077629272	 1.9460930097	 0.121982
H	 4.3008059334	 2.2412599576	 1.9286498678	 0.141635
H	 4.1581437289	 1.9697325787	 0.163341649	 0.121365
H	 4.0446212756	 5.1132871037	-0.125953347	 0.125459
H	 2.2683108962	 5.5482116009	 0.0937951335	 0.126551
84.9817	121.7045	215.5882	225.2649	301.2406	372.0587	398.424	451.0277	528.732	572.0791	804.3851	814.1207	836.2664	870.8229	888.4856	948.9402	992.874	1022.2622	1034.9299	1070.7697	1101.6727	1115.9401	1126.8284	1155.5479	1171.6908	1182.9299	1211.6882	1258.9874	1280.9053	1348.9758	1426.5165	1447.9189	1485.8998	1538.4498	1828.5106	2899.7556	3060.6139	3087.4573	3127.7938	3141.8987	3172.1309	3177.1634
O=CC1C2N1CC21CO1	O=C[C@H]1[C@H]2N1C[C@]12CO1	
InChI=1S/C6H7NO2/c8-1-4-5-6(3-9-6)2-7(4)5/h1,4-5H,2-3H2	InChI=1S/C6H7NO2/c8-1-4-5-6(3-9-6)2-7(4)5/h1,4-5H,2-3H2/t4-,5+,6+,7?/m0/s1
