17
gdb 64746	2.69105	1.28202	1.11	1.404	74.73	-0.2468	0.018	0.2648	1146.1054	0.134895	-417.961372	-417.952282	-417.951337	-417.995284	33.691	
N	-0.084347032	 1.5386137592	 0.0652649818	-0.557746
C	-0.0238820546	 0.0960655525	-0.011104012	 0.156789
C	 0.8262513618	-0.4551264584	 1.152439601	-0.386248
C	 2.1894998211	 0.0596548169	 1.1638169453	 0.30872
C	 3.3026060161	 0.5122236934	 1.1788236932	-0.436438
C	-1.3894140534	-0.6242541814	-0.1529995243	-0.112266
O	-0.9303583487	-1.2814987937	-1.3732968899	-0.258823
C	 0.2626231793	-0.5834333503	-1.3588872856	 0.385511
N	 1.1872026202	-0.5260075834	-2.2017406121	-0.538778
H	 0.8608092425	 1.9078044422	 0.1348421156	 0.249464
H	-0.483469192	 1.9232610766	-0.7859235325	 0.235838
H	 0.3232338376	-0.179544345	 2.0877250726	 0.1436
H	 0.8395380312	-1.5498126706	 1.1008968354	 0.139846
H	 4.2942859369	 0.8922040762	 1.1814631628	 0.202247
H	-1.6522862686	-1.3530962756	 0.6177944721	 0.119143
H	-2.2322905189	 0.0414940046	-0.3550900689	 0.1206
H	 0.9936005215	-1.1133779533	-3.0151592545	 0.228542
71.9872	94.2553	146.0353	196.4983	272.8332	280.6248	328.3885	350.6565	378.1492	481.3558	523.0581	625.2647	657.0812	689.3953	739.9005	763.0764	864.4301	881.2032	903.2749	919.6049	972.4839	993.8977	998.6545	1053.7603	1084.2543	1149.5681	1210.058	1231.0046	1286.9674	1310.4753	1350.8454	1395.9069	1460.0237	1515.0072	1663.2662	1821.2445	2240.0879	3028.8019	3058.742	3070.485	3120.2207	3469.9197	3488.8098	3505.0863	3565.2792
NC1(CC#C)COC1=N	N[C@@]1(CC#C)CO[C]1[NH]	
InChI=1S/C6H8N2O/c1-2-3-6(8)4-9-5(6)7/h1,7H,3-4,8H2	InChI=1S/C6H8N2O/c1-2-3-6(8)4-9-5(6)7/h1,7H,3-4,8H2/t6-/m0/s1
