21
gdb 75488	2.60826	1.48931	1.13954	1.149	85.04	-0.2135	0.0228	0.2364	1172.7909	0.182286	-387.091983	-387.08325	-387.082306	-387.124742	34.437	
C	 0.0813350419	 1.4893956995	 0.0646929632	-0.486877
C	 0.0042291485	-0.0100740972	-0.0065735112	 0.350906
C	-0.0596140953	-0.6874961293	-1.156266834	-0.196488
C	-0.1692039278	-2.1869194887	-1.1925778286	-0.139851
O	-0.779851145	-2.738696926	-0.0323818781	-0.298413
C	-0.3901445654	-2.2178170328	 1.2082356375	 0.442199
C	-1.247348308	-2.8306011055	 2.2863019006	-0.44522
C	 1.0391415485	-1.8593890644	 1.5009543438	-0.362356
C	-0.0079506851	-0.7559970363	 1.2799337346	-0.201576
H	 0.9832400811	 1.8130852943	 0.5994007636	 0.1259
H	 0.0920988749	 1.9397289509	-0.9314894237	 0.119623
H	-0.7729487967	 1.9022966539	 0.6164787324	 0.124752
H	-0.0330463865	-0.1699805956	-2.1110893623	 0.082832
H	-0.8030666255	-2.5049276142	-2.0276966929	 0.113996
H	 0.8182779846	-2.6530937658	-1.3575771078	 0.097716
H	-1.1075365224	-3.9160626894	 2.3156354605	 0.1245
H	-0.9888765237	-2.4221521798	 3.2667519178	 0.11304
H	-2.3051222436	-2.6291242591	 2.0909443628	 0.125653
H	 1.4072518735	-2.0208914835	 2.5087261128	 0.110801
H	 1.788101291	-1.9751891204	 0.7259166629	 0.119776
H	-0.319478839	-0.1939936205	 2.1557003962	 0.079089
121.0828	167.2619	197.7326	219.8932	268.2076	282.8975	349.2902	369.3189	408.3992	477.11	541.1449	577.7346	673.1833	724.3766	801.1408	818.3957	830.7578	896.2719	925.2692	941.7665	1000.6455	1034.1822	1045.0005	1048.613	1055.4373	1071.3466	1115.1448	1119.2092	1127.717	1193.6707	1255.4808	1273.3302	1292.9558	1343.4238	1400.9452	1408.883	1416.0849	1435.4817	1476.2078	1478.0053	1479.7216	1491.1316	1505.0102	1506.3144	1731.7768	2939.3044	3016.4424	3038.68	3057.472	3063.9625	3105.3731	3111.2484	3120.6914	3131.9178	3145.2367	3165.3051	3221.6101
CC1=CCOC2(C)CC12	CC1=CCO[C@@]2(C)C[C@@H]12	
InChI=1S/C8H12O/c1-6-3-4-9-8(2)5-7(6)8/h3,7H,4-5H2,1-2H3	InChI=1S/C8H12O/c1-6-3-4-9-8(2)5-7(6)8/h3,7H,4-5H2,1-2H3/t7-,8-/m0/s1
