17
gdb 15700	3.59016	1.74267	1.23637	3.9276	65.37	-0.2519	0.0169	0.2688	959.1502	0.1444	-401.02343	-401.016081	-401.015136	-401.055224	27.657	
O	-0.0438158055	 1.478066997	-0.1661749952	-0.425075
C	 0.0308123393	 0.0766134996	-0.1187050338	-0.066616
C	-1.3538020742	-0.5724261944	 0.032148701	-0.112617
C	-1.3820859702	-2.1074832649	 0.094625785	-0.254939
C	-2.6207462692	-2.3742710538	 0.9574825591	-0.093459
O	-2.722974754	-1.237969693	 1.8411842137	-0.2335
C	-2.0247556823	-0.1887670145	 1.3374751135	 0.446017
N	-1.9300049842	 0.9468510138	 1.8918137663	-0.565841
H	-0.555118272	 1.7403199955	 0.6188854375	 0.299013
H	 0.4902691511	-0.2582132066	-1.0558404253	 0.102252
H	 0.6742892883	-0.2779862206	 0.7057924305	 0.081628
H	-1.9890717455	-0.2097849224	-0.786558856	 0.113735
H	-1.4454266976	-2.5840312684	-0.8853322362	 0.118406
H	-0.482948273	-2.4805516235	 0.5978859381	 0.118903
H	-3.536002126	-2.432189642	 0.3562346899	 0.11852
H	-2.5517379139	-3.2694315926	 1.5789099794	 0.126101
H	-2.4502053011	 0.9860538205	 2.7683168823	 0.227473
92.3483	165.2686	193.7543	229.4597	328.056	400.6561	467.1888	608.3181	641.7161	660.0322	689.4478	777.9823	875.2912	886.234	946.0769	954.8396	1001.4394	1028.8219	1088.4972	1105.0034	1118.6243	1140.3366	1208.1449	1226.6843	1236.1845	1276.3348	1289.668	1332.7649	1360.4859	1395.0938	1415.2132	1484.2506	1492.6835	1509.2057	1524.1805	1759.64	2948.7995	3029.7601	3036.4807	3050.6139	3057.4723	3109.3108	3120.6409	3487.8074	3633.272
OCC1CCOC1=N	OC[C@H]1CCO[C]1[NH]	
InChI=1S/C5H9NO2/c6-5-4(3-7)1-2-8-5/h4,6-7H,1-3H2	InChI=1S/C5H9NO2/c6-5-4(3-7)1-2-8-5/h4,6-7H,1-3H2/t4-/m1/s1
