16
gdb 43544	2.46921	1.48512	1.09571	3.29	76.43	-0.2512	0.0163	0.2675	1111.3459	0.123002	-400.718124	-400.709606	-400.708662	-400.751456	31.745	
O	 0.0286400961	 0.0090392189	 0.0177471895	-0.365524
C	 0.0292247042	 1.2098343752	 0.0047877327	 0.40485
N	-0.9812024588	 2.1558367674	 0.0029546172	-0.354504
C	-0.0851434132	 3.3294730807	 0.0616521652	-0.239566
C	-0.1733134055	 4.1407001124	 1.2651985935	 0.345584
C	-0.2370499105	 4.8237944602	 2.2523373608	-0.44906
C	 1.0794722064	 2.3033826595	-0.0106537268	 0.184158
C	 2.3878726294	 2.2942787112	 0.7195052411	-0.316413
C	 2.3641560744	 2.346573209	-0.7841401052	-0.322815
H	-1.9577713948	 2.0805545797	 0.246712594	 0.256343
H	-0.1716160291	 3.9626560718	-0.8289171771	 0.116736
H	-0.2992834217	 5.4223561416	 3.1277493416	 0.205663
H	 2.6546580211	 3.1941208974	 1.263498805	 0.131629
H	 2.6703115042	 1.3638732452	 1.2001962185	 0.139422
H	 2.6317727221	 1.4530251026	-1.3381954036	 0.138584
H	 2.6279170258	 3.2807335572	-1.2687933064	 0.124912
67.9193	116.3628	188.9198	206.238	225.0935	286.6223	400.3973	416.4026	514.455	586.0923	628.3906	633.8087	664.5544	722.7811	770.6625	793.4408	840.7767	944.8047	960.9741	982.3982	1005.2423	1048.2877	1061.0637	1084.2502	1149.3007	1189.2019	1193.456	1262.6059	1340.1794	1363.4697	1389.8577	1458.1662	1498.2255	1895.9921	2236.0685	3036.7241	3131.8559	3134.9832	3214.7313	3229.2666	3500.3285	3617.4757
O=C1NC(C#C)C11CC1	O=C1N[C@@H](C#C)C21CC2	
InChI=1S/C7H7NO/c1-2-5-7(3-4-7)6(9)8-5/h1,5H,3-4H2,(H,8,9)	InChI=1S/C7H7NO/c1-2-5-7(3-4-7)6(9)8-5/h1,5H,3-4H2,(H,8,9)/t5-/m0/s1
