16
gdb 51403	3.26371	1.10239	0.94886	3.6617	71.09	-0.2596	-0.0338	0.2258	1224.5257	0.122237	-437.824792	-437.81667	-437.815725	-437.858636	29.4	
O	-0.2904260914	-0.0168079251	 0.3468570245	-0.231051
C	-0.0815935048	 1.0729270328	-0.1150023297	 0.157477
C	 1.2604570306	 1.7859680228	-0.039303539	-0.260221
N	 1.3647959715	 2.7652157227	-1.1235620806	-0.110606
C	 1.9342010182	 2.3050136753	-2.4647482558	-0.146824
C	 2.2317768859	 3.8053155989	-2.722837846	-0.220442
C	 2.6473674094	 3.5740311928	-1.2455635153	-0.138029
C	 3.302298917	 2.2471555865	-1.7270652132	 0.424548
O	 4.2079862628	 1.513084885	-1.4957482629	-0.309671
H	-0.8744380359	 1.6631296013	-0.6265198459	 0.089963
H	 1.2679619259	 2.3430022335	 0.9085596704	 0.141834
H	 2.0657064524	 1.0389861684	 0.0147609366	 0.143213
H	 1.4189065506	 1.5850821735	-3.0977162131	 0.11085
H	 3.0168040909	 4.050625218	-3.4383590287	 0.120378
H	 1.3324456265	 4.4128907927	-2.8282084979	 0.122626
H	 2.9440772506	 4.2988002107	-0.4895318136	 0.105954
55.4684	75.0614	130.283	172.278	317.2084	372.5076	425.6317	443.7453	586.1313	641.3724	701.1243	789.8001	797.4023	821.2638	869.5386	898.6948	951.0874	1012.2997	1016.23	1052.7611	1093.9042	1116.0925	1134.4464	1159.7169	1171.4934	1209.0075	1214.5494	1247.2134	1260.8528	1334.9544	1407.5687	1458.3586	1479.8171	1842.3643	1911.9383	2890.2895	2999.7879	3045.4915	3087.249	3143.5975	3148.2523	3168.9096
O=CCN1C2CC1C2=O	O=CCN1[C@H]2C[C@@H]1C2=O	
InChI=1S/C6H7NO2/c8-2-1-7-4-3-5(7)6(4)9/h2,4-5H,1,3H2	InChI=1S/C6H7NO2/c8-2-1-7-4-3-5(7)6(4)9/h2,4-5H,1,3H2/t4-,5+
