18
gdb 38041	3.6048	1.53413	1.23395	2.5813	76.55	-0.2294	0.0027	0.2321	1013.76	0.151145	-401.919344	-401.912545	-401.911601	-401.95053	27.478	
C	 0.0107376631	 1.5683851914	 0.0084860805	-0.098572
O	 1.4224897886	 1.8225234784	-0.0702532139	-0.274437
C	 2.1452237911	 0.7570224033	 0.5671826177	-0.162452
C	 1.1182203563	-0.3113425508	 0.7924478146	 0.280438
C	 0.8714167351	-1.2506052808	 1.7052655125	-0.217211
C	-0.5795772169	-1.6185000299	 1.6640668068	-0.070688
N	-1.4267746723	-0.45125526	 2.0573526878	-0.332473
C	-1.2131414206	-0.7486349924	 0.6260221266	-0.090475
C	-0.0995534519	 0.039952149	-0.0434544799	-0.063573
H	-0.411925588	 1.9466919499	 0.949338858	 0.112773
H	-0.4530673963	 2.0889456731	-0.8332619178	 0.103558
H	 2.9578680155	 0.4500132237	-0.1048782718	 0.111363
H	 2.5970404987	 1.1036981313	 1.5068521948	 0.111469
H	 1.5529458925	-1.6031458201	 2.4702505744	 0.099818
H	-0.9361624502	-2.6166925469	 1.8951451762	 0.090145
H	-2.3529197071	-0.791755881	 2.3114256457	 0.228452
H	-2.05452879	-1.0965318307	 0.0371180459	 0.087162
H	 0.0235893125	-0.2924279674	-1.0833790881	 0.084702
124.2636	177.7605	231.1615	353.8737	449.7226	479.4523	594.5757	636.9464	690.36	747.189	811.9255	830.723	848.7401	861.9322	897.9328	914.1955	958.9956	995.0804	1016.555	1048.2522	1062.8244	1071.0361	1102.553	1123.1538	1153.9513	1175.3053	1201.083	1219.6212	1243.5512	1273.1221	1290.6759	1320.2333	1351.3212	1369.7451	1390.9467	1410.5875	1507.5423	1519.3076	1722.2454	3000.5739	3008.394	3018.4052	3028.3469	3095.323	3163.4381	3173.4682	3202.5042	3476.2859
C1OCC2=CC3NC3C12	C1OC[C]2[CH][C@H]3N[C@H]3[C@@H]12	
InChI=1S/C7H9NO/c1-4-2-9-3-5(4)7-6(1)8-7/h1,5-8H,2-3H2	InChI=1S/C7H9NO/c1-4-2-9-3-5(4)7-6(1)8-7/h1,5-8H,2-3H2/t5-,6+,7-/m0/s1
