23
gdb 119993	2.04507	1.1984	0.89684	2.9382	83.07	-0.2428	0.0698	0.3125	1425.1979	0.205004	-425.398882	-425.388456	-425.387512	-425.434299	38.103	
C	-1.45995654	 0.5058577496	-2.3834058626	-0.234006
O	-0.7306569536	-0.6481604924	-2.0230342417	-0.234164
C	-1.2434094211	-1.8376370394	-2.621868284	-0.093152
C	-0.4638804736	-3.0163797783	-2.1026831032	-0.055609
C	-0.0816879853	-4.2001975611	-2.973495377	-0.047906
C	-0.4977666698	-4.359161467	-4.4228483563	-0.411155
C	 0.9868831926	-3.2405756132	-2.5006669684	-0.045392
C	 1.7087942698	-2.2564718125	-3.3992486154	-0.079139
O	 2.0825772042	-1.0835488328	-2.7006581748	-0.43355
H	-1.4441144619	 0.6757267528	-3.4708534781	 0.110846
H	-2.5091878683	 0.4331048112	-2.0601412038	 0.111589
H	-0.9925269891	 1.3573731839	-1.8841188355	 0.134508
H	-2.3091109121	-1.9420001356	-2.3625273159	 0.095624
H	-1.1881192009	-1.7488775019	-3.7160765283	 0.092973
H	-0.7016727855	-3.2510285296	-1.0689387859	 0.089647
H	-0.0923188274	-5.1479591273	-2.4402310893	 0.087115
H	-0.4747766095	-3.4232862331	-4.9847371832	 0.120679
H	 0.1705846307	-5.0596556891	-4.9353409687	 0.121756
H	-1.5141519219	-4.7625763442	-4.4934849012	 0.116939
H	 1.6220597435	-3.6022316521	-1.6962476264	 0.089978
H	 2.6384555786	-2.7054421691	-3.7676460759	 0.102095
H	 1.1050267239	-2.0155043856	-4.2876170599	 0.072177
H	 1.2642978068	-0.7309423932	-2.3198893643	 0.288146
86.0663	104.5212	127.6637	159.9173	166.4756	203.7709	226.4681	251.8674	286.8364	330.5858	417.7968	476.985	548.0156	570.0215	595.0381	748.8384	831.0049	853.1183	934.9491	960.4831	992.3104	1013.3391	1020.5198	1071.1992	1081.6359	1115.4703	1137.4532	1155.0088	1168.3237	1178.2836	1192.749	1223.5456	1245.9339	1271.636	1281.4892	1351.6845	1375.4867	1405.7909	1421.366	1430.4095	1458.0799	1469.378	1482.5634	1484.8925	1498.3879	1500.6968	1506.3773	1513.3385	1529.2999	2973.4128	2980.6191	2984.3548	3018.6101	3029.1322	3035.1039	3054.9018	3088.3857	3115.9949	3122.2216	3131.8818	3135.7274	3150.8623	3708.0117
COCC1C(C)C1CO	COC[C@H]1[C@@H](C)[C@H]1CO	
InChI=1S/C7H14O2/c1-5-6(3-8)7(5)4-9-2/h5-8H,3-4H2,1-2H3	InChI=1S/C7H14O2/c1-5-6(3-8)7(5)4-9-2/h5-8H,3-4H2,1-2H3/t5-,6+,7-/m0/s1
