14
gdb 129248	3.47988	1.61727	1.11188	4.4294	70.63	-0.243	-0.0066	0.2364	999.1845	0.105228	-432.891813	-432.885316	-432.884372	-432.922768	25.116	
N	 0.0076340281	 1.3282886452	 0.0113301151	-0.549853
C	-0.0455511551	 0.0672742457	 0.003876094	 0.328156
O	 1.0837057838	-0.7587623114	-0.0074323203	-0.272034
C	 0.7368382729	-2.1547881025	-0.0140767132	-0.193033
C	-0.755449873	-2.1127262481	-0.0056079879	 0.331434
C	-1.2016906586	-0.8169456401	 0.0048073467	 0.142332
C	-2.611193713	-0.914314357	 0.0120015096	-0.162777
N	-2.9927013816	-2.1877019605	 0.0063095917	-0.207974
N	-1.8357322979	-2.9113094779	-0.0045073051	-0.335991
H	 0.9770455378	 1.6483124523	 0.0079582792	 0.224838
H	 1.1630740049	-2.6253349567	-0.9087767046	 0.138302
H	 1.1728443803	-2.6362320061	 0.8700560984	 0.138302
H	-3.3543947783	-0.1322635866	 0.0209032825	 0.138146
H	-1.8966594803	-3.9152463262	-0.0103716362	 0.28015
164.1487	197.5931	236.9923	305.2963	502.5694	528.8358	619.1348	627.4553	644.7294	678.3974	751.3776	781.0395	865.2568	903.1911	952.8922	981.5731	1028.2418	1028.8061	1081.1122	1129.4994	1191.8488	1211.4351	1252.7078	1313.8524	1371.6334	1426.5383	1474.3644	1505.1501	1555.7958	1592.0437	1784.7731	3021.8772	3054.8048	3264.3309	3484.4867	3675.9137
N=C1OCC2=C1C=NN2	[NH][C]1OCc2c1cn[nH]2	
InChI=1S/C5H5N3O/c6-5-3-1-7-8-4(3)2-9-5/h1,6H,2H2,(H,7,8)	InChI=1S/C5H5N3O/c6-5-3-1-7-8-4(3)2-9-5/h1,6H,2H2,(H,7,8)
