21
gdb 120407	2.83632	0.93594	0.81633	2.7404	80.17	-0.2371	-0.0156	0.2215	1497.028	0.180057	-424.226428	-424.216342	-424.215398	-424.262165	35.962	
C	 0.1657519362	 1.3840918933	 0.0408035191	-0.229665
O	 0.0734507632	-0.0172224632	 0.1404408073	-0.231686
C	-1.2167339473	-0.5068235806	-0.1523452778	-0.060177
C	-1.1935944752	-2.0171096025	 0.0045016911	-0.051498
C	-1.0459833418	-2.4661618015	 1.4920663005	-0.340488
C	-2.5477547056	-2.7889703262	 1.4757774651	 0.386059
O	-3.384947149	-2.9261871618	 2.3207755945	-0.299622
C	-2.6037397074	-2.7099274461	-0.0604852795	-0.10367
C	-3.816356064	-2.0742040937	-0.7282945243	-0.416307
H	 1.1937668214	 1.6624702373	 0.2847583334	 0.12887
H	-0.0666247174	 1.7380449899	-0.9761487271	 0.10442
H	-0.5159928119	 1.8900568911	 0.7427387999	 0.105854
H	-1.9586549102	-0.0559519834	 0.5316271275	 0.086919
H	-1.5135553203	-0.2260829817	-1.1772256944	 0.08904
H	-0.4497135745	-2.4339108651	-0.6770147734	 0.082197
H	-0.4390511237	-3.368230435	 1.6180303096	 0.127734
H	-0.7081060253	-1.7151232168	 2.2095318038	 0.134767
H	-2.4659883806	-3.730795778	-0.4417018624	 0.106033
H	-3.9863791156	-1.0523771094	-0.377248144	 0.124822
H	-3.7076258037	-2.0474673553	-1.8170246896	 0.120086
H	-4.7137180273	-2.6537064713	-0.4921122692	 0.136312
50.8315	98.8979	107.0337	137.2487	188.4464	193.6278	232.8539	268.1055	337.5777	411.0875	458.317	490.2367	543.0895	696.0094	730.6908	840.7942	854.8902	890.7552	964.946	986.897	1019.9873	1036.4369	1085.0658	1111.3015	1151.1792	1158.1078	1164.2899	1181.5107	1201.9278	1227.6389	1236.4452	1255.2178	1290.9329	1336.5146	1357.8112	1410.404	1429.6592	1442.2622	1481.1269	1485.6689	1495.8717	1498.2293	1503.1067	1526.7866	1886.6653	2937.5174	2969.7835	2974.2859	3014.5745	3021.958	3042.0683	3061.8291	3093.5458	3109.7326	3115.3472	3116.1222	3122.5123
COCC1CC(=O)C1C	COC[C@H]1CC(=O)[C@H]1C	
InChI=1S/C7H12O2/c1-5-6(4-9-2)3-7(5)8/h5-6H,3-4H2,1-2H3	InChI=1S/C7H12O2/c1-5-6(4-9-2)3-7(5)8/h5-6H,3-4H2,1-2H3/t5-,6+/m0/s1
