23
gdb 63375	2.65378	1.30573	1.2207	1.2083	87.77	-0.2297	0.0197	0.2494	1215.7278	0.202538	-388.319809	-388.309623	-388.308679	-388.354048	39.403	
C	 0.3035466135	 1.633312137	-0.4774786212	-0.407809
C	-0.139349127	 0.1644138681	-0.3920131017	 0.316931
C	-1.6720265328	 0.0603203709	-0.4265495237	-0.407808
O	 0.3989527286	-0.5481928188	-1.5221994514	-0.334739
C	 1.2659624213	-1.6240954799	-1.1152454295	 0.316932
C	 0.6917847395	-2.9480504482	-1.6430618222	-0.40781
C	 2.667456359	-1.3751781328	-1.6940175745	-0.407808
C	 1.2419366563	-1.5450449049	 0.3938397143	-0.121727
C	 0.4615054342	-0.5518277728	 0.795475581	-0.121728
H	 1.3939377819	 1.7063947818	-0.4620125985	 0.116691
H	-0.0607810903	 2.0801067658	-1.4075901899	 0.120568
H	-0.0954030029	 2.2133836496	 0.3615262647	 0.107199
H	-2.05526969	 0.4924311334	-1.3559977958	 0.12056
H	-1.9864258858	-0.9851692206	-0.3752090551	 0.116695
H	-2.1214549792	 0.5998688439	 0.4139718757	 0.1072
H	 0.6238347441	-2.9172678289	-2.7348054796	 0.120562
H	 1.330027201	-3.7926933108	-1.362348293	 0.1072
H	-0.3088213547	-3.1202213272	-1.2384924751	 0.116694
H	 3.0717731841	-0.4289656016	-1.3255861672	 0.116692
H	 3.3563718166	-2.1795234664	-1.4147352106	 0.107199
H	 2.6181638448	-1.3293716814	-2.7862355978	 0.120564
H	 1.8020664233	-2.2282624856	 1.0210482392	 0.098871
H	 0.2541875845	-0.2583567807	 1.8176379421	 0.098871
65.4918	151.4795	194.844	201.2388	230.252	240.1662	299.6588	307.7516	325.4866	337.2789	352.5307	432.4119	484.443	575.8411	591.8612	664.6598	780.1672	807.2801	857.2153	860.2476	918.7616	920.1765	922.2303	954.8098	969.8594	1008.9967	1010.2264	1012.5105	1089.6282	1168.814	1185.1597	1198.3758	1217.51	1232.3288	1296.6786	1363.7355	1389.2683	1392.6695	1410.7387	1412.0262	1472.1524	1477.1758	1478.9079	1482.0464	1491.9533	1496.8157	1500.5136	1505.8552	1696.007	3033.	3033.3763	3037.9898	3039.2106	3103.2384	3103.7531	3109.9449	3111.033	3118.6271	3120.8734	3121.3063	3123.1838	3193.3287	3218.7779
CC1(C)OC(C)(C)C=C1	CC1(C)OC(C)(C)C=C1	
InChI=1S/C8H14O/c1-7(2)5-6-8(3,4)9-7/h5-6H,1-4H3	InChI=1S/C8H14O/c1-7(2)5-6-8(3,4)9-7/h5-6H,1-4H3
