21
gdb 116049	3.10796	1.1001	0.85554	1.7692	88.55	-0.2079	-0.0185	0.1894	1372.3142	0.184166	-387.098875	-387.089986	-387.089042	-387.132985	33.861	
O	-0.0581508174	 1.4807401499	 0.0863759781	-0.41913
C	 0.0150358048	 0.0679060513	-0.0360292816	-0.09377
C	-1.4096352118	-0.5009228187	 0.021772164	-0.038583
C	-1.3746293791	-2.0148756341	-0.2531599073	-0.216535
C	-2.7200420586	-2.6601821491	-0.6061959673	-0.262156
C	-3.7682631018	-2.6782807288	 0.4697196304	-0.073986
C	-3.8850760071	-1.879292627	 1.540333975	-0.059723
C	-3.077144582	-0.7342247774	 1.9540267954	-0.097025
C	-2.0570859317	-0.1271064208	 1.3308689628	-0.048887
H	 0.8350978385	 1.8225234518	 0.1828355194	 0.287935
H	 0.4827129756	-0.2189599507	-0.9907257458	 0.085159
H	 0.6184579607	-0.3712947706	 0.7751088351	 0.087582
H	-1.9621005822	-0.0079815198	-0.7931500668	 0.096689
H	-0.6887556358	-2.2003663282	-1.0892855195	 0.089633
H	-0.948279774	-2.5255302577	 0.6186577483	 0.106228
H	-3.1346982574	-2.1811896805	-1.506342781	 0.111676
H	-2.528587689	-3.698947462	-0.9077540991	 0.101934
H	-4.5241395918	-3.4522951222	 0.3497512909	 0.084692
H	-4.7210434277	-2.0875050756	 2.2053979615	 0.079244
H	-3.3897420503	-0.2970609381	 2.9004372332	 0.07991
H	-1.628200222	 0.7524338481	 1.8028827341	 0.099113
37.4101	115.1446	205.2387	221.6266	249.4645	274.8287	321.3059	399.4154	424.9422	468.912	554.3435	618.2275	708.7872	770.8941	815.5233	846.6329	884.1549	905.2208	931.2092	979.5348	1007.4104	1019.6694	1049.8168	1075.9816	1080.1101	1092.2116	1128.6448	1177.6368	1228.6523	1255.8131	1271.1806	1281.2005	1288.8443	1317.6379	1355.699	1379.2054	1388.7274	1433.0634	1452.7243	1460.7302	1469.7872	1489.0335	1519.9061	1685.2745	1715.3191	2963.5362	2981.9055	2993.6839	3002.618	3017.4473	3031.871	3064.7333	3125.0658	3137.5987	3155.0045	3173.7664	3835.2352
OCC1CCC=CC=C1	OC[C@H]1CCC=CC=C1	
InChI=1S/C8H12O/c9-7-8-5-3-1-2-4-6-8/h1-3,5,8-9H,4,6-7H2	InChI=1S/C8H12O/c9-7-8-5-3-1-2-4-6-8/h1-3,5,8-9H,4,6-7H2/t8-/m1/s1
