22
gdb 103809	2.60096	1.08837	0.9216	3.8566	84.51	-0.2359	-0.0157	0.2202	1408.8365	0.191484	-404.354554	-404.343943	-404.342999	-404.390448	38.507	
C	 0.5947695809	 1.711211753	 0.2701494483	-0.386272
C	-0.1235484973	 0.3882559334	-0.0263303934	-0.235076
C	 0.4421795002	-0.3290099272	-1.242751213	 0.325605
C	 0.2371349521	 0.3659988508	-2.5766970408	-0.462697
N	 1.7055441676	-1.0218259299	-1.0043362284	-0.340417
C	 0.51077585	-1.8429889521	-1.2826898854	-0.197322
C	-0.0155538508	-2.7306118741	-0.1903708266	 0.407072
C	-0.9077799014	-3.8662086441	-0.6640905214	-0.485362
O	 0.2282135638	-2.5546899672	 0.9819478841	-0.305521
H	 1.6674330015	 1.5393691897	 0.4023995519	 0.132043
H	 0.4630150058	 2.447637513	-0.5295283454	 0.107618
H	 0.2094406053	 2.1571714705	 1.191759803	 0.114576
H	-0.0284801854	-0.2716184027	 0.8374325459	 0.146471
H	-1.1944841417	 0.5692442625	-0.1867964752	 0.086005
H	 0.739324562	 1.3390573034	-2.5905780945	 0.131533
H	 0.6372867028	-0.2297979173	-3.4034471099	 0.110922
H	-0.8265400314	 0.5417151702	-2.7705249901	 0.126088
H	 2.2957582564	-0.9986538814	-1.8332510762	 0.229149
H	 0.4165390059	-2.2715484289	-2.2793068179	 0.077124
H	-0.3367555054	-4.5572806102	-1.2956891541	 0.139361
H	-1.3078193713	-4.4050157006	 0.1952556335	 0.142363
H	-1.7301032696	-3.4814378605	-1.2783650547	 0.136736
52.0297	83.3917	133.2472	140.7659	162.011	217.8025	223.9991	267.8819	325.9676	352.3746	379.8796	431.3086	492.8078	608.7135	625.073	694.7248	788.4298	803.3811	871.0147	899.2302	951.8745	978.411	991.625	1012.9588	1038.5458	1055.0463	1096.9004	1113.3705	1135.0503	1188.3064	1205.0884	1263.0968	1328.4639	1348.3032	1376.1589	1393.9729	1405.0453	1415.8387	1452.809	1465.6916	1475.356	1478.8491	1492.7618	1500.2188	1506.4678	1510.6561	1806.2069	3025.8159	3030.987	3031.2314	3037.773	3090.2903	3095.5204	3099.3557	3102.237	3112.6277	3116.5775	3127.2272	3153.7423	3487.1669
CCC1(C)NC1C(C)=O	CC[C@@]1(C)N[C@H]1C(=O)C	
InChI=1S/C7H13NO/c1-4-7(3)6(8-7)5(2)9/h6,8H,4H2,1-3H3	InChI=1S/C7H13NO/c1-4-7(3)6(8-7)5(2)9/h6,8H,4H2,1-3H3/t6-,7+/m0/s1
