21
gdb 85891	1.95249	1.48911	1.047	4.2116	79.3	-0.2371	-0.0144	0.2227	1245.2591	0.179417	-424.230897	-424.220808	-424.219864	-424.265802	37.484	
C	-0.8424699695	 1.0314736917	 0.0191449248	-0.417718
C	 0.1862139235	-0.0916165889	 0.0342091386	 0.034827
C	 1.5329084176	 0.101552581	-0.7117753861	-0.305401
C	 2.2545574886	-0.6268344446	 0.459862936	 0.411521
C	 2.5417226202	-2.0990752187	 0.1894558669	-0.448738
O	 3.3907414964	 0.0207320747	 1.0052546782	-0.473472
C	 0.9913668085	-0.4057646171	 1.3539084608	-0.163691
C	 1.1091086259	 0.7683591441	 2.2928595909	 0.174524
O	 0.7257891212	 0.7497275674	 3.4361013537	-0.268033
H	-0.4026347995	 1.9925456895	 0.3033928278	 0.120166
H	-1.2668933387	 1.147525525	-0.9839523031	 0.117974
H	-1.6670345992	 0.824488904	 0.7094611925	 0.128523
H	-0.2922822738	-1.0196996833	-0.293720409	 0.084174
H	 1.6288196096	-0.3251491358	-1.7142963779	 0.093304
H	 1.8302359758	 1.1541629908	-0.740646519	 0.10587
H	 3.328685928	-2.2013120809	-0.5688128704	 0.108463
H	 2.876298097	-2.5947250871	 1.1055720882	 0.132039
H	 1.6556097913	-2.6205654691	-0.1852521082	 0.123418
H	 4.1492012405	-0.1681628859	 0.4422592621	 0.277843
H	 0.650493958	-1.2667710232	 1.9332038489	 0.081254
H	 1.5680280986	 1.6827438863	 1.8623093442	 0.083154
60.8946	78.3039	175.5927	219.0754	233.2087	243.8943	264.9182	279.8253	333.3323	354.3851	414.6218	453.7626	479.6216	512.1527	601.5349	735.4679	852.1248	869.4938	912.5461	945.2168	960.5241	980.5163	992.4964	1025.3617	1101.6677	1112.6735	1135.0216	1164.2692	1184.8078	1214.2685	1258.3569	1264.6312	1273.8842	1311.7278	1365.0535	1374.0398	1404.8685	1415.427	1439.6151	1482.3305	1490.7236	1492.3361	1495.7703	1500.6444	1820.9057	2907.2832	3021.2424	3032.4177	3049.3612	3050.9753	3087.6209	3091.6647	3098.417	3103.5158	3109.1562	3116.5737	3804.7865
CC1CC(C)(O)C1C=O	C[C@H]1C[C@@](C)(O)[C@H]1C=O	
InChI=1S/C7H12O2/c1-5-3-7(2,9)6(5)4-8/h4-6,9H,3H2,1-2H3	InChI=1S/C7H12O2/c1-5-3-7(2,9)6(5)4-8/h4-6,9H,3H2,1-2H3/t5-,6-,7+/m0/s1
