19
gdb 23340	3.76844	0.93161	0.85601	0.3578	81.48	-0.2306	0.0227	0.2534	1412.8908	0.15896	-419.083568	-419.074762	-419.073818	-419.117274	33.161	
C	 0.0092119524	 1.5336547802	-0.1118971242	-0.379336
C	-0.0036307911	 0.0278887306	 0.1757002932	-0.224027
C	-1.4050219604	-0.5616985605	 0.1038054378	 0.062973
C	-2.0501268122	-0.871537369	-1.2938308064	-0.137816
N	-1.0416879778	-2.0251316739	-1.4045768509	-0.323729
C	-1.5923530958	-2.1148232998	 0.0259655326	-0.145379
C	-2.9613782917	-1.8451292409	-0.5612867791	 0.497856
N	-4.1168967987	-2.3462130086	-0.5057411325	-0.327267
O	-4.9923418724	-1.7024045281	-1.4183458594	-0.404345
H	 1.0203864245	 1.9417514461	-0.0217248884	 0.115517
H	-0.345302777	 1.7475816741	-1.1258659024	 0.118014
H	-0.6340967957	 2.0811763927	 0.5861966	 0.113597
H	 0.6483368047	-0.4991374153	-0.5245870291	 0.126792
H	 0.393659773	-0.1540904692	 1.1828170564	 0.095725
H	-2.0893081176	-0.0708204024	 0.8022101843	 0.084401
H	-2.2621491009	-0.2028089673	-2.1247412223	 0.102355
H	-1.4478305996	-2.77581523	-1.970546406	 0.223691
H	-1.2696701973	-2.8834637823	 0.7260436244	 0.095716
H	-5.8186844665	-2.1704978565	-1.258507648	 0.305262
89.8607	98.7824	139.9372	219.2176	235.0153	304.4489	337.2728	368.2713	411.0862	501.3629	604.909	711.3661	734.5243	762.8442	781.3267	823.6246	853.1792	889.2745	939.8573	964.9249	1059.3327	1061.3911	1069.5626	1093.924	1127.6058	1135.5173	1144.655	1188.4918	1201.8871	1222.9403	1271.2086	1278.5545	1298.3093	1347.758	1404.0621	1411.8474	1421.4107	1489.8249	1501.153	1505.5801	1814.836	3026.5288	3031.1968	3069.2492	3088.4273	3105.5482	3114.5947	3140.6457	3153.2888	3405.0228	3820.107
CCC1C2NC1C2=NO	CC[C@H]1[C@H]2N[C@@H]1C2=NO	
InChI=1S/C6H10N2O/c1-2-3-4-6(8-9)5(3)7-4/h3-5,7,9H,2H2,1H3	InChI=1S/C6H10N2O/c1-2-3-4-6(8-9)5(3)7-4/h3-5,7,9H,2H2,1H3/t3-,4+,5-
