21
gdb 69159	2.09397	1.66629	1.35028	3.3054	83.03	-0.2306	-0.0048	0.2258	1101.0282	0.180452	-387.097457	-387.087944	-387.087	-387.130936	36.459	
C	-0.0674772403	 1.5456263004	 0.103282607	-0.499874
C	 0.0212208716	 0.0470888095	 0.0290087845	 0.335562
C	-0.8291811164	-0.848718665	 0.8598357176	-0.343534
C	 0.6834287504	-0.9263589612	 1.048140016	-0.239072
C	 1.2558364513	-1.6969193255	-0.0967606301	 0.416128
O	 2.0533147974	-2.5892583797	-0.1909780676	-0.340896
C	 0.61884702	-0.7557915334	-1.1669266605	 0.10957
C	-0.3371580263	-1.3608211749	-2.1935927823	-0.45516
C	 1.7641226142	-0.0131069956	-1.8697486186	-0.437458
H	 0.8775628468	 2.0260412609	-0.1670763877	 0.126564
H	-0.8398250733	 1.9260340653	-0.5759312142	 0.126536
H	-0.3334111975	 1.8711703315	 1.1140680544	 0.122087
H	-1.3438682093	-0.3724272743	 1.6891950257	 0.120953
H	-1.3697455142	-1.6907071493	 0.4387842566	 0.121486
H	 1.1429219707	-0.7438947823	 2.0123441963	 0.105413
H	-1.1926448304	-1.858818813	-1.7301360766	 0.115889
H	-0.7238047187	-0.5899217751	-2.8701655733	 0.114673
H	 0.1891786595	-2.1037016454	-2.8017464216	 0.132927
H	 2.3162282606	-0.7055441261	-2.511328141	 0.13416
H	 1.3770380839	 0.7996956129	-2.4937846991	 0.114346
H	 2.4741707501	 0.4138876803	-1.1543744754	 0.1197
104.9554	173.0894	183.2405	198.9001	229.1755	242.345	282.2408	287.0401	350.8831	382.3483	465.0475	510.0507	587.1642	668.8843	687.6373	742.4355	768.1807	865.8306	918.0807	956.7869	965.6982	985.8629	995.9963	1019.2873	1038.3837	1072.4578	1103.6332	1113.1	1172.62	1197.8653	1225.5451	1246.2697	1302.4976	1373.1173	1397.9588	1415.3383	1425.1513	1478.8458	1482.373	1488.8729	1495.5391	1502.2763	1506.3262	1511.1903	1872.5259	3027.8385	3029.3226	3033.655	3088.3192	3094.4661	3099.4329	3105.9637	3112.0381	3115.0956	3122.2839	3186.5265	3201.4128
CC12CC1C(=O)C2(C)C	C[C@]12C[C@H]1C(=O)C2(C)C	
InChI=1S/C8H12O/c1-7(2)6(9)5-4-8(5,7)3/h5H,4H2,1-3H3	InChI=1S/C8H12O/c1-7(2)6(9)5-4-8(5,7)3/h5H,4H2,1-3H3/t5-,8-/m0/s1
