16
gdb 80159	2.4643	1.64376	1.36389	4.8087	71.41	-0.2538	-0.0668	0.187	998.877	0.124476	-437.897994	-437.890219	-437.889275	-437.930416	29.371	
C	-0.3677430948	 1.4347571267	-0.0079090635	-0.424792
C	-0.007859282	-0.0338262261	 0.0350051855	-0.052319
C	 1.3559703329	-0.5731065885	-0.2278592854	 0.054527
O	 2.4229030406	 0.367230274	-0.2327219518	-0.234148
C	 2.6599897651	 0.842497812	 1.0288999719	 0.295498
N	 3.5313626354	 1.6949069582	 1.3464287814	-0.49803
C	 1.6868584917	 0.1743750178	 2.0010661443	 0.34927
O	 1.7038624207	 0.2997312393	 3.1958154127	-0.290093
C	 0.8046460454	-0.695890252	 1.1717522294	-0.214404
H	 0.4648189744	 2.0818174934	 0.2744170373	 0.147532
H	-0.6769178869	 1.7145132667	-1.0200920662	 0.131843
H	-1.200049586	 1.645363271	 0.6700348592	 0.137892
H	-0.8017049854	-0.6945749527	-0.3054431731	 0.112649
H	 1.5472778431	-1.4111895332	-0.8864046548	 0.122806
H	 4.0599742538	 2.0026879064	 0.527042236	 0.234409
H	 0.4391958319	-1.6164244428	 1.6067781971	 0.12736
96.4886	127.5287	166.7069	245.2728	329.9588	352.3967	454.9115	502.789	560.2646	630.8771	670.3499	731.5673	768.2107	833.6762	839.2013	908.3272	910.49	961.3574	1003.6833	1030.6052	1045.1414	1084.1318	1124.8828	1146.9555	1178.6146	1217.5791	1284.1301	1311.715	1365.0595	1423.419	1427.7736	1490.1755	1503.5958	1763.6526	1849.3888	3046.9463	3108.598	3129.5781	3146.168	3192.2824	3208.6657	3465.7162
CC1C2OC(=N)C(=O)C12	C[C@H]1[C@H]2O[C]([NH])C(=O)[C@@H]12	
InChI=1S/C6H7NO2/c1-2-3-4(8)6(7)9-5(2)3/h2-3,5,7H,1H3	InChI=1S/C6H7NO2/c1-2-3-4(8)6(7)9-5(2)3/h2-3,5,7H,1H3/t2-,3-,5-/m1/s1
