22
gdb 78691	3.91788	1.21213	1.10919	1.1842	86.79	-0.2081	0.0803	0.2884	1215.0412	0.192737	-367.118227	-367.109515	-367.10857	-367.150731	34.9	
C	 0.0366345725	 1.532683177	-0.2708657771	-0.325246
N	 0.0259721169	 0.0842637097	-0.0940829523	-0.124188
C	-1.0954078531	-0.4646961623	 0.7255536555	-0.026616
C	-0.2380263232	-1.6880044188	 1.1745715013	-0.088842
C	 0.6786678946	-0.426179008	 1.1485394698	-0.02662
C	-0.5009553232	-0.0556978946	 2.1287370672	-0.105275
C	-0.598999159	-1.5065056576	 2.6720428343	 0.301346
C	-1.9859338155	-1.9810912966	 3.1022007686	-0.452861
C	 0.463012809	-1.9277028244	 3.686232298	-0.452865
H	 1.0239873333	 1.8434291666	-0.6289610435	 0.116585
H	-0.6954239797	 1.8060991957	-1.038327486	 0.116584
H	-0.1931574289	 2.1085943225	 0.6417656163	 0.092953
H	-2.1335985359	-0.4472294041	 0.3909108579	 0.078591
H	-0.0802167809	-2.5991795208	 0.5955791867	 0.072989
H	 1.7545023834	-0.3628238058	 1.3179310582	 0.078593
H	-0.6518585514	 0.875647192	 2.676957645	 0.069266
H	-2.763130221	-1.6850903844	 2.3915428118	 0.11302
H	-2.0151891713	-3.0733903591	 3.1918139927	 0.112928
H	-2.2543376222	-1.5673308689	 4.0813225448	 0.111853
H	 0.2449112334	-1.5106690902	 4.6764029199	 0.111868
H	 0.4919885392	-3.0185469556	 3.7921429269	 0.112911
H	 1.4646355233	-1.5951516023	 3.398397054	 0.113023
172.5985	189.3795	195.7366	209.5436	241.1547	249.5157	343.1219	348.275	378.8335	542.9933	550.172	627.8511	760.7178	781.9023	807.7828	824.037	841.4752	867.1144	901.9492	950.0933	959.3337	966.4331	1017.9899	1018.7597	1082.5666	1113.4749	1118.6012	1142.0213	1142.5411	1159.7821	1164.245	1174.9792	1209.609	1222.8273	1235.6044	1236.3683	1323.5286	1341.4968	1403.6549	1421.2367	1445.3556	1480.3888	1488.8468	1490.1816	1497.544	1503.331	1507.4837	2961.3812	3022.2928	3027.1219	3058.8386	3079.9546	3084.5489	3092.9571	3094.3199	3096.5501	3101.6397	3106.3576	3106.4251	3116.893
CN1C2C3C1C2C3(C)C	CN1[C@H]2[C@H]3[C@@H]1[C@@H]2C3(C)C	
InChI=1S/C8H13N/c1-8(2)4-6-5(8)7(4)9(6)3/h4-7H,1-3H3	InChI=1S/C8H13N/c1-8(2)4-6-5(8)7(4)9(6)3/h4-7H,1-3H3/t4-,5+,6-,7+
