18
gdb 8199	2.77411	2.43573	1.67789	1.2597	72.71	-0.2239	0.022	0.246	842.6459	0.15342	-347.80325	-347.795581	-347.794636	-347.834454	30.361	
C	 0.004970324	 1.5506959286	 0.0316733668	-0.482633
C	-0.0247958646	 0.0420315945	 0.0524488062	 0.274725
C	 1.2508848063	-0.7530418934	-0.2327877969	-0.385906
C	 0.6302404949	-0.7914044638	 1.1404032731	 0.35763
O	 1.2810645607	-0.144517821	 2.1938507022	-0.470358
C	-0.3084411782	-1.9521919243	 1.4772412955	-0.335843
C	-1.4303769005	-1.7967125739	 0.4735705577	-0.080446
C	-1.2792831582	-0.7039389907	-0.2784858281	-0.12982
H	 0.9237426101	 1.9215752641	 0.4933957364	 0.127626
H	-0.0447736209	 1.9375550566	-0.9925459028	 0.112221
H	-0.8394818484	 1.9690088338	 0.5900688033	 0.119309
H	 1.1939543265	-1.6235353135	-0.8791071926	 0.106123
H	 2.1656317291	-0.1728496224	-0.3149309216	 0.105409
H	 2.1032417429	-0.6133947835	 2.371476704	 0.282278
H	 0.1844697295	-2.930676246	 1.4075440513	 0.101567
H	-0.6675120078	-1.8508184299	 2.5103753104	 0.114321
H	-2.244344483	-2.5080530773	 0.3932172352	 0.092937
H	-1.9596817924	-0.3757325979	-1.0571753002	 0.090861
174.595	197.1391	212.5699	264.818	270.2851	372.2901	427.2019	463.8326	512.4181	554.4752	684.8028	726.3496	753.4257	771.41	899.6494	913.8184	954.0747	954.3596	966.1693	969.7076	998.196	1048.7342	1094.8081	1111.8959	1141.7954	1190.7774	1236.0266	1256.4948	1301.6382	1322.3554	1379.0484	1399.0087	1414.0121	1465.8806	1483.4874	1488.3022	1501.4594	1668.972	3014.1962	3028.9514	3044.717	3087.2942	3112.5849	3117.114	3180.1357	3205.5959	3207.0064	3799.5072
CC12CC1(O)CC=C2	C[C@@]12C[C@]1(O)CC=C2	
InChI=1S/C7H10O/c1-6-3-2-4-7(6,8)5-6/h2-3,8H,4-5H2,1H3	InChI=1S/C7H10O/c1-6-3-2-4-7(6,8)5-6/h2-3,8H,4-5H2,1H3/t6-,7-/m1/s1
