15
gdb 20215	3.69826	3.21013	2.23534	1.5256	67.66	-0.2241	0.0123	0.2364	645.9993	0.121816	-325.460862	-325.455712	-325.454767	-325.489606	22.478	
C	-0.0305923074	 1.5210115681	-0.0000823432	-0.092772
C	 1.1255432248	 2.1948051032	 0.0193892913	-0.069693
C	 2.3600424987	 1.4137311545	 0.0667308739	-0.064161
C	 2.4483998842	 0.106740013	 0.7952742606	-0.057569
C	 1.144212272	-0.6887159093	 0.7997166777	-0.122623
C	 0.0580273714	 0.0628963134	 0.0079947667	-0.074456
C	 1.2167710239	-0.6478650279	-0.6944160788	-0.03223
N	 2.5191759796	 0.0978152958	-0.6927616509	-0.172698
H	-0.9991943963	 2.0051031999	-0.0470861906	 0.096872
H	 1.1876993294	 3.2760489394	-0.0119693403	 0.09557
H	 3.2950259611	 1.962712546	 0.015239102	 0.097225
H	 3.3083332747	-0.151723646	 1.4042786316	 0.099246
H	 0.9029827735	-1.4925593346	 1.4812471251	 0.097874
H	-0.8678615226	-0.5006551557	-0.0484358779	 0.092173
H	 1.0557345434	-1.3925800699	-1.4619770074	 0.107242
347.961	386.8442	557.2774	578.8242	604.1108	657.3007	712.157	744.9606	774.2337	784.1989	847.9349	888.2802	907.0312	946.3504	954.3127	965.3377	987.0346	1023.1179	1036.6233	1052.2249	1066.382	1089.6204	1136.0713	1166.5673	1202.0916	1246.5082	1284.6541	1306.0245	1384.4624	1393.3348	1459.5499	1682.4466	3157.8643	3164.0975	3167.26	3186.8741	3200.2359	3207.0978	3213.7898
C1=CC2C3C4C1C4N23	C1=C[C@H]2[C@H]3[C@H]4[C@@H]1[C@H]4N23	
InChI=1S/C7H7N/c1-2-4-7-5-3(1)6(5)8(4)7/h1-7H	InChI=1S/C7H7N/c1-2-4-7-5-3(1)6(5)8(4)7/h1-7H/t3-,4+,5+,6-,7+,8?/m1/s1
