19
gdb 41480	3.13879	1.66552	1.3453	1.837	73.85	-0.2347	0.0653	0.3001	990.5864	0.161262	-422.996531	-422.989398	-422.988454	-423.028082	28.615	
C	 0.0637965127	 1.5082555352	 0.2373129872	-0.096058
O	 1.4080215249	 1.5753808079	-0.3111188136	-0.339197
C	 1.3941888343	 0.1758964087	-0.5940420398	 0.46084
C	 2.0287662752	-0.3508181447	-1.8584586086	-0.339094
C	 2.2210739486	-1.8333909764	-1.4975019509	-0.085369
O	 2.507587344	-1.8767462824	-0.0953407919	-0.263556
C	 1.8772332926	-0.7811483937	 0.5391519174	 0.065322
C	 0.3916345171	-0.989903951	 0.9837911703	-0.272232
C	-0.0746478238	 0.0087524352	-0.1057206905	-0.152176
H	 0.0414955431	 1.7591032676	 1.3054071531	 0.102199
H	-0.6126194591	 2.1787506519	-0.3042227189	 0.107815
H	 1.4225829596	-0.2052896765	-2.7560658003	 0.1073
H	 2.9941211814	 0.1476097195	-2.0030912963	 0.122076
H	 1.3072072503	-2.4054755606	-1.7229300786	 0.094328
H	 3.0539727389	-2.3092882558	-2.0211594127	 0.114399
H	 2.552774655	-0.3674932733	 1.2922745256	 0.084368
H	 0.0582372272	-2.0153541647	 0.8067659713	 0.112081
H	 0.1591620638	-0.7176529385	 2.0171010243	 0.10115
H	-0.9058896756	-0.2704147284	-0.7532769169	 0.075804
97.6426	175.4743	235.2881	347.846	356.3007	427.0371	466.9686	629.9402	647.9729	719.295	801.5169	838.68	860.3212	885.519	905.277	921.0944	968.3379	978.4473	1000.7336	1032.7818	1038.0629	1096.2626	1111.125	1135.5325	1147.6955	1161.4638	1191.1934	1216.304	1219.8935	1243.6907	1264.3806	1281.3627	1305.7051	1319.0785	1346.2644	1356.2521	1396.5984	1469.2045	1478.0975	1518.118	1522.347	2979.7632	3016.631	3048.1435	3057.5272	3065.1825	3077.3058	3093.6361	3105.7216	3107.9601	3118.6603
C1OC23CCOC2CC13	C1O[C@@]23CCO[C@@H]2C[C@@H]13	
InChI=1S/C7H10O2/c1-2-8-6-3-5-4-9-7(1,5)6/h5-6H,1-4H2	InChI=1S/C7H10O2/c1-2-8-6-3-5-4-9-7(1,5)6/h5-6H,1-4H2/t5-,6+,7+/m0/s1
