23
gdb 76574	2.68118	1.16483	1.13601	1.2162	85.77	-0.2436	0.0745	0.3181	1267.4941	0.206396	-388.294471	-388.285062	-388.284117	-388.328683	36.157	
C	-0.0029498476	 1.5171238691	-0.2506627244	-0.423147
C	 0.0705979109	 0.0188662422	-0.0536258512	-0.123152
C	 1.4074261784	-0.6936627972	-0.0181504627	 0.026823
O	 2.5943686578	 0.0480564192	-0.0392797757	-0.417855
C	 0.5788374193	-0.5976889442	 1.2370889119	 0.338554
C	 1.087428698	 0.2409198335	 2.4231067076	-0.279667
C	 0.6978636346	-0.5693061812	 3.6825634904	-0.201608
C	 0.5807458557	-2.0201855278	 3.1873960804	-0.20083
C	-0.0759177857	-1.8585046922	 1.8065705706	-0.27954
H	 0.8993249536	 2.0103297103	 0.1191269344	 0.128782
H	-0.1105164414	 1.7681263478	-1.3123574568	 0.108045
H	-0.8618492275	 1.9483141063	 0.2754544374	 0.116991
H	-0.7310610218	-0.5364100869	-0.5380523074	 0.07403
H	 1.480900721	-1.6705805221	-0.4989906661	 0.075782
H	 2.7197623417	 0.3922208248	-0.9298111333	 0.288575
H	 2.1718947133	 0.36362818	 2.3513089262	 0.119362
H	 0.6585774814	 1.2471713843	 2.4423913796	 0.092806
H	 1.4156304026	-0.4480628269	 4.4987394439	 0.091915
H	-0.2766096806	-0.2345815664	 4.0584366376	 0.093829
H	 1.5792954397	-2.4602109263	 3.0748305837	 0.099494
H	 0.0112231658	-2.6644679572	 3.8635895231	 0.088981
H	-1.1567876057	-1.7012156718	 1.92516696	 0.09302
H	 0.0516638965	-2.7313489473	 1.1580767909	 0.088811
47.9342	148.3562	168.8274	194.6832	220.2279	245.4928	278.3124	300.689	404.8935	491.2539	545.0161	562.0519	586.3149	721.8776	787.0365	837.6142	850.4038	871.1142	911.5359	929.4284	949.5959	993.2266	1007.3077	1034.264	1056.1577	1082.1656	1088.2747	1140.1519	1167.0357	1180.0358	1193.2695	1224.5958	1249.209	1259.5442	1270.5042	1302.9272	1320.2818	1338.3784	1341.75	1363.2638	1376.3641	1413.2576	1455.9061	1487.6665	1491.8463	1494.9439	1499.0604	1504.5218	1515.3242	3011.6239	3028.1022	3029.2308	3034.1874	3054.4236	3068.6358	3078.587	3080.9861	3081.6116	3088.3905	3099.1357	3109.6696	3125.0466	3804.0271
CC1C(O)C11CCCC1	C[C@H]1[C@@H](O)C21CCCC2	
InChI=1S/C8H14O/c1-6-7(9)8(6)4-2-3-5-8/h6-7,9H,2-5H2,1H3	InChI=1S/C8H14O/c1-6-7(9)8(6)4-2-3-5-8/h6-7,9H,2-5H2,1H3/t6-,7+/m0/s1
