17
gdb 42436	6.01501	0.65663	0.62263	2.9496	75.07	-0.2705	-0.0429	0.2276	1722.1594	0.135484	-418.016967	-418.00779	-418.006845	-418.052431	31.804	
O	-0.0561263292	 0.1439273904	-0.5861430932	-0.333203
C	 0.0124254943	 1.3169876856	-0.2772479976	 0.382262
C	 1.3352781661	 1.9880313071	 0.0503408453	-0.312678
C	 2.5250405896	 1.0343065777	-0.1362911785	-0.341039
C	 3.7958628003	 1.6725897734	 0.194794529	 0.255498
N	 4.7927561475	 2.1931760765	 0.4599769521	-0.301429
C	-1.2111670257	 2.1707691083	-0.1991421171	-0.10681
C	-2.1542887806	 2.0819639463	-1.3646057093	-0.215231
N	-2.5075145951	 1.4864746083	-0.0866992187	-0.298134
H	 1.4443107915	 2.8827137018	-0.5750374588	 0.151528
H	 1.2908576817	 2.3569818341	 1.0828272298	 0.154683
H	 2.3910111437	 0.1457604005	 0.4877743197	 0.171414
H	 2.5599225349	 0.6753566623	-1.1694974572	 0.167795
H	-1.1249525908	 3.1098789828	 0.3393330528	 0.105231
H	-2.7175545911	 2.9678249163	-1.6427417012	 0.133495
H	-1.8615065008	 1.4294710782	-2.1824344494	 0.135354
H	-2.3162960464	 0.4845436604	-0.1303281977	 0.251262
46.0308	61.9967	102.3974	110.5556	212.9114	266.2561	293.1816	353.6083	391.8262	536.7128	576.2923	684.2885	784.5681	813.2752	851.4949	897.6984	954.9814	964.0291	1004.1485	1028.5704	1043.8681	1097.3543	1124.7026	1138.5501	1176.5044	1183.2719	1282.989	1296.1073	1302.6907	1320.7575	1375.9403	1411.1236	1450.1541	1463.0002	1495.7425	1780.7277	2364.8752	3037.889	3068.4194	3069.9476	3107.5701	3113.9822	3157.0305	3208.6055	3464.0688
O=C(CCC#N)C1CN1	O=C(CCC#N)[C@H]1CN1	
InChI=1S/C6H8N2O/c7-3-1-2-6(9)5-4-8-5/h5,8H,1-2,4H2	InChI=1S/C6H8N2O/c7-3-1-2-6(9)5-4-8-5/h5,8H,1-2,4H2/t5-/m1/s1
