18
gdb 76597	2.47143	1.39759	1.05106	3.4332	80.3	-0.2501	-0.048	0.2021	1178.4664	0.146541	-398.121051	-398.111517	-398.110573	-398.155521	34.22	
C	 0.1048817488	 1.3862195068	 0.3579293988	-0.405667
C	-0.053392766	-0.0625467115	-0.038580047	-0.0088
C	 0.7023192204	-0.7041651873	-1.1790401141	-0.018607
C	 1.7057501869	 0.0354244296	-2.0325633725	-0.423134
N	 0.9780403276	-1.0577408228	 0.2105935154	-0.089443
C	 2.1447842826	-0.8780795933	 0.914035691	 0.240684
N	 2.2074157104	-0.2481414512	 2.0256835698	-0.500144
C	 3.2886714369	-1.570921379	 0.3327652374	 0.260189
N	 4.2258587604	-2.091362804	-0.1016696842	-0.335293
H	 1.09303857	 1.7844159907	 0.1245399151	 0.1299
H	-0.6438885595	 1.9871565018	-0.1685807493	 0.122659
H	-0.0481268418	 1.5030707117	 1.4333276692	 0.154318
H	-1.0522781864	-0.4568323205	 0.1452664612	 0.106634
H	 0.1805473448	-1.4992471876	-1.7102697545	 0.108442
H	 2.2168141211	 0.8304170119	-1.4850077198	 0.132684
H	 2.4670614345	-0.6508145812	-2.4147897406	 0.15288
H	 1.1976524113	 0.4844802371	-2.8921100313	 0.13213
H	 3.1371681079	-0.3247870111	 2.4341030855	 0.24057
65.3792	114.086	151.9127	163.8311	192.9517	209.5078	265.6205	320.9479	345.9551	472.151	488.0619	548.6429	580.3461	695.3504	729.1352	793.306	838.9651	848.5518	943.0201	975.0588	1035.5546	1070.8705	1083.4707	1135.4307	1168.6539	1176.7771	1205.3972	1294.9601	1380.9107	1413.5696	1419.3389	1422.0413	1456.4818	1478.9105	1484.901	1494.9985	1509.7096	1664.9185	2343.0751	3045.7341	3051.4055	3105.1819	3111.0376	3115.0856	3121.847	3132.4229	3147.6124	3510.9471
CC1C(C)N1C(=N)C#N	C[C@H]1[C@@H](C)N1[C]([NH])C#N	
InChI=1S/C6H9N3/c1-4-5(2)9(4)6(8)3-7/h4-5,8H,1-2H3	InChI=1S/C6H9N3/c1-4-5(2)9(4)6(8)3-7/h4-5,8H,1-2H3/t4-,5+,9?
