23
gdb 7834	3.62649	1.17434	1.02512	1.19	82.44	-0.22	0.0831	0.3031	1269.1581	0.210525	-330.30275	-330.293065	-330.292121	-330.336936	36.117	
C	-0.0959777538	 1.5425601806	 0.2064423078	-0.385409
C	 0.0272177964	 0.0225630257	 0.036761218	 0.044744
C	 0.8678623753	-0.5881081645	 1.1653454017	-0.392471
C	-1.3429620003	-0.6781645961	-0.0585704406	-0.206352
C	-2.1769131565	-0.243931483	-1.251164585	 0.020457
C	-3.5953861486	-0.6731020652	-1.4149145286	-0.266019
N	-3.2732834802	 0.7345531532	-1.213512412	-0.078369
C	-3.6957625454	 1.3303788058	 0.0438410217	-0.313333
H	 0.8919230949	 2.0147887364	 0.2233209238	 0.108375
H	-0.6698023137	 1.994863997	-0.6077263368	 0.129795
H	-0.5962667119	 1.792051844	 1.1499090701	 0.109491
H	 0.5517768431	-0.1653656197	-0.911842304	 0.072579
H	 0.3908505849	-0.4275340379	 2.1399181845	 0.110989
H	 0.9951137913	-1.6677752084	 1.0320991536	 0.108612
H	 1.863894398	-0.1352390588	 1.2074208415	 0.109881
H	-1.1705491304	-1.7596524902	-0.1428520346	 0.098318
H	-1.8963238463	-0.5370998266	 0.8777351258	 0.093612
H	-1.5888547754	-0.1503440318	-2.1653141015	 0.084433
H	-3.9927601204	-0.9475575555	-2.3893057388	 0.108961
H	-4.0425505505	-1.2109231469	-0.5779430149	 0.099864
H	-3.6951267307	 0.6435736575	 0.905553186	 0.097876
H	-3.0527286055	 2.182375387	 0.2838820448	 0.12214
H	-4.7183068444	 1.7023511672	-0.0796751828	 0.121829
65.2476	98.2451	153.1651	202.4835	232.7564	256.4939	278.421	313.5226	351.2564	386.1113	420.1405	451.6815	515.2521	740.9809	783.082	824.7723	892.2793	927.3355	933.9773	967.7441	968.3849	1036.5116	1055.6185	1093.9416	1114.185	1134.8264	1146.5997	1166.9802	1196.4527	1200.6318	1207.2254	1260.2127	1306.1186	1338.0682	1365.7055	1372.67	1399.9994	1417.1023	1426.9152	1449.1316	1474.7572	1486.764	1490.611	1494.5566	1503.775	1506.1853	1511.1499	1514.8082	2970.3105	2992.5745	3016.1032	3022.1701	3027.9831	3057.5405	3066.462	3077.423	3086.005	3089.2232	3093.1374	3098.4219	3105.9457	3108.3758	3163.4399
CC(C)CC1CN1C	CC(C)C[C@H]1CN1C	
InChI=1S/C7H15N/c1-6(2)4-7-5-8(7)3/h6-7H,4-5H2,1-3H3	InChI=1S/C7H15N/c1-6(2)4-7-5-8(7)3/h6-7H,4-5H2,1-3H3/t7-,8?/m0/s1
