19
gdb 94474	3.883	0.88234	0.7836	0.8511	82.14	-0.23	0.0216	0.2516	1503.4006	0.159943	-419.176895	-419.167967	-419.167023	-419.211331	32.753	
N	 0.147470908	 1.2690254212	-0.454243241	-0.508896
C	 0.0475647746	-0.075170698	 0.0722518246	-0.129264
C	-0.0533307152	-0.2289869528	 1.6086240661	-0.080875
O	-1.2697296271	-1.0223517026	 1.4651910217	-0.272231
C	-1.2817092323	-0.8265461518	 0.0895465069	 0.429907
N	-2.1372004916	-1.13676784	-0.7697310991	-0.335711
C	-3.3322754319	-1.811978566	-0.3774301369	 0.045861
C	-4.5762430695	-1.5214551894	-1.1861199927	-0.271197
C	-3.8783863949	-2.8451910282	-1.3367511438	-0.267664
H	 0.1982581068	 1.2359138542	-1.4678081972	 0.243373
H	-0.694559718	 1.7939035908	-0.2324137267	 0.233654
H	 0.8521632951	-0.67970101	-0.3560320943	 0.112679
H	 0.7345151438	-0.7949141199	 2.1105416563	 0.121739
H	-0.2514423812	 0.7053275697	 2.142109479	 0.118475
H	-3.4667678844	-2.0055892891	 0.6839393754	 0.099358
H	-5.5241277451	-1.486365477	-0.6608154086	 0.111136
H	-4.4708509074	-0.803665375	-1.990963964	 0.118086
H	-3.306700765	-3.0118640857	-2.2419202401	 0.11978
H	-4.3397348747	-3.7313699106	-0.9155757056	 0.111791
59.1947	104.9409	123.8722	129.7031	239.2281	250.4803	341.696	364.5882	473.8468	527.8406	678.1346	741.3984	775.0591	823.838	832.1679	860.2175	878.9245	936.1446	960.6449	966.5982	1002.3188	1010.7668	1054.6095	1071.5067	1119.209	1130.654	1150.38	1170.2403	1191.4395	1199.324	1225.5328	1238.7032	1254.2315	1334.8418	1399.2098	1429.7439	1458.0479	1495.1289	1514.2569	1668.0041	1832.8517	3057.0219	3074.9585	3120.8564	3131.0715	3138.1563	3143.4549	3223.3342	3237.7764	3490.8879	3569.8342
NC1COC1=NC1CC1	N[C@H]1COC1=NC1CC1	
InChI=1S/C6H10N2O/c7-5-3-9-6(5)8-4-1-2-4/h4-5H,1-3,7H2	InChI=1S/C6H10N2O/c7-5-3-9-6(5)8-4-1-2-4/h4-5H,1-3,7H2/t5-/m0/s1
