19
gdb 44500	4.0153	1.36644	1.18105	2.7804	79.	-0.234	-0.0137	0.2203	1066.3975	0.161635	-385.878019	-385.871073	-385.870129	-385.910081	28.296	
O	 0.0071216732	 0.3472352334	 1.1001462024	-0.315343
C	-0.0129533088	 1.2402246868	 0.2865908381	 0.388211
C	-1.3135757392	 1.8277376345	-0.244712068	-0.362596
C	-1.1323404353	 3.1517435173	-0.9756517365	 0.020219
C	-0.0648485417	 3.2539449825	-2.1113263863	-0.06185
C	-0.080294652	 4.7906625639	-1.8873723303	-0.22923
C	-0.0562480211	 4.1681097536	-0.4656048908	-0.07179
C	 1.0311638149	 3.1771980603	-1.0010976637	 0.020219
C	 1.2606342395	 1.8580243042	-0.2749884863	-0.362596
H	-1.7643389511	 1.0824020638	-0.9153595709	 0.130074
H	-2.0054894356	 1.9228756452	 0.5997165096	 0.129904
H	-2.0987678399	 3.6024301921	-1.2245410143	 0.06656
H	-0.0698309152	 2.7230596592	-3.0660107803	 0.067564
H	 0.8139768056	 5.3383947757	-2.196424578	 0.091402
H	-0.9942240798	 5.3171205271	-2.1751575303	 0.091402
H	-0.0512595354	 4.6983071506	 0.4889110253	 0.071311
H	 1.9806013593	 3.650425697	-1.2725202736	 0.06656
H	 1.9697848975	 1.9696464299	 0.5529615559	 0.129904
H	 1.7129103443	 1.1233133732	-0.9562570326	 0.130074
31.8088	222.9957	322.6051	396.4935	417.0938	455.9403	502.0868	612.6059	718.1063	740.9853	761.9481	778.3136	837.5917	852.5704	861.6005	902.307	966.2945	990.5256	1019.7963	1026.5106	1051.9039	1060.896	1089.95	1115.2034	1155.644	1167.0226	1172.0378	1196.0376	1216.4279	1228.5145	1242.4461	1269.855	1286.0619	1297.8202	1325.9875	1391.7053	1423.603	1442.3673	1445.7368	1519.7753	1818.9287	3016.8174	3018.9802	3046.5067	3047.2801	3051.7224	3069.0829	3069.6968	3084.5159	3093.4464	3115.222
O=C1CC2C3CC2C3C1	O=C1C[C@@H]2[C@H]3C[C@@H]2[C@H]3C1	
InChI=1S/C8H10O/c9-4-1-5-7-3-8(5)6(7)2-4/h5-8H,1-3H2	InChI=1S/C8H10O/c9-4-1-5-7-3-8(5)6(7)2-4/h5-8H,1-3H2/t5-,6+,7-,8+
