25
gdb 116295	2.11605	1.17844	0.80959	1.6113	88.35	-0.2462	0.0765	0.3227	1525.7487	0.229684	-389.504559	-389.494337	-389.493393	-389.54161	37.76	
C	 0.0488015809	 1.7036728426	-0.0305135486	-0.393377
C	-0.0146498863	 0.1722061584	 0.0198962862	-0.186297
C	 0.6787258929	-0.4924854259	-1.1754397829	-0.009887
C	 2.1980713587	-0.2064460038	-1.2299324449	-0.089515
O	 2.7927024917	-1.324677061	-1.8624075597	-0.243399
C	 2.1121583967	-2.4552410762	-1.3499356692	-0.089658
C	 0.6187725617	-2.0621080258	-1.2622500426	-0.009428
C	-0.1324022755	-2.799586357	-0.1472975221	-0.186415
C	-0.1842576491	-4.3166409408	-0.3660435526	-0.393404
H	 1.0807863947	 2.0683656604	 0.003931878	 0.120969
H	-0.4063442857	 2.0869108767	-0.950866618	 0.115104
H	-0.4851422559	 2.1483750193	 0.8149772512	 0.112383
H	 0.4395659031	-0.177904686	 0.9556908134	 0.095727
H	-1.0655764124	-0.1366951106	 0.055305842	 0.097026
H	 0.2228219499	-0.0904353147	-2.0875309962	 0.073896
H	 2.4640885007	 0.6844941893	-1.8038738109	 0.106715
H	 2.5951863171	-0.0874165566	-0.2051524012	 0.078837
H	 2.3133256929	-3.2982271905	-2.0153963261	 0.106728
H	 2.493391941	-2.7114051425	-0.344374979	 0.078771
H	 0.140886833	-2.3251996214	-2.2129636085	 0.073935
H	 0.3391822203	-2.5898442703	 0.821298011	 0.095761
H	-1.1573081581	-2.4176030304	-0.0779282408	 0.09706
H	-0.6590439723	-4.5608721054	-1.3231227905	 0.115116
H	 0.8169298604	-4.7602196774	-0.3716420521	 0.12097
H	-0.7575263604	-4.8096087002	 0.425193454	 0.112381
8.6703	103.7345	117.1235	156.0834	216.6085	221.2148	251.8767	273.6164	318.348	391.5362	432.5943	461.9561	633.437	650.3933	769.3589	780.0727	809.6913	905.4401	954.5163	958.2671	967.5827	982.3082	985.4178	1034.9718	1052.5217	1081.1837	1111.9622	1121.5346	1153.8275	1159.7638	1175.5638	1230.8828	1277.873	1282.714	1293.4014	1321.1316	1322.829	1337.2538	1354.9722	1374.7113	1385.353	1390.7254	1405.1531	1414.8056	1415.119	1479.9146	1492.0689	1500.7222	1501.2295	1505.9489	1507.1424	1508.36	1519.6755	2933.079	2941.1538	3014.3008	3023.2028	3026.84	3030.9698	3031.3178	3041.1134	3054.7706	3065.5796	3092.6773	3096.826	3097.9589	3099.3599	3103.3812	3104.0899
CCC1COCC1CC	CC[C@H]1COC[C@H]1CC	
InChI=1S/C8H16O/c1-3-7-5-9-6-8(7)4-2/h7-8H,3-6H2,1-2H3	InChI=1S/C8H16O/c1-3-7-5-9-6-8(7)4-2/h7-8H,3-6H2,1-2H3/t7-,8+
