15
gdb 48071	2.8397	1.49339	1.15412	1.9798	66.63	-0.2524	-0.104	0.1484	1046.2426	0.11022	-457.69683	-457.688849	-457.687905	-457.730287	28.721	
O	-0.719162543	 1.4935918937	 0.5763453817	-0.213947
C	 0.180960622	 1.1623038942	-0.1463786529	 0.088297
C	 1.4049717934	 2.0393255658	-0.4465813316	 0.137902
O	 2.3926047705	 1.5141630522	-0.903883919	-0.265162
C	 1.3367097504	 3.4975671113	-0.1047013248	 0.373127
C	 1.1245145778	 4.1791977374	 1.281491651	-0.259831
C	 1.0316111589	 5.2353967583	 0.1549602999	 0.042018
C	 2.2911512897	 4.6374601808	-0.5204521267	-0.261254
O	 0.192645191	 4.285696343	-0.6249625858	-0.338764
H	 0.2519655194	 0.1629386197	-0.6258123305	 0.113461
H	 0.1836185232	 3.9239616202	 1.765327709	 0.138135
H	 1.978013379	 4.2211422666	 1.9618688009	 0.108201
H	 0.6973958326	 6.2706627945	 0.2017066213	 0.108679
H	 3.2466659056	 4.7206500156	 0.0007998534	 0.108928
H	 2.3679889794	 4.8036953068	-1.5946738659	 0.12021
50.645	112.2041	130.5354	175.1504	249.89	400.376	497.7356	541.9522	573.3984	583.8805	663.524	736.6268	807.3259	898.5164	907.5103	950.1213	959.9581	986.1175	1016.9498	1087.6147	1093.7542	1117.8856	1125.8033	1162.5569	1214.1352	1231.0444	1234.298	1343.1465	1373.3333	1467.2707	1509.7925	1799.2546	1826.6165	2921.4237	3073.9562	3081.6583	3134.4889	3162.8118	3177.5314
O=CC(=O)C12CC(C1)O2	O=CC(=O)[C@@]12C[C@@H](C1)O2	
InChI=1S/C6H6O3/c7-3-5(8)6-1-4(2-6)9-6/h3-4H,1-2H2	InChI=1S/C6H6O3/c7-3-5(8)6-1-4(2-6)9-6/h3-4H,1-2H2/t4-,6+
