19
gdb 97731	5.75334	0.61048	0.56891	1.2865	93.87	-0.2166	-0.0126	0.204	1950.0992	0.159126	-385.874542	-385.865014	-385.86407	-385.911298	33.557	
O	 0.1130205887	 1.2704161321	-0.4568785854	-0.408441
C	-0.0187967269	 0.0259636784	 0.2218226279	-0.227705
C	-1.3944859541	-0.4416539103	 0.1345286745	 0.264393
C	-2.5347059858	-0.8356690987	 0.0819931746	-0.165634
C	-3.8505029469	-1.3486837047	 0.0002228793	 0.222966
C	-4.9906970895	-0.6738488281	 0.2168812236	-0.171218
C	-6.2130345303	-1.5183181334	-0.0279263776	-0.244726
C	-5.6392549143	-2.9566204889	-0.1063983617	-0.214454
C	-4.1354661415	-2.7827706422	-0.4285193776	-0.316376
H	 1.0298507421	 1.5495989046	-0.3649973577	 0.288653
H	 0.6484973109	-0.7367446903	-0.2125480038	 0.115718
H	 0.2608136516	 0.1224569695	 1.2844295571	 0.116591
H	-5.0369312335	 0.3734954096	 0.4912257122	 0.096542
H	-6.9707712527	-1.4087586002	 0.7563511112	 0.105135
H	-6.7028864941	-1.2201848738	-0.9667878438	 0.11076
H	-5.7484578657	-3.4427089584	 0.8681248267	 0.107601
H	-6.1577738418	-3.5802293138	-0.838679692	 0.098798
H	-3.9242709985	-2.8993598214	-1.4997922549	 0.112579
H	-3.501793528	-3.5066197399	 0.0934582074	 0.108817
11.7147	74.1884	92.5351	140.2473	193.1152	222.2793	275.0021	366.4119	411.8436	512.9226	532.8788	602.8077	649.2807	814.9181	830.9057	863.6469	908.651	912.7373	955.0988	964.5025	1024.852	1039.4352	1056.3102	1065.6231	1148.9968	1197.2075	1228.4846	1243.3168	1247.304	1273.0516	1279.395	1321.4198	1325.9911	1349.7234	1458.6278	1482.5475	1486.851	1501.3624	1505.9967	1674.9147	2345.3435	2957.1442	2974.7334	2999.2135	3021.5276	3045.9819	3058.6775	3073.9719	3104.1291	3204.4304	3815.7927
OCC#CC1=CCCC1	OCC#CC1=CCCC1	
InChI=1S/C8H10O/c9-7-3-6-8-4-1-2-5-8/h4,9H,1-2,5,7H2	InChI=1S/C8H10O/c9-7-3-6-8-4-1-2-5-8/h4,9H,1-2,5,7H2
