16
gdb 128783	5.02239	0.82918	0.71812	2.1992	68.65	-0.2468	0.0001	0.2469	1517.1512	0.123379	-475.004801	-474.99613	-474.995186	-475.039314	30.574	
C	 0.2854564702	 1.3850589604	-0.0603051168	-0.226785
O	 0.5558723221	 0.001275293	-0.0736975784	-0.229916
C	 0.200302102	-0.632681378	 1.12720774	-0.165669
C	 0.528617772	-2.083438793	 1.0043965572	 0.439171
C	 1.0690970555	-2.8223499352	 0.0036759511	-0.423403
C	 1.0974171717	-4.1294778608	 0.5651647889	 0.468857
O	 1.5558501379	-5.2267332037	-0.0560798113	-0.418021
N	 0.6206159921	-4.1753952999	 1.7858084301	-0.261652
O	 0.2520935827	-2.851226749	 2.0710703823	-0.227865
H	 0.8462925945	 1.9011758038	 0.7341195888	 0.111865
H	 0.5941663575	 1.7831718592	-1.0290133874	 0.135733
H	-0.7867046049	 1.5883565444	 0.0851299023	 0.111863
H	 0.742407318	-0.2012670647	 1.9869475874	 0.118591
H	-0.8758890923	-0.513107879	 1.343253269	 0.118608
H	 1.3935590767	-2.4976607058	-0.9683152295	 0.137066
H	 1.4564039343	-5.9703237219	 0.5536330764	 0.311557
46.786	74.5749	121.4643	191.1186	232.969	333.2086	370.0388	370.7042	454.4187	464.2356	623.2257	671.2359	722.1396	785.1232	811.6468	952.1889	1001.3955	1010.7919	1045.6989	1050.1762	1149.5969	1173.5839	1185.1994	1224.1702	1233.3275	1245.7781	1294.8653	1426.9694	1482.251	1486.9628	1498.7664	1519.7366	1544.1599	1557.1613	1666.6515	2950.3453	2970.1099	2978.5834	3025.3759	3125.6353	3305.7744	3778.8393
COCC1=CC(O)=NO1	COCc1cc(O)no1	
InChI=1S/C5H7NO3/c1-8-3-4-2-5(7)6-9-4/h2H,3H2,1H3,(H,6,7)	InChI=1S/C5H7NO3/c1-8-3-4-2-5(7)6-9-4/h2H,3H2,1H3,(H,6,7)
