15
gdb 27590	3.36661	1.28029	0.92817	2.2083	87.74	-0.2131	-0.0347	0.1784	1194.3781	0.114136	-379.707242	-379.69954	-379.698596	-379.739172	30.259	
N	-0.038790438	 1.3718016787	 0.1438735333	-0.5773
C	 0.0214426266	-0.0045967545	 0.0507046094	 0.378349
N	-1.1502019263	-0.6436412047	 0.0409506216	-0.385471
C	-1.1399016024	-1.9879373581	 0.0091443248	 0.173332
C	 0.034798567	-2.7440387533	-0.0246041328	-0.19608
C	 1.2492028293	-2.060629338	-0.0224636735	-0.065203
C	 1.2582490769	-0.6786331493	 0.0178409658	-0.178462
C	-2.4112778786	-2.6464368286	 0.0048556807	 0.219384
C	-3.4642780596	-3.2291196324	 0.0000205676	-0.371261
H	 0.7404658373	 1.8915686528	-0.2270566489	 0.25025
H	-0.9448306205	 1.755567151	-0.0800961169	 0.256987
H	-0.0136208281	-3.8245430857	-0.0550334564	 0.105243
H	 2.1846493325	-2.6099968986	-0.0504921274	 0.106016
H	 2.1879436852	-0.1202311799	 0.0300164474	 0.092134
H	-4.4000967314	-3.7308726093	-0.0024383345	 0.192084
134.8326	146.8132	206.5352	366.2859	372.1603	396.9262	461.2152	488.3977	533.8921	562.0348	576.0913	610.8007	646.7308	697.8283	726.8909	757.992	825.5433	885.8616	960.9886	988.9395	993.9313	1089.3207	1126.4069	1185.9328	1245.7867	1323.7352	1359.5334	1466.9251	1487.338	1613.2352	1617.3076	1646.1806	2230.6217	3175.8012	3192.1811	3219.9548	3503.1025	3580.0028	3695.8456
NC1=NC(=CC=C1)C#C	Nc1nc(ccc1)C#C	
InChI=1S/C7H6N2/c1-2-6-4-3-5-7(8)9-6/h1,3-5H,(H2,8,9)	InChI=1S/C7H6N2/c1-2-6-4-3-5-7(8)9-6/h1,3-5H,(H2,8,9)
