16
gdb 29949	3.3778	1.38738	0.98993	3.011	76.65	-0.2146	-0.0213	0.1933	1143.2901	0.126568	-434.149548	-434.14141	-434.140466	-434.182144	30.615	
C	-0.0014746197	 1.4428935331	-0.0127794065	-0.332567
N	-0.0085222026	-0.0146253093	-0.0178022538	-0.119902
C	-0.1424921484	-0.7245949939	-1.1563059965	 0.113801
N	-0.1600332953	-2.0182349953	-1.2490150758	-0.364736
C	-0.0291431852	-2.7120895091	-0.0682488357	 0.398086
N	-0.1015832261	-4.0702250887	-0.2167295176	-0.562206
C	 0.1229382924	-2.091710801	 1.1508329343	-0.331844
C	 0.1408860688	-0.6678803998	 1.2535128241	 0.427678
O	 0.2650959613	 0.0202154164	 2.2543318576	-0.418211
H	 0.9358193309	 1.8105864803	 0.4103967886	 0.157832
H	-0.1166146105	 1.8047507436	-1.0358539533	 0.126804
H	-0.8163828143	 1.8181353762	 0.6099899229	 0.15818
H	-0.2418092762	-0.1379617149	-2.0674414131	 0.127724
H	 0.0283923769	-4.4121559752	-1.1552607401	 0.261739
H	 0.2430264691	-4.6548449434	 0.5260062258	 0.259952
H	 0.2270007989	-2.652786039	 2.0709240693	 0.097671
108.0406	123.5239	181.006	270.8585	319.5503	356.0694	400.3669	448.5148	457.3382	468.9047	553.1354	615.4353	734.0099	747.8733	763.3773	810.6756	841.0186	951.2902	970.7831	1077.6556	1094.6104	1155.9438	1187.8403	1232.8313	1291.9866	1388.184	1395.9646	1456.2826	1465.6882	1481.3747	1516.6291	1582.5011	1636.4893	1674.7213	1777.4909	3058.4076	3129.8834	3146.4382	3153.8786	3208.152	3599.8563	3722.2667
CN1C=NC(N)=CC1=O	Cn1cnc(N)cc1=O	
InChI=1S/C5H7N3O/c1-8-3-7-4(6)2-5(8)9/h2-3H,6H2,1H3	InChI=1S/C5H7N3O/c1-8-3-7-4(6)2-5(8)9/h2-3H,6H2,1H3
