18
gdb 39781	3.82601	1.53222	1.41306	1.4341	74.97	-0.2344	0.0907	0.3251	959.1267	0.149659	-401.858021	-401.851452	-401.850508	-401.888616	27.771	
C	 0.0554194295	 1.4121698548	-0.1213606939	-0.250489
C	 1.3216929607	 0.6673495818	 0.0865525216	-0.023462
C	 1.8232140009	 0.3674275582	 1.5038735724	-0.151283
C	 0.5668898211	 0.5866690144	 2.3971246205	-0.269386
C	-0.0290244201	-0.5262376404	 1.4829296183	-0.091122
N	-0.0020521512	-0.0476103257	 0.0653243913	-0.119393
C	 1.3951320587	-1.1279472556	 1.5540603874	 0.554569
C	 1.98779407	-2.3857426026	 1.1324371888	-0.307807
O	 1.8217900885	-2.0389841079	 2.5316640732	-0.308734
H	-0.3330596067	 2.0864839982	 0.6328040877	 0.118008
H	-0.1890768466	 1.707134343	-1.137997338	 0.119527
H	 1.9920862613	 0.4817146409	-0.7478056941	 0.097098
H	 2.8184997653	 0.7021830579	 1.790084374	 0.078594
H	 0.7320893572	 0.2082797715	 3.4064810789	 0.126782
H	 0.1008114783	 1.5699806707	 2.4452008874	 0.0989
H	-0.9268007815	-1.0879836373	 1.7335266991	 0.084123
H	 1.3524879256	-3.1960367984	 0.7800385585	 0.125544
H	 3.0205053689	-2.4184649833	 0.789049067	 0.118532
163.1444	255.5585	291.2426	411.2779	443.3128	471.1801	579.4788	642.1419	652.3031	733.1612	766.3547	819.6083	853.6982	885.2239	892.9562	916.5087	977.5642	993.4647	1018.4914	1032.4155	1053.8134	1058.2692	1099.8631	1106.8655	1112.9527	1131.7917	1146.9094	1149.8658	1158.528	1210.1524	1231.1262	1239.9891	1254.9732	1280.1676	1364.4307	1450.185	1485.2777	1532.3564	1550.1089	3090.0477	3093.5979	3127.1552	3137.1424	3140.913	3148.1886	3150.619	3178.0756	3210.2985
C1C2C3CC(N12)C31CO1	C1[C@H]2[C@H]3C[C@@H](N12)[C@]13CO1	
InChI=1S/C7H9NO/c1-4-5-2-8(5)6(1)7(4)3-9-7/h4-6H,1-3H2	InChI=1S/C7H9NO/c1-4-5-2-8(5)6(1)7(4)3-9-7/h4-6H,1-3H2/t4-,5+,6-,7-,8?/m1/s1
