25
gdb 118053	3.46926	0.68327	0.59941	0.3522	85.98	-0.2572	0.0722	0.3294	1933.4649	0.226133	-426.627837	-426.615908	-426.614964	-426.665511	42.79	
C	 0.0798050885	 1.5429284727	-0.1756609318	-0.391968
C	-0.0288789825	 0.0305651273	 0.0419616607	-0.171383
C	 0.6792140953	-0.487254406	 1.3105968912	 0.026259
C	-0.0639493944	-0.0608315675	 2.5856680934	-0.407889
C	 0.8684456501	-2.0196964236	 1.2278695644	 0.112716
O	 1.5739344873	-2.3847050098	 0.036621639	-0.431374
C	 1.5439408201	-2.6343143558	 2.4588634899	-0.204427
C	 1.7373173702	-4.1415632269	 2.3399167787	-0.073066
O	 2.3303850602	-4.5945771462	 3.5498134662	-0.424586
H	 1.1275809156	 1.8566424778	-0.248963104	 0.109843
H	-0.4181395543	 1.8389625248	-1.1044406255	 0.112331
H	-0.379517355	 2.1160088292	 0.6361816034	 0.114823
H	-1.0881029888	-0.2595527095	 0.0873128008	 0.087494
H	 0.3949524901	-0.4897751432	-0.8215760435	 0.11169
H	 1.6894827753	-0.0452446106	 1.3392489992	 0.054405
H	 0.5089959001	-0.272863197	 3.4916867296	 0.120177
H	-0.2706579874	 1.012864856	 2.5777933847	 0.115921
H	-1.0266095494	-0.5803377392	 2.6663774076	 0.113923
H	-0.1211647144	-2.48089177	 1.1000948248	 0.083906
H	 2.4548311108	-1.9966745151	 0.09487673	 0.275064
H	 2.5233021818	-2.1619891966	 2.6218309213	 0.091714
H	 0.9498434589	-2.4378448381	 3.3564937858	 0.112903
H	 0.7608587335	-4.6247994769	 2.1690875536	 0.0825
H	 2.3672166875	-4.3694335997	 1.4697899683	 0.094593
H	 2.502321341	-5.5365208159	 3.4628182123	 0.284433
53.0509	76.064	88.7367	105.137	128.8547	212.4963	216.9717	255.5944	270.0357	296.2104	314.8884	321.9323	380.8527	384.4539	451.0266	513.3609	576.8399	778.2217	802.064	843.1888	880.9325	952.295	981.103	990.4402	1022.9042	1043.0532	1066.9277	1086.6333	1092.0957	1127.1634	1156.2983	1185.2342	1210.4057	1238.1404	1256.4156	1291.4956	1304.4251	1323.6658	1343.4387	1364.0038	1378.3845	1390.4273	1408.3515	1413.9452	1419.4168	1457.684	1486.3879	1489.3017	1496.1243	1501.3655	1508.9581	1513.6507	1530.3512	2963.284	2965.1003	3007.9869	3013.9981	3022.2901	3028.1895	3030.2094	3034.1666	3080.3357	3089.198	3096.3692	3101.0119	3106.333	3119.7538	3790.3182	3830.9452
CCC(C)C(O)CCO	CC[C@@H](C)[C@@H](O)CCO	
InChI=1S/C7H16O2/c1-3-6(2)7(9)4-5-8/h6-9H,3-5H2,1-2H3	InChI=1S/C7H16O2/c1-3-6(2)7(9)4-5-8/h6-9H,3-5H2,1-2H3/t6-,7+/m1/s1
