21
gdb 83376	2.59417	1.71919	1.51748	1.6481	81.29	-0.2349	0.0766	0.3116	1004.587	0.184995	-387.026507	-387.019181	-387.018237	-387.057662	30.929	
C	-0.0773997848	 1.6726190279	 0.024505532	-0.450156
C	 0.0481439897	 0.1575039545	-0.0002981459	-0.000778
C	 1.143593755	-0.5793223754	-0.8081557325	-0.087175
C	 2.440578217	 0.0252160286	-0.150316152	-0.209284
C	 2.0647027603	 0.009498823	 1.3947496153	-0.316558
C	 0.7246523604	-0.6662358635	 1.1699695905	 0.463877
O	-0.152020665	-1.4406646635	 1.9887404402	-0.361134
C	-0.2798581522	-2.3803345788	 0.864332091	-0.162967
C	 0.9803728639	-1.7856102214	 0.1567285999	-0.073939
H	 0.8657041056	 2.1842381642	 0.2330379796	 0.116139
H	-0.4450421158	 2.0451893099	-0.9384676929	 0.115265
H	-0.7969870822	 1.982788939	 0.7901663662	 0.12309
H	-0.9332754021	-0.2721707918	-0.2084106161	 0.073872
H	 1.14415166	-0.6367201514	-1.8982432934	 0.058189
H	 3.3201586925	-0.5912039944	-0.3540314294	 0.101769
H	 2.6469392426	 1.0326557925	-0.5183497015	 0.103312
H	 2.7508892953	-0.6028706592	 1.9840688975	 0.10555
H	 2.0226889218	 1.0100158926	 1.8328843762	 0.102283
H	-0.1428220768	-3.408219062	 1.2094789094	 0.112111
H	-1.2506214722	-2.2890849284	 0.367914448	 0.112552
H	 1.8561858871	-2.4247757925	 0.2871454081	 0.073982
176.5336	239.4493	265.3198	308.201	335.443	375.1421	454.3726	513.2586	572.9468	689.4823	725.5834	760.2883	788.9894	840.9207	854.0004	875.6937	895.7563	907.5585	942.6529	1011.5358	1024.5401	1038.0203	1043.3547	1076.9426	1090.2	1122.7469	1145.4188	1158.2582	1169.8003	1194.5513	1216.2746	1230.711	1254.1547	1260.8545	1281.9431	1320.5275	1332.422	1359.6907	1409.0967	1421.1108	1484.2872	1496.8811	1509.4818	1511.6898	1519.4401	3032.4632	3045.9049	3060.8576	3067.3379	3076.6572	3084.9179	3088.766	3095.3218	3104.0319	3104.8743	3115.5965	3120.9864
CC1C2CCC11OCC21	C[C@H]1[C@H]2CC[C@]31OC[C@@H]23	
InChI=1S/C8H12O/c1-5-6-2-3-8(5)7(6)4-9-8/h5-7H,2-4H2,1H3	InChI=1S/C8H12O/c1-5-6-2-3-8(5)7(6)4-9-8/h5-7H,2-4H2,1H3/t5-,6+,7-,8+/m0/s1
