22
gdb 64329	2.46308	1.36911	1.11049	3.8529	82.09	-0.2333	0.0345	0.2678	1207.0147	0.195427	-404.410931	-404.401786	-404.400842	-404.444304	35.768	
C	-0.1375459169	 1.5725952181	 0.0378203789	-0.416699
C	-0.0278142022	 0.0366004843	-0.0124187641	 0.248936
C	-1.4393369507	-0.5698493753	-0.0028331851	-0.422858
C	 0.7253755676	-0.4274796117	-1.2758142275	-0.207863
C	 2.1550470604	 0.1088302642	-1.3321411261	-0.175121
N	 2.840440805	-0.0831271582	-0.0618031505	-0.296501
C	 2.2688577952	-0.2111627222	 1.1761582762	 0.370704
O	 2.9381506226	-0.1758928489	 2.1929442425	-0.376631
C	 0.7665541696	-0.4768968589	 1.2058180857	-0.31546
H	 0.8411733661	 2.0557020019	 0.1166267412	 0.123496
H	-0.6350732359	 1.9613650461	-0.8575598993	 0.110183
H	-0.7243018119	 1.8855839552	 0.9076696859	 0.117979
H	-2.0341554916	-0.1972123708	-0.8442898424	 0.110247
H	-1.4028585963	-1.6623425046	-0.075247113	 0.110741
H	-1.9703092435	-0.3135225496	 0.9203782482	 0.114957
H	 0.7501993896	-1.5243002914	-1.2871839894	 0.101941
H	 0.193868018	-0.1096951739	-2.1798627446	 0.098431
H	 2.7154960157	-0.409947953	-2.1184755999	 0.109848
H	 2.1439154026	 1.1744504766	-1.6048729219	 0.108728
H	 3.8312594671	 0.110723559	-0.0241113542	 0.242483
H	 0.3898851128	-0.0547066716	 2.1416344887	 0.12228
H	 0.6494727166	-1.5656180653	 1.2890451308	 0.12018
88.3151	124.2022	216.36	250.9497	260.0472	288.5719	322.2478	363.4539	397.3271	461.2512	467.5285	500.7564	540.5894	658.8687	674.1561	747.1379	829.1502	887.7695	905.5009	943.8385	950.9033	971.5266	998.9999	1027.9608	1064.1229	1116.7558	1161.4215	1187.2142	1195.7088	1258.833	1283.9963	1309.7774	1329.3703	1346.4931	1377.4746	1398.1594	1402.3148	1425.2479	1457.1648	1477.019	1483.7783	1492.4724	1496.7035	1505.3505	1509.4246	1535.6129	1786.1109	2990.5942	3022.2124	3023.973	3027.3963	3033.8157	3048.7264	3072.9388	3091.4605	3093.4252	3095.3316	3099.7168	3104.162	3600.6764
CC1(C)CCNC(=O)C1	CC1(C)CCNC(=O)C1	
InChI=1S/C7H13NO/c1-7(2)3-4-8-6(9)5-7/h3-5H2,1-2H3,(H,8,9)	InChI=1S/C7H13NO/c1-7(2)3-4-8-6(9)5-7/h3-5H2,1-2H3,(H,8,9)
