25
gdb 113938	3.87779	0.69114	0.66676	0.1876	93.59	-0.2584	0.0897	0.3482	1856.2811	0.228694	-352.335314	-352.325085	-352.324141	-352.371503	38.24	
C	-0.0383021031	 1.4657187625	-0.523890292	-0.373161
C	-0.0496304623	 0.1347973978	 0.2378210159	-0.190952
C	-1.3886414334	-0.5706293509	 0.1485576297	 0.001612
C	-1.7192817407	-1.4761035366	-1.0164627165	-0.288253
C	-1.566003293	-2.0559847033	 0.3704908051	-0.000253
C	-0.4227172017	-2.9910392555	 0.7217139021	-0.236751
C	-0.7590136137	-4.4488159464	 0.4715316072	 0.046097
C	-0.5336281888	-5.0748402799	-0.8813030289	-0.249718
C	 0.3340543577	-5.470226705	 0.2898777842	-0.281231
H	 0.9340405733	 1.9623322889	-0.4452809826	 0.107479
H	-0.2549850316	 1.3105797784	-1.5859804982	 0.117192
H	-0.7959610314	 2.1522272385	-0.12984124	 0.11213
H	 0.7428527984	-0.5115891589	-0.1561328895	 0.093459
H	 0.2016652783	 0.3157049786	 1.291569548	 0.094121
H	-2.2150414254	 0.0407581471	 0.5069962681	 0.074896
H	-2.705282749	-1.4279497933	-1.4659574257	 0.104261
H	-0.9217339104	-1.6762510466	-1.7267485694	 0.103279
H	-2.498671746	-2.3279523293	 0.8613158334	 0.07544
H	 0.4734097977	-2.7295954414	 0.1465224406	 0.08857
H	-0.1541580572	-2.8602965755	 1.7798129498	 0.094856
H	-1.6404220103	-4.7963831624	 1.0062566272	 0.077495
H	-1.2591969255	-5.790714966	-1.2517434882	 0.107507
H	-0.0865797921	-4.4600567593	-1.6557001774	 0.107621
H	 1.3610908643	-5.1187825005	 0.2994121354	 0.106673
H	 0.2014504259	-6.456100941	 0.7220012219	 0.10763
44.0446	71.2958	96.2634	103.7649	197.8809	223.2733	263.7446	306.1009	359.3273	391.9243	447.3398	544.6241	752.887	772.9514	794.7503	798.5896	825.3714	836.0056	869.219	880.0126	928.4875	953.0375	967.9163	993.9337	1034.1156	1052.8115	1054.4992	1069.5694	1077.9582	1102.5629	1117.0773	1139.9345	1147.9872	1197.1923	1199.6563	1205.3877	1230.1272	1248.996	1274.8829	1298.4061	1324.6965	1345.6925	1400.7014	1407.2859	1415.7953	1437.8987	1469.6253	1480.434	1484.6082	1497.106	1497.8994	1507.2899	1509.3922	3003.289	3017.3698	3030.2893	3048.5523	3060.8998	3097.6921	3103.3404	3111.8464	3120.2498	3123.3367	3126.7095	3128.4235	3133.5304	3203.333	3204.4022	3219.2893
CCC1CC1CC1CC1	CC[C@H]1C[C@H]1CC1CC1	
InChI=1S/C9H16/c1-2-8-6-9(8)5-7-3-4-7/h7-9H,2-6H2,1H3	InChI=1S/C9H16/c1-2-8-6-9(8)5-7-3-4-7/h7-9H,2-6H2,1H3/t8-,9+/m0/s1
