17
gdb 92409	2.40935	1.51913	1.31205	0.9835	74.8	-0.2489	0.0272	0.2761	1043.6553	0.134874	-421.750139	-421.741927	-421.740983	-421.783044	31.693	
O	 0.2129338256	 1.2732868529	-0.4095637418	-0.420039
C	 0.081092433	-0.0588761024	-0.0002335412	 0.067546
C	 0.2092651197	-0.3484654843	 1.5270059854	-0.274625
C	-1.28217654	-0.6836544469	 1.581890352	 0.059662
O	-2.0953407644	 0.5132902362	 1.6495385962	-0.308414
C	-2.4594191698	 0.4123172275	 0.250986254	-0.141077
C	-1.3967283606	-0.6688689457	 0.0151721824	 0.146696
C	-1.6634399777	-1.7951151037	-0.8291078036	 0.11552
C	-1.8668480647	-2.742641761	-1.5429049793	-0.374294
H	-0.1837860742	 1.8341863763	 0.2667983934	 0.293585
H	 0.7494590183	-0.6455260567	-0.6319958392	 0.106472
H	 0.8446670516	-1.2149324505	 1.7323619334	 0.115729
H	 0.5303182778	 0.4888017451	 2.1524452554	 0.110494
H	-1.6539540226	-1.486333411	 2.2229338427	 0.087029
H	-3.4849490598	 0.0461465144	 0.1255076094	 0.114588
H	-2.3316224805	 1.3551081602	-0.290627946	 0.112348
H	-2.0543742317	-3.5771096904	-2.1721852933	 0.188782
61.9544	137.4213	154.5157	288.4005	337.1064	374.4557	443.4383	455.3399	506.5374	519.3728	594.1522	617.605	634.1059	674.1943	797.1631	846.3842	890.8738	915.4161	986.967	998.5227	1014.836	1061.7338	1101.2765	1116.9466	1140.4522	1170.5047	1192.809	1207.8624	1262.5886	1274.1446	1308.4263	1324.5199	1370.0137	1434.5565	1457.3932	1525.2004	2229.9335	3028.6036	3055.9376	3084.3457	3086.8446	3103.0354	3117.253	3501.5634	3798.3337
OC1CC2OCC12C#C	O[C@H]1C[C@H]2OC[C@@]12C#C	
InChI=1S/C7H8O2/c1-2-7-4-9-6(7)3-5(7)8/h1,5-6,8H,3-4H2	InChI=1S/C7H8O2/c1-2-7-4-9-6(7)3-5(7)8/h1,5-6,8H,3-4H2/t5-,6+,7-/m0/s1
