16
gdb 33750	2.50817	1.64369	1.26766	1.0195	76.88	-0.2469	0.0211	0.268	1022.7975	0.123409	-400.608718	-400.601135	-400.600191	-400.640617	29.892	
C	 0.0602099318	-1.1588771174	-0.0057648498	-0.3498
C	 0.0243287124	 0.0430918495	 0.002730853	 0.054749
C	-0.0402443756	 1.4715869253	 0.0066177065	 0.136135
C	-0.7079336429	 2.4301232196	 1.0523254708	-0.276925
C	 0.0151378067	 3.3365722058	 0.0153999274	-0.15179
N	 1.2011436553	 2.3779333094	-0.01343246	-0.355849
C	-0.5801447247	 2.4402353037	-1.0758592085	 0.550261
C	-0.6845417333	 2.4273928667	-2.5178096472	-0.300299
O	-1.8504502804	 2.4740167567	-1.6381043771	-0.291807
H	 0.0955227646	-2.2203602716	-0.0148944121	 0.186945
H	-1.8003656076	 2.4523239467	 1.0906811895	 0.123685
H	-0.2579497183	 2.4034357675	 2.0485320795	 0.101641
H	 0.1483862376	 4.416673706	 0.0225223449	 0.098468
H	 1.6112757151	 2.3541081669	 0.926040347	 0.213833
H	-0.5080314683	 3.3359602995	-3.0892142292	 0.127353
H	-0.5634391922	 1.4932158658	-3.0615192046	 0.1334
113.1737	155.9859	206.5213	287.8401	323.0599	476.2651	490.8677	502.7651	586.6196	632.3575	633.4009	664.7423	681.002	758.6764	820.506	886.3672	906.6912	940.8929	954.6619	997.9557	1044.1274	1078.6481	1094.0587	1108.737	1128.7387	1175.8583	1192.0299	1205.3722	1261.4921	1283.8562	1311.757	1461.4889	1499.2223	1570.3727	2237.4723	3050.9432	3099.8532	3125.3971	3142.7763	3191.3215	3386.0197	3500.2909
C#CC12CC(N1)C21CO1	C#C[C@@]12C[C@@H](N1)[C@]12CO1	
InChI=1S/C7H7NO/c1-2-6-3-5(8-6)7(6)4-9-7/h1,5,8H,3-4H2	InChI=1S/C7H7NO/c1-2-6-3-5(8-6)7(6)4-9-7/h1,5,8H,3-4H2/t5-,6+,7+/m1/s1
