19
gdb 112023	3.45275	1.2813	1.12797	0.56	75.44	-0.2338	0.0057	0.2395	1126.4308	0.160761	-423.000725	-422.992903	-422.991959	-423.033063	30.705	
O	-0.0516009926	 1.4430906033	-0.0310678466	-0.425999
C	 0.0270157848	 0.0262454363	 0.0404260075	-0.088976
C	-1.3992811547	-0.5298903803	-0.0082534746	-0.031486
C	-2.102473288	-0.1596911183	-1.302815531	-0.067465
C	-2.5471499084	-1.1348562908	-2.0953680349	-0.068942
C	-2.3031701027	-2.5496756966	-1.6114586013	 0.046295
C	-2.7900499525	-2.6776979299	-0.1469038099	-0.251432
C	-1.3999956868	-2.0644736373	 0.1240566839	 0.065562
O	-0.9225615975	-2.6403466994	-1.1281599703	-0.297557
H	 0.8372894384	 1.7880047838	-0.1527976716	 0.288184
H	 0.5993205591	-0.3940325454	-0.7979932947	 0.108421
H	 0.5119973786	-0.2958697936	 0.977096293	 0.080326
H	-1.9446452198	-0.0956717359	 0.8424241956	 0.087666
H	-2.1923969209	 0.8927781109	-1.5474066879	 0.10941
H	-3.0640281053	-0.9519160589	-3.0314878129	 0.090534
H	-2.5380659983	-3.329786222	-2.3377889767	 0.075212
H	-3.6841387258	-2.1271984326	 0.1502911641	 0.10224
H	-2.8363808247	-3.7161019315	 0.1857503269	 0.106787
H	-0.8226560729	-2.4157069018	 0.9850838914	 0.071221
92.0668	151.5784	196.9699	241.7274	347.1315	374.4485	390.91	469.1344	574.4524	605.8334	721.221	737.433	817.2306	855.2347	885.4376	914.4305	928.4305	957.2917	967.2278	982.8336	1023.0077	1062.9566	1073.6435	1095.938	1117.0645	1120.2303	1161.7621	1196.9891	1231.0087	1245.8217	1254.8786	1301.4956	1309.5195	1330.9933	1337.3493	1362.4092	1397.1507	1449.9111	1484.7003	1526.1702	1691.5797	2960.2566	3002.9884	3031.2431	3058.7843	3074.7813	3097.4774	3138.9773	3177.1695	3202.4985	3835.9708
OCC1C=CC2CC1O2	OC[C@H]1C=C[C@@H]2C[C@H]1O2	
InChI=1S/C7H10O2/c8-4-5-1-2-6-3-7(5)9-6/h1-2,5-8H,3-4H2	InChI=1S/C7H10O2/c8-4-5-1-2-6-3-7(5)9-6/h1-2,5-8H,3-4H2/t5-,6-,7-/m1/s1
