13
gdb 53920	1.87241	1.59622	1.25616	4.4018	64.06	-0.296	-0.0719	0.2241	1057.02	0.085024	-452.759352	-452.749739	-452.748795	-452.794512	32.685	
C	-0.1815474248	 1.4882217719	 0.0336008815	-0.485184
C	-0.1554055989	-0.0132233538	 0.1159196334	 0.38667
O	-0.1422851462	-0.6634472402	 1.1197664551	-0.250093
C	-0.1139885625	-0.7615609739	-1.2880717828	-0.029232
O	-0.8626397438	 0.0110707444	-2.1971697036	-0.417036
C	 1.3077557922	-0.8361967725	-1.691393717	 0.277857
N	 2.4159987202	-0.8351197299	-2.0178299009	-0.30576
C	-0.6629813561	-2.1231331026	-1.1422841412	 0.308848
N	-1.1314109659	-3.1763134148	-1.0841274504	-0.307388
H	 0.6284001328	 1.8512230321	-0.6069227837	 0.167258
H	-1.1188324069	 1.8165994119	-0.4246624491	 0.177067
H	-0.0869592208	 1.8986199029	 1.038797426	 0.160566
H	-0.8245354395	-0.3986705755	-3.0705942372	 0.316427
35.0457	121.9612	132.6056	146.7619	162.2532	238.4924	274.0485	322.8774	377.5536	411.2046	463.3143	529.7327	577.94	588.7265	611.8087	678.6684	902.6735	966.2419	1015.866	1101.3605	1129.2698	1171.1435	1342.9904	1386.1707	1455.1345	1463.7075	1857.7962	2354.3765	2369.9341	3053.3681	3120.2212	3166.8366	3790.9176
CC(=O)C(O)(C#N)C#N	CC(=O)C(O)(C#N)C#N	
InChI=1S/C5H4N2O2/c1-4(8)5(9,2-6)3-7/h9H,1H3	InChI=1S/C5H4N2O2/c1-4(8)5(9,2-6)3-7/h9H,1H3
