17
gdb 77431	2.4569	1.49802	1.20877	3.7604	70.35	-0.2401	-0.0127	0.2273	1069.7242	0.13333	-458.945552	-458.936553	-458.935609	-458.97886	33.764	
C	 0.0164253769	 1.594289684	 0.0225965546	-0.510721
C	-0.0375256084	 0.0972410993	 0.0927956378	 0.102692
C	 1.1812086377	-0.7788984231	-0.3637425346	 0.025483
O	 2.39132676	-0.1067194926	-0.4402874105	-0.429042
C	 0.6293892226	-0.9825869093	 0.9976964658	 0.284057
O	 1.4132777428	-0.7038995069	 2.1078914854	-0.462375
C	-0.6262100296	-1.8564731318	 0.971268248	-0.441907
C	-1.2561865797	-0.7656030126	 0.0580461239	 0.379429
O	-2.3590903392	-0.6220797213	-0.3918578648	-0.316705
H	 1.0386859247	 1.936928643	-0.1558840355	 0.134379
H	-0.6107597391	 1.9402975613	-0.805330391	 0.144728
H	-0.3561981964	 2.0595395281	 0.940313151	 0.130421
H	 1.0709934567	-1.5070641588	-1.1641422893	 0.112026
H	 2.6797466772	 0.0549002009	 0.4696140793	 0.292123
H	 1.8731428522	-1.512344552	 2.3672984094	 0.298417
H	-0.5405199614	-2.8750816776	 0.5797244529	 0.117374
H	-1.143473397	-1.8711929005	 1.9358325074	 0.139621
109.2846	126.1632	169.8381	229.7033	244.4095	274.8962	292.6067	330.6016	463.926	493.3964	499.566	565.3931	577.5489	641.7568	679.4249	698.4494	807.1248	856.5917	965.3095	994.3007	1051.4446	1066.6058	1088.7462	1143.4267	1147.0171	1195.4744	1244.273	1271.392	1312.2443	1339.2891	1398.3729	1410.5037	1444.7031	1476.2211	1490.1244	1493.818	1873.2189	3040.3308	3047.4882	3103.431	3106.6106	3122.6344	3130.5806	3734.0133	3772.9458
CC12C(O)C1(O)CC2=O	C[C@@]12[C@@H](O)[C@]1(O)CC2=O	
InChI=1S/C6H8O3/c1-5-3(7)2-6(5,9)4(5)8/h4,8-9H,2H2,1H3	InChI=1S/C6H8O3/c1-5-3(7)2-6(5,9)4(5)8/h4,8-9H,2H2,1H3/t4-,5-,6-/m1/s1
