25
gdb 60400	3.65221	0.63541	0.58609	1.3545	90.22	-0.2536	0.0743	0.3279	2017.2336	0.227057	-389.48699	-389.475902	-389.474958	-389.523884	40.854	
C	-0.0034405258	 1.5513245205	-0.2303201633	-0.401477
C	 0.0223232115	 0.0545554863	 0.0820955075	 0.134714
O	 0.599176687	-0.1915229663	 1.36507287	-0.428131
C	-1.3618422377	-0.5934452617	-0.0482547709	-0.18087
C	-1.35149708	-2.110407304	 0.1817640295	-0.207832
C	-2.7390749258	-2.7161788962	 0.1307204145	 0.009757
C	-3.3782061365	-3.1046145952	-1.18455017	-0.292857
C	-3.0051349471	-4.1721070626	-0.1821775094	-0.004616
C	-1.9068402597	-5.1724086359	-0.472028004	-0.403053
H	 0.9937892421	 1.9828450291	-0.1084511935	 0.122101
H	-0.3420366514	 1.7377962797	-1.2546851394	 0.11464
H	-0.6889869343	 2.0772970686	 0.4465646803	 0.104052
H	 0.7093581712	-0.4416722667	-0.6159296405	 0.085388
H	 0.0534781364	 0.2620403835	 2.0176196265	 0.2739
H	-2.0420117813	-0.1138187134	 0.6728449395	 0.078167
H	-1.7707252506	-0.3718963967	-1.0423678592	 0.096076
H	-0.7061153015	-2.5766292336	-0.5724274175	 0.089662
H	-0.8829008884	-2.3140480278	 1.1515664025	 0.107236
H	-3.4199577454	-2.2817085131	 0.8607667382	 0.073115
H	-4.4256635814	-2.8794647151	-1.354733423	 0.103822
H	-2.7608725025	-3.0280071808	-2.0756861168	 0.10262
H	-3.8420651802	-4.600966973	 0.364261521	 0.078287
H	-1.0991873941	-4.7361362873	-1.0665237609	 0.115862
H	-1.4643696787	-5.5617107024	 0.4520072666	 0.115622
H	-2.3007539958	-6.0254975358	-1.0358403179	 0.113816
43.8743	67.0895	96.3262	136.4935	182.4395	221.7182	240.4726	248.3717	289.8928	329.6094	371.4463	420.7439	465.7412	482.89	534.2803	752.9165	774.2793	821.3697	846.0833	882.1175	897.1284	930.4387	945.3765	974.8821	1025.0675	1046.6031	1054.909	1080.2315	1107.0148	1114.1758	1121.2088	1151.5271	1174.7751	1199.9917	1217.7619	1250.4206	1274.0556	1299.5067	1341.272	1349.7153	1388.6538	1398.2705	1405.1906	1420.6088	1421.3462	1432.1938	1473.4919	1488.6989	1493.4329	1494.8598	1496.045	1502.2424	1507.3925	2990.5642	3021.0235	3026.6226	3029.0882	3034.2293	3044.8045	3072.9166	3084.8443	3093.0058	3104.4916	3114.2864	3117.5487	3118.5872	3132.7497	3202.2921	3792.9732
CC(O)CCC1CC1C	C[C@@H](O)CC[C@H]1C[C@H]1C	
InChI=1S/C8H16O/c1-6-5-8(6)4-3-7(2)9/h6-9H,3-5H2,1-2H3	InChI=1S/C8H16O/c1-6-5-8(6)4-3-7(2)9/h6-9H,3-5H2,1-2H3/t6-,7-,8+/m1/s1
