18
gdb 83853	2.09978	1.87841	1.30098	2.6866	72.19	-0.2402	-0.0343	0.2059	1025.9978	0.148004	-439.059128	-439.051038	-439.050094	-439.091882	30.595	
C	-0.2913661598	 1.393178647	 0.3409638486	-0.330444
N	 0.0321217256	 0.0115963162	 0.0171152591	-0.087476
C	 0.4912821923	-0.4110964909	-1.2951023971	-0.060108
C	 0.8426152802	 0.5667441369	-2.4134915818	-0.110519
O	 2.228247896	 0.8677684596	-2.4841090945	-0.235293
C	 2.7389284581	 1.4200754457	-1.2906661714	-0.194488
C	 2.5750178743	 0.4938496122	-0.0811583663	 0.364943
O	 3.3637332037	 0.5145005951	 0.8356295032	-0.306912
C	 1.4146378297	-0.4622131691	-0.1060451105	-0.129158
H	 0.2986930371	 2.1649090209	-0.1716026422	 0.108219
H	-1.345257845	 1.5622278784	 0.0981903095	 0.132697
H	-0.1649565231	 1.5318261817	 1.4182623846	 0.143343
H	 0.0421600578	-1.3456879348	-1.6249269168	 0.106801
H	 0.5941717971	 0.1143685715	-3.3762882636	 0.122842
H	 0.2558696665	 1.4951852819	-2.3242448389	 0.101861
H	 3.8079096202	 1.5902836443	-1.438172589	 0.142833
H	 2.2740824876	 2.3963176745	-1.0633970931	 0.115941
H	 1.6191930719	-1.3945218308	 0.4146597302	 0.114918
76.4408	135.5684	189.3932	224.7297	309.7445	356.8683	410.6532	455.179	466.3421	522.9888	598.4167	710.6891	728.7917	775.0218	836.8985	927.3737	958.8543	1004.2581	1045.873	1059.4408	1099.2442	1127.9594	1150.457	1165.6568	1182.1587	1226.8996	1254.9534	1309.3091	1321.2633	1347.7983	1363.0401	1398.761	1407.9339	1452.6748	1464.0119	1483.7591	1501.9652	1506.0228	1806.1957	2951.0782	2976.2464	3008.6391	3077.7059	3097.6927	3110.1112	3113.6558	3124.9786	3142.3312
CN1C2COCC(=O)C12	CN1[C@H]2COCC(=O)[C@@H]12	
InChI=1S/C6H9NO2/c1-7-4-2-9-3-5(8)6(4)7/h4,6H,2-3H2,1H3	InChI=1S/C6H9NO2/c1-7-4-2-9-3-5(8)6(4)7/h4,6H,2-3H2,1H3/t4-,6-,7?/m0/s1
