21
gdb 109385	3.39718	1.08047	0.91539	1.8848	87.38	-0.2301	-0.0237	0.2064	1353.2968	0.183558	-387.091193	-387.08232	-387.081376	-387.124869	33.749	
C	-0.1480788302	 1.6210151698	-0.0914015095	-0.373307
C	 0.0878769849	 0.1083208105	 0.0653878716	-0.285684
C	 0.7480194827	-0.5180774312	-1.1439310607	 0.30702
C	 2.0303996688	-0.9282866032	-1.1321027279	-0.203011
C	 2.7580110421	-1.3838119262	-2.3756090744	-0.104541
O	 2.3731930327	-2.6524233285	-2.8987047035	-0.254149
C	 0.9716223351	-2.8966794541	-2.8566567852	-0.109579
C	 0.0860475103	-1.7171335165	-3.190571795	-0.101744
C	-0.0460031738	-0.6640013535	-2.3689424425	-0.122035
H	 0.7985460688	 2.1483079965	-0.2446056595	 0.122245
H	-0.7961316022	 1.8449056904	-0.9446605615	 0.121106
H	-0.6268811927	 2.0314995086	 0.8028744168	 0.116304
H	 0.7151421426	-0.0690372638	 0.9455281013	 0.104861
H	-0.8731320749	-0.3851293027	 0.2592618283	 0.105819
H	 2.6014522716	-0.8635625835	-0.2089659424	 0.086385
H	 2.6157875948	-0.6205865746	-3.1573499115	 0.096293
H	 3.8306711761	-1.4669260983	-2.1803793824	 0.104393
H	 0.7981463367	-3.7181905067	-3.5570736359	 0.105234
H	 0.6997246459	-3.2496366237	-1.8484968612	 0.097824
H	-0.5104768728	-1.7702910113	-4.0970349885	 0.096111
H	-0.7830373766	 0.1044312317	-2.5939481065	 0.090455
64.9455	118.0019	183.4786	213.1982	234.4819	287.5647	315.0849	379.588	409.5221	477.9375	602.2221	650.8123	690.8733	771.3551	800.1219	841.0626	853.9365	920.3394	943.2565	961.4145	995.4105	1019.9123	1047.0303	1069.2243	1083.5754	1109.2268	1127.4142	1201.5839	1226.6965	1278.5092	1281.9318	1309.3613	1343.4541	1357.4045	1393.0148	1405.6187	1409.5582	1438.57	1485.5627	1496.8261	1498.644	1500.8712	1507.6116	1647.7547	1693.5304	2966.8045	2973.5208	3023.3851	3037.4927	3068.2241	3083.9489	3086.1805	3106.8968	3112.0003	3141.286	3153.8053	3171.6067
CCC1=CCOCC=C1	CCC1=CCOCC=C1	
InChI=1S/C8H12O/c1-2-8-4-3-6-9-7-5-8/h3-5H,2,6-7H2,1H3	InChI=1S/C8H12O/c1-2-8-4-3-6-9-7-5-8/h3-5H,2,6-7H2,1H3
