18
gdb 79086	3.12205	1.80577	1.32681	1.9189	76.49	-0.2004	-0.0046	0.1958	971.606	0.146927	-401.854494	-401.846875	-401.845931	-401.885901	31.105	
C	 0.0739252155	 1.49021421	-0.2950331054	-0.336559
N	 0.0701688284	 0.0560700929	 0.0019914029	-0.120378
C	-1.0439583036	-0.5127864464	 0.8340753186	-0.055765
C	-0.1119020808	-1.7366838047	 1.155484209	-0.062083
C	-0.4222938969	-2.2149271792	 2.5573161763	-0.107823
C	-0.6540352436	-1.0930262364	 3.2389121859	-0.179302
C	-0.4692629618	 0.0132486826	 2.2073243379	 0.354324
O	-0.7164202014	 1.328509465	 2.5932059963	-0.478957
C	 0.7417099142	-0.4264397762	 1.2562564159	-0.093528
H	 1.0578672696	 1.7512873139	-0.7007865947	 0.110784
H	-0.66162492	 1.677828432	-1.0850692181	 0.113728
H	-0.1460327292	 2.1482092244	 0.5520289878	 0.12658
H	-2.0859489481	-0.525479568	 0.5004211998	 0.077814
H	 0.1129518748	-2.4242361956	 0.3449795874	 0.082909
H	-0.4471606774	-3.2430609168	 2.8900675949	 0.110293
H	-0.9298296522	-0.9459021131	 4.2750672641	 0.101708
H	-0.1950618774	 1.5155887797	 3.3814421214	 0.283689
H	 1.8199789398	-0.3346352842	 1.4227409	 0.072569
165.7084	207.6553	241.7529	263.3148	347.6737	358.1172	420.8887	506.1177	507.0296	654.5852	663.1773	697.2209	736.4949	780.5009	788.5502	840.9269	906.4955	913.4563	917.1565	972.3019	1027.8158	1048.9911	1073.2596	1096.9043	1126.0046	1127.9056	1160.9629	1164.6044	1197.3143	1200.5593	1246.9275	1287.0974	1295.0073	1336.7633	1362.6682	1444.5787	1487.824	1515.2654	1643.9588	3021.7813	3063.8525	3076.6586	3086.8615	3095.0019	3166.044	3207.8327	3239.7666	3802.2566
CN1C2C3C=CC2(O)C13	CN1[C@H]2[C@@H]3C=C[C@@]2(O)[C@H]13	
InChI=1S/C7H9NO/c1-8-5-4-2-3-7(5,9)6(4)8/h2-6,9H,1H3	InChI=1S/C7H9NO/c1-8-5-4-2-3-7(5,9)6(4)8/h2-6,9H,1H3/t4-,5-,6+,7-
