19
gdb 17355	4.36414	1.27218	1.09524	2.2253	73.26	-0.2274	0.0851	0.3125	1136.9177	0.164016	-365.007919	-364.999291	-364.998347	-365.041475	31.477	
C	-1.4271269451	-0.8692090759	 2.5398037472	-0.420501
C	-0.3678440556	-1.8190433591	 2.0403445511	 0.068189
O	 0.314282322	-1.4761880116	 0.831431836	-0.267484
C	 1.0837329493	-1.5548595751	 2.043489248	 0.051172
C	 1.6982381579	-0.2905710938	 2.5437331819	-0.013292
C	 2.7950614429	-0.3545741009	 3.5581087359	-0.258495
N	 3.0709938793	 0.1022575977	 2.2068300457	-0.082525
C	 3.8836087049	-0.7471794018	 1.3464617302	-0.31346
H	-1.1181257025	 0.1730960944	 2.444928626	 0.133242
H	-2.347985773	-1.0008111805	 1.9621412073	 0.130411
H	-1.6594982815	-1.0738493168	 3.5905229416	 0.123445
H	-0.6582664728	-2.8715611614	 2.0894640994	 0.086704
H	 1.7319064608	-2.4306422417	 2.0871345579	 0.088429
H	 1.0201818773	 0.5579259541	 2.5720492597	 0.093482
H	 2.861753785	 0.3891206477	 4.3480942082	 0.116418
H	 3.1445706166	-1.3481227852	 3.8420184669	 0.104262
H	 3.8339661303	-1.8224236647	 1.5777918873	 0.0999
H	 3.5767791129	-0.6052893801	 0.3059645024	 0.13623
H	 4.9283589713	-0.4349565953	 1.4419632372	 0.123874
42.1149	125.6877	174.0592	200.9333	231.9893	252.1524	355.307	403.4232	434.131	468.6406	576.146	748.1361	771.0504	837.9557	876.0217	921.478	970.074	1004.5667	1032.7534	1078.2514	1093.8244	1114.3021	1126.5322	1147.7752	1167.6596	1171.2208	1201.1338	1216.0534	1304.443	1325.1189	1340.1086	1406.4517	1429.191	1451.2798	1472.9644	1488.1754	1492.3971	1502.9263	1510.0578	1520.1557	2980.005	3040.4076	3069.6483	3072.5803	3079.6188	3100.7943	3104.2465	3109.5851	3133.9886	3147.5574	3169.6922
CC1OC1C1CN1C	C[C@H]1O[C@H]1[C@H]1CN1C	
InChI=1S/C6H11NO/c1-4-6(8-4)5-3-7(5)2/h4-6H,3H2,1-2H3	InChI=1S/C6H11NO/c1-4-6(8-4)5-3-7(5)2/h4-6H,3H2,1-2H3/t4-,5-,6-,7?/m1/s1
