17
gdb 45560	3.2423	1.44924	1.23817	4.6511	66.58	-0.2649	0.0119	0.2767	1025.8362	0.138837	-459.026394	-459.019267	-459.018323	-459.059188	27.064	
O	 0.3063122478	 0.0398157728	 0.0494222183	-0.329642
C	 0.1064264298	 1.2182033999	 0.0747625705	 0.418546
C	-1.2200983171	 1.9388458038	 0.2857299743	-0.377981
C	-0.8727985517	 3.4279452488	 0.3821279645	-0.087814
C	-0.8875397656	 4.0371565595	 1.8045835892	-0.234191
C	 0.5836098936	 3.9594013839	 2.2323599657	-0.10028
O	 1.3125391357	 4.1547288626	 1.0171060764	-0.228144
C	 0.6399005223	 3.4919298892	 0.0004447811	 0.211137
O	 1.0968414812	 2.1321343739	-0.111491382	-0.226884
H	-1.8662714036	 1.7103015958	-0.5667818632	 0.146642
H	-1.7129205339	 1.5342156544	 1.1728410107	 0.141693
H	-1.4714729665	 4.0249662661	-0.3059175344	 0.095728
H	-1.2068777756	 5.0817987278	 1.7635053251	 0.117954
H	-1.5573738157	 3.505693836	 2.4845355274	 0.112439
H	 0.889893187	 4.7422595365	 2.9285132039	 0.121868
H	 0.8297382764	 2.9836632314	 2.6738316437	 0.114756
H	 0.8846292459	 3.9869356277	-0.9410070112	 0.104172
33.9246	98.1357	218.5123	354.3872	438.0928	527.2898	546.7076	578.0267	655.1594	669.4627	790.1808	835.3514	876.4436	884.1859	918.061	943.7225	972.1429	1002.7166	1020.031	1070.6989	1110.0991	1129.3534	1181.7689	1197.1678	1207.8363	1240.306	1265.6397	1295.9114	1321.593	1338.4875	1360.0183	1383.9471	1408.7523	1462.0318	1491.8926	1526.4817	1883.8609	3014.4372	3065.4881	3070.5907	3096.7397	3107.9092	3110.4911	3115.221	3123.0001
O=C1CC2CCOC2O1	O=C1C[C@H]2CCO[C@H]2O1	
InChI=1S/C6H8O3/c7-5-3-4-1-2-8-6(4)9-5/h4,6H,1-3H2	InChI=1S/C6H8O3/c7-5-3-4-1-2-8-6(4)9-5/h4,6H,1-3H2/t4-,6+/m1/s1
