17
gdb 46418	4.13742	0.75655	0.67958	0.9126	76.02	-0.258	-0.0371	0.2208	1605.3268	0.132988	-421.786832	-421.777619	-421.776675	-421.821942	32.738	
O	-0.2117375421	-0.0064059419	-0.1642498741	-0.269129
C	-0.0828885849	 1.1697800623	-0.0232897112	 0.33499
C	-0.9809688516	 2.3513085623	 0.3643994333	-0.18885
O	 0.1568924471	 3.2317918714	 0.2635930928	-0.292756
C	 1.0756111942	 2.1762212913	-0.1257270882	 0.000997
C	 2.2416942522	 1.9987721288	 0.8344215828	-0.197431
C	 3.1400096885	 3.2527112901	 0.8741025341	-0.356231
C	 4.2516220231	 3.1155413262	 1.8056991638	 0.289028
C	 5.1587725902	 2.9748007205	 2.5814264773	-0.430904
H	-1.7736435481	 2.5883943788	-0.3566352791	 0.135785
H	-1.4081622199	 2.3121662788	 1.3741947031	 0.137858
H	 1.4327031851	 2.3254184677	-1.1557479606	 0.107255
H	 1.8632096008	 1.7911122627	 1.8406697652	 0.118828
H	 2.8238564741	 1.1260639824	 0.5193905821	 0.129759
H	 3.5258734563	 3.4576730913	-0.1332621901	 0.130752
H	 2.5247146578	 4.117073736	 1.1498138606	 0.153754
H	 5.9648617571	 2.8640960013	 3.2635062581	 0.196296
59.3146	85.2414	88.2134	125.3457	193.5101	253.9672	344.2339	389.1502	457.3284	529.871	559.8501	619.7118	642.5921	693.8009	771.5984	820.5847	887.0211	935.0432	984.3303	1009.3561	1038.6089	1068.2593	1085.164	1106.2791	1138.302	1196.9556	1228.8398	1278.1934	1303.7315	1312.6536	1352.2254	1385.4069	1470.785	1480.6176	1485.3878	1925.2571	2240.6406	2999.8948	3020.3998	3022.1369	3049.9032	3062.994	3066.8519	3098.842	3506.4885
O=C1COC1CCC#C	O=C1CO[C@H]1CCC#C	
InChI=1S/C7H8O2/c1-2-3-4-7-6(8)5-9-7/h1,7H,3-5H2	InChI=1S/C7H8O2/c1-2-3-4-7-6(8)5-9-7/h1,7H,3-5H2/t7-/m0/s1
