21
gdb 113987	3.96518	0.62449	0.57321	0.9169	85.89	-0.2561	0.057	0.3131	1927.2145	0.180254	-387.036382	-387.025947	-387.025003	-387.07283	37.625	
O	-0.1929800298	 1.3901799014	-0.7120442936	-0.420159
C	-0.0167521491	 0.1847037641	 0.0227981168	-0.097947
C	-1.3552149437	-0.5012854123	 0.1029291869	-0.009353
C	-1.8356211701	-1.3902812201	-1.0176611949	-0.284369
C	-1.5060280309	-1.9890218023	 0.3302507244	-0.008313
C	-0.3368219403	-2.9354832802	 0.5091583676	-0.208062
C	-0.7288884302	-4.3936310084	 0.180231432	-0.348904
C	 0.3751918222	-5.330286587	 0.3472512263	 0.290481
C	 1.3058804695	-6.0773878587	 0.4921187417	-0.436587
H	 0.6406852649	 1.8698316263	-0.7000495085	 0.284382
H	 0.7223481533	-0.4680524597	-0.4656847176	 0.083043
H	 0.356072125	 0.3953784764	 1.0385065844	 0.085889
H	-2.1113431957	 0.1209674449	 0.5740834928	 0.090705
H	-2.8716042898	-1.3255797744	-1.3307932781	 0.111589
H	-1.1379598636	-1.5757701693	-1.8293771329	 0.111876
H	-2.3670307005	-2.2587422021	 0.9390386853	 0.082628
H	 0.5007645816	-2.6489017255	-0.1341053206	 0.109556
H	 0.0345842742	-2.8951085609	 1.5401482782	 0.109524
H	-1.5673215552	-4.6978345849	 0.8206451634	 0.127778
H	-1.1027531071	-4.4417686335	-0.8503275154	 0.13425
H	 2.1185988253	-6.7489026439	 0.6167031218	 0.191993
60.0057	67.8953	84.3507	97.2387	173.9979	228.4418	259.3599	287.7431	340.7859	363.2382	439.0986	503.2285	569.9611	615.1292	635.0971	759.9079	794.3045	837.3652	890.8599	900.9084	945.251	968.9227	1019.7792	1050.1527	1056.8416	1069.7962	1074.4095	1139.6087	1143.5936	1179.9875	1224.0106	1240.6651	1260.9582	1281.2006	1281.8373	1315.3381	1362.8866	1388.6168	1426.166	1469.9005	1474.3674	1493.2784	1498.0858	1520.4204	2237.9545	2965.2985	2998.1576	3018.3464	3036.3558	3050.2798	3084.6576	3120.3767	3125.9595	3145.6487	3211.5289	3507.8176	3824.9694
OCC1CC1CCC#C	OC[C@H]1C[C@H]1CCC#C	
InChI=1S/C8H12O/c1-2-3-4-7-5-8(7)6-9/h1,7-9H,3-6H2	InChI=1S/C8H12O/c1-2-3-4-7-5-8(7)6-9/h1,7-9H,3-6H2/t7-,8-/m1/s1
