18
gdb 32698	3.40316	1.0484	0.85286	3.7591	78.68	-0.1722	0.0513	0.2235	1376.1291	0.147639	-435.282427	-435.27307	-435.272126	-435.317368	34.167	
C	 0.3142393062	 1.4311173651	 0.1982808492	-0.358756
C	-0.0212766904	-0.0290639204	-0.1279822747	-0.134903
N	 0.6911931546	-0.4976503587	-1.3068253481	-0.384472
C	 1.7916455712	-1.0977502512	-1.1630730351	 0.505801
N	 2.5985691765	-1.61544615	-2.1566783394	-0.373455
C	 3.6653121257	-2.3255276032	-1.5557253683	-0.200564
C	 3.5518300521	-2.1375307585	-0.2345350093	 0.350727
N	 4.2442986967	-2.5802426777	 0.8817726421	-0.593124
O	 2.4380502075	-1.3730605592	 0.0435115997	-0.237529
H	 1.3697671207	 1.534882834	 0.4696844715	 0.111198
H	 0.1235761819	 2.0709726544	-0.6684572816	 0.119967
H	-0.291790753	 1.7918630209	 1.0365234565	 0.101733
H	 0.180020063	-0.6543446019	 0.7538762016	 0.094446
H	-1.0946352938	-0.1080377935	-0.337882063	 0.093169
H	 2.1823260955	-1.8636474622	-3.038319612	 0.26488
H	 4.432062764	-2.8108701084	-2.1323657989	 0.128297
H	 5.1203240107	-3.0235858887	 0.6389990249	 0.254626
H	 4.4028986511	-1.8404007205	 1.5573214445	 0.25796
27.6297	118.8664	163.678	170.2952	199.8463	264.9835	297.4439	377.619	386.1335	430.9601	553.6689	614.7579	626.47	657.0579	724.52	740.2385	776.8789	816.9137	890.5119	930.6319	985.8496	1065.6253	1071.1987	1116.7911	1123.3613	1161.5013	1220.1735	1310.5897	1322.3288	1377.3231	1392.4518	1398.0798	1406.7823	1489.129	1494.9781	1513.3424	1631.0945	1748.5132	1816.1812	2996.4532	3031.6127	3042.1447	3101.7553	3112.3951	3295.2613	3519.8034	3628.4295	3663.8935
CCN=C1NC=C(N)O1	CCN=c1[nH]cc(N)o1	
InChI=1S/C5H9N3O/c1-2-7-5-8-3-4(6)9-5/h3H,2,6H2,1H3,(H,7,8)	InChI=1S/C5H9N3O/c1-2-7-5-8-3-4(6)9-5/h3H,2,6H2,1H3,(H,7,8)
