18
gdb 42079	3.86197	1.25776	1.22409	1.0627	70.93	-0.2514	0.0203	0.2717	1069.0091	0.149865	-439.103732	-439.096165	-439.095221	-439.136654	28.356	
C	-0.0751184255	 1.3967478154	 0.0851266409	-0.07814
C	 1.3440945728	 1.9326521568	-0.1000012518	-0.270153
C	 2.1865254484	 0.7705530344	 0.438401892	 0.346365
C	 1.3273699651	-0.4538747037	 0.07307263	-0.10806
O	 0.0166219289	 0.0091431952	-0.2304936835	-0.259711
C	 3.6870114166	 0.7280226357	 0.0455312835	-0.263937
N	 4.4345137689	 0.9152875487	 1.2973526148	-0.261591
C	 3.558051762	 0.9793281411	 2.209215527	 0.110248
O	 2.2447867907	 0.8863693605	 1.8981717184	-0.257274
H	-0.4117933489	 1.5401700404	 1.1227695699	 0.105143
H	-0.8119757005	 1.846823466	-0.5855318244	 0.11069
H	 1.5624301369	 2.0753872341	-1.1639984693	 0.112663
H	 1.5461978545	 2.864935569	 0.4311012435	 0.117167
H	 1.7289522103	-0.9696914794	-0.8083343453	 0.103609
H	 1.3109458228	-1.1599764581	 0.912772244	 0.112959
H	 3.9689410518	-0.2278861356	-0.4112800554	 0.119251
H	 3.944461139	 1.5160771418	-0.6699185217	 0.120338
H	 3.7599831964	 1.1032989279	 3.2676273675	 0.140432
56.2821	75.8334	190.7931	259.9593	376.1286	414.9677	423.0795	532.3483	644.2505	751.4575	786.8408	845.7869	876.2342	922.4483	929.1489	944.3403	965.1284	987.31	992.7234	1024.922	1088.3026	1122.8988	1149.4376	1156.8152	1184.8093	1203.1683	1240.7434	1257.5942	1269.3564	1314.9007	1326.9393	1339.6128	1367.031	1405.9534	1469.7028	1498.8591	1506.9601	1526.0846	1709.4083	2994.7926	3014.4001	3033.3305	3050.8209	3054.9619	3069.1797	3091.4833	3121.7911	3213.9082
C1CC2(CO1)CN=CO2	C1C[C@@]2(CO1)CN=CO2	
InChI=1S/C6H9NO2/c1-2-8-4-6(1)3-7-5-9-6/h5H,1-4H2	InChI=1S/C6H9NO2/c1-2-8-4-6(1)3-7-5-9-6/h5H,1-4H2/t6-/m0/s1
