17
gdb 121685	2.06727	1.10153	0.74269	2.3704	70.99	-0.2627	0.0155	0.2783	1467.01	0.134885	-455.186919	-455.176936	-455.175991	-455.223911	34.016	
O	-1.1061516652	 1.7216583794	 0.0923561671	-0.418371
C	-0.4616122967	 0.4641923336	-0.0656696248	-0.0841
C	-1.5360036368	-0.5998532097	 0.0985190471	-0.145347
N	-2.5921588467	-0.4001512954	-0.8784916999	-0.330118
C	-3.1262673096	-1.4146004134	-1.5916017946	 0.439067
O	-2.805927038	-2.5832352835	-1.4921355318	-0.375972
C	-4.2359549102	-1.0309747163	-2.6006549465	-0.458046
C	-4.5096413191	 0.3924345785	-2.7430202469	 0.265937
N	-4.6918281692	 1.5313693336	-2.8236185796	-0.312049
H	-0.5054476586	 2.4179746225	-0.1873127079	 0.297496
H	-0.0001548299	 0.3738768343	-1.0597867712	 0.102657
H	 0.3216655798	 0.312413344	 0.6919366884	 0.100273
H	-1.1278193572	-1.6013131498	-0.0498546147	 0.147616
H	-1.9448141395	-0.5431077645	 1.1155117404	 0.124541
H	-2.9000034705	 0.5507448249	-1.0226476038	 0.27806
H	-3.9469882999	-1.4538070389	-3.5673924817	 0.183775
H	-5.1466508927	-1.5535428194	-2.2908812195	 0.184581
27.4022	52.5225	77.4754	122.9691	148.9352	252.1566	276.599	308.6303	375.5459	391.9394	498.6437	507.3548	552.5927	655.7512	665.7316	830.3387	920.3997	947.5674	954.5197	985.227	1080.541	1106.0449	1127.9097	1214.5443	1218.2595	1247.287	1267.9627	1296.5852	1308.0846	1391.8608	1440.0186	1453.4245	1491.073	1514.2562	1549.2399	1790.6416	2356.2753	2987.1964	3017.9936	3038.1165	3067.5729	3108.0922	3128.0151	3612.8212	3841.5648
OCCNC(=O)CC#N	OCCNC(=O)CC#N	
InChI=1S/C5H8N2O2/c6-2-1-5(9)7-3-4-8/h8H,1,3-4H2,(H,7,9)	InChI=1S/C5H8N2O2/c6-2-1-5(9)7-3-4-8/h8H,1,3-4H2,(H,7,9)
