16
gdb 49811	2.33405	1.68973	1.47622	3.0619	71.15	-0.2424	-0.0397	0.2027	966.5434	0.124803	-437.882953	-437.875082	-437.874138	-437.915621	28.854	
O	-0.248980337	 0.093607517	-0.06999208	-0.238973
C	 0.006700982	 1.2460503798	-0.2982106142	 0.161688
C	 1.3678132118	 1.9086689587	-0.0401387952	-0.125391
C	 1.1761210449	 2.777690677	 1.198769627	-0.074848
C	 1.1506581184	 2.2823177931	 2.4348968213	-0.074962
C	 1.3110543196	 0.8140382083	 2.7291196446	-0.138303
O	 2.5447092327	 0.2461802354	 2.2557354969	-0.22053
C	 2.8801909065	 0.3027500312	 0.9479474005	 0.153052
N	 2.4509544484	 0.9573483237	-0.0426072026	-0.251581
H	-0.7637201273	 1.9494760912	-0.6845833707	 0.088145
H	 1.5345467755	 2.5804079849	-0.892575429	 0.103697
H	 1.0444951726	 3.8437537222	 1.0355388515	 0.106562
H	 1.0121095682	 2.9491157599	 3.281290446	 0.109419
H	 1.3349289292	 0.6335566673	 3.8049468019	 0.124771
H	 0.4816187201	 0.2364788702	 2.3028859899	 0.151373
H	 3.7302920841	-0.3632718899	 0.7962501121	 0.125882
89.6666	115.8059	166.5415	228.7009	267.3354	344.1422	394.3515	485.8034	530.3896	692.1209	723.9131	764.9421	782.7136	834.946	915.2378	929.1794	985.3468	990.5433	1004.1298	1008.0025	1062.3291	1108.3507	1180.6696	1244.8485	1273.8148	1297.426	1364.0984	1391.2651	1413.4843	1421.0255	1444.4497	1498.1375	1718.122	1753.617	1824.2438	2886.2961	3017.6268	3039.0855	3117.9023	3135.2517	3156.4746	3179.7885
O=CC1C=CCOC=N1	O=C[C@H]1C=CCOC=N1	
InChI=1S/C6H7NO2/c8-4-6-2-1-3-9-5-7-6/h1-2,4-6H,3H2	InChI=1S/C6H7NO2/c8-4-6-2-1-3-9-5-7-6/h1-2,4-6H,3H2/t6-/m1/s1
