21
gdb 120154	2.83393	0.97814	0.87637	2.2352	78.71	-0.2498	0.0726	0.3224	1412.0788	0.18211	-424.182697	-424.173276	-424.172332	-424.217446	35.246	
O	 0.0055703994	 1.3713777444	 0.0278125017	-0.421987
C	-0.0725790188	-0.0290363625	 0.2517526941	-0.064281
C	-1.4108441902	-0.5200112025	-0.2893408847	-0.21175
C	-1.5570883014	-2.0230162761	-0.1506472138	-0.003553
C	-1.9090658038	-2.7624813801	 1.1116680038	-0.069384
C	-2.9621332578	-2.0043126217	 1.9287911977	-0.288143
C	-3.9412781368	-2.128170079	 0.707649631	 0.122497
O	-4.4925817093	-0.9654732913	 0.1250736386	-0.424813
C	-2.8479254403	-2.8008903798	-0.1113239294	-0.107038
H	 0.8490938717	 1.68264199	 0.3683437676	 0.282612
H	 0.7520648733	-0.5591868699	-0.2542378066	 0.076556
H	 0.003363644	-0.2671645457	 1.325557478	 0.084304
H	-2.2226785523	 0.0070370388	 0.2145449281	 0.122935
H	-1.4819690717	-0.2432354882	-1.3479907528	 0.104279
H	-0.8090823898	-2.5700720828	-0.725237191	 0.081677
H	-1.293639685	-3.5656272608	 1.4983180516	 0.082431
H	-3.315682303	-2.5488149086	 2.8073276826	 0.097302
H	-2.6987389753	-0.9852722393	 2.2273449352	 0.100827
H	-4.7330045987	-2.8530076328	 0.9414941783	 0.072644
H	-5.1873651236	-0.6377334197	 0.7052463101	 0.282237
H	-3.0291920406	-3.6119977923	-0.80696363	 0.080647
59.3371	89.9542	109.1749	191.9717	238.3182	269.9259	286.4936	343.4694	383.6062	421.2338	502.9128	617.8519	698.8262	747.3862	798.8529	808.9519	850.461	908.0772	970.0544	981.0656	999.9237	1017.7078	1029.3698	1062.727	1073.3885	1079.8165	1109.905	1125.1751	1177.8864	1199.7164	1211.5151	1239.4115	1247.5991	1250.4219	1279.299	1308.4607	1324.4311	1333.4284	1361.6467	1425.6362	1456.6025	1460.6018	1482.7157	1502.2395	1527.2752	2953.148	2979.4731	3001.3485	3047.0538	3052.8568	3101.7684	3107.5303	3127.3861	3172.6901	3186.0235	3813.0561	3829.8471
OCCC1C2CC(O)C12	OCC[C@H]1[C@H]2C[C@@H](O)[C@@H]12	
InChI=1S/C7H12O2/c8-2-1-4-5-3-6(9)7(4)5/h4-9H,1-3H2	InChI=1S/C7H12O2/c8-2-1-4-5-3-6(9)7(4)5/h4-9H,1-3H2/t4-,5+,6+,7-/m0/s1
