15
gdb 20407	4.71946	2.07005	1.48783	0.9436	66.06	-0.2459	-0.0036	0.2423	810.6157	0.123592	-358.858131	-358.852109	-358.851165	-358.888236	23.323	
C	 0.1174719519	 1.4328563147	-0.3219601556	-0.204734
C	 1.4568358349	 1.9999252816	 0.2662377994	-0.344047
C	 2.1497625177	 0.7378888396	 0.6737798411	 0.312419
N	 3.3614893149	 0.3584316029	 1.0630694742	-0.314945
N	 3.1801735699	-0.9493215799	 1.28459113	-0.098778
N	 1.9559666997	-1.4456469917	 1.0674640644	-0.314945
C	 1.2907471868	-0.3647125414	 0.6764657006	 0.312419
C	-0.1033965247	-0.0027331546	 0.2711163394	-0.344047
H	-0.7300430381	 2.0936149795	-0.1264738765	 0.105361
H	 0.218849468	 1.3512286273	-1.4083489775	 0.116192
H	 2.0071224474	 2.5966682408	-0.4661240421	 0.122118
H	 1.271596279	 2.6467458481	 1.1325471704	 0.121168
H	 3.9421401509	-1.5422594642	 1.5701043357	 0.288532
H	-0.7738302936	 0.0213093336	 1.1389429272	 0.121168
H	-0.54915248	-0.6844745402	-0.4581310008	 0.122118
133.73	253.2459	271.8203	453.5989	463.4427	575.0786	689.8412	702.742	727.079	729.9446	836.398	899.27	900.7227	988.724	998.9112	1057.6101	1126.797	1155.9224	1158.4987	1193.9651	1220.1073	1221.055	1297.4156	1305.4421	1335.4788	1431.1141	1445.1795	1483.2211	1486.8217	1505.3172	1524.464	1590.7029	3033.3201	3033.7531	3057.7611	3088.0384	3088.3971	3112.384	3673.4824
C1CC2=NNN=C2C1	C1Cc2n[nH]nc2C1	
InChI=1S/C5H7N3/c1-2-4-5(3-1)7-8-6-4/h1-3H2,(H,6,7,8)	InChI=1S/C5H7N3/c1-2-4-5(3-1)7-8-6-4/h1-3H2,(H,6,7,8)
