16
gdb 78119	2.26663	1.60462	1.31448	3.6099	74.75	-0.2468	-0.0175	0.2293	1033.2418	0.122481	-400.692721	-400.684331	-400.683386	-400.725643	31.435	
C	-0.0625285315	 1.4701126525	 0.2315391343	-0.424798
C	 0.0114704361	-0.0065413458	-0.0757240228	 0.010834
C	 0.6533843604	-0.647735576	-1.2342150942	-0.063785
C	 1.9210825786	 0.0575750068	-1.7376804179	-0.326772
C	 1.8660522288	 1.3089188407	-2.4589435699	 0.328026
C	 1.8293000123	 2.3539395383	-3.0520925374	-0.436439
C	 2.3678426873	-0.0137621141	-0.2420443297	 0.382682
O	 3.3159802442	 0.351319248	 0.3723625228	-0.286911
N	 1.2490046316	-0.8297423518	 0.1741016007	-0.198441
H	 0.7652171537	 2.0407881613	-0.1918729217	 0.152214
H	-0.9935030783	 1.878747497	-0.174262994	 0.131787
H	-0.0698001832	 1.622882696	 1.3152500075	 0.140371
H	-0.8452437377	-0.5637033691	 0.2981882381	 0.117984
H	 0.2155359759	-1.4999801533	-1.7404852644	 0.11875
H	 2.5448313982	-0.6654610628	-2.2781912745	 0.149329
H	 1.7970304836	 3.2770951823	-3.5763226968	 0.205168
103.1904	126.1201	150.9523	188.7879	253.5806	351.125	379.2521	431.563	536.0044	588.1473	629.9077	640.0304	650.1918	682.4466	736.5094	813.5528	879.2776	904.9496	953.1043	998.6544	1047.7206	1070.6696	1092.3261	1102.8538	1169.8182	1174.1567	1264.9357	1322.962	1352.0397	1421.3423	1437.749	1484.3918	1501.5871	1922.3991	2236.7576	3042.3247	3046.4789	3108.8465	3128.4644	3148.7418	3187.9768	3501.064
CC1C2C(C#C)C(=O)N12	C[C@H]1[C@H]2[C@@H](C#C)C(=O)N12	
InChI=1S/C7H7NO/c1-3-5-6-4(2)8(6)7(5)9/h1,4-6H,2H3	InChI=1S/C7H7NO/c1-3-5-6-4(2)8(6)7(5)9/h1,4-6H,2H3/t4-,5+,6-,8?/m0/s1
