18
gdb 48795	2.82012	1.44682	1.1492	2.7085	78.55	-0.2375	-0.0352	0.2024	1100.3789	0.147414	-401.897574	-401.889598	-401.888654	-401.929991	30.825	
O	-0.1129929651	 0.1998460992	-0.7898830021	-0.290455
C	 0.0776047325	 0.9796838264	 0.1207630981	 0.050603
C	 1.2230062227	 1.8913837388	 0.1731581184	 0.160693
N	 2.0644687847	 2.0852155695	-1.037394977	-0.360446
C	 2.6724030581	 1.4223329037	 0.102773377	-0.071936
C	 3.0966150987	 2.4927461948	 1.1186286037	-0.311012
C	 1.6211426845	 2.9580999995	 1.174652359	 0.31992
C	 1.0846831199	 4.3500970615	 1.2911645469	-0.309789
C	 0.8645126826	 3.3524661515	 2.4091161499	-0.340745
H	-0.6082506541	 1.0260607334	 0.9922940299	 0.079372
H	 1.7601501589	 1.358540869	-1.6901884998	 0.251121
H	 3.0117128103	 0.3949790579	 0.0450801115	 0.118259
H	 3.4442312869	 2.0673438508	 2.06328187	 0.111703
H	 3.8264475753	 3.2143183932	 0.7424010848	 0.117403
H	 1.7953843218	 5.1529693204	 1.4566347002	 0.119111
H	 0.2357762642	 4.6259654569	 0.6746784216	 0.120311
H	-0.1383195751	 2.9651072844	 2.5560644656	 0.118725
H	 1.4285861232	 3.474742729	 3.3282855925	 0.117164
119.4913	140.7809	177.6237	231.058	286.9285	309.7888	432.6934	477.9963	499.2756	591.0299	738.0987	772.2764	804.7598	822.5531	854.3485	897.8138	920.9417	942.9356	967.2326	1005.3369	1024.9753	1053.3858	1058.343	1075.536	1080.4328	1139.9121	1184.3376	1186.2488	1203.3785	1237.1096	1292.1462	1325.0889	1388.0457	1391.6435	1443.0001	1465.631	1475.0407	1508.3228	1772.0891	2911.7798	3059.9085	3117.6503	3126.297	3132.4374	3192.0933	3204.5524	3220.4047	3444.6555
O=CC12NC1CC21CC1	O=C[C@]12N[C@H]1CC12CC1	
InChI=1S/C7H9NO/c9-4-7-5(8-7)3-6(7)1-2-6/h4-5,8H,1-3H2	InChI=1S/C7H9NO/c9-4-7-5(8-7)3-6(7)1-2-6/h4-5,8H,1-3H2/t5-,7-/m0/s1
