15
gdb 29452	3.34582	1.6573	1.11595	3.0097	72.79	-0.2011	0.0135	0.2146	1026.6955	0.114874	-416.845272	-416.837902	-416.836958	-416.87704	27.82	
C	-0.0152473746	 1.5154868327	 0.0245938374	-0.50505
C	-0.0052149371	 0.0193404726	 0.0434961323	 0.11995
C	-0.0300461919	-0.8170560005	-1.0535461656	-0.154151
N	-0.010592141	-2.163998193	-0.6577566735	-0.42534
C	 0.0272843148	-2.1416096852	 0.6945375998	 0.403657
C	 0.0323637197	-0.8612113791	 1.1740505189	 0.169016
N	 0.0715947177	-0.9311881641	 2.5682879758	-0.341033
C	 0.0868442685	-2.1983187228	 2.8132624415	 0.027101
O	 0.0610047315	-3.0396982861	 1.6997044659	-0.21719
H	 0.8795901659	 1.9290746211	 0.5033486783	 0.132629
H	-0.053964812	 1.8958530994	-1.0001283926	 0.117485
H	-0.8790243645	 1.9177893103	 0.5657965857	 0.13273
H	-0.0609850965	-0.5721184287	-2.1031891338	 0.121955
H	-0.0228482051	-2.9604969248	-1.2683763372	 0.272422
H	 0.1166456247	-2.7049910719	 3.7640446472	 0.145821
125.2533	167.0957	220.6232	238.0952	273.6023	402.5901	523.1057	594.4994	599.9427	630.9122	694.7069	699.8495	756.3179	782.1987	806.0308	915.1178	1002.0699	1021.6447	1065.2196	1075.5316	1114.9976	1200.2186	1258.9133	1312.2089	1341.6373	1420.3134	1450.9741	1479.7307	1501.3035	1529.1982	1546.2592	1597.7555	1612.0387	3029.043	3079.2791	3108.4312	3262.5326	3286.7345	3697.6929
CC1=CNC2=C1N=CO2	Cc1c[nH]c2c1nco2	
InChI=1S/C6H6N2O/c1-4-2-7-6-5(4)8-3-9-6/h2-3,7H,1H3	InChI=1S/C6H6N2O/c1-4-2-7-6-5(4)8-3-9-6/h2-3,7H,1H3
