17
gdb 51481	3.01631	1.33258	1.22117	4.0897	67.99	-0.2454	0.0059	0.2514	1068.3751	0.136335	-458.962501	-458.954545	-458.953601	-458.995773	28.875	
O	 0.6371054344	 0.1428336998	-0.4781921565	-0.279014
C	 0.6268327491	 1.3344952551	-0.5275697676	 0.188854
O	 1.014862978	 2.0995758503	 0.5252056081	-0.196031
C	 0.9798384333	 3.4945266061	 0.3283441915	 0.047324
C	 2.1947502499	 4.2943625883	 0.7368475761	-0.133962
C	 3.4993815762	 3.543114175	 0.959533992	-0.244568
C	 3.727270632	 2.7695416618	-0.3606152549	-0.084061
O	 2.8101288339	 3.2955152781	-1.3395365292	-0.259175
C	 1.8720814866	 4.12316116	-0.7226193729	 0.053811
H	 0.3085128139	 1.9357034325	-1.3964086257	 0.095386
H	 0.0053612946	 3.9368685655	 0.5176688238	 0.111785
H	 2.034703171	 5.2283292871	 1.2618608135	 0.102912
H	 4.2975159336	 4.2678287322	 1.1429437552	 0.114757
H	 3.4571477795	 2.8628990609	 1.8136998363	 0.128522
H	 4.7399403026	 2.8921767392	-0.7568843978	 0.112954
H	 3.5319633132	 1.7015756809	-0.2281143256	 0.129365
H	 1.5022322881	 4.9055450873	-1.3757792663	 0.111142
68.9968	113.4666	140.6805	167.2967	237.7483	293.9175	480.1103	567.111	673.2334	737.1908	759.0552	763.6681	807.7324	842.6267	909.9775	965.6074	976.5099	1028.5042	1039.9718	1057.8932	1090.7765	1098.6592	1133.3645	1139.453	1158.5109	1219.1773	1228.782	1250.8492	1300.7342	1309.3392	1347.771	1396.777	1411.3097	1431.1296	1493.354	1525.0998	1867.7546	2997.5263	3048.2544	3063.2003	3085.7385	3112.5214	3140.5038	3175.0755	3187.0096
O=COC1C2CCOC12	O=CO[C@H]1[C@H]2CCO[C@@H]12	
InChI=1S/C6H8O3/c7-3-9-6-4-1-2-8-5(4)6/h3-6H,1-2H2	InChI=1S/C6H8O3/c7-3-9-6-4-1-2-8-5(4)6/h3-6H,1-2H2/t4-,5+,6-/m0/s1
