21
gdb 75907	2.61156	1.41336	1.13794	2.6751	81.95	-0.2331	-0.0147	0.2183	1164.2835	0.182558	-387.11803	-387.109276	-387.108332	-387.151575	33.97	
C	 0.1342954437	 1.6999963202	-0.0890215198	-0.39279
C	 0.0368975412	 0.1718855281	 0.0737239788	-0.187965
C	 0.7151042431	-0.5120345909	-1.130239578	 0.407717
O	 0.3438918388	-0.4264237903	-2.2724475236	-0.323409
C	 1.9441910784	-1.2845103608	-0.6395070449	-0.318285
C	 2.1943759381	-0.7514967126	 0.7799963532	-0.300967
C	 0.792638934	-0.3916060976	 1.27607084	 0.388293
C	 0.5419380107	 0.0590324328	 2.6852852951	-0.33147
C	 0.0950558966	-1.3165574694	 2.2458982441	-0.319899
H	 1.1758018029	 2.0384561686	-0.0892786458	 0.117655
H	-0.3207667435	 2.0031828399	-1.0356409672	 0.136992
H	-0.3821366235	 2.2107813396	 0.728584648	 0.117119
H	-1.0218094611	-0.1091592609	 0.0804301301	 0.095566
H	 1.6691295317	-2.3472121656	-0.6148067851	 0.131935
H	 2.7779829033	-1.182144292	-1.337534944	 0.125205
H	 2.6942339339	-1.4722272795	 1.4325712635	 0.101719
H	 2.8283705205	 0.1432114979	 0.7400416148	 0.106551
H	 1.3909597331	 0.1301450598	 3.3579844392	 0.110544
H	-0.2216773045	 0.8100956122	 2.859604978	 0.112891
H	-0.9689710421	-1.4880201259	 2.1177847868	 0.112419
H	 0.6420247346	-2.1753836536	 2.622054277	 0.110178
47.2988	136.9131	207.85	220.3127	243.3846	276.9611	332.6228	455.628	470.3076	505.8532	535.0723	637.4387	722.6749	763.5227	788.0348	826.1621	887.7462	913.5147	930.3059	968.2749	984.7278	994.0612	1012.2968	1055.6135	1075.4748	1083.4593	1097.1595	1150.0329	1168.9423	1187.9446	1210.5	1236.4438	1286.7874	1300.1998	1309.0372	1320.3014	1388.6689	1402.7366	1446.7715	1468.6256	1492.8675	1495.6896	1502.4762	1508.7837	1842.6472	3026.7961	3035.0705	3038.5906	3049.4949	3089.505	3107.4946	3111.2453	3121.3293	3122.949	3126.2085	3199.1492	3213.8555
CC1C(=O)CCC11CC1	C[C@H]1C(=O)CCC21CC2	
InChI=1S/C8H12O/c1-6-7(9)2-3-8(6)4-5-8/h6H,2-5H2,1H3	InChI=1S/C8H12O/c1-6-7(9)2-3-8(6)4-5-8/h6H,2-5H2,1H3/t6-/m0/s1
