16
gdb 122735	4.81557	0.51291	0.47524	4.7961	80.74	-0.2772	-0.0566	0.2206	2169.0975	0.122444	-437.84849	-437.838693	-437.837749	-437.88495	33.091	
O	-0.0251660506	 1.4333883839	-0.083888347	-0.4164
C	 0.0077706567	 0.0234460517	-0.0215156128	-0.063586
C	-1.3918414462	-0.5686881928	 0.0109081463	-0.064567
O	-2.0244028183	-0.1805815487	-1.2032677132	-0.257252
C	-3.3850636461	-0.5440609253	-1.2562498602	-0.212775
C	-3.9635305168	-0.1021400258	-2.5176337909	 0.015962
C	-4.4665635974	 0.2544793291	-3.5549632659	 0.127188
C	-5.0328835266	 0.6588501448	-4.7300428429	 0.210998
N	-5.5162418869	 1.0021506481	-5.7287087002	-0.329595
H	-0.5738429907	 1.6578632483	-0.8441456857	 0.292496
H	 0.5595289323	-0.4099475532	-0.8703516389	 0.101821
H	 0.537623302	-0.2474017266	 0.897360138	 0.11583
H	-1.3555585048	-1.6665455721	 0.0962232199	 0.096704
H	-1.9499518246	-0.1691038777	 0.8718438062	 0.104513
H	-3.5068813733	-1.6372085412	-1.1673985329	 0.138604
H	-3.9494627888	-0.0936465524	-0.4217234294	 0.140058
39.9246	62.9707	88.2041	143.6259	160.4804	202.6646	285.6261	329.1928	357.6754	409.7917	459.9015	549.6674	574.9357	588.8695	748.9032	874.11	910.0546	1016.9335	1046.3013	1083.6983	1135.2677	1137.4437	1175.6042	1236.2689	1245.8436	1267.1651	1374.2001	1390.5496	1427.7362	1442.4253	1486.3442	1496.4994	1512.1478	2272.1097	2408.763	2957.1485	2975.103	2978.5928	2986.5155	3020.2602	3084.1589	3802.9489
OCCOCC#CC#N	OCCOCC#CC#N	
InChI=1S/C6H7NO2/c7-3-1-2-5-9-6-4-8/h8H,4-6H2	InChI=1S/C6H7NO2/c7-3-1-2-5-9-6-4-8/h8H,4-6H2
