18
gdb 28202	4.64899	1.19268	0.96873	2.87	81.12	-0.1697	0.0427	0.2124	1217.3746	0.149612	-401.979628	-401.971467	-401.970523	-402.01253	30.543	
C	 0.1236005843	 1.4777134785	 0.0571721907	-0.501737
C	-0.0006399269	-0.0072460956	-0.0402548226	 0.334554
C	-0.1640454047	-0.8163332315	-1.1575477233	-0.418478
C	-0.1452220162	-2.1434839074	-0.6684202247	 0.393284
C	 0.0302473067	-2.1310799229	 0.6822126783	 0.184454
C	-0.1381050348	-3.5036974121	 1.2474216564	-0.371966
C	-0.0727148842	-4.3007102398	-0.1015615489	-0.079931
O	-0.3478629903	-3.3902078407	-1.1969656399	-0.29265
N	 0.0894282045	-0.8134424336	 1.0776422005	-0.421106
H	 1.1342992181	 1.7979938272	 0.3433355931	 0.125448
H	-0.1009352405	 1.9323541636	-0.9104674167	 0.138162
H	-0.5726866085	 1.9026842147	 0.7910402629	 0.1225
H	-0.2763918726	-0.4709697001	-2.1729073545	 0.095562
H	 0.6497331439	-3.8420915012	 1.929752667	 0.107152
H	-1.0990803404	-3.6442234874	 1.7638854144	 0.108965
H	 0.9361880465	-4.7068436368	-0.2438636848	 0.109301
H	-0.7950170126	-5.117761996	-0.1575716621	 0.113491
H	 0.2829983779	-0.4763194691	 2.0043244444	 0.252995
79.4185	120.8856	157.0843	223.7708	267.8143	300.6182	415.7989	474.7772	526.8262	633.4673	675.7046	700.273	732.8102	771.522	820.2795	857.54	929.247	987.8685	994.7425	1009.3618	1056.546	1075.1407	1121.8822	1161.9163	1190.3167	1231.8792	1258.9687	1288.6751	1359.3797	1394.3819	1414.3636	1447.375	1478.9732	1494.388	1500.7268	1513.6566	1523.6779	1543.1216	1646.2227	2987.8346	3010.3531	3025.3156	3049.5822	3054.1677	3109.0511	3120.7695	3256.2605	3677.1324
CC1=CC2=C(CCO2)N1	Cc1cc2c(CCO2)[nH]1	
InChI=1S/C7H9NO/c1-5-4-7-6(8-5)2-3-9-7/h4,8H,2-3H2,1H3	InChI=1S/C7H9NO/c1-5-4-7-6(8-5)2-3-9-7/h4,8H,2-3H2,1H3
