18
gdb 82596	2.22113	2.10395	1.59153	0.8941	70.3	-0.2258	0.0467	0.2725	917.578	0.148918	-439.012905	-439.005257	-439.004313	-439.044708	30.06	
O	 0.1463229708	 1.4625122527	-0.1311943988	-0.418885
C	 0.0272411546	 0.0740360382	 0.035596336	 0.137279
C	 0.2314312381	-0.5771995371	 1.419249614	-0.045314
C	-0.4758545822	 0.1659847145	 2.5641974765	-0.245586
C	-1.7672757774	-0.5430776506	 2.1249431557	-0.045309
C	-2.4572233646	 0.1164405006	 0.9128002486	 0.137282
O	-2.6124709155	 1.5095910651	 0.842875273	-0.418885
C	-1.3872047101	-0.5276694798	 0.01654783	-0.071744
N	-0.9945089817	-1.4786841049	 1.1747533908	-0.176884
H	 1.0747080797	 1.6716192338	-0.2742434834	 0.285055
H	 0.6312382853	-0.4698736648	-0.7051387633	 0.077011
H	 1.1918573772	-1.0557057348	 1.6250736242	 0.064635
H	-0.1337890738	-0.1593945309	 3.5487595694	 0.100796
H	-0.4750990106	 1.2576787842	 2.5135492223	 0.121718
H	-2.3996610798	-0.9943876538	 2.8931609235	 0.064635
H	-3.4084973308	-0.4009588474	 0.7211967853	 0.077015
H	-3.4183043217	 1.7482085359	 1.3116792031	 0.285058
H	-1.7279258675	-0.9556162109	-0.927770747	 0.072124
145.2348	165.6568	216.5717	240.3385	261.4724	321.4802	484.1307	533.8199	610.9415	624.9472	687.0776	727.3119	833.6486	844.1974	875.6965	908.1737	916.3579	943.7445	1014.5839	1047.286	1065.5112	1080.373	1093.4842	1148.5378	1168.9861	1173.4937	1181.6496	1208.8018	1239.7826	1252.8112	1261.9757	1304.0904	1307.3293	1329.452	1371.9458	1372.6401	1432.5286	1447.6466	1479.2259	2992.03	2992.1453	3062.5726	3072.3161	3077.7605	3091.1563	3121.8446	3817.385	3817.4504
OC1C2CC3C(O)C1N23	O[C@H]1[C@H]2C[C@H]3[C@@H](O)[C@@H]1N23	
InChI=1S/C6H9NO2/c8-5-2-1-3-6(9)4(5)7(2)3/h2-6,8-9H,1H2	InChI=1S/C6H9NO2/c8-5-2-1-3-6(9)4(5)7(2)3/h2-6,8-9H,1H2/t2-,3+,4-,5+,6-
