17
gdb 85989	1.92614	1.72219	1.24145	1.6303	70.13	-0.2535	-0.0565	0.197	1077.5841	0.132532	-458.976127	-458.966791	-458.965847	-459.010161	33.701	
C	-0.4213278671	 1.4112901445	 0.2553231246	-0.421792
C	-0.0161517087	-0.0403480816	-0.0179482002	-0.093027
C	 0.926505495	-0.2832650755	-1.2492572005	-0.298536
C	 2.1561585414	-0.5264524668	-0.3127613436	 0.219911
O	 2.9341258166	-1.6836860747	-0.456918517	-0.479164
C	 3.088500443	 0.675307783	-0.2096197213	 0.116137
O	 2.8006398515	 1.8088942021	-0.4942503423	-0.242686
C	 1.1113669111	-0.6135399693	 0.8396784015	 0.313168
O	 1.1760338589	-1.2321954258	 1.863174738	-0.301393
H	 0.4403245814	 2.0796404601	 0.1994013819	 0.158471
H	-1.1524241419	 1.7368740852	-0.4909540255	 0.127592
H	-0.8804421581	 1.5035619186	 1.2439165793	 0.131406
H	-0.8989265997	-0.6871194458	 0.0174641788	 0.108428
H	 0.6820869579	-1.1838351759	-1.812941837	 0.12488
H	 1.0477378434	 0.5718987194	-1.9154408695	 0.131685
H	 2.7563195196	-2.249088037	 0.306550797	 0.29985
H	 4.0948595955	 0.3885304396	 0.1621618858	 0.105068
76.5822	120.8431	166.3318	207.6522	223.5939	239.3553	247.8071	295.1598	340.4758	400.9353	509.0842	545.7192	639.7478	710.7607	756.4929	811.0151	849.4743	911.7153	948.7949	982.0608	1056.1134	1074.2504	1109.3431	1162.3852	1186.4009	1209.3582	1223.1216	1262.9675	1323.9575	1349.3533	1395.9402	1408.4981	1460.2178	1495.7337	1508.6084	1811.5576	1872.0909	2919.0409	3045.4212	3060.0169	3088.0962	3112.7281	3140.7564	3156.5842	3758.5982
CC1CC(O)(C=O)C1=O	C[C@H]1C[C@@](O)(C=O)C1=O	
InChI=1S/C6H8O3/c1-4-2-6(9,3-7)5(4)8/h3-4,9H,2H2,1H3	InChI=1S/C6H8O3/c1-4-2-6(9,3-7)5(4)8/h3-4,9H,2H2,1H3/t4-,6+/m0/s1
