18
gdb 90370	2.37403	1.5683	1.31503	5.0788	71.7	-0.2366	0.0048	0.2414	1061.6969	0.146851	-439.089779	-439.081295	-439.080351	-439.122639	32.154	
C	 0.3630295794	 1.5127959165	-0.0106172779	-0.391473
C	 0.1168320448	 0.0170360302	 0.0525492163	-0.009456
N	 0.9752028387	-0.8109263755	-0.8530435282	-0.333619
C	 1.3336051126	-1.7305305415	 0.2607560183	-0.267495
C	 2.6264987347	-1.2286172555	 0.9163422225	 0.48366
O	 3.7968966187	-1.4140616952	 0.8560170442	-0.324889
O	 1.9592621167	-0.3274670835	 1.7267259888	-0.291994
C	 0.6369691854	-0.790695196	 1.2744754275	 0.426726
C	-0.2571604842	-1.1450307625	 2.4275883291	-0.483034
H	 1.4139623758	 1.7365823672	 0.1839851454	 0.143614
H	 0.105916895	 1.8980284119	-1.0022416183	 0.120931
H	-0.2522190581	 2.038807611	 0.7275128684	 0.115406
H	-0.9519251063	-0.2017594789	-0.0806667889	 0.074467
H	 0.4667744536	-1.2674395681	-1.6002420119	 0.229821
H	 1.1698660735	-2.8003874665	 0.1348177794	 0.103035
H	-0.505024416	-0.2494290737	 3.0077010604	 0.140771
H	-1.190904977	-1.5881985927	 2.0693413891	 0.126784
H	 0.2343396927	-1.8562166371	 3.0974816259	 0.136744
96.4901	178.3707	190.9446	209.7187	226.3442	287.0478	313.3789	410.7715	447.668	536.2004	612.7824	644.1349	693.2575	803.6738	810.4556	841.2765	878.8746	913.9092	965.5864	996.7938	1012.8598	1061.9991	1098.0573	1127.269	1139.9752	1183.8026	1207.8118	1234.9292	1273.6392	1356.2461	1373.7556	1379.6268	1411.1985	1417.7901	1482.237	1487.12	1489.8036	1493.9913	1943.4622	3002.6572	3038.2129	3040.3023	3104.7471	3106.9011	3120.2569	3122.0252	3136.5747	3555.247
CC1NC2C(=O)OC12C	C[C@H]1N[C@H]2C(=O)O[C@@]12C	
InChI=1S/C6H9NO2/c1-3-6(2)4(7-3)5(8)9-6/h3-4,7H,1-2H3	InChI=1S/C6H9NO2/c1-3-6(2)4(7-3)5(8)9-6/h3-4,7H,1-2H3/t3-,4+,6+/m1/s1
