23
gdb 82301	2.19341	1.63568	1.29081	1.1282	84.02	-0.2546	0.0747	0.3293	1127.0466	0.205865	-388.295628	-388.286507	-388.285563	-388.328479	36.962	
C	-0.8758621536	 1.0575166707	-0.0386942943	-0.412705
C	 0.0399811549	-0.1659537986	-0.1128334889	 0.010214
C	 1.0382319041	-0.1525440034	-1.2621971663	-0.040565
C	 2.2929388598	 0.6809336034	-1.1490642037	-0.297737
C	 2.3274243064	-0.7869842212	-0.7973410903	-0.03579
C	 2.15718617	-1.189155986	 0.6584084297	-0.276813
C	 0.8595409585	-0.4928233245	 1.1792489828	 0.366245
C	 1.1687793486	 0.707856148	 2.0820533712	-0.447214
O	 0.0418800155	-1.405939887	 1.924229443	-0.475921
H	-0.3088099063	 1.9877855182	 0.0674746956	 0.110994
H	-1.4717179651	 1.1406104094	-0.953613852	 0.10858
H	-1.5717624692	 0.9798441327	 0.8027089877	 0.120239
H	-0.5953092224	-1.0489950266	-0.2546144029	 0.089469
H	 0.6491913504	-0.3394759949	-2.2578392035	 0.077831
H	 2.7689280359	 0.9696753688	-2.0803843602	 0.106725
H	 2.3863710262	 1.4284404938	-0.3693832315	 0.107243
H	 2.8914309393	-1.4500368987	-1.4443578136	 0.079308
H	 1.9966887473	-2.2706786519	 0.7206765784	 0.104156
H	 3.0296859699	-0.9499289624	 1.2786492908	 0.086017
H	 1.7548201512	 1.4804464508	 1.5788266522	 0.122655
H	 0.24627433	 1.1616370796	 2.4522351347	 0.124465
H	 1.7558650127	 0.3748275692	 2.9474637635	 0.101919
H	 0.456891986	-1.5415657096	 2.7828154575	 0.270683
108.539	192.7735	229.6049	257.8832	271.3381	289.0816	301.3073	358.1506	372.5226	418.7915	445.3315	529.0642	603.7806	622.0056	722.9019	777.9664	826.4916	876.7199	888.1264	906.6931	937.7724	961.7322	973.1872	1018.7109	1057.1561	1063.8565	1069.8948	1095.537	1105.0153	1112.9279	1146.046	1176.5658	1187.4886	1210.6489	1246.7094	1300.0617	1333.091	1340.2438	1366.7734	1377.0639	1393.6564	1405.8539	1419.2875	1478.6606	1486.7461	1493.8265	1496.6378	1504.2529	1509.6642	3024.9591	3027.6068	3031.3137	3033.4461	3074.255	3096.0673	3100.0942	3106.3456	3128.7485	3136.3069	3154.938	3165.8179	3213.208	3803.2387
CC1C2CC2CC1(C)O	C[C@H]1[C@H]2C[C@H]2C[C@]1(C)O	
InChI=1S/C8H14O/c1-5-7-3-6(7)4-8(5,2)9/h5-7,9H,3-4H2,1-2H3	InChI=1S/C8H14O/c1-5-7-3-6(7)4-8(5,2)9/h5-7,9H,3-4H2,1-2H3/t5-,6-,7+,8-/m0/s1
