16
gdb 76105	2.47311	1.25958	1.02369	4.6853	70.35	-0.2729	0.0194	0.2923	1185.4246	0.123132	-437.849635	-437.840958	-437.840014	-437.883763	31.148	
O	-0.0080917322	 1.4039201387	-0.0080659894	-0.400634
C	-0.0175200789	 0.0174907488	 0.0148056883	 0.080309
C	-0.5136132174	-0.7018850299	 1.272786786	-0.255704
C	-0.8459616419	 0.0964513889	 2.4154815772	 0.29777
N	-1.0793056592	 0.7545589798	 3.3383596754	-0.340852
C	-1.3628626665	-0.6333625176	-0.005761775	-0.090215
C	-2.6123814527	 0.1830116075	-0.0525306256	 0.092477
C	-3.522527013	 0.092944411	-1.2011919211	-0.185706
O	-3.8319177065	-0.5589185134	 0.0310849494	-0.235993
H	 0.6628366629	 1.724932872	 0.6053015451	 0.306019
H	 0.7965409316	-0.4701498416	-0.5205885388	 0.110794
H	-0.0651916167	-1.6605205403	 1.5103350505	 0.139884
H	-1.4388554157	-1.577900946	-0.5349563736	 0.116048
H	-2.600040587	 1.1037553614	 0.5249258706	 0.128824
H	-4.1510764532	 0.9447252658	-1.4555311655	 0.123836
H	-3.2782401036	-0.567980505	-2.0322144136	 0.113142
54.6489	100.3878	127.678	168.8477	256.332	297.5336	342.2001	389.8287	407.1572	573.7991	636.0266	660.6498	768.6568	795.0957	842.7502	865.0412	938.2141	977.2701	999.6176	1025.3072	1094.3156	1120.6152	1128.5997	1156.0941	1166.7388	1199.3115	1236.3268	1291.0544	1295.1539	1325.1979	1362.6866	1432.1688	1475.0413	1531.862	2351.3898	3083.4449	3108.3143	3150.7133	3165.2328	3172.3998	3175.7995	3799.3811
OC1C(C#N)C1C1CO1	O[C@H]1[C@@H](C#N)[C@H]1[C@H]1CO1	
InChI=1S/C6H7NO2/c7-1-3-5(6(3)8)4-2-9-4/h3-6,8H,2H2	InChI=1S/C6H7NO2/c7-1-3-5(6(3)8)4-2-9-4/h3-6,8H,2H2/t3-,4+,5-,6-/m0/s1
