17
gdb 64945	3.96037	0.66012	0.64847	0.9148	84.22	-0.2366	0.0333	0.2699	1770.5648	0.132607	-384.603933	-384.594174	-384.59323	-384.640215	35.408	
O	 0.6040838335	 1.1106885077	 0.6397868673	-0.44385
C	 0.0496456394	-0.0609962671	 0.0979329837	 0.231613
C	-0.8891498204	-0.8631773051	 0.986211318	-0.312044
C	-1.4404939027	 0.0129057772	-0.1104037187	-0.289943
C	 0.8796044237	-0.75800443	-0.8510769702	 0.089556
C	 1.6115935088	-1.330626402	-1.6171080869	 0.030885
C	 2.4909694937	-2.0205851684	-2.5620683266	-0.496798
C	 3.2448225831	-3.1288645037	-1.9710115308	 0.316652
C	 3.8680083239	-4.0390295071	-1.4971863964	-0.443889
H	 1.4152576068	 0.861750941	 1.0974031522	 0.285314
H	-0.9183993083	-1.9389575702	 0.8598828347	 0.125534
H	-0.9845004331	-0.5069808865	 2.0056087631	 0.121987
H	-1.8997054107	 0.9510901017	 0.1786363567	 0.131401
H	-1.8527405122	-0.4551749461	-0.9957728779	 0.126582
H	 1.896410444	-2.3967369393	-3.406315412	 0.162684
H	 3.1932972121	-1.2973961488	-2.9994744378	 0.163783
H	 4.4169120884	-4.8435425432	-1.0742647384	 0.200533
16.3673	66.9	106.2135	170.7402	286.3064	302.5243	313.1913	323.2233	357.6614	387.8119	500.1694	554.307	570.6697	623.1075	644.0009	662.5771	775.4393	861.9552	890.3854	924.831	932.4559	939.0775	989.675	1055.3922	1074.2164	1082.0065	1194.4708	1231.5055	1241.8608	1307.2291	1336.8539	1382.7627	1448.4547	1449.422	1486.6883	2246.8083	2364.2669	3008.0231	3032.2633	3140.2571	3147.2087	3230.7858	3245.6409	3506.676	3795.2119
OC1(CC1)C#CCC#C	OC1(CC1)C#CCC#C	
InChI=1S/C8H8O/c1-2-3-4-5-8(9)6-7-8/h1,9H,3,6-7H2	InChI=1S/C8H8O/c1-2-3-4-5-8(9)6-7-8/h1,9H,3,6-7H2
