20
gdb 61263	4.87517	0.79039	0.76823	1.4908	81.41	-0.2198	0.036	0.2558	1519.2793	0.168944	-403.062798	-403.053025	-403.052081	-403.098478	35.119	
C	 0.0716473263	 1.5183159538	-0.0884499992	-0.34282
N	-0.0117993998	 0.0685937381	 0.0323944826	-0.064006
C	 0.7265610929	-0.4329009172	 1.1929425313	-0.317158
C	 2.1625485096	-0.1684440482	 1.1138003975	 0.299409
C	 3.3443605724	 0.0441350757	 1.0726328213	-0.423664
C	-1.3345089237	-0.5045959333	-0.0767807386	 0.018575
C	-2.5972218468	 0.103964077	 0.6149037893	-0.098764
O	-3.3066786634	 0.1195004793	-0.639088976	-0.271428
C	-2.1368131828	-0.2814409442	-1.378646082	-0.109305
H	 1.1209835438	 1.8074909856	-0.1836196231	 0.140551
H	-0.4541171642	 1.8551692087	-0.9840675957	 0.128116
H	-0.3496134454	 2.0567597286	 0.7791314754	 0.099444
H	 0.3461262369	-0.014893609	 2.146169261	 0.112816
H	 0.5718049544	-1.517033016	 1.249990021	 0.133717
H	 4.3897476812	 0.2260162433	 1.0298120879	 0.198586
H	-1.2453511059	-1.570646642	 0.147297513	 0.088522
H	-3.0978741264	-0.5207430656	 1.3641220389	 0.098878
H	-2.4656858057	 1.1137450239	 1.02457966	 0.099306
H	-1.7587247681	 0.5192927216	-2.0262461827	 0.104087
H	-2.3178803953	-1.1711827204	-1.9928550419	 0.105136
46.4418	53.8428	87.7308	152.8515	223.4887	249.5771	305.2609	341.9824	356.0275	402.5776	437.1745	575.8044	611.0869	665.0926	726.7097	858.9123	876.0477	900.9261	963.1385	995.194	1007.1186	1026.5984	1040.779	1089.4636	1106.6108	1147.5408	1152.8415	1162.5264	1224.0776	1233.2677	1262.1349	1300.2732	1318.3719	1359.0928	1386.1938	1430.7048	1460.7695	1478.3042	1491.9735	1500.5459	1522.9927	1537.314	2240.6296	2902.4248	2949.5487	3010.7141	3023.7326	3044.2787	3052.0166	3058.5055	3079.535	3088.9429	3133.1038	3505.1763
CN(CC#C)C1COC1	CN(CC#C)C1COC1	
InChI=1S/C7H11NO/c1-3-4-8(2)7-5-9-6-7/h1,7H,4-6H2,2H3	InChI=1S/C7H11NO/c1-3-4-8(2)7-5-9-6-7/h1,7H,4-6H2,2H3
