15
gdb 123836	3.63941	1.60388	1.14236	4.7175	74.73	-0.2321	-0.0572	0.1749	1002.263	0.114904	-416.808462	-416.801849	-416.800904	-416.83944	25.948	
C	-0.0113424063	 1.4839791894	 0.1021467767	-0.269559
C	 1.378504703	 2.1541001852	-0.052221726	-0.33919
C	 2.1776266348	 1.3882050722	-1.0552719243	 0.197585
C	 1.9638959984	 0.0613282047	-1.3013312854	 0.372719
O	 2.8589028626	-0.3705397065	-2.1772344412	-0.238331
N	 3.6869445913	 0.7908512479	-2.4899454991	-0.03835
N	 3.2508207265	 1.7601855298	-1.8135637614	-0.192539
C	 0.9200291825	-0.7150319631	-0.6725811656	-0.177606
C	 0.0011946089	-0.0298164094	 0.0267059992	-0.060322
H	-0.4729421818	 1.8070741882	 1.039849975	 0.119489
H	-0.6790090249	 1.842665587	-0.6967992181	 0.1324
H	 1.2616841327	 3.2014227544	-0.3424363672	 0.132085
H	 1.9034531854	 2.1535297016	 0.9135267248	 0.125936
H	 0.898993521	-1.7927129251	-0.778219207	 0.121439
H	-0.8160925741	-0.5587141562	 0.5076729198	 0.114244
134.4937	202.493	275.6612	380.2127	419.8691	487.1613	564.1164	587.29	667.8759	692.8567	705.7341	760.6092	816.6821	865.5406	921.1509	985.4016	1007.2375	1019.1729	1042.041	1164.8311	1189.5164	1213.5964	1247.5748	1289.9358	1335.1549	1356.4278	1388.8689	1438.0684	1467.3744	1469.1969	1490.9643	1616.4601	1668.5629	2990.9227	3009.5021	3080.2269	3093.7615	3177.3709	3213.3168
C1CC2=C(ON=N2)C=C1	C1Cc2c(onn2)C=C1	
InChI=1S/C6H6N2O/c1-2-4-6-5(3-1)7-8-9-6/h2,4H,1,3H2	InChI=1S/C6H6N2O/c1-2-4-6-5(3-1)7-8-9-6/h2,4H,1,3H2
