17
gdb 82233	2.4909	2.05949	1.50966	1.4757	65.85	-0.245	0.0544	0.2994	900.5238	0.137586	-458.916389	-458.90948	-458.908536	-458.947433	28.012	
O	-0.0892339723	 1.4347725728	 0.0356572221	-0.429633
C	 0.0166927925	 0.0239769023	-0.0466621923	 0.090742
C	-1.3802123914	-0.5817686459	 0.0114627296	 0.041214
O	-2.3260788712	-0.1881804447	-0.9861187562	-0.237938
C	-1.7452301112	-1.4926736245	-1.0850453792	 0.033176
C	-0.6402352634	-1.6669960209	-2.125801025	 0.058427
C	-0.1079000156	-0.2975168575	-2.5919832632	-0.250203
C	 0.7468295817	-0.4492619726	-1.3206081397	 0.035282
O	 0.6091472504	-1.8965804013	-1.3957912901	-0.299762
H	 0.7960082267	 1.7958477144	 0.1500325488	 0.287798
H	 0.5674138252	-0.3887743135	 0.8140709505	 0.077555
H	-1.8102494919	-0.7089639301	 1.0028378837	 0.103465
H	-2.4318902523	-2.3184269562	-0.9122019016	 0.096841
H	-0.8406692588	-2.4577662631	-2.8511964996	 0.078581
H	 0.4954180342	-0.39106403	-3.4956254599	 0.105788
H	-0.8032484896	 0.5361542511	-2.6540951679	 0.139373
H	 1.7934570272	-0.1266420604	-1.33187769	 0.069294
145.3439	224.7377	270.7173	337.3395	407.3887	423.6784	464.0852	532.07	630.3761	705.3173	768.0998	815.1439	861.2237	889.9253	926.454	929.8988	952.6925	975.5597	1008.0595	1056.1776	1085.9536	1094.1761	1105.4086	1115.8773	1140.3901	1213.0858	1238.3233	1254.8397	1279.0222	1299.8253	1311.7033	1343.2168	1361.8456	1366.9358	1438.3159	1453.0581	1486.5142	2975.9644	3051.7597	3091.055	3101.0819	3129.5993	3142.2532	3175.6249	3813.0301
OC1C2OC2C2CC1O2	O[C@H]1[C@H]2O[C@H]2[C@H]2C[C@@H]1O2	
InChI=1S/C6H8O3/c7-4-2-1-3(8-2)5-6(4)9-5/h2-7H,1H2	InChI=1S/C6H8O3/c7-4-2-1-3(8-2)5-6(4)9-5/h2-7H,1H2/t2-,3+,4+,5-,6+/m0/s1
