18
gdb 90826	3.65477	1.66471	1.47009	2.1128	73.	-0.2323	0.0682	0.3005	920.8715	0.150325	-401.886891	-401.880294	-401.879349	-401.917728	27.468	
O	-0.0634992736	 1.447313756	-0.0149877036	-0.444052
C	 0.0360037482	 0.0288218346	-0.0080409029	 0.121004
C	 0.7329380075	-0.5298990146	 1.2723572097	-0.27494
C	-0.348497305	-1.4002293873	 1.9214140819	-0.030798
C	-0.7878663495	-2.5923015753	 1.0640263377	-0.049405
C	-2.215967336	-2.2125516013	 1.0943210244	-0.059073
C	-1.747959241	-0.7956181308	 1.5608826385	-0.103484
C	-1.3815257381	-0.5289150504	 0.0865598712	 0.033079
N	-1.4445204059	-2.0168777275	-0.1707485363	-0.167265
H	 0.828283951	 1.8087332921	-0.0244522933	 0.282488
H	 0.519535742	-0.3330653121	-0.9269303955	 0.075796
H	 1.6433014802	-1.0957141717	 1.0505547177	 0.099651
H	 1.0044312221	 0.3104504594	 1.9210495364	 0.097468
H	-0.203136471	-1.6521574744	 2.972848016	 0.072515
H	-0.3232724367	-3.5635188779	 0.9492292842	 0.092883
H	-3.1334950078	-2.7811004668	 1.1589472775	 0.097613
H	-2.2575954508	-0.0832717095	 2.2047175683	 0.074638
H	-2.1091845956	-0.0089104425	-0.5362036518	 0.081882
104.0809	265.7714	287.8931	379.5084	399.081	509.9726	657.5654	703.6967	736.9483	761.129	818.3694	833.0363	850.8721	881.7187	892.9664	919.6956	937.1965	982.4501	998.2519	1009.5483	1023.6553	1037.1215	1057.8314	1099.1781	1137.5599	1147.8457	1179.8329	1194.7001	1210.3665	1219.2597	1244.9735	1261.4328	1271.8414	1313.3731	1324.7335	1342.4277	1365.6911	1424.2544	1476.9085	2997.7093	3039.2197	3088.2308	3105.686	3120.7241	3148.4068	3191.4535	3212.8963	3817.9617
OC1CC2C3C4C2C1N34	O[C@H]1C[C@@H]2[C@H]3[C@H]4[C@@H]2[C@@H]1N34	
InChI=1S/C7H9NO/c9-3-1-2-4-6(3)8-5(2)7(4)8/h2-7,9H,1H2	InChI=1S/C7H9NO/c9-3-1-2-4-6(3)8-5(2)7(4)8/h2-7,9H,1H2/t2-,3-,4-,5-,6+,7+,8?/m0/s1
