19
gdb 108556	3.35338	1.43802	1.26674	2.0152	74.27	-0.2136	0.0779	0.2915	1065.9078	0.159473	-422.981446	-422.973736	-422.972792	-423.013655	30.3	
C	-0.0646790797	 1.4992205488	-0.2649622063	-0.375922
C	-0.0778579504	 0.0180214022	 0.1330818977	-0.277979
C	-1.4562716705	-0.5816839094	 0.1016881439	 0.458681
O	-2.3820888692	 0.0614092131	 0.9584821376	-0.3103
C	-3.4093526969	-0.8811140357	 1.2856744742	-0.082055
C	-3.2470733636	-1.9713286895	 0.2391979135	 0.05195
O	-3.4412038006	-1.3323798577	-1.0633872856	-0.304205
C	-2.0265297354	-1.1855254866	-1.1774762207	 0.024835
C	-1.7193629525	-2.0600215947	 0.0170395902	-0.260737
H	 0.9483057487	 1.908295881	-0.2079045025	 0.108934
H	-0.4297480638	 1.6361021977	-1.2878342645	 0.117383
H	-0.7087715226	 2.0798987711	 0.4001229643	 0.139651
H	 0.567715616	-0.5606001405	-0.5389561537	 0.100278
H	 0.3337627808	-0.1004572574	 1.1431254089	 0.106806
H	-3.2729023364	-1.2689525707	 2.3075551649	 0.091704
H	-4.381330671	-0.3844054464	 1.212089858	 0.119435
H	-3.8484505079	-2.8731366083	 0.3577422001	 0.089866
H	-1.5954779475	-1.1165969586	-2.170547229	 0.103336
H	-1.0441527973	-2.8857008285	 0.1980036492	 0.098338
88.7153	151.3938	194.6416	251.8373	325.217	369.3444	408.0762	545.8908	611.2058	703.4654	739.8633	779.0033	820.0866	835.91	861.4618	894.9321	911.9499	938.8592	974.6557	1001.7233	1032.2213	1040.6617	1051.5062	1073.9062	1108.2398	1117.4867	1166.3816	1192.849	1214.25	1229.3999	1281.6536	1295.9086	1314.1776	1360.7334	1376.9266	1409.203	1428.7066	1475.6441	1495.2445	1500.7607	1509.4424	2982.757	3025.4435	3042.5491	3061.2111	3086.5104	3109.8782	3115.3091	3126.3428	3169.3198	3197.66
CCC12OCC3OC1C23	CC[C@@]12OC[C@H]3O[C@@H]1[C@@H]23	
InChI=1S/C7H10O2/c1-2-7-5-4(3-8-7)9-6(5)7/h4-6H,2-3H2,1H3	InChI=1S/C7H10O2/c1-2-7-5-4(3-8-7)9-6(5)7/h4-6H,2-3H2,1H3/t4-,5+,6-,7+/m1/s1
