18
gdb 56275	5.91084	0.59937	0.56647	3.4393	69.65	-0.2659	0.0564	0.3223	1895.6761	0.146409	-476.241883	-476.232171	-476.231227	-476.278661	33.666	
N	-0.1531802743	 1.2614507408	 0.0651588857	-0.563042
C	 0.0416196237	-0.0862265211	-0.0653231001	 0.49127
O	 1.1094040134	-0.6262515901	-0.231680769	-0.394495
O	-1.1433308063	-0.7354517821	 0.0596098265	-0.263065
C	-1.0661457684	-2.165721804	-0.0278131687	-0.049174
C	-2.4442143696	-2.7156188691	 0.3166588602	-0.244659
C	-2.466430414	-4.2232966525	 0.2577786957	 0.094112
C	-3.6387086954	-4.9712597046	-0.2102762999	-0.179641
O	-2.4934343868	-4.8098532419	-1.0479284541	-0.233591
H	 0.6127207534	 1.8461211284	-0.22201254	 0.26849
H	-1.0854479489	 1.6257363314	-0.0345001825	 0.263092
H	-0.7691914187	-2.457188911	-1.0401978094	 0.13458
H	-0.2984574899	-2.5307109641	 0.6617442948	 0.1239
H	-2.7252560634	-2.3845249973	 1.3239500665	 0.111949
H	-3.1847517357	-2.3125040641	-0.3819882717	 0.112794
H	-1.7896412289	-4.7298963982	 0.9490759616	 0.096234
H	-3.8168694422	-5.983122752	 0.1508924543	 0.116961
H	-4.5288138279	-4.4278030585	-0.5253267799	 0.114284
24.2146	55.1433	80.9986	111.0449	172.8346	240.3551	285.3529	360.2489	425.133	434.7767	496.0281	540.0877	672.4388	770.6954	784.9482	815.0635	870.2186	935.8044	951.4265	1018.5367	1064.9846	1096.8894	1111.3255	1126.4194	1157.8655	1160.1144	1179.2492	1244.7298	1290.483	1303.5504	1307.2455	1350.9188	1425.1222	1451.621	1476.7785	1521.9078	1531.3628	1612.9114	1836.6814	3035.9789	3052.3081	3076.359	3082.6883	3091.0887	3107.1857	3169.0205	3613.627	3742.4031
NC(=O)OCCC1CO1	NC(=O)OCC[C@H]1CO1	
InChI=1S/C5H9NO3/c6-5(7)8-2-1-4-3-9-4/h4H,1-3H2,(H2,6,7)	InChI=1S/C5H9NO3/c6-5(7)8-2-1-4-3-9-4/h4H,1-3H2,(H2,6,7)/t4-/m0/s1
