19
gdb 87734	2.9051	1.37065	1.09266	2.6847	79.25	-0.216	0.0077	0.2238	1158.913	0.157975	-423.012447	-423.003875	-423.002931	-423.04561	33.32	
C	 0.3993477694	 1.4358262103	-0.3558492382	-0.392489
C	 0.0061188801	-0.0025162933	-0.0204640959	 0.072051
O	 0.4104234155	-0.8891230274	-1.0852019838	-0.333366
C	 1.2940514347	-1.8757488804	-0.5762501392	 0.376312
C	 1.2939724948	-3.2155565666	-1.2793476606	-0.387131
C	 2.4214351769	-2.2305535495	-1.5212638382	 0.073678
O	 2.4871019823	-1.5243405247	-2.7175243897	-0.433595
C	 1.4096470943	-1.631332446	 0.8726874321	-0.171974
C	 0.6790323526	-0.5701595496	 1.2039908989	-0.112874
H	 1.4860273669	 1.5251891925	-0.4440929075	 0.125541
H	-0.0578470684	 1.7426362814	-1.3009900619	 0.125952
H	 0.0549965592	 2.1189945097	 0.427719046	 0.11634
H	-1.0905276943	-0.0612728131	 0.0623971412	 0.090461
H	 1.489139906	-4.108450069	-0.6935995435	 0.112393
H	 0.5710263682	-3.3299921621	-2.0801014731	 0.127459
H	 3.4023261449	-2.4574750451	-1.1111541088	 0.096634
H	 1.7950389141	-0.8491909154	-2.6649527028	 0.291926
H	 2.0152060228	-2.2434696568	 1.5279333105	 0.114255
H	 0.5673363001	-0.1351682052	 2.1886178744	 0.108426
61.2246	140.9826	205.447	243.0599	264.9892	307.9561	380.0533	418.9801	452.8434	515.7955	534.9765	631.2524	731.468	761.5461	808.1313	837.6435	868.1383	881.131	913.6457	937.9736	947.1501	1009.9662	1031.5307	1058.0651	1083.1082	1099.9162	1117.4783	1132.9959	1159.7336	1228.4464	1280.0909	1331.7433	1350.006	1373.3595	1392.3462	1403.1277	1420.9439	1470.1331	1486.3158	1495.1747	1675.5914	2976.0917	3036.987	3110.9172	3121.1378	3123.3728	3136.7249	3211.4262	3222.0393	3234.9655	3725.0419
CC1OC2(CC2O)C=C1	C[C@H]1O[C@]2(C[C@H]2O)C=C1	
InChI=1S/C7H10O2/c1-5-2-3-7(9-5)4-6(7)8/h2-3,5-6,8H,4H2,1H3	InChI=1S/C7H10O2/c1-5-2-3-7(9-5)4-6(7)8/h2-3,5-6,8H,4H2,1H3/t5-,6-,7+/m1/s1
