17
gdb 50913	2.41925	1.2416	0.91797	3.2209	74.87	-0.2482	-0.0165	0.2318	1257.3629	0.132639	-421.770649	-421.761367	-421.760423	-421.805408	33.222	
O	 0.8391199109	-0.2661849123	-0.5343787017	-0.255977
C	 0.5351115915	 0.897064805	-0.4763193238	 0.172812
C	 1.5425003336	 2.0207502486	-0.3128515634	-0.297965
C	 1.267172837	 3.2582119287	-1.1978066914	-0.219186
C	 2.2377376934	 4.3185641877	-0.936240243	 0.308385
C	 3.0537785269	 5.1777926772	-0.7369696666	-0.440316
C	 1.2207998151	 2.9502372379	-2.6946225401	 0.083106
C	 1.8365914987	 1.7725161165	-3.3158694005	-0.177325
O	 0.4222003178	 1.8343648484	-3.0763532882	-0.230387
H	-0.5291042821	 1.2201039665	-0.4804095705	 0.081176
H	 1.4865379752	 2.346453763	 0.7345533794	 0.13952
H	 2.5488127826	 1.6265145169	-0.4722876317	 0.13451
H	 0.2677194379	 3.6394154275	-0.9383696138	 0.123022
H	 3.7670729196	 5.9432837753	-0.55440753	 0.202687
H	 1.0788309201	 3.8362633048	-3.3139181943	 0.111856
H	 2.1275307635	 1.8175219158	-4.3634501218	 0.126464
H	 2.3698452482	 1.0406925426	-2.7148280886	 0.137618
57.3373	91.4923	115.5763	149.0363	191.6413	261.2952	327.6213	352.8841	443.8585	467.3277	523.5774	600.4617	637.702	658.0739	741.3684	826.1911	868.6652	939.4465	960.5748	998.5049	1051.6331	1077.0292	1099.9906	1130.1138	1162.9653	1182.8157	1199.9127	1261.3187	1295.7946	1330.7393	1347.9699	1428.2368	1431.872	1464.3762	1531.1107	1829.5548	2239.0534	2890.3775	2994.5275	3033.8823	3102.2044	3111.6187	3113.8126	3194.8843	3503.2181
O=CCC(C#C)C1CO1	O=CC[C@@H](C#C)[C@H]1CO1	
InChI=1S/C7H8O2/c1-2-6(3-4-8)7-5-9-7/h1,4,6-7H,3,5H2	InChI=1S/C7H8O2/c1-2-6(3-4-8)7-5-9-7/h1,4,6-7H,3,5H2/t6-,7-/m1/s1
