23
gdb 63632	2.82975	1.12967	1.08563	1.7358	85.92	-0.2541	0.088	0.342	1304.5434	0.202962	-388.27602	-388.26582	-388.264876	-388.31054	38.796	
C	 0.5837195423	 0.9681658694	 0.6600539729	-0.464052
C	-0.855417206	 1.0151135935	 1.1388935022	 0.329753
C	-1.11294907	 1.2570609959	 2.6104236852	-0.314202
C	-1.4390095642	 2.3277273303	 1.599111102	-0.296636
C	-1.7485953795	 0.0121126575	 0.4603925535	-0.075356
O	-3.1558736521	 0.2668546115	 0.4238224438	-0.300086
C	-2.4443125579	 0.195635417	-0.8305046908	 0.402064
C	-2.3608685698	 1.4874507044	-1.6139965517	-0.46358
C	-2.7838552364	-1.0280722551	-1.6562944613	-0.449073
H	 1.2111484247	 1.6524162696	 1.2392461401	 0.116108
H	 1.005495719	-0.0385132792	 0.7677880627	 0.116247
H	 0.664300723	 1.2506855433	-0.3958265903	 0.117437
H	-1.9464825146	 0.7369623269	 3.0704636735	 0.120834
H	-0.2555875508	 1.3990954427	 3.2600134489	 0.106314
H	-0.8045300156	 3.2070222237	 1.5550521657	 0.104067
H	-2.4874629309	 2.5060903705	 1.3936378479	 0.129826
H	-1.502563523	-1.0216175007	 0.724178334	 0.077711
H	-2.0690418554	 2.3273199531	-0.9845044446	 0.138438
H	-1.6326241706	 1.3915384171	-2.4268717834	 0.116924
H	-3.3324866565	 1.7144446734	-2.0670813723	 0.121696
H	-3.7392136864	-0.8876552611	-2.1741896613	 0.122603
H	-2.0161682299	-1.2112549352	-2.4160378682	 0.117548
H	-2.8669715893	-1.9145257283	-1.0227329285	 0.125416
77.7594	135.9585	158.3612	171.9781	208.9692	215.1464	280.1381	299.0002	340.4521	362.6821	380.3029	414.9923	518.1988	535.274	713.2059	736.9155	794.3321	822.4143	869.8463	924.2765	942.3654	947.7428	954.8598	968.6762	1022.255	1045.3624	1068.6905	1085.0353	1090.2141	1119.886	1140.0746	1154.8223	1198.3007	1264.3329	1294.7926	1340.7419	1361.3628	1408.7073	1414.9031	1419.7743	1457.8267	1459.7176	1476.9922	1484.7913	1489.442	1495.4154	1502.7139	1507.2122	1516.939	3021.5827	3031.4835	3038.482	3050.2009	3080.6001	3090.5064	3096.5267	3101.1489	3122.5036	3128.0167	3134.9973	3157.4709	3211.7572	3230.48
CC1(CC1)C1OC1(C)C	CC1(CC1)[C@H]1OC1(C)C	
InChI=1S/C8H14O/c1-7(2)6(9-7)8(3)4-5-8/h6H,4-5H2,1-3H3	InChI=1S/C8H14O/c1-7(2)6(9-7)8(3)4-5-8/h6H,4-5H2,1-3H3/t6-/m0/s1
