18
gdb 30132	3.65608	1.18662	1.01983	1.7485	78.51	-0.1952	0.0232	0.2184	1193.7981	0.148118	-401.941148	-401.933073	-401.932129	-401.974342	30.704	
C	-0.6162699779	 1.4078012826	 0.0160146016	-0.40808
C	-0.2073064589	-0.0440269723	 0.0797633244	 0.01454
C	 1.1184439129	-0.4839964333	-0.443978157	-0.256594
N	 0.845548395	-0.5165396841	 0.988315024	-0.169617
C	 1.522352831	 0.3511223401	 1.8567994196	 0.250004
C	 1.0083751057	 1.0198534077	 2.9312961065	-0.093229
O	 2.001130974	 1.6850341304	 3.593449142	-0.143475
C	 3.156358863	 1.4302341404	 2.9355687305	 0.010408
C	 2.9352741248	 0.622977161	 1.8660724829	-0.276921
H	 0.2493364276	 2.0741102769	 0.0371320156	 0.131199
H	-1.1736725875	 1.5951924734	-0.9076889216	 0.122292
H	-1.2640244256	 1.6762544217	 0.8577255962	 0.123767
H	-1.0341445622	-0.7487506562	 0.0049840017	 0.093942
H	 1.2408736919	-1.452041341	-0.9225953262	 0.116301
H	 1.7796464221	 0.2971444307	-0.8162254502	 0.115366
H	 0.0186352426	 1.108741269	 3.3440257842	 0.128295
H	 4.0413594202	 1.8888908955	 3.3449796758	 0.13311
H	 3.6703770413	 0.2507904073	 1.17014474	 0.108692
47.5916	124.4373	172.4827	215.6826	297.7313	373.6513	423.1251	522.4207	567.716	613.9111	657.7431	714.5544	767.2823	800.3535	820.2295	860.8776	887.4076	910.5244	971.5677	1018.1775	1042.1353	1062.1433	1092.1199	1125.6384	1134.318	1158.8927	1190.3808	1216.0602	1242.6139	1260.4429	1369.6511	1394.7935	1404.1473	1423.5028	1485.5373	1491.744	1511.1203	1537.2409	1634.3503	3036.7226	3092.7754	3097.0505	3109.0415	3129.7689	3179.741	3255.6293	3281.8735	3289.2583
CC1CN1C1=COC=C1	C[C@H]1CN1c1cocc1	
InChI=1S/C7H9NO/c1-6-4-8(6)7-2-3-9-5-7/h2-3,5-6H,4H2,1H3	InChI=1S/C7H9NO/c1-6-4-8(6)7-2-3-9-5-7/h2-3,5-6H,4H2,1H3/t6-,8?/m0/s1
