19
gdb 22346	3.11146	1.09002	0.84495	3.6331	86.67	-0.1847	0.0044	0.1892	1362.607	0.1594	-419.197478	-419.188179	-419.187235	-419.231828	35.349	
C	-0.1608108141	 1.5183014974	 0.035397522	-0.40702
C	 0.0584132509	-0.0017662605	 0.0013223144	-0.068724
C	 0.8986821801	-0.4765560169	-1.2144301844	-0.313602
C	 1.9932722164	-1.3483899065	-0.6198641785	 0.401953
C	 1.9048841114	-1.2813751218	 0.8222507187	-0.307126
C	 0.835620247	-0.5375156113	 1.1918922029	 0.367503
N	 0.3692340338	-0.3132877345	 2.4616546624	-0.584194
N	 2.8058312682	-1.9842160264	-1.3793666912	-0.274245
O	 3.7447593214	-2.7162522974	-0.6054087059	-0.410383
H	 0.7956294073	 2.0494880591	 0.0852490265	 0.126009
H	-0.6835545133	 1.8475455137	-0.8678205319	 0.126197
H	-0.7706612305	 1.8334473831	 0.8900516879	 0.104609
H	-0.9281444366	-0.4851675227	-0.0072176797	 0.093609
H	 0.3003643704	-1.0244571801	-1.9465240543	 0.120892
H	 1.3385542152	 0.378368716	-1.7394015113	 0.118169
H	 2.5933234209	-1.7847626135	 1.4854766592	 0.098748
H	 0.9973924018	-0.5110987916	 3.225254459	 0.257426
H	-0.1988304245	 0.5058425844	 2.6076398555	 0.253134
H	 4.2722809041	-3.1387522105	-1.2898399513	 0.297045
30.5207	158.8524	198.633	234.6319	257.8034	269.439	337.308	353.6537	386.1937	395.5449	499.3289	513.8781	590.7129	599.8716	640.6065	698.6515	779.7225	858.1813	895.498	915.4693	919.5498	966.8919	1044.6389	1084.4848	1093.0928	1124.5624	1209.8739	1234.9308	1265.176	1288.7614	1320.8843	1341.8002	1392.9431	1399.1402	1416.6623	1482.516	1496.1184	1500.6808	1637.7958	1683.5876	1727.1235	3007.853	3026.0181	3050.408	3089.2357	3098.7671	3108.2174	3238.2686	3583.3462	3688.4145	3832.1342
CC1CC(C=C1N)=NO	C[C@H]1CC(=NO)C=C1N	
InChI=1S/C6H10N2O/c1-4-2-5(8-9)3-6(4)7/h3-4,9H,2,7H2,1H3	InChI=1S/C6H10N2O/c1-4-2-5(8-9)3-6(4)7/h3-4,9H,2,7H2,1H3/t4-/m0/s1
