16
gdb 83020	2.98235	1.32393	1.15065	3.8819	76.42	-0.2502	-0.053	0.1972	1085.5754	0.124885	-400.757484	-400.749504	-400.748559	-400.790242	29.783	
O	 0.0166644129	 1.3880031354	 0.0899811895	-0.422878
C	-0.0448681006	 0.0019504693	-0.014693329	 0.129593
C	-1.3514644506	-0.7449063879	-0.0043334876	-0.113524
C	-2.6062832755	 0.0754351467	-0.3059636222	-0.269131
C	-2.405580111	 0.5603501333	-1.7195270752	-0.175917
C	-1.2604068381	 0.0927321328	-2.2507174828	 0.186334
C	-0.8015429196	 0.3499422177	-3.5731405078	 0.204603
N	-0.410394673	 0.5374561865	-4.6471788244	-0.333421
C	-0.4819858925	-0.7289225862	-1.2714517073	-0.214314
H	-0.3199113815	 1.7789691805	-0.724761998	 0.290888
H	 0.7754068993	-0.4584251974	 0.5275853151	 0.114825
H	-1.4413016366	-1.6398901147	 0.599599705	 0.099547
H	-3.5239609806	-0.5188497607	-0.2209895581	 0.128151
H	-2.7119103993	 0.9197588562	 0.3884427267	 0.138697
H	-3.0982768039	 1.219188228	-2.2294690499	 0.127448
H	 0.0881172605	-1.5793830195	-1.625847584	 0.109099
101.3883	111.9294	163.71	207.1186	233.4998	367.4967	502.8181	506.6083	558.1958	565.6079	702.8591	723.3604	758.3165	792.5813	843.7343	860.6282	952.8476	972.6194	981.946	1030.752	1058.5252	1071.0631	1106.6882	1164.0172	1186.1431	1199.5577	1258.4744	1305.7127	1333.0041	1353.1931	1361.0861	1431.1296	1459.0481	1648.7131	2339.7045	3024.2404	3055.9573	3158.2613	3179.2844	3188.0881	3213.6531	3784.611
OC1C2CC=C(C#N)C12	O[C@H]1[C@H]2CC=C(C#N)[C@@H]12	
InChI=1S/C7H7NO/c8-3-4-1-2-5-6(4)7(5)9/h1,5-7,9H,2H2	InChI=1S/C7H7NO/c8-3-4-1-2-5-6(4)7(5)9/h1,5-7,9H,2H2/t5-,6+,7-/m0/s1
