21
gdb 78313	2.5352	1.67	1.40887	1.3805	81.66	-0.2266	0.0704	0.297	1040.868	0.182818	-387.031837	-387.023643	-387.022699	-387.063765	33.606	
C	 0.0109065928	 1.5285266066	 0.0236054852	-0.483625
C	-0.0458295829	 0.0158834375	 0.0237913229	 0.367227
C	-1.4580346015	-0.657559047	 0.0787348137	-0.283162
C	-1.0183983447	-1.4620046262	 1.347062851	-0.227645
C	 0.3945029431	-0.8053725328	 1.2671852867	-0.062531
C	 1.5415307568	-1.4474984973	 0.4570322916	-0.138586
C	 1.1414736885	-2.1205864574	-0.8216437245	 0.087077
O	 0.0105721671	-2.9235533048	-1.0289965597	-0.419824
C	 1.0893404872	-0.6364819173	-0.8101742458	-0.147095
H	 1.0272324335	 1.8885204507	 0.2224615616	 0.111776
H	-0.3004877917	 1.9347259221	-0.9472463995	 0.114526
H	-0.6516992822	 1.9486313742	 0.788225309	 0.110269
H	-2.2533936185	 0.0662602646	 0.2800923343	 0.083469
H	-1.7352475941	-1.2592478619	-0.784519156	 0.118091
H	-1.5591734754	-1.1715409975	 2.2517875648	 0.089896
H	-1.0564904579	-2.5470606516	 1.2556983704	 0.086361
H	 0.7475635783	-0.285098414	 2.159531301	 0.062084
H	 2.5424630546	-1.5859047054	 0.8533813084	 0.078285
H	 2.0174254231	-2.479806216	-1.368221425	 0.089463
H	 0.1635148117	-3.7628289204	-0.5822230749	 0.284977
H	 1.694001062	-0.062597896	-1.5062777752	 0.078967
160.0588	215.8205	232.1115	242.7134	302.6131	307.5521	346.2039	349.2049	522.7349	584.0709	638.8493	667.9765	707.1048	744.0644	782.4597	845.8031	888.3168	905.9534	937.6942	941.1981	962.5782	973.2728	998.2266	1023.7141	1054.7269	1080.7839	1121.9864	1137.4723	1170.837	1207.6054	1225.9114	1227.8152	1242.8361	1259.4332	1272.0579	1288.1999	1321.3049	1326.9967	1369.2598	1410.1016	1464.4396	1466.6124	1487.091	1491.1736	1495.2709	3014.1611	3055.3505	3065.2624	3066.4017	3076.047	3087.4568	3089.5921	3130.2493	3145.2963	3152.4056	3157.0487	3806.4627
CC12CCC1C1C(O)C21	C[C@]12CC[C@H]1[C@H]1[C@@H](O)[C@@H]21	
InChI=1S/C8H12O/c1-8-3-2-4(8)5-6(8)7(5)9/h4-7,9H,2-3H2,1H3	InChI=1S/C8H12O/c1-8-3-2-4(8)5-6(8)7(5)9/h4-7,9H,2-3H2,1H3/t4-,5+,6-,7+,8-/m0/s1
