18
gdb 91790	2.61825	1.67839	1.174	3.384	73.1	-0.2409	0.0221	0.263	1066.8902	0.148074	-439.115722	-439.107246	-439.106302	-439.148501	32.01	
C	-0.0153943218	 1.3878974411	-0.1044922072	-0.345322
N	-0.0207986989	-0.05571532	-0.0839327293	-0.084635
C	-1.2534693249	-0.8359139119	-0.0289450977	-0.187306
C	-0.7823256531	-2.2866343091	-0.0224736754	-0.135442
C	 0.0510400972	-2.7193993059	-1.2114925829	-0.342563
C	 0.7210349092	-2.2545448988	 0.0590741166	 0.344453
O	 1.5092531523	-3.0938445789	 0.8225942387	-0.471832
C	 1.1070683899	-0.8016400033	 0.0968590791	 0.35086
O	 2.2405370695	-0.3994710985	 0.2943705824	-0.422815
H	 1.0241665854	 1.7172193616	-0.057972158	 0.165986
H	-0.4788287872	 1.7740695423	-1.0199961087	 0.126353
H	-0.5584472973	 1.7988043165	 0.7564594339	 0.125376
H	-1.8203179478	-0.590689833	 0.8807205836	 0.112975
H	-1.895038546	-0.608962573	-0.8910670129	 0.113373
H	-1.3689398998	-3.0257923159	 0.507388815	 0.109631
H	 0.1068704698	-3.7885669797	-1.3852231993	 0.12813
H	 0.0781876147	-2.1012406324	-2.10451209	 0.116011
H	 2.3493771788	-2.620914761	 0.922684322	 0.296769
125.7259	141.6559	160.0771	227.042	271.446	301.229	345.1057	359.9443	433.1044	498.524	563.4389	619.6592	727.707	769.0406	844.4477	857.7574	926.6295	943.4171	984.588	1034.2928	1045.8567	1075.605	1101.0459	1109.5905	1157.2921	1200.2732	1228.9454	1266.0128	1291.0329	1321.4906	1382.2177	1431.5925	1440.9732	1464.1355	1490.825	1497.306	1511.8203	1540.5175	1795.2507	2997.2301	3014.7568	3030.165	3065.1658	3118.9201	3142.2267	3200.301	3217.8409	3723.9612
CN1CC2CC2(O)C1=O	CN1C[C@H]2C[C@@]2(O)C1=O	
InChI=1S/C6H9NO2/c1-7-3-4-2-6(4,9)5(7)8/h4,9H,2-3H2,1H3	InChI=1S/C6H9NO2/c1-7-3-4-2-6(4,9)5(7)8/h4,9H,2-3H2,1H3/t4-,6+/m1/s1
