22
gdb 8311	4.69398	0.9509	0.90191	1.4488	79.31	-0.2395	0.0926	0.3321	1415.2708	0.199312	-350.205688	-350.196351	-350.195407	-350.240319	33.98	
C	-0.0876861951	 1.4982322073	-0.2914863891	-0.381736
C	-0.0857944621	-0.0250545979	-0.1419531869	-0.161161
C	-1.4762968873	-0.6021534553	 0.1470481481	-0.186148
C	-1.4747894084	-2.1160298078	 0.2521636835	 0.165374
C	-2.8219926321	-2.8684401606	 0.2642495322	-0.328472
C	-2.2383045845	-3.6469714109	-0.9353057462	 0.181975
C	-3.0101642066	-3.6810317711	-2.2379917776	-0.397733
O	-1.0916981246	-2.7625315987	-0.9890338337	-0.315451
H	 0.9168129882	 1.8799587877	-0.4994646723	 0.111265
H	-0.7399094488	 1.8144144151	-1.1133632259	 0.113542
H	-0.4475743318	 1.9874920813	 0.6208934055	 0.110154
H	 0.3003076777	-0.4907373205	-1.0557242196	 0.118572
H	 0.600536661	-0.3151771333	 0.66473095	 0.091416
H	-1.8699345028	-0.1889839395	 1.086888691	 0.090059
H	-2.1734299672	-0.3044503106	-0.6473547467	 0.091333
H	-0.8024490185	-2.4332099906	 1.0646313863	 0.065326
H	-3.0599996639	-3.4444977874	 1.1596647986	 0.103493
H	-3.6755967954	-2.237535708	 0.0010202755	 0.102089
H	-1.9182204996	-4.6635405028	-0.6620748257	 0.069097
H	-3.3533035061	-2.6787269654	-2.5125873105	 0.116922
H	-2.3781857588	-4.0607494536	-3.0472531208	 0.126181
H	-3.8824181135	-4.3382003674	-2.1487118757	 0.113901
50.4194	90.6024	98.4163	157.6861	234.1234	249.1848	319.9868	329.5128	386.3978	424.6472	483.6623	685.4315	747.1164	822.0818	855.6371	895.4454	904.6048	928.2172	933.5074	975.2176	1041.207	1055.7008	1071.3841	1107.5356	1131.7617	1143.8498	1183.1709	1205.2163	1249.3964	1258.3293	1284.8679	1296.432	1326.1011	1344.8106	1374.4204	1389.3531	1403.9264	1412.1601	1423.0337	1471.4135	1482.8385	1491.9587	1493.2427	1497.9531	1500.5887	1509.8901	2975.6187	2987.6448	3005.8998	3020.1199	3027.6723	3031.8774	3046.0084	3064.1245	3068.6501	3096.0608	3100.7042	3103.9621	3111.2824	3125.8841
CCCC1CC(C)O1	CCC[C@H]1C[C@@H](C)O1	
InChI=1S/C7H14O/c1-3-4-7-5-6(2)8-7/h6-7H,3-5H2,1-2H3	InChI=1S/C7H14O/c1-3-4-7-5-6(2)8-7/h6-7H,3-5H2,1-2H3/t6-,7+/m1/s1
