19
gdb 65674	4.20629	0.9333	0.90544	2.7076	75.98	-0.2428	-0.0256	0.2172	1328.7727	0.15707	-422.987001	-422.978082	-422.977138	-423.021142	32.818	
C	 0.0132455349	 1.6680620709	-0.3178309484	-0.476674
C	-0.0220511485	 0.1589014973	-0.177441313	 0.281078
C	-1.3342398238	-0.4120421989	 0.3475241781	-0.347356
C	-1.6688420547	 0.0797530734	 1.7433833782	 0.163867
O	-2.7500584997	 0.4778129775	 2.0900648476	-0.239994
C	 0.6660547977	-0.7740279595	-1.1698808057	-0.186732
C	 2.0186400019	-0.2091064689	-1.5865739281	-0.11143
O	 2.4066410559	-0.0051380325	-0.199126412	-0.285402
C	 1.1977978395	-0.6245197205	 0.2400811314	 0.059981
H	 1.0288648738	 2.021760227	-0.5040149318	 0.141883
H	-0.6335115727	 2.0042322297	-1.1357586107	 0.120837
H	-0.3379258411	 2.1537426391	 0.5994375642	 0.126272
H	-2.1744421798	-0.1764557713	-0.3140601917	 0.12423
H	-1.2616744099	-1.5085210463	 0.4078423131	 0.119962
H	-0.8155621286	 0.0360154392	 2.459874228	 0.078176
H	 0.1506916552	-1.5956744562	-1.6499098939	 0.099505
H	 2.6710961145	-0.9535336593	-2.055577582	 0.116045
H	 2.0368323458	 0.7189701868	-2.1689227034	 0.110276
H	 1.2586021695	-1.3031130477	 1.0846083701	 0.105478
60.4147	81.5094	167.3879	179.0344	245.3675	263.2462	322.7526	345.7988	441.1106	473.1506	577.2667	691.2568	754.6182	792.2676	844.0419	897.9147	949.983	965.0241	974.1598	997.3392	1004.2096	1048.7419	1056.8832	1085.086	1098.6464	1128.2111	1161.9291	1186.2341	1219.6151	1244.4063	1303.7579	1308.7805	1336.4421	1415.3194	1417.0485	1425.4298	1456.1812	1492.4348	1500.406	1521.7553	1836.3779	2861.4821	3005.0988	3030.054	3034.4755	3078.93	3081.1754	3089.4548	3133.2986	3164.0385	3196.1593
CC1(CC=O)C2COC12	C[C@@]1(CC=O)[C@H]2CO[C@@H]12	
InChI=1S/C7H10O2/c1-7(2-3-8)5-4-9-6(5)7/h3,5-6H,2,4H2,1H3	InChI=1S/C7H10O2/c1-7(2-3-8)5-4-9-6(5)7/h3,5-6H,2,4H2,1H3/t5-,6+,7+/m0/s1
