17
gdb 39209	2.91462	1.90866	1.37499	2.2592	71.97	-0.2488	0.0076	0.2564	936.1955	0.137716	-421.814935	-421.808146	-421.807202	-421.846143	27.142	
C	-0.008611086	 1.4909015118	 0.3582938496	-0.102266
O	 1.2306865235	 2.0446287063	-0.0892053567	-0.286676
C	 1.9797077306	 1.0826953135	-0.8345327342	 0.033258
C	 2.0063429648	 1.2128925084	-2.3425207039	-0.11001
C	 1.7596042597	 0.0414348843	-2.9360491984	-0.065342
C	 1.4583322439	-1.0730371122	-1.9485317703	-0.391222
C	 1.2655334763	-0.2529930042	-0.6890895985	 0.435926
O	 1.1082153814	-0.7283770347	 0.637211813	-0.319192
C	 0.0260739419	 0.0157023238	 0.0349037539	-0.064818
H	-0.1129032467	 1.6960028532	 1.4304086319	 0.116732
H	-0.856886521	 1.9553817154	-0.1668071271	 0.101816
H	 2.9966460164	 1.0885003403	-0.417846419	 0.095231
H	 2.2577030594	 2.1390423664	-2.8455388828	 0.106345
H	 1.7799691326	-0.1328261836	-4.006291106	 0.102836
H	 0.5821938644	-1.671580111	-2.2188772749	 0.116363
H	 2.3033168976	-1.7680222405	-1.8509523582	 0.12596
H	-0.8926939988	-0.5414478072	-0.1257996884	 0.105057
96.4348	207.5277	261.456	368.946	412.5267	459.5917	542.7075	609.1298	696.639	743.194	782.3298	809.0928	887.4788	925.6948	933.9232	953.7456	960.7773	980.0608	1005.7023	1022.4878	1046.889	1090.2405	1107.4604	1133.7819	1153.5219	1213.2415	1223.4455	1277.2025	1292.755	1311.2244	1341.2095	1368.1705	1382.935	1479.3165	1493.345	1506.8553	1664.3162	2994.6031	3008.3682	3022.1161	3052.4375	3069.8412	3157.0386	3186.4887	3213.9079
C1OC2C=CCC22OC12	C1O[C@@H]2C=CC[C@]32O[C@@H]13	
InChI=1S/C7H8O2/c1-2-5-7(3-1)6(9-7)4-8-5/h1-2,5-6H,3-4H2	InChI=1S/C7H8O2/c1-2-5-7(3-1)6(9-7)4-8-5/h1-2,5-6H,3-4H2/t5-,6+,7-/m1/s1
