13
gdb 131168	3.35366	1.31564	0.94494	4.4036	64.58	-0.2198	-0.0255	0.1942	1122.3176	0.090893	-486.083867	-486.076269	-486.075325	-486.116314	27.629	
O	 0.0970168852	 1.4021853936	 0.006443086	-0.446588
C	 0.0729512476	 0.0519149969	-0.0172873916	 0.272153
C	 0.0347036938	-0.7496874208	-1.1378284146	 0.388884
N	 0.0109190275	-0.4344381971	-2.4911488755	-0.413494
C	-0.0266014286	-1.3577478391	-3.4951109503	 0.148154
O	-0.0436913853	-2.5604247055	-3.3179974987	-0.328109
N	 0.0236158387	-2.006114604	-0.6269792288	-0.226403
N	 0.0535106496	-1.9899222876	 0.7133646673	-0.128618
N	 0.0830305948	-0.7294835952	 1.0805558654	-0.271782
H	 0.1214990757	 1.6674196031	 0.9344808996	 0.312219
H	 0.0228081798	 0.547355796	-2.7233814507	 0.281461
H	-0.0401563374	-0.8874263068	-4.4926859862	 0.106387
H	-0.0029160615	-2.8586579036	-1.1687728419	 0.305736
80.965	172.9159	203.2144	256.2531	323.1381	326.4182	412.066	468.1281	550.812	629.3463	629.4696	720.1259	737.7727	753.0532	888.9992	1008.2191	1011.8861	1090.269	1137.2707	1172.5835	1245.4298	1272.2314	1361.0011	1394.7403	1427.8327	1522.4379	1558.52	1709.6738	1781.0586	2998.3741	3626.0077	3628.6012	3798.6237
OC1=C(NC=O)NN=N1	Oc1c(NC=O)[nH]nn1	
InChI=1S/C3H4N4O2/c8-1-4-2-3(9)6-7-5-2/h1H,(H3,4,5,6,7,8,9)	InChI=1S/C3H4N4O2/c8-1-4-2-3(9)6-7-5-2/h1H,(H3,4,5,6,7,8,9)
