16
gdb 47871	2.32737	1.76758	1.16728	3.9109	67.49	-0.2586	-0.064	0.1946	1040.4515	0.124475	-475.014963	-475.006834	-475.00589	-475.048667	29.306	
N	-0.0226658075	 1.2670345343	 0.1291961554	-0.456528
C	 0.0376249898	 0.046979591	-0.2004846624	 0.303108
O	 1.107516645	-0.4688632979	-0.8618233021	-0.242375
C	 1.5523458233	-1.8215881048	-0.7262956711	-0.078799
C	 0.4385751668	-2.8741115343	-0.7174561905	-0.128347
O	-0.5694195081	-2.5307085987	-1.6451384628	-0.233797
C	-1.6314140722	-1.8215027272	-1.0447622608	-0.155846
C	-1.2262412422	-0.7938776433	 0.0202785488	 0.250616
O	-1.9314100524	-0.595734722	 0.9753098535	-0.263122
H	 0.8560423642	 1.7346049865	-0.109241204	 0.230681
H	 2.1916656416	-1.970273244	-1.5995026776	 0.135057
H	 2.1719677475	-1.9197920023	 0.1751507638	 0.116467
H	 0.8704032541	-3.8361432281	-1.0142121915	 0.125637
H	 0.0172598468	-3.0065613848	 0.2895399939	 0.122926
H	-2.1523718596	-1.28477982	-1.8475850019	 0.147053
H	-2.3512752072	-2.4985960442	-0.5642419108	 0.127269
39.7877	100.697	127.2856	264.7415	283.4352	348.0142	414.8262	423.8627	513.7547	623.7666	630.2765	677.4882	738.5608	866.9259	874.9008	928.3044	979.1059	1013.7131	1023.685	1110.8655	1157.776	1178.7032	1187.063	1254.0598	1281.6882	1313.3025	1316.0394	1371.4892	1409.7359	1429.9797	1474.4851	1501.8875	1513.2417	1712.4985	1816.1414	3001.8202	3012.2862	3024.7343	3065.3384	3070.4366	3108.3147	3453.2053
N=C1OCCOCC1=O	[NH][C]1OCCOCC1=O	
InChI=1S/C5H7NO3/c6-5-4(7)3-8-1-2-9-5/h6H,1-3H2	InChI=1S/C5H7NO3/c6-5-4(7)3-8-1-2-9-5/h6H,1-3H2
