20
gdb 54607	2.51843	1.43225	0.93898	3.0541	85.79	-0.197	-0.0163	0.1807	1261.9216	0.171067	-403.211392	-403.202002	-403.201057	-403.245537	34.812	
C	 0.0119866001	 1.5144618828	 0.0561321674	-0.481712
C	 0.0725464192	-0.0047568239	 0.0332498461	 0.279177
O	 0.2444592909	-0.6261756483	 1.0905946477	-0.396095
C	-0.0685575222	-0.6703614647	-1.2393727366	 0.13252
C	-0.0473287513	-2.0400069528	-1.3534121437	 0.329715
N	 0.0903310257	-2.9127103537	-0.3432952387	-0.57943
C	-0.2622382813	-2.4840943849	-2.7794040642	-0.307207
C	-0.022746377	-1.1884438769	-3.5865551161	-0.208772
C	-0.3090505315	-0.0324580776	-2.5946428721	-0.324609
H	 0.8164923067	 1.9439639548	-0.5520218349	 0.130376
H	-0.9325510967	 1.874283609	-0.3675991345	 0.128978
H	 0.1086983611	 1.8648864451	 1.084477799	 0.130942
H	 0.2331457364	-2.5082342137	 0.5772795612	 0.28349
H	 0.1780707627	-3.8986035727	-0.5105336946	 0.25352
H	 0.4015906794	-3.3064237624	-3.0699172888	 0.106233
H	-1.290981885	-2.853588535	-2.8934362238	 0.120884
H	 1.0262399278	-1.1483820057	-3.8965708104	 0.108823
H	-0.6328653166	-1.1375028974	-4.4916891606	 0.098394
H	-1.343832849	 0.3267739688	-2.7014640976	 0.096833
H	 0.3345781804	 0.8320198394	-2.7924516049	 0.097942
97.1778	109.8221	129.7077	160.6801	210.2291	237.7486	269.7418	329.2058	437.154	471.0235	529.1417	608.937	624.1676	636.851	709.8173	750.8494	851.0787	897.9274	917.7749	927.9004	991.8446	1018.3283	1033.8244	1064.257	1084.3057	1153.32	1190.2302	1230.1576	1243.7733	1306.8809	1313.5706	1334.0895	1342.7389	1381.529	1454.9847	1463.565	1476.8111	1476.9687	1492.9353	1512.4381	1541.4158	1646.9043	1702.8698	2985.645	3013.9282	3031.1293	3042.9069	3053.7895	3064.5781	3089.6621	3103.5654	3147.6098	3479.0084	3713.0993
CC(=O)C1=C(N)CCC1	CC(=O)C1=C(N)CCC1	
InChI=1S/C7H11NO/c1-5(9)6-3-2-4-7(6)8/h2-4,8H2,1H3	InChI=1S/C7H11NO/c1-5(9)6-3-2-4-7(6)8/h2-4,8H2,1H3
