25
gdb 122971	5.31652	0.48745	0.46329	0.4543	87.64	-0.2483	0.0768	0.3251	2432.8768	0.225845	-426.621927	-426.609879	-426.608935	-426.660632	41.777	
C	-0.0624484531	 1.5510729692	 0.1777361741	-0.38407
C	 0.0176252848	 0.03987033	 0.0394297028	-0.026726
O	 0.6905960296	-0.4811356107	 1.1655309072	-0.243328
C	 0.8131787268	-1.8874476033	 1.1435179338	-0.059492
C	 1.5697045899	-2.3196868892	 2.3941902531	-0.204938
C	 1.662555996	-3.8424680708	 2.5799698387	 0.033337
C	 2.4658152639	-4.5383202857	 1.4718019258	-0.391605
C	 2.2539584708	-4.1595830056	 3.9551517902	-0.079222
O	 2.1870397007	-5.5635502467	 4.1633543209	-0.424253
H	 0.9401722306	 1.9839125936	 0.2385450947	 0.125373
H	-0.5782302845	 1.9873449768	-0.6829571092	 0.11268
H	-0.6081311571	 1.8243992825	 1.0853779132	 0.12527
H	-0.9941181208	-0.3951348924	-0.03552731	 0.082533
H	 0.551905258	-0.2360917287	-0.8862498542	 0.082615
H	-0.1854639842	-2.3593209007	 1.1201452035	 0.081724
H	 1.3396956692	-2.2068335343	 0.2292761605	 0.086417
H	 2.5761941342	-1.8824132633	 2.3641850717	 0.100001
H	 1.0604508051	-1.8714443103	 3.2561589829	 0.101405
H	 0.6437787416	-4.2557884903	 2.5791651339	 0.081082
H	 1.9787714361	-4.4486982771	 0.4966926699	 0.110389
H	 3.4682973202	-4.1004988524	 1.3859977814	 0.105899
H	 2.57916605	-5.6005123496	 1.6991747447	 0.133916
H	 3.2963655178	-3.8011264183	 3.9979519309	 0.081961
H	 1.6888523002	-3.620054891	 4.7319025667	 0.082816
H	 2.629503274	-5.7667752417	 4.9920723728	 0.286217
41.2118	50.5898	85.3285	109.8004	119.6159	142.9933	215.3331	234.5626	242.5031	250.4761	261.7671	321.0052	384.8572	425.4862	497.4023	546.983	793.5928	821.7459	846.0825	899.9112	925.7376	948.2984	991.1834	1032.0709	1052.7701	1084.4028	1102.791	1144.0106	1167.9011	1173.8681	1176.2949	1195.0332	1230.4854	1255.0513	1273.103	1294.9081	1304.3563	1314.3208	1360.3095	1380.2851	1392.2309	1404.4729	1410.1445	1452.035	1459.021	1483.9107	1487.8463	1495.1637	1499.6249	1508.6139	1517.4045	1520.8	1539.6939	2939.7951	2952.6881	2956.1822	2970.9021	2980.6814	2986.3475	3010.5362	3022.9234	3030.7626	3044.3792	3066.2339	3098.6163	3118.6727	3120.7286	3129.1031	3836.3629
CCOCCC(C)CO	CCOCC[C@@H](C)CO	
InChI=1S/C7H16O2/c1-3-9-5-4-7(2)6-8/h7-8H,3-6H2,1-2H3	InChI=1S/C7H16O2/c1-3-9-5-4-7(2)6-8/h7-8H,3-6H2,1-2H3/t7-/m1/s1
