16
gdb 78106	3.01266	1.29097	1.09083	4.1904	67.09	-0.2328	0.02	0.2528	1106.6903	0.122668	-474.988034	-474.979469	-474.978525	-475.021241	31.635	
O	-0.2959329525	 1.4344730211	 0.3141369651	-0.413494
C	-0.1710755089	 0.0591582834	 0.150874626	 0.02276
C	-0.5388542672	-0.9441613316	 1.2327888648	-0.168974
N	-1.6520223061	-0.4495585929	 2.0259295392	-0.031253
C	-2.5472150041	-0.2927635906	 0.8631733371	-0.241092
C	-1.3937241359	-0.7854968085	-0.0327816493	 0.320568
O	-1.5549886029	-1.6899019703	-1.0573598727	-0.451431
C	-1.6061907519	 0.3578767367	 3.1218078183	 0.13181
O	-2.5119626789	 1.0702303029	 3.494249533	-0.31882
H	 0.3900360444	 1.7393758243	 0.9182846683	 0.295602
H	 0.6651560201	-0.2790339016	-0.4646777081	 0.102365
H	 0.1028944423	-1.7485876417	 1.5716368383	 0.119724
H	-3.3821931776	-0.9978785581	 0.8857407511	 0.130211
H	-2.9035259932	 0.7284286331	 0.7129070014	 0.141224
H	-1.6036439581	-1.2054588033	-1.8892316958	 0.29633
H	-0.6467915094	 0.2463792872	 3.6708536431	 0.064471
71.4648	162.9483	209.5225	224.2649	250.7816	287.6001	318.3614	348.1881	382.3609	507.3404	543.4524	618.9594	676.2749	779.1434	838.7529	887.239	925.8799	960.1685	1020.0129	1033.9309	1059.701	1125.2634	1154.4741	1173.043	1217.798	1237.282	1275.8122	1286.3373	1312.9254	1364.0966	1391.486	1432.0386	1481.1757	1504.7001	1800.7689	2906.6814	3066.1843	3092.3703	3129.0168	3188.5483	3796.6451	3802.0664
OC1C2N(CC12O)C=O	O[C@H]1[C@H]2N(C[C@@]12O)C=O	
InChI=1S/C5H7NO3/c7-2-6-1-5(9)3(6)4(5)8/h2-4,8-9H,1H2	InChI=1S/C5H7NO3/c7-2-6-1-5(9)3(6)4(5)8/h2-4,8-9H,1H2/t3-,4+,5+/m1/s1
