16
gdb 8059	3.46788	1.84314	1.55312	2.8481	65.56	-0.2447	-0.0257	0.2189	854.6095	0.129804	-383.694546	-383.687257	-383.686313	-383.726124	27.553	
O	 0.447879455	 1.0803027417	 0.3813695622	-0.468218
C	 0.2214462786	-0.2579781481	 0.1369583911	 0.380731
C	 0.6235755156	-1.1127937163	-1.106423553	-0.288936
C	-0.242164764	-2.034415392	-0.1983753827	-0.056246
C	 0.5657572456	-1.4954323993	 1.0214168842	-0.293767
C	-1.2257355701	-0.8383475546	-0.0390173692	-0.091734
C	-2.2023495545	-0.7638106395	 1.099870103	 0.116364
O	-2.341943801	-1.5944054169	 1.9646674285	-0.249597
H	 1.393073393	 1.2131965665	 0.5136113375	 0.287973
H	 0.1967973615	-0.81523425	-2.0675597948	 0.096953
H	 1.6808603372	-1.3785871087	-1.1914327017	 0.091017
H	-0.5177650459	-3.0675816605	-0.3878680816	 0.09432
H	 1.6220914556	-1.7773816064	 1.0525969692	 0.087353
H	 0.0923711177	-1.5702775798	 1.9983338008	 0.129279
H	-1.714284581	-0.4905720669	-0.9575571506	 0.082762
H	-2.8327192733	 0.1551034607	 1.0898075671	 0.081744
86.2513	177.5192	203.9585	240.5849	347.0515	386.7205	475.0774	561.0473	629.5794	715.0423	779.4769	796.7835	845.5487	922.1203	946.3593	953.5605	985.5453	1025.7465	1054.1178	1089.8439	1095.6694	1125.1736	1135.3688	1153.9568	1204.5995	1209.1357	1227.8461	1296.153	1349.4726	1392.2945	1428.5889	1497.5925	1541.8161	1816.6015	2867.4666	3038.2011	3051.7414	3065.3371	3121.3775	3162.7997	3166.0534	3807.973
OC12CC(C1)C2C=O	O[C@@]12C[C@@H](C1)[C@H]2C=O	
InChI=1S/C6H8O2/c7-3-5-4-1-6(5,8)2-4/h3-5,8H,1-2H2	InChI=1S/C6H8O2/c7-3-5-4-1-6(5,8)2-4/h3-5,8H,1-2H2/t4-,5-,6-/m1/s1
