16
gdb 16471	3.25258	2.79356	1.8612	1.4041	63.46	-0.2396	0.0623	0.3019	729.8096	0.132041	-383.688898	-383.682788	-383.681844	-383.71866	25.206	
O	-0.0624547538	 1.3808772771	 0.0656379117	-0.482108
C	 0.0035562505	-0.0063377589	 0.0230274198	 0.384657
C	 0.9031772726	-0.7407912241	 1.0217802711	-0.150655
O	 0.6140060011	-2.1010202723	 0.687155751	-0.279825
C	-0.3379201335	-1.9577827478	-0.3574292854	 0.146385
C	-1.3347526711	-0.8039592959	-0.0452177925	-0.123352
C	-1.4227993901	-0.5018202807	-1.5601268853	-0.261593
C	 0.0726641319	-0.8189712508	-1.3287924127	-0.161113
H	 0.808855838	 1.7366914976	-0.1399952955	 0.286644
H	 1.9718329677	-0.52824273	 0.8786467874	 0.091453
H	 0.6363161563	-0.5292410265	 2.0645208788	 0.107783
H	-0.6775589587	-2.9264889336	-0.7173910027	 0.092026
H	-2.1290253	-0.7973740426	 0.7016880246	 0.076533
H	-1.987773436	-1.2098621058	-2.1723368045	 0.091493
H	-1.6565261999	 0.5300824221	-1.8233228613	 0.11259
H	 0.8910734648	-0.8299384178	-2.0504723944	 0.069083
253.5783	273.3175	318.4378	388.5135	424.4073	442.7392	648.9189	687.395	721.4545	743.8725	837.0937	892.8085	909.8249	940.1838	958.8703	1000.309	1030.8779	1054.2586	1071.98	1083.7652	1098.4494	1138.6223	1158.9975	1175.9501	1191.8025	1223.7143	1233.2219	1250.6828	1278.6553	1317.9395	1346.1837	1399.8209	1513.34	1519.8475	3004.7491	3051.4622	3063.2504	3101.1869	3113.8062	3136.6617	3153.8669	3804.6098
OC12COC3C1CC23	O[C@@]12CO[C@H]3[C@@H]1C[C@@H]23	
InChI=1S/C6H8O2/c7-6-2-8-5-3(6)1-4(5)6/h3-5,7H,1-2H2	InChI=1S/C6H8O2/c7-6-2-8-5-3(6)1-4(5)6/h3-5,7H,1-2H2/t3-,4+,5-,6-
