14
gdb 20474	6.27591	1.43767	1.26399	3.3051	63.73	-0.243	0.0098	0.2528	926.7862	0.109482	-378.7138	-378.707235	-378.706291	-378.745463	24.061	
C	 0.3276585756	 1.5502715841	 0.1955505314	-0.172756
O	 1.193331853	 0.4845722268	-0.1851122281	-0.231591
C	-0.1833155224	 0.1763017178	 0.0997118154	-0.030873
C	-0.4683463972	-0.6507901663	 1.2928190018	 0.366487
N	-0.0946284845	-0.2671024987	 2.51463954	-0.29166
N	-0.5003207028	-1.2637434366	 3.3175011652	-0.178095
C	-1.1271952997	-2.2660275309	 2.6552588831	-0.013998
C	-1.1274985117	-1.902617458	 1.3264803264	-0.299716
H	 0.509643119	 1.9677168095	 1.1833463529	 0.132339
H	 0.0870429806	 2.2671039274	-0.5892735049	 0.107667
H	-0.7577489	-0.0998248053	-0.7840646444	 0.088489
H	-0.3226861839	-1.1940853718	 4.3052725795	 0.277903
H	-1.5109753606	-3.1333988075	 3.1683175702	 0.137453
H	-1.5355028256	-2.4576932507	 0.4974065415	 0.108351
37.9366	170.5586	197.9642	410.5284	444.5572	531.0885	658.9126	674.0859	745.555	772.9728	835.2117	847.526	902.9971	947.771	980.3707	1025.8146	1074.9985	1098.4362	1109.2724	1158.9266	1171.5174	1223.673	1266.6875	1290.2599	1384.1672	1418.603	1481.022	1500.6456	1535.2265	1571.4189	3083.4787	3115.8958	3181.5464	3258.1534	3276.6227	3672.8076
C1OC1C1=NNC=C1	C1O[C@H]1c1n[nH]cc1	
InChI=1S/C5H6N2O/c1-2-6-7-4(1)5-3-8-5/h1-2,5H,3H2,(H,6,7)	InChI=1S/C5H6N2O/c1-2-6-7-4(1)5-3-8-5/h1-2,5H,3H2,(H,6,7)/t5-/m1/s1
