21
gdb 70904	2.65472	1.68693	1.28492	1.6431	81.85	-0.2212	0.0901	0.3113	1077.001	0.182902	-387.073341	-387.065177	-387.064232	-387.10531	33.005	
C	-0.0445875211	 1.5286117269	 0.0256871644	-0.504869
C	 0.0300081444	 0.0297039519	-0.0129990793	 0.303944
C	 0.8603251732	-0.7962177488	-0.9976755067	-0.322245
C	-0.1290083365	-1.9953252875	-0.7953331808	 0.295227
C	-0.6025151878	-2.7424518511	-2.0239372686	-0.496819
C	 0.3912926088	-2.8642856889	 0.3553786124	-0.109517
O	 0.5332193846	-1.9674394093	 1.4618265306	-0.271011
C	-0.2870093815	-0.8511446853	 1.1819938269	 0.067848
C	-1.0963270056	-1.0201149248	-0.0557303828	-0.220763
H	 0.9147722347	 1.9626824521	 0.3322932183	 0.122905
H	-0.2973422364	 1.9423889243	-0.9577809173	 0.115399
H	-0.8050627245	 1.8721500113	 0.73525825	 0.11669
H	 0.7902489294	-0.3923584398	-2.0126169789	 0.093468
H	 1.9142352117	-0.971573408	-0.7514409702	 0.093056
H	 0.2210690761	-3.2945213371	-2.4913123428	 0.118414
H	-1.3881104577	-3.4646206733	-1.7729729047	 0.117125
H	-1.0075330347	-2.0541908284	-2.772494979	 0.119429
H	-0.3210269406	-3.6679294809	 0.6026430323	 0.084148
H	 1.3690804253	-3.3125006884	 0.1460835096	 0.10212
H	-0.6921634023	-0.3825153109	 2.0716958715	 0.09517
H	-2.1712196796	-0.9351233239	-0.1599085349	 0.080282
179.5488	203.6796	219.0865	241.8259	265.9698	295.604	342.7551	412.1553	476.5963	548.308	591.4328	711.0555	721.5227	787.2834	842.4373	866.8403	895.7369	931.6169	940.7173	967.2126	992.2562	1009.9205	1030.7445	1047.3299	1077.8704	1098.8231	1130.7409	1164.7808	1178.5961	1209.2728	1232.9725	1256.7406	1281.2166	1287.91	1308.4402	1387.9423	1413.5536	1414.9508	1429.1887	1485.641	1492.3241	1494.1148	1496.551	1501.1612	1513.2404	2972.9067	3017.9849	3023.5821	3028.7395	3062.4304	3077.1531	3083.0065	3087.0332	3090.9504	3098.6284	3176.8931	3187.6624
CC12CC3(C)COC1C23	C[C@@]12C[C@@]3(C)CO[C@@H]1[C@@H]23	
InChI=1S/C8H12O/c1-7-3-8(2)5(7)6(8)9-4-7/h5-6H,3-4H2,1-2H3	InChI=1S/C8H12O/c1-7-3-8(2)5(7)6(8)9-4-7/h5-6H,3-4H2,1-2H3/t5-,6-,7+,8+/m1/s1
