15
gdb 22697	2.77936	1.30625	1.02501	0.4328	77.95	-0.238	0.009	0.247	1151.4492	0.111444	-416.643465	-416.635388	-416.634444	-416.676077	30.819	
O	-0.0995631535	 1.3660977934	 0.0702070176	-0.398911
N	 0.0544585545	-0.0404639813	 0.0064381008	-0.316133
C	-1.0627831172	-0.6162239927	-0.0629070329	 0.450975
C	-2.5733823903	-0.4530087894	-0.0104183172	-0.133815
C	-2.6598403814	-1.5715307733	-1.0861100136	-0.226243
C	-1.5839997737	-2.0519437883	-0.0533954805	 0.167565
N	-2.5954535282	-1.588372785	 1.0228289461	-0.339075
C	-0.877019211	-3.2925525698	 0.0103312664	 0.047692
C	-0.2757822282	-4.3318843201	 0.0576316158	-0.337309
H	 0.8166070484	 1.6609421108	 0.1078657896	 0.30828
H	-3.1797246102	 0.4406970778	 0.0998920768	 0.11471
H	-3.5828891923	-2.1518151915	-1.0553244107	 0.123397
H	-2.3101517841	-1.3401966691	-2.0918304077	 0.120923
H	-2.0774871051	-1.3005930913	 1.859514393	 0.227953
H	 0.2563708622	-5.2501618801	 0.1006977566	 0.189991
106.96	140.6676	169.1808	222.4601	317.697	386.0774	394.8743	494.3498	512.2628	550.3169	642.9876	671.8493	681.357	714.0334	762.4407	784.767	861.2208	907.7595	948.8021	958.9981	1031.1415	1053.987	1096.7386	1152.9577	1188.3297	1209.2417	1256.2628	1281.3821	1316.7806	1409.228	1482.9019	1813.8059	2245.51	3085.7462	3171.9787	3177.4395	3396.5005	3499.7966	3819.4525
ON=C1C2CC1(N2)C#C	ON=C1[C@H]2C[C@@]1(N2)C#C	
InChI=1S/C6H6N2O/c1-2-6-3-4(7-6)5(6)8-9/h1,4,7,9H,3H2	InChI=1S/C6H6N2O/c1-2-6-3-4(7-6)5(6)8-9/h1,4,7,9H,3H2/t4-,6+/m1/s1
