15
gdb 133043	5.13879	1.00101	0.84394	5.3988	72.22	-0.2186	-0.0441	0.1745	1277.9429	0.113827	-458.143059	-458.135321	-458.134377	-458.175583	28.545	
C	 0.0317817541	 1.448181925	-0.0667018473	-0.3292
N	-0.0160550672	 0.0160778486	 0.1567852824	-0.381219
C	-1.207427446	-0.6817038683	 0.0739893118	 0.278966
C	-2.4722985803	-0.0771872632	 0.0882228593	-0.054731
N	-3.6066051712	-0.7816494569	 0.0562213687	-0.303138
C	-3.4706278564	-2.0891827447	 0.0010539499	 0.335043
F	-4.592670909	-2.791487453	-0.0306288154	-0.066436
N	-2.3516272262	-2.793381908	-0.0320269907	-0.297619
C	-1.2293581703	-2.0847054158	 0.0056867412	-0.050719
H	 1.0726558782	 1.7748330311	-0.0277737446	 0.133873
H	-0.3942818223	 1.7532696903	-1.0350729961	 0.123431
H	-0.5100188203	 1.9787193147	 0.723961071	 0.141875
H	 0.7875169531	-0.4919579028	-0.1785639216	 0.243743
H	-2.5811104825	 1.0021565669	 0.128179019	 0.115593
H	-0.2963102535	-2.6466171939	-0.0191434875	 0.110538
88.7635	139.167	196.9185	221.3812	356.5884	405.1457	440.9827	451.1478	487.7707	550.6237	586.5413	661.3525	783.0945	808.9121	895.6833	932.8572	962.8483	1039.8574	1088.0008	1152.4638	1169.4117	1265.678	1312.1541	1334.6444	1379.8956	1407.8064	1468.5963	1484.9663	1493.2512	1515.7313	1532.7728	1600.4597	1642.828	2984.9436	3064.3905	3128.2281	3134.5427	3178.6896	3615.1627
CNC1=CN=C(F)N=C1	CNc1cnc(F)nc1	
InChI=1S/C5H6FN3/c1-7-4-2-8-5(6)9-3-4/h2-3,7H,1H3	InChI=1S/C5H6FN3/c1-7-4-2-8-5(6)9-3-4/h2-3,7H,1H3
