21
gdb 33261	5.29699	0.67437	0.6525	4.205	84.81	-0.219	0.0345	0.2535	1794.3731	0.184186	-383.315517	-383.306261	-383.305316	-383.351021	33.386	
C	 0.0109918243	 1.5723248545	-0.0664086353	-0.38134
C	-0.021667511	 0.0440764317	 0.0196460946	-0.164649
C	 0.7675412803	-0.502085289	 1.213678957	-0.16471
C	 0.7332670986	-2.0331798598	 1.2890159279	-0.185813
N	 1.4644655835	-2.5705022817	 2.4255055656	 0.02846
C	 2.8338139432	-2.6628278125	 2.5616737697	-0.131674
C	 3.0482474621	-3.1758606043	 3.8140628172	-0.08936
N	 1.8531962515	-3.4006057181	 4.4558465268	-0.2749
C	 0.9322838158	-3.0253488481	 3.5971800371	 0.001896
H	 1.037486033	 1.9410414839	-0.1681584004	 0.118159
H	-0.5600404331	 1.9340492316	-0.9267422103	 0.116409
H	-0.4160014315	 2.028201581	 0.8334061069	 0.119361
H	-1.0633896121	-0.2971716349	 0.0854741817	 0.099503
H	 0.3790680642	-0.3844259742	-0.9087123732	 0.099105
H	 1.8112044818	-0.1691767261	 1.1539714824	 0.107284
H	 0.3664944412	-0.0930419327	 2.149328035	 0.110801
H	-0.3007695601	-2.3836097516	 1.37071158	 0.122113
H	 1.1449594125	-2.4674266851	 0.3707561048	 0.121482
H	 3.5013461836	-2.3676164337	 1.7686088262	 0.120727
H	 3.9924933566	-3.4017569855	 4.2861458883	 0.105384
H	-0.1362028544	-3.0622610754	 3.7549980178	 0.121763
39.2043	80.0084	83.0899	119.466	216.835	245.1037	322.5878	340.1399	428.3799	640.9525	678.7462	725.3884	736.7431	739.7273	797.6611	814.949	853.1886	912.4007	916.8808	940.7007	1013.9365	1048.6788	1063.3557	1098.6412	1124.8046	1135.9459	1146.5194	1235.3108	1264.322	1290.7957	1303.4909	1314.0535	1329.1772	1382.6803	1391.3224	1402.953	1415.4018	1418.1852	1481.5459	1487.7175	1499.8626	1500.2837	1513.2251	1534.5229	1543.413	3012.7695	3026.8257	3033.3168	3039.0486	3041.4822	3065.0987	3092.0678	3100.7573	3106.6212	3239.9712	3244.758	3273.1104
CCCCN1C=CN=C1	CCCCn1ccnc1	
InChI=1S/C7H12N2/c1-2-3-5-9-6-4-8-7-9/h4,6-7H,2-3,5H2,1H3	InChI=1S/C7H12N2/c1-2-3-5-9-6-4-8-7-9/h4,6-7H,2-3,5H2,1H3
