12
gdb 131970	4.73829	1.16152	0.9384	5.7268	61.	-0.3054	-0.0988	0.2066	1143.0941	0.077518	-502.012023	-502.004508	-502.003564	-502.045429	25.232	
C	 0.0054002111	 1.4226467281	 0.0262948123	-0.320414
N	-0.0257445215	-0.0300221679	 0.0460777857	 0.159414
N	-0.2110829128	-0.7594236841	-1.057660301	-0.100744
N	-0.1827993792	-2.0095766451	-0.6788156159	-0.225706
C	 0.0204027931	-1.9692423941	 0.6487327759	 0.501304
N	 0.1246695481	-0.745228937	 1.1438789982	-0.272679
N	 0.1194478447	-3.1612533406	 1.4825248007	 0.388235
O	 0.0073487039	-4.2322214804	 0.9122103935	-0.32943
O	 0.3054602571	-2.9785444575	 2.6745322674	-0.339164
H	 0.9722242576	 1.7707091123	 0.3935181861	 0.177358
H	-0.1444969749	 1.7319660873	-1.0068825818	 0.18447
H	-0.791540207	 1.8121758191	 0.6618248187	 0.177354
43.3862	90.2778	158.7811	195.9551	299.0602	368.1521	426.5003	551.6619	677.3138	714.0561	728.905	812.4674	854.4005	1023.8345	1055.9593	1095.5737	1152.3631	1257.0864	1307.0707	1368.3767	1396.8441	1437.3516	1452.6664	1475.6199	1489.74	1514.1982	1664.1734	3074.4073	3153.9959	3186.3053
CN1N=NC(=N1)N(=O)=O	Cn1nnc(n1)N(=O)=O	
InChI=1S/C2H3N5O2/c1-6-4-2(3-5-6)7(8)9/h1H3	InChI=1S/C2H3N5O2/c1-6-4-2(3-5-6)7(8)9/h1H3
