18
gdb 19767	3.00635	2.77772	2.31108	1.3651	68.83	-0.22	0.0824	0.3024	720.6806	0.15835	-347.812025	-347.8062	-347.805256	-347.841692	24.497	
C	 0.0742986944	 1.5962532857	 0.1385707223	-0.232294
C	 1.5646424807	 1.8285157076	-0.055621262	-0.110084
C	 2.4523807917	 0.8083171587	 0.6502023227	-0.0736
C	 1.8482334523	-0.0749392201	 1.7344083693	-0.225515
C	 0.4493912014	-0.6116854779	 1.3180165632	-0.204073
C	 0.0011637572	 0.0575000842	 0.0143685514	 0.069639
O	 0.9574887614	-0.2710482814	-1.00674951	-0.265617
C	 2.04270578	 0.5994621027	-0.7854193251	 0.101451
H	-0.3118417256	 1.9412731461	 1.103021218	 0.09888
H	-0.4950839945	 2.0886856369	-0.6564675346	 0.103471
H	 1.9379364138	 2.8208275263	-0.2779857785	 0.08235
H	 3.4820648835	 1.1137071773	 0.8126629313	 0.079801
H	 2.5247487371	-0.9102860735	 1.9431231487	 0.10479
H	 1.7787854725	 0.4991249241	 2.6656145702	 0.100578
H	 0.4856942748	-1.6915876722	 1.1479293221	 0.10579
H	-0.292265043	-0.4326510662	 2.1040513465	 0.093001
H	-0.9705751861	-0.3146693458	-0.3176607568	 0.076366
H	 2.7516774685	 0.5977566074	-1.6040090187	 0.095067
136.9944	351.5466	372.8577	467.238	540.8863	644.0226	684.0189	759.999	781.3283	806.0035	829.8551	857.8963	902.1817	929.0007	937.9447	972.2062	1027.3053	1036.9782	1063.344	1075.3345	1080.0424	1104.9529	1112.1614	1160.7698	1184.3038	1221.7501	1261.6221	1270.494	1294.1746	1321.8407	1325.4213	1360.9538	1368.6194	1386.1602	1432.2153	1480.5205	1491.1742	1506.9341	3028.5753	3043.3635	3046.3797	3061.177	3085.8996	3089.1945	3093.9986	3145.6196	3179.1858	3193.1885
C1C2C3CCC1OC23	C1[C@H]2[C@H]3CC[C@@H]1O[C@@H]23	
InChI=1S/C7H10O/c1-2-5-6-3-4(1)8-7(5)6/h4-7H,1-3H2	InChI=1S/C7H10O/c1-2-5-6-3-4(1)8-7(5)6/h4-7H,1-3H2/t4-,5+,6-,7+/m0/s1
