17
gdb 36275	4.5097	0.99733	0.92785	6.0325	76.04	-0.2265	0.0436	0.2701	1253.6172	0.136712	-380.787146	-380.779466	-380.778522	-380.820559	29.494	
N	 0.1103886581	-1.1680217976	 0.5583597244	-0.312468
C	 0.0081514838	-0.083429181	 0.1715127894	 0.233257
C	-0.0988884344	 1.2938489735	-0.3154094978	-0.342122
C	 1.270616971	 1.9982026539	-0.2911665983	-0.030891
C	 1.8817720474	 2.9232520889	-1.3122066964	-0.089205
C	 0.9412842448	 4.0425079989	-1.8383034735	-0.056744
N	-0.4114252927	 3.8657928494	-1.2478376983	-0.336555
C	 0.6776212576	 4.5080048365	-0.4660395477	-0.056741
C	 1.6066755209	 3.4089345372	 0.1195427956	-0.089232
H	-0.5143792237	 1.2787498852	-1.3246910895	 0.162802
H	-0.825830283	 1.8284856503	 0.2988025756	 0.162761
H	 2.0460623509	 1.3330985615	 0.0834832153	 0.120489
H	 2.8373185951	 2.7109661414	-1.77501862	 0.098691
H	 1.0869639375	 4.5992369858	-2.7541061449	 0.101858
H	-0.9971013877	 4.6157040406	-1.614765707	 0.233557
H	 0.5714881334	 5.5093402909	-0.071162445	 0.101856
H	 2.3225751109	 3.6197118247	 0.9040114079	 0.098687
21.71	140.4404	210.7976	234.1043	382.0404	401.3614	485.1728	508.2367	665.7087	709.8169	726.6372	732.9204	837.9919	843.8839	878.6653	894.4975	906.809	943.4594	970.5893	996.6742	1001.1217	1004.7576	1045.2766	1078.9191	1119.2184	1136.1862	1194.9322	1230.8757	1253.7693	1261.6135	1294.367	1317.2084	1349.566	1377.3227	1440.091	1443.6376	2355.9202	3089.5365	3125.9615	3131.9476	3184.9611	3194.8237	3201.0162	3213.7484	3471.2988
N#CCC1C2C3NC3C12	N#CC[C@H]1[C@H]2[C@H]3N[C@H]3[C@@H]12	
InChI=1S/C7H8N2/c8-2-1-3-4-5(3)7-6(4)9-7/h3-7,9H,1H2	InChI=1S/C7H8N2/c8-2-1-3-4-5(3)7-6(4)9-7/h3-7,9H,1H2/t3-,4+,5-,6+,7-
