18
gdb 22923	2.85362	1.31974	1.10309	1.9138	76.4	-0.2422	-0.0047	0.2374	1149.9923	0.146036	-439.011459	-439.00283	-439.001886	-439.044745	32.499	
C	 0.1402326376	 1.619249647	 0.0283181954	-0.479005
C	 0.1217105983	 0.1167201934	 0.0875404678	 0.348995
O	-1.2199417292	-0.4299779856	 0.2365597467	-0.319663
C	-0.828471842	-1.2375300221	 1.3709002896	-0.082439
C	 0.6432698651	-0.8289019667	 1.2336734249	-0.136823
C	 1.4412973721	-1.6609861052	 0.1859561296	-0.344793
C	 0.9422349417	-0.7104911892	-0.8891668307	 0.401248
N	 1.1433060026	-0.5290596334	-2.1251563291	-0.244792
O	 1.9889727122	-1.5181994158	-2.6537138812	-0.387357
H	 1.1669724273	 1.9957865988	-0.0015225964	 0.122961
H	-0.3720096567	 1.9592451648	-0.8773987345	 0.144497
H	-0.3725733055	 2.0441998934	 0.8959006498	 0.121902
H	-1.3193587725	-0.8921699171	 2.2896095779	 0.102822
H	-1.0547072421	-2.3011402986	 1.2246985324	 0.103175
H	 1.1757806859	-0.4779046069	 2.1156778387	 0.084189
H	 2.528107777	-1.6223692828	 0.3086365276	 0.130364
H	 1.1486528271	-2.7098898865	 0.0775370047	 0.12619
H	 2.0562893912	-1.2564340272	-3.5784478233	 0.308529
72.5779	152.8211	169.6059	204.2805	240.6253	319.5096	354.5845	385.9896	426.1238	490.4738	539.2496	623.3085	728.0429	807.1421	816.5099	848.1154	907.8683	911.4514	975.9084	1007.224	1030.4226	1055.7571	1096.1604	1105.0951	1142.9867	1145.7317	1176.968	1193.2116	1243.8328	1298.7463	1317.391	1350.9094	1403.0727	1411.8215	1456.6239	1477.4208	1484.2002	1524.4547	1776.5831	3010.4877	3040.1879	3051.495	3053.346	3096.4469	3113.5181	3119.1215	3130.2441	3814.6321
CC12OCC1CC2=NO	C[C@]12OC[C@H]1CC2=NO	
InChI=1S/C6H9NO2/c1-6-4(3-9-6)2-5(6)7-8/h4,8H,2-3H2,1H3	InChI=1S/C6H9NO2/c1-6-4(3-9-6)2-5(6)7-8/h4,8H,2-3H2,1H3/t4-,6+/m1/s1
