14
gdb 61378	2.77722	0.99241	0.84865	3.4288	64.65	-0.284	-0.1029	0.1811	1338.3804	0.097642	-473.859046	-473.849685	-473.848741	-473.894946	31.174	
C	-0.0386126795	 1.5481629292	-0.2530598285	-0.404889
C	-0.0072124349	 0.0584291826	 0.0873129425	-0.030307
O	-1.3547400588	-0.4615386792	 0.1870744223	-0.220841
C	-1.8901919487	-0.4622438584	 1.4141157254	 0.354792
O	-1.3606632965	-0.0725382126	 2.4231859231	-0.334574
C	-3.3164763198	-1.0295512448	 1.4226532984	 0.092489
O	-3.913554604	-1.370289578	 0.4431576686	-0.199388
C	 0.6737406412	-0.732639641	-0.9433545931	 0.294181
N	 1.2477034109	-1.3258734299	-1.7504269305	-0.30324
H	 0.9808835546	 1.9210391251	-0.3793046088	 0.152443
H	-0.5944742989	 1.7161918303	-1.1777830129	 0.156608
H	-0.5136787816	 2.0941655808	 0.5647484422	 0.151379
H	 0.4914303999	-0.0996664482	 1.0481753608	 0.165561
H	-3.724672094	-1.072584526	 2.4512794004	 0.125785
28.5014	69.1403	123.3371	133.8661	190.5015	228.5728	246.6485	321.647	393.3872	504.5233	545.7573	562.6784	606.8744	697.0683	852.4865	878.9308	972.1977	1027.8552	1049.0729	1112.6745	1138.4967	1284.7038	1346.2825	1363.6311	1378.2391	1408.4662	1486.7864	1491.9877	1810.1614	1845.3186	2372.1694	2958.0922	3058.9626	3081.102	3140.1597	3149.6388
CC(OC(=O)C=O)C#N	C[C@@H](OC(=O)C=O)C#N	
InChI=1S/C5H5NO3/c1-4(2-6)9-5(8)3-7/h3-4H,1H3	InChI=1S/C5H5NO3/c1-4(2-6)9-5(8)3-7/h3-4H,1H3/t4-/m1/s1
