16
gdb 67920	2.04309	1.80131	1.17439	3.7805	76.1	-0.2455	-0.0029	0.2426	1074.2707	0.122665	-400.712816	-400.704426	-400.703482	-400.745605	31.949	
C	-0.0238644497	 1.5604301653	 0.0681423024	-0.484548
C	 0.0108187991	 0.0637904925	 0.0783355668	 0.350387
N	-1.2335723142	-0.718222093	 0.0727686247	-0.39051
C	-0.6984151798	-1.6835741304	 0.957536765	 0.435173
O	-1.157810583	-2.6902389576	 1.4090183903	-0.334169
C	 0.6118128782	-0.9181829925	 1.0683025112	-0.29736
C	 1.1865187758	-0.7849938055	-0.3632781515	-0.273633
C	 1.084193617	-1.8180406204	-1.3531497865	 0.318707
C	 0.9828421281	-2.6703940102	-2.1955201616	-0.422525
H	 0.9689231663	 1.9727141388	 0.2693722049	 0.129704
H	-0.3497512184	 1.9375695352	-0.9076006169	 0.133988
H	-0.7197402969	 1.9321636224	 0.8259190677	 0.140568
H	-1.7029627458	-0.990947089	-0.7849655213	 0.245534
H	 1.2268971378	-0.7537969833	 1.9420474139	 0.120425
H	 2.1329644449	-0.2464465928	-0.3649395452	 0.124694
H	 0.9012188406	-3.4341376797	-2.9289286238	 0.203566
101.7316	135.6737	174.4031	210.8532	289.2879	316.5419	371.2677	479.5551	511.9349	564.2557	577.02	608.336	666.3748	686.6922	736.8283	759.1768	826.7513	890.969	918.1108	957.5279	977.783	1061.1502	1082.1094	1098.4123	1122.0649	1189.1074	1271.3391	1294.1107	1335.0601	1413.175	1449.6562	1479.8287	1497.4964	1909.5142	2236.7593	3036.4331	3100.7107	3119.6682	3126.9122	3220.5298	3502.0263	3536.7609
CC12NC(=O)C1C2C#C	C[C@]12NC(=O)[C@H]1[C@H]2C#C	
InChI=1S/C7H7NO/c1-3-4-5-6(9)8-7(4,5)2/h1,4-5H,2H3,(H,8,9)	InChI=1S/C7H7NO/c1-3-4-5-6(9)8-7(4,5)2/h1,4-5H,2H3,(H,8,9)/t4-,5-,7-/m1/s1
