21
gdb 93113	1.95241	1.66879	1.24211	0.5705	88.47	-0.2379	0.029	0.2669	1147.8127	0.182701	-349.945391	-349.936451	-349.935507	-349.97852	35.061	
C	 0.0051322405	 1.55742888	-0.0297147542	-0.413509
C	 0.0550939657	 0.0289065267	-0.0106002789	 0.025558
C	 0.6627273711	-0.5469791045	-1.2988748667	-0.247008
C	 0.9009243051	-2.0309777097	-1.2123122707	-0.051883
C	 0.8939094118	-2.7092101592	-0.0661005788	-0.039166
C	 0.6651089739	-2.0707714493	 1.2785637029	-0.275709
C	 0.8030913273	-0.5281129447	 1.2322429929	-0.174888
C	 2.2072374262	-0.1188617172	 1.2558636251	 0.366545
C	 3.3625280927	 0.2154824976	 1.2760032631	-0.504173
H	 1.0143509856	 1.9803309865	-0.0609965551	 0.129671
H	-0.5415570946	 1.9190748351	-0.9069725569	 0.109803
H	-0.4959689235	 1.9505583705	 0.8615963654	 0.108156
H	-0.9723788663	-0.3516116009	 0.0705329831	 0.075357
H	-0.0005492904	-0.3237221609	-2.1446406036	 0.098393
H	 1.6098732028	-0.0339972125	-1.5221298395	 0.117197
H	 1.0937133901	-2.5539255053	-2.1461312422	 0.08238
H	 1.0605267191	-3.7836964572	-0.0716683576	 0.083229
H	-0.3391816126	-2.3251376275	 1.6470650595	 0.105702
H	 1.3664548371	-2.4795582437	 2.0146047045	 0.11314
H	 0.3228196312	-0.115131556	 2.1292663818	 0.097343
H	 4.3826772671	 0.508871872	 1.3005790859	 0.193859
100.6653	141.8386	151.6181	232.9828	243.814	302.2207	366.8764	395.8265	437.2791	453.6219	593.5996	603.6809	621.5015	632.1528	677.9874	732.636	837.8657	886.076	897.9409	913.6018	952.5238	1001.767	1004.7882	1015.7735	1058.3734	1073.8314	1120.5396	1136.0672	1192.8622	1221.9814	1241.7922	1270.613	1315.8991	1327.7417	1361.3149	1382.6279	1393.3569	1411.0269	1416.3809	1473.4198	1474.2974	1496.7363	1502.0895	1727.5399	2228.3091	2999.906	3000.9793	3009.1161	3018.601	3030.6156	3038.9634	3057.9764	3095.9477	3107.0251	3142.2079	3165.9292	3503.721
CC1CC=CCC1C#C	C[C@H]1CC=CC[C@H]1C#C	
InChI=1S/C9H12/c1-3-9-7-5-4-6-8(9)2/h1,4-5,8-9H,6-7H2,2H3	InChI=1S/C9H12/c1-3-9-7-5-4-6-8(9)2/h1,4-5,8-9H,6-7H2,2H3/t8-,9+/m0/s1
