15
gdb 127573	3.51552	1.30494	0.95746	2.2769	78.54	-0.2125	0.0179	0.2304	1167.038	0.112193	-416.800778	-416.792019	-416.791075	-416.834829	31.524	
C	 0.02168212	 1.4325510844	-0.0214964736	-0.328995
N	 0.0134811175	-0.0136261033	 0.0015512291	-0.02316
N	 0.0171640973	-0.7274129245	-1.16454765	-0.276693
C	 0.0434370261	-1.9939265263	-0.7886426397	-0.094324
C	 0.0614591667	-2.1400515569	 0.6253483466	-0.029123
C	 0.0859777837	-3.2748680816	 1.4580035355	 0.193887
C	 0.1068075747	-4.2110962121	 2.2190481026	-0.458465
C	 0.0440521074	-0.8221073521	 1.0761250736	 0.360572
O	 0.0512344569	-0.3144335826	 2.3190846537	-0.431329
H	 1.0056334937	 1.8120958102	-0.3140911723	 0.147537
H	-0.7221519763	 1.7819985554	-0.7397811558	 0.155568
H	-0.2251264262	 1.8002518426	 0.974984564	 0.157399
H	 0.0451209948	-2.7804397606	-1.5284392501	 0.122041
H	 0.1255687983	-5.0499929711	 2.8692162083	 0.188034
H	 0.0530539154	-1.0584826714	 2.9359773382	 0.31705
39.7458	110.7863	118.8914	211.2365	284.1622	304.0543	387.5894	406.9577	452.0081	511.4714	524.3583	580.8657	648.3788	676.9128	715.7881	737.8215	786.8538	879.0804	997.0488	1067.148	1152.7488	1212.5344	1224.9915	1292.5725	1305.1392	1397.7394	1448.3877	1474.6741	1484.3655	1508.4262	1599.9187	1618.3442	2221.2305	3050.6738	3122.915	3161.3388	3251.8554	3501.39	3776.4965
CN1N=CC(C#C)=C1O	Cn1ncc(C#C)c1O	
InChI=1S/C6H6N2O/c1-3-5-4-7-8(2)6(5)9/h1,4,9H,2H3	InChI=1S/C6H6N2O/c1-3-5-4-7-8(2)6(5)9/h1,4,9H,2H3
