20
gdb 119752	4.97381	0.74045	0.68204	4.7651	83.82	-0.237	-0.02	0.217	1681.1442	0.171306	-403.210087	-403.200631	-403.199687	-403.245451	34.008	
C	-0.015781822	 1.5600874745	-0.0913509105	-0.380317
C	-0.0066844642	 0.0303043729	-0.1311237178	-0.16474
C	-1.4047072416	-0.5738256328	 0.1150579942	-0.295926
C	-1.4264763327	-2.0704469913	 0.1074938108	 0.334178
C	-1.6736221615	-2.909964857	 1.119408168	-0.334121
C	-1.5864018352	-4.3252441324	 0.6589527038	 0.431331
O	-1.7196052718	-5.3481222797	 1.2975723444	-0.391628
N	-1.3139552072	-4.2353466945	-0.6926470754	-0.34354
C	-1.1531562995	-2.8768095704	-1.1481653326	-0.248368
H	 0.9851237423	 1.966438482	-0.2649017874	 0.117409
H	-0.681480215	 1.9731165892	-0.857303538	 0.116721
H	-0.3614959719	 1.9285660769	 0.8806338588	 0.119578
H	 0.3744049138	-0.3085335378	-1.1021777551	 0.100807
H	 0.6860540378	-0.3596686923	 0.6240575715	 0.109469
H	-1.787711476	-0.2155840273	 1.0771780283	 0.11162
H	-2.0909712471	-0.193806547	-0.655444932	 0.107653
H	-1.9105876705	-2.6556472714	 2.1432301465	 0.113259
H	-1.1158490455	-5.0507186833	-1.2463917458	 0.251451
H	-1.8629717892	-2.6136538682	-1.9469153795	 0.121497
H	-0.143529173	-2.6835044602	-1.5395175722	 0.123668
47.4028	83.3574	88.9518	114.9422	245.1234	257.004	304.7688	308.9915	409.7405	481.3296	515.1904	647.2987	712.2046	739.8119	748.0059	861.252	872.266	908.4483	915.8106	937.4604	1002.0692	1040.6265	1076.2598	1096.5802	1112.3333	1160.2041	1194.8215	1212.6405	1257.0197	1309.1645	1319.4608	1329.3469	1351.5749	1380.8324	1414.5918	1424.4655	1479.8864	1492.6717	1499.2459	1500.3243	1510.4343	1689.0409	1822.0681	2991.5147	3006.1571	3012.985	3030.0042	3032.8964	3054.7778	3074.2905	3101.0117	3106.8816	3234.946	3674.3323
CCCC1=CC(=O)NC1	CCCC1=CC(=O)NC1	
InChI=1S/C7H11NO/c1-2-3-6-4-7(9)8-5-6/h4H,2-3,5H2,1H3,(H,8,9)	InChI=1S/C7H11NO/c1-2-3-6-4-7(9)8-5-6/h4H,2-3,5H2,1H3,(H,8,9)
