17
gdb 22866	3.05777	1.2595	0.92735	2.4584	73.32	-0.2607	-0.0146	0.2461	1218.9099	0.135434	-455.126273	-455.117496	-455.116552	-455.160258	32.135	
C	-0.2087996482	 1.5330384879	 0.0103745992	-0.386168
C	 0.0236416821	 0.0188271659	 0.0265896326	-0.209808
C	 0.8543090716	-0.4848008655	-1.1433936669	 0.425743
N	 0.6725239201	-0.1586312334	-2.3473291016	-0.534008
O	 1.8224786244	-1.3529145543	-0.7148480181	-0.248546
C	 1.853493187	-1.4593618977	 0.712158742	-0.171948
C	 0.788614901	-0.5155024721	 1.2094541188	 0.370109
N	 0.554307201	-0.1824687674	 2.4118161557	-0.212676
O	 1.428008111	-0.8465058368	 3.2896370755	-0.393582
H	 0.7406209994	 2.0719192143	 0.0731176488	 0.122973
H	-0.7040408304	 1.8157875269	-0.920548484	 0.145656
H	-0.8284007929	 1.8281420277	 0.8601027408	 0.131723
H	-0.9506866754	-0.4863763275	-0.0279437071	 0.133502
H	 1.347126405	-0.6243859742	-2.9562080075	 0.225091
H	 1.6577268825	-2.4966085217	 1.0085636733	 0.142402
H	 2.8467473645	-1.1841613776	 1.0821177528	 0.14677
H	 1.1665494272	-0.4965241843	 4.1481081556	 0.312767
42.4671	139.7734	172.6202	202.6311	225.2136	251.1336	348.4769	405.6428	433.1873	520.2582	525.1092	622.3103	690.1976	709.686	793.0372	847.7113	891.0655	979.542	991.6084	999.2496	1037.9429	1090.2798	1103.7108	1130.6948	1199.6636	1227.9653	1262.449	1285.4615	1328.4603	1375.1589	1400.8703	1419.9182	1493.3642	1496.078	1498.6997	1764.2492	1786.5607	3014.956	3038.595	3054.0411	3078.1229	3128.2215	3144.8534	3478.3983	3818.9292
CC1C(=N)OCC1=NO	C[C@H]1[C]([NH])OCC1=NO	
InChI=1S/C5H8N2O2/c1-3-4(7-8)2-9-5(3)6/h3,6,8H,2H2,1H3	InChI=1S/C5H8N2O2/c1-3-4(7-8)2-9-5(3)6/h3,6,8H,2H2,1H3/t3-/m1/s1
