15
gdb 11431	4.04965	1.63781	1.30724	3.6798	59.17	-0.2561	0.0546	0.3108	933.4147	0.119324	-436.951039	-436.943569	-436.942625	-436.983419	26.394	
C	-0.1668324914	 1.3679294246	-0.1751133213	-0.250489
O	-0.1632317261	-0.0545423428	-0.1652332096	-0.233464
C	 0.7113015863	-0.6230761833	-1.0762013507	 0.184853
C	 0.6111358346	-2.1469166752	-0.9756385623	-0.127532
O	-0.2429233346	-2.4997374428	-2.0639665274	-0.247619
C	-0.3573457664	-1.4402657863	-2.9135495244	 0.487201
N	-0.9728789992	-1.4037298178	-4.0068464973	-0.575392
O	 0.3232902072	-0.3689063106	-2.4261212648	-0.226934
H	 0.8382632685	 1.7652245536	 0.0279511469	 0.113525
H	-0.5179580032	 1.757820577	-1.1360729274	 0.145329
H	-0.8449881739	 1.6846655237	 0.6186492937	 0.138179
H	 1.7248960863	-0.2175128683	-0.9622619156	 0.091884
H	 1.5836719188	-2.6347427787	-1.0960094993	 0.124603
H	 0.1476812649	-2.4509973117	-0.0363701318	 0.142952
H	-1.3794325918	-2.3137783714	-4.2100373788	 0.232903
76.3654	131.7916	140.8641	191.5018	270.5356	410.3264	465.8009	544.562	715.9892	733.1819	808.0394	825.4956	866.8415	906.1838	997.3559	1003.9507	1049.5684	1090.4935	1118.4474	1153.1154	1181.672	1216.3912	1238.4115	1268.3889	1370.4706	1394.961	1422.8977	1482.5569	1486.0185	1509.0162	1512.4505	1806.6441	3002.4156	3030.6533	3058.0652	3083.3491	3134.4081	3141.0331	3536.9109
COC1COC(=N)O1	CO[C@H]1CO[C]([NH])O1	
InChI=1S/C4H7NO3/c1-6-3-2-7-4(5)8-3/h3,5H,2H2,1H3	InChI=1S/C4H7NO3/c1-6-3-2-7-4(5)8-3/h3,5H,2H2,1H3/t3-/m1/s1
