18
gdb 128588	2.49281	1.3777	0.89886	2.6149	77.93	-0.1805	0.0369	0.2174	1288.462	0.14795	-435.268895	-435.259401	-435.258457	-435.303425	33.898	
C	-0.0920128978	 1.3802616381	 0.0828333251	-0.246648
O	 0.0041264568	-0.0285585569	 0.0512227676	-0.271242
C	 0.6259899276	-0.5403059691	-1.0449389481	 0.203573
C	 1.1652238017	 0.0640367608	-2.16303715	-0.16355
N	 1.6110266306	-0.9437609354	-2.963357072	 0.042815
C	 2.4027124892	-0.8305106617	-4.1623231771	-0.315203
N	 1.4055191451	-2.1669549896	-2.412371885	-0.347174
C	 0.8037383667	-1.9306668802	-1.2524167841	 0.293486
N	 0.4569318015	-2.9458360024	-0.3629694448	-0.596555
H	 0.9028810596	 1.8473481403	 0.0722395508	 0.118482
H	-0.6691887765	 1.760572207	-0.7721546855	 0.116218
H	-0.6041488259	 1.6439076486	 1.0098174938	 0.13255
H	 1.2586015483	 1.098730455	-2.4477209092	 0.123517
H	 3.4786405095	-0.8716847572	-3.9502419318	 0.133164
H	 2.1477996235	-1.6547396998	-4.8316530829	 0.148612
H	 2.1753543044	 0.116824624	-4.6573302765	 0.129511
H	 0.3552942915	-3.8384253441	-0.828075962	 0.248602
H	-0.3683392158	-2.7208153374	 0.1766150018	 0.249843
75.9914	100.6111	135.9057	171.776	208.0968	233.9466	281.3288	292.0108	366.4851	373.1101	567.5912	594.9776	609.7167	645.676	685.9516	734.8821	768.6287	849.172	1003.4788	1066.2098	1086.2904	1143.2559	1147.3613	1181.9688	1193.6576	1237.4973	1256.7473	1354.7416	1440.1485	1451.8151	1464.353	1483.2895	1484.3171	1487.8776	1508.8387	1521.8988	1576.4014	1631.2305	1654.2382	2989.5792	3019.8814	3042.3782	3096.2079	3131.0978	3138.0145	3267.8413	3543.0688	3643.1254
COC1=CN(C)N=C1N	COc1cn(C)nc1N	
InChI=1S/C5H9N3O/c1-8-3-4(9-2)5(6)7-8/h3H,1-2H3,(H2,6,7)	InChI=1S/C5H9N3O/c1-8-3-4(9-2)5(6)7-8/h3H,1-2H3,(H2,6,7)
