15
gdb 7926	3.48188	1.89508	1.33134	0.966	64.34	-0.2364	-0.0013	0.2351	899.4669	0.120509	-396.04591	-396.0384	-396.037456	-396.077723	27.959	
C	 0.0148554873	 1.554655546	-0.025543175	-0.399553
C	-0.0002834584	 0.0225161148	-0.0092232955	-0.088841
N	 0.7087918069	-0.6130589446	-1.106978728	-0.319567
C	 1.84980086	-1.2715166339	-0.7004126077	 0.431658
N	 2.7223265036	-1.7620852952	-1.4832112364	-0.572749
N	 1.7956855013	-1.266721546	 0.706233494	-0.37368
C	 0.7485722688	-0.5291893996	 1.2145019147	 0.424333
O	 0.4877652244	-0.3415997922	 2.3768102347	-0.364498
H	 1.0397822311	 1.9350091039	-0.0714959814	 0.130728
H	-0.5369296333	 1.9368964982	-0.8895831866	 0.122978
H	-0.4590385247	 1.9325692777	 0.8840466544	 0.15017
H	-1.0395344717	-0.3271329102	 0.046369589	 0.11992
H	 0.6870176206	-0.2504376403	-2.0456600616	 0.259197
H	 3.4765898565	-2.2135242479	-0.9724492499	 0.212561
H	 2.4721088577	-1.7302605008	 1.2910397454	 0.267343
92.2293	133.7836	230.9148	237.7162	370.3814	394.2514	412.8855	531.5145	550.5314	633.1343	679.2378	720.1057	733.5674	757.159	814.7838	949.2181	990.8248	1051.2164	1090.8792	1105.7887	1159.0728	1233.0164	1295.2298	1348.5869	1356.589	1396.7465	1415.9077	1435.3734	1493.1031	1496.0264	1780.4666	1857.1793	3020.4626	3041.9122	3115.6105	3130.3666	3525.5004	3657.7133	3658.5451
CC1NC(=N)NC1=O	C[C@H]1N[C]([NH])NC1=O	
InChI=1S/C4H7N3O/c1-2-3(8)7-4(5)6-2/h2H,1H3,(H3,5,6,7,8)	InChI=1S/C4H7N3O/c1-2-3(8)7-4(5)6-2/h2H,1H3,(H3,5,6,7,8)/t2-/m1/s1
