12
gdb 24791	3.8756	1.23783	0.93818	2.5683	73.29	-0.2661	-0.0871	0.179	1125.1136	0.079481	-431.698997	-431.691996	-431.691052	-431.730888	25.48	
N	-0.049352732	 1.3181245533	 0.134639928	-0.505898
C	-0.0109019626	 0.0535746251	-0.0243858581	 0.352041
C	-1.2402994725	-0.732901941	-0.0690617145	-0.215141
C	-1.1700855875	-2.0622017264	-0.2374470228	 0.270297
O	 0.0293209412	-2.7191143861	-0.3709713473	-0.22322
C	 1.1414981387	-1.9338681482	-0.3213052924	 0.123257
N	 1.1970553357	-0.6779661066	-0.1674780308	-0.303706
C	-2.2955430298	-2.9363415029	-0.2975516847	 0.252144
N	-3.2171020985	-3.6337845133	-0.3444812453	-0.306384
H	 0.9049669352	 1.6854665096	 0.1391530345	 0.232906
H	-2.1954783157	-0.2362653638	 0.0339955411	 0.161051
H	 2.0302690477	-2.5469062298	-0.4359038176	 0.162653
121.1753	129.5455	154.8165	389.0506	424.5238	433.8233	456.1259	539.4667	587.6773	665.5277	740.6789	781.3857	879.7402	909.8473	938.3971	939.6748	975.4369	1072.6214	1159.6954	1178.9132	1281.3667	1390.6546	1415.6951	1650.2739	1696.6585	1717.6425	2356.3194	3198.3524	3239.3013	3463.5676
N=C1C=C(OC=N1)C#N	[NH]C1=C[C@@H](OC=N1)C#N	
InChI=1S/C5H3N3O/c6-2-4-1-5(7)8-3-9-4/h1,3,7H	InChI=1S/C5H4N3O/c6-2-4-1-5(7)8-3-9-4/h1,3-4,7H/t4-/m1/s1
