13
gdb 5048	3.4579	2.45812	1.68733	5.0055	68.42	-0.2555	-0.091	0.1645	750.5746	0.098006	-357.650966	-357.644848	-357.643904	-357.681153	23.278	
N	-0.0597755279	 0.9396772815	-0.6890235892	-0.474318
C	-0.0170183965	-0.03654382	 0.1149305371	 0.333785
N	 1.1698149021	-0.5509609367	 0.6808911662	-0.217974
C	 1.5079427431	-1.7593217614	 0.4119806094	-0.008121
C	 0.734234945	-2.7671004459	-0.2974490173	-0.090153
C	-0.6179721988	-2.7979313297	-0.3367477905	-0.086576
C	-1.4726503818	-1.8268531442	 0.3317789205	 0.002455
N	-1.2093529142	-0.6038825663	 0.6038331968	-0.181698
H	 0.8894422177	 1.2589957276	-0.8910308384	 0.224731
H	 2.4819281389	-2.0856496962	 0.7847854078	 0.126578
H	 1.2916259999	-3.6095624354	-0.6984761999	 0.121172
H	-1.1124364848	-3.6642081953	-0.7684490286	 0.122183
H	-2.4413831528	-2.2029923482	 0.669879156	 0.127936
120.7149	249.601	315.6997	378.7707	474.7105	490.7283	629.2185	645.7663	773.8053	814.2039	854.09	877.7827	924.6301	944.6395	975.8396	983.4141	1001.617	1016.9567	1059.9937	1222.3279	1299.9781	1408.8411	1414.6677	1446.9949	1585.7511	1668.9084	1689.4391	1738.2235	3100.2297	3101.8062	3159.5364	3178.6348	3471.9556
N=C1N=CC=CC=N1	[NH][C]1N=CC=CC=N1	
InChI=1S/C5H5N3/c6-5-7-3-1-2-4-8-5/h1-4,6H	InChI=1S/C5H5N3/c6-5-7-3-1-2-4-8-5/h1-4,6H
