14
gdb 8809	5.16852	1.09652	0.91479	0.0004	55.61	-0.2428	-0.0853	0.1576	1179.4221	0.102822	-456.812787	-456.803527	-456.802583	-456.847571	30.729	
O	-0.0249704822	 1.4076925755	 0.009499851	-0.399126
C	-0.0268764634	 0.0056723081	 0.0025647852	-0.170086
C	-1.4595156828	-0.4903101156	 0.0134151985	 0.277294
O	-2.4301002058	 0.2254603113	 0.0260794559	-0.265552
C	-1.6156879652	-2.0260225138	 0.0068813686	 0.277294
O	-0.6451053869	-2.7417919547	-0.0059852647	-0.265552
C	-3.0483298604	-2.5220033497	 0.0174442744	-0.170086
O	-3.0502382877	-3.9240223408	 0.0102564854	-0.399126
H	 0.8900357517	 1.7028999951	 0.0021307147	 0.297214
H	 0.4657596257	-0.4299805002	-0.8826002117	 0.130137
H	 0.4819913217	-0.4386652662	 0.8741423823	 0.13012
H	-3.5410788838	-2.0865126881	 0.90262731	 0.130126
H	-3.5570843271	-2.0775037182	-0.8541157304	 0.13013
H	-3.9652489437	-4.2192273529	 0.0171588909	 0.297214
49.8118	82.6657	105.9127	150.2887	232.8346	236.881	268.9912	315.6494	340.5357	352.7044	503.3485	588.7022	718.9634	806.8725	897.4794	916.113	1038.8458	1125.5277	1145.9121	1197.6983	1225.9036	1234.6469	1239.2553	1264.6372	1441.1169	1447.8562	1476.8379	1477.1617	1818.3478	1818.7665	2973.561	2973.5829	2993.6647	2993.7876	3839.287	3839.3664
OCC(=O)C(=O)CO	OCC(=O)C(=O)CO	
InChI=1S/C4H6O4/c5-1-3(7)4(8)2-6/h5-6H,1-2H2	InChI=1S/C4H6O4/c5-1-3(7)4(8)2-6/h5-6H,1-2H2
