15
gdb 103406	2.50026	1.53059	1.33348	1.5019	61.06	-0.2408	-0.0408	0.2	994.1891	0.110537	-494.854042	-494.845806	-494.844862	-494.886929	30.622	
O	 0.0361188579	 1.3933940264	-0.1004356007	-0.430303
C	 0.0818964052	-0.0319775044	-0.1174050352	-0.148149
C	-1.3452677097	-0.5506437564	-0.0242965185	 0.267851
O	-2.1540224797	 0.0076699213	-1.0282917219	-0.478993
C	-1.6271299049	-2.0542002793	 0.1319738064	-0.015083
O	-0.9903652778	-2.4439441367	 1.3419602516	-0.236004
C	-2.3280083109	-1.8932632519	 1.4327196536	-0.12494
C	-2.0666728079	-0.3912904872	 1.3771845104	 0.37709
O	-2.3717884818	 0.5625229998	 2.0307994255	-0.316535
H	-0.2932748235	 1.6644843866	 0.7658078211	 0.303858
H	 0.526185403	-0.310102703	-1.0789050815	 0.12213
H	 0.7000175435	-0.4404878407	 0.6901247717	 0.119652
H	-1.8554026419	 0.925211712	-1.1136267032	 0.297145
H	-1.7997607702	-2.7934495384	-0.6399181652	 0.129913
H	-3.0862018412	-2.4962833279	 1.9171200758	 0.132366
92.7593	119.9058	189.83	205.8151	280.4388	310.3794	414.3691	423.6778	499.4608	532.9333	557.5089	689.0762	713.2106	782.3177	848.7211	854.0446	918.2203	952.961	1003.4118	1039.794	1045.341	1064.8093	1115.9484	1185.2846	1206.2952	1228.534	1254.1566	1335.7508	1358.1347	1416.4218	1435.5702	1499.0012	1889.7275	3036.5872	3089.9645	3197.7369	3213.6186	3734.3434	3784.1072
OCC1(O)C2OC2C1=O	OC[C@@]1(O)[C@H]2O[C@H]2C1=O	
InChI=1S/C5H6O4/c6-1-5(8)3(7)2-4(5)9-2/h2,4,6,8H,1H2	InChI=1S/C5H6O4/c6-1-5(8)3(7)2-4(5)9-2/h2,4,6,8H,1H2/t2-,4-,5-/m0/s1
