18
gdb 110184	2.68325	1.13975	0.89734	3.4783	74.83	-0.263	-0.0404	0.2226	1322.7839	0.145843	-439.093405	-439.084186	-439.083241	-439.1282	32.622	
C	-0.0189890501	 1.5762733328	 0.1213079323	-0.388708
C	-0.0719153206	 0.0454661297	 0.1587065223	-0.202417
C	 0.8310418416	-0.5393454235	 1.243369972	-0.155269
C	 1.0533734655	-2.0851677437	 1.2757990218	 0.009543
O	 2.4720674737	-1.8987043861	 1.0486468633	-0.243522
C	 2.328958857	-0.5257824927	 0.9885359612	 0.456143
N	 3.1707745956	 0.3734055457	 0.764160433	-0.540151
C	 0.7300958079	-2.7599491382	 2.585227792	 0.143033
O	 1.532043295	-3.0275560076	 3.4377493755	-0.229708
H	 1.0052979044	 1.9232903607	-0.037091245	 0.159683
H	-0.6478842337	 1.9653738407	-0.6845805212	 0.116112
H	-0.3775157786	 2.0054807736	 1.0632357859	 0.117448
H	-1.1001984715	-0.2933012724	 0.3368925298	 0.103372
H	 0.2283547724	-0.3633805393	-0.8138811038	 0.10936
H	 0.5769466635	-0.1251778704	 2.2245845542	 0.11791
H	 0.5822716993	-2.6212281202	 0.4427994177	 0.110519
H	 4.1046867411	-0.0119841523	 0.6140759519	 0.234914
H	-0.3583154125	-2.9709589867	 2.707823007	 0.081737
72.3642	74.0203	116.6474	159.1567	211.1221	230.7286	274.7776	321.3872	362.542	467.5937	653.8375	684.4117	760.844	777.4927	852.9585	862.7062	872.4958	939.6114	978.8093	1008.9488	1023.4834	1077.489	1088.2524	1109.6358	1147.9352	1197.9391	1232.7693	1262.0827	1293.5339	1345.7999	1362.7427	1378.5173	1417.0118	1418.7944	1488.7917	1498.8314	1512.1243	1827.6008	1846.1946	2859.7332	3023.6236	3039.6262	3042.9194	3053.7164	3070.5722	3106.7503	3129.5615	3479.0337
CCC1C(OC1=N)C=O	CC[C@H]1[C@@H](O[C]1[NH])C=O	
InChI=1S/C6H9NO2/c1-2-4-5(3-8)9-6(4)7/h3-5,7H,2H2,1H3	InChI=1S/C6H9NO2/c1-2-4-5(3-8)9-6(4)7/h3-5,7H,2H2,1H3/t4-,5-/m0/s1
