18
gdb 77765	2.19971	1.89779	1.18553	3.6575	77.77	-0.2261	0.0023	0.2284	1064.4316	0.146294	-401.853671	-401.845603	-401.844659	-401.885964	31.499	
C	 0.0505451553	 1.4613854723	-0.3128611876	-0.330506
N	 0.0321131705	 0.02549459	-0.0292823421	-0.106873
C	-1.0663802682	-0.491143787	 0.8969461515	-0.270526
C	-0.108486739	-1.701008954	 1.0599338894	 0.519396
O	-0.093126245	-2.8856712657	 1.1007022133	-0.316319
C	 0.8088380351	-0.4566174832	 1.1937376196	-0.270527
C	-0.3102515799	 0.0679311487	 2.1289573631	 0.42666
C	-0.4633027772	 1.3040402321	 2.9521925475	-0.357499
C	-0.5407464282	-0.0671130668	 3.6010254874	-0.359521
H	 1.0129795945	 1.7054079985	-0.773613611	 0.125989
H	-0.7309331271	 1.6733301581	-1.0494011647	 0.125988
H	-0.0983379931	 2.1192729399	 0.552052514	 0.115344
H	-2.1236941333	-0.4405763507	 0.6427578511	 0.098188
H	 1.89044657	-0.3666701351	 1.2780782229	 0.098189
H	 0.4176496767	 1.9082408921	 3.1436481863	 0.124826
H	-1.3814325937	 1.8751152541	 2.8589085301	 0.124826
H	-1.5109248257	-0.4158270539	 3.9392476048	 0.126181
H	 0.2895041284	-0.3826790793	 4.2241978844	 0.126181
120.4914	191.0753	196.4735	217.1919	266.7897	295.3519	366.3368	501.5736	525.1299	579.0471	699.3523	733.1042	748.3614	750.0745	790.7636	803.9261	921.5184	965.8624	969.278	999.9606	1044.8689	1055.7647	1086.1467	1099.9064	1107.866	1126.9629	1132.3099	1175.9844	1181.7052	1187.0016	1217.2783	1242.357	1395.4737	1440.9938	1464.9087	1488.0051	1503.3115	1505.926	1945.213	3019.8352	3084.3607	3102.5941	3126.2165	3131.4697	3138.9238	3143.4425	3205.1676	3219.9473
CN1C2C(=O)C1C21CC1	CN1[C@H]2C(=O)[C@@H]1C12CC1	
InChI=1S/C7H9NO/c1-8-5-4(9)6(8)7(5)2-3-7/h5-6H,2-3H2,1H3	InChI=1S/C7H9NO/c1-8-5-4(9)6(8)7(5)2-3-7/h5-6H,2-3H2,1H3/t5-,6+
