21
gdb 36685	4.86561	0.72993	0.69798	1.0658	88.47	-0.2508	0.059	0.3098	1658.1076	0.182015	-349.892566	-349.883526	-349.882582	-349.926888	34.561	
C	-0.0854776266	-1.2509356272	-0.0909606779	-0.436716
C	-0.0559595817	-0.0529111707	 0.0048070222	 0.292674
C	 0.015341262	 1.3987968015	 0.1141925845	-0.355536
C	 1.4362145073	 1.9553932269	-0.1189544396	-0.200402
C	 1.4913811032	 3.4744514251	 0.0081761177	 0.030346
C	 1.305663196	 4.1482398988	 1.4169070061	-0.253081
C	 2.6403399088	 4.8784065163	 1.2230910427	-0.036953
C	 3.7486445214	 3.8818882828	 1.0460376394	-0.273951
C	 2.8498654914	 4.1812842431	-0.1235183808	-0.077798
H	-0.1237352195	-2.3085613253	-0.1736875363	 0.191308
H	-0.6765302415	 1.8536599404	-0.6073254388	 0.126404
H	-0.338872217	 1.7070779547	 1.1066584992	 0.132109
H	 2.1217559389	 1.4854201507	 0.5944704179	 0.107606
H	 1.7761044184	 1.6566012338	-1.1178376978	 0.107323
H	 0.7772612619	 3.9177192844	-0.6951810208	 0.071028
H	 0.4387382791	 4.8111502273	 1.4547878375	 0.102238
H	 1.2625583177	 3.4719566	 2.2787627328	 0.092814
H	 2.8342251003	 5.9098966974	 1.490456924	 0.08415
H	 4.7463545277	 4.3026329498	 0.9704072631	 0.110127
H	 3.714587383	 2.9217381643	 1.555712171	 0.105168
H	 3.2473008092	 4.5873521559	-1.0465563662	 0.081142
62.9248	93.0321	97.786	192.2347	223.8631	336.2659	348.8505	409.8865	452.7492	549.1483	613.9958	631.5619	673.1216	759.8682	781.4776	801.1314	840.9618	894.5784	937.4946	952.5361	971.3664	993.1458	1010.7776	1034.0589	1051.8993	1065.1849	1084.1258	1095.7178	1127.0464	1144.2855	1196.5867	1230.0329	1237.8753	1263.2489	1281.6971	1306.5553	1315.8001	1357.5615	1372.1378	1394.4325	1472.4	1484.1399	1490.846	1502.8632	2238.0574	3013.5369	3033.7882	3034.1548	3036.946	3043.3188	3082.6001	3104.404	3109.0829	3170.9668	3183.7308	3199.6952	3507.9416
C#CCCC1CC2CC12	C#CCC[C@H]1C[C@H]2C[C@@H]12	
InChI=1S/C9H12/c1-2-3-4-7-5-8-6-9(7)8/h1,7-9H,3-6H2	InChI=1S/C9H12/c1-2-3-4-7-5-8-6-9(7)8/h1,7-9H,3-6H2/t7-,8-,9-/m0/s1
