20
gdb 35971	2.97793	1.16234	0.89459	4.1783	79.43	-0.2671	0.0341	0.3011	1299.6541	0.173213	-403.168339	-403.159707	-403.158763	-403.202234	32.24	
N	 0.250300919	-1.2270054366	 0.259893567	-0.321397
C	 0.1193827789	-0.0837906114	 0.1484885867	 0.264693
C	-0.0220014268	 1.3693767381	 0.0285272313	-0.163621
C	-0.8522823123	 1.9230033951	 1.2140183318	-0.206823
C	-1.5202297055	 3.2880943294	 0.973495381	-0.216223
C	-0.6545617072	 4.4040040947	 0.3386538198	-0.19849
C	 0.863628624	 4.2685290217	 0.4808179437	-0.077694
O	 1.4111603711	 3.338631564	-0.44570211	-0.242171
C	 1.3996422911	 1.9916755305	-0.0588330626	-0.079418
H	-0.538301841	 1.5740230541	-0.9180732325	 0.130913
H	-1.6355411167	 1.2025191049	 1.4683425933	 0.123227
H	-0.1932575681	 1.9676696549	 2.0890987771	 0.114364
H	-2.4081520252	 3.1407843793	 0.3481615837	 0.109732
H	-1.8986251651	 3.6280331095	 1.9440575588	 0.10834
H	-0.8524140713	 4.4675965116	-0.737086333	 0.11444
H	-0.9571814334	 5.3698195026	 0.7595733817	 0.101899
H	 1.3335098228	 5.2265569901	 0.2364508532	 0.112462
H	 1.1618990582	 4.0088727654	 1.5088091818	 0.092394
H	 1.8984565959	 1.8512591177	 0.9141660989	 0.104635
H	 1.9812890918	 1.4571280244	-0.8148697916	 0.128738
44.7447	129.3092	154.9118	183.8268	282.8266	318.392	350.5303	400.8078	495.9657	520.9755	539.9627	555.9972	748.5051	797.4209	853.4909	902.3598	924.4717	961.5047	1001.9607	1008.7354	1054.5542	1073.8092	1113.7872	1128.8294	1171.5959	1227.8573	1233.5766	1278.5788	1282.9158	1318.0299	1324.6436	1343.2648	1372.1877	1382.1412	1393.4373	1410.2507	1425.3064	1476.9124	1487.9071	1490.6421	1499.5178	1509.0697	2353.9286	2974.6351	2985.5292	3029.2426	3031.7448	3040.7884	3043.4322	3059.9487	3075.1036	3080.2861	3087.8737	3093.4999
N#CC1CCCCOC1	N#C[C@H]1CCCCOC1	
InChI=1S/C7H11NO/c8-5-7-3-1-2-4-9-6-7/h7H,1-4,6H2	InChI=1S/C7H11NO/c8-5-7-3-1-2-4-9-6-7/h7H,1-4,6H2/t7-/m1/s1
