21
gdb 116308	2.36022	1.25282	0.91561	1.1896	75.01	-0.256	0.0785	0.3345	1328.2791	0.182294	-461.35975	-461.349952	-461.349007	-461.394927	34.944	
C	-0.0671030677	 1.3198703161	-0.4702089496	-0.240253
O	-0.0610043512	-0.0924016441	-0.386072988	-0.250827
C	-1.2305601997	-0.628460791	 0.1868280388	 0.207328
O	-2.3759490359	-0.3623685507	-0.5883054777	-0.268834
C	-2.625983474	-1.4543975142	-1.4916228764	-0.084428
C	-1.5527685498	-2.5159858731	-1.2082376164	-0.237688
C	-1.0986797066	-2.1540379762	 0.2165342398	-0.011809
C	 0.2698507081	-2.6789842982	 0.617947072	-0.103169
O	 0.1820303903	-4.0990043916	 0.6545323787	-0.427349
H	 0.8864610819	 1.6199227324	-0.9104625515	 0.122594
H	-0.8896808404	 1.6805462768	-1.0983330211	 0.12617
H	-0.1604274674	 1.7791787857	 0.5261419106	 0.103112
H	-1.4021896102	-0.1645177492	 1.169780671	 0.066993
H	-3.6376552633	-1.8283745068	-1.2914537974	 0.102063
H	-2.5988069021	-1.086791938	-2.5231191681	 0.104027
H	-1.9333331346	-3.5350634115	-1.2863277083	 0.114833
H	-0.7107791484	-2.4110373072	-1.8990461782	 0.112728
H	-1.8352250614	-2.5308927527	 0.9361072156	 0.08885
H	 1.021885254	-2.338058549	-0.1052320912	 0.105108
H	 0.5503956684	-2.2730279191	 1.603303584	 0.08402
H	 1.0574293801	-4.4466436184	 0.8472715535	 0.286529
84.6649	97.9127	114.5012	139.2151	156.6879	198.5688	247.0653	272.8973	343.4705	390.3105	492.1678	554.2607	657.6001	767.0874	828.8598	898.7186	921.6449	938.0643	978.1132	997.5475	1038.934	1077.6601	1090.3021	1105.0524	1137.9695	1158.725	1181.9618	1201.6562	1212.8854	1230.4424	1253.0574	1263.4322	1315.8829	1325.7636	1347.5592	1374.4658	1395.127	1408.067	1460.9063	1477.1257	1484.0046	1490.8898	1514.8887	1522.319	1531.4927	2972.4501	2986.3376	2996.6647	3024.3958	3031.4654	3048.8496	3057.6846	3064.6228	3071.5119	3122.2613	3129.4373	3832.3788
COC1OCCC1CO	CO[C@H]1OCC[C@H]1CO	
InChI=1S/C6H12O3/c1-8-6-5(4-7)2-3-9-6/h5-7H,2-4H2,1H3	InChI=1S/C6H12O3/c1-8-6-5(4-7)2-3-9-6/h5-7H,2-4H2,1H3/t5-,6-/m0/s1
