19
gdb 103087	2.9193	1.07802	0.9955	2.3758	79.12	-0.2449	0.0362	0.2811	1272.3875	0.155179	-422.970102	-422.959552	-422.958608	-423.005326	38.213	
C	-0.1119041625	 1.6418713159	 0.0200166952	-0.460056
C	-0.0611796628	 0.130251236	-0.0015881644	 0.273627
C	-1.3113726496	-0.5494355766	-0.5154258229	-0.138723
O	-1.5107675677	-0.1541625316	-1.8646995256	-0.416841
C	 1.2481969512	-0.5612206199	-0.2783748625	 0.100649
O	 2.4026224299	 0.1802325187	-0.4917914842	-0.427425
C	 0.654157597	-0.6304797967	 1.1293864098	-0.349931
C	 1.3438279281	 0.0675413547	 2.1691153342	 0.295794
C	 1.99206517	 0.6464442889	 3.0037788363	-0.421068
H	 0.874212152	 2.0684043499	 0.2051809381	 0.128336
H	-0.465694817	 2.0013762334	-0.9495301153	 0.138751
H	-0.7975699414	 2.0019926443	 0.7947122401	 0.11206
H	-1.2000885585	-1.6436070642	-0.4375455639	 0.081303
H	-2.168711819	-0.2620759387	 0.1146595199	 0.091692
H	-2.3803371656	-0.456690316	-2.142102378	 0.289144
H	 1.2187426283	-1.4790281186	-0.8621772628	 0.102168
H	 2.8413213086	 0.3103903007	 0.3592080185	 0.291709
H	 0.2160282667	-1.5795237491	 1.4262848287	 0.109086
H	 2.5226581821	 1.1632426887	 3.7648017687	 0.199725
80.1504	115.3584	123.2037	148.5044	193.1961	213.4068	229.3426	249.3082	309.9598	334.844	396.2001	410.3563	514.089	590.1982	612.1683	643.1507	661.3933	717.9494	828.9797	852.5143	963.4401	977.7652	994.9824	1046.4082	1079.1853	1098.8411	1128.9065	1167.5318	1222.3339	1248.5928	1259.504	1345.4408	1349.9636	1380.6158	1406.4499	1433.3873	1460.337	1482.833	1506.7445	1515.4398	2223.4175	2956.4771	2987.9971	3044.2164	3113.7348	3123.9799	3141.3522	3148.8906	3502.0165	3748.9064	3831.9286
CC1(CO)C(O)C1C#C	C[C@@]1(CO)[C@@H](O)[C@H]1C#C	
InChI=1S/C7H10O2/c1-3-5-6(9)7(5,2)4-8/h1,5-6,8-9H,4H2,2H3	InChI=1S/C7H10O2/c1-3-5-6(9)7(5,2)4-8/h1,5-6,8-9H,4H2,2H3/t5-,6+,7+/m1/s1
