17
gdb 50281	3.13605	1.19173	1.062	2.0945	74.76	-0.2522	-0.0382	0.214	1155.0497	0.134227	-421.817861	-421.809429	-421.808485	-421.85147	30.552	
O	-0.8578243108	 1.0714447075	-0.576167476	-0.244763
C	 0.1218196887	 0.9017329687	 0.1054634633	 0.149005
C	 1.330313864	 1.8014414457	 0.1116032526	-0.168634
C	 1.3403366932	 3.0386871616	-0.8322010242	-0.253312
C	 1.4210641859	 3.9682519282	 0.3844871778	-0.066555
C	 0.2882502937	 3.7602370005	 1.31715966	-0.32673
C	 1.4022821915	 2.7333596339	 1.3485488089	 0.225197
C	 2.2685417833	 2.5602917054	 2.5223756127	 0.050993
O	 2.3502166679	 3.3473307174	 3.4376125876	-0.269943
H	 0.1736548238	 0.0601467597	 0.835088901	 0.081055
H	 2.2368033848	 1.1905079237	 0.033658823	 0.099242
H	 2.2291035202	 3.0718064195	-1.463539752	 0.116638
H	 0.4485143566	 3.1499654905	-1.4531029606	 0.133543
H	 2.0956268106	 4.8086766783	 0.4895013619	 0.117777
H	 0.2777485087	 4.3953604456	 2.1959353409	 0.150606
H	-0.6853520384	 3.4596680513	 0.9398665246	 0.138942
H	 2.8900979763	 1.6351653225	 2.5036084085	 0.06694
69.8736	98.7582	152.7774	200.1041	225.0789	255.7381	355.5101	399.6107	521.751	657.8937	676.3318	732.6637	768.7366	821.6825	890.3335	925.9915	947.4078	986.5743	1014.9892	1045.9187	1058.2804	1085.6302	1098.1319	1111.4363	1160.3953	1180.3525	1220.8242	1272.0279	1286.9344	1345.8236	1380.4109	1420.4923	1431.9957	1473.7775	1489.5998	1794.3401	1821.8742	2859.4333	2864.5342	3050.3559	3077.8629	3125.6627	3134.6015	3199.39	3226.8718
O=CC1CC2CC12C=O	O=C[C@H]1C[C@H]2C[C@@]12C=O	
InChI=1S/C7H8O2/c8-3-6-1-5-2-7(5,6)4-9/h3-6H,1-2H2	InChI=1S/C7H8O2/c8-3-6-1-5-2-7(5,6)4-9/h3-6H,1-2H2/t5-,6+,7-/m0/s1
