18
gdb 35980	3.28462	1.17784	0.94257	4.6007	73.02	-0.2666	0.0168	0.2834	1229.3473	0.148815	-439.083597	-439.075299	-439.074355	-439.116781	30.81	
N	 0.40377409	-1.1567320936	 0.8905767296	-0.311813
C	 0.2942852078	-0.0857353462	 0.4732036478	 0.276987
C	 0.0907114224	 1.2788211188	-0.0365103832	-0.028768
C	-0.9732852475	 2.0092128546	 0.8161749487	-0.103779
O	-1.3623454622	 3.2024063774	 0.1784837931	-0.246159
C	-0.6525880773	 4.3765799184	 0.5496550627	-0.077641
C	 0.8813740052	 4.2661164603	 0.4393780205	-0.236141
C	 1.3663842171	 3.2340870982	-0.5830415324	-0.067856
O	 1.3521059491	 1.9083939688	-0.0557955777	-0.256291
H	-0.3199453069	 1.2071169921	-1.0574448911	 0.124077
H	-1.8603804342	 1.3707079813	 0.8886822039	 0.130366
H	-0.5862949686	 2.1783677164	 1.8300134185	 0.118204
H	-1.0278421708	 5.1411182604	-0.1368906957	 0.118388
H	-0.9336192751	 4.6821910598	 1.5686509522	 0.102259
H	 1.2823694474	 5.2527978406	 0.1790779534	 0.109894
H	 1.3253324397	 3.9941827301	 1.4026875671	 0.121457
H	 0.7836595502	 3.2843606065	-1.5140099302	 0.107333
H	 2.4155298137	 3.4207423063	-0.826918667	 0.119483
87.5526	111.0528	150.6647	239.2695	299.4835	330.4445	365.4487	384.3372	513.0102	533.7982	551.3016	577.7144	791.389	853.8137	882.6243	921.9177	956.5607	1015.074	1022.9408	1064.2648	1074.6891	1135.4222	1150.8554	1166.3327	1261.0912	1271.598	1284.3194	1300.7676	1334.1129	1372.0105	1379.3392	1392.4665	1412.0258	1422.8143	1474.1958	1488.3821	1489.3467	1507.7774	2368.439	2975.0845	2994.7805	3008.8815	3018.3677	3041.4893	3073.0714	3081.168	3094.8175	3095.9299
N#CC1COCCCO1	N#C[C@H]1COCCCO1	
InChI=1S/C6H9NO2/c7-4-6-5-8-2-1-3-9-6/h6H,1-3,5H2	InChI=1S/C6H9NO2/c7-4-6-5-8-2-1-3-9-6/h6H,1-3,5H2/t6-/m0/s1
