20
gdb 83655	2.51548	1.71297	1.32249	1.8225	78.7	-0.2073	0.0597	0.267	1043.394	0.171499	-403.081279	-403.073172	-403.072228	-403.113902	32.144	
O	 0.326479121	 1.1615607569	-0.4699866144	-0.421234
C	 0.1652451787	-0.1749787705	-0.0433561542	-0.001845
C	 0.2268851904	-0.4707274752	 1.4856832842	-0.015734
C	-0.1012773805	 0.7082631434	 2.4216033397	-0.242681
C	-1.5775657693	 0.2360026209	 2.3633067218	-0.167329
N	-1.2269307288	-0.9345942544	 1.4837050174	-0.180227
C	-1.2972127002	-0.6100361344	 0.0412711714	 0.36945
C	-2.4671202404	-0.0076293625	-0.6693805935	-0.31823
C	-2.0480263029	-1.4327486489	-0.9606850648	-0.336107
H	 1.2680801146	 1.3387168104	-0.5638468207	 0.285988
H	 0.7933571662	-0.8512580105	-0.638945598	 0.067987
H	 0.9815049709	-1.1916320766	 1.8117250166	 0.067115
H	 0.3625888467	 0.6462701232	 3.4077143894	 0.100404
H	 0.0969707704	 1.690366429	 1.9884417542	 0.112414
H	-1.9909078944	-0.0990301524	 3.3190074251	 0.100385
H	-2.2822846712	 0.9354038346	 1.9041251035	 0.107152
H	-3.3791001508	 0.1406795943	-0.0999920504	 0.116054
H	-2.2626451336	 0.7627671484	-1.4046768387	 0.128124
H	-1.567962956	-1.649366583	-1.9100814552	 0.108761
H	-2.6695416608	-2.2301213026	-0.5683119835	 0.119553
59.6542	196.5932	230.0355	240.4415	248.9002	292.492	435.6078	454.832	555.5631	586.7126	720.2111	753.8646	771.1255	792.1681	852.9047	861.9433	904.004	915.7589	947.2292	981.9257	989.0103	1014.4253	1030.5378	1047.9538	1069.3043	1094.0189	1138.3538	1165.0044	1190.3085	1206.975	1215.7357	1226.5798	1254.8386	1261.71	1293.6462	1307.9581	1321.7384	1371.1743	1434.5125	1454.0061	1475.6503	1493.4934	1505.9506	3002.1477	3045.4582	3063.4828	3075.805	3091.4777	3125.6242	3130.5948	3131.5164	3210.0953	3224.0985	3814.0476
OC1C2CCN2C11CC1	O[C@H]1[C@H]2CCN2C21CC2	
InChI=1S/C7H11NO/c9-6-5-1-4-8(5)7(6)2-3-7/h5-6,9H,1-4H2	InChI=1S/C7H11NO/c9-6-5-1-4-8(5)7(6)2-3-7/h5-6,9H,1-4H2/t5-,6+/m1/s1
