16
gdb 56057	3.896	0.75207	0.63532	5.5032	76.3	-0.2653	-0.028	0.2373	1680.5995	0.122775	-434.118106	-434.108342	-434.107398	-434.154328	32.936	
C	-0.3018088886	 1.5603593426	 0.3880904865	-0.501622
C	 0.0147385748	 0.2653737891	-0.3332695815	 0.414692
O	 0.5514709121	 0.204250241	-1.4157101461	-0.326706
N	-0.3695011584	-0.8763988071	 0.364814521	-0.350851
C	-0.1770326281	-2.1591708696	-0.1063293563	 0.143445
N	-0.5556787622	-3.1514046555	 0.5900126325	-0.279488
C	-0.3532315192	-4.5000227496	 0.0943633564	-0.240031
C	 0.2960304202	-4.6390233914	-1.2207281467	 0.236088
N	 0.8076511508	-4.7104629568	-2.2545289329	-0.306604
H	 0.0339143327	 2.3948180164	-0.2258383238	 0.161466
H	-1.3782716986	 1.650567233	 0.5682948683	 0.147481
H	 0.2022679406	 1.596632385	 1.3596564167	 0.147309
H	-0.815548914	-0.7932355981	 1.2672550271	 0.26175
H	 0.3081230071	-2.1921026092	-1.0842256626	 0.167249
H	 0.2412267839	-5.0590034794	 0.8281501997	 0.162911
H	-1.3249721031	-5.0079511205	 0.0495218817	 0.162911
45.5427	72.1935	85.0606	97.488	170.269	204.6063	308.5618	323.6467	373.9264	374.4454	487.1783	585.553	629.6598	656.2448	674.8041	905.8068	947.4484	967.1375	980.3483	1051.5512	1055.0134	1058.8779	1218.8177	1265.6184	1267.6931	1342.5459	1371.3819	1391.0052	1461.724	1467.0762	1481.4627	1506.7778	1750.2438	1817.4911	2353.8885	3030.682	3043.962	3054.498	3106.3222	3122.5251	3169.7827	3612.9393
CC(=O)NC=NCC#N	CC(=O)NC=NCC#N	
InChI=1S/C5H7N3O/c1-5(9)8-4-7-3-2-6/h4H,3H2,1H3,(H,7,8,9)	InChI=1S/C5H7N3O/c1-5(9)8-4-7-3-2-6/h4H,3H2,1H3,(H,7,8,9)
