21
gdb 40690	3.28826	1.03201	0.91626	1.6185	83.52	-0.2438	0.0854	0.3292	1365.1355	0.182439	-387.037159	-387.028375	-387.027431	-387.071353	33.289	
C	-0.4164720618	 1.1147924475	-0.476222956	-0.274829
C	 0.9669145334	 1.3909441826	 0.0596218966	-0.271175
C	 0.4083780745	-0.0119123316	 0.0963688694	 0.017432
C	 0.0197250673	-0.6298880751	 1.4029650397	-0.018644
C	-0.5137154108	-2.0423723556	 1.4705725321	-0.320387
C	 0.8418856315	-1.7264705686	 2.0517221163	-0.049325
C	 2.0874166486	-2.2575686977	 1.412509051	 0.060238
C	 2.2766108049	-3.6908307526	 1.1423880572	-0.176833
O	 1.9867839134	-2.7754541492	 0.0829015194	-0.228074
H	-1.2632199979	 1.4674270557	 0.1040826573	 0.106836
H	-0.5721169379	 1.146621861	-1.5489787059	 0.109528
H	 1.7607692363	 1.6124202407	-0.6453422688	 0.109881
H	 1.0460610895	 1.9294068809	 0.9988244455	 0.105386
H	 0.8265879504	-0.7091236785	-0.6214323853	 0.110526
H	-0.4282819012	 0.0747767444	 2.1009582784	 0.075415
H	-1.3315560294	-2.2666649912	 2.1463450064	 0.105536
H	-0.5186512478	-2.6044296234	 0.542688965	 0.129022
H	 0.9161205603	-1.6828059533	 3.1360854607	 0.085755
H	 2.9855613222	-1.6589501244	 1.5755658264	 0.094138
H	 3.2787318207	-4.1165284534	 1.1265330922	 0.113773
H	 1.4738826936	-4.3844967581	 1.3869176822	 0.115802
61.1841	78.8205	119.9994	187.2329	245.6648	273.6723	323.4641	428.4425	527.8117	616.0905	732.5044	740.556	800.4007	827.5276	840.8835	851.0024	896.4907	911.3466	941.0786	982.0957	996.2511	1006.6796	1057.6829	1071.2472	1073.4917	1078.3046	1100.3093	1126.1589	1135.5025	1148.1985	1161.7777	1172.4308	1200.6471	1207.0222	1224.0542	1251.9066	1289.0987	1322.6682	1391.2063	1432.3881	1449.3771	1468.6376	1488.3065	1509.1632	1522.4184	3085.2352	3091.8397	3117.814	3125.3828	3129.6943	3130.6897	3135.3282	3173.6502	3175.8886	3203.3894	3219.4942	3221.7333
C1CC1C1CC1C1CO1	C1CC1[C@H]1C[C@H]1[C@H]1CO1	
InChI=1S/C8H12O/c1-2-5(1)6-3-7(6)8-4-9-8/h5-8H,1-4H2	InChI=1S/C8H12O/c1-2-5(1)6-3-7(6)8-4-9-8/h5-8H,1-4H2/t6-,7-,8-/m1/s1
