16
gdb 129636	2.25134	1.60869	0.97548	2.6136	67.9	-0.1994	0.0394	0.2389	1148.8853	0.125878	-471.218204	-471.209366	-471.208421	-471.251471	32.926	
N	-0.0998492768	 1.3413414686	-0.0225830223	-0.605853
C	-0.1242648917	-0.0451403595	-0.0448169887	 0.342154
C	-1.222345298	-0.8976837796	-0.0116995749	 0.02716
C	-2.6579124496	-0.4885273529	-0.0099955654	-0.211443
O	-2.9200425848	 0.5735762433	-0.9439731683	-0.418513
C	-0.6316441976	-2.1836071877	 0.0060852024	 0.34516
O	-1.326568397	-3.3422028796	 0.0321655789	-0.434122
N	 0.688008156	-2.1664972399	-0.0097322876	-0.35638
N	 0.9816709326	-0.8219290488	-0.0503915423	-0.282887
H	 0.6705929163	 1.7567355544	-0.529921829	 0.244751
H	-0.9884150876	 1.7099897439	-0.3449696135	 0.26662
H	-3.2958075974	-1.3598723957	-0.2086842947	 0.116397
H	-2.9693777735	-0.0746229132	 0.9563586299	 0.119487
H	-2.6671882403	 0.243431555	-1.8134975397	 0.280617
H	-0.6778125367	-4.0572987374	 0.0258214478	 0.301061
H	 1.9426769162	-0.533317251	-0.0108040827	 0.265791
95.3007	151.0994	186.8499	221.321	256.9527	297.3458	336.7784	383.1896	404.4031	439.3283	449.9197	541.6572	616.1399	664.4514	726.6623	742.6206	796.3092	813.4558	959.4884	1007.514	1084.5847	1094.4916	1162.2999	1209.3158	1233.2429	1289.2767	1363.5183	1369.9654	1416.8469	1469.1874	1508.292	1563.0698	1596.5983	1639.7682	1671.2317	3017.2924	3054.3374	3518.4859	3618.6725	3691.1136	3793.1575	3798.4242
NC1=C(CO)C(O)=NN1	Nc1c(CO)c(O)n[nH]1	
InChI=1S/C4H7N3O2/c5-3-2(1-8)4(9)7-6-3/h8H,1H2,(H4,5,6,7,9)	InChI=1S/C4H7N3O2/c5-3-2(1-8)4(9)7-6-3/h8H,1H2,(H4,5,6,7,9)
