19
gdb 55821	3.5919	1.0602	0.97499	1.9363	76.14	-0.2607	0.017	0.2777	1289.4487	0.158374	-423.032761	-423.023871	-423.022927	-423.068054	32.098	
C	-0.3446442314	 1.4407419632	-0.0694562161	-0.481453
C	-0.1089580173	-0.0456240427	 0.0533337744	 0.428127
O	 0.8889778471	-0.5666010821	 0.4791124351	-0.348127
O	-1.1848896039	-0.7323414586	-0.402894882	-0.251565
C	-1.0988873878	-2.1487746629	-0.339464312	 0.152278
C	-1.794399089	-2.9298240274	 0.7235369883	-0.096176
C	-3.1041027454	-2.2477734921	 1.1358286637	-0.224327
C	-3.5835300458	-2.2743742664	-0.3501796095	-0.222124
C	-2.2714694426	-2.9572816245	-0.7579716577	-0.126244
H	 0.5215772876	 1.9779943916	 0.3145365147	 0.147802
H	-0.5144638041	 1.7069533846	-1.1166765823	 0.150334
H	-1.2409628465	 1.7274931617	 0.4875759584	 0.148446
H	-0.1206124694	-2.5175220946	-0.6246482163	 0.120465
H	-1.2670689098	-3.6815678323	 1.2991463757	 0.092618
H	-3.7198072759	-2.8801555512	 1.7779664661	 0.106236
H	-3.0018161965	-1.265296387	 1.6053027053	 0.101035
H	-4.4504780677	-2.922617679	-0.4900607008	 0.10513
H	-3.7820382752	-1.3094335198	-0.8233111772	 0.10743
H	-2.1784974063	-3.7388099906	-1.5034195179	 0.090115
28.3983	61.7752	98.1841	140.3369	232.6886	248.5363	372.4476	452.7368	564.1061	608.4737	639.5733	737.6483	752.8697	791.1262	816.5611	908.4336	937.1299	958.5426	975.3463	980.0659	1021.382	1032.558	1040.4385	1063.4115	1079.6894	1132.6521	1155.6906	1190.4782	1228.7366	1248.3043	1259.18	1268.4187	1301.2692	1349.1315	1392.8331	1442.6927	1469.4432	1476.1336	1478.26	1501.8385	1829.0561	3057.1887	3058.8019	3068.5204	3107.4863	3121.9681	3126.0048	3169.1062	3171.3247	3178.4447	3192.8969
CC(=O)OC1C2CCC12	CC(=O)O[C@H]1[C@H]2CC[C@@H]12	
InChI=1S/C7H10O2/c1-4(8)9-7-5-2-3-6(5)7/h5-7H,2-3H2,1H3	InChI=1S/C7H10O2/c1-4(8)9-7-5-2-3-6(5)7/h5-7H,2-3H2,1H3/t5-,6+,7-
