14
gdb 5599	3.89813	1.27917	0.96803	0.1621	63.55	-0.2595	-0.0786	0.1809	1151.7201	0.104556	-415.893377	-415.884307	-415.883363	-415.927856	30.608	
N	-0.5636142496	 0.6584216498	-0.9300954457	-0.724868
H	-0.0985955641	 0.0620971532	-1.6090539562	 0.235661
H	-1.4283761119	 0.9631762309	-1.3684466792	 0.235669
H	-0.8296762146	 0.0580040204	-0.1513703724	 0.269515
C	 0.8935551859	 2.0647539885	 1.7468894579	-0.390122
C	 0.5998003358	 1.3370191904	 2.8280404286	 0.196741
C	-0.2378967853	 0.104035551	 2.8462975857	 0.39454
O	-0.8200818926	-0.5188724898	 2.0080290734	-0.3188
O	-0.2495550436	-0.2835001577	 4.1933475276	-0.203959
C	 0.5101907924	 0.6518749228	 4.8423530776	 0.107859
N	 1.0229451488	 1.5936472265	 4.1511837248	-0.303079
H	 1.51505559	 2.9473568581	 1.8496127285	 0.141559
H	 0.5189093616	 1.7860826734	 0.7630504923	 0.197869
H	 0.6096838269	 0.5042440524	 5.909787607	 0.161415
47.9567	114.2914	122.9842	150.7496	160.9439	217.2352	312.3002	333.6561	348.7288	539.3749	555.7443	653.4945	783.3662	792.7875	833.2747	873.644	932.9248	935.9933	1014.6501	1046.3878	1118.3353	1147.1931	1257.6871	1342.3723	1451.9058	1638.4074	1673.9156	1698.6484	1715.3891	1880.2096	3111.1705	3236.9664	3239.5233	3456.2349	3571.0532	3585.139
[NH3+]CC1=C([O-])OC=N1	N.C=C1C(=O)OC=N1	
InChI=1S/C4H6N2O2/c5-1-3-4(7)8-2-6-3/h2,7H,1,5H2	InChI=1S/C4H3NO2.H3N/c1-3-4(6)7-2-5-3;/h2H,1H2;1H3
