20
gdb 85604	2.06502	1.78356	1.15575	2.3649	81.86	-0.2501	0.0107	0.2608	1128.3068	0.172037	-403.158121	-403.149335	-403.148391	-403.192172	32.903	
C	-0.5389997299	 1.4295123022	-0.0711567676	-0.378934
C	-0.0215415927	-0.0234014309	-0.0077995905	-0.047115
C	 0.7076679245	-0.4231756587	-1.3083792511	-0.260287
C	 2.0316501451	 0.2568159309	-1.5250597797	 0.35381
N	 2.1910918229	 1.1904773476	-2.3640272412	-0.471544
O	 3.0818376643	-0.302410435	-0.827530083	-0.25331
C	 3.2363508595	 0.0170948212	 0.5520886194	-0.141589
C	 2.0766516192	-0.2125730671	 1.4829324484	-0.06158
C	 0.7617265054	-0.2354192828	 1.2638723809	-0.067944
H	 0.2865857178	 2.133850976	-0.2064635721	 0.132557
H	-1.2300026932	 1.5560914717	-0.9105974394	 0.118742
H	-1.06724861	 1.6961859178	 0.8493243132	 0.11182
H	-0.9037417714	-0.6744512295	 0.0520366442	 0.083293
H	 0.8900836403	-1.5027248741	-1.2960085077	 0.116722
H	 0.0649989825	-0.1869899266	-2.1597250709	 0.122489
H	 3.1712256334	 1.4843773865	-2.3669863045	 0.218407
H	 4.082260401	-0.596255853	 0.8783470468	 0.125575
H	 3.5590508322	 1.0686884338	 0.6447088157	 0.113544
H	 2.4092457358	-0.3260884138	 2.5143194924	 0.093633
H	 0.1325655332	-0.3705894462	 2.1428041369	 0.091712
48.8469	87.6152	120.8656	230.2932	250.7006	307.9402	368.3328	414.8753	463.238	506.8501	555.7861	700.6016	712.093	769.7598	799.5467	857.9938	887.3622	939.6964	949.747	972.7422	999.3242	1017.9438	1039.0933	1059.877	1103.9412	1137.1756	1158.3982	1234.7331	1265.3416	1292.4124	1311.4389	1323.5351	1348.7822	1398.1593	1408.5232	1423.7825	1433.0932	1471.2173	1489.7842	1495.605	1496.9097	1738.8655	1741.9607	2956.3624	3010.6992	3037.5278	3053.8283	3071.2206	3106.8374	3113.2006	3118.2555	3120.2069	3143.426	3449.1966
CC1CC(=N)OCC=C1	C[C@H]1C[C]([NH])OCC=C1	
InChI=1S/C7H11NO/c1-6-3-2-4-9-7(8)5-6/h2-3,6,8H,4-5H2,1H3	InChI=1S/C7H11NO/c1-6-3-2-4-9-7(8)5-6/h2-3,6,8H,4-5H2,1H3/t6-/m1/s1
