18
gdb 36233	3.68538	0.98878	0.86067	4.672	78.88	-0.2592	-0.0017	0.2575	1344.9567	0.148843	-401.970597	-401.962256	-401.961312	-402.004248	30.822	
N	-0.1899177143	-1.0752803412	 0.6100282034	-0.310934
C	-0.1178295032	 0.0345343609	 0.2964184395	 0.266273
C	-0.0103843211	 1.4448951878	-0.0927703053	-0.430174
C	 1.4197015856	 1.9441030059	-0.1294046842	 0.289071
C	 1.9827575415	 2.4064095316	-1.2445105133	-0.160276
C	 3.3756690653	 2.9757394873	-1.2537773401	-0.252495
C	 3.822193068	 3.2814798233	 0.1775759803	-0.081607
O	 3.55643973	 2.1835446789	 1.0338764008	-0.239893
C	 2.1776244345	 1.9273056659	 1.1781455842	-0.157561
H	-0.4798649434	 1.5733214801	-1.0732825028	 0.157522
H	-0.6048949503	 2.0313644219	 0.6215790866	 0.156978
H	 1.433472389	 2.3863804867	-2.1831656986	 0.090156
H	 4.0695002575	 2.2665463205	-1.7248637035	 0.125154
H	 3.4101053997	 3.8901778571	-1.8592160852	 0.108172
H	 4.8991732632	 3.4594530607	 0.233749864	 0.11274
H	 3.3072313521	 4.1852907018	 0.5435859899	 0.090289
H	 1.7153217605	 2.6512837184	 1.877089868	 0.095447
H	 2.0970232354	 0.9397871221	 1.6475537365	 0.141137
52.5659	93.0521	160.383	254.6194	303.5914	327.4042	385.8647	407.9912	445.3505	521.6254	570.3446	673.6501	810.8702	856.9176	887.6609	917.2465	930.8761	958.0241	999.69	1036.7715	1061.4236	1091.2313	1142.7171	1166.7269	1217.9526	1232.1863	1264.0719	1314.9735	1321.8203	1356.2454	1365.718	1403.113	1422.5525	1453.3078	1468.6727	1485.4689	1500.7313	1744.2049	2360.6229	2918.8048	2969.7102	3018.7534	3019.6983	3053.8168	3057.6611	3082.7155	3094.5915	3150.4042
N#CCC1=CCCOC1	N#CCC1=CCCOC1	
InChI=1S/C7H9NO/c8-4-3-7-2-1-5-9-6-7/h2H,1,3,5-6H2	InChI=1S/C7H9NO/c8-4-3-7-2-1-5-9-6-7/h2H,1,3,5-6H2
