18
gdb 29448	3.15069	1.5705	1.06183	1.9707	86.02	-0.1787	0.0125	0.1912	1121.0456	0.149881	-364.860223	-364.852472	-364.851528	-364.892205	30.486	
C	-0.0179190584	 1.543007065	-0.0158292673	-0.507789
C	-0.0069158654	 0.0448221042	 0.0230948057	 0.082235
C	-0.0284257921	-0.8001755619	-1.0700449112	-0.158877
N	-0.0087172294	-2.1173086079	-0.6370046907	-0.388108
C	 0.025030092	-2.1177093642	 0.7241458746	 0.290322
C	 0.027257114	-0.8111192461	 1.1654974104	 0.237734
C	 0.0638782387	-0.8433342774	 2.6280374518	-0.202935
C	 0.0828080796	-2.1256071087	 3.0457007128	-0.092075
C	 0.0598730666	-3.0891006781	 1.8614740415	-0.414153
H	 0.8718303761	 1.9697439998	 0.4626756516	 0.12206
H	-0.0455667724	 1.9106888756	-1.0459731908	 0.116266
H	-0.8888667667	 1.9579473562	 0.5057148188	 0.122062
H	-0.056109059	-0.5702780604	-2.1239351937	 0.111276
H	-0.0187587311	-2.9206203266	-1.2403065363	 0.256538
H	 0.07412596	 0.0259510093	 3.2741433046	 0.089016
H	 0.110570231	-2.4685177143	 4.071262566	 0.089585
H	-0.8150018469	-3.7525866976	 1.9003098688	 0.123414
H	 0.9444939534	-3.740676827	 1.8565385734	 0.123429
119.6374	157.0406	216.5293	233.5884	312.2383	411.0409	461.65	485.3724	591.4662	622.248	651.82	665.5903	692.856	745.5615	776.4748	862.6737	922.6592	928.6559	947.4543	1000.7824	1027.7134	1063.2662	1100.3676	1128.4539	1138.1463	1186.5253	1227.2337	1271.0579	1326.9113	1364.5174	1418.5109	1436.2663	1462.0187	1482.9818	1493.4241	1518.8703	1528.336	1570.0704	1629.0938	3016.5918	3020.4239	3042.3375	3066.4448	3100.7013	3202.2135	3229.7578	3251.4371	3681.2226
CC1=CNC2=C1C=CC2	Cc1c[nH]c2c1C=CC2	
InChI=1S/C8H9N/c1-6-5-9-8-4-2-3-7(6)8/h2-3,5,9H,4H2,1H3	InChI=1S/C8H9N/c1-6-5-9-8-4-2-3-7(6)8/h2-3,5,9H,4H2,1H3
