14
gdb 34471	3.81387	1.52969	1.29213	4.5672	66.03	-0.2448	-0.0004	0.2444	937.3715	0.101831	-436.638222	-436.631693	-436.630749	-436.669171	25.547	
N	 0.0919337789	-1.06583114	 0.0304115292	-0.334232
C	 0.0144266474	 0.0879361191	 0.0077885108	 0.219973
C	-0.0294444203	 1.5191314317	-0.0239925082	 0.3279
O	-1.0994064301	 2.1136462321	 0.6666214247	-0.302684
C	-1.3495895999	 3.3874359143	 0.0498068305	-0.086236
C	-0.0733913368	 3.6681527755	-0.7234115719	 0.035053
O	 1.0218593687	 3.6597515453	 0.2531894418	-0.293228
C	 1.2944843087	 2.3139487951	-0.0898355638	 0.036749
C	 0.3662921048	 2.2885203767	-1.2666293696	-0.231093
H	-2.2287387593	 3.3349868145	-0.6089494204	 0.111283
H	-1.5229345795	 4.1214149185	 0.8407071146	 0.137003
H	-0.054533591	 4.5450543151	-1.3694394776	 0.110914
H	 2.2780520933	 1.9017438626	 0.0991275154	 0.137136
H	 0.4279805552	 1.9211459394	-2.2807374056	 0.131463
141.5866	163.61	271.9784	402.1829	476.1992	500.8184	530.8443	595.3411	711.4968	746.1349	792.9872	852.334	859.1915	911.6023	921.3597	953.4082	1012.3542	1036.62	1039.6815	1048.1481	1101.3769	1157.3547	1185.1083	1209.9769	1229.554	1275.33	1300.9478	1371.1035	1381.9554	1497.3004	2355.7702	3004.8126	3105.879	3132.3231	3199.118	3222.6361
N#CC12OCC3OC1C23	N#C[C@@]12OC[C@H]3O[C@@H]1[C@@H]23	
InChI=1S/C6H5NO2/c7-2-6-4-3(1-8-6)9-5(4)6/h3-5H,1H2	InChI=1S/C6H5NO2/c7-2-6-4-3(1-8-6)9-5(4)6/h3-5H,1H2/t3-,4+,5-,6+/m1/s1
