19
gdb 39558	3.9305	1.50258	1.25877	0.2581	85.38	-0.2123	0.0102	0.2225	1025.1854	0.162172	-348.766175	-348.75945	-348.758506	-348.796821	28.559	
C	-0.0478875559	 1.5254015116	 0.0541450493	-0.37145
C	 1.4167369393	 1.9115718954	 0.0490468418	-0.079089
C	 2.21415148	 0.850859406	-0.1090391683	-0.084955
C	 1.4403767014	-0.4201797455	-0.1764571561	-0.121257
C	 0.6758087512	-0.789602172	 1.0985003659	-0.121257
C	 0.0077436443	-2.1207829327	 1.077049234	-0.084955
C	-0.9560530926	-2.1794887674	 0.1531325493	-0.079089
C	-1.1343895436	-0.8585874481	-0.5663771527	-0.37145
C	-0.0117475533	 0.0037736303	-0.0041783955	 0.357828
H	-0.5748278826	 1.8976037637	 0.9425424833	 0.1079
H	-0.576582785	 1.9489366283	-0.8131880933	 0.104338
H	 1.7496628399	 2.9362041304	 0.1696119915	 0.091603
H	 3.2970119019	 0.8810375138	-0.1554784594	 0.09189
H	 1.742417613	-1.2258164593	-0.838467463	 0.082107
H	 0.9984913135	-0.3393934068	 2.0321624549	 0.082107
H	 0.3071205786	-2.9373581977	 1.7245307172	 0.09189
H	-1.5502139264	-3.0554968207	-0.0810247849	 0.091603
H	-1.0733427659	-0.9657283665	-1.6573606725	 0.1079
H	-2.1218648479	-0.4195270228	-0.3583252016	 0.104338
191.5685	230.2088	271.5959	382.5158	420.1485	470.4106	494.7231	682.1918	709.2743	736.6265	760.7641	777.8335	827.3724	864.561	928.8501	939.0416	951.245	957.4587	959.1621	976.3775	990.4935	1018.5051	1030.3483	1042.451	1061.8531	1130.5906	1139.4549	1149.4	1175.8486	1208.8006	1239.187	1264.5582	1297.1745	1342.3465	1362.0147	1379.2259	1386.1205	1476.9052	1480.0222	1661.4454	1665.3283	2992.6942	2996.1982	3032.4877	3033.7449	3153.2522	3156.0401	3184.1785	3184.5	3208.8857	3209.4369
C1C=CC2C3C=CCC123	C1C=C[C@H]2[C@@H]3C=CC[C@]123	
InChI=1S/C9H10/c1-3-7-8-4-2-6-9(7,8)5-1/h1-4,7-8H,5-6H2	InChI=1S/C9H10/c1-3-7-8-4-2-6-9(7,8)5-1/h1-4,7-8H,5-6H2/t7-,8-,9+/m0/s1
