15
gdb 127256	3.29321	1.43332	1.0055	7.3096	76.38	-0.2131	-0.0439	0.1692	1117.873	0.113283	-450.123535	-450.115435	-450.114491	-450.156125	30.215	
C	 0.0124247593	 1.473219773	 0.0013361529	-0.326333
N	-0.0350834113	 0.0175741411	 0.0028691815	 0.01306
C	-1.2349256335	-0.6487467636	 0.0224059295	-0.061486
C	-1.2287204533	-2.0103075533	 0.0309223144	 0.165191
N	-2.3025870362	-2.839973395	 0.0962453718	-0.577156
C	 0.0795394451	-2.6799676446	-0.0059275914	 0.407663
O	 0.151764758	-3.9012912873	-0.0308407479	-0.386444
N	 1.219860319	-1.8721059396	-0.0211809726	-0.288764
N	 1.15081886	-0.5899136179	-0.0148359973	-0.072505
H	 1.0624638372	 1.7601847173	-0.0163008215	 0.17353
H	-0.4956866862	 1.870729047	-0.8825797295	 0.146831
H	-0.4661608374	 1.8716554539	 0.9010812836	 0.148061
H	-2.1264540041	-0.0333561943	 0.0350136163	 0.124967
H	-3.2174740517	-2.5195151131	-0.1719253149	 0.255716
H	-2.0647361849	-3.8066621935	-0.0853726448	 0.277669
95.3519	139.72	180.1991	288.888	331.146	349.9784	361.9229	426.8176	485.9232	530.7958	550.1222	590.0623	612.2293	735.0816	811.3777	824.649	833.2261	986.8248	1060.6539	1119.3916	1151.6934	1183.2513	1206.3164	1339.134	1385.8174	1431.152	1450.5333	1475.4143	1484.4343	1508.8429	1592.911	1692.2921	1738.2443	3042.8028	3106.1695	3175.4232	3195.3374	3552.5264	3699.0429
CN1C=C(N)C(=O)N=N1	Cn1cc(N)c(=O)nn1	
InChI=1S/C4H6N4O/c1-8-2-3(5)4(9)6-7-8/h2H,5H2,1H3	InChI=1S/C4H6N4O/c1-8-2-3(5)4(9)6-7-8/h2H,5H2,1H3
