19
gdb 125519	4.22004	0.83624	0.74079	0.802	79.57	-0.2303	0.0262	0.2565	1549.8303	0.15978	-419.22966	-419.220275	-419.219331	-419.264995	33.338	
C	 0.0456230518	 1.4428967741	-0.0498523315	-0.490005
C	 0.030036943	-0.0515319916	 0.0298077322	 0.357407
N	 0.081739489	-0.7896476808	-1.0794538926	-0.331565
N	 0.0637260436	-2.0735672993	-0.65595003	 0.058754
C	 0.0410603623	-3.1450855096	-1.6291532053	-0.178174
C	-1.3259700388	-3.2772212998	-2.3176426843	-0.068034
O	-1.3273090276	-4.3322714484	-3.261625399	-0.408492
C	-0.0069195856	-2.1622911248	 0.6953109246	-0.020947
C	-0.02747472	-0.8732146336	 1.1806256832	-0.309334
H	 0.9131298926	 1.8634954318	 0.4706756044	 0.127362
H	 0.0852212403	 1.7597715256	-1.0941705271	 0.136642
H	-0.848990508	 1.8779827811	 0.4090990481	 0.126908
H	 0.8147905481	-2.9444281413	-2.3778913403	 0.119411
H	 0.2920774271	-4.0804281223	-1.1224316286	 0.125774
H	-2.0884643232	-3.525799249	-1.5723159863	 0.118174
H	-1.5984504899	-2.312162477	-2.7643400812	 0.120309
H	-0.8230851091	-4.0457807837	-4.0296439456	 0.288578
H	-0.0292423228	-3.1192562444	 1.1933882525	 0.128512
H	-0.0682421529	-0.567115147	 2.213759217	 0.098722
53.4449	83.7825	90.7922	94.0058	251.6851	278.2619	294.7223	328.2249	375.9153	420.8778	633.7575	658.5328	689.076	768.6158	778.8302	789.5395	830.7607	982.807	1016.1477	1030.9745	1035.0661	1062.1906	1064.9187	1075.1214	1092.9726	1158.8649	1233.4595	1291.5168	1339.2946	1344.3517	1397.9335	1400.991	1407.487	1416.5228	1446.9828	1479.743	1484.1257	1492.2495	1511.343	1513.3227	1573.3858	3024.6987	3034.4487	3050.9433	3082.6673	3085.0551	3116.547	3131.1063	3248.9815	3268.9877	3819.3807
CC1=NN(CCO)C=C1	Cc1nn(CCO)cc1	
InChI=1S/C6H10N2O/c1-6-2-3-8(7-6)4-5-9/h2-3,9H,4-5H2,1H3	InChI=1S/C6H10N2O/c1-6-2-3-8(7-6)4-5-9/h2-3,9H,4-5H2,1H3
