18
gdb 33463	2.81867	1.33956	1.04981	3.385	76.18	-0.2668	0.0245	0.2913	1161.5651	0.148028	-401.931986	-401.923522	-401.922578	-401.965724	31.09	
N	 0.4641623549	-1.1618012765	-0.2884845755	-0.342334
C	 0.254535972	-0.0319355693	-0.1509939157	 0.228875
C	-0.0415756961	 1.3689299676	-0.0031955023	 0.162201
C	 0.1739381313	 2.0028173884	 1.3612351232	-0.293935
C	 1.1178298694	 2.3224876136	 0.24138067	-0.297583
C	-1.1981290168	 1.8405620119	-0.8753562602	 0.062098
C	-2.6358681001	 1.458813376	-0.4538750045	-0.284296
C	-2.8671302779	 2.9811114112	-0.4019644939	-0.068945
O	-1.4713882576	 3.2437686152	-0.6929156305	-0.295863
H	-0.5393036624	 2.7685749432	 1.6413886245	 0.13789
H	 0.5151422066	 1.3603410541	 2.1636611289	 0.13651
H	 2.1160293487	 1.9027866475	 0.2625481351	 0.138607
H	 1.0248708603	 3.2959874612	-0.2250955756	 0.149663
H	-0.9672780639	 1.6173542107	-1.9253777712	 0.095298
H	-3.2169541902	 0.9055865773	-1.1914461184	 0.123758
H	-2.696492932	 0.9530746351	 0.5108385883	 0.123379
H	-3.5187607231	 3.3830257871	-1.1862056038	 0.112916
H	-3.1666756031	 3.4024590559	 0.5636458415	 0.111761
63.6383	90.2703	137.0475	208.475	226.8187	253.1883	400.9422	442.3302	549.5451	585.6547	660.5532	775.111	790.9418	827.185	890.3919	890.9656	946.894	955.2166	963.5721	1011.4726	1035.4662	1072.1196	1077.5678	1097.1215	1114.564	1168.9199	1200.0534	1217.0568	1258.9406	1265.4028	1284.5412	1313.6664	1359.7934	1384.9549	1451.1146	1485.4174	1491.0424	1531.2861	2347.1957	3015.1802	3030.2183	3073.5925	3090.0641	3148.2767	3150.2121	3151.6221	3239.2124	3251.8473
N#CC1(CC1)C1CCO1	N#CC1(CC1)[C@H]1CCO1	
InChI=1S/C7H9NO/c8-5-7(2-3-7)6-1-4-9-6/h6H,1-4H2	InChI=1S/C7H9NO/c8-5-7(2-3-7)6-1-4-9-6/h6H,1-4H2/t6-/m1/s1
