17
gdb 94533	2.79556	1.20154	1.02867	1.6129	69.66	-0.2553	-0.1042	0.1511	1191.2207	0.134578	-458.966835	-458.958132	-458.957188	-459.001055	31.554	
O	 0.3725378595	 1.2533166758	-0.5458620894	-0.431788
C	 0.0450873817	-0.0147073017	-0.0713986502	 0.15908
C	-0.0357763397	-0.2829884077	 1.455412921	-0.255566
C	-1.2537025921	-1.2045449686	 1.1961967133	-0.230389
C	-1.4248186273	-0.5518227153	-0.2291014936	-0.183824
C	-2.4644231805	 0.5211606431	-0.2111933234	 0.302893
O	-2.3051516723	 1.6455442897	 0.2283580443	-0.319715
C	-3.8573469715	 0.1847361868	-0.7685541852	 0.098921
O	-4.1428879866	-0.8733506572	-1.2615591887	-0.213404
H	-0.2744259328	 1.8667521139	-0.1713861893	 0.295326
H	 0.7314452721	-0.7153946431	-0.5562070582	 0.098909
H	 0.8399016038	-0.7163807996	 1.9427282873	 0.106271
H	-0.327819172	 0.6256859231	 1.9884105909	 0.117496
H	-0.9851845822	-2.2578756917	 1.0973840287	 0.121962
H	-2.0997863049	-1.1230068742	 1.8810642298	 0.115067
H	-1.6362682951	-1.2503712381	-1.0398596606	 0.108161
H	-4.5698444199	 1.0307081749	-0.6695004565	 0.110598
41.7538	122.8099	138.2465	174.3127	218.7531	236.3759	389.303	450.8694	531.485	547.3877	576.5527	648.984	673.9498	753.6789	784.0239	878.7172	915.7155	960.5977	984.1436	1014.5942	1064.688	1088.2013	1154.9111	1162.6166	1187.5403	1229.6752	1251.2019	1258.2565	1270.2807	1342.0439	1362.4217	1388.8198	1457.4449	1479.983	1494.6159	1763.6416	1826.5658	2926.1979	3065.6312	3069.2374	3075.5454	3108.0085	3118.7598	3134.9555	3749.3334
OC1CCC1C(=O)C=O	O[C@H]1CC[C@H]1C(=O)C=O	
InChI=1S/C6H8O3/c7-3-6(9)4-1-2-5(4)8/h3-5,8H,1-2H2	InChI=1S/C6H8O3/c7-3-6(9)4-1-2-5(4)8/h3-5,8H,1-2H2/t4-,5+/m1/s1
