21
gdb 59443	2.66737	1.14005	1.00758	2.6743	80.92	-0.2235	0.0151	0.2386	1306.0433	0.180911	-420.420072	-420.40974	-420.408796	-420.455435	37.833	
C	-2.9400336761	-0.5887736936	 1.7619440491	-0.385895
C	-1.6374486999	-0.9013927135	 1.0226648453	 0.071756
C	-1.0873709801	 0.3271663574	 0.2970028344	-0.386921
N	-0.6496882558	-1.3365646517	 2.0256826296	-0.086766
C	-0.6365441339	-2.7202954926	 2.4444882495	-0.243543
C	 0.5000719528	-2.1702398684	 1.6424035572	-0.117414
C	 0.6721647676	-2.6826780438	 0.2366833303	 0.41797
N	 1.9311993793	-2.5128431187	-0.2657921642	-0.538413
O	-0.2175544102	-3.2126766452	-0.4070045684	-0.370678
H	-2.7820812814	 0.1948497968	 2.510017727	 0.117549
H	-3.706310726	-0.2497526467	 1.0580425768	 0.110862
H	-3.3232654046	-1.4763417101	 2.2751556529	 0.113215
H	-1.8258041982	-1.6924550514	 0.2859190429	 0.107359
H	-0.8759227367	 1.1322528054	 1.0085596992	 0.116557
H	-0.1606978889	 0.0913224967	-0.2358230641	 0.107996
H	-1.8104453675	 0.6934259201	-0.4380807603	 0.112623
H	-0.5023245732	-2.9042232096	 3.5075256223	 0.112054
H	-1.2750638772	-3.424322724	 1.9139314965	 0.136454
H	 1.4220429882	-1.8925705256	 2.1507946715	 0.081118
H	 2.6332281485	-1.9787642681	 0.2148572916	 0.261671
H	 2.1001302231	-2.7872622432	-1.2196752289	 0.262445
59.5704	74.3334	146.0908	184.1037	199.544	216.8304	240.5188	273.9466	333.1583	340.048	400.9003	476.2988	500.1156	587.2608	643.9613	709.5057	757.4247	816.8944	891.0114	917.7656	936.5246	963.3711	995.8806	1019.6532	1079.4426	1097.2696	1124.4593	1137.736	1153.5164	1186.3749	1197.6582	1289.3509	1327.8544	1373.5753	1381.1637	1399.5136	1416.7882	1427.1977	1483.996	1486.9474	1492.3694	1496.4217	1509.8993	1615.3098	1778.1009	3031.1464	3032.6469	3037.4417	3094.614	3103.5374	3107.0627	3107.4856	3110.3035	3114.4695	3186.5361	3604.7001	3741.3395
CC(C)N1CC1C(N)=O	CC(C)N1C[C@H]1C(=O)N	
InChI=1S/C6H12N2O/c1-4(2)8-3-5(8)6(7)9/h4-5H,3H2,1-2H3,(H2,7,9)	InChI=1S/C6H12N2O/c1-4(2)8-3-5(8)6(7)9/h4-5H,3H2,1-2H3,(H2,7,9)/t5-,8?/m0/s1
