13
gdb 53785	2.32119	1.33497	1.16562	1.4006	60.46	-0.248	-0.1195	0.1285	1104.0071	0.083486	-493.726212	-493.71646	-493.715516	-493.762445	31.458	
C	-0.1201525616	 1.0686976533	 0.2143806918	-0.487079
C	 0.0406182999	-0.4006636636	-0.0403127653	 0.313257
O	-0.439011809	-1.293991322	 0.6216702669	-0.276386
C	 0.900509453	-0.8258139306	-1.2394935786	 0.226499
O	 1.5720088234	-0.0731708614	-1.8929752689	-0.256677
C	 0.8837435983	-2.3549555361	-1.5024452694	 0.252703
O	 1.848160188	-3.052079139	-1.3305919616	-0.253459
C	-0.4216100015	-2.8975526396	-2.0794224166	 0.083843
O	-1.3081871416	-2.1532233849	-2.408506961	-0.217118
H	-0.6815210756	 1.5182817438	-0.6129684915	 0.168564
H	-0.6483378339	 1.2322660561	 1.15371044	 0.154042
H	 0.8589073185	 1.5573224992	 0.2246545919	 0.166228
H	-0.460616068	-4.0000929852	-2.1850741978	 0.125583
35.7882	69.1687	107.0181	124.4216	132.0263	149.2496	270.66	285.1566	359.3321	439.1182	508.6451	552.2206	607.5387	648.6912	766.9643	886.2465	1006.2451	1030.0696	1036.4785	1177.7824	1274.0257	1356.7204	1387.3814	1452.1116	1458.6698	1793.2247	1812.3376	1820.2174	1831.3377	2949.5672	3045.2011	3108.4051	3164.1815
CC(=O)C(=O)C(=O)C=O	CC(=O)C(=O)C(=O)C=O	
InChI=1S/C5H4O4/c1-3(7)5(9)4(8)2-6/h2H,1H3	InChI=1S/C5H4O4/c1-3(7)5(9)4(8)2-6/h2H,1H3
