17
gdb 12833	3.12393	2.38138	1.75747	3.7495	67.91	-0.2447	0.0168	0.2615	802.7713	0.143731	-363.842381	-363.835497	-363.834553	-363.873035	26.945	
C	-0.1271669606	 1.5542026649	-0.0937760892	-0.454638
C	-0.0866590085	 0.0251560292	-0.09506514	 0.192678
C	 1.1231477494	-0.5419672215	-0.909553497	-0.162895
O	 1.8550240738	-0.8110721171	 0.357159371	-0.277012
C	 0.6672277116	-0.631787394	 1.0140316325	 0.407682
N	 0.0948126172	-1.1728560558	 1.9986873551	-0.311646
C	-1.3498522598	-0.8933488423	 1.7167185689	-0.157376
C	-1.4503609646	-0.6475191115	 0.1619208044	-0.310612
H	 0.8739883803	 1.9793848345	 0.0263016786	 0.13062
H	-0.5447333407	 1.9264333015	-1.035613652	 0.122977
H	-0.7521459645	 1.9309118529	 0.7214061544	 0.130423
H	 0.9456600388	-1.4845702329	-1.4338519515	 0.127308
H	 1.6744394243	 0.164687895	-1.5321997841	 0.123798
H	-1.9397892336	-1.7574262366	 2.0321339405	 0.116842
H	-1.705882373	-0.0285814929	 2.2914463789	 0.108888
H	-2.3119557951	-0.0398873126	-0.1274758692	 0.101698
H	-1.5221328152	-1.6134958208	-0.3482317011	 0.111267
168.7237	226.7114	242.1244	283.1414	335.8696	355.0596	518.4706	634.9626	680.7128	711.5553	781.1893	841.3542	861.3206	889.0002	927.6051	945.9238	977.8268	988.0767	1012.3079	1113.6348	1142.2094	1145.3288	1205.8168	1213.6537	1243.2794	1271.8993	1299.7387	1316.0383	1363.7217	1417.2859	1479.3488	1492.8609	1497.5581	1502.2177	1507.9734	1770.1731	3025.7437	3033.8487	3051.6925	3062.3402	3094.7513	3101.3127	3106.8539	3112.6566	3136.6739
CC12COC1=NCC2	C[C@@]12CO[C]1[N]CC2	
InChI=1S/C6H9NO/c1-6-2-3-7-5(6)8-4-6/h2-4H2,1H3	InChI=1S/C6H9NO/c1-6-2-3-7-5(6)8-4-6/h2-4H2,1H3/t6-/m1/s1
