19
gdb 8493	2.68075	2.05704	1.96182	1.464	71.63	-0.2376	0.0714	0.309	853.0232	0.164578	-364.984901	-364.976611	-364.975666	-365.017139	31.87	
C	-0.0772100336	 1.5080973185	 0.0247840027	-0.474241
C	 0.0188782265	-0.0220228895	 0.0461920086	 0.354004
C	-1.3510142019	-0.5664827127	-0.3611837061	-0.47713
N	 1.2437148008	-0.6275408908	-0.7275661781	-0.174818
C	 2.1058502008	-0.1267365401	 0.4414185058	-0.245302
C	 0.8576690157	-0.7237122906	 1.1472642461	 0.311018
O	 0.5017642366	-0.7437140559	 2.4869967512	-0.469222
C	 1.0557736835	-1.8841337823	 0.1403427031	-0.24667
H	-0.015802237	 1.8646062274	-1.0092878402	 0.129768
H	-1.0465919269	 1.8196244482	 0.4237765034	 0.121461
H	 0.6870681418	 2.0210007899	 0.6080564248	 0.120553
H	-1.6679059489	-0.0933230925	-1.2965399072	 0.12459
H	-1.3992559612	-1.6444505281	-0.5065076406	 0.119266
H	-2.0853606075	-0.3033958584	 0.4070572811	 0.128879
H	 3.0453771075	-0.6772902809	 0.5352683092	 0.093295
H	 2.2851960958	 0.9454550062	 0.4512106112	 0.105583
H	 1.1656399905	-1.2393730933	 2.9791054101	 0.281194
H	 0.2186436484	-2.5206021246	-0.1340149672	 0.103874
H	 1.9738347594	-2.4710579004	 0.225209182	 0.093898
95.6026	136.286	175.9889	229.2105	241.2205	360.8581	426.1711	435.1358	471.1192	559.5405	611.557	631.1436	694.2598	744.8348	809.1156	883.1136	951.6144	954.9138	976.9488	985.6059	993.9953	1062.7279	1079.7971	1091.7901	1139.0919	1168.9702	1180.0712	1237.2578	1239.0262	1244.8411	1288.8777	1369.8677	1403.7995	1418.0587	1475.9768	1485.0846	1502.2971	1512.74	1533.0051	1569.0488	3042.6298	3048.4266	3068.7724	3078.7694	3100.6946	3108.5706	3137.2255	3143.2978	3166.1374	3172.1465	3804.046
CC1(C)N2CC1(O)C2	CC1(C)N2C[C@]1(O)C2	
InChI=1S/C6H11NO/c1-5(2)6(8)3-7(5)4-6/h8H,3-4H2,1-2H3	InChI=1S/C6H11NO/c1-5(2)6(8)3-7(5)4-6/h8H,3-4H2,1-2H3
