23
gdb 106763	2.00607	1.51199	1.03784	1.5361	86.2	-0.2412	0.0743	0.3155	1273.8706	0.204598	-388.270307	-388.260323	-388.259379	-388.30475	37.979	
C	-0.2321682128	 1.5232299123	 0.0200149365	-0.415371
C	 0.0294190374	 0.0239094483	-0.054280381	-0.009239
C	 1.2104732172	-0.522403657	-0.9291458814	-0.310922
C	 1.7661481344	-1.2637434439	 0.2983455098	 0.297822
C	 2.3765344289	-2.6367470817	 0.2609884015	-0.496817
C	 2.0732021934	-0.2510000187	 1.367797467	-0.393159
C	 0.6359784578	-0.6889665016	 1.1668286034	 0.289218
C	-0.1708773017	-1.2968887373	 2.2734671219	-0.176195
O	-0.787231903	-0.3102940928	 3.0992152108	-0.415479
H	 0.6746719389	 2.0819865295	 0.2752856547	 0.108376
H	-0.5977083533	 1.9092957827	-0.9379720151	 0.11027
H	-0.9853225416	 1.739302612	 0.7847974803	 0.126149
H	-0.8975727919	-0.4866266376	-0.3383226317	 0.071434
H	 0.87312953	-1.1905002132	-1.7259801655	 0.097655
H	 1.8782404327	 0.2285428119	-1.3665982783	 0.090586
H	 3.3584206857	-2.616820642	-0.2280530202	 0.120461
H	 2.5206676795	-3.0406861439	 1.2683697865	 0.1166
H	 1.7467010313	-3.3404687597	-0.2955591469	 0.115591
H	 2.5512262726	-0.6527049268	 2.2577693742	 0.103732
H	 2.4028550162	 0.7523129482	 1.107521113	 0.103649
H	-1.0009808157	-1.8870177787	 1.8677715662	 0.104329
H	 0.4550253528	-1.9810068325	 2.8701710315	 0.08068
H	-0.0885176687	 0.2818786823	 3.3976385328	 0.280632
81.9718	112.6647	149.0961	201.605	211.9164	234.3823	274.9092	318.0325	338.5963	362.0143	415.4022	458.2357	525.9535	584.7533	684.985	774.042	830.9502	856.5505	891.8499	925.7788	952.3835	975.1428	981.8668	1023.7343	1038.1134	1063.623	1075.1986	1110.1011	1129.9971	1155.9084	1178.1781	1223.6946	1238.6171	1250.378	1282.6277	1335.937	1350.7851	1374.0482	1397.6725	1410.1181	1418.9412	1436.3199	1481.3711	1486.5862	1494.8227	1498.0418	1500.4519	1503.3066	1514.608	2965.0779	3018.3027	3028.27	3035.2869	3036.6845	3055.2544	3075.0332	3092.1854	3094.3036	3095.9556	3101.6413	3104.2487	3183.5202	3805.9394
CC1CC2(C)CC12CO	C[C@H]1C[C@@]2(C)C[C@@]12CO	
InChI=1S/C8H14O/c1-6-3-7(2)4-8(6,7)5-9/h6,9H,3-5H2,1-2H3	InChI=1S/C8H14O/c1-6-3-7(2)4-8(6,7)5-9/h6,9H,3-5H2,1-2H3/t6-,7-,8+/m0/s1
