21
gdb 114455	4.3669	1.11064	1.03287	1.2486	82.38	-0.2623	0.0798	0.3422	1222.074	0.184943	-387.049835	-387.042145	-387.041201	-387.082065	30.89	
O	-0.1070039094	 1.4764042767	-0.0613388325	-0.422046
C	 0.0162582799	 0.0661878934	 0.0686359241	-0.094194
C	-1.3791423021	-0.5371957526	 0.0041620177	 0.009752
C	-2.0884338214	-0.3563359797	-1.3714222091	-0.255219
C	-2.3456640645	-1.8182581607	-1.7311305204	 0.007041
C	-2.761347324	-2.5969492195	-0.4391938392	-0.06195
C	-2.0492996007	-3.8564132234	-0.9839139445	-0.24252
C	-1.1055179697	-2.6785080537	-1.3206017903	-0.053345
C	-1.3917114445	-2.0666192217	 0.093030726	-0.013607
H	 0.7759506915	 1.8570475913	-0.0607921521	 0.284679
H	 0.6396486953	-0.3531247847	-0.7384684272	 0.081405
H	 0.4951151642	-0.2024092929	 1.0247403289	 0.080612
H	-1.9699654886	-0.0934862019	 0.8141463507	 0.073282
H	-3.0132434475	 0.2232519647	-1.2937288133	 0.097197
H	-1.4479108181	 0.1528465942	-2.0987687895	 0.100995
H	-2.8545734111	-2.0494890245	-2.6695954338	 0.056671
H	-3.7228407363	-2.5373439783	 0.0758561812	 0.062586
H	-1.6920519476	-4.5799877111	-0.2450029947	 0.085351
H	-2.5245417386	-4.3629675076	-1.8292212582	 0.086534
H	-0.1426457284	-2.7217342013	-1.834368123	 0.061566
H	-0.9506412986	-2.5425982967	 0.9724194492	 0.055211
95.1427	131.4977	200.4002	274.391	340.8787	378.4561	436.4153	476.139	678.5121	719.6398	770.7638	813.0771	842.7096	872.8782	887.7614	915.6957	934.0816	956.5888	977.8278	1001.4293	1021.9602	1041.3829	1058.4859	1074.8053	1079.5224	1103.457	1112.6251	1134.3329	1157.9168	1188.2057	1208.3582	1228.5208	1236.5187	1248.603	1254.8439	1274.7849	1277.9054	1287.8083	1316.1146	1346.0138	1388.6802	1459.7638	1499.4399	1519.1014	1521.6814	2955.942	2982.3218	3037.8382	3041.7372	3050.8985	3078.8619	3081.2739	3086.7894	3089.5701	3099.3834	3101.1007	3829.5872
OCC1CC2C3CC2C13	OC[C@H]1C[C@@H]2[C@H]3C[C@@H]2[C@@H]13	
InChI=1S/C8H12O/c9-3-4-1-5-6-2-7(5)8(4)6/h4-9H,1-3H2	InChI=1S/C8H12O/c9-3-4-1-5-6-2-7(5)8(4)6/h4-9H,1-3H2/t4-,5-,6-,7+,8+/m1/s1
