17
gdb 69110	2.41947	1.6631	1.27636	1.5248	75.12	-0.2301	0.0304	0.2606	1033.2394	0.13398	-421.771466	-421.76289	-421.761946	-421.804499	32.768	
O	 0.047897145	 1.3437415611	-0.240813451	-0.458697
C	 0.0403627606	-0.031421021	-0.0600814284	 0.328547
C	-0.3232652984	-0.8597947456	-1.2557536384	-0.35706
C	-1.2533872565	-0.8433967754	-0.0479373948	 0.159433
O	-1.0820746114	-1.9353601405	 0.8247785124	-0.29374
C	-0.0592705636	-1.5872597565	 1.7687494912	-0.08457
C	 0.9247572655	-0.6676352479	 1.0191771514	-0.311697
C	-2.5405470906	-0.2233644753	-0.0757068295	 0.28488
C	-3.6107748309	 0.3267735994	-0.0804269432	-0.450916
H	-0.492358502	 1.7473482912	 0.4489663724	 0.289053
H	-0.648153037	-0.3075537139	-2.1301300745	 0.133596
H	 0.2019951837	-1.7910160765	-1.4378650051	 0.123055
H	-0.5049125734	-1.0602310365	 2.6255298044	 0.100109
H	 0.3831391552	-2.5193568554	 2.1280268498	 0.113896
H	 1.7560600125	-1.2296496515	 0.582164559	 0.115287
H	 1.3444147745	 0.1075053467	 1.6649682082	 0.112929
H	-4.565652673	 0.7908526577	-0.1000580338	 0.195896
91.216	119.8605	149.9542	203.1107	280.9659	356.696	396.58	433.6823	502.2394	542.0789	569.8439	594.3639	620.8255	679.781	699.6878	799.5894	837.5192	894.6846	931.5868	943.6064	970.1197	1040.1555	1049.2629	1070.6965	1093.6016	1193.8783	1203.2923	1239.9967	1271.8393	1316.9551	1320.3099	1381.6891	1397.0878	1459.444	1489.603	1518.3846	2231.0969	2994.0871	3053.2155	3099.2769	3111.4807	3134.7493	3237.4257	3501.5166	3783.4983
OC12CC1(OCC2)C#C	O[C@]12C[C@]1(OCC2)C#C	
InChI=1S/C7H8O2/c1-2-7-5-6(7,8)3-4-9-7/h1,8H,3-5H2	InChI=1S/C7H8O2/c1-2-7-5-6(7,8)3-4-9-7/h1,8H,3-5H2/t6-,7-/m1/s1
