18
gdb 74645	2.99399	1.78031	1.28966	2.4841	76.5	-0.22	0.0041	0.2241	994.2057	0.147889	-401.873308	-401.865628	-401.864684	-401.904987	30.823	
C	-0.1489509442	 1.5212030142	 0.0031779226	-0.508809
C	-0.0505213134	 0.0360621054	-0.0495172129	 0.235324
C	-0.0068587371	-0.8276430582	-1.069010967	-0.222977
C	 0.0724230931	-2.1967191219	-0.4173259742	-0.043833
C	-0.8344426989	-2.1661080871	 0.858282724	-0.051872
N	 0.1352732091	-3.0789219833	 1.5694526488	-0.352764
C	 0.9945612571	-2.0770998274	 0.8382198433	-0.091219
C	 0.0085470875	-0.8832576428	 1.1732255441	 0.303082
O	-0.0900171759	-0.3656908703	 2.462242404	-0.483618
H	 0.726391853	 1.9701220392	 0.4924035441	 0.116708
H	-0.2256414981	 1.9519530636	-0.9987544861	 0.129199
H	-1.0229172664	 1.839084381	 0.5846191256	 0.138027
H	-0.0294946935	-0.6269225206	-2.131449196	 0.102973
H	 0.1106765548	-3.1101590195	-1.0055555243	 0.081477
H	-1.919228039	-2.2886677122	 0.9215449257	 0.07826
H	 0.1304112306	-2.8331440724	 2.5641066611	 0.212418
H	 2.0884132692	-2.0944783238	 0.8774872286	 0.071354
H	 0.6828242623	 0.1818314961	 2.6366683487	 0.28627
143.1813	161.9628	229.6715	274.1291	337.8122	365.0185	420.5294	516.0725	528.2898	575.3993	685.3119	729.9726	759.8345	820.2226	838.5987	881.9251	886.6875	909.8841	962.135	976.5239	1018.6156	1047.3957	1062.6686	1108.4574	1128.5504	1140.697	1166.6222	1181.5072	1234.2599	1247.4738	1287.9068	1302.1046	1311.3622	1331.8715	1359.1485	1412.2793	1476.0524	1484.9481	1698.8274	3011.1844	3059.3083	3064.9288	3081.9296	3111.4657	3157.1888	3223.7251	3393.3743	3808.7876
CC1=CC2C3NC2C13O	CC1=C[C@@H]2[C@H]3N[C@@H]2[C@@]13O	
InChI=1S/C7H9NO/c1-3-2-4-5-7(3,9)6(4)8-5/h2,4-6,8-9H,1H3	InChI=1S/C7H9NO/c1-3-2-4-5-7(3,9)6(4)8-5/h2,4-6,8-9H,1H3/t4-,5-,6+,7-
