17
gdb 9930	3.1037	1.53571	1.42081	4.9257	70.13	-0.2284	0.0281	0.2565	969.6207	0.142281	-360.030268	-360.021275	-360.020331	-360.0634	32.642	
C	-0.1301956612	 1.5501171758	 0.0345619547	-0.412581
C	 0.0183749424	 0.0454406128	 0.0234125958	-0.049355
C	 1.3288613419	-0.6498191725	-0.2679930123	-0.09623
N	 2.5069956793	 0.1566082317	-0.423312038	-0.510788
C	 0.7403590296	-0.6648496427	 1.1619216041	 0.168425
N	 1.3601322474	 0.1363660342	 2.199343414	-0.571532
C	 0.1838888887	-1.9094553542	 1.6213944801	 0.251291
N	-0.2508352443	-2.9202254882	 1.98083486	-0.348752
H	 0.7554329396	 2.0471766153	 0.4313770898	 0.135512
H	-0.3093884347	 1.9251559744	-0.9790457642	 0.116561
H	-0.9822937117	 1.841502336	 0.6555040839	 0.13587
H	-0.8510075924	-0.4858088562	-0.3527433557	 0.109007
H	 1.2643317892	-1.5850311413	-0.8232787732	 0.097504
H	 3.3406927822	-0.4201510933	-0.447734652	 0.2432
H	 2.4781649591	 0.6916287092	-1.284750959	 0.244768
H	 1.7612534582	-0.4799127097	 2.8998497105	 0.239475
H	 2.1377964967	 0.6329840189	 1.7650581614	 0.247626
108.7816	132.5926	162.2465	189.2616	204.7735	238.748	300.1263	302.5826	433.2632	472.4766	566.186	577.2102	600.9963	691.6867	764.7596	816.4467	879.9738	964.3898	991.0424	1020.8978	1035.784	1065.568	1138.5999	1165.8606	1207.6241	1254.0135	1301.0799	1333.6863	1374.7447	1416.6671	1453.4913	1489.3859	1499.86	1647.7795	1656.8349	2345.8702	3042.748	3097.9089	3103.5286	3140.4599	3157.6413	3455.5785	3508.74	3556.4873	3585.9467
CC1C(N)C1(N)C#N	C[C@H]1[C@@H](N)[C@]1(N)C#N	
InChI=1S/C5H9N3/c1-3-4(7)5(3,8)2-6/h3-4H,7-8H2,1H3	InChI=1S/C5H9N3/c1-3-4(7)5(3,8)2-6/h3-4H,7-8H2,1H3/t3-,4+,5-/m0/s1
