18
gdb 85526	2.43678	1.67782	1.13016	4.1104	72.42	-0.2424	0.0313	0.2737	1089.9555	0.148894	-439.117915	-439.109866	-439.108922	-439.15077	30.735	
C	 0.2842190461	 1.5452553741	 0.0047951913	-0.402745
C	-0.0333278143	 0.0454095679	 0.0214202293	 0.022686
N	 0.469767133	-0.5803080081	-1.1934578405	-0.318599
C	 1.0793129105	-1.7920865037	-1.3601233192	 0.396492
O	 1.4817174817	-2.1598363825	-2.447486404	-0.376271
C	 1.1995162787	-2.6779752392	-0.125146299	-0.36219
C	 1.1411666203	-1.9476432478	 1.1900847158	 0.045088
O	 1.9571762188	-0.7719819897	 1.3051611061	-0.25565
C	 0.5386503433	-0.6156067374	 1.2582410779	 0.048468
H	 1.3664148285	 1.6990507897	 0.0196072212	 0.148151
H	-0.1273793962	 2.0207456464	-0.8915215613	 0.119156
H	-0.1550996141	 2.0401488443	 0.876066146	 0.12391
H	-1.1274808783	-0.0782053473	 0.0820318337	 0.089469
H	 0.4227279013	-0.0387854487	-2.0451526678	 0.244655
H	 0.3858353058	-3.4142618961	-0.1627043142	 0.134742
H	 2.1318685597	-3.2405336199	-0.2268311236	 0.145847
H	 1.1347681092	-2.5712588366	 2.0840748532	 0.098891
H	 0.084157756	-0.2787032056	 2.1902575352	 0.097902
76.5388	97.2941	215.5431	262.6295	314.862	345.5101	456.1641	469.1563	508.9623	513.757	634.0673	656.302	703.3807	783.3158	839.6535	896.4813	906.101	956.1176	999.5506	1015.6972	1042.8609	1083.533	1113.6032	1143.8724	1196.8532	1232.3068	1277.7186	1330.7364	1341.6625	1353.2889	1365.575	1404.5348	1415.386	1453.4822	1457.4345	1491.797	1499.1118	1514.7524	1791.5337	2960.5318	3037.3966	3039.5829	3096.8927	3104.6539	3108.8177	3116.9866	3129.6824	3601.3666
CC1NC(=O)CC2OC12	C[C@H]1NC(=O)C[C@H]2O[C@@H]12	
InChI=1S/C6H9NO2/c1-3-6-4(9-6)2-5(8)7-3/h3-4,6H,2H2,1H3,(H,7,8)	InChI=1S/C6H9NO2/c1-3-6-4(9-6)2-5(8)7-3/h3-4,6H,2H2,1H3,(H,7,8)/t3-,4-,6+/m1/s1
