20
gdb 87753	4.38952	0.86135	0.81571	4.4279	82.97	-0.2382	0.0271	0.2653	1466.8143	0.170284	-403.146208	-403.136968	-403.136024	-403.181411	33.458	
C	 0.0699149334	 1.5395138051	-0.2501410217	-0.407924
C	 0.0761239324	 0.0351504359	-0.0941312996	-0.050081
C	 1.3834020603	-0.7290459581	-0.058260446	-0.350756
C	 0.5441176596	-0.608254769	 1.1771748268	 0.322462
C	 0.9151842223	 0.0841022098	 2.5029587713	-0.253909
N	 0.2567132021	-1.034595834	 3.1876734245	-0.045811
C	-0.1333876804	-1.7428951334	 1.9660809147	-0.241648
C	-0.078336737	-1.2713603012	 4.4727421162	 0.135711
O	-0.730365191	-2.224091372	 4.8507464049	-0.334485
H	 0.9212298839	 1.9947553777	 0.2670101547	 0.116703
H	 0.1349408354	 1.8252880811	-1.3052959839	 0.12453
H	-0.8444578895	 1.982745789	 0.1597373485	 0.122154
H	-0.7486677875	-0.4740114176	-0.5884631902	 0.090877
H	 1.4370894611	-1.6964453406	-0.5476889023	 0.117781
H	 2.3048628221	-0.1550177022	-0.103614013	 0.113872
H	 1.9889045935	 0.1665317119	 2.7104835301	 0.115472
H	 0.4409963001	 1.0580052342	 2.676804816	 0.116038
H	-1.2185163903	-1.8363575638	 1.8432693439	 0.122324
H	 0.3226005134	-2.7346487547	 1.8691153218	 0.121599
H	 0.319358576	-0.490207098	 5.1541541432	 0.065093
21.994	107.0287	145.4468	177.5982	211.375	221.3924	317.1225	356.722	410.2969	437.3643	475.7309	636.0934	778.5774	808.8207	864.4534	884.4314	903.7076	952.5446	965.4763	1027.5383	1036.4903	1051.1934	1097.4376	1125.964	1129.7274	1137.7234	1172.6633	1181.5693	1185.7107	1223.0539	1276.5939	1296.9537	1353.9116	1396.5288	1414.4581	1432.4284	1455.7213	1492.1415	1494.5167	1507.1724	1513.0883	1526.0126	1790.9446	2914.389	3012.5817	3028.5073	3029.415	3054.8431	3070.9782	3092.3134	3096.3392	3117.5988	3130.7092	3202.8535
CC1CC11CN(C1)C=O	C[C@H]1CC21CN(C2)C=O	
InChI=1S/C7H11NO/c1-6-2-7(6)3-8(4-7)5-9/h5-6H,2-4H2,1H3	InChI=1S/C7H11NO/c1-6-2-7(6)3-8(4-7)5-9/h5-6H,2-4H2,1H3/t6-/m0/s1
