19
gdb 72336	2.26629	2.09424	1.56204	1.6936	78.62	-0.2367	0.0272	0.2639	947.9801	0.159847	-385.862398	-385.855007	-385.854063	-385.893732	30.217	
C	-0.0310718692	 1.5123154338	 0.0163342133	-0.482273
C	-0.014834204	-0.0083385985	 0.0017442823	 0.310365
C	-1.3309161523	-0.6720154738	-0.476233422	-0.326899
C	-1.6789699976	-1.6374221792	 0.6355975208	-0.050264
C	-0.7956819255	-1.6458852646	 1.6355029665	-0.072882
C	 0.3381865891	-0.703200228	 1.3773344363	-0.142165
C	 1.6303803591	-1.2549504621	 0.7101122402	 0.016328
O	 1.2458068215	-2.0244501675	-0.4319268467	-0.237908
C	 1.2982519395	-0.6029863225	-0.5657302486	-0.027455
H	 0.9118697976	 1.9195099364	 0.3988702488	 0.113557
H	-0.1823369365	 1.9149749701	-0.992291051	 0.116892
H	-0.8408567156	 1.8877404403	 0.6509762946	 0.122409
H	-2.1274271358	 0.0673434933	-0.6351470738	 0.096265
H	-1.1983346397	-1.1979255175	-1.4300005317	 0.11463
H	-2.5698991696	-2.2563074545	 0.594579942	 0.090656
H	-0.8620200975	-2.272520905	 2.5181711465	 0.092022
H	 0.5680313633	-0.0098340838	 2.1930279652	 0.072296
H	 2.5878169301	-1.4878350313	 1.1628134755	 0.100178
H	 1.9350918831	-0.1996037355	-1.3470878081	 0.094247
147.5609	210.0338	249.6469	271.2304	310.1696	378.1742	474.9309	542.2008	619.6966	667.4336	734.0237	775.6301	805.185	848.3183	859.1373	906.7628	921.4671	928.2016	951.6169	975.3814	976.9167	1008.7465	1032.741	1054.0112	1105.6401	1134.3259	1161.0315	1176.0083	1210.5212	1225.9098	1244.6203	1276.7396	1298.7547	1338.9233	1368.9581	1388.0026	1410.6087	1475.2555	1494.8052	1495.7015	1677.8186	3012.7996	3020.8671	3046.9529	3056.4168	3084.351	3095.1889	3159.9014	3173.8297	3181.4208	3200.2725
CC12CC=CC1C1OC21	C[C@]12CC=C[C@H]1[C@H]1O[C@@H]21	
InChI=1S/C8H10O/c1-8-4-2-3-5(8)6-7(8)9-6/h2-3,5-7H,4H2,1H3	InChI=1S/C8H10O/c1-8-4-2-3-5(8)6-7(8)9-6/h2-3,5-7H,4H2,1H3/t5-,6+,7+,8-/m0/s1
