21
gdb 104334	2.14256	1.58572	1.23886	0.8042	80.96	-0.2397	0.0221	0.2618	1154.4395	0.18002	-424.238749	-424.228821	-424.227877	-424.273251	36.476	
C	 0.2314906281	 1.3374250804	 0.0999851138	-0.25009
O	 0.2106870188	-0.0724224577	-0.0342582574	-0.273542
C	 0.5881103161	-0.5854349108	-1.3042724311	 0.378594
C	-0.3277474124	-0.0836447753	-2.4224070713	-0.443024
O	 1.9213135192	-0.2185763456	-1.6347723022	-0.294716
C	 2.8031612758	-1.3186411655	-1.4224731281	-0.13682
C	 1.8997428345	-2.4913387549	-1.1821450461	-0.216013
C	 0.6322599995	-2.0959525851	-1.1284004206	 0.302195
C	-0.6018312006	-2.8904149472	-0.8564405281	-0.500909
H	 1.1816589275	 1.7573759582	-0.2494569348	 0.12524
H	-0.594179504	 1.8219744168	-0.4395589451	 0.103981
H	 0.1179117791	 1.5495293849	 1.1660007101	 0.121805
H	-0.1547843068	 0.9783514008	-2.6112473083	 0.128538
H	-0.1143406863	-0.6272636203	-3.3459930608	 0.122645
H	-1.3782290642	-0.2285865598	-2.1557858945	 0.120959
H	 3.4378125478	-1.4335318487	-2.3121538856	 0.108003
H	 3.4698082616	-1.1266910145	-0.5669376934	 0.108044
H	 2.2648164429	-3.5023021024	-1.0466173503	 0.099471
H	-0.3685414824	-3.9425287714	-0.6746101304	 0.122325
H	-1.1218430356	-2.4905006006	 0.0210110699	 0.146144
H	-1.3066215687	-2.8392714713	-1.6953565758	 0.12717
85.2557	106.1795	168.6382	174.4938	175.4666	235.0613	254.9282	256.9497	320.3705	370.3998	420.9928	536.6035	576.9292	603.7014	696.2458	780.2306	818.2952	886.1288	894.279	947.7636	1016.2592	1039.7995	1061.0637	1069.9524	1092.7462	1124.7678	1151.6785	1170.3851	1177.2849	1201.4091	1213.2115	1256.3308	1351.7399	1375.1374	1397.5361	1410.3839	1466.0255	1475.3721	1482.055	1486.6709	1492.915	1502.6973	1512.688	1514.9551	1739.9585	2980.7429	3000.8903	3018.279	3027.7817	3050.4997	3069.0365	3081.7298	3114.6259	3117.7645	3127.7239	3131.3526	3207.2343
COC1(C)OCC=C1C	CO[C@@]1(C)OCC=C1C	
InChI=1S/C7H12O2/c1-6-4-5-9-7(6,2)8-3/h4H,5H2,1-3H3	InChI=1S/C7H12O2/c1-6-4-5-9-7(6,2)8-3/h4H,5H2,1-3H3/t7-/m0/s1
