15
gdb 39741	4.0892	1.59045	1.37213	2.8983	70.91	-0.2523	-0.0593	0.193	921.1265	0.113064	-416.669245	-416.662873	-416.661929	-416.6998	25.714	
C	-0.1884596946	 1.4426173942	-0.190255473	-0.268491
O	 1.0858082962	 0.8259252042	 0.1482912896	-0.254639
C	-0.0216629561	 0.0098547321	-0.0411145571	 0.45307
C	-0.3869909307	-1.052977106	 1.0354920305	-0.148169
C	-1.2809498155	-2.2443577518	 0.6411779797	-0.061882
C	-2.147469316	-2.2570698007	-0.6231952307	-0.189629
N	-1.4085107459	-1.2896794956	-1.4748604142	-0.168438
C	-0.2536195062	-1.1964703776	-0.9392359722	 0.002258
N	 0.093864346	-2.1641589616	 0.1539998892	-0.125119
H	-0.6436407611	 2.024720631	 0.6080278474	 0.129807
H	-0.2396222553	 1.8734235891	-1.1872741399	 0.142206
H	-0.0034060419	-0.9621744378	 2.0500274793	 0.123738
H	-1.4787348358	-2.9590255738	 1.4377964308	 0.108175
H	-2.199668015	-3.277293786	-1.0280859668	 0.129192
H	-3.1691396381	-1.8843059797	-0.5043166126	 0.127921
150.2527	256.4493	292.4202	374.1746	446.6401	480.4413	573.4304	704.9436	729.7676	747.0454	812.4824	860.1282	866.8874	889.3737	942.3707	952.5143	986.385	998.8625	1027.6674	1061.0034	1081.6432	1110.586	1123.8838	1150.069	1161.8021	1198.2404	1255.2009	1304.7738	1335.3551	1442.4973	1484.5455	1541.6842	1605.8946	3016.7656	3084.6554	3101.7872	3134.0516	3146.1899	3196.3602
C1OC11C2C3CN=C1N23	C1O[C@]21[C@H]1[C@H]3C[N][C]2N13	
InChI=1S/C6H6N2O/c1-3-4-6(2-9-6)5(7-1)8(3)4/h3-4H,1-2H2	InChI=1S/C6H6N2O/c1-3-4-6(2-9-6)5(7-1)8(3)4/h3-4H,1-2H2/t3-,4-,6-,8?/m1/s1
