16
gdb 42759	2.6813	1.56455	1.27961	5.4503	73.85	-0.2584	-0.0299	0.2285	1011.8646	0.126182	-400.7703	-400.762958	-400.762014	-400.802116	28.278	
O	-0.0082686908	-0.006274553	 0.0262513294	-0.294244
C	-0.0365568476	 1.1804155826	-0.0202546637	 0.41912
C	-1.0830235541	 2.3020078982	 0.0519763772	-0.15185
C	-0.0293572252	 3.0119411592	 0.9640940971	-0.274284
C	 1.0272190449	 2.3334232009	 0.0212341176	 0.081598
C	 0.7263400084	 3.0219975616	-1.3379175724	-0.264744
C	-0.8428348671	 2.9989406937	-1.3071136372	-0.232429
C	 2.3967671791	 2.1262968629	 0.4061875015	 0.176674
N	 3.4966654731	 1.9501807327	 0.7170944667	-0.336055
H	-2.1052482856	 2.1156312413	 0.370785228	 0.101998
H	-0.0345080283	 4.1036302732	 0.9559418649	 0.124035
H	 0.0034001455	 2.6256775002	 1.9831882473	 0.140248
H	 1.1344274737	 4.0345903375	-1.3617458141	 0.128623
H	 1.1477549246	 2.4635959478	-2.1760094534	 0.135257
H	-1.2696659626	 2.4378466565	-2.1412289299	 0.126359
H	-1.2689304981	 4.0047952445	-1.3187403989	 0.119694
130.1425	147.4604	180.9149	257.6443	393.0742	422.1146	493.4622	540.8656	571.4267	671.3677	707.698	774.124	793.5172	857.5319	878.9871	905.0777	959.8533	974.1825	1019.3754	1024.0272	1075.4201	1109.8591	1143.7764	1185.7757	1213.6389	1232.8798	1250.5691	1258.9322	1317.4473	1332.39	1492.4965	1496.3226	1518.2559	1920.7363	2353.7045	3068.0356	3077.6397	3080.4792	3111.9542	3130.6173	3152.1217	3161.4177
O=C1C2CC1(CC2)C#N	O=C1[C@H]2C[C@@]1(CC2)C#N	
InChI=1S/C7H7NO/c8-4-7-2-1-5(3-7)6(7)9/h5H,1-3H2	InChI=1S/C7H7NO/c8-4-7-2-1-5(3-7)6(7)9/h5H,1-3H2/t5-,7+/m1/s1
