16
gdb 48437	2.86432	0.96396	0.78956	4.9132	70.35	-0.2769	-0.0567	0.2202	1397.3808	0.122105	-437.887795	-437.878717	-437.877772	-437.922703	31.589	
O	-0.8635673208	 0.8475949701	-0.3815788303	-0.251094
C	 0.1743939695	 0.8916448675	 0.2279245686	 0.125027
C	 1.2046061283	 1.9680466067	 0.0515811089	 0.295874
C	 1.0285998019	 2.9342712705	-1.0960729543	-0.284798
C	 1.2294696426	 2.2376224639	-2.4602022927	-0.34401
C	 1.1474051367	 3.1800148774	-3.5723567093	 0.257472
N	 1.0826904338	 3.9411931634	-4.4392429108	-0.302492
C	 1.9634972867	 2.3429942361	 1.2666211895	-0.221747
O	 2.5400155882	 1.4839754895	 0.2983915574	-0.260755
H	 0.4637650467	 0.1200618969	 0.9741217836	 0.098192
H	 0.0222361261	 3.3600160838	-1.0489465914	 0.146557
H	 1.745141957	 3.7532547325	-0.9947844003	 0.130758
H	 2.2099125141	 1.7495497779	-2.4839350468	 0.166485
H	 0.4699101462	 1.4621172837	-2.5979460484	 0.175374
H	 2.3732847067	 3.3502739834	 1.317265741	 0.137721
H	 1.7275361364	 1.8819639966	 2.2250035753	 0.131436
60.9646	75.9835	122.2171	135.6829	191.1572	268.2586	344.5037	371.4675	403.8044	474.894	521.6661	554.4987	751.5272	811.9873	853.0761	883.9116	943.7748	968.9265	1026.741	1037.5729	1055.6765	1134.1389	1164.8653	1193.678	1282.9724	1291.7796	1333.6933	1349.7163	1385.0008	1432.3375	1467.9	1479.2852	1521.0583	1823.2634	2364.7858	2906.2818	3054.2344	3069.6631	3086.3204	3098.5126	3122.0793	3178.1541
O=CC1(CCC#N)CO1	O=C[C@@]1(CCC#N)CO1	
InChI=1S/C6H7NO2/c7-3-1-2-6(4-8)5-9-6/h4H,1-2,5H2	InChI=1S/C6H7NO2/c7-3-1-2-6(4-8)5-9-6/h4H,1-2,5H2/t6-/m0/s1
