20
gdb 113110	4.00054	0.72277	0.69737	2.8844	77.99	-0.2482	0.0313	0.2795	1652.6028	0.170641	-440.294275	-440.284628	-440.283683	-440.330017	34.623	
O	 0.3456575288	 0.9036154883	-0.9911144086	-0.421713
C	 0.0759209108	-0.3286601129	-0.3401303914	-0.080107
C	-1.282062088	-0.2114291829	 0.3315080846	 0.017494
C	-2.4748791616	-0.1644374611	-0.6659036074	-0.250781
C	-2.7042435438	-1.67924795	-0.4105081402	 0.078863
C	-1.8293040279	-1.5646952486	 0.8705525472	-0.273384
N	-4.056939774	-2.1650690685	-0.2915771963	-0.289859
C	-4.5382414967	-3.2422233667	-0.9713806582	 0.15079
O	-3.9047151364	-3.9243813579	-1.748424398	-0.322556
H	 1.1807962311	 0.8219754808	-1.4606787169	 0.28802
H	 0.0715580966	-1.1650171987	-1.058799596	 0.089915
H	 0.8410016638	-0.5576021515	 0.4198256058	 0.086493
H	-1.2440215374	 0.6085189349	 1.052606777	 0.078842
H	-3.304056411	 0.4371498395	-0.2799569111	 0.090959
H	-2.2590656531	 0.1528204913	-1.6880692734	 0.118112
H	-2.2301312101	-2.301585933	-1.1697458857	 0.124704
H	-1.1129153833	-2.3690889819	 1.0611336781	 0.105845
H	-2.4425341865	-1.4270718394	 1.7663438266	 0.095338
H	-4.6880997562	-1.6809255522	 0.3285820937	 0.241714
H	-5.6035442051	-3.4331290895	-0.73121841	 0.071309
39.7225	59.6322	115.3544	172.4976	213.3647	236.5998	258.4977	304.5064	408.2691	426.4579	472.8599	539.7637	639.7279	796.2535	812.1068	832.4979	901.4427	935.2532	955.8876	985.1705	1026.7145	1040.3766	1071.5378	1097.5748	1104.5813	1146.6899	1185.1505	1206.2356	1239.0225	1245.3018	1271.5945	1276.3848	1288.6084	1291.9434	1363.8515	1374.4338	1432.9533	1461.0365	1471.5875	1495.5123	1519.1012	1534.0111	1805.9024	2930.2546	2958.6676	2985.5198	3048.0392	3052.8404	3079.3184	3099.2783	3114.134	3128.8223	3619.144	3830.6692
OCC1CC(C1)NC=O	OC[C@H]1C[C@@H](C1)NC=O	
InChI=1S/C6H11NO2/c8-3-5-1-6(2-5)7-4-9/h4-6,8H,1-3H2,(H,7,9)	InChI=1S/C6H11NO2/c8-3-5-1-6(2-5)7-4-9/h4-6,8H,1-3H2,(H,7,9)/t5-,6-
