21
gdb 118210	4.33171	0.67894	0.64507	3.7846	77.22	-0.2371	-0.0055	0.2315	1801.7984	0.178799	-461.372549	-461.361484	-461.36054	-461.410004	38.248	
C	 0.3180964637	 1.2250525334	-0.3413504079	-0.230308
O	 0.2738901672	-0.1726206919	-0.1631771052	-0.250432
C	 0.5093837971	-0.5813462959	 1.170604226	-0.0853
C	 0.5600853414	-2.1059160377	 1.1525145694	 0.126897
O	 1.5443780829	-2.5424502525	 0.2266979193	-0.447235
C	 0.9119801321	-2.693678885	 2.5219058566	-0.297374
C	 0.8382218087	-4.2226168262	 2.4686407295	 0.392631
C	 2.1491863517	-4.9582645095	 2.3011923508	-0.480425
O	-0.2297392855	-4.786495887	 2.5282114309	-0.310947
H	 1.2988841454	 1.6393245479	-0.0617907131	 0.110324
H	 0.135527871	 1.425531885	-1.3996318315	 0.132362
H	-0.4542768097	 1.7330502469	 0.2555587816	 0.111747
H	 1.4694928567	-0.1765231771	 1.5316013158	 0.091387
H	-0.2899021486	-0.2225901713	 1.8387480439	 0.093669
H	-0.4332895696	-2.4800636628	 0.8593010065	 0.095634
H	 1.4042176256	-2.0190452345	-0.572106736	 0.292552
H	 1.9102992421	-2.3517377266	 2.8133995032	 0.103686
H	 0.1801143936	-2.3480264617	 3.2580395096	 0.120852
H	 1.9742946872	-6.0315774023	 2.2184205625	 0.134598
H	 2.65319166	-4.5788413349	 1.4060015715	 0.164221
H	 2.808618407	-4.7540533362	 3.1531503964	 0.131463
45.0808	53.3883	96.8753	107.5157	129.8158	170.9247	206.2362	231.8578	291.1123	375.1814	394.3508	436.9325	450.9288	512.6451	535.2267	630.3873	803.5626	874.5347	899.7586	965.7627	982.7376	1019.2363	1057.5799	1106.9169	1121.1058	1162.7278	1175.5011	1192.7846	1222.0773	1236.5787	1264.4688	1286.2036	1321.0147	1374.5284	1376.7368	1407.8341	1440.5317	1460.6067	1471.1648	1475.7418	1478.2485	1485.7646	1498.5083	1520.2398	1815.5622	2961.0446	2980.7409	2985.0512	3008.7752	3028.0896	3034.495	3050.0578	3101.4836	3108.7961	3118.7049	3154.1034	3785.7288
COCC(O)CC(C)=O	COC[C@@H](O)CC(=O)C	
InChI=1S/C6H12O3/c1-5(7)3-6(8)4-9-2/h6,8H,3-4H2,1-2H3	InChI=1S/C6H12O3/c1-5(7)3-6(8)4-9-2/h6,8H,3-4H2,1-2H3/t6-/m0/s1
