25
gdb 100697	2.94134	0.75437	0.63716	0.1821	98.79	-0.2399	0.063	0.3029	1889.355	0.225753	-352.348439	-352.336273	-352.335328	-352.387542	42.84	
C	-0.0662954669	 1.5953165503	 0.0926772877	-0.394849
C	-0.0382573363	 0.0673029223	-0.0320161686	-0.178102
C	 0.7283939387	-0.4615208229	-1.259855966	 0.055807
C	 2.1862991304	 0.020147763	-1.2677442213	-0.402137
C	 0.669002747	-2.0183328396	-1.35007622	-0.147388
C	-0.7657228945	-2.5897100791	-1.3178144555	-0.399706
C	 1.3545374129	-2.5061893311	-2.5501528777	 0.056138
C	 1.8807410135	-2.9150028492	-3.5542158616	 0.076217
C	 2.5272809946	-3.4144412789	-4.760391402	-0.499272
H	 0.9272614188	 2.0145706913	 0.2741560544	 0.119484
H	-0.4615454085	 2.0585727261	-0.818740593	 0.11318
H	-0.7083755385	 1.9026323596	 0.9242392968	 0.11035
H	 0.4027059108	-0.3649515888	 0.8778454988	 0.089587
H	-1.0726429694	-0.2886251684	-0.0684631144	 0.097715
H	 0.2337470882	-0.0726359341	-2.161892169	 0.073663
H	 2.7306713829	-0.4003270848	-2.1163404635	 0.127127
H	 2.2498028716	 1.1092970559	-1.3340161048	 0.111189
H	 2.7029123209	-0.2885665194	-0.350052163	 0.105895
H	 1.2040295505	-2.4111228439	-0.4715033389	 0.093789
H	-1.3775361481	-2.1433748436	-2.1086442718	 0.119586
H	-0.7432726455	-3.669947643	-1.4825244307	 0.121189
H	-1.2519942376	-2.4053608293	-0.3570970285	 0.115623
H	 1.9660551958	-4.2473499359	-5.1987606331	 0.144914
H	 2.6063388304	-2.6329647997	-5.5244814659	 0.144924
H	 3.5410412586	-3.7741376969	-4.5510930486	 0.145076
18.5284	48.251	82.6035	87.4035	145.3416	207.1161	211.134	225.551	260.7693	295.7612	314.6732	325.4114	376.6448	397.162	431.0905	525.5959	559.8545	735.9971	775.2265	818.0097	885.6861	962.9365	977.7074	994.1531	1021.628	1047.7584	1053.2559	1053.7066	1086.3894	1144.7444	1154.9588	1178.5438	1200.2223	1266.4611	1307.9937	1326.2325	1349.2958	1365.9364	1379.9404	1405.1171	1409.5559	1413.876	1415.4731	1479.7406	1479.8601	1483.3437	1494.4317	1495.5679	1500.184	1504.0721	1507.3479	1515.677	2364.2789	2979.9405	2998.6364	3011.9735	3023.7607	3029.7994	3032.7801	3041.777	3068.9163	3083.0152	3083.2871	3095.6179	3100.4833	3111.9942	3113.632	3124.5308	3125.8706
CCC(C)C(C)C#CC	CC[C@@H](C)[C@@H](C)C#CC	
InChI=1S/C9H16/c1-5-7-9(4)8(3)6-2/h8-9H,6H2,1-4H3	InChI=1S/C9H16/c1-5-7-9(4)8(3)6-2/h8-9H,6H2,1-4H3/t8-,9+/m1/s1
