15
gdb 27239	2.23051	2.00995	1.09132	2.866	70.24	-0.1837	0.0358	0.2195	1044.9765	0.113484	-453.92213	-453.914508	-453.913564	-453.954266	28.75	
O	 0.0981040762	 1.3242299841	 0.2360604031	-0.417616
C	-0.0404329125	-0.0048923926	 0.1464739849	 0.266785
C	-1.0820659238	-0.8334681559	 0.133664511	 0.114076
C	-2.4530473584	-1.2656470447	-0.3410362991	-0.353942
C	-1.755368999	-2.6384946731	-0.6756444422	-0.162669
N	-0.5655820827	-2.1543081544	 0.0702295868	-0.101798
C	 0.793200426	-2.1009245406	-0.1482530265	 0.437559
N	 1.5879616899	-3.0304048777	-0.4656857829	-0.583164
O	 1.1359295499	-0.7574011464	 0.1069955771	-0.266572
H	 0.9332724592	 1.5706013357	-0.1811620044	 0.311702
H	-3.2121206615	-1.3436612088	 0.4409935167	 0.132825
H	-2.8625929129	-0.7168323908	-1.1897990763	 0.132942
H	-2.2032249015	-3.5396126983	-0.2541358503	 0.131286
H	-1.5545435309	-2.7810100896	-1.7415814901	 0.132517
H	 2.5414933121	-2.686222437	-0.5427958678	 0.226068
124.2289	159.2312	198.3072	243.304	274.7419	336.4976	408.4576	598.3695	640.6581	651.1264	683.477	712.501	723.2246	753.4528	791.1821	902.942	916.7055	983.9405	1037.1996	1063.644	1138.2227	1162.0819	1191.3273	1222.0687	1246.762	1294.7405	1318.4921	1331.9845	1362.2077	1484.4265	1512.9226	1774.2874	1850.2635	3060.4238	3073.8776	3121.8681	3135.776	3538.0213	3790.6726
OC1=C2CCN2C(=N)O1	O[C]1[C]2CCN2[C]([NH])O1	
InChI=1S/C5H6N2O2/c6-5-7-2-1-3(7)4(8)9-5/h6,8H,1-2H2	InChI=1S/C5H6N2O2/c6-5-7-2-1-3(7)4(8)9-5/h6,8H,1-2H2
