16
gdb 13693	6.50532	0.88585	0.83704	4.5635	63.2	-0.272	0.0131	0.2851	1318.6085	0.12895	-420.872854	-420.864397	-420.863453	-420.90718	29.398	
O	 0.1415614585	 1.3730434786	 0.1964434607	-0.417211
C	-0.0548579372	-0.001436954	 0.0248522331	 0.095887
C	-0.6522552673	-0.8152368927	 1.1404184031	-0.315509
C	-1.4801974077	-0.4733472868	-0.0841776838	-0.029132
C	-2.6037172574	 0.5199399311	 0.0399590559	-0.109761
O	-3.730955469	-0.0638359363	 0.7195726971	-0.171759
C	-4.8123449221	-0.3831344897	-0.0098491712	 0.171082
O	-5.7821680211	-0.9017599369	 0.4568967965	-0.278395
H	 0.8637372233	 1.4946763284	 0.8213816022	 0.29361
H	 0.673637152	-0.4857528394	-0.6247564357	 0.095272
H	-0.3273494824	-1.8397952387	 1.2809244219	 0.120902
H	-0.9009306704	-0.2856265552	 2.0541737719	 0.126925
H	-1.6641614604	-1.280248256	-0.7877809631	 0.096246
H	-2.2918711512	 1.3814233187	 0.6315141125	 0.136492
H	-2.9191125324	 0.8821058155	-0.9467965857	 0.113716
H	-4.706448465	-0.1069562367	-1.0785409854	 0.071636
38.9982	56.4066	140.215	185.7796	249.2393	298.9208	368.4494	387.7376	478.8658	531.6531	694.8988	775.7042	834.9562	903.9684	914.9831	985.3422	1029.6488	1047.8968	1051.6647	1069.3975	1134.1966	1154.0894	1176.4451	1205.5604	1239.2627	1298.5711	1320.0624	1365.6859	1413.801	1427.0053	1440.2419	1488.0741	1508.2122	1864.4968	2932.4525	3031.9261	3103.58	3127.3881	3136.9396	3152.6903	3226.4808	3810.7514
OC1CC1COC=O	O[C@H]1C[C@H]1COC=O	
InChI=1S/C5H8O3/c6-3-8-2-4-1-5(4)7/h3-5,7H,1-2H2	InChI=1S/C5H8O3/c6-3-8-2-4-1-5(4)7/h3-5,7H,1-2H2/t4-,5-/m0/s1
