15
gdb 131524	3.13263	1.59209	1.18328	3.3185	66.21	-0.2909	-0.0491	0.2418	999.4255	0.114263	-453.90523	-453.898212	-453.897268	-453.936803	26.969	
O	-0.4659229904	 1.387788946	-0.4302211339	-0.42362
C	 0.0520927617	 0.1293590704	-0.0140045615	-0.020073
C	-1.155560222	-0.8239117001	 0.2174016221	-0.224715
C	-1.4484011994	-1.5585901575	-1.13361664	-0.344488
C	-0.1041486039	-1.5007569715	-1.7921526275	 0.339456
N	 0.5237612838	-2.0544319134	-2.7837926237	-0.204859
O	 1.7814732724	-1.468157363	-2.7638155451	-0.158205
N	 1.9065794446	-0.5518114834	-1.7371286255	-0.213325
C	 0.7516251231	-0.5742738545	-1.1469329408	 0.320439
H	 0.2718008047	 1.9355177339	-0.7202408555	 0.295868
H	 0.6700245415	 0.2351358628	 0.8856422025	 0.096018
H	-0.8790535256	-1.5613984052	 0.9765859342	 0.121715
H	-2.0119686371	-0.2584592839	 0.5888081365	 0.129578
H	-1.8233708782	-2.5735957756	-0.9878951345	 0.137708
H	-2.1876907952	-1.0142028751	-1.7299311073	 0.148502
112.8123	154.5613	260.8994	320.1235	355.4967	448.4829	466.2776	615.4232	630.5721	701.653	716.0982	804.3657	820.9401	843.6048	885.3173	915.1555	969.5132	995.9504	1055.3049	1085.3578	1155.5363	1180.1664	1225.9828	1244.9309	1302.6154	1333.9699	1344.6477	1392.1902	1427.859	1471.674	1483.298	1556.735	1656.2772	3033.9914	3062.4949	3069.5062	3114.0133	3131.23	3810.6201
OC1CCC2=NON=C12	O[C@H]1CCc2nonc12	
InChI=1S/C5H6N2O2/c8-4-2-1-3-5(4)7-9-6-3/h4,8H,1-2H2	InChI=1S/C5H6N2O2/c8-4-2-1-3-5(4)7-9-6-3/h4,8H,1-2H2/t4-/m0/s1
