16
gdb 25087	3.22369	1.62847	1.1135	5.5635	70.28	-0.2064	0.0249	0.2313	1037.9908	0.127492	-437.950977	-437.94397	-437.943026	-437.982618	26.88	
O	 0.0512586979	-0.0202368702	 0.0794952773	-0.416013
C	 0.0469612786	 1.181855495	 0.0737776563	 0.477583
O	-1.094514825	 1.9727075625	 0.1262528007	-0.229228
C	-0.7207167104	 3.309894082	 0.1084270202	-0.196691
C	 0.6131423093	 3.3891667035	 0.0440570379	 0.321861
C	 1.7787897107	 4.3265795991	-0.0164433194	-0.351515
C	 2.9606044758	 3.3981726731	 0.3984055172	-0.2191
C	 2.5302676623	 1.9671452228	-0.0177230126	-0.173462
N	 1.0834146706	 2.0772317245	 0.0239941338	-0.139588
H	-1.5133139106	 4.0349715717	 0.1510411205	 0.150319
H	 1.9201321291	 4.7043223584	-1.0362276348	 0.130968
H	 1.6770089286	 5.1925659139	 0.6409148401	 0.131636
H	 3.9072536171	 3.6939258817	-0.0572483958	 0.117955
H	 3.0860674723	 3.4347081298	 1.4843651089	 0.126782
H	 2.8723911416	 1.7113305216	-1.0279088391	 0.126605
H	 2.8858449221	 1.1938756607	 0.666876459	 0.141885
112.5629	157.3674	204.05	300.7183	334.3964	551.0125	590.9339	606.3799	661.2729	683.5408	713.9027	755.7476	807.6049	863.0044	888.8574	914.8841	992.7363	1013.4977	1061.1517	1093.7439	1108.92	1184.725	1215.0634	1232.8899	1274.4001	1302.4494	1315.8749	1340.7783	1367.3155	1430.7143	1485.0686	1497.4324	1528.5218	1714.3302	1882.5059	3032.6154	3037.143	3066.7259	3104.7349	3106.3821	3126.0405	3300.5668
O=C1OC=C2CCCN12	O=c1occ2CCCn12	
InChI=1S/C6H7NO2/c8-6-7-3-1-2-5(7)4-9-6/h4H,1-3H2	InChI=1S/C6H7NO2/c8-6-7-3-1-2-5(7)4-9-6/h4H,1-3H2
