16
gdb 50547	2.75541	1.15133	0.8649	5.7994	69.86	-0.2717	-0.0505	0.2212	1277.6485	0.122757	-437.881382	-437.872481	-437.871537	-437.91675	30.302	
O	-0.3799124588	 0.3803906899	 0.5974785759	-0.23523
C	 0.1491111542	 0.9919091306	-0.2954135594	 0.138552
C	 1.2550865251	 2.0023046344	-0.1372575466	-0.181373
C	 0.9867048037	 3.4155094246	-0.7187829054	-0.084294
O	 1.1930467826	 4.0189620588	 0.5704132724	-0.272914
C	 1.4893140264	 2.7551567531	 1.1986898145	 0.131709
C	 0.5750964477	 2.4820519324	 2.3990952126	-0.358733
C	 0.8630949822	 3.4039635908	 3.4965025439	 0.270156
N	 1.1033832128	 4.1253409266	 4.36624576	-0.300834
H	-0.1549975392	 0.8326696117	-1.355962925	 0.096088
H	 2.1638867783	 1.5434914423	-0.5422095052	 0.124564
H	 1.7113428217	 3.7645569534	-1.4622628621	 0.120746
H	-0.0282042603	 3.589514907	-1.0982681287	 0.116886
H	 2.534328826	 2.7208399698	 1.5296610521	 0.105489
H	-0.4737310415	 2.5824371625	 2.1087661376	 0.159924
H	 0.7125145791	 1.452668702	 2.7425895336	 0.169263
41.0044	69.1588	87.4073	118.1697	187.434	306.7273	335.1751	385.8172	396.2818	534.2695	679.9863	713.2582	837.5354	889.939	905.1623	932.8324	971.3119	1006.074	1046.1906	1055.2054	1117.8984	1142.8762	1162.3109	1212.5649	1228.5771	1271.0663	1313.1206	1343.8086	1366.2498	1400.5328	1427.1517	1437.9205	1531.1853	1825.3097	2365.4366	2868.5925	3018.6614	3030.939	3054.6118	3072.1552	3074.947	3119.3458
O=CC1COC1CC#N	O=C[C@H]1CO[C@H]1CC#N	
InChI=1S/C6H7NO2/c7-2-1-6-5(3-8)4-9-6/h3,5-6H,1,4H2	InChI=1S/C6H7NO2/c7-2-1-6-5(3-8)4-9-6/h3,5-6H,1,4H2/t5-,6-/m0/s1
