19
gdb 108981	3.90664	1.28334	1.14325	1.6306	76.35	-0.2132	0.0491	0.2623	1127.7749	0.162003	-419.205084	-419.197338	-419.196394	-419.237191	30.508	
C	 0.0021916427	 1.3483744118	-0.0440557818	-0.228114
O	-0.0563129771	-0.0749660046	 0.0433941465	-0.272285
C	-1.2934772358	-0.6008025404	 0.094750868	 0.467993
N	-2.3623421516	 0.0992714365	 0.101393098	-0.360007
C	-3.5801044674	-0.7180003812	 0.0644112628	 0.012066
C	-3.4975765228	-1.859769684	 1.1236685831	-0.216184
C	-2.6032129012	-2.5803934582	 0.0764407036	 0.003668
C	-3.4411584306	-1.8426844613	-1.0104567163	-0.231928
N	-1.2690218403	-1.981105499	 0.1727161108	-0.347367
H	 1.0626521293	 1.595952347	-0.109022317	 0.123165
H	-0.5324476875	 1.7062734395	-0.9282450727	 0.134122
H	-0.445794257	 1.8100031024	 0.8399976096	 0.137319
H	-4.4582372632	-0.0723735797	 0.0450546544	 0.066675
H	-3.0521092696	-1.6222517939	 2.0916195627	 0.104525
H	-4.4514335735	-2.3754127251	 1.2534295797	 0.09935
H	-2.519201308	-3.667507125	 0.0768581675	 0.071733
H	-4.3906656906	-2.3497032853	-1.1946888315	 0.099816
H	-2.9526078215	-1.586619665	-1.9538159334	 0.092766
H	-0.5050851542	-2.4356909044	-0.3060238438	 0.242688
106.1196	145.1067	224.7512	235.7907	347.377	403.8894	445.1744	501.3672	523.0512	527.0003	658.0613	744.8945	805.9199	853.53	865.0276	871.8578	912.3341	969.7943	1003.3356	1011.9137	1042.7102	1069.2985	1107.6989	1118.5915	1160.0789	1181.6659	1183.1731	1228.5115	1233.6125	1253.6086	1264.516	1309.9903	1324.251	1363.9306	1454.8334	1465.9754	1474.7872	1495.0705	1499.1509	1512.4917	1700.057	3045.5407	3060.1351	3068.8331	3102.7227	3106.8045	3117.6491	3125.53	3133.3508	3147.7518	3602.6021
COC1=NC2CC(C2)N1	CO[C]1[N][C@@H]2C[C@@H](C2)N1	
InChI=1S/C6H10N2O/c1-9-6-7-4-2-5(3-4)8-6/h4-5H,2-3H2,1H3,(H,7,8)	InChI=1S/C6H10N2O/c1-9-6-7-4-2-5(3-4)8-6/h4-5H,2-3H2,1H3,(H,7,8)/t4-,5+
