21
gdb 85926	2.59825	1.30034	1.10129	4.2621	78.49	-0.2585	0.018	0.2766	1227.5607	0.181382	-424.299024	-424.289609	-424.288664	-424.332785	35.861	
C	-0.289610346	 1.5081888126	 0.0517633148	-0.405196
C	 0.1180765369	 0.0411490278	-0.0624006372	-0.134134
C	 1.0876708164	-0.3249687208	-1.1912302829	-0.269759
C	 1.8724269756	-1.5314237994	-0.6254359877	 0.365885
C	 1.1995439008	-2.8703388111	-0.9379302302	-0.417826
C	 3.3431406866	-1.5372934512	-1.0258409772	-0.424546
O	 1.8240566303	-1.33554439	 0.8194824367	-0.251857
C	 0.8544576344	-0.4593659708	 1.1818741135	 0.429509
O	 0.6490397998	-0.1613695249	 2.3242025712	-0.348931
H	 0.5913934984	 2.1574215247	 0.0861391367	 0.122225
H	-0.9041795037	 1.8131396779	-0.8001434802	 0.115284
H	-0.8588732151	 1.6672803432	 0.9708388748	 0.144329
H	-0.7899354539	-0.5728753124	-0.1369032725	 0.110097
H	 0.593598151	-0.5667123326	-2.1351827462	 0.109369
H	 1.7729512448	 0.5096060811	-1.3767125138	 0.106539
H	 1.2748674742	-3.0956712634	-2.0062982309	 0.11985
H	 1.6828650036	-3.6759490922	-0.3787712745	 0.133252
H	 0.1398192749	-2.8566502807	-0.6660064551	 0.120785
H	 3.8305452217	-0.6116878133	-0.7078675399	 0.125813
H	 3.8690568334	-2.3791550194	-0.5666728953	 0.129617
H	 3.437738506	-1.6237094151	-2.1130065941	 0.119696
94.0437	106.3063	211.828	219.0771	241.4671	255.6736	307.9332	323.5549	338.0006	393.6558	463.8259	534.1135	561.5485	611.3005	704.627	773.036	818.0188	905.1978	920.54	939.9002	961.5571	979.665	1011.577	1047.4069	1085.8446	1135.3836	1147.7766	1183.511	1217.6012	1274.3933	1278.8625	1315.5642	1322.7283	1364.5995	1403.8922	1411.4774	1420.7925	1475.983	1484.8404	1493.1514	1496.0611	1498.7871	1500.4399	1507.5472	1870.9363	3018.0241	3039.0239	3040.7709	3042.9458	3047.6101	3103.8143	3110.4248	3111.722	3115.1835	3121.7769	3123.786	3128.2385
CC1CC(C)(C)OC1=O	C[C@H]1CC(C)(C)OC1=O	
InChI=1S/C7H12O2/c1-5-4-7(2,3)9-6(5)8/h5H,4H2,1-3H3	InChI=1S/C7H12O2/c1-5-4-7(2,3)9-6(5)8/h5H,4H2,1-3H3/t5-/m0/s1
