14
gdb 83110	2.48757	1.91032	1.33782	3.0804	61.57	-0.2418	-0.0487	0.193	922.8562	0.101282	-473.822047	-473.814793	-473.813848	-473.854181	26.887	
O	 0.7884715279	 0.8619207638	 0.7085707812	-0.410658
C	 0.2000053306	-0.2305691245	 0.0863168579	 0.026214
C	-1.3488998485	-0.3830032649	 0.0592587907	 0.015395
O	-2.0205186054	 0.896007289	 0.0458694719	-0.23364
C	-2.4170151008	 1.0952525282	-1.2444860633	 0.107575
N	-2.1280505528	 0.2395368521	-2.1346574052	-0.232888
C	-1.3278896909	-0.7835973936	-1.4517308781	-0.149945
C	 0.1947249304	-0.404976456	-1.4691954051	 0.34328
O	 0.9935372793	-0.2279443816	-2.3330908932	-0.268945
H	 0.2714023602	 1.6432814851	 0.4778028589	 0.296414
H	 0.6453747235	-1.137817921	 0.5175807755	 0.129675
H	-1.810988938	-1.0119784765	 0.8186000812	 0.106106
H	-2.9821158686	 2.0062582447	-1.4028341486	 0.156979
H	-1.593477567	-1.7956380349	-1.7585151838	 0.114437
70.1442	175.1834	193.1408	230.9182	357.234	420.0098	504.8708	568.1441	607.6743	685.8077	784.9651	822.9947	846.7841	883.805	937.5556	949.0124	981.694	1019.7272	1046.0326	1095.867	1126.6781	1160.8873	1222.6328	1237.3632	1258.1801	1304.2093	1311.4595	1349.5825	1423.1554	1683.1518	1907.9475	3029.2343	3112.2694	3130.6319	3228.2252	3790.7013
OC1C2OC=NC2C1=O	O[C@H]1[C@H]2OC=N[C@H]2C1=O	
InChI=1S/C5H5NO3/c7-3-2-5(4(3)8)9-1-6-2/h1-2,4-5,8H	InChI=1S/C5H5NO3/c7-3-2-5(4(3)8)9-1-6-2/h1-2,4-5,8H/t2-,4+,5-/m0/s1
