17
gdb 99734	2.03551	1.50384	0.9137	3.127	65.8	-0.2462	0.015	0.2611	1226.8559	0.136062	-492.350361	-492.341026	-492.340082	-492.38513	34.54	
N	 1.0008143044	-1.0422420752	-0.4190991675	-0.513825
C	 0.090692338	-0.2394153616	 0.1802603637	 0.409132
O	 0.4190739575	 0.7734271837	 0.7871286555	-0.387032
C	-1.3836205119	-0.6745736993	 0.0289524005	-0.231754
C	-1.6085336397	-2.1275408889	-0.3983035306	-0.117793
O	-1.0567036095	-2.3182990184	-1.7074438424	-0.430137
C	-2.2598160315	-0.3913377299	 1.2787266081	 0.405071
N	-2.0530552591	 0.8094072125	 1.868081593	-0.522895
O	-3.1124957197	-1.1879061673	 1.6313393983	-0.374633
H	 1.9533579388	-0.7130149353	-0.4324069211	 0.258663
H	 0.690647512	-1.7243283258	-1.0997114663	 0.275398
H	-1.7789164163	-0.0296838581	-0.769555193	 0.147182
H	-1.1428562544	-2.8085462536	 0.3268013755	 0.11286
H	-2.6833398427	-2.3211283696	-0.3927042582	 0.138099
H	-1.2753154078	-3.2102808198	-1.9931359679	 0.297496
H	-1.1664844434	 1.2697606899	 1.6825265658	 0.281466
H	-2.5394138148	 0.9708253668	 2.7361446565	 0.252701
42.0463	69.204	148.0644	245.5236	279.2289	290.9791	330.7107	377.7165	395.5882	452.1318	509.0108	528.2349	576.0828	606.123	638.1149	684.6924	728.9245	739.1715	829.6116	930.6736	1033.6011	1043.3383	1100.85	1154.2224	1164.0269	1208.7014	1235.3472	1265.5344	1317.0929	1356.0672	1378.7136	1447.8336	1515.405	1605.8367	1628.8997	1756.9916	1791.1368	3013.9433	3025.9016	3104.9682	3470.1514	3518.2399	3670.6539	3682.1895	3832.7036
NC(=O)C(CO)C(N)=O	NC(=O)C(CO)C(=O)N	
InChI=1S/C4H8N2O3/c5-3(8)2(1-7)4(6)9/h2,7H,1H2,(H2,5,8)(H2,6,9)	InChI=1S/C4H8N2O3/c5-3(8)2(1-7)4(6)9/h2,7H,1H2,(H2,5,8)(H2,6,9)
