19
gdb 105618	2.01223	1.40654	1.21894	5.4542	75.85	-0.2468	0.0094	0.2562	1171.3936	0.158751	-419.192451	-419.182782	-419.181838	-419.227164	34.87	
C	-0.4604642991	 1.3746772264	-0.0912912828	-0.422583
C	 0.0950355616	-0.0406782965	-0.0879182023	-0.091743
C	 1.5161726185	-0.2974602124	-0.6309744294	-0.084529
O	 1.8978168256	-1.0141560859	 0.5668244284	-0.314426
C	 0.6543654296	-0.6742834715	 1.2325485722	 0.260748
C	 0.9285636961	 0.2467294051	 2.422708609	-0.201404
N	 1.7474714105	-0.4738889378	 3.3880546714	-0.504525
C	-0.0675383424	-1.8838141527	 1.6578072339	 0.288283
N	-0.6915387469	-2.816134304	 1.9346519897	-0.344869
H	 0.2483174909	 2.1011584644	 0.3156263233	 0.125114
H	-0.6928365626	 1.6789727394	-1.117165262	 0.128993
H	-1.3877495983	 1.4394429531	 0.4866772077	 0.134243
H	-0.6283859133	-0.7205963766	-0.5420217638	 0.112646
H	 1.59697744	-0.9270091706	-1.5225688699	 0.119658
H	 2.1235110286	 0.6059956209	-0.7706926358	 0.105438
H	 1.3869804071	 1.1693777609	 2.0318984291	 0.089437
H	-0.0228754703	 0.5228174677	 2.8918796026	 0.120386
H	 2.6415391363	-0.6995081004	 2.9628475046	 0.244156
H	 1.9341591782	 0.1040302805	 4.199741494	 0.234976
56.6757	110.592	154.8974	167.3704	186.4965	221.0464	260.8828	302.4498	356.0401	407.0753	466.4771	546.1547	570.0553	648.4304	744.8679	844.0089	893.7655	914.8964	931.0717	988.7289	1010.5823	1015.5306	1096.6643	1104.1709	1142.8069	1161.8546	1175.2914	1197.3288	1217.8465	1289.8905	1330.1314	1343.3391	1391.1564	1414.4291	1423.0542	1488.6989	1497.6867	1501.3954	1527.2113	1652.6881	2355.0593	2967.7539	3019.4267	3039.6754	3062.0233	3074.4389	3091.2717	3103.8447	3118.6053	3507.1213	3590.8353
CC1COC1(CN)C#N	C[C@H]1CO[C@]1(CN)C#N	
InChI=1S/C6H10N2O/c1-5-2-9-6(5,3-7)4-8/h5H,2-3,7H2,1H3	InChI=1S/C6H10N2O/c1-5-2-9-6(5,3-7)4-8/h5H,2-3,7H2,1H3/t5-,6+/m0/s1
