16
gdb 90057	4.13051	1.21722	1.20982	3.0159	72.08	-0.2245	-0.0169	0.2075	1071.0742	0.122151	-437.740749	-437.733124	-437.73218	-437.772824	29.118	
C	-0.060188729	 1.5730839701	 0.0399614844	-0.325118
N	 0.0371210833	 0.1299946184	 0.0802196703	-0.081022
C	-1.1941071646	-0.6518777267	 0.4169926294	-0.268631
C	-0.2646523991	-1.5995852194	 1.1971151382	 0.157134
O	 0.6156734723	-2.3370405762	 0.2278606918	-0.299346
C	 1.587868849	-1.7811141881	 1.1471238853	-0.096055
C	 0.776746384	-0.4643061055	 1.2238249829	 0.005598
C	 0.5918611914	-2.3396120966	 2.2923725903	 0.380403
O	 0.5357915212	-2.9854554587	 3.2748864966	-0.277618
H	 0.9326590621	 1.9996962075	-0.1342359975	 0.130631
H	-0.7044067873	 1.8732087641	-0.792582292	 0.130158
H	-0.4703441836	 2.0175491773	 0.9667326481	 0.094085
H	-1.8915352796	-0.112951095	 1.0751131107	 0.110504
H	-1.7221637462	-1.0800685948	-0.438062881	 0.135225
H	 2.6408716355	-2.0188861399	 0.9927505578	 0.112734
H	 0.8960233505	 0.1766144835	 2.1046161748	 0.091317
94.9289	184.2557	201.6121	240.5854	304.0878	384.0652	390.0853	513.095	546.5947	677.1193	693.2605	768.7776	791.5634	840.1623	877.5845	902.6799	919.204	972.9655	1019.5617	1037.8159	1097.5088	1116.1204	1134.7439	1160.6603	1200.9646	1207.6174	1230.1866	1235.5707	1290.6001	1343.3957	1451.5437	1479.2169	1496.4236	1501.4634	1941.8558	2927.0352	3000.2233	3047.8581	3062.8161	3105.9015	3107.0855	3119.1238
CN1CC23OC(C12)C3=O	CN1C[C@@]23O[C@@H]([C@@H]12)C3=O	
InChI=1S/C6H7NO2/c1-7-2-6-4(7)3(9-6)5(6)8/h3-4H,2H2,1H3	InChI=1S/C6H7NO2/c1-7-2-6-4(7)3(9-6)5(6)8/h3-4H,2H2,1H3/t3-,4+,6+/m0/s1
