21
gdb 115601	3.25973	0.99315	0.91055	3.0949	74.99	-0.2427	0.053	0.2956	1385.0954	0.180398	-461.341805	-461.331666	-461.330721	-461.377025	37.071	
C	-0.0475539086	 1.5190993709	-0.333219573	-0.389703
C	 0.0281140826	 0.0051649759	-0.1164901132	-0.178743
C	-1.3176740936	-0.5727597104	 0.291433313	 0.085015
O	-2.3374358357	-0.4124309461	-0.7291030605	-0.296714
C	-2.3812901259	-1.8320773865	-0.9859146357	-0.126306
C	-1.4737081458	-2.1126965685	 0.2382782402	 0.353869
O	-0.2814164716	-2.8158306708	 0.0019511538	-0.480428
C	-2.1935667197	-2.6978314275	 1.4439204609	-0.148666
O	-2.3572363002	-4.0882945573	 1.1763418547	-0.437305
H	 0.9151654384	 1.9184898023	-0.6655362199	 0.109956
H	-0.7981930551	 1.7578683709	-1.0919298083	 0.135285
H	-0.3259182769	 2.0408648225	 0.5896233807	 0.108301
H	 0.3706943811	-0.4952916028	-1.0276948102	 0.110744
H	 0.7582463418	-0.2398868926	 0.6644654878	 0.099593
H	-1.6520813068	-0.1154142602	 1.2355138156	 0.06225
H	-3.4024299938	-2.2284732143	-0.9583679569	 0.101039
H	-1.9054915035	-2.0993700976	-1.937153203	 0.102224
H	-0.4810776891	-3.7433883994	 0.1855317443	 0.288917
H	-1.5768693456	-2.5373303143	 2.3410387456	 0.097801
H	-3.1604923996	-2.1963243209	 1.591188216	 0.105279
H	-2.6419878522	-4.5297466433	 1.9811269681	 0.297593
66.7816	93.7717	118.2488	145.0493	212.4019	242.5978	256.5982	293.8312	335.7984	358.2405	427.6054	459.9795	488.1679	586.5502	703.0307	773.2316	859.3141	892.382	915.7101	957.4488	975.9971	1011.7902	1043.2301	1056.6467	1089.3556	1109.6239	1136.084	1156.9591	1164.2151	1213.2826	1247.0183	1268.3902	1275.4193	1308.4058	1322.7595	1350.9639	1393.638	1408.5136	1427.4098	1451.4318	1475.8409	1498.3289	1507.5247	1510.4329	1521.0044	2978.0131	2987.7629	3020.9283	3030.3901	3033.9655	3040.1043	3073.2265	3081.3184	3103.2995	3118.9754	3763.5239	3843.0014
CCC1OCC1(O)CO	CC[C@H]1OC[C@]1(O)CO	
InChI=1S/C6H12O3/c1-2-5-6(8,3-7)4-9-5/h5,7-8H,2-4H2,1H3	InChI=1S/C6H12O3/c1-2-5-6(8,3-7)4-9-5/h5,7-8H,2-4H2,1H3/t5-,6-/m1/s1
