15
gdb 5090	3.37355	1.97309	1.26132	0.5202	64.05	-0.1829	0.0368	0.2197	922.8387	0.118414	-399.82175	-399.813529	-399.812585	-399.853992	29.9	
C	-0.0994797282	 1.5172224962	 0.0048329578	-0.50896
C	 0.0051999476	 0.0258764343	-0.009168607	 0.233115
C	 0.045801533	-0.801771461	-1.0858246051	-0.125152
O	 0.1281066075	-2.1102803601	-0.6997689354	-0.178288
C	 0.1387263532	-2.102840094	 0.6632884831	 0.31224
O	 0.2744572229	-3.2844573134	 1.3040804062	-0.431023
C	 0.0608333112	-0.8356068638	 1.1489210285	 0.013188
N	-0.0484853393	-0.4274925782	 2.4932410671	-0.617139
H	 0.7949639499	 1.9865561612	 0.4340692513	 0.121172
H	-0.2236465211	 1.9134707554	-1.0066519043	 0.124867
H	-0.9530530351	 1.8475660289	 0.6076100246	 0.136937
H	 0.0206033512	-0.6268521495	-2.1485525669	 0.12847
H	-0.4579153897	-3.8678445134	 1.0684429363	 0.30525
H	 0.0915181899	-1.213118133	 3.1183750348	 0.244394
H	 0.6302194569	 0.2882349404	 2.730009399	 0.240929
134.1218	160.5726	164.1443	221.1212	253.5625	293.718	313.39	340.3977	527.2773	566.6178	608.0163	671.5374	699.8459	728.7388	768.9905	834.4079	980.7189	1013.6197	1064.8645	1140.6797	1167.7806	1218.6078	1258.7881	1314.4152	1327.1553	1418.6304	1458.902	1480.4183	1501.773	1621.2672	1648.4051	1735.3955	3020.4283	3070.5806	3111.236	3275.679	3507.2329	3595.089	3759.4753
CC1=COC(O)=C1N	Cc1coc(O)c1N	
InChI=1S/C5H7NO2/c1-3-2-8-5(7)4(3)6/h2,7H,6H2,1H3	InChI=1S/C5H7NO2/c1-3-2-8-5(7)4(3)6/h2,7H,6H2,1H3
