14
gdb 131706	2.95406	1.37179	0.94224	4.0681	68.03	-0.2679	-0.0909	0.177	1147.1043	0.10228	-470.031737	-470.024181	-470.023237	-470.064308	27.644	
O	 0.1071591569	 1.3977893109	-0.0443021124	-0.416866
C	 0.0461123176	 0.0067049283	-0.0593431722	-0.119688
C	-1.3702670515	-0.5180498586	-0.0186884386	 0.30277
N	-2.3209503584	 0.3665466817	 0.0248786482	-0.401917
C	-3.6469566636	-0.0601872684	 0.0641394345	 0.468169
O	-4.6124386127	 0.6617341088	 0.1052220063	-0.36285
N	-3.8051004097	-1.462039182	 0.0524073003	-0.26066
N	-2.8495839702	-2.3830261911	 0.0080460611	-0.13527
C	-1.6304104062	-1.929420397	-0.0279040797	-0.051204
H	-0.8136033562	 1.705628335	-0.0091159226	 0.304398
H	 0.5329760851	-0.4017385572	-0.9618439211	 0.122931
H	 0.5910791475	-0.4239599082	 0.7986577547	 0.12291
H	-4.7536978492	-1.812647585	 0.080115407	 0.288745
H	-0.8346164593	-2.6638401873	-0.0646747955	 0.138529
84.3836	140.4389	185.9818	199.9511	382.0532	411.8616	452.914	497.1459	575.667	609.7979	637.2307	735.132	738.7196	799.7535	880.2432	969.0217	1016.7075	1043.5097	1100.3509	1148.7969	1196.0499	1244.9645	1250.4264	1329.154	1418.1921	1425.5103	1465.9578	1495.5044	1575.4173	1650.1637	1833.4344	2961.1625	2972.2979	3206.0195	3595.6418	3666.3159
OCC1=NC(=O)NN=C1	OCc1nc(=O)[nH]nc1	
InChI=1S/C4H5N3O2/c8-2-3-1-5-7-4(9)6-3/h1,8H,2H2,(H,6,7,9)	InChI=1S/C4H5N3O2/c8-2-3-1-5-7-4(9)6-3/h1,8H,2H2,(H,6,7,9)
