19
gdb 101092	2.36109	1.30938	0.98669	1.7544	73.09	-0.2582	-0.039	0.2192	1252.1305	0.155294	-460.136838	-460.126793	-460.125848	-460.172454	35.314	
C	-0.8293568596	 1.6232298911	 0.235620609	-0.236292
O	-0.4294270294	 0.3110927219	 0.5591738395	-0.247716
C	-1.1320506872	-0.7068158182	-0.1320608539	 0.035453
C	-0.4717923266	-1.0186961292	-1.478963879	-0.414919
C	-1.1671821046	-1.9277967679	 0.7811015356	 0.282206
C	-0.1062610795	-2.1533944938	 1.7876818701	-0.211033
O	-1.3875297286	-1.6939986294	 2.1827282745	-0.263074
C	-1.9310325193	-3.1413646606	 0.3403196902	 0.128507
O	-2.4247264696	-3.3086079065	-0.7459132665	-0.260444
H	-0.2336552743	 2.2997812871	 0.8529074339	 0.130931
H	-0.6519785253	 1.8685901046	-0.8217665511	 0.108934
H	-1.8947569971	 1.7866202785	 0.4564972925	 0.113426
H	-2.1740649532	-0.3914914189	-0.2996662835	 0.085373
H	 0.5546902372	-1.3653129399	-1.3245329597	 0.118324
H	-1.0339606002	-1.7850376441	-2.0143918758	 0.153727
H	-0.4370844831	-0.1166862414	-2.0963521764	 0.118326
H	 0.1483445431	-3.1670020799	 2.0963617744	 0.117309
H	 0.6877663316	-1.4134139801	 1.8380996634	 0.147139
H	-2.0362363742	-3.8880658634	 1.1579249928	 0.093825
53.3722	62.2714	129.0499	164.3376	198.5506	214.2827	256.6116	265.1055	356.5679	378.5349	391.0552	453.9031	524.1627	604.787	750.3264	853.9186	881.5187	895.1166	945.5849	1025.2396	1057.3381	1099.1945	1121.9665	1137.39	1156.9428	1170.8927	1185.0356	1223.0849	1268.0726	1348.4342	1349.2462	1389.4628	1399.6425	1433.5808	1479.6073	1488.9909	1492.4345	1502.4344	1506.7987	1511.8525	1823.1446	2898.6392	2979.2445	2987.3603	3031.9347	3048.5579	3089.6358	3115.7552	3117.5916	3151.5873	3196.0327
COC(C)C1(CO1)C=O	CO[C@@H](C)[C@]1(CO1)C=O	
InChI=1S/C6H10O3/c1-5(8-2)6(3-7)4-9-6/h3,5H,4H2,1-2H3	InChI=1S/C6H10O3/c1-5(8-2)6(3-7)4-9-6/h3,5H,4H2,1-2H3/t5-,6+/m0/s1
