19
gdb 51312	3.56072	0.98399	0.85053	2.0063	79.54	-0.2392	-0.0331	0.2061	1362.5688	0.159141	-423.041994	-423.033294	-423.03235	-423.076528	31.644	
O	 0.0811855871	-0.03753133	-0.6780043457	-0.234918
C	 0.0522184384	 1.0562983178	-0.1759109938	 0.15499
C	 1.2660801955	 1.9532036797	 0.0119207631	-0.36324
C	 1.2937667476	 2.961824033	-1.1179038934	 0.290652
C	 0.9100363573	 4.230367701	-0.96449928	-0.1733
C	 0.9378618754	 5.2272493121	-2.0910289318	-0.113478
O	 1.6159629434	 4.7644937211	-3.2402459082	-0.245235
C	 1.2771416513	 3.4274238374	-3.5691033495	-0.086184
C	 1.7322989277	 2.460424801	-2.4748159404	-0.298012
H	-0.9092026694	 1.5192828211	 0.1435743883	 0.081208
H	 1.1890426946	 2.464465337	 0.9772398754	 0.113492
H	 2.1638110526	 1.3265230718	-0.0010958084	 0.12475
H	 0.5627503642	 4.5992487381	-0.0018879165	 0.087253
H	-0.0975895071	 5.5257317875	-2.3435542538	 0.098225
H	 1.4582546264	 6.1405063221	-1.7777347955	 0.119767
H	 0.1889140192	 3.333851752	-3.7198259288	 0.091137
H	 1.7692060783	 3.2126981354	-4.5213993957	 0.110372
H	 2.8255111772	 2.353731678	-2.4945464636	 0.117566
H	 1.3219348604	 1.4599115837	-2.6601416116	 0.124955
46.8594	64.3148	113.6732	212.7284	267.348	303.212	330.5533	437.5572	483.6458	512.1659	557.7048	694.5149	791.7891	832.2788	862.9546	881.9697	924.8454	987.2569	1020.6075	1025.8055	1044.006	1057.0719	1096.9881	1145.7027	1163.7666	1204.2465	1229.059	1259.7141	1283.7151	1309.2772	1338.0617	1374.7049	1390.4115	1418.0484	1422.5733	1465.853	1473.5149	1486.3357	1502.3532	1732.562	1826.6069	2874.0412	2924.1298	2971.4432	3017.0471	3040.2887	3046.6014	3058.8149	3092.2623	3101.4039	3152.4069
O=CCC1=CCOCC1	O=CCC1=CCOCC1	
InChI=1S/C7H10O2/c8-4-1-7-2-5-9-6-3-7/h2,4H,1,3,5-6H2	InChI=1S/C7H10O2/c8-4-1-7-2-5-9-6-3-7/h2,4H,1,3,5-6H2
