21
gdb 77897	2.0311	1.50525	1.3588	0.9442	78.65	-0.2453	0.0675	0.3128	1127.1371	0.180635	-424.191353	-424.181506	-424.180562	-424.225143	37.474	
C	-0.7156409671	 1.2671972315	-0.2481434448	-0.429123
C	-0.3105155734	-0.1837463475	-0.4413916266	-0.06322
C	 0.5140260486	-0.8128428697	-1.5502790464	-0.161754
C	 1.7408220246	 0.0020535781	-1.9810348737	-0.007974
C	 1.5951622726	 1.3203859026	-2.7329057021	-0.414815
C	 2.2251541925	-0.0072872937	-0.4784318724	 0.003628
O	 2.3740368534	 1.2137068656	 0.2233130629	-0.426772
C	 0.9999036388	-0.8283986932	-0.0918790406	 0.361225
O	 1.0885068136	-1.9260139489	 0.7529394603	-0.466634
H	-1.4250022753	 1.5857815817	-1.0203892229	 0.109157
H	-1.2138089473	 1.3858542896	 0.7210960902	 0.10598
H	 0.1423289877	 1.9373290477	-0.2526187558	 0.149328
H	-1.1114683724	-0.8768710456	-0.1818644218	 0.087486
H	 0.1110707553	-1.6445461619	-2.1168914396	 0.087752
H	 2.4113762032	-0.6481920762	-2.554425453	 0.073002
H	 0.9589129337	 2.0374452053	-2.2133097717	 0.126947
H	 2.5746118086	 1.7903374443	-2.8835551242	 0.101113
H	 1.1625801543	 1.14704681	-3.7243148442	 0.115248
H	 3.1250033158	-0.626338643	-0.3700843075	 0.078579
H	 3.2019674258	 1.6198966588	-0.0524770012	 0.283948
H	 0.8261639169	-1.6464056157	 1.6365786052	 0.286898
128.9485	152.7221	179.8445	202.3334	221.9794	251.5071	256.9151	275.7	294.3518	343.3673	378.9011	488.5126	563.8813	600.0435	683.8103	715.9786	731.8238	813.1231	888.9288	943.4485	954.4515	977.9115	1032.8048	1059.0099	1064.3073	1125.6511	1132.0651	1150.1719	1155.6803	1180.4252	1239.4286	1242.6064	1270.4872	1316.1321	1332.206	1349.7377	1376.6586	1406.7679	1409.9061	1428.7825	1482.3673	1491.1491	1496.4378	1504.1187	1514.5827	3014.3608	3029.43	3029.9848	3039.7849	3080.1479	3085.5374	3104.5587	3145.4749	3161.3693	3176.4137	3797.8635	3814.5034
CC1C2C(C)C(O)C12O	C[C@H]1[C@H]2[C@@H](C)[C@@H](O)[C@@]12O	
InChI=1S/C7H12O2/c1-3-5-4(2)7(5,9)6(3)8/h3-6,8-9H,1-2H3	InChI=1S/C7H12O2/c1-3-5-4(2)7(5,9)6(3)8/h3-6,8-9H,1-2H3/t3-,4+,5-,6-,7-/m1/s1
