18
gdb 90863	3.75024	1.43829	1.22101	1.6077	77.7	-0.2299	-0.0169	0.2131	1027.151	0.149077	-401.852875	-401.845719	-401.844775	-401.884007	29.484	
O	 0.0422821009	 1.4681411554	 0.0456540282	-0.434578
C	 0.0607634422	 0.0558794802	-0.0105912202	 0.090771
C	-1.4151067941	-0.451540117	 0.0154489279	-0.232767
C	-1.439189953	-1.9836661264	-0.0705586111	 0.003483
C	-0.1764318614	-2.6843155422	-0.3689353359	-0.123099
N	-1.3547778876	-2.961998975	-1.2561782471	-0.166204
C	-0.5499337744	-2.4671030221	-2.4568197884	-0.186878
C	 0.4108901473	-1.8258531847	-1.4786764616	 0.111016
C	 0.5607289762	-0.5088405301	-1.3208732622	-0.180947
H	 0.9532693092	 1.7787305674	 0.0406987329	 0.284833
H	 0.5849221485	-0.3713243848	 0.8571678995	 0.080261
H	-1.9015306294	-0.1467057462	 0.9485763291	 0.110603
H	-1.958335893	 0.0362847549	-0.8002907737	 0.118367
H	-2.105702464	-2.4584615009	 0.6438770556	 0.105059
H	 0.3115998616	-3.4532067708	 0.2208235184	 0.094453
H	-0.2102427892	-3.3696393313	-2.9736085418	 0.118729
H	-1.0748292314	-1.8086011139	-3.1561687614	 0.107957
H	 0.5354097716	 0.1653347874	-2.1754643784	 0.09894
155.6171	218.7241	280.069	340.4781	383.6573	421.1422	441.7374	516.7671	534.4709	643.4697	730.9595	757.2476	783.8379	849.9797	884.1899	892.9778	935.1109	960.8798	983.8836	1019.7673	1040.0006	1054.0169	1075.9042	1098.1826	1128.0414	1142.5511	1183.1063	1223.0648	1255.6091	1266.7455	1272.6579	1296.3595	1321.6281	1352.5751	1377.256	1409.3441	1485.3724	1504.2251	1685.8656	2985.6631	3041.4236	3044.8428	3087.0475	3097.4279	3144.0268	3148.3135	3162.0128	3818.8121
OC1CC2C3N2CC3=C1	O[C@H]1C[C@@H]2[C@H]3N2C[C]3[CH]1	
InChI=1S/C7H9NO/c9-5-1-4-3-8-6(2-5)7(4)8/h1,5-7,9H,2-3H2	InChI=1S/C7H9NO/c9-5-1-4-3-8-6(2-5)7(4)8/h1,5-7,9H,2-3H2/t5-,6-,7+,8?/m1/s1
