17
gdb 57862	2.25396	1.36701	0.97784	5.0862	70.6	-0.2712	-0.01	0.2613	1223.1887	0.134172	-455.175934	-455.165934	-455.16499	-455.211455	34.444	
C	-0.0153279529	 1.4346991751	-0.0820821717	-0.35116
N	-0.0071557479	-0.0203731399	 0.0207848099	-0.089876
C	 1.3084311279	-0.6396195332	 0.0670500719	-0.345337
C	-1.1806097394	-0.6859338779	-0.0239352254	 0.4105
O	-2.2782184451	-0.1489133239	-0.0852508342	-0.395503
C	-1.1821151016	-2.250111301	 0.0115511327	-0.104063
O	-2.4983724415	-2.6847643212	 0.1276647506	-0.406052
C	-0.5412242916	-2.7798094212	-1.2134269253	 0.260571
N	-0.0231494615	-3.1821123483	-2.1649261039	-0.322466
H	 0.5227600451	 1.7539272895	-0.9820931431	 0.138761
H	-1.047145464	 1.7757388621	-0.1339591941	 0.177654
H	 0.4758201023	 1.8765741172	 0.7919057191	 0.134501
H	 1.2502838224	-1.6929566831	 0.3338185715	 0.155524
H	 1.8150926414	-0.562372429	-0.9020671201	 0.154533
H	 1.9189900811	-0.1315423702	 0.8210283961	 0.137843
H	-0.5985703568	-2.6025515617	 0.8732452719	 0.138335
H	-3.0258048778	-1.8741699831	-0.0149844959	 0.306237
63.6738	82.383	107.2053	132.2701	158.6365	233.1669	258.3235	271.1273	368.017	393.3295	447.7133	479.99	530.8443	595.9277	629.563	702.995	849.1557	938.5432	975.6332	1082.4163	1125.9089	1128.3814	1174.8656	1177.6357	1232.0528	1277.1644	1357.9083	1427.1641	1438.8564	1460.9445	1477.8755	1483.2666	1500.4254	1501.1011	1545.2622	1759.0702	2351.6728	3015.2478	3028.4897	3034.3303	3083.9236	3087.1912	3168.6133	3179.5363	3576.9003
CN(C)C(=O)C(O)C#N	CN(C)C(=O)[C@@H](O)C#N	
InChI=1S/C5H8N2O2/c1-7(2)5(9)4(8)3-6/h4,8H,1-2H3	InChI=1S/C5H8N2O2/c1-7(2)5(9)4(8)3-6/h4,8H,1-2H3/t4-/m0/s1
