21
gdb 119475	5.0909	0.84996	0.80205	1.1669	80.21	-0.2288	0.0767	0.3055	1520.7995	0.180444	-424.175776	-424.166163	-424.165219	-424.210683	35.111	
C	-0.0480149638	 1.4210827511	 0.8572109428	-0.220577
O	-0.1123981415	 0.0246739267	 1.0239526093	-0.235864
C	 0.8665952794	-0.6619062707	 0.2786154124	-0.178809
C	 0.6978855648	-2.1322171954	 0.5099024645	 0.465191
C	-0.5719941124	-2.8683754743	 0.7749208215	-0.33908
C	 0.5939491379	-2.992393313	 1.7451318473	-0.196351
C	 1.7213246542	-3.8097113641	 1.1105971141	 0.148344
C	 1.5671832539	-5.2925269166	 0.8452725307	-0.407205
O	 1.6663251188	-2.9909003794	-0.1033323868	-0.354715
H	-0.2061972008	 1.7137647642	-0.1926399403	 0.107385
H	-0.8390839982	 1.8595529929	 1.4701139012	 0.128297
H	 0.9222743408	 1.8270024095	 1.1838208412	 0.106422
H	 0.767149778	-0.4458195462	-0.8003125457	 0.097406
H	 1.8823733899	-0.3518117263	 0.5769656727	 0.095056
H	-1.382610109	-2.2521541704	 1.1478312642	 0.130373
H	-0.8655580805	-3.6927082616	 0.1312266551	 0.107491
H	 0.5203496031	-2.7166183313	 2.7882020476	 0.10008
H	 2.6748850962	-3.6114965009	 1.6177781644	 0.080254
H	 0.5988218713	-5.5211313771	 0.3927826452	 0.122404
H	 2.3535172538	-5.6399139881	 0.1673988863	 0.126678
H	 1.6546610141	-5.8521439689	 1.7828793522	 0.11722
60.1971	75.4244	120.6535	176.4955	219.4695	230.8588	267.6413	306.6478	365.1013	429.6315	478.8452	545.5935	693.4788	704.3439	830.424	854.0457	865.3948	961.213	980.967	989.7025	996.2796	1021.0103	1058.7623	1085.402	1099.5961	1112.4871	1147.2279	1158.4895	1176.6308	1186.9752	1232.2702	1243.5842	1279.196	1306.2331	1384.7391	1389.1063	1409.9682	1433.8355	1481.6623	1483.8556	1484.7251	1493.3092	1498.8358	1503.9536	1526.2929	2943.9681	2972.4372	2976.0924	3014.1273	3017.8841	3038.1666	3105.4243	3115.9732	3120.4111	3124.0109	3204.6119	3222.1644
COCC12CC1C(C)O2	COC[C@]12C[C@H]1[C@@H](C)O2	
InChI=1S/C7H12O2/c1-5-6-3-7(6,9-5)4-8-2/h5-6H,3-4H2,1-2H3	InChI=1S/C7H12O2/c1-5-6-3-7(6,9-5)4-8-2/h5-6H,3-4H2,1-2H3/t5-,6+,7-/m1/s1
