25
gdb 103167	1.92021	1.41813	1.06093	1.3966	88.71	-0.2607	0.0718	0.3325	1316.8219	0.227157	-389.488891	-389.478101	-389.477157	-389.523874	41.017	
C	-0.1148272328	 1.5982631002	-0.0304725122	-0.420491
C	 0.0584414752	 0.0891581721	 0.0514757675	 0.034852
C	 1.0582516304	-0.6260595418	-0.89440806	-0.263895
C	 1.3948243213	-1.611700833	 0.2557874021	-0.001836
C	 2.8209172552	-2.1233654756	 0.4044689539	-0.417428
C	 0.7937885368	-0.5739198664	 1.2713217346	 0.313906
C	 1.8411688931	 0.3274826627	 1.9297123163	-0.450076
C	-0.1253248283	-1.1740302725	 2.3263223498	-0.141544
O	-0.8127287841	-0.1138142177	 2.9822908968	-0.425971
H	 0.8433605655	 2.1234244705	 0.0383039689	 0.108226
H	-0.577532525	 1.8833410789	-0.982348068	 0.105853
H	-0.7564864426	 1.9595338029	 0.7793440675	 0.127675
H	-0.9259851553	-0.38478438	-0.0452800366	 0.063746
H	 0.6721016027	-1.044202402	-1.8281147401	 0.088013
H	 1.9137219654	 0.0153796843	-1.1352496004	 0.092139
H	 0.7135304464	-2.4702342693	 0.1987003422	 0.061935
H	 3.5448114263	-1.3035672583	 0.4462939807	 0.114293
H	 2.9449536767	-2.7253219407	 1.3120106734	 0.110064
H	 3.0904347452	-2.7565260403	-0.448533386	 0.112157
H	 2.5053128301	 0.7966560242	 1.1981659011	 0.108697
H	 1.353513952	 1.1187941281	 2.5038833153	 0.133171
H	 2.4670649397	-0.2485667916	 2.6207142945	 0.105048
H	-0.8390300151	-1.8594419835	 1.8411764636	 0.076482
H	 0.4649074255	-1.7673040712	 3.0460597606	 0.078264
H	-1.3885167444	-0.4944967997	 3.6514212645	 0.286721
92.2214	100.3604	169.6838	209.3421	220.5209	240.2036	244.796	259.4277	288.3859	305.128	318.4804	386.4442	440.4462	480.7547	506.1478	598.2666	694.0387	808.8875	873.6089	880.5423	913.8153	954.1538	961.5248	966.9984	1030.5449	1049.7627	1059.842	1085.0699	1146.5048	1148.0309	1162.1802	1181.2491	1213.9419	1225.0191	1247.6967	1269.5342	1273.0965	1298.5642	1334.185	1359.0661	1387.5557	1405.1975	1410.5187	1414.7569	1453.1684	1485.3193	1491.4491	1495.3969	1497.99	1499.6397	1504.6166	1512.2536	1517.6046	2947.8562	2980.073	3017.0196	3024.8505	3026.6265	3028.8546	3036.1533	3040.427	3086.1466	3090.2543	3092.7085	3098.1724	3103.0275	3107.184	3124.7177	3832.229
CC1CC(C)C1(C)CO	C[C@H]1C[C@@H](C)[C@]1(C)CO	
InChI=1S/C8H16O/c1-6-4-7(2)8(6,3)5-9/h6-7,9H,4-5H2,1-3H3	InChI=1S/C8H16O/c1-6-4-7(2)8(6,3)5-9/h6-7,9H,4-5H2,1-3H3/t6-,7+,8+
