13
gdb 5440	3.65392	1.93197	1.26723	6.0434	67.78	-0.205	0.0085	0.2135	880.7442	0.098282	-357.699323	-357.692259	-357.691315	-357.730461	26.371	
N	 0.0684241345	 1.3754949174	 0.1536953525	-0.611954
C	-0.0069070499	-0.0076427914	 0.0384540508	 0.251925
C	-1.1083258209	-0.8577571974	 0.010522919	 0.130143
C	-0.6056369913	-2.2043966702	-0.0175982486	-0.253985
C	 0.7552386207	-2.1295172354	-0.0183565902	-0.077157
N	 1.1089851447	-0.7871738149	 0.0177916597	-0.287418
C	-2.4461937335	-0.4120027818	-0.0080563618	 0.175953
N	-3.533764549	-0.0066020769	-0.0243518782	-0.372489
H	 0.6272362749	 1.8194102731	-0.5662226833	 0.254789
H	-0.8534663937	 1.7944282406	 0.1726523879	 0.2726
H	-1.2033659423	-3.1006686491	-0.0499035186	 0.117673
H	 1.5101850093	-2.8969153426	-0.0481568245	 0.131456
H	 2.0449894964	-0.4340389015	 0.1199579353	 0.268463
134.5372	165.1674	215.5978	273.8295	374.5475	481.803	528.9797	536.0781	610.6268	620.4947	671.8257	710.7293	731.3964	782.1709	835.9087	913.6267	1055.1097	1088.7953	1142.1133	1198.9944	1281.8835	1346.9782	1398.9178	1530.7098	1544.643	1613.0954	1662.7788	2326.1879	3265.4016	3286.7041	3521.3115	3613.8764	3676.1403
NC1=C(C=CN1)C#N	Nc1c(cc[nH]1)C#N	
InChI=1S/C5H5N3/c6-3-4-1-2-8-5(4)7/h1-2,8H,7H2	InChI=1S/C5H5N3/c6-3-4-1-2-8-5(4)7/h1-2,8H,7H2
