17
gdb 131781	5.30593	0.74668	0.69236	2.2009	71.36	-0.2174	0.027	0.2445	1577.0947	0.136798	-455.162924	-455.153933	-455.152989	-455.197797	32.419	
O	-0.136600815	 1.4781510782	 0.1287716119	-0.416766
C	 0.0100700407	 0.0780479443	-0.0327896294	-0.061854
C	-1.3936287526	-0.5349173842	 0.0166866422	-0.304581
C	-1.3804124231	-2.0231090686	-0.1232623052	 0.388191
C	-1.2982655819	-2.8418815139	-1.2361501108	-0.405982
C	-1.283515868	-4.1498894876	-0.7067775643	 0.43533
O	-1.2138479091	-5.2875744725	-1.429210285	-0.43041
N	-1.3498238548	-4.1695183595	 0.6163383199	-0.339503
N	-1.402100475	-2.8529404512	 0.9487953632	-0.265002
H	 0.7338241884	 1.8825083363	 0.0704918008	 0.289506
H	 0.4845956717	-0.1749797506	-0.9928155231	 0.099612
H	 0.6310393375	-0.360030118	 0.7646066673	 0.090557
H	-1.8644248994	-0.2440296026	 0.962924877	 0.112237
H	-1.9938697128	-0.0891623809	-0.782375161	 0.13092
H	-1.2616668146	-2.5457590067	-2.2710208329	 0.10681
H	-1.2278641441	-6.020264421	-0.8007043302	 0.301617
H	-1.4853139379	-2.5987628814	 1.9177787395	 0.269317
33.285	88.9995	97.3745	252.5314	265.5077	289.4098	342.3521	367.285	414.1081	455.632	470.2351	650.1329	703.1045	723.6324	784.239	792.9719	804.1671	1003.5688	1006.751	1042.7279	1049.2215	1081.3432	1149.6022	1189.2042	1207.2438	1236.001	1239.968	1298.65	1322.5449	1354.02	1445.0835	1453.9605	1489.2713	1527.252	1532.0997	1563.6179	1617.2485	2974.4755	3007.813	3044.2824	3093.3832	3274.9589	3680.0805	3795.4162	3832.5848
OCCC1=CC(O)=NN1	OCCc1cc(O)n[nH]1	
InChI=1S/C5H8N2O2/c8-2-1-4-3-5(9)7-6-4/h3,8H,1-2H2,(H2,6,7,9)	InChI=1S/C5H8N2O2/c8-2-1-4-3-5(9)7-6-4/h3,8H,1-2H2,(H2,6,7,9)
