19
gdb 109718	3.29128	1.06036	0.99027	3.2616	72.	-0.2403	0.0512	0.2915	1256.6484	0.158555	-460.104826	-460.095858	-460.094914	-460.138673	33.276	
O	-0.0677576171	 1.0983080017	-0.8429023943	-0.422573
C	-0.094443588	 0.1507516801	 0.2355470205	-0.123571
C	-1.4619200214	-0.4862467223	 0.2416167151	-0.147223
C	-1.88702235	-1.2163764211	-1.0169092795	 0.046448
O	-0.9629117398	-1.3338826782	-2.0559092064	-0.431051
C	-1.6127894151	-1.9875465064	 0.2320059599	 0.241417
C	-0.5687632345	-3.0823832813	 0.4104456255	-0.133803
O	-1.5327708282	-3.908668482	 1.1049317073	-0.277859
C	-2.5483356892	-2.884205373	 1.032099306	-0.144421
H	 0.803372302	 1.5078151889	-0.8628344482	 0.292353
H	 0.6837429971	-0.6096072899	 0.0895866688	 0.105905
H	 0.1029807492	 0.6512774949	 1.1934597336	 0.102457
H	-2.2367124857	 0.0789719448	 0.7529824165	 0.092926
H	-2.926124199	-1.1131176279	-1.3324936481	 0.087065
H	-0.602792138	-0.4467214673	-2.1969747409	 0.29562
H	-0.2102315364	-3.543084927	-0.5166983664	 0.120618
H	 0.2901362464	-2.8375147757	 1.0502911482	 0.093573
H	-2.8272855043	-2.5124154703	 2.0278095463	 0.097506
H	-3.4508182379	-3.2303227981	 0.5112426463	 0.104612
91.9902	104.0727	156.3692	166.0438	230.5214	260.4335	321.8803	367.6868	415.1028	476.0239	541.0347	601.9087	675.0487	805.0047	840.075	875.046	958.1687	972.3355	975.7368	1021.1741	1026.6025	1033.698	1085.9994	1124.8194	1129.6275	1149.4813	1157.3209	1169.8834	1201.012	1246.7492	1270.5608	1298.2608	1309.9748	1349.617	1375.1342	1391.2253	1455.4124	1483.6609	1510.6984	1513.8436	1535.1507	2993.6237	3001.2572	3006.4173	3037.871	3038.898	3063.3385	3090.5621	3142.8273	3732.6145	3816.0064
OCC1C(O)C11COC1	OC[C@H]1[C@@H](O)C21COC2	
InChI=1S/C6H10O3/c7-1-4-5(8)6(4)2-9-3-6/h4-5,7-8H,1-3H2	InChI=1S/C6H10O3/c7-1-4-5(8)6(4)2-9-3-6/h4-5,7-8H,1-3H2/t4-,5+/m0/s1
