18
gdb 24722	3.64128	1.59486	1.1415	1.7394	88.88	-0.1848	-0.0074	0.1774	1051.9556	0.15203	-364.872973	-364.866126	-364.865182	-364.904	28.033	
C	-0.0318494251	 1.5079755729	 0.0860706894	-0.271559
C	 1.3859767379	 2.0850866627	-0.0336225119	-0.167772
N	 2.1110435885	 1.4235103403	-1.108545583	-0.055219
C	 3.1722863608	 1.9063051794	-1.8252714947	-0.108006
C	 3.7090060674	 0.8672359856	-2.5570736742	-0.158658
C	 2.956034829	-0.2952259076	-2.2531493826	-0.27024
C	 1.9739440073	 0.0692632365	-1.3468790924	 0.323327
C	 0.9180327728	-0.649743364	-0.6741358864	-0.12795
C	-0.0261557143	-0.0012133912	 0.0239672604	-0.113265
H	-0.4780257622	 1.863197113	 1.0208121581	 0.108981
H	-0.658440221	 1.9065659345	-0.726077489	 0.119756
H	 1.3583788921	 3.1595784904	-0.2346972938	 0.115282
H	 1.9251559246	 1.9360531101	 0.9125681118	 0.117939
H	 3.4532913568	 2.9460987844	-1.7600821304	 0.113865
H	 4.5380874686	 0.941884373	-3.2438063017	 0.094518
H	 3.0914218038	-1.2838746539	-2.6655675205	 0.094187
H	 0.911256571	-1.7309115167	-0.7658885663	 0.094079
H	-0.8308150281	-0.5413603194	 0.5109610572	 0.090736
139.4944	191.5925	249.6126	383.2192	433.0937	499.0041	578.977	613.7658	660.7318	702.9113	719.4599	742.671	769.4132	799.5408	837.1613	891.3158	909.0812	934.7863	976.1522	1019.6581	1050.885	1066.5715	1099.0099	1163.7564	1200.1744	1215.9732	1240.0671	1273.5958	1325.1169	1359.9603	1367.5363	1398.8591	1431.1925	1456.8855	1472.6113	1494.6646	1519.7435	1581.8079	1684.0509	2993.0022	3006.5671	3070.5613	3087.1866	3175.4794	3195.7169	3238.0959	3248.1754	3264.4653
C1CN2C=CC=C2C=C1	C1Cn2cccc2C=C1	
InChI=1S/C8H9N/c1-2-6-9-7-3-5-8(9)4-1/h1,3-5,7H,2,6H2	InChI=1S/C8H9N/c1-2-6-9-7-3-5-8(9)4-1/h1,3-5,7H,2,6H2
