14
gdb 129346	6.93581	0.87523	0.77911	2.3101	68.94	-0.2074	-0.0119	0.1955	1368.3678	0.102181	-466.186958	-466.178827	-466.177882	-466.220367	29.24	
N	-0.1701010656	 1.2671377819	 0.1403477181	-0.416528
C	-0.0508810888	 0.0347165301	-0.0607805042	 0.116718
O	-1.1708983504	-0.750210396	 0.1083309836	-0.225534
C	-1.0122681399	-2.0822775498	 0.0610125651	 0.543646
N	 0.0898062562	-2.7476686796	 0.1010165035	-0.332304
N	-0.3378345411	-4.0789775692	-0.0592000544	-0.316152
C	-1.7275221238	-4.2003326734	-0.0237220174	 0.442409
N	-2.5274441778	-5.1904788383	-0.0151166665	-0.593045
N	-2.1291098784	-2.8606948111	-0.0427125114	-0.394026
H	 0.7142450025	 1.737571906	-0.0433720412	 0.245934
H	 0.822948026	-0.5400550748	-0.3706658625	 0.154517
H	 0.2675915905	-4.7806872396	 0.333482979	 0.269905
H	-2.0260594772	-6.074990046	-0.0112787874	 0.214098
H	-3.0864981823	-2.5547860001	-0.0375426144	 0.290363
60.7055	85.6495	162.8138	187.6652	353.1125	374.891	405.0048	435.4286	467.7328	545.6995	683.8465	717.2642	726.2522	749.7695	818.1703	843.811	979.4567	1006.1476	1055.3757	1062.6331	1075.1716	1118.694	1246.7949	1293.5439	1347.1563	1381.4892	1398.4568	1524.0796	1685.5473	1756.0334	1770.5065	3131.2537	3520.3554	3527.7374	3661.7818	3692.3027
N=COC1=NNC(=N)N1	[NH][CH]OC1=NN[C@H]([NH])N1	
InChI=1S/C3H5N5O/c4-1-9-3-6-2(5)7-8-3/h1,4H,(H3,5,6,7,8)	InChI=1S/C3H6N5O/c4-1-9-3-6-2(5)7-8-3/h1-2,4-5,7H,(H,6,8)/t2-/m1/s1
