13
gdb 27136	3.45927	1.18154	0.91121	3.7078	62.34	-0.2142	-0.0096	0.2047	1174.4283	0.089359	-489.927948	-489.920005	-489.919061	-489.961266	28.209	
O	 0.3537088623	 1.1951014699	-0.5002129915	-0.438792
C	 0.1237002448	-0.1066828152	-0.2236934183	 0.259661
C	-0.2980529069	-1.0698887619	-1.1027843578	 0.259503
N	-0.3778436886	-2.2343450679	-0.3584199465	-0.302156
C	-0.0137421309	-1.9166710495	 0.909440995	 0.015951
N	 0.3035646617	-0.6409899674	 1.018310077	-0.32979
O	-0.6644587453	-1.0581873652	-2.4184486973	-0.219906
C	 0.2920730213	-0.6764025683	-3.3270550186	 0.164494
O	 0.0467127231	-0.581508589	-4.4852989041	-0.249806
H	 0.6277909336	 1.6071644045	 0.3281479469	 0.307107
H	-0.6903125714	-3.1254678862	-0.7070917736	 0.280878
H	 0.0009926728	-2.6402920186	 1.7091956082	 0.143883
H	 1.2624239734	-0.4791397752	-2.8404191696	 0.108972
52.3122	121.0125	146.9768	278.3327	306.2369	333.767	421.3944	433.668	482.8109	541.5964	659.2453	716.3233	720.0977	783.792	858.9586	951.7384	1037.3672	1096.4869	1101.8479	1130.2198	1244.7951	1304.3989	1348.5712	1398.0659	1405.2537	1495.042	1521.4381	1707.4055	1885.1322	3003.7544	3264.3529	3664.763	3806.7713
OC1=C(NC=N1)OC=O	Oc1c([nH]cn1)OC=O	
InChI=1S/C4H4N2O3/c7-2-9-4-3(8)5-1-6-4/h1-2,8H,(H,5,6)	InChI=1S/C4H4N2O3/c7-2-9-4-3(8)5-1-6-4/h1-2,8H,(H,5,6)
