16
gdb 54883	2.77472	1.55631	1.0096	2.7581	73.51	-0.2505	-0.0269	0.2236	1126.0605	0.124724	-434.112977	-434.104749	-434.103805	-434.146435	29.919	
C	-0.0522084	 1.5312372294	 0.0092462849	-0.507285
C	 0.1064576421	 0.0188858428	 0.0014954824	 0.41354
O	 1.1808681152	-0.5209985299	-0.0100983257	-0.285959
N	-1.1004968513	-0.7156419193	 0.0089875764	-0.166673
C	-2.3987586914	-0.1758778475	 0.0212623008	 0.08558
N	-3.3681076315	-0.998668357	 0.0259581734	-0.256018
C	-2.7659481277	-2.3328255858	 0.0163993207	-0.272038
C	-1.2490608505	-2.1342619106	 0.0051357293	 0.343363
N	-0.2935973953	-2.9602656369	-0.0051920491	-0.479176
H	 0.9487776418	 1.9605584657	 0.0033986957	 0.158712
H	-0.5995885218	 1.8841671275	-0.870580636	 0.148397
H	-0.5861804143	 1.8766727517	 0.9001971283	 0.14836
H	-2.5265393185	 0.8986943117	 0.0261005796	 0.146205
H	-3.0841978662	-2.9005076507	 0.8983395965	 0.147976
H	-3.0981289062	-2.8941374618	-0.8644852266	 0.147978
H	-0.6629599646	-3.9124274692	-0.0055624704	 0.227036
54.7796	99.1133	187.7461	199.5773	222.8197	355.4785	456.9935	463.7198	493.8774	566.6632	606.8981	640.4091	698.5312	871.7555	872.3465	920.0891	933.5436	989.4063	1011.7855	1013.4746	1050.9571	1095.3861	1199.7568	1241.9744	1266.2987	1296.7262	1327.6114	1382.557	1397.1513	1456.3683	1474.5671	1486.0168	1696.1014	1748.0462	1832.757	3042.1258	3045.0641	3074.7448	3110.4353	3166.2969	3232.2306	3465.3261
CC(=O)N1C=NCC1=N	CC(=O)N1C=NC[C]1[NH]	
InChI=1S/C5H7N3O/c1-4(9)8-3-7-2-5(8)6/h3,6H,2H2,1H3	InChI=1S/C5H7N3O/c1-4(9)8-3-7-2-5(8)6/h3,6H,2H2,1H3
