18
gdb 53800	2.48605	1.30821	1.17868	5.1409	74.43	-0.2375	-0.0366	0.2009	1152.1102	0.146554	-435.252585	-435.242973	-435.242029	-435.288506	34.901	
C	 0.432795722	 1.3615677015	 0.0276695492	-0.469189
C	-0.0598743703	-0.0708288115	-0.0092692174	 0.228421
C	 0.4629814669	-1.0277230775	-1.0082814501	-0.273286
N	 0.8303545527	-1.1683763402	 0.4199189394	-0.360435
C	-1.511673306	-0.2147580713	 0.4414985187	 0.324393
O	-2.415186132	-0.198005559	-0.353854118	-0.285371
C	-1.7630688968	-0.3016878691	 1.9490265568	 0.253749
N	-1.1321550867	-1.3573566537	 2.5600562278	-0.537234
N	-2.5371164704	 0.581427822	 2.4513600838	-0.505871
H	 1.4736383397	 1.4176853389	-0.3088630102	 0.116111
H	-0.174980562	 1.992179096	-0.6280868735	 0.153667
H	 0.3707074465	 1.7736874787	 1.0401787167	 0.143413
H	-0.1833647019	-1.8084481361	-1.3955713368	 0.1415
H	 1.2261855393	-0.6797776254	-1.6988843916	 0.120981
H	 1.7705779543	-0.8140962299	 0.5814486559	 0.235763
H	-0.3362142293	-1.7584575912	 2.0772346953	 0.271255
H	-1.112911288	-1.3735552269	 3.5686303537	 0.242439
H	-2.631118338	 0.4559804646	 3.4632119201	 0.199695
16.3012	47.2357	174.9902	209.009	226.5039	281.8832	288.3809	341.5735	358.1956	418.3049	460.5847	558.5016	585.9203	626.0366	710.9022	803.9976	822.7052	863.5859	874.4914	935.292	976.1125	997.1724	1048.1542	1058.2188	1123.7156	1125.0429	1138.2051	1157.5202	1269.6464	1317.1277	1377.4448	1409.2298	1413.7308	1479.8056	1499.6087	1514.2243	1639.9044	1713.9901	1822.115	3031.6441	3103.5036	3112.7245	3119.8683	3210.7752	3422.5924	3488.8314	3501.6635	3652.7639
CC1(CN1)C(=O)C(N)=N	C[C@]1(CN1)C(=O)C(=N)N	
InChI=1S/C5H9N3O/c1-5(2-8-5)3(9)4(6)7/h8H,2H2,1H3,(H3,6,7)	InChI=1S/C5H9N3O/c1-5(2-8-5)3(9)4(6)7/h8H,2H2,1H3,(H3,6,7)/t5-/m0/s1
