18
gdb 88282	3.61928	1.03537	0.93445	4.5251	74.66	-0.2491	-0.0091	0.2401	1300.7197	0.14602	-439.057	-439.047972	-439.047028	-439.091619	32.227	
C	 0.0331653877	 1.3705581638	 0.261236491	-0.402163
C	-0.1065637761	-0.1127442055	 0.0145441364	 0.017497
C	 1.0973746031	-0.9686899035	-0.28528187	-0.26365
N	 0.3838545386	-1.0757645714	 0.9732891004	-0.096235
C	 0.8548289343	-0.8150719083	 2.2485454794	 0.380068
O	 0.3032712296	-0.0679254764	 3.026341519	-0.356564
C	 2.0799027548	-1.617460354	 2.6188932086	-0.026584
C	 3.0624279877	-1.0131859253	 3.5401289451	-0.164754
O	 2.1617055531	-2.0126774458	 3.9852821969	-0.207535
H	 1.0280854738	 1.6213348562	 0.6395449277	 0.122817
H	-0.1302312922	 1.9190816827	-0.6717861375	 0.121484
H	-0.6964172943	 1.7102085602	 1.0003996216	 0.154445
H	-1.0425516173	-0.4131097104	-0.4542336959	 0.106942
H	 1.0168468216	-1.8195758023	-0.9568905602	 0.128631
H	 2.0675004921	-0.4755624311	-0.2805267665	 0.127992
H	 2.4098729614	-2.367475766	 1.9025234651	 0.103741
H	 4.1078148556	-1.3105681178	 3.4685749529	 0.117522
H	 2.8627823166	-0.0124072752	 3.9173341063	 0.136345
47.3765	84.3159	132.3919	172.8992	206.965	264.588	298.2079	370.109	381.3424	459.0771	605.8347	742.9947	771.3733	835.5992	856.4952	894.6865	911.5389	930.4191	1015.4571	1043.4824	1066.5815	1100.6597	1112.2205	1124.999	1160.0229	1162.0996	1165.6666	1183.4093	1192.0683	1279.4096	1372.3437	1405.8342	1419.5526	1447.1936	1483.5412	1490.979	1507.2214	1513.9611	1786.0992	3044.9179	3087.11	3097.2915	3108.4266	3122.6203	3131.0242	3131.2417	3186.7491	3186.8726
CC1CN1C(=O)C1CO1	C[C@H]1CN1C(=O)[C@H]1CO1	
InChI=1S/C6H9NO2/c1-4-2-7(4)6(8)5-3-9-5/h4-5H,2-3H2,1H3	InChI=1S/C6H9NO2/c1-4-2-7(4)6(8)5-3-9-5/h4-5H,2-3H2,1H3/t4-,5+,7?/m0/s1
