16
gdb 43186	2.32098	2.1277	1.28312	2.2693	68.87	-0.2278	-0.0317	0.1961	958.5057	0.125092	-437.822219	-437.815131	-437.814186	-437.853806	27.564	
O	 0.0782105345	-0.0057366054	-0.1708519536	-0.303754
C	 0.0366507128	 1.1844664928	-0.069939951	 0.44724
C	-1.109459534	 2.2010107481	 0.1200951502	-0.279241
C	-1.6561497839	 2.8370408608	-1.1945407684	-0.114679
O	-0.7353169214	 3.95906457	-1.1066726381	-0.321081
C	-0.0875108248	 3.3641365496	-0.0070297772	 0.475204
C	 0.6422386501	 4.033110539	 1.1448339115	-0.264088
N	 1.4169445175	 2.7652891269	 1.2930776552	-0.324485
C	 1.0832829513	 2.3218858369	-0.1003493724	-0.228378
H	-1.8221699892	 2.0653460424	 0.9321711808	 0.107846
H	-1.5127368006	 2.2573101472	-2.112353083	 0.125194
H	-2.6940062029	 3.1750800406	-1.1306137744	 0.127063
H	 1.2419258932	 4.88622589	 0.7979753508	 0.112412
H	 0.0635865829	 4.3288601328	 2.0255691535	 0.113771
H	 2.409954613	 2.8849000227	 1.4489946571	 0.236876
H	 1.8933531715	 2.3292869357	-0.8334992209	 0.0901
99.8203	190.5906	235.6688	295.5979	338.702	432.2829	486.9296	607.6933	638.1832	717.1241	721.9037	832.1673	875.2642	901.2759	952.683	966.9625	983.153	990.8602	1015.5632	1047.1494	1076.1978	1104.8159	1123.9857	1153.9104	1164.2495	1202.4968	1240.6253	1251.1757	1282.6751	1329.5518	1355.2577	1373.9632	1508.9918	1516.4879	1890.8916	3009.4609	3043.2144	3076.7305	3086.8957	3097.8146	3129.9905	3560.1259
O=C1C2COC22CNC12	O=C1[C@@H]2CO[C@]32CN[C@@H]13	
InChI=1S/C6H7NO2/c8-4-3-1-9-6(3)2-7-5(4)6/h3,5,7H,1-2H2	InChI=1S/C6H7NO2/c8-4-3-1-9-6(3)2-7-5(4)6/h3,5,7H,1-2H2/t3-,5-,6-/m0/s1
