18
gdb 35630	3.27265	1.36832	1.07257	1.5087	82.79	-0.2301	0.0104	0.2405	1127.1528	0.149032	-364.763951	-364.756149	-364.755204	-364.796076	31.101	
C	 0.098244477	-1.217312647	 0.0798829252	-0.456889
C	 0.049762283	-0.0164593491	 0.0492880288	 0.319139
C	-0.002628093	 1.4427540397	 0.0214465256	-0.177962
C	-0.8384011215	 2.0037623851	 1.2055251441	-0.260666
C	-0.7404119858	 3.5031359725	 1.3107477637	-0.101156
C	 0.3620553278	 4.1697847318	 0.9656559297	-0.008714
C	 1.5560931755	 3.460179783	 0.4437865962	-0.09896
N	 2.0546663275	 2.3093150914	 1.2533679613	-0.326522
C	 1.3944514493	 2.0563345503	-0.0259589519	-0.028504
H	 0.1386090024	-2.2779447377	 0.1052539833	 0.191758
H	-0.5004614597	 1.7504113574	-0.9097157488	 0.106662
H	-1.8789375486	 1.6882833558	 1.0831100519	 0.109051
H	-0.4764590301	 1.5420686734	 2.1304450895	 0.143918
H	-1.6003749024	 4.0363403169	 1.7060800739	 0.091174
H	 0.4141336124	 5.2504105453	 1.0583350516	 0.088113
H	 2.3053942589	 4.0696530623	-0.053790766	 0.084388
H	 3.0625008218	 2.2232789805	 1.1495337007	 0.232827
H	 2.0032319754	 1.7265349583	-0.864687929	 0.092343
98.5132	141.4375	219.6435	278.9791	336.8312	409.5853	487.7516	515.9974	531.5887	616.0932	635.3751	647.436	708.5006	718.402	817.904	859.7905	894.0996	910.2244	947.6318	973.8484	981.0003	1011.4074	1029.8834	1072.318	1112.6051	1162.2143	1177.0046	1203.421	1237.7107	1259.3206	1301.8588	1329.9	1342.3053	1387.874	1421.9396	1455.3531	1474.9957	1710.425	2235.3343	3000.3334	3049.3229	3086.8562	3131.3848	3144.4573	3159.1344	3181.9527	3502.0111	3505.3243
C#CC1CC=CC2NC12	C#C[C@H]1CC=C[C@H]2N[C@@H]12	
InChI=1S/C8H9N/c1-2-6-4-3-5-7-8(6)9-7/h1,3,5-9H,4H2	InChI=1S/C8H9N/c1-2-6-4-3-5-7-8(6)9-7/h1,3,5-9H,4H2/t6-,7+,8-/m0/s1
