17
gdb 53252	4.15729	0.77947	0.76126	1.0583	87.93	-0.228	0.0254	0.2534	1566.1559	0.131734	-384.611963	-384.601725	-384.600781	-384.648705	36.31	
C	 0.0208844189	 1.4665239812	-0.0310703848	-0.50006
C	 0.0037485106	 0.0127229467	 0.0275117033	 0.106189
C	-0.0230527811	-1.1904201	 0.0742813481	 0.086961
C	-0.0206898599	-2.6219683903	 0.1133656697	-0.270508
C	-0.5947583057	-3.3774957395	 1.3016145555	-0.340414
C	-1.3321615308	-3.4007061075	-0.0213079142	 0.212421
O	-2.4730784087	-2.6040483639	-0.1474114945	-0.434697
C	-1.3299193422	-4.6113032517	-0.8017579249	 0.28436
C	-1.3581789434	-5.6296839655	-1.4415132207	-0.459195
H	 0.7469088039	 1.825444539	-0.7691026646	 0.14746
H	-0.9609531176	 1.8618929074	-0.3145202352	 0.150846
H	 0.2885558352	 1.9052105429	 0.9368601536	 0.145173
H	 0.8235937616	-3.0989465725	-0.3751224148	 0.126452
H	-0.0857334871	-4.2758840912	 1.6300408758	 0.126518
H	-1.0544596712	-2.7763351516	 2.0770503773	 0.130969
H	-3.2215402177	-3.1139387027	 0.1828864227	 0.289348
H	-1.3776482146	-6.5215270409	-2.0176068123	 0.198176
15.7213	74.0411	81.6523	161.0297	193.2831	246.11	273.3381	302.2074	371.8371	386.5798	447.0898	515.5911	553.8058	584.7168	609.7264	677.2457	693.4322	738.873	859.0875	911.0267	940.1047	1007.4415	1051.3449	1053.933	1060.2915	1109.337	1198.6325	1234.6388	1255.2083	1340.6366	1404.7242	1415.1497	1466.2355	1477.2265	1478.595	2230.4157	2373.0296	3024.3082	3083.4298	3086.138	3142.1847	3152.431	3243.2328	3502.0167	3797.4017
CC#CC1CC1(O)C#C	CC#C[C@H]1C[C@]1(O)C#C	
InChI=1S/C8H8O/c1-3-5-7-6-8(7,9)4-2/h2,7,9H,6H2,1H3	InChI=1S/C8H8O/c1-3-5-7-6-8(7,9)4-2/h2,7,9H,6H2,1H3/t7-,8+/m0/s1
