19
gdb 57095	2.53708	1.30273	1.11596	1.2334	76.03	-0.2497	0.0476	0.2973	1180.6484	0.15832	-422.991023	-422.981854	-422.98091	-423.025362	33.498	
C	-0.0288934535	 1.5466556901	-0.0138528036	-0.391608
C	 0.0667620928	 0.008020887	-0.0208595675	-0.175978
C	 0.7855062479	-0.468736571	-1.2023491836	 0.34457
C	 1.3727557977	-0.8469839111	-2.1812066239	-0.485468
C	 0.7001454794	-0.5066717178	 1.290220491	 0.114073
C	 0.8326514591	-2.0421072516	 1.4020418822	-0.14085
O	 2.0991328736	-2.2258253759	 2.0180205205	-0.237208
C	 2.8843316656	-1.1689824097	 1.5324187703	 0.024674
O	 2.0383550253	-0.036348758	 1.4421340812	-0.266368
H	 0.9688779564	 1.9818543079	 0.0731933489	 0.147305
H	-0.4914188041	 1.9104211313	-0.9343119967	 0.124417
H	-0.6311420826	 1.8842819455	 0.8355429464	 0.113779
H	-0.954302463	-0.4010185219	-0.0538287365	 0.105695
H	 1.8876267721	-1.1820775517	-3.0474710041	 0.199217
H	 0.1067952822	-0.1060608533	 2.1230570059	 0.083445
H	 0.0709177371	-2.4959826483	 2.0392665512	 0.117073
H	 0.8057523629	-2.5110007813	 0.4084608901	 0.112131
H	 3.6891338789	-0.9667651834	 2.2457245846	 0.116164
H	 3.2990182719	-1.4064098868	 0.5384067938	 0.094938
64.0616	81.2712	148.4766	185.5262	216.0109	246.8936	278.6032	360.7921	378.0351	549.3801	622.6555	639.2322	646.1995	674.2919	742.8264	791.4132	886.1765	958.4019	973.3273	1010.3059	1023.7937	1029.9615	1096.8671	1116.3857	1132.955	1152.8067	1183.7076	1215.5472	1267.1366	1298.3586	1313.3475	1339.1528	1373.3633	1390.1779	1405.8931	1437.1246	1491.7792	1502.3659	1508.9182	1544.8891	2231.5589	2964.2169	2995.5485	3009.7688	3016.1003	3046.2089	3081.5915	3109.1337	3119.1301	3139.7298	3502.8597
CC(C#C)C1COCO1	C[C@@H](C#C)[C@H]1COCO1	
InChI=1S/C7H10O2/c1-3-6(2)7-4-8-5-9-7/h1,6-7H,4-5H2,2H3	InChI=1S/C7H10O2/c1-3-6(2)7-4-8-5-9-7/h1,6-7H,4-5H2,2H3/t6-,7+/m0/s1
