18
gdb 65899	2.73608	1.23631	1.11219	3.8576	77.07	-0.2858	-0.0819	0.2039	1171.9713	0.14622	-401.964361	-401.955126	-401.954182	-401.999011	33.241	
C	-0.123090943	 1.5743169957	 0.129871646	-0.4753
C	-0.0334213481	 0.0447079004	 0.0731325127	 0.224225
C	 1.0475287548	-0.4691124453	-0.95101075	-0.26738
C	 1.993912387	-0.7482331644	 0.2485204466	-0.21034
C	 0.795051148	-0.5940187976	 1.222581059	-0.273863
C	-1.394542489	-0.565911984	-0.1474198466	 0.251023
O	-1.9376913384	-1.3673154446	 0.5707832572	-0.278682
C	-2.0689362092	-0.1362161344	-1.4005441723	 0.234726
N	-2.5835877719	 0.2008553721	-2.3798134986	-0.313516
H	 0.8789863965	 2.0004280889	 0.2356225375	 0.13126
H	-0.5682910697	 1.9855566281	-0.7814870529	 0.146498
H	-0.7213178547	 1.9026349673	 0.9861764266	 0.13364
H	 0.7402319308	-1.3831858427	-1.4659653682	 0.119607
H	 1.372659047	 0.2579322722	-1.698101364	 0.117554
H	 2.502204574	-1.7138939679	 0.2475659113	 0.112251
H	 2.7450055906	 0.0347538456	 0.3757296572	 0.112072
H	 0.9442297539	 0.0317605259	 2.1050934879	 0.107213
H	 0.3697783915	-1.5482222452	 1.5384053106	 0.129013
39.4346	96.636	127.3076	182.0845	249.0568	264.2813	306.9649	319.1014	343.8108	473.6652	499.7368	654.1717	704.8114	758.9335	801.4825	834.1058	870.1604	925.9541	938.3226	948.773	994.9102	1030.1226	1067.5976	1156.3069	1189.5409	1216.0415	1235.8507	1259.0086	1274.803	1279.0625	1312.3567	1411.7019	1476.6841	1484.3993	1494.8399	1498.3064	1506.2755	1788.0158	2334.1206	3034.5863	3062.0677	3070.3308	3076.2762	3107.4306	3110.8283	3112.0288	3123.8568	3137.0123
CC1(CCC1)C(=O)C#N	CC1(CCC1)C(=O)C#N	
InChI=1S/C7H9NO/c1-7(3-2-4-7)6(9)5-8/h2-4H2,1H3	InChI=1S/C7H9NO/c1-7(3-2-4-7)6(9)5-8/h2-4H2,1H3
