17
gdb 53915	1.69316	1.54913	1.32753	2.015	80.61	-0.2454	-0.0281	0.2173	1132.3987	0.129946	-384.637812	-384.627217	-384.626273	-384.674105	37.834	
C	-0.0578746331	 1.51327147	-0.0249943909	-0.488287
C	 0.040811732	 0.0064067331	 0.0278437259	 0.384016
O	 1.0836580551	-0.5893824733	 0.0759194227	-0.285324
C	-1.323710985	-0.7984863924	 0.0185579641	-0.2076
C	-1.0263443297	-2.3162917148	-0.011675058	-0.403395
C	-2.0502104565	-0.4458052532	 1.2447933289	 0.335235
C	-2.6038192845	-0.1709363278	 2.2753617476	-0.473801
C	-2.0899343851	-0.4047943995	-1.1697806997	 0.331831
C	-2.6830214708	-0.1027607775	-2.1702720885	-0.471408
H	 0.93410483	 1.9457384382	 0.106628132	 0.143361
H	-0.4710554504	 1.8185605739	-0.9910661236	 0.161027
H	-0.7404882999	 1.8788645258	 0.7467661074	 0.157436
H	-0.4300250296	-2.5919855514	 0.8589543553	 0.140454
H	-1.9642533291	-2.8742642818	-0.0040659518	 0.130143
H	-0.4636405697	-2.5639698453	-0.913141017	 0.137155
H	-3.1093221354	 0.070248665	 3.1779370876	 0.204899
H	-3.2216813282	 0.1650535411	-3.0457432321	 0.204258
20.8602	99.0446	119.5718	140.6803	160.3879	223.3017	233.1448	273.1169	373.2896	393.1543	472.4953	476.4006	559.6502	570.1266	599.8129	636.553	637.9265	644.8893	646.4276	650.9914	850.7758	938.1036	958.4697	1046.0561	1091.6149	1150.4042	1182.0419	1198.7274	1381.0968	1404.0731	1463.7275	1470.7079	1479.143	1484.8955	1832.398	2229.1851	2235.2938	3055.6557	3065.2602	3123.6685	3150.0985	3155.3881	3160.9955	3499.5194	3500.3636
CC(=O)C(C)(C#C)C#C	CC(=O)C(C)(C#C)C#C	
InChI=1S/C8H8O/c1-5-8(4,6-2)7(3)9/h1-2H,3-4H3	InChI=1S/C8H8O/c1-5-8(4,6-2)7(3)9/h1-2H,3-4H3
