19
gdb 33174	3.41638	1.04177	0.85457	3.0103	78.66	-0.1876	0.0312	0.2188	1382.5298	0.159627	-419.234948	-419.225915	-419.224971	-419.269836	33.024	
C	 0.028996368	 1.5304028903	 0.0540449284	-0.380488
C	 0.0277760464	 0.0006784045	 0.0168875338	-0.174212
C	-1.3941588519	-0.571880594	-0.0304309883	-0.152281
N	-1.4298165695	-2.0225317699	-0.0447719096	-0.085557
C	-1.478921284	-2.8685427781	-1.1508145949	-0.119596
C	-1.4446408856	-4.1240883516	-0.6936726884	-0.059074
O	-1.3633734293	-4.1081780462	 0.6890829971	-0.22238
C	-1.3418852526	-2.7903553138	 1.0989565421	 0.466382
N	-1.2577555056	-2.3502302471	 2.288087774	-0.621685
H	 1.0492132532	 1.9222418545	 0.0974502295	 0.118717
H	-0.4519865052	 1.9544624023	-0.8349641936	 0.11166
H	-0.508230325	 1.9044491931	 0.932302309	 0.124857
H	 0.5894802509	-0.3572325543	-0.8549137312	 0.095279
H	 0.525750255	-0.4000008859	 0.9058327861	 0.133009
H	-1.9532765149	-0.2468076323	 0.8524317598	 0.143681
H	-1.9272499689	-0.2124724454	-0.9178734767	 0.105808
H	-1.5453352195	-2.4888669297	-2.1561079294	 0.144998
H	-1.4712070295	-5.0878677031	-1.1686361275	 0.147577
H	-1.2219010319	-3.1159126431	 2.95482607	 0.223306
41.6421	75.3683	87.0724	220.153	237.6696	278.8422	292.9307	364.9491	497.7116	574.5459	664.7706	697.0256	709.9833	745.5969	748.8447	778.5629	793.7022	875.3504	899.2462	915.9819	995.7513	1042.6454	1053.8459	1100.6533	1124.296	1156.0564	1214.1125	1255.0292	1277.7389	1316.5562	1333.0332	1389.5405	1407.4855	1416.8163	1448.8422	1478.7914	1491.9213	1501.7151	1508.4686	1658.0864	1767.317	3029.9475	3030.9392	3042.0658	3074.9292	3092.795	3107.1647	3109.3904	3281.3063	3314.708	3546.4198
CCCN1C=COC1=N	CCCN1C=CO[C@H]1[NH]	
InChI=1S/C6H10N2O/c1-2-3-8-4-5-9-6(8)7/h4-5,7H,2-3H2,1H3	InChI=1S/C6H11N2O/c1-2-3-8-4-5-9-6(8)7/h4-7H,2-3H2,1H3/t6-/m0/s1
