12
gdb 35161	2.60288	1.33154	1.00798	4.1069	73.35	-0.2822	-0.0414	0.2408	1129.7747	0.073518	-398.2505	-398.24189	-398.240946	-398.283888	30.953	
C	-0.1490649378	-1.1991888505	 0.0210684034	-0.376531
C	-0.0488374015	-0.0023616154	 0.0215565573	 0.349737
C	 0.0252776141	 1.4280833043	-0.0053897646	-0.232722
O	 0.53326193	 2.1065163148	 1.1442507269	-0.243439
C	 1.348070395	 2.1473289677	-0.032149138	 0.107264
C	 2.5937271006	 1.4305346073	-0.0099032328	 0.274184
C	 3.6444211052	 0.8506202348	-0.0112025388	-0.372609
C	 1.3842711875	 3.4386775375	-0.7017221807	 0.238562
N	 1.4030235639	 4.4565066205	-1.2475895676	-0.323467
H	-0.2290082833	-2.2588611711	 0.0260742806	 0.216153
H	-0.8040281378	 1.9405192645	-0.4915078691	 0.146591
H	 4.5729712441	 0.3336765955	-0.0051858165	 0.216276
97.8102	110.0693	131.9918	204.9285	230.4735	266.1047	412.5273	466.9527	483.9709	569.9258	587.7784	630.8777	647.8578	655.4395	669.6341	686.7003	690.1709	842.2201	910.9614	1023.3165	1065.9859	1209.6524	1291.9223	1396.3685	2246.8112	2252.6111	2363.9894	3125.9443	3498.3484	3499.2583
C#CC1OC1(C#C)C#N	C#C[C@H]1O[C@]1(C#C)C#N	
InChI=1S/C7H3NO/c1-3-6-7(4-2,5-8)9-6/h1-2,6H	InChI=1S/C7H3NO/c1-3-6-7(4-2,5-8)9-6/h1-2,6H/t6-,7-/m1/s1
