17
gdb 34757	4.91265	1.23055	1.12516	4.6742	76.96	-0.2509	0.0094	0.2603	1080.7441	0.13884	-380.823675	-380.816881	-380.815937	-380.854851	27.065	
N	-0.0578134129	-1.1865190241	-0.1742394205	-0.33063
C	-0.0267867848	-0.0344586002	-0.0829514724	 0.287787
C	-0.0240913481	 1.4178335734	 0.0338398325	-0.118495
C	-0.0167408165	 2.0764619446	 1.4260491438	-0.080489
C	 1.4701481017	 1.6422101829	 1.5342139215	 0.018742
C	 2.2950674694	 2.7004295897	 2.2484409084	-0.24325
C	 1.6529593045	 3.9692962954	 1.6240213132	-0.247163
C	 0.632181789	 3.2961765357	 0.7211256444	 0.02784
N	 1.3564146787	 2.0963948661	 0.0488656341	-0.164019
H	-0.6943707537	 1.8463157955	-0.7169252774	 0.11912
H	-0.8036233072	 2.0518934285	 2.1869750253	 0.080572
H	 1.725228878	 0.5911598062	 1.6700297887	 0.104641
H	 2.1796113452	 2.6442320175	 3.3343185327	 0.111113
H	 3.3581233953	 2.6030629222	 2.0142164599	 0.121652
H	 1.1782152982	 4.6239886135	 2.360171938	 0.110256
H	 2.3644342539	 4.5658153777	 1.0473432485	 0.120744
H	 0.0426278592	 3.9106922554	 0.0379656492	 0.081579
138.5799	150.4126	245.6968	357.6471	382.7222	499.5351	554.107	702.743	713.8481	744.0217	771.2014	819.4205	850.3079	887.8877	936.2882	943.4816	976.1705	989.0583	1019.5294	1034.7773	1054.9089	1103.307	1117.3794	1147.7504	1152.8531	1211.9086	1229.621	1252.3886	1263.1519	1270.6591	1302.054	1319.7927	1365.9876	1398.3907	1477.4747	1498.6933	2353.6909	3051.6594	3060.578	3068.4212	3073.6167	3100.5535	3104.9325	3118.1412	3128.1621
N#CC1C2C3CCC2N13	N#C[C@H]1[C@H]2[C@@H]3CC[C@H]2N13	
InChI=1S/C7H8N2/c8-3-6-7-4-1-2-5(7)9(4)6/h4-7H,1-2H2	InChI=1S/C7H8N2/c8-3-6-7-4-1-2-5(7)9(4)6/h4-7H,1-2H2/t4-,5+,6-,7-/m0/s1
