19
gdb 56319	7.337	0.48589	0.4609	3.2744	74.21	-0.2541	-0.0289	0.2252	2271.5063	0.153742	-460.180097	-460.169029	-460.168085	-460.219233	35.942	
C	-0.1219354535	 1.5027719243	 0.1119680099	-0.473453
C	 0.0588449757	-0.0020327728	 0.0414938122	 0.378939
O	 1.1539174821	-0.5176714346	 0.0184353721	-0.291028
C	-1.2142340987	-0.8343114181	 0.0010745668	-0.318413
C	-0.9414910355	-2.3285193262	-0.0688798715	-0.050567
O	-2.189142115	-2.9963457458	-0.1015137743	-0.254592
C	-2.0720019645	-4.3931436749	-0.1670048066	-0.145104
C	-3.4699628739	-4.9859281009	-0.1963050523	 0.139412
O	-3.693922233	-6.1653534878	-0.2516474245	-0.23661
H	 0.8524358986	 1.991763125	 0.1359272988	 0.145776
H	-0.6932494127	 1.8594365679	-0.7524310184	 0.140907
H	-0.6950387877	 1.7769146334	 1.0048258181	 0.140908
H	-1.8221556992	-0.6023244925	 0.8852363781	 0.131974
H	-1.8203959386	-0.520347848	-0.8586469249	 0.13197
H	-0.3479868657	-2.5682765187	-0.9635657901	 0.108751
H	-0.3497457839	-2.6511843945	 0.8005535155	 0.108756
H	-1.5279668528	-4.7227900117	-1.068691689	 0.1239
H	-1.5297672655	-4.8059323158	 0.7008973504	 0.123904
H	-4.2770812461	-4.2209591082	-0.1615291302	 0.094571
33.4673	39.0474	60.4008	80.3838	103.5371	122.3002	131.5146	195.1678	276.1261	373.0267	458.6111	480.8919	557.6464	601.0795	738.8032	764.0536	842.3612	938.6826	938.8322	1018.0946	1057.1692	1110.1447	1114.1573	1126.4079	1166.5478	1190.4478	1218.2177	1239.8735	1301.0346	1327.4829	1353.2219	1386.2021	1401.6662	1432.9276	1456.5613	1466.7456	1477.2	1484.0975	1520.4526	1807.4933	1846.0595	2896.7578	2960.5255	2988.5963	2992.4944	3021.4995	3029.9085	3039.4272	3065.5649	3098.3724	3153.8598
CC(=O)CCOCC=O	CC(=O)CCOCC=O	
InChI=1S/C6H10O3/c1-6(8)2-4-9-5-3-7/h3H,2,4-5H2,1H3	InChI=1S/C6H10O3/c1-6(8)2-4-9-5-3-7/h3H,2,4-5H2,1H3
