22
gdb 117709	3.83531	0.81944	0.79855	4.5221	80.46	-0.247	0.0314	0.2784	1542.7142	0.191117	-441.505098	-441.493959	-441.493015	-441.541416	39.513	
C	-0.112036298	 1.4289322026	 0.0107221783	-0.22882
O	-0.0093866171	 0.0244644209	 0.0022533751	-0.231214
C	-1.2560737651	-0.6207746055	 0.0107452593	-0.087416
C	-1.0395827872	-2.1449479894	 0.0004817896	 0.251265
C	-0.2905121801	-2.5638106375	-1.2757967535	-0.404681
C	-0.2662497925	-2.5774139549	 1.2576088495	-0.404681
N	-2.397499524	-2.723538567	 0.0103802766	-0.314161
C	-2.6946852087	-4.0477284918	 0.0060931014	 0.160346
O	-1.8956909626	-4.9621377898	-0.0065306868	-0.333147
H	 0.904170679	 1.8292738846	 0.0031324394	 0.133023
H	-0.6499103667	 1.8033785214	-0.8742940888	 0.107432
H	-0.6328377839	 1.7938695618	 0.9098100506	 0.107432
H	-1.8334743101	-0.3358354201	 0.909298188	 0.083542
H	-1.8505693201	-0.3262563946	-0.8734579472	 0.083536
H	 0.6865039486	-2.0768933306	-1.3065386389	 0.128928
H	-0.1593993396	-3.6463855015	-1.2947890648	 0.150464
H	-0.8533845714	-2.2652920487	-2.1663173892	 0.102354
H	-0.8119408344	-2.288542545	 2.1618983827	 0.102358
H	-0.1348965075	-3.6601142242	 1.2624586945	 0.150461
H	 0.7112177468	-2.0907382486	 1.2748619915	 0.12893
H	-3.18133444	-2.0889117555	 0.0211718578	 0.241117
H	-3.7922569355	-4.2136529063	 0.015571355	 0.072934
57.503	93.2574	107.9326	131.4006	192.3803	226.1519	229.4204	246.0578	265.2087	310.3984	336.2387	352.2775	420.0742	420.6415	517.8748	525.6345	745.0477	833.7758	907.9447	925.3439	970.04	994.8554	1029.8615	1039.3017	1055.2821	1167.1141	1179.3081	1190.7068	1219.9043	1220.2497	1241.193	1285.2722	1303.0361	1389.5727	1397.4034	1428.3166	1436.288	1480.3589	1481.4273	1486.609	1493.1892	1496.4268	1500.9031	1514.0999	1531.5224	1536.6168	1800.268	2913.3105	2928.4742	2959.5773	2974.0685	3019.3664	3045.2072	3049.1885	3119.8215	3120.5391	3123.5272	3152.3562	3156.4527	3615.2276
COCC(C)(C)NC=O	COCC(C)(C)NC=O	
InChI=1S/C6H13NO2/c1-6(2,4-9-3)7-5-8/h5H,4H2,1-3H3,(H,7,8)	InChI=1S/C6H13NO2/c1-6(2,4-9-3)7-5-8/h5H,4H2,1-3H3,(H,7,8)
