17
gdb 129574	3.99107	1.00608	0.87724	3.8651	69.6	-0.2246	0.0074	0.232	1300.1324	0.138374	-451.334209	-451.325491	-451.324547	-451.368409	31.454	
N	 0.0609240896	 1.5204358992	-0.0240296753	-0.522787
C	 0.0247000291	 0.0610948158	 0.0238112106	-0.065484
C	 0.6146175332	-0.6173611655	-1.2270924799	-0.09098
O	-0.1175860464	-0.126822756	-2.3417364959	-0.423308
C	 0.7229576962	-0.4556996074	 1.2455666304	 0.364329
N	 1.6368051319	 0.244056482	 1.9014113129	-0.279036
N	 2.011454805	-0.615331648	 2.8793586114	-0.176381
C	 1.324808022	-1.7692536533	 2.7736097756	 0.013207
N	 0.5005978504	-1.7091610384	 1.7477520991	-0.304954
H	 1.0083781752	 1.8401073126	 0.1573412897	 0.233747
H	-0.1787928866	 1.8041043317	-0.9697368758	 0.236108
H	-1.0241394601	-0.2564652956	 0.0835552129	 0.109071
H	 1.6835987718	-0.3609730701	-1.3039059637	 0.082375
H	 0.526524261	-1.7095149319	-1.1335136442	 0.104204
H	 0.2840875612	-0.4692924394	-3.1447952363	 0.289654
H	 2.6960800897	-0.3330252859	 3.5611436289	 0.28272
H	 1.4531594267	-2.60041138	 3.4507352996	 0.147514
39.1737	121.0578	130.74	223.2457	241.2065	292.6587	312.5429	375.8157	425.9771	517.9556	536.5238	679.9477	740.6847	807.7527	856.29	878.7856	932.7267	996.6874	1007.5933	1055.0456	1082.4824	1104.9125	1147.5887	1164.6593	1196.9497	1223.146	1257.9084	1293.9721	1337.0483	1354.8764	1406.9842	1439.2496	1471.1203	1504.358	1514.9529	1557.6587	1652.8619	2970.5436	3016.8187	3038.4696	3258.4872	3490.1741	3574.009	3666.8708	3840.756
NC(CO)C1=NNC=N1	N[C@@H](CO)c1n[nH]cn1	
InChI=1S/C4H8N4O/c5-3(1-9)4-6-2-7-8-4/h2-3,9H,1,5H2,(H,6,7,8)	InChI=1S/C4H8N4O/c5-3(1-9)4-6-2-7-8-4/h2-3,9H,1,5H2,(H,6,7,8)/t3-/m0/s1
