13
gdb 25178	3.15478	1.50778	1.02019	4.3018	79.8	-0.2308	-0.0742	0.1567	1070.3793	0.089058	-419.452554	-419.445199	-419.444254	-419.484505	27.802	
O	-0.0756528712	-0.0435087783	 0.0044551771	-0.319238
C	 0.0091999758	 1.1501793327	 0.0092790077	 0.389567
O	-1.1919361824	 1.8867364184	 0.0286810492	-0.210664
C	-1.2267025346	 3.2252136115	 0.0358482574	 0.087685
C	-0.1134567743	 3.9884494363	 0.0251258113	-0.182213
C	 1.1471423453	 3.3295949545	 0.0053611024	-0.133511
C	 1.2315964942	 1.9637032072	-0.0025889655	-0.117566
C	 2.4715142812	 1.2765891378	-0.0222258609	 0.272051
C	 3.5308522184	 0.7047638649	-0.0388547478	-0.388159
H	-2.2420115133	 3.6039668156	 0.0510171191	 0.148707
H	-0.1911237285	 5.0667938533	 0.0315476027	 0.123325
H	 2.0612408284	 3.913329576	-0.0036478083	 0.128489
H	 4.4582040709	 0.1874969202	-0.0533368344	 0.201527
98.8756	143.8444	189.9396	345.721	402.458	463.7832	480.6616	549.2909	561.405	580.0232	597.304	658.8301	717.5773	787.5569	801.4633	877.6576	938.7583	967.8268	969.9528	1072.5083	1112.8058	1224.026	1285.882	1357.4047	1446.0233	1579.9912	1661.0404	1849.4762	2227.8742	3195.4266	3208.0492	3235.9754	3502.5177
O=C1OC=CC=C1C#C	O=c1occcc1C#C	
InChI=1S/C7H4O2/c1-2-6-4-3-5-9-7(6)8/h1,3-5H	InChI=1S/C7H4O2/c1-2-6-4-3-5-9-7(6)8/h1,3-5H
