19
gdb 73209	2.42905	1.7884	1.45592	3.2563	75.6	-0.2266	0.0357	0.2622	993.8199	0.161123	-419.200131	-419.192248	-419.191303	-419.232428	30.678	
C	-0.0935326004	 1.5325800846	-0.0052714521	-0.452138
C	-0.0105309575	 0.0218788876	 0.0247576557	 0.399251
C	-1.2489109989	-0.8059264859	 0.4543539159	-0.201454
N	-0.3462336084	-1.7033635453	 1.210641472	-0.320962
C	 0.7316826136	-0.684404495	 1.1937197028	-0.042623
C	 2.13034434	-1.1992991915	 0.8900888228	-0.166091
N	 2.3333275892	-1.6283738433	-0.4861984285	-0.26544
C	 1.5275684533	-1.2232438558	-1.3674426683	 0.131836
O	 0.439326822	-0.4169001946	-1.2681039336	-0.278853
H	 0.8998429004	 1.9693658949	-0.150139804	 0.128075
H	-0.7319159063	 1.8625550756	-0.830629183	 0.132125
H	-0.5080284206	 1.9165784662	 0.931175882	 0.117048
H	-1.9397496372	-0.2145557386	 1.0717799879	 0.089126
H	-1.8051470404	-1.2876986141	-0.3554001601	 0.111839
H	-0.6690708157	-1.9791193714	 2.1310249622	 0.218723
H	 0.7422997841	-0.0368234513	 2.0832539527	 0.061383
H	 2.866772048	-0.4153221917	 1.1177359213	 0.107457
H	 2.365130192	-2.0411593429	 1.552653591	 0.111405
H	 1.658259793	-1.5093103774	-2.4097959568	 0.119294
89.3144	139.0412	215.6379	249.4653	333.9991	356.4493	397.257	491.5172	506.0186	602.5203	629.0822	691.7099	805.3074	850.8028	873.162	910.5354	945.8543	968.0754	977.6466	987.5433	1027.8687	1046.0625	1099.4589	1141.6685	1169.0085	1181.8546	1197.0543	1236.4146	1249.3847	1275.5505	1340.3771	1366.3185	1379.9174	1390.4721	1411.3865	1419.1111	1471.7877	1484.3219	1491.7277	1507.8745	1743.5731	2979.2948	3000.5089	3011.089	3038.764	3047.854	3077.8481	3110.1641	3117.9228	3155.0215	3534.4392
CC12CNC1CN=CO2	C[C@]12CN[C@H]1CN=CO2	
InChI=1S/C6H10N2O/c1-6-3-8-5(6)2-7-4-9-6/h4-5,8H,2-3H2,1H3	InChI=1S/C6H10N2O/c1-6-3-8-5(6)2-7-4-9-6/h4-5,8H,2-3H2,1H3/t5-,6-/m0/s1
