18
gdb 110788	2.62079	1.37945	1.17083	2.6527	72.17	-0.2545	0.0194	0.2739	1110.8619	0.148846	-439.080493	-439.072337	-439.071393	-439.114086	30.825	
O	 0.240358053	 1.0785808653	 0.6892324951	-0.417206
C	 0.1420644111	-0.1384643582	-0.0337627617	-0.098454
C	-1.2930813383	-0.6086111375	-0.1473841287	-0.077946
C	-1.7227938524	-2.0684158259	-0.2402501516	-0.113241
C	-0.7621455409	-3.1588837333	 0.1991445182	-0.319958
C	-0.4421557756	-2.8243339829	 1.6484406928	 0.396805
N	 0.3988844955	-3.420564358	 2.3731439799	-0.531411
O	-1.2022793145	-1.7529395241	 2.0615612945	-0.237921
C	-2.008417241	-1.2691108893	 1.0008622833	 0.05748
H	-0.0450344208	 0.8942807383	 1.5906665497	 0.288872
H	 0.5373925808	 0.0736594924	-1.0324597723	 0.11674
H	 0.7855388694	-0.9119093611	 0.4058683822	 0.109105
H	-1.9222135189	 0.0709281405	-0.7170338365	 0.103223
H	-2.5119881898	-2.324471258	-0.9360699406	 0.103185
H	-1.2445613635	-4.1402362685	 0.1529452293	 0.140635
H	 0.1605389788	-3.2282827117	-0.3818596905	 0.143292
H	 0.4335512956	-3.0059276187	 3.3057523284	 0.22482
H	-2.9906636386	-0.9616207695	 1.3370249186	 0.11198
41.097	97.6515	147.8212	240.2946	317.4657	367.6313	443.2208	479.7039	537.7504	569.6965	682.4701	735.185	787.8591	800.6983	835.5947	892.4134	906.4	956.5623	973.4197	1017.3252	1039.4939	1067.3952	1076.2749	1090.0031	1108.1027	1138.8324	1188.4283	1202.2297	1243.3947	1261.4568	1294.3207	1345.11	1361.1329	1395.8008	1420.3379	1440.6589	1472.5714	1506.9933	1778.2434	3019.3022	3063.8933	3076.278	3104.6765	3144.237	3184.3974	3195.2502	3477.0417	3809.7313
OCC1C2CC(=N)OC12	OC[C@H]1[C@H]2C[C]([NH])O[C@@H]12	
InChI=1S/C6H9NO2/c7-5-1-3-4(2-8)6(3)9-5/h3-4,6-8H,1-2H2	InChI=1S/C6H9NO2/c7-5-1-3-4(2-8)6(3)9-5/h3-4,6-8H,1-2H2/t3-,4+,6-/m1/s1
