21
gdb 69590	3.27401	1.29684	1.20694	1.2414	82.65	-0.2222	0.0892	0.3114	1151.0934	0.182809	-387.070563	-387.062294	-387.06135	-387.102931	33.303	
C	 0.1641430643	 1.556020267	 0.2431993273	-0.464772
C	 0.1508756331	 0.0674189239	 0.0485896277	 0.460274
C	-0.9638864753	-0.8127153692	 0.561139068	-0.371738
C	 0.4555627292	-0.9662541855	 1.0993996167	-0.206432
C	 1.331096664	-1.9784240593	 0.4158201546	 0.371834
C	 2.6659211337	-2.3611684138	 1.000766248	-0.319638
C	 1.5531139329	-3.3820950358	 0.9048925011	-0.319522
C	 1.1667504002	-1.6749194487	-1.0754461002	-0.175522
O	 0.7627165892	-0.3108623116	-1.1678486617	-0.298029
H	 1.1894115792	 1.9386773529	 0.2182571483	 0.123717
H	-0.4036483696	 2.0542287969	-0.5496849244	 0.127175
H	-0.2857717607	 1.8232568396	 1.2031980814	 0.115289
H	-1.6926885	-0.3544962675	 1.2215870962	 0.108883
H	-1.3689506348	-1.5895170606	-0.0787827028	 0.114246
H	 0.6683672809	-0.6966635931	 2.1279797122	 0.084452
H	 3.5105578341	-2.4606459901	 0.3263814249	 0.111532
H	 2.9245419713	-1.9788276655	 1.9832084042	 0.111572
H	 1.0587155148	-3.6906272908	 1.8199273741	 0.114317
H	 1.6493741828	-4.1725022121	 0.1661304469	 0.109577
H	 2.0900728117	-1.7981208618	-1.6504854504	 0.107476
H	 0.4016295791	-2.3280680048	-1.5220833923	 0.095309
104.3782	184.3194	204.1669	229.6866	313.0169	338.9319	367.1776	394.7564	487.7726	528.9655	619.1863	716.4288	778.0869	779.514	833.2393	864.9192	912.9262	916.1195	938.1781	946.8822	968.1636	1009.9141	1028.9413	1041.2788	1058.5586	1072.5555	1075.5359	1084.5573	1106.2882	1125.5863	1188.0106	1220.823	1239.2661	1246.3102	1303.5621	1346.1998	1384.0901	1413.5976	1432.1682	1468.0925	1476.9287	1483.7249	1504.429	1506.464	1525.8001	2982.7105	3036.5062	3067.9888	3100.982	3118.473	3120.1218	3124.0263	3128.9682	3166.9521	3198.8535	3213.7265	3215.004
CC12CC1C1(CC1)CO2	C[C@]12C[C@H]1C1(CC1)CO2	
InChI=1S/C8H12O/c1-7-4-6(7)8(2-3-8)5-9-7/h6H,2-5H2,1H3	InChI=1S/C8H12O/c1-7-4-6(7)8(2-3-8)5-9-7/h6H,2-5H2,1H3/t6-,7+/m1/s1
