19
gdb 79453	3.26311	1.52925	1.29442	2.1276	73.9	-0.2401	0.0672	0.3073	1025.0806	0.160458	-422.977595	-422.9702	-422.969256	-423.008976	30.242	
C	-0.0438339302	 1.4872424174	 0.0104498753	-0.423159
C	 0.0864700213	-0.0307202657	 0.0641437372	 0.033616
C	 1.0716859218	-0.635544725	-0.9695055922	 0.044519
O	 2.317107746	 0.044243846	-0.6321486606	-0.289881
C	 2.2875233532	-0.7849515276	 0.5345712878	 0.113114
C	 1.5461386364	-1.9272378903	-0.1967113027	-0.124001
C	 0.6549517826	-2.1363501156	 1.0450247383	 0.117415
O	 1.3164839997	-2.8727085164	 2.0574661726	-0.449156
C	 0.8629376365	-0.6236257278	 1.2647795837	-0.112202
H	 0.9379760928	 1.9625590419	 0.0536544689	 0.13813
H	-0.5348077615	 1.80482369	-0.9165026642	 0.108999
H	-0.6467256081	 1.8538335326	 0.8476188994	 0.110902
H	-0.9035113501	-0.493998029	-0.0183250091	 0.069679
H	 0.8337634264	-0.6111602119	-2.0327351773	 0.077046
H	 3.211073674	-0.8413305801	 1.1036347111	 0.095017
H	 2.0389327891	-2.725946395	-0.7507617576	 0.073036
H	-0.3787347461	-2.4827409223	 0.9100323789	 0.061697
H	 1.4137419898	-3.7807035188	 1.7524632985	 0.282622
H	 0.7408865965	-0.1783743924	 2.2502923219	 0.072606
193.2141	216.8789	232.1652	243.6818	309.9901	360.8048	468.4098	498.5034	575.588	699.5387	750.3987	814.6915	844.9358	847.9044	870.2777	883.6016	940.5518	951.9333	957.5021	1004.2646	1019.3	1035.1298	1067.4952	1080.7734	1117.6635	1127.2609	1163.53	1172.7953	1195.3171	1203.0144	1223.8315	1266.3484	1271.6747	1284.5303	1329.4629	1333.746	1387.6568	1404.5537	1417.7195	1492.0805	1507.0621	3002.3152	3033.3526	3042.1025	3093.5809	3116.8189	3127.4197	3135.1208	3139.7895	3166.1299	3810.4723
CC1C2OC3C2C(O)C13	C[C@H]1[C@H]2O[C@@H]3[C@H]2[C@@H](O)[C@H]13	
InChI=1S/C7H10O2/c1-2-3-5(8)4-6(2)9-7(3)4/h2-8H,1H3	InChI=1S/C7H10O2/c1-2-3-5(8)4-6(2)9-7(3)4/h2-8H,1H3/t2-,3+,4+,5+,6-,7+/m1/s1
