14
gdb 29847	4.11624	1.12821	0.89043	4.5822	76.95	-0.2182	-0.0414	0.1769	1219.3313	0.10148	-432.902492	-432.894178	-432.893234	-432.936999	29.019	
C	 0.044046587	 1.4630690282	 0.0585933362	-0.325937
N	-0.0233599907	 0.016482665	 0.0191359815	-0.073734
C	-1.1275014851	-0.7894429101	 0.1278068477	-0.192334
C	-0.7116498938	-2.0704855994	 0.0344537322	 0.214583
O	 0.671037011	-2.0847281922	-0.1355201313	-0.24691
C	 1.1063293101	-0.7775630443	-0.1456622627	 0.461952
N	 2.2854173044	-0.3419821401	-0.2758446523	-0.605697
C	-1.4156580995	-3.2832963751	 0.0806556447	 0.222221
N	-2.0075582433	-4.2800368939	 0.120256753	-0.337486
H	 0.6848780764	 1.7876030448	 0.8829359976	 0.163277
H	 0.4675945104	 1.8457934183	-0.8739742301	 0.163206
H	-0.9618643264	 1.8618099875	 0.1961938826	 0.140308
H	-2.1221741825	-0.399497228	 0.2626471392	 0.177977
H	 2.9542866921	-1.0993293806	-0.3828803082	 0.238574
19.4226	109.2678	148.9003	176.6814	240.6307	284.05	449.7903	483.8696	526.0273	602.9294	623.1634	666.1232	724.6555	753.6941	824.5459	843.4228	958.6154	1025.0435	1079.0291	1153.8506	1158.4155	1213.2675	1277.3318	1344.5081	1445.9272	1469.7305	1478.5731	1523.8234	1664.0938	1785.1753	2333.2612	3050.6684	3115.6141	3150.9933	3287.296	3552.0937
CN1C=C(OC1=N)C#N	CN1C=C(O[C@@H]1[NH])C#N	
InChI=1S/C5H5N3O/c1-8-3-4(2-6)9-5(8)7/h3,7H,1H3	InChI=1S/C5H6N3O/c1-8-3-4(2-6)9-5(8)7/h3,5,7H,1H3/t5-/m1/s1
