17
gdb 17396	4.81215	1.637	1.52537	2.7922	67.56	-0.2337	0.0729	0.3066	869.8767	0.143348	-363.785436	-363.778622	-363.777678	-363.816751	26.097	
C	 0.0364388913	 1.5123103264	-0.1726036997	-0.124925
O	 1.4233105287	 1.555767933	 0.237593097	-0.277541
C	 1.4299408279	 0.1417005242	 0.5089745735	-0.145066
C	 0.0025906271	-0.0189822903	-0.0459339648	 0.3386
C	-1.0865892609	-0.834316261	 0.7257165431	-0.315127
C	-1.2966069953	-1.6752613352	-0.5381675991	-0.032759
N	-1.6853827454	-0.7182852226	-1.6033085609	-0.337661
C	-0.2508607234	-0.9076896503	-1.2650132796	-0.136874
H	-0.6129429608	 2.051165254	 0.5299059382	 0.098595
H	-0.1152678706	 1.9130459921	-1.1812251843	 0.108728
H	 2.2273414492	-0.3822887975	-0.0347788908	 0.098393
H	 1.5326274434	-0.0732323977	 1.5821973244	 0.094259
H	-0.6530620544	-1.4013856673	 1.554207416	 0.104708
H	-1.9614045572	-0.2795171056	 1.0753251106	 0.108995
H	-1.5708108042	-2.7204909446	-0.6060734194	 0.095462
H	-1.8654280522	-1.2650261014	-2.4456425333	 0.228973
H	 0.4649672069	-1.2173889865	-2.017783221	 0.093242
73.816	134.1345	240.7528	341.5354	402.7124	447.8723	555.1823	751.2498	815.735	835.6921	842.1001	862.8069	902.0706	926.8059	957.8173	983.2998	995.3979	1013.9483	1031.682	1078.13	1103.0314	1139.8661	1145.3969	1154.7497	1187.5419	1210.3931	1214.0718	1249.4155	1300.4887	1305.7772	1334.1806	1377.9838	1386.8955	1471.0802	1506.2866	1531.7528	2990.5112	3012.6939	3035.1347	3055.0048	3064.0381	3112.3064	3177.3727	3196.4215	3467.4537
C1OCC11CC2NC12	C1OCC21C[C@H]1N[C@@H]21	
InChI=1S/C6H9NO/c1-4-5(7-4)6(1)2-8-3-6/h4-5,7H,1-3H2	InChI=1S/C6H9NO/c1-4-5(7-4)6(1)2-8-3-6/h4-5,7H,1-3H2/t4-,5-/m1/s1
