20
gdb 117380	3.26031	0.91829	0.81166	2.1795	76.92	-0.2544	0.0197	0.2741	1491.5933	0.169139	-440.254083	-440.244212	-440.243268	-440.290427	34.877	
C	-0.6829994611	 0.1890038328	-0.3663346637	-0.232451
O	 0.2002207118	 0.1668461776	-1.4672707854	-0.216951
C	 1.4637742156	-0.3683139995	-1.1586816003	-0.131631
C	 1.4574176918	-1.8556718968	-0.8464822279	 0.360309
N	 2.105971305	-2.3161513322	 0.139619385	-0.518716
O	 0.7130166691	-2.5321786048	-1.7659295179	-0.230862
C	 0.576115922	-3.9197867346	-1.590719526	 0.11569
C	 0.3031814066	-4.700281538	-2.8329994769	-0.291374
C	 1.6423461588	-4.8320229339	-2.1369991025	-0.284983
H	-0.9215976644	-0.822060194	-0.0056678799	 0.110039
H	-0.2684518422	 0.7662406849	 0.4743495952	 0.108751
H	-1.6046016899	 0.6668693186	-0.7064420914	 0.127914
H	 2.0838752145	-0.2040185359	-2.0472646459	 0.122718
H	 1.9331906688	 0.1382496748	-0.3049106642	 0.116147
H	 2.0698576953	-3.3348016619	 0.1820927771	 0.222677
H	 0.0677944926	-4.1931366596	-0.6692012286	 0.108382
H	-0.4010385154	-5.5220665021	-2.7767012155	 0.122958
H	 0.2782290214	-4.1382158403	-3.7591870622	 0.13603
H	 2.4947985455	-4.3586823727	-2.6102436612	 0.132927
H	 1.8682654944	-5.7455860024	-1.5981901078	 0.122426
31.1047	73.0819	85.7664	127.7246	153.0869	194.6055	255.1868	375.788	398.7642	433.1141	469.4154	557.1258	688.9491	758.7184	813.528	830.6994	878.4512	905.0938	957.5389	986.1295	997.7486	1047.1301	1061.2537	1076.5538	1102.8511	1132.0659	1154.2068	1182.2165	1188.0963	1194.0041	1225.9306	1238.5045	1303.4173	1337.9073	1387.7129	1403.652	1455.4076	1470.679	1485.1215	1490.5374	1496.2983	1505.0368	1733.0022	2981.5958	3020.4743	3032.3134	3076.006	3118.2491	3133.6745	3140.5533	3147.1277	3225.6122	3240.0912	3484.6271
COCC(=N)OC1CC1	COC[C]([NH])OC1CC1	
InChI=1S/C6H11NO2/c1-8-4-6(7)9-5-2-3-5/h5,7H,2-4H2,1H3	InChI=1S/C6H11NO2/c1-8-4-6(7)9-5-2-3-5/h5,7H,2-4H2,1H3
