27
gdb 60041	2.37581	0.96172	0.88034	0.1499	96.43	-0.2526	0.0809	0.3335	1576.198	0.249927	-353.562062	-353.550679	-353.549735	-353.598128	43.053	
C	-0.904362852	 1.7546160079	-0.9955700699	-0.388405
C	-0.4798227132	 0.3422341753	-0.5696004939	 0.038804
C	 0.2096513019	 0.3745013227	 0.8009077442	-0.378731
C	-1.6975255757	-0.6062043566	-0.6011830083	-0.254549
C	-1.4191172614	-2.0781924703	-0.3161691346	 0.357997
C	-0.3796044645	-2.7187921859	-1.2218282803	-0.458878
C	-1.4978266408	-2.5891185721	 1.1090713893	-0.324064
C	-2.5646432397	-2.9799844053	 0.1136276515	-0.041146
C	-3.9992596184	-2.5217131145	 0.2699136597	-0.412733
H	-0.0470064385	 2.4355305254	-1.0215192727	 0.106694
H	-1.362041188	 1.7526750051	-1.9906802299	 0.107329
H	-1.6372430855	 2.1720978846	-0.2942022091	 0.109066
H	 0.2514875549	-0.0158258478	-1.3064997818	 0.073357
H	 0.5679207604	-0.6138937157	 1.1001158235	 0.121322
H	 1.067035381	 1.0560666395	 0.7903378892	 0.104938
H	-0.4814547955	 0.7259071451	 1.5770535579	 0.105951
H	-2.44003079	-0.22608825	 0.1104429768	 0.086812
H	-2.1634546187	-0.526697467	-1.5942752537	 0.086662
H	 0.6131854533	-2.2750268244	-1.0883098443	 0.116414
H	-0.2873597188	-3.789781224	-1.0160550463	 0.108711
H	-0.6526676804	-2.6058205903	-2.2783930382	 0.110268
H	-0.7822806275	-3.3373054274	 1.4360951649	 0.101086
H	-1.77811971	-1.8826386128	 1.8845578703	 0.103744
H	-2.4848575495	-3.996754081	-0.2656498171	 0.075242
H	-4.0722488396	-1.5313735662	 0.7270671605	 0.115763
H	-4.5167536741	-2.4805239105	-0.695570167	 0.114045
H	-4.5538943198	-3.2154174738	 0.9118823294	 0.114302
56.5482	98.8905	132.6737	179.0009	199.0827	227.2427	230.7806	247.65	255.3838	313.6143	357.9614	370.7205	415.1749	434.474	444.9008	506.9425	722.025	772.0501	822.7726	872.6312	883.6435	910.2988	927.1169	946.3047	954.6582	969.1856	1001.0007	1025.4534	1052.5652	1076.1737	1106.7569	1131.8634	1148.256	1163.6223	1188.9637	1196.3654	1248.643	1303.8448	1318.7824	1338.3182	1371.856	1385.7492	1398.7132	1409.3975	1418.3285	1420.2764	1431.1505	1473.5466	1487.1471	1489.9197	1491.0852	1493.3421	1498.1323	1502.6075	1504.1003	1508.525	1512.0783	2999.0289	3011.4927	3020.7022	3021.6128	3027.0243	3028.0141	3054.9061	3081.2636	3082.6582	3083.6419	3090.5071	3095.9762	3096.1955	3104.7004	3114.1427	3118.5042	3126.5084	3200.1984
CC(C)CC1(C)CC1C	CC(C)C[C@@]1(C)C[C@H]1C	
InChI=1S/C9H18/c1-7(2)5-9(4)6-8(9)3/h7-8H,5-6H2,1-4H3	InChI=1S/C9H18/c1-7(2)5-9(4)6-8(9)3/h7-8H,5-6H2,1-4H3/t8-,9+/m1/s1
