19
gdb 109826	3.67524	0.86361	0.81754	3.0598	77.81	-0.2546	0.0461	0.3007	1449.0298	0.157558	-422.962725	-422.953058	-422.952114	-422.997704	35.934	
O	 0.2097969199	 0.9801356555	-0.9634341864	-0.417165
C	 0.0681266015	 0.12304912	 0.182245839	-0.109976
C	-1.3062701738	-0.5109392075	 0.2551073992	-0.14075
C	-1.8052396371	-1.2452149559	-0.9729403053	 0.102008
O	-0.9215531671	-1.3900675485	-2.0426494555	-0.425177
C	-1.5200403617	-2.0205506795	 0.2864277048	-0.048189
C	-0.3572358075	-3.0053729489	 0.3316683605	-0.379335
C	-0.8121905086	-4.3891687295	 0.2420241956	 0.298872
C	-1.2041667729	-5.5235505833	 0.1806297403	-0.439851
H	-0.4603455336	 1.6689228132	-0.897947015	 0.288991
H	 0.8553382481	-0.623672667	 0.0661268871	 0.127885
H	 0.2838745816	 0.6810185877	 1.1030806105	 0.105327
H	-2.043670528	 0.0741679279	 0.7993407036	 0.085077
H	-2.8465473189	-1.1137401591	-1.2645254283	 0.087741
H	-0.480713979	-0.5346525375	-2.1532815029	 0.296945
H	-2.3890988292	-2.3433702884	 0.8505407311	 0.099734
H	 0.3191089587	-2.79653029	-0.5039304459	 0.150825
H	 0.2192101663	-2.875784724	 1.2571339297	 0.124894
H	-1.5390031888	-6.5288514353	 0.1163533578	 0.192144
45.9354	82.783	135.6905	180.0721	221.4153	253.3245	315.8225	338.0899	393.1396	432.7834	537.8247	549.14	609.9887	620.8723	638.7274	655.9054	781.6341	805.5248	894.3004	922.3599	955.3773	984.1311	1010.2645	1048.7091	1055.411	1109.0195	1135.0494	1158.1932	1223.5642	1249.4748	1254.3994	1308.7212	1353.3358	1373.8501	1387.589	1400.5905	1426.098	1439.3195	1471.1426	1506.6224	2240.3882	3016.8479	3018.9414	3072.8774	3104.0957	3114.2429	3133.2161	3163.0866	3508.1249	3710.9536	3811.0445
OCC1C(O)C1CC#C	OC[C@H]1[C@@H](O)[C@H]1CC#C	
InChI=1S/C7H10O2/c1-2-3-5-6(4-8)7(5)9/h1,5-9H,3-4H2	InChI=1S/C7H10O2/c1-2-3-5-6(4-8)7(5)9/h1,5-9H,3-4H2/t5-,6+,7-/m0/s1
