16
gdb 49430	3.16724	1.67442	1.50875	1.9673	74.49	-0.2222	-0.0631	0.1591	909.3062	0.123609	-400.620546	-400.613405	-400.612461	-400.652588	27.441	
O	-0.9173743216	 1.6826614344	-0.0130610182	-0.242639
C	 0.0920344024	 1.3471682454	 0.5535370854	 0.140797
C	 1.4505307634	 1.9345369851	 0.2658942714	-0.133368
C	 1.7171239521	 2.8089807362	-1.0289357993	-0.047216
C	 2.6051254709	 3.7208924558	-0.2764179029	-0.087185
N	 1.5321272904	 4.3208497133	-1.0319918221	-0.112752
C	 0.671461805	 4.9880975619	-0.0154113371	-0.176509
C	 0.8146157321	 4.0953312828	 1.2110348167	-0.098451
C	 1.8435063703	 3.2522287639	 0.9871184591	-0.017166
H	 0.0733240957	 0.5665856353	 1.3479931149	 0.082104
H	 2.2133221922	 1.1441946611	 0.3011965548	 0.099664
H	 1.8639870429	 2.3843495039	-2.0157236519	 0.115391
H	 3.652547351	 3.9722734805	-0.3916917357	 0.098829
H	 1.0028787941	 6.0315327676	 0.055558927	 0.121977
H	-0.3828719354	 4.9855430974	-0.3134545067	 0.138569
H	-0.0616992055	 3.8276717056	 1.7922644245	 0.117956
55.9236	125.3112	228.0293	299.9394	415.1477	441.5246	561.3912	664.8137	701.8639	758.0193	786.695	801.1075	848.1917	854.2037	885.5012	900.7779	936.3294	939.0684	1001.4283	1031.1368	1047.7173	1059.6696	1078.3566	1152.2834	1194.0351	1199.45	1222.0548	1284.0304	1286.783	1321.1495	1358.8904	1418.0566	1463.7779	1568.5917	1822.2046	2873.2042	3013.8252	3027.5395	3079.1697	3177.407	3182.5756	3190.782
O=CC1C2C3N2CC=C13	O=C[C@H]1[C@@H]2[C@H]3N2C[CH][C]13	
InChI=1S/C7H7NO/c9-3-5-4-1-2-8-6(4)7(5)8/h1,3,5-7H,2H2	InChI=1S/C7H7NO/c9-3-5-4-1-2-8-6(4)7(5)8/h1,3,5-7H,2H2/t5-,6+,7-,8?/m1/s1
