16
gdb 56058	3.84141	0.78733	0.65868	0.6211	75.31	-0.2665	-0.02	0.2465	1640.8612	0.120186	-437.882621	-437.872664	-437.87172	-437.91891	33.968	
C	 0.2007572275	 1.1751366891	-0.3016203944	-0.483134
C	-0.1628966244	-0.1072341909	 0.3957636004	 0.438122
O	 0.1637535789	-0.436861265	 1.5014403675	-0.323814
O	-0.9470133593	-0.8757328626	-0.4349198806	-0.222872
C	-1.3788460278	-2.0917219686	 0.0343677942	 0.126423
N	-2.0932417035	-2.7865368057	-0.7288369478	-0.231417
C	-2.5721947624	-4.0857012018	-0.266205981	-0.259697
C	-2.1900941527	-4.5167184648	 1.0804645305	 0.279582
C	-1.8639568026	-4.8494114386	 2.1887472266	-0.455479
H	 0.7367860029	 0.954243753	-1.2290334106	 0.160275
H	-0.7075577976	 1.7193540065	-0.5754971449	 0.160261
H	 0.8203696126	 1.7832422361	 0.3557954687	 0.153048
H	-1.0461504413	-2.3277463672	 1.0440534445	 0.152818
H	-3.6667981703	-4.0744284117	-0.3480745928	 0.149891
H	-2.2360784204	-4.8328830166	-0.9967755206	 0.149891
H	-1.5828991595	-5.1554000713	 3.1663845305	 0.2061
37.8911	88.72	89.1137	99.144	175.9962	179.596	306.1711	309.8308	333.666	390.5383	481.4453	594.1418	625.0344	637.735	659.7033	673.7434	905.9653	938.9572	956.0968	1005.2404	1031.9227	1056.0211	1064.2597	1170.8262	1226.7473	1266.6982	1346.7732	1372.6295	1397.3228	1464.3506	1466.4044	1472.8723	1772.7722	1850.1507	2230.9089	3023.5393	3044.0764	3058.2147	3123.2516	3151.8054	3173.131	3502.3296
CC(=O)OC=NCC#C	CC(=O)OC=NCC#C	
InChI=1S/C6H7NO2/c1-3-4-7-5-9-6(2)8/h1,5H,4H2,2H3	InChI=1S/C6H7NO2/c1-3-4-7-5-9-6(2)8/h1,5H,4H2,2H3
