20
gdb 113564	4.05643	0.96772	0.89415	1.509	81.02	-0.2265	0.0233	0.2498	1374.2852	0.171446	-403.154878	-403.146149	-403.145204	-403.188836	32.494	
C	-0.1885021579	 1.5020241795	 0.1106111633	-0.372295
C	 0.2485636614	 0.0469300432	-0.0971998908	-0.204081
C	 0.8788974566	-0.5526971415	 1.1424037963	-0.038467
C	 0.0264914356	-1.1884105099	 2.218491636	-0.343225
C	 0.9293754293	-2.0438696906	 1.3681344468	 0.305025
C	 0.4197301617	-3.0899540305	 0.3663562808	-0.176776
O	 1.3813757147	-4.1664264903	 0.4914637102	-0.226671
C	 2.2682604479	-3.7479024972	 1.4287732676	 0.10267
N	 2.1197916898	-2.6123572156	 1.9723723998	-0.297386
H	 0.6661036866	 2.1348511613	 0.3728093102	 0.118288
H	-0.6436176839	 1.9133177634	-0.7956820031	 0.111089
H	-0.9188671835	 1.5797608225	 0.9225273212	 0.120185
H	-0.6210405456	-0.5521428956	-0.3978341339	 0.092054
H	 0.9585653461	-0.0055964518	-0.9333243885	 0.100969
H	 1.7605154172	-0.0285451098	 1.5027564714	 0.097417
H	 0.3072424466	-1.0529436997	 3.2565219125	 0.123884
H	-1.0427957791	-1.2629867008	 2.037755627	 0.106958
H	-0.5713547879	-3.4869121909	 0.6078481326	 0.119568
H	 0.4234510113	-2.7495042417	-0.6738779995	 0.120553
H	 3.0638336831	-4.4526747839	 1.64021	 0.140241
61.2711	98.1217	132.6276	177.0156	250.955	287.7211	342.0795	419.3596	425.9431	555.0369	614.847	771.5513	805.1736	824.9706	858.8293	899.2744	929.898	943.8822	955.4008	966.1795	973.9563	1047.4956	1051.4208	1082.3722	1098.7371	1112.2777	1137.7174	1188.1974	1214.4961	1217.974	1292.8081	1304.9293	1332.8506	1350.6839	1379.726	1409.82	1424.6299	1480.0698	1489.5488	1497.0775	1506.6909	1519.9786	1697.7312	3011.3089	3033.5835	3040.1501	3044.0192	3083.8295	3102.2782	3106.4104	3119.1884	3143.4568	3217.1896	3223.2703
CCC1CC11COC=N1	CC[C@H]1C[C@]21COC=N2	
InChI=1S/C7H11NO/c1-2-6-3-7(6)4-9-5-8-7/h5-6H,2-4H2,1H3	InChI=1S/C7H11NO/c1-2-6-3-7(6)4-9-5-8-7/h5-6H,2-4H2,1H3/t6-,7+/m0/s1
