19
gdb 82906	3.05648	1.85322	1.59316	2.0385	72.83	-0.2432	0.0718	0.3149	898.5773	0.163695	-423.013741	-423.007438	-423.006494	-423.043983	27.627	
O	-0.0144378096	 1.4352015051	-0.110621707	-0.450706
C	 0.0179655303	 0.0263742319	 0.0184463463	 0.171929
C	 0.3840966043	-0.5395992046	 1.4243165185	-0.136777
C	-0.6553047256	 0.2454026807	 2.2532790812	-0.192721
C	-1.8190404723	-0.5038791662	 1.5826681674	 0.069909
O	-1.5322648882	-1.817146951	 2.1018911726	-0.263012
C	-0.3112562164	-1.9986541612	 1.3698535335	 0.069508
C	-0.9319993546	-2.0823576933	-0.0408664201	-0.207136
C	-1.3904142414	-0.6090657687	 0.027150473	-0.091783
H	 0.8873123251	 1.7635752133	-0.0319497115	 0.28057
H	 0.6350968333	-0.3961456319	-0.7835307092	 0.062582
H	 1.4294642615	-0.5130517576	 1.7320791152	 0.057913
H	-0.6443500749	 0.0411845414	 3.3241273448	 0.097591
H	-0.6041132554	 1.3154886554	 2.0607825889	 0.108884
H	-2.8464763266	-0.2195838384	 1.8009034847	 0.076598
H	 0.2542292772	-2.8417370276	 1.7633619697	 0.075846
H	-0.2491156288	-2.2736785008	-0.871717128	 0.091606
H	-1.7322425045	-2.8226988219	-0.0447612069	 0.106401
H	-2.1057527734	-0.2434762746	-0.7067677229	 0.072798
228.0917	272.7971	336.8518	416.4522	502.1292	512.6581	604.8528	653.6016	683.1323	754.7353	809.9057	822.3684	870.1197	895.8145	900.9491	925.0053	934.6117	942.7145	955.389	985.7244	1011.0119	1031.3504	1048.331	1096.6588	1115.7325	1149.0537	1157.5405	1185.0827	1207.0465	1221.0648	1253.3603	1266.3799	1271.1925	1279.5569	1288.836	1312.7831	1337.0673	1348.6266	1440.2132	1486.389	1504.6368	3018.9269	3076.1515	3095.7445	3115.1362	3134.0488	3136.0005	3138.3675	3147.8662	3160.6862	3811.1581
OC1C2CC3OC2CC13	O[C@H]1[C@H]2C[C@@H]3O[C@H]2C[C@H]13	
InChI=1S/C7H10O2/c8-7-3-1-5-4(7)2-6(3)9-5/h3-8H,1-2H2	InChI=1S/C7H10O2/c8-7-3-1-5-4(7)2-6(3)9-5/h3-8H,1-2H2/t3-,4-,5-,6-/m0/s1
