19
gdb 30056	2.96271	1.38632	1.00902	1.1714	83.51	-0.2006	0.0322	0.2329	1190.0868	0.161504	-382.076133	-382.067672	-382.066728	-382.109783	31.482	
C	-0.5388205171	 1.4475457483	-0.1387919505	-0.348642
N	-0.165841715	 0.0483705064	-0.0708677939	-0.038183
C	-0.1229035276	-0.8124517975	-1.137943077	-0.107089
C	 0.224159957	-2.0617316073	-0.6780293197	-0.16007
C	 0.393659216	-1.9554221259	 0.7266817755	-0.243269
C	 0.1476167473	-0.643615911	 1.0847591186	 0.290345
C	 0.1765906742	 0.032276054	 2.3951052078	-0.131365
C	 1.0170474582	-0.4937354502	 3.4955234183	-0.235694
N	 1.3956590611	 0.7708277393	 2.8425277196	-0.321401
H	 0.0914125159	 2.0398205177	 0.5288704648	 0.160017
H	-0.3989959084	 1.8061810265	-1.1604392704	 0.138283
H	-1.5869340005	 1.6028369289	 0.1435743248	 0.136627
H	-0.3400448627	-0.4581223845	-2.1336154427	 0.112283
H	 0.346207334	-2.947343223	-1.2822619359	 0.093996
H	 0.6542458132	-2.7496643455	 1.4095141036	 0.093057
H	-0.7325187064	 0.5603297307	 2.6789160816	 0.095228
H	 0.6769716845	-0.3958561351	 4.5222849221	 0.117586
H	 1.617665545	-1.3767171679	 3.2987660077	 0.118544
H	 2.1415266912	 0.5742486461	 2.1772843157	 0.229746
60.8728	105.2537	145.8427	177.2114	193.2731	317.8952	395.3874	493.39	595.0113	620.7093	689.856	720.0292	726.7392	783.7195	820.6624	840.1823	867.7002	910.428	964.482	1008.2173	1026.7039	1075.1345	1109.6258	1113.838	1140.2767	1152.0582	1172.8838	1196.9653	1262.5259	1271.3922	1306.8471	1332.4268	1389.573	1411.179	1451.9795	1470.6475	1488.6311	1509.3259	1514.0882	1527.9962	1594.9376	3029.6674	3101.1164	3109.8561	3117.5534	3137.8542	3201.8899	3239.7556	3250.1929	3265.6444	3482.575
CN1C=CC=C1C1CN1	Cn1cccc1[C@H]1CN1	
InChI=1S/C7H10N2/c1-9-4-2-3-7(9)6-5-8-6/h2-4,6,8H,5H2,1H3	InChI=1S/C7H10N2/c1-9-4-2-3-7(9)6-5-8-6/h2-4,6,8H,5H2,1H3/t6-/m1/s1
