21
gdb 102163	2.31075	1.04162	0.88207	3.4601	80.27	-0.2476	0.0464	0.294	1411.8957	0.179549	-424.187765	-424.176992	-424.176048	-424.223527	39.698	
C	 0.9345233383	-0.0567291726	-0.9892397278	-0.404252
C	-0.0318686573	 0.1414554776	 0.1852447297	 0.138944
O	-0.0900734613	 1.5084929743	 0.5648002013	-0.448523
C	-1.4567390055	-0.423878667	-0.0487684544	-0.014829
C	-2.0939854219	 0.0439187809	-1.3593248029	-0.1033
O	-2.0539197481	 1.4701803849	-1.411121573	-0.426368
C	-1.5101010975	-1.9709257653	 0.0018336287	-0.377751
C	-1.1206709268	-2.5294877658	 1.2906897436	 0.299441
C	-0.805418617	-2.9812446916	 2.3589978117	-0.43378
H	 1.9202108738	 0.3232359248	-0.7088963155	 0.125737
H	 1.044602151	-1.1114305351	-1.2650775069	 0.106183
H	 0.6025233364	 0.5002571317	-1.8714525082	 0.109722
H	 0.3747465093	-0.3803970321	 1.0588247717	 0.097126
H	-0.6183562637	 1.9525610223	-0.1113218772	 0.285515
H	-2.0655706685	-0.037774114	 0.7767791565	 0.103734
H	-1.5560157526	-0.388770046	-2.2160332344	 0.096033
H	-3.1344522177	-0.3112269994	-1.4106032377	 0.095556
H	-2.3374498299	 1.7587942416	-2.2831289138	 0.294447
H	-2.5307033385	-2.3008808826	-0.2338569738	 0.128423
H	-0.8708869614	-2.3920058831	-0.7853197606	 0.131481
H	-0.5264381312	-3.3831064936	 3.301327403	 0.196461
60.6513	84.4267	109.3977	166.0857	233.3582	240.3765	255.5332	277.4613	304.5003	343.8824	386.0739	410.8652	449.797	512.9254	532.3586	616.2385	619.257	641.9646	756.4231	901.2738	912.4486	947.8389	997.88	1015.069	1050.7478	1071.0194	1106.7048	1129.7412	1144.8169	1215.3256	1246.4332	1259.3554	1308.9678	1319.0384	1355.7826	1367.0895	1388.0213	1411.7153	1455.2679	1463.066	1473.3682	1492.0377	1504.4004	1524.0165	2239.1734	2978.9436	3008.7706	3014.3732	3034.2194	3039.6034	3049.4612	3059.6565	3102.8043	3119.0558	3506.6824	3759.7139	3837.4408
CC(O)C(CO)CC#C	C[C@@H](O)[C@@H](CO)CC#C	
InChI=1S/C7H12O2/c1-3-4-7(5-8)6(2)9/h1,6-9H,4-5H2,2H3	InChI=1S/C7H12O2/c1-3-4-7(5-8)6(2)9/h1,6-9H,4-5H2,2H3/t6-,7-/m1/s1
