20
gdb 87915	3.99002	1.0303	0.93382	3.9412	79.68	-0.235	0.0387	0.2738	1308.0691	0.171939	-403.189098	-403.180409	-403.179465	-403.222581	33.174	
C	 0.1647909455	 1.5336484179	-0.3361351233	-0.411318
C	 0.118999614	 0.037985758	-0.1060298762	-0.047297
C	 1.3920676454	-0.7636846212	 0.0470850456	-0.335981
C	 0.4645871576	-0.575006099	 1.2245813852	 0.349339
C	 0.9091658276	 0.2723476127	 2.4242967278	-0.237732
N	 0.8856816293	-0.6925830949	 3.5093174475	-0.310816
C	 0.1818893496	-1.8419987062	 3.2626216036	 0.412719
O	-0.0285325265	-2.7306892863	 4.0577333566	-0.380051
C	-0.2948769469	-1.7586373771	 1.8080843277	-0.429047
H	 0.9960361275	 2.0004239704	 0.2019538197	 0.116057
H	 0.296154878	 1.7598828726	-1.3996772427	 0.121977
H	-0.7597980908	 2.0201399959	-0.0055929038	 0.119827
H	-0.683631569	-0.4653631782	-0.6410584127	 0.086046
H	 1.4486353215	-1.7468738472	-0.4091231022	 0.113845
H	 2.3316891076	-0.218426484	 0.0488924318	 0.108917
H	 1.9108154027	 0.6942899777	 2.2891655575	 0.111314
H	 0.2183459966	 1.1084290929	 2.612888491	 0.105293
H	 1.1857533493	-0.4782339532	 4.4470507911	 0.24937
H	-1.3802429837	-1.5961128261	 1.8212740002	 0.127102
H	-0.1135271353	-2.7043453248	 1.2927916956	 0.130437
62.3412	133.2086	168.8736	204.6417	222.413	326.1011	387.0164	424.3399	485.3943	498.4691	531.4936	598.6546	687.904	758.8966	817.1495	867.2982	880.7822	921.7854	934.9774	973.8109	1024.3868	1037.0913	1071.5024	1075.0107	1098.7642	1132.736	1179.0156	1186.2677	1219.2398	1246.6687	1256.7973	1272.4868	1342.6707	1345.1509	1411.8567	1428.1905	1454.7295	1468.519	1490.2332	1492.7548	1506.5714	1533.8465	1833.3185	2980.6408	3029.0713	3034.2991	3051.0325	3089.9223	3097.6547	3106.022	3116.9409	3128.7	3203.1654	3641.7543
CC1CC11CNC(=O)C1	C[C@H]1C[C@]21CNC(=O)C2	
InChI=1S/C7H11NO/c1-5-2-7(5)3-6(9)8-4-7/h5H,2-4H2,1H3,(H,8,9)	InChI=1S/C7H11NO/c1-5-2-7(5)3-6(9)8-4-7/h5H,2-4H2,1H3,(H,8,9)/t5-,7+/m0/s1
