19
gdb 87764	3.73883	1.19146	1.03932	1.8992	76.52	-0.2216	0.0619	0.2835	1198.786	0.156932	-422.963631	-422.954871	-422.953927	-422.99671	33.879	
C	 0.0322703342	 1.4358844486	-0.0510569514	-0.486087
C	 0.0806867389	-0.0493979746	 0.082427657	 0.465745
C	-0.8248421166	-0.9251844387	 0.8932680346	-0.343435
C	 0.6842927065	-1.0099920889	 1.0895365728	-0.272578
C	 1.275463583	-1.6800288827	-0.1185557995	 0.432856
C	 2.6772632964	-2.1525382037	-0.3428606797	-0.386321
C	 1.519014361	-3.1284684215	-0.3969906345	 0.004529
O	 1.4376893466	-4.04812875	 0.6531059279	-0.416416
O	 0.6100985577	-0.7951848185	-1.034720092	-0.349038
H	 1.0182750018	 1.839570686	-0.3003447534	 0.131253
H	-0.6653276087	 1.7262034967	-0.8449759763	 0.133278
H	-0.3094654251	 1.8931666431	 0.8819022142	 0.123756
H	-1.3560755001	-0.4304066582	 1.7007965553	 0.113422
H	-1.3668376966	-1.7343256136	 0.4110129695	 0.107474
H	 1.1788709316	-0.8299634168	 2.0340910318	 0.105589
H	 3.1563509969	-1.890953972	-1.280088526	 0.125323
H	 3.3320937247	-2.2140699064	 0.5201957655	 0.126408
H	 1.2396401956	-3.5014085198	-1.3829171157	 0.094417
H	 0.5108928821	-4.1316773489	 0.9023461297	 0.289825
96.3986	128.724	191.2493	213.6025	258.2814	306.5592	327.8181	412.2008	423.724	475.984	493.9142	624.4272	665.2678	814.0886	822.4545	863.8481	874.6601	912.4231	949.0874	957.3359	970.9719	982.068	1017.3381	1026.5005	1068.051	1083.7266	1107.0998	1119.4826	1156.5745	1177.0891	1224.9735	1252.1553	1305.7159	1374.99	1381.072	1413.6324	1426.1141	1473.5362	1478.3551	1496.6232	1506.8319	3033.6277	3097.9571	3098.4621	3111.6315	3117.8495	3131.9474	3201.6789	3209.4858	3226.9518	3800.5294
CC12CC1C1(CC1O)O2	C[C@]12C[C@H]1[C@]1(C[C@H]1O)O2	
InChI=1S/C7H10O2/c1-6-2-4(6)7(9-6)3-5(7)8/h4-5,8H,2-3H2,1H3	InChI=1S/C7H10O2/c1-6-2-4(6)7(9-6)3-5(7)8/h4-5,8H,2-3H2,1H3/t4-,5-,6+,7+/m1/s1
