20
gdb 63432	3.94772	0.8421	0.8205	1.5151	82.17	-0.2209	0.0428	0.2637	1479.9326	0.167844	-403.085437	-403.075634	-403.074689	-403.12009	36.841	
C	-0.1300775988	 1.5478364932	-0.0696214777	-0.451469
C	-0.0759014148	 0.0274244327	-0.0360141885	 0.397742
O	-1.3495525763	-0.5537951773	-0.2089327666	-0.470936
C	 1.0900654829	-0.5838990364	-0.873285068	-0.229195
N	 1.8849506019	-0.6558889759	 0.3685385648	-0.076785
C	 2.7488429138	-1.8104655677	 0.5479039674	-0.3093
C	 3.3957561915	-1.8135912392	 1.8576736888	 0.309163
C	 3.9100547043	-1.8287467211	 2.9433421908	-0.433035
C	 0.6603705139	-0.5588496778	 1.1914822308	-0.204514
H	 0.8621426706	 1.9706773722	 0.1098476886	 0.138714
H	-0.4755873144	 1.9045778772	-1.0485864566	 0.105217
H	-0.8172663818	 1.9222985197	 0.6956598144	 0.124114
H	-1.8042268471	-0.0814442654	-0.9144617159	 0.276505
H	 0.7939550059	-1.5695189084	-1.266269824	 0.088817
H	 1.5391234871	 0.0139765089	-1.6748822881	 0.094122
H	 2.1964419062	-2.7638150918	 0.4209713078	 0.106304
H	 3.5146930202	-1.7895745047	-0.2387684384	 0.132273
H	 4.3713785753	-1.8392274295	 3.8995794527	 0.196341
H	 0.7522359823	 0.0589730569	 2.0896085502	 0.106417
H	 0.2301003672	-1.5360876658	 1.4583694274	 0.099505
60.9664	82.1954	137.3104	256.2782	265.7528	287.5467	295.1544	309.787	346.025	374.0472	435.489	451.2113	492.3161	610.6501	647.679	661.1901	768.3416	883.5976	898.6266	948.2765	964.4508	977.1101	989.8867	997.3895	1100.2484	1117.8524	1124.7976	1157.2436	1174.3914	1226.2882	1257.1128	1279.2827	1288.5436	1323.5919	1386.7665	1399.9603	1403.5966	1478.2513	1489.2586	1491.5609	1498.805	1522.2105	2242.2068	2894.4943	2974.7791	2993.8942	3020.6589	3030.4091	3052.7591	3079.089	3090.7937	3121.4976	3506.8255	3806.609
CC1(O)CN(CC#C)C1	CC1(O)CN(CC#C)C1	
InChI=1S/C7H11NO/c1-3-4-8-5-7(2,9)6-8/h1,9H,4-6H2,2H3	InChI=1S/C7H11NO/c1-3-4-8-5-7(2,9)6-8/h1,9H,4-6H2,2H3
