21
gdb 92107	2.57232	1.63285	1.33933	1.3656	81.	-0.2294	0.0805	0.3099	1059.2634	0.184124	-387.073976	-387.06607	-387.065125	-387.105788	32.625	
C	-0.2585044818	 1.5621113012	 0.0285561222	-0.399095
C	 0.0278958636	 0.0561346561	-0.012249565	 0.013287
C	 0.7453772104	-0.444457322	-1.3070535075	-0.226736
C	 2.1357269981	-0.9028180026	-0.8377935687	-0.034576
C	 2.9457344633	 0.2973357581	-0.2375817212	-0.306892
C	 2.4142362348	-0.1044262664	 1.1326746829	 0.401294
O	 2.979362735	 0.2434591745	 2.3464417936	-0.465913
C	 1.9423846144	-1.458233829	 0.6034401922	-0.191478
C	 0.9421712707	-0.4442439522	 1.107949097	-0.075656
H	 0.65864882	 2.1513824	-0.0668770187	 0.120664
H	-0.9334245386	 1.8574398436	-0.782123149	 0.10819
H	-0.7327751138	 1.8439475868	 0.9749118375	 0.112375
H	-0.9322898724	-0.4655191689	 0.0842568813	 0.068001
H	 0.1985148685	-1.2865557388	-1.7448458997	 0.092645
H	 0.8088119122	 0.3350923733	-2.0739973343	 0.09239
H	 2.6771854652	-1.5197252779	-1.5548712553	 0.064269
H	 4.0238511837	 0.1100879544	-0.3010990792	 0.086187
H	 2.7401675871	 1.3040686332	-0.6185795341	 0.090807
H	 3.9054610541	-0.0241261467	 2.331733168	 0.280002
H	 2.0693670146	-2.4689137941	 0.9677007061	 0.083978
H	 0.5308215709	-0.5956780125	 2.100796022	 0.086259
148.6691	178.9016	212.1198	307.994	330.9274	368.2314	406.5089	419.5129	496.0803	572.5373	650.1694	697.4124	754.2984	814.5737	834.1105	853.264	901.4573	907.1644	933.0016	956.2326	978.87	996.7077	1022.7019	1043.2507	1055.7183	1100.8055	1130.3755	1134.5423	1172.1231	1189.5062	1224.3952	1236.6214	1243.954	1262.0258	1308.7377	1326.7261	1332.5463	1347.1891	1373.8001	1410.2851	1450.9492	1491.3907	1496.2637	1498.2731	1514.3625	3016.392	3027.1792	3030.8079	3039.2054	3072.9557	3078.1551	3093.7796	3108.2289	3109.8085	3170.7004	3202.9191	3785.7759
CC1CC2CC3(O)C2C13	C[C@H]1C[C@H]2C[C@]3(O)[C@H]2[C@H]13	
InChI=1S/C8H12O/c1-4-2-5-3-8(9)6(4)7(5)8/h4-7,9H,2-3H2,1H3	InChI=1S/C8H12O/c1-4-2-5-3-8(9)6(4)7(5)8/h4-7,9H,2-3H2,1H3/t4-,5-,6-,7+,8+/m0/s1
