14
gdb 28365	3.24864	1.43281	1.0004	0.667	68.29	-0.2438	-0.0532	0.1906	1104.9645	0.101103	-473.903594	-473.895848	-473.894904	-473.935961	28.575	
C	-0.0239300578	 1.5161090493	 0.0056637089	-0.478397
C	-0.0051047552	 0.0156450908	-0.0301284557	 0.081927
C	-0.0505333556	-0.727153296	-1.1683612539	-0.058127
N	-0.0350177576	-2.0984398417	-1.2308084979	-0.348992
C	 0.0286694566	-2.6893532341	-0.0930884406	 0.5089
O	 0.050018683	-4.0155526364	-0.0215963623	-0.374756
O	 0.0795497292	-2.1074245621	 1.1092419581	-0.256792
C	 0.0661513492	-0.6764203579	 1.2358098817	 0.384913
O	 0.1143012543	-0.2361226122	 2.3469190648	-0.321624
H	 0.873499233	 1.9097588772	 0.4943736296	 0.145294
H	-0.0788582096	 1.9276631501	-1.0052458481	 0.125037
H	-0.8800081355	 1.885734835	 0.5798512557	 0.145296
H	-0.1046014123	-0.2316706642	-2.1344327499	 0.125472
H	 0.0989674483	-4.2690358778	 0.9101298496	 0.321849
114.5682	143.1656	163.9819	270.1164	324.387	363.3092	423.2678	474.9356	489.5111	535.5837	601.8465	744.2509	753.5319	786.479	795.6527	920.5966	976.3415	1017.7723	1035.3658	1074.4775	1189.9437	1236.4496	1339.49	1389.8619	1417.5025	1428.7875	1472.4066	1492.0693	1625.475	1698.6023	1865.9886	3037.9969	3093.254	3123.0698	3167.3617	3791.7541
CC1=CN=C(O)OC1=O	Cc1cnc(O)oc1=O	
InChI=1S/C5H5NO3/c1-3-2-6-5(8)9-4(3)7/h2H,1H3,(H,6,8)	InChI=1S/C5H5NO3/c1-3-2-6-5(8)9-4(3)7/h2H,1H3,(H,6,8)
