15
gdb 133835	3.08253	2.06785	1.96278	2.5282	68.86	-0.2042	-0.0779	0.1264	774.4374	0.113135	-416.644949	-416.638857	-416.637913	-416.674828	26.158	
O	 1.6094911681	 0.5557861566	 0.9431246348	-0.455056
C	 2.68864049	 0.1344217733	 0.2268373697	 0.383955
C	 4.0767186809	 0.5588318188	 0.6116219152	-0.085197
C	 3.5801579435	 1.0804353732	-0.7061878764	-0.196457
C	 4.1804382247	-0.1797442049	-1.3141651049	 0.125765
N	 3.3330007806	-1.0292998358	-1.8066639993	-0.253729
C	 2.8623802953	-1.4018213568	-0.4353012947	-0.096336
C	 4.1489185998	-1.8080464891	 0.2849039973	-0.184934
N	 4.8533700843	-0.5285666764	-0.049682427	-0.101153
H	 0.8198575936	 0.4702303818	 0.39514598	 0.302801
H	 4.4201286005	 1.0474372418	 1.5145401347	 0.111793
H	 3.3043446434	 2.0602033161	-1.0652733637	 0.123881
H	 1.9699576089	-2.0281349129	-0.4245152425	 0.080013
H	 4.6507465937	-2.6646897542	-0.1669012312	 0.126315
H	 4.0749854327	-1.9246031715	 1.3673892979	 0.11834
257.0102	297.8332	417.8537	436.1019	483.4321	533.0675	563.5375	582.8136	666.5061	744.5756	779.8714	790.3179	818.5019	867.375	891.6679	907.1407	929.0911	977.6675	999.2421	1009.5599	1052.7685	1058.1186	1106.0337	1152.2173	1175.858	1198.6479	1214.8828	1237.1306	1268.4015	1296.7425	1421.7943	1470.178	1484.0954	3083.8858	3121.2861	3146.9848	3197.3519	3243.2457	3777.6705
OC12C3C1C1=NC2CN31	O[C@]12[C@@H]3[C@H]1[C]1[N][C@H]2CN31	
InChI=1S/C6H6N2O/c9-6-2-1-8-4(6)3(6)5(8)7-2/h2-4,9H,1H2	InChI=1S/C6H6N2O/c9-6-2-1-8-4(6)3(6)5(8)7-2/h2-4,9H,1H2/t2-,3-,4-,6-/m0/s1
