18
gdb 102288	2.54169	1.01881	0.79383	1.7705	69.	-0.2424	-0.0412	0.2011	1416.5672	0.145904	-476.260648	-476.250632	-476.249688	-476.296753	35.272	
N	 0.6932307455	 0.4581710592	-0.6611513476	-0.508485
C	 0.0980904032	-0.0736362575	 0.4443769937	 0.365449
O	 0.5516383012	 0.027561154	 1.5687579167	-0.362995
C	-1.2137945253	-0.8169570821	 0.1720332352	-0.309164
C	-0.9900046652	-2.3165707544	-0.0910911742	-0.110719
C	-2.2500103188	-3.1596976096	 0.2312321796	-0.097261
O	-2.0300771458	-4.5515586643	 0.0994510115	-0.411492
C	-0.5458014381	-2.6152530077	-1.5103871363	 0.163546
O	-0.281302297	-1.782217039	-2.3466904596	-0.260251
H	 1.6248745794	 0.8250576781	-0.542662285	 0.254311
H	 0.4281384593	 0.1041371108	-1.5691201783	 0.275042
H	-1.8207685783	-0.6965732353	 1.0725760022	 0.124996
H	-1.7497662359	-0.3730751668	-0.6719995604	 0.119785
H	-0.192481581	-2.6878349478	 0.5725365166	 0.112691
H	-2.6003375809	-2.8942202707	 1.2382406774	 0.112649
H	-3.0554944006	-2.9123698481	-0.4690500835	 0.127404
H	-1.4742101554	-4.8384445793	 0.831299829	 0.290621
H	-0.5000626264	-3.6947461096	-1.7541708068	 0.113872
34.6962	73.8795	121.2306	141.2442	165.3694	225.0826	251.1028	321.0537	364.9676	427.4281	439.0366	511.3207	564.366	612.7624	650.8541	743.5784	842.2708	868.8515	900.3959	919.3764	1042.1564	1052.1202	1072.4364	1126.0749	1138.8362	1179.4661	1207.0894	1278.7725	1329.348	1343.2388	1381.8943	1397.5666	1409.4881	1420.4913	1473.5864	1508.8634	1626.3548	1798.7142	1807.8685	2950.403	2991.1652	3007.8254	3061.8936	3076.3547	3116.435	3557.9772	3693.5173	3815.5396
NC(=O)CC(CO)C=O	NC(=O)C[C@@H](CO)C=O	
InChI=1S/C5H9NO3/c6-5(9)1-4(2-7)3-8/h2,4,8H,1,3H2,(H2,6,9)	InChI=1S/C5H9NO3/c6-5(9)1-4(2-7)3-8/h2,4,8H,1,3H2,(H2,6,9)/t4-/m1/s1
