17
gdb 26133	2.59221	1.47645	0.97173	1.4609	71.06	-0.1987	0.0262	0.2249	1169.8314	0.136704	-455.185257	-455.176525	-455.175581	-455.218975	32.723	
C	 0.401099337	 1.1292932906	-0.5640351641	-0.402508
C	 0.0397487507	-0.0740432471	 0.3033615573	-0.005764
O	 0.2257146016	 0.1939365157	 1.7018580349	-0.433719
C	-1.3534798312	-0.5723681219	 0.0622775989	 0.195519
C	-2.2687356209	-0.5005298899	-0.9632213324	 0.251465
O	-2.1280863255	 0.155356308	-2.1403889066	-0.438458
N	-3.4042401608	-1.2030339106	-0.6826894159	-0.344973
C	-3.2016867006	-1.7169809458	 0.5170108235	 0.008354
N	-1.9861899182	-1.3782764973	 1.0013451745	-0.289226
H	 1.4263605399	 1.4412173186	-0.3496829575	 0.11884
H	 0.3109082736	 0.8872520432	-1.6256323033	 0.144888
H	-0.2740221033	 1.9679475908	-0.3599298755	 0.113918
H	 0.7633470051	-0.8780780613	 0.1090634142	 0.10202
H	-0.321191462	 0.9594588427	 1.9159600112	 0.277428
H	-2.9441451896	-0.0027336787	-2.6305515521	 0.299657
H	-3.9034827938	-2.32474013	 1.0670543994	 0.132501
H	-1.5966704322	-1.5802907071	 1.9076234537	 0.270059
40.3951	155.8522	171.6146	247.0043	305.9905	335.0205	342.0913	370.5727	379.095	481.1816	528.4494	558.3954	643.2685	697.4538	732.5714	754.5431	793.7681	893.6766	961.4101	1024.9123	1060.9518	1088.1237	1131.1268	1136.1097	1225.0191	1275.3629	1300.3826	1322.6538	1357.2304	1403.9648	1407.5905	1418.8857	1485.533	1488.5817	1498.5198	1515.6242	1674.9509	3005.7024	3039.7999	3112.478	3137.1194	3258.0608	3661.1811	3782.6709	3801.256
CC(O)C1=C(O)N=CN1	C[C@@H](O)c1c(O)nc[nH]1	
InChI=1S/C5H8N2O2/c1-3(8)4-5(9)7-2-6-4/h2-3,8-9H,1H3,(H,6,7)	InChI=1S/C5H8N2O2/c1-3(8)4-5(9)7-2-6-4/h2-3,8-9H,1H3,(H,6,7)/t3-/m1/s1
