20
gdb 113740	2.75828	1.03721	0.85828	4.8442	80.48	-0.2562	0.0384	0.2946	1398.414	0.169129	-403.139665	-403.129638	-403.128694	-403.175145	35.809	
C	 0.2788187786	 1.0488694846	-0.0348169201	-0.247121
O	-0.1303874621	-0.1733140949	-0.6203115829	-0.232133
C	-1.3782158356	-0.6082695998	-0.1822417004	 0.115081
C	-1.7765338093	-1.9878276145	-0.5889196041	-0.333485
C	-1.4761525329	-1.7016274684	 0.8693614815	-0.039647
C	-0.2098051595	-2.2706650648	 1.4970994285	-0.16168
C	 0.0894566232	-1.6598137827	 2.8807691778	-0.404799
C	-0.2978329875	-3.7338669711	 1.6014203748	 0.28224
N	-0.372048018	-4.8837982153	 1.6935528752	-0.332094
H	 1.2492548974	 1.3009120915	-0.4675732412	 0.1352
H	-0.4326086696	 1.8568164867	-0.2598864151	 0.115601
H	 0.3814116439	 0.9725418857	 1.056521321	 0.113839
H	-2.1410673878	 0.1708116786	-0.1655366666	 0.091475
H	-2.8003542996	-2.1769718005	-0.8890685756	 0.12337
H	-1.0315950177	-2.5566197453	-1.1356745832	 0.13663
H	-2.3270829979	-1.6558279071	 1.5436231383	 0.097336
H	 0.6247726859	-2.0455023375	 0.8222301232	 0.137965
H	 0.1886011059	-0.5748803489	 2.7947786824	 0.128972
H	-0.7202120193	-1.8766057409	 3.5835019031	 0.136156
H	 1.016614952	-2.0628257854	 3.2955492935	 0.137094
47.1632	103.221	126.2059	147.1962	193.9353	217.2837	231.5447	275.8561	295.4651	386.5777	475.4116	522.6445	578.441	593.0955	775.5265	803.833	834.1026	872.6235	979.8169	986.6654	1027.4953	1066.3783	1074.9723	1107.4752	1116.0217	1130.2464	1157.914	1183.1387	1195.3481	1227.0124	1255.5674	1282.4331	1336.4277	1382.6568	1409.046	1414.2552	1474.9493	1485.5511	1489.2856	1494.6382	1499.1906	1509.8124	2354.4069	2990.683	3042.7662	3046.4534	3049.9363	3096.4114	3124.0269	3125.1608	3130.2924	3139.3607	3145.2176	3228.0879
COC1CC1C(C)C#N	CO[C@H]1C[C@H]1[C@@H](C)C#N	
InChI=1S/C7H11NO/c1-5(4-8)6-3-7(6)9-2/h5-7H,3H2,1-2H3	InChI=1S/C7H11NO/c1-5(4-8)6-3-7(6)9-2/h5-7H,3H2,1-2H3/t5-,6-,7-/m0/s1
