16
gdb 125490	4.04031	1.16273	0.90798	2.275	74.25	-0.2529	-0.0153	0.2376	1236.8548	0.125253	-434.142924	-434.13432	-434.133376	-434.176636	31.035	
C	-0.0277633888	 1.445986324	-0.107782135	-0.488409
C	 0.0077311558	-0.0439253403	 0.0160940582	 0.368425
N	-0.0102297244	-0.8166884339	-1.0605739492	-0.338894
N	 0.0324889231	-2.0913025549	-0.5840512064	-0.045216
C	 0.0771367135	-2.1295781821	 0.7780669306	 0.023063
C	 0.0628585079	-0.8281844975	 1.204649815	-0.326212
C	 0.0286360126	-3.2245107653	-1.4482543648	 0.515702
N	-0.0202685396	-2.8758015077	-2.7517604288	-0.5688
O	 0.0670106198	-4.3469505903	-0.9964828906	-0.381275
H	 0.8641453788	 1.901483722	 0.3359508387	 0.135256
H	-0.0772976151	 1.7351587857	-1.1593736617	 0.139127
H	-0.8972463553	 1.865579238	 0.4095635457	 0.135059
H	 0.113855864	-3.075688156	 1.2912671062	 0.16491
H	 0.0880066782	-0.4766518148	 2.2235608405	 0.110451
H	-0.050085803	-1.9024767119	-3.0080524837	 0.284088
H	-0.0278380874	-3.6076807349	-3.4385240048	 0.272725
71.5371	99.8342	138.9687	191.4094	197.3618	299.267	351.814	419.4987	524.293	599.755	624.1598	667.3526	684.2664	701.512	768.6429	794.9677	882.5853	977.7141	991.8454	1039.5269	1058.7105	1064.1741	1105.1044	1187.7062	1280.194	1338.077	1390.8893	1418.012	1453.4325	1480.0562	1482.5187	1491.9511	1583.3329	1594.909	1838.607	3038.2792	3091.0278	3135.5327	3263.9867	3293.7137	3605.102	3758.0452
CC1=NN(C=C1)C(N)=O	Cc1nn(cc1)C(=O)N	
InChI=1S/C5H7N3O/c1-4-2-3-8(7-4)5(6)9/h2-3H,1H3,(H2,6,9)	InChI=1S/C5H7N3O/c1-4-2-3-8(7-4)5(6)9/h2-3H,1H3,(H2,6,9)
