21
gdb 40902	3.40633	1.25443	1.23478	1.6533	81.67	-0.2176	0.073	0.2906	1138.3683	0.184781	-387.071567	-387.063761	-387.062817	-387.103943	30.928	
C	 0.1840147461	 1.4129282477	-0.3167894331	-0.083957
C	 1.6154227132	 1.5360560094	 0.2463243035	-0.358874
C	 1.3336602851	 0.1520142784	 0.8292623301	 0.466713
O	 0.0127697299	 0.1057999674	 0.2752403515	-0.318026
C	 2.1390483858	-1.107375422	 0.9005969857	-0.129761
C	 3.6570138494	-1.0016648881	 0.9475937081	-0.216454
C	 3.9538693408	 0.0858016459	 2.0088088907	-0.221016
C	 2.7615378028	 0.0431493557	 2.9954240301	-0.216454
C	 1.5826933247	-0.4582385816	 2.1729035672	-0.129762
H	-0.5441264744	 2.1335213217	 0.0730878904	 0.104187
H	 0.1041443232	 1.3771399195	-1.4093956744	 0.104186
H	 2.410213748	 1.5792724315	-0.5013666166	 0.113382
H	 1.7635958247	 2.33371856	 0.9773383565	 0.113382
H	 1.6781216678	-1.9971232077	 0.4841889821	 0.089074
H	 4.0708854941	-1.9678111007	 1.2599859209	 0.101354
H	 4.1063361345	-0.7608975569	-0.0225617978	 0.095186
H	 4.9136470422	-0.0704433663	 2.5082178429	 0.095852
H	 4.0055398015	 1.0684591147	 1.530046231	 0.105376
H	 2.9575905316	-0.6688515162	 3.8059393135	 0.101354
H	 2.581960637	 1.0176969591	 3.4634732098	 0.095186
H	 0.7188034023	-0.8778199115	 2.6780232281	 0.089074
88.836	162.709	164.7188	228.8061	275.0664	399.7691	445.0962	553.8972	635.1046	647.8362	799.8812	813.4878	845.6467	848.4266	878.9995	900.1718	904.897	939.3667	959.4548	971.7661	1023.5776	1038.6215	1045.2803	1052.7679	1101.4344	1124.4722	1139.1006	1165.7251	1175.9821	1193.2844	1215.8767	1235.0388	1257.5611	1276.363	1300.9666	1327.3892	1329.8228	1351.0031	1358.7037	1451.2626	1489.5974	1492.0183	1496.4139	1513.9473	1533.3175	3022.7946	3029.4542	3031.3828	3051.4625	3063.8304	3064.9693	3068.0674	3070.1955	3100.8014	3121.1941	3161.6744	3169.9838
C1CC2(O1)C1CCCC21	C1C[C@@]2(O1)[C@H]1CCC[C@@H]21	
InChI=1S/C8H12O/c1-2-6-7(3-1)8(6)4-5-9-8/h6-7H,1-5H2	InChI=1S/C8H12O/c1-2-6-7(3-1)8(6)4-5-9-8/h6-7H,1-5H2/t6-,7+,8+
