21
gdb 50692	2.89567	1.24856	0.97472	3.0134	82.35	-0.2384	-0.0167	0.2218	1248.4245	0.184326	-387.105249	-387.096902	-387.095958	-387.138733	32.2	
O	-0.0273574094	-0.0564758336	 0.0248305978	-0.252661
C	 0.0165554296	 1.1462975276	 0.0676993598	 0.152463
C	 1.2861722972	 1.9748165628	 0.0463784742	-0.072715
C	 1.3820139433	 2.7684567993	-1.2761400286	-0.229182
C	 2.5711465608	 3.7350774652	-1.23835273	-0.198241
C	 2.391774454	 4.8241663387	-0.1687410009	-0.218275
C	 1.9203683279	 4.2768136741	 1.1795214503	-0.033102
C	 0.4471149289	 4.0745774485	 1.436798414	-0.290404
C	 1.3503230532	 2.8740457278	 1.2762682249	-0.032165
H	-0.917808252	 1.7530804225	 0.1244727016	 0.069578
H	 2.1230348781	 1.267688772	 0.0812231049	 0.090196
H	 1.4850119819	 2.0602260706	-2.1045759283	 0.11171
H	 0.4529348689	 3.3261753657	-1.4579960845	 0.099292
H	 3.4834894235	 3.1607998509	-1.0317891082	 0.100804
H	 2.7089974702	 4.2008145614	-2.220068236	 0.096061
H	 3.3392955725	 5.3549464425	-0.0321476615	 0.101025
H	 1.67631772	 5.5723723248	-0.5331142705	 0.101019
H	 2.5053913055	 4.5982047392	 2.0352991474	 0.087219
H	 0.0517210162	 4.2863687302	 2.4241086757	 0.112584
H	-0.2334886315	 4.3255881865	 0.6289139609	 0.111165
H	 1.5700672213	 2.3328849233	 2.1921278072	 0.093626
52.7017	92.3407	188.2175	249.9029	300.5169	339.9744	385.0843	435.404	452.6648	576.1335	633.7703	749.0742	791.901	828.6957	856.692	869.4637	918.2816	934.8859	951.162	999.5908	1036.1769	1063.5589	1068.2815	1084.1761	1109.7763	1130.7687	1140.432	1156.871	1197.7246	1219.3885	1242.5242	1285.112	1291.1815	1342.907	1356.0977	1370.2539	1373.7443	1391.0243	1409.3465	1424.942	1482.5856	1488.9027	1494.1197	1503.1411	1829.7962	2855.4412	3016.	3021.0007	3025.3394	3043.9942	3067.5218	3074.1462	3077.0499	3125.6721	3140.6623	3154.1595	3209.4449
O=CC1CCCC2CC12	O=C[C@H]1CCC[C@H]2C[C@@H]12	
InChI=1S/C8H12O/c9-5-7-3-1-2-6-4-8(6)7/h5-8H,1-4H2	InChI=1S/C8H12O/c9-5-7-3-1-2-6-4-8(6)7/h5-8H,1-4H2/t6-,7+,8+/m0/s1
