19
gdb 49733	2.77938	1.22935	1.16365	4.0448	76.61	-0.2379	-0.0193	0.2186	1155.6542	0.160457	-423.019823	-423.011751	-423.010807	-423.052856	30.655	
O	 0.2091473018	-0.039023838	 0.8854332122	-0.276308
C	 0.1406623655	 0.9681856846	 0.2193500407	 0.166216
C	 1.25732358	 1.9200684099	 0.0680441459	-0.167883
C	 1.4748354311	 2.7812648903	-1.1931227007	-0.103246
C	 0.499803203	 2.7985312164	-2.37171804	-0.241309
C	-0.4575433557	 3.9917655304	-2.2378524766	-0.211172
C	-1.1197939756	 3.9905888309	-0.8655315727	-0.067709
O	-0.187423841	 4.0573407849	 0.2146798623	-0.252658
C	 1.0521565845	 3.4479725032	 0.0692592977	 0.098344
H	-0.7999485736	 1.2212075509	-0.3144538199	 0.064509
H	 2.1577705771	 1.5788766463	 0.5685641831	 0.106994
H	 2.5208657147	 2.8878043745	-1.4611738067	 0.105826
H	 1.068683494	 2.8736087808	-3.3022490102	 0.111849
H	-0.0720935353	 1.8678845846	-2.4405264309	 0.11557
H	 0.0957962108	 4.9291553401	-2.3704913729	 0.110849
H	-1.2351304117	 3.9578396636	-3.0080060328	 0.105509
H	-1.7669599643	 4.8630017497	-0.7371533523	 0.115774
H	-1.7513776489	 3.094679001	-0.7566204296	 0.102707
H	 1.7910128336	 3.9935260557	 0.6477933731	 0.116138
83.4221	98.0081	164.1904	219.1028	303.9944	392.9411	411.8264	484.1003	489.193	570.8833	695.0212	714.0989	801.5904	835.7319	877.1763	908.277	914.1256	963.8425	1009.769	1036.984	1048.5676	1071.3459	1097.4592	1129.5209	1151.5607	1197.8129	1220.6883	1231.4937	1273.0992	1300.5864	1334.7818	1354.9366	1371.1129	1383.2148	1398.8958	1434.1054	1453.9191	1481.6563	1499.1346	1517.7712	1799.5766	2895.3767	2978.9934	3036.3734	3054.0629	3082.0019	3083.539	3095.0639	3151.7363	3157.8423	3172.0511
O=CC1C2CCCOC12	O=C[C@H]1[C@H]2CCCO[C@@H]12	
InChI=1S/C7H10O2/c8-4-6-5-2-1-3-9-7(5)6/h4-7H,1-3H2	InChI=1S/C7H10O2/c8-4-6-5-2-1-3-9-7(5)6/h4-7H,1-3H2/t5-,6+,7-/m1/s1
