15
gdb 34828	5.35609	1.08071	1.00916	4.8941	71.09	-0.2637	0.0216	0.2853	1137.7471	0.113376	-416.711396	-416.704226	-416.703282	-416.743054	27.494	
N	-0.0255764735	-1.2121308314	-0.0471442432	-0.323858
C	 0.0057811201	-0.0581243255	 0.0036601075	 0.292442
C	-0.0268329535	 1.3937395173	-0.0009308668	-0.149411
C	 0.0516801925	 2.1277830094	 1.3750501722	-0.141989
N	 1.4908209986	 1.6345695686	 1.4584341387	-0.315848
C	 1.3375507103	 2.1523939764	 0.0337577253	-0.141999
C	 0.5522137352	 3.3541566322	 0.590162863	 0.531007
C	 0.0535228796	 4.644500371	 0.1357680006	-0.31333
O	 1.1004537774	 4.514322144	 1.137041507	-0.293151
H	-0.7698023825	 1.7704772283	-0.7062850802	 0.124674
H	-0.6445456806	 2.0533100941	 2.2086489453	 0.113651
H	 2.0454278711	 2.3014933321	 2.002358615	 0.237176
H	 2.142147199	 2.1066456318	-0.6981542364	 0.113649
H	 0.3823873899	 5.0550267592	-0.8169188924	 0.133494
H	-0.8917514934	 5.0306283124	 0.5121420944	 0.133494
124.2367	141.389	232.5991	285.7088	362.105	417.9848	465.4744	559.4753	591.5069	715.2978	749.9834	810.4318	862.5076	887.1581	893.7885	921.1667	999.7691	1060.9943	1062.1097	1109.0132	1112.1433	1125.8045	1137.609	1154.4673	1173.9487	1185.1786	1217.7792	1280.9116	1295.1372	1372.3872	1457.081	1551.8274	2363.7555	3094.702	3105.2617	3140.8781	3143.3717	3184.9743	3416.2961
N#CC1C2NC1C21CO1	N#C[C@H]1[C@H]2N[C@@H]1[C@]12CO1	
InChI=1S/C6H6N2O/c7-1-3-4-6(2-9-6)5(3)8-4/h3-5,8H,2H2	InChI=1S/C6H6N2O/c7-1-3-4-6(2-9-6)5(3)8-4/h3-5,8H,2H2/t3-,4+,5-,6+
