23
gdb 108317	3.02786	1.19577	1.01848	1.8129	85.25	-0.2381	0.0674	0.3055	1302.8914	0.205353	-388.268652	-388.259266	-388.258322	-388.302766	35.719	
C	 0.1116449886	 1.6422783375	-0.0365864775	-0.380807
C	 0.1081740291	 0.1085607335	-0.0823245732	-0.301611
C	 0.6331407238	-0.5180342518	 1.1920519473	 0.339087
C	 2.139234842	-0.4319793565	 1.5068929981	-0.121123
O	 2.1992593428	-1.8362153522	 1.8474512011	-0.293782
C	 0.8289384694	-2.0455588605	 1.4429371553	 0.037919
C	-0.1747593648	-2.0101090714	 2.6213819513	 0.028262
C	 0.2646679399	-2.6066074793	 3.9488588105	-0.406496
C	-0.2476710694	-0.4533942835	 2.4805480031	-0.315261
H	 1.1256761693	 2.0332751562	 0.1016294334	 0.119095
H	-0.2833746966	 2.0665061188	-0.9644702003	 0.115014
H	-0.5025510549	 2.0157424264	 0.7896739289	 0.120861
H	-0.9131266798	-0.2487377317	-0.2691155598	 0.095567
H	 0.7137664673	-0.2352949895	-0.9312802612	 0.097723
H	 2.7706206957	-0.2097716955	 0.6345399272	 0.092333
H	 2.442417486	 0.2133813986	 2.3410371871	 0.096743
H	 0.7398573575	-2.8350640801	 0.6893355606	 0.062814
H	-1.1214397227	-2.4578540381	 2.2969455012	 0.06891
H	 1.2571763772	-2.2372704952	 4.2213125843	 0.129333
H	-0.4359369917	-2.3439764519	 4.7487948511	 0.10908
H	 0.3185024045	-3.6996179461	 3.8957124762	 0.113093
H	 0.2037527251	 0.1027706926	 3.3078604623	 0.095765
H	-1.2558103385	-0.0631548402	 2.3172555028	 0.097481
73.9396	99.9288	154.1522	215.3738	220.4788	232.3233	300.3537	324.2515	379.4506	385.2928	546.611	633.3496	640.3575	787.8106	796.3923	860.7094	883.9209	902.7496	918.1786	952.7642	977.6716	989.6343	1007.8387	1021.3601	1051.2976	1089.7873	1112.7214	1133.0885	1156.8561	1191.8766	1201.1777	1220.1474	1249.5395	1273.8517	1292.6157	1320.9966	1324.3832	1354.6325	1364.0216	1384.2846	1407.6122	1410.8136	1477.7418	1486.8371	1491.4919	1500.1062	1502.2688	1506.7624	1523.9004	2990.7817	3012.9043	3029.6264	3033.1054	3033.6856	3041.4194	3045.5269	3047.2131	3054.4922	3093.533	3098.7378	3100.814	3106.7307	3117.2603
CCC12COC1C(C)C2	CC[C@]12CO[C@H]1[C@@H](C)C2	
InChI=1S/C8H14O/c1-3-8-4-6(2)7(8)9-5-8/h6-7H,3-5H2,1-2H3	InChI=1S/C8H14O/c1-3-8-4-6(2)7(8)9-5-8/h6-7H,3-5H2,1-2H3/t6-,7-,8-/m0/s1
