18
gdb 51826	3.35626	1.02251	0.82452	4.4533	73.68	-0.2406	-0.0162	0.2244	1354.5957	0.147904	-439.11744	-439.108769	-439.107825	-439.152013	31.043	
N	 0.1511081384	 1.1574979556	 0.5165954948	-0.540375
C	 0.0987094676	-0.0333723018	 0.0983131592	 0.420686
O	 1.1651475074	-0.7325685383	-0.3839384749	-0.236312
C	 0.7712168119	-2.0726942991	-0.7354734992	-0.093547
C	-0.5320571193	-2.3184125393	 0.029015698	-0.248699
C	-1.144612943	-0.9073887843	 0.0664816851	-0.095315
C	-2.1414197324	-0.6581936323	 1.2096493681	-0.291571
C	-2.9485747566	 0.6195943973	 1.0463470988	 0.140408
O	-4.1537569453	 0.6463566246	 1.0802935805	-0.247567
H	 1.0973783844	 1.5324325364	 0.4349885422	 0.226304
H	 0.6260770586	-2.1253540034	-1.8216446633	 0.117491
H	 1.587030195	-2.7435523251	-0.4581491944	 0.126529
H	-1.1739226326	-3.0586167832	-0.4526259842	 0.119714
H	-0.317115879	-2.6614366951	 1.0470087921	 0.120269
H	-1.644763055	-0.7214458145	-0.8950173663	 0.114492
H	-2.8495818808	-1.4886954579	 1.2861206952	 0.11768
H	-1.5856910918	-0.5882628511	 2.1540232258	 0.128759
H	-2.3435058376	 1.5343629116	 0.8946606324	 0.121054
46.3869	83.2955	107.625	182.1137	207.0202	290.8586	341.7003	437.5596	497.7546	595.8665	651.457	685.8935	784.2691	823.5851	879.634	896.6733	951.211	968.4762	1000.7879	1030.5776	1056.9673	1110.967	1119.7079	1141.937	1204.7151	1215.0751	1235.9237	1272.4124	1283.538	1331.4246	1338.6213	1369.1112	1411.8657	1415.5712	1456.4117	1493.6092	1523.766	1772.526	1823.6225	2960.058	3005.8025	3030.2171	3031.5559	3053.3923	3096.8567	3107.4639	3119.931	3476.7525
N=C1OCCC1CC=O	[NH][C]1OCC[C@H]1CC=O	
InChI=1S/C6H9NO2/c7-6-5(1-3-8)2-4-9-6/h3,5,7H,1-2,4H2	InChI=1S/C6H9NO2/c7-6-5(1-3-8)2-4-9-6/h3,5,7H,1-2,4H2/t5-/m1/s1
