18
gdb 92255	2.63153	1.70877	1.32523	2.2964	70.88	-0.218	0.0523	0.2703	1000.5754	0.148476	-439.008426	-439.000862	-438.999918	-439.040381	29.975	
O	 0.2301596601	 1.3657952763	-0.2639494888	-0.428291
C	 0.0199584347	-0.0022007773	-0.0383835182	 0.040221
C	 0.2287609177	-0.624792226	 1.392958068	-0.269827
C	-1.0743473233	-1.4607148796	 1.2236712826	-0.092253
N	-2.2390253507	-0.8897550799	 1.9615131132	-0.324421
C	-2.6019906189	-0.0626358717	 0.7873845967	-0.13034
C	-3.3941588402	-0.6996043994	-0.3856984822	-0.103086
O	-2.1782444593	-0.9862035437	-1.1284046718	-0.326901
C	-1.3874764175	-0.5807524622	-0.027840557	 0.439585
H	-0.3127750915	 1.8564457773	 0.3626590583	 0.280925
H	 0.6339881638	-0.5269860744	-0.7780897919	 0.105976
H	 1.1538264902	-1.189783417	 1.5174062402	 0.110704
H	 0.1393660938	 0.1079026357	 2.1987837002	 0.107904
H	-0.9749865559	-2.5461455335	 1.199477021	 0.07722
H	-2.9459659497	-1.571655576	 2.2198507798	 0.218381
H	-2.8318157868	 0.9839777516	 1.0036691967	 0.080199
H	-3.9484846927	-1.6108234007	-0.1277912688	 0.100025
H	-4.0451911239	-0.0190693695	-0.945240758	 0.113979
103.6736	143.6475	236.9179	309.3258	316.5682	404.615	444.9287	495.1811	550.759	645.2928	683.1247	751.4911	826.4049	848.8168	867.0973	900.2096	978.9705	982.1227	1004.1059	1010.476	1051.8762	1074.6073	1102.0478	1113.2217	1120.3444	1137.3707	1169.2751	1181.6209	1234.2682	1263.8689	1292.7225	1297.3786	1310.2746	1327.7464	1353.0958	1379.7552	1434.6897	1468.9486	1508.489	3016.5542	3062.9732	3064.1363	3069.9687	3078.2247	3108.8894	3134.5884	3509.2595	3803.4974
OC1CC2NC3COC123	O[C@H]1C[C@H]2N[C@@H]3CO[C@]123	
InChI=1S/C6H9NO2/c8-5-1-3-6(5)4(7-3)2-9-6/h3-5,7-8H,1-2H2	InChI=1S/C6H9NO2/c8-5-1-3-6(5)4(7-3)2-9-6/h3-5,7-8H,1-2H2/t3-,4-,5+,6-/m1/s1
