18
gdb 12743	3.17473	1.76739	1.47438	0.8847	77.82	-0.2497	0.0498	0.2996	938.6184	0.152797	-310.612622	-310.604669	-310.603724	-310.644511	30.815	
C	-0.0495504705	 1.5287851714	-0.0024823457	-0.500729
C	 0.0403967912	 0.031377563	 0.0331258713	 0.371504
C	-0.8310781691	-0.8383335908	 0.8941309886	-0.330454
C	 0.6639605909	-0.9231217282	 1.055990825	-0.095305
C	 1.2533881438	-1.7947741725	-0.0539801405	-0.241717
C	 0.6319159837	-0.8160378404	-1.1232698267	-0.234153
C	-0.2816166082	-1.3541216584	-2.1144290981	 0.335228
C	-1.0508990175	-1.8113227287	-2.9188495545	-0.47689
H	 0.9007939079	 1.9823181857	-0.3079733538	 0.114519
H	-0.8188224164	 1.8608841657	-0.7101485408	 0.127842
H	-0.3107613071	 1.9309358172	 0.9818660565	 0.118545
H	-1.3549549127	-0.3116231501	 1.6859204967	 0.10787
H	-1.3889302249	-1.6674818132	 0.4650068458	 0.115548
H	 1.1529517197	-0.6859759889	 1.9935700845	 0.08465
H	 2.3444372729	-1.791430271	-0.0926884036	 0.106081
H	 0.8984208609	-2.8284486644	-0.0947916935	 0.105681
H	 1.4325519331	-0.2609737113	-1.6229601553	 0.099002
H	-1.7256445779	-2.210053395	-3.6350691459	 0.19278
110.7993	131.9403	207.8333	244.3042	296.7785	348.9702	413.7377	490.4609	542.1582	615.5869	622.3999	635.2239	713.3057	794.436	827.2997	872.3913	945.1296	958.1696	982.7377	1015.1711	1041.4574	1051.5768	1078.6125	1098.3834	1116.5028	1162.5445	1201.2694	1239.8774	1264.3814	1288.6476	1335.5761	1395.9303	1423.0885	1483.047	1485.4955	1497.4408	1505.5286	2228.0018	3019.3035	3048.7423	3058.55	3077.4986	3095.5853	3108.4352	3116.1942	3177.2813	3197.9553	3504.3222
CC12CC1CC2C#C	C[C@]12C[C@H]1C[C@H]2C#C	
InChI=1S/C8H10/c1-3-6-4-7-5-8(6,7)2/h1,6-7H,4-5H2,2H3	InChI=1S/C8H10/c1-3-6-4-7-5-8(6,7)2/h1,6-7H,4-5H2,2H3/t6-,7-,8-/m1/s1
