23
gdb 61389	2.79545	0.91512	0.83158	1.2217	88.25	-0.262	0.0331	0.2951	1522.9902	0.201513	-388.261501	-388.250244	-388.249299	-388.297565	42.312	
C	 0.4284131344	 1.383827635	 0.3181690918	-0.412041
C	-0.0694154503	-0.0637736946	 0.1538238158	 0.271091
C	 0.198952818	-0.8512429723	 1.4514189536	-0.411727
C	-1.5895488103	-0.0430954678	-0.102603599	-0.406339
C	 0.5909863211	-0.7453329538	-1.0737334741	-0.212192
C	 2.1260372298	-0.6523922106	-1.2116870467	-0.085603
O	 2.8426757531	-1.2230921982	-0.1174039248	-0.406113
C	 2.5543037431	-1.2452722607	-2.4846552592	 0.302364
C	 2.8864797294	-1.7749939596	-3.511712121	-0.440094
H	 1.4845702241	 1.4214212329	 0.6021469127	 0.125141
H	 0.3021979108	 1.9591374008	-0.6064949275	 0.105873
H	-0.1379495805	 1.8945026857	 1.1043375244	 0.108593
H	-0.3236114008	-0.3854091987	 2.2944989094	 0.102572
H	-0.1679180733	-1.8810302254	 1.3664779488	 0.097763
H	 1.2648478455	-0.8885442613	 1.6812916924	 0.134811
H	-1.8384662765	 0.554083599	-0.9869491596	 0.107126
H	-1.978371756	-1.0550887664	-0.2619696436	 0.107776
H	-2.1215685414	 0.3872134041	 0.7527947135	 0.108442
H	 0.3084701733	-1.806615167	-1.0957839885	 0.092258
H	 0.1727476841	-0.3043113768	-1.9874863964	 0.105754
H	 2.4202763545	 0.4029128221	-1.2056691731	 0.122159
H	 2.7180406332	-2.1781557423	-0.157277047	 0.284338
H	 3.1947129248	-2.2257722244	-4.4226576817	 0.198049
37.9601	105.558	124.1259	198.7863	230.5922	246.9283	267.5657	284.7953	296.5188	311.4495	337.6872	372.3309	386.6921	414.6015	508.1487	544.1965	574.2322	630.2091	670.364	754.0372	847.438	917.4523	923.0522	936.3828	944.7973	962.1609	1011.2993	1045.3037	1074.0614	1093.7635	1166.4455	1224.2102	1268.1266	1274.2578	1296.5204	1341.0381	1376.8969	1398.0306	1400.0274	1417.424	1432.9964	1469.8372	1479.9008	1488.5662	1491.9982	1505.2308	1511.503	1523.4994	2230.5598	3013.1502	3020.7232	3023.3519	3031.1246	3048.1956	3063.6548	3083.1188	3088.5005	3091.7155	3095.9347	3102.4673	3138.0181	3503.0798	3801.5363
CC(C)(C)CC(O)C#C	CC(C)(C)C[C@@H](O)C#C	
InChI=1S/C8H14O/c1-5-7(9)6-8(2,3)4/h1,7,9H,6H2,2-4H3	InChI=1S/C8H14O/c1-5-7(9)6-8(2,3)4/h1,7,9H,6H2,2-4H3/t7-/m0/s1
