17
gdb 68052	2.17513	1.90057	1.31572	3.5333	68.75	-0.249	0.0634	0.3124	998.3354	0.134021	-458.878265	-458.869995	-458.86905	-458.910495	32.308	
O	-0.085870496	 1.3251043015	 0.0364919052	-0.469207
C	 0.0208914015	-0.0444514246	 0.0156809374	 0.304984
C	 0.5873409464	-0.9757156069	-1.1151707179	-0.375825
C	 0.0312772868	-1.9304193988	 0.0011987422	 0.304984
O	-0.0603942783	-3.3012257488	 0.0009639748	-0.469207
C	 0.7023225593	-0.9917940674	 1.0609177186	-0.363258
C	-1.1776213127	-0.9945603191	 0.073047622	 0.473201
C	-2.4867593506	-1.0065691372	 0.6984274847	-0.32312
O	-2.3108349776	-0.9945030819	-0.7468150629	-0.307295
H	 0.7917866586	 1.7084166883	-0.0633724225	 0.288947
H	 0.0538456153	-0.9713471128	-2.0666595987	 0.122805
H	 1.6746452136	-0.9687638004	-1.2406996709	 0.081818
H	 0.8214290757	-3.6732713394	-0.1046441882	 0.288946
H	 1.795888336	-0.9857745885	 1.0612234954	 0.085752
H	 0.284778797	-1.0018421212	 2.0699927138	 0.103081
H	-2.8919242627	-1.933692554	 1.0995433989	 0.126697
H	-2.9020719621	-0.0902313387	 1.1136995482	 0.126697
179.339	198.209	207.7531	223.08	249.5503	260.4442	326.1102	455.0363	476.2379	534.4162	618.0844	629.9616	671.6601	690.3573	742.2798	794.1128	906.9801	962.8964	976.9461	1020.5725	1050.7851	1056.5789	1107.9139	1108.8951	1114.8421	1123.4491	1124.24	1128.8905	1171.6155	1266.9892	1320.3363	1378.4077	1387.1893	1475.1348	1483.6486	1525.9364	1601.1802	3050.3299	3056.5425	3091.2411	3129.5968	3140.2183	3180.8324	3814.4624	3815.1422
OC12CC(O)(C1)C21CO1	O[C@@]12C[C@@](O)(C1)[C@]12CO1	
InChI=1S/C6H8O3/c7-4-1-5(8,2-4)6(4)3-9-6/h7-8H,1-3H2	InChI=1S/C6H8O3/c7-4-1-5(8,2-4)6(4)3-9-6/h7-8H,1-3H2/t4-,5+,6-
