17
gdb 38054	3.59972	1.78036	1.53184	0.7888	71.16	-0.2327	0.0016	0.2343	885.4362	0.137961	-421.769162	-421.762669	-421.761725	-421.800413	26.594	
C	-0.0826922325	 1.596411617	 0.1289931337	-0.277777
C	 1.4521490533	 1.3689046551	-0.0209489539	-0.152828
C	 1.7071948132	 0.4836843079	 1.2201668651	-0.081524
C	 0.6960088466	-0.4006349612	 1.2260081581	-0.177974
C	-0.0593565985	 0.0206012299	-0.0240520769	 0.400534
O	-1.0688841793	-0.6547379904	-0.7009577225	-0.336961
C	-0.8382001592	-0.3418295543	-2.085387357	-0.00072
O	 0.378104783	 0.4038851116	-2.2165419061	-0.2955
C	 1.0952740653	 0.193681519	-1.0154165702	 0.116175
H	-0.4321774038	 1.9993257465	 1.0801497562	 0.09619
H	-0.5400693106	 2.1058129531	-0.7203058984	 0.110832
H	 2.1580798314	 2.1648784553	-0.2472500531	 0.073834
H	 2.5306548554	 0.5846124169	 1.912593932	 0.107057
H	 0.4669334147	-1.2096244534	 1.9030348532	 0.116568
H	-0.7784198232	-1.2893715403	-2.6376597353	 0.111391
H	-1.6533922085	 0.2773118031	-2.4781015273	 0.116083
H	 1.8386471825	-0.6046945757	-1.1149948177	 0.074619
46.9951	284.1746	360.528	421.3802	456.7206	544.809	572.8193	680.6074	700.5692	734.8662	742.1767	857.7641	872.8316	900.2559	908.6606	931.1373	958.091	995.1187	1018.6036	1024.0394	1045.0768	1067.6939	1099.3228	1131.1324	1145.5954	1173.955	1198.0019	1202.9625	1240.4783	1256.0375	1260.7059	1340.5653	1353.752	1430.8169	1485.9542	1542.4602	1593.9953	3007.5915	3051.	3058.1035	3081.4104	3142.9629	3152.6773	3227.4902	3255.8241
C1C2C=CC11OCOC21	C1[C@H]2C=C[C@]31OCO[C@@H]23	
InChI=1S/C7H8O2/c1-2-7-3-5(1)6(7)8-4-9-7/h1-2,5-6H,3-4H2	InChI=1S/C7H8O2/c1-2-7-3-5(1)6(7)8-4-9-7/h1-2,5-6H,3-4H2/t5-,6+,7-/m1/s1
