17
gdb 64616	2.85313	1.43573	1.34144	1.3098	78.46	-0.2492	-0.01	0.2392	1033.0418	0.134579	-384.639927	-384.631802	-384.630858	-384.672184	31.85	
C	-0.0338082095	 1.568022407	 0.0513314761	-0.427551
C	-0.0083985249	 0.023309062	 0.0035266005	 0.040495
C	 0.8023355981	-0.4984532496	-1.1877058641	-0.106853
C	 1.8138530607	-1.2860714072	-0.8214178137	-0.097525
C	 1.87912276	-1.3861874048	 0.6664492786	-0.004248
O	 2.1121851835	-0.1046482111	 1.3094411407	-0.260142
C	 0.7743896192	-0.5758767997	 1.1960972683	 0.005577
C	-1.3674120592	-0.51779375	-0.0256600995	 0.314893
C	-2.4839133913	-0.9641040239	-0.0364406348	-0.483794
H	 0.9874712629	 1.9417654236	 0.1497829022	 0.141782
H	-0.4799789636	 1.973811577	-0.8605593275	 0.123224
H	-0.6261882545	 1.9149120697	 0.9023992815	 0.126837
H	 0.554962112	-0.1993880422	-2.199678687	 0.111305
H	 2.5231068039	-1.7616955862	-1.487113875	 0.109324
H	 2.3081752562	-2.2403270867	 1.1802042418	 0.103323
H	 0.2528091285	-0.7801055799	 2.1267210211	 0.10613
H	-3.469659242	-1.3588130978	-0.0520545193	 0.197225
119.2907	142.0751	207.9404	239.9854	257.2977	390.9082	448.7668	469.8935	499.8312	579.6802	617.3597	625.8666	645.6162	751.1139	767.6858	821.1352	849.2946	867.7453	934.3979	957.5792	958.7503	988.9159	1034.6249	1098.1674	1107.2614	1134.1528	1192.9735	1207.1779	1253.5599	1291.1232	1369.0906	1392.669	1413.3192	1492.5222	1495.1822	1663.5417	2230.5354	3047.4419	3120.3675	3139.7646	3155.717	3172.9924	3195.9993	3222.006	3501.8279
CC1(C=CC2OC12)C#C	C[C@]1(C=C[C@H]2O[C@@H]12)C#C	
InChI=1S/C8H8O/c1-3-8(2)5-4-6-7(8)9-6/h1,4-7H,2H3	InChI=1S/C8H8O/c1-3-8(2)5-4-6-7(8)9-6/h1,4-7H,2H3/t6-,7-,8-/m1/s1
