13
gdb 49321	2.08782	1.82492	1.02703	4.276	67.41	-0.2678	-0.1126	0.1552	1065.9932	0.087729	-456.612545	-456.604678	-456.603734	-456.646395	27.373	
O	-0.0317367867	-0.0673939907	-0.0315847284	-0.227061
C	-0.0042755528	 1.1304416603	 0.0141456213	 0.180704
C	 1.2785212369	 1.9515257105	 0.0052134963	-0.322013
C	 1.3222889679	 2.9552439862	-1.1641953794	 0.362
O	 1.2457111307	 2.688838398	-2.3360670121	-0.292858
C	 1.4649335345	 4.3198544991	-0.5798312887	-0.159431
C	 1.5075594971	 4.2678735814	 0.7589197741	-0.159433
C	 1.3989188452	 2.8617531552	 1.2437040379	 0.362001
O	 1.3963008308	 2.5051887028	 2.3939111217	-0.29286
H	-0.9351368313	 1.7354836712	 0.0672831179	 0.093359
H	 2.1199600305	 1.2551553677	-0.0486087583	 0.154361
H	 1.5208576048	 5.1995954027	-1.2092115948	 0.150616
H	 1.6055256924	 5.0963532657	 1.4497276126	 0.150616
42.8582	58.323	189.6728	212.3784	261.6795	342.6495	469.2602	537.7568	566.2722	620.4059	689.9907	724.8034	805.6692	845.1383	906.1479	1019.6002	1046.1125	1049.7217	1075.1362	1113.6815	1186.1159	1199.8648	1236.272	1337.9426	1428.2179	1627.4568	1804.849	1818.9363	1857.5389	2896.5108	3091.572	3212.3488	3233.7902
O=CC1C(=O)C=CC1=O	O=C[C@H]1C(=O)C=CC1=O	
InChI=1S/C6H4O3/c7-3-4-5(8)1-2-6(4)9/h1-4H	InChI=1S/C6H4O3/c7-3-4-5(8)1-2-6(4)9/h1-4H
