21
gdb 68631	2.21287	1.71578	1.39232	2.3814	82.22	-0.2445	-0.0235	0.221	1058.2642	0.183092	-387.099611	-387.091228	-387.090284	-387.13253	32.749	
C	-0.2180714679	 1.4984611604	-0.0123111198	-0.505462
C	-0.0910150973	-0.0070424675	-0.0106894665	 0.332256
C	 0.4170504672	-0.8148023858	-1.2482930919	-0.258347
C	-0.2776450784	-2.005204454	-0.5301765185	-0.046925
C	 0.5910367151	-2.1643457808	 0.7334645212	-0.22118
C	 0.7487316673	-0.6579697461	 1.116600415	-0.2442
C	-1.3426670251	-0.940867623	-0.0790146854	-0.106391
C	-2.2289044255	-1.2152197299	 1.0998263417	 0.126116
O	-2.1323948166	-0.7070475856	 2.1910300191	-0.253016
H	 0.767747485	 1.9743456275	-0.0693499609	 0.114893
H	-0.8088494005	 1.8523963733	-0.864234646	 0.108114
H	-0.7047240825	 1.8466216417	 0.9047713355	 0.13378
H	-0.0821611509	-0.5267410522	-2.1771575623	 0.092979
H	 1.4987142834	-0.8800604703	-1.4027366422	 0.08943
H	-0.5753419619	-2.9080037412	-1.0636816656	 0.064607
H	 0.0966368487	-2.7474999378	 1.5155913416	 0.103877
H	 1.5447681644	-2.6500153466	 0.5085344492	 0.096898
H	 1.7889672769	-0.3206825648	 1.0710261704	 0.089409
H	 0.3527388524	-0.4290548512	 2.1062241778	 0.125574
H	-1.9868887436	-0.6934166827	-0.9329370386	 0.085937
H	-3.0348079703	-1.9611533733	 0.8963210463	 0.071651
61.9995	162.6937	204.3385	224.0254	266.4343	289.4782	369.585	426.3315	466.4244	581.0148	650.3139	732.5359	764.1048	831.6822	844.4652	867.7581	889.3886	914.2829	948.0115	963.3839	973.791	1006.9307	1026.9436	1076.4524	1081.8198	1112.1337	1148.2216	1153.5481	1189.8727	1224.2195	1242.4764	1255.0084	1259.2427	1278.7287	1315.7157	1339.013	1386.0894	1413.0367	1426.7232	1489.0134	1492.9367	1496.8993	1497.8518	1519.5706	1814.5395	2839.5174	3025.0128	3028.2286	3046.4822	3051.8011	3059.5896	3088.9049	3095.179	3099.8265	3107.9406	3115.0619	3131.6394
CC12CC(CC1)C2C=O	C[C@@]12C[C@@H](CC1)[C@H]2C=O	
InChI=1S/C8H12O/c1-8-3-2-6(4-8)7(8)5-9/h5-7H,2-4H2,1H3	InChI=1S/C8H12O/c1-8-3-2-6(4-8)7(8)5-9/h5-7H,2-4H2,1H3/t6-,7-,8+/m1/s1
