16
gdb 77342	3.12274	1.28161	0.94894	2.3261	72.45	-0.2674	0.0092	0.2766	1180.7478	0.123922	-437.865626	-437.857226	-437.856282	-437.898732	31.561	
O	 0.4754338002	 0.7219956023	 0.7703772676	-0.435952
C	 0.2193478834	-0.3827012709	-0.0438099601	 0.063225
C	-1.280053752	-0.7198331744	-0.2163868721	-0.217042
C	-1.2452248807	-1.4535906285	-1.576611457	-0.106932
O	-0.1905048494	-0.8174886022	-2.3282395871	-0.231727
C	 0.6353696805	-0.1513434466	-1.4845820582	 0.382838
N	 1.594871588	 0.6045333783	-1.7975773878	-0.566563
C	-1.8842796245	-1.4971028925	 0.8492638637	 0.301769
C	-2.3813110755	-2.1610360864	 1.7185744685	-0.429829
H	 1.1611539275	 1.2298834705	 0.3102956058	 0.300105
H	 0.7363155725	-1.2820978958	 0.331209749	 0.106823
H	-1.8089645469	 0.2339852234	-0.3341911409	 0.127852
H	-1.009387735	-2.5151592217	-1.4481835341	 0.131045
H	-2.1701054452	-1.3568571753	-2.1466337027	 0.138253
H	 1.7204482007	 0.6814933647	-2.8064053744	 0.233725
H	-2.8214966936	-2.7358191346	 2.4955754199	 0.202411
79.3568	128.0895	167.0252	223.2271	276.7605	366.4647	384.9711	432.4155	479.3327	552.9689	561.5982	636.8032	641.4587	646.9436	692.8456	872.2276	888.4934	899.6961	990.416	1037.8044	1049.6672	1081.1322	1110.2562	1158.0729	1217.2938	1243.5776	1273.224	1280.3794	1344.5555	1369.4721	1412.7951	1436.0576	1518.9133	1786.1762	2244.0507	2965.7155	3040.0834	3056.8413	3129.2907	3499.8723	3503.9279	3715.1507
OC1C(COC1=N)C#C	O[C@H]1[C@@H](CO[C]1[NH])C#C	
InChI=1S/C6H7NO2/c1-2-4-3-9-6(7)5(4)8/h1,4-5,7-8H,3H2	InChI=1S/C6H7NO2/c1-2-4-3-9-6(7)5(4)8/h1,4-5,7-8H,3H2/t4-,5+/m1/s1
