19
gdb 69986	3.01129	1.72833	1.60963	1.7192	72.81	-0.2511	0.0866	0.3377	935.2251	0.161586	-423.011081	-423.004097	-423.003153	-423.042014	29.064	
C	 0.0708786937	 1.5162843385	-0.0057569519	-0.495512
C	-0.0386314902	 0.0128983283	 0.0355653336	 0.359177
C	-0.9299380135	-0.7199992392	 0.9977938925	-0.346334
C	 0.5759419515	-0.8620002335	 1.1140831667	-0.110464
C	 1.3309057085	-1.9190675046	 0.285876497	 0.038249
C	 0.3558061039	-2.8961224242	-0.3854083793	-0.105327
O	-0.3065310861	-2.024327699	-1.3236798154	-0.275345
C	 0.402826565	-0.7863867544	-1.2176943771	 0.102807
O	 1.7275769553	-1.1692445517	-0.8932205532	-0.250656
H	 1.0493443947	 1.8285258255	-0.3873990933	 0.128009
H	-0.6995222271	 1.958356724	-0.6485030218	 0.120691
H	-0.0491098341	 1.9442740094	 0.9945067102	 0.117422
H	-1.409328421	-0.1241363142	 1.7696578704	 0.106911
H	-1.534754887	-1.5390956463	 0.6298277262	 0.131686
H	 1.0813503239	-0.4277729424	 1.9693638571	 0.089603
H	 2.2036354086	-2.3615149398	 0.7619368543	 0.086516
H	 0.8851981618	-3.6893443454	-0.9243093743	 0.108295
H	-0.3731000899	-3.3389585652	 0.2993938747	 0.106625
H	 0.3646165322	-0.2576228957	-2.1698026864	 0.087647
184.1516	203.4321	267.8805	309.3109	373.8628	450.4596	509.3444	574.9112	619.307	730.2467	770.9119	798.7821	833.3246	883.6966	900.7607	909.5934	936.3038	952.6498	966.7816	974.9489	1003.128	1032.8392	1057.8133	1084.4232	1109.3241	1115.4364	1129.7804	1196.3651	1235.5319	1255.7415	1282.7619	1300.9953	1311.221	1322.2315	1372.6925	1399.2052	1416.9752	1488.4167	1495.0202	1500.279	1521.4505	3023.9421	3039.2409	3085.3149	3090.4365	3100.441	3129.5168	3132.8521	3145.6226	3172.9338	3225.643
CC12CC1C1COC2O1	C[C@]12C[C@H]1[C@H]1CO[C@@H]2O1	
InChI=1S/C7H10O2/c1-7-2-4(7)5-3-8-6(7)9-5/h4-6H,2-3H2,1H3	InChI=1S/C7H10O2/c1-7-2-4(7)5-3-8-6(7)9-5/h4-6H,2-3H2,1H3/t4-,5+,6+,7-/m0/s1
