20
gdb 92570	3.905	1.24548	1.02716	3.8023	80.37	-0.2392	0.0339	0.2731	1207.1006	0.173707	-403.185076	-403.17732	-403.176376	-403.217277	30.594	
C	-0.0571954712	 1.5580416977	 0.0785977273	-0.399491
C	 0.0990776822	 0.0512019329	 0.012835398	 0.131314
C	 0.7229354391	-0.5054559001	-1.2923103422	-0.277107
C	 1.3959974857	-1.7824115408	-0.7791030921	-0.092689
C	 2.7407760326	-2.3451282068	-1.255538013	-0.26214
C	 3.4089182988	-2.726823347	 0.1077277133	-0.155252
N	 2.8515655336	-1.8084787357	 1.1257833054	-0.322932
C	 1.7972768562	-1.3377895618	 0.6068139956	 0.441905
O	 0.9966324235	-0.3703508559	 1.0855283805	-0.266759
H	 0.9079807658	 2.0510560602	-0.0707889657	 0.129711
H	-0.7473787523	 1.8975392596	-0.7004485031	 0.120819
H	-0.455885087	 1.865350011	 1.0489842319	 0.134876
H	-0.8688952319	-0.4340733294	 0.1978402792	 0.089429
H	-0.0324230907	-0.6594062255	-2.0661910391	 0.109016
H	 1.4707754276	 0.1989219153	-1.6753923737	 0.109761
H	 0.6483899791	-2.5843382378	-0.6955039322	 0.093796
H	 2.6570632149	-3.1871669641	-1.9464433002	 0.100074
H	 3.3277613314	-1.5601689242	-1.7455428748	 0.105729
H	 3.19039203	-3.7682917225	 0.382410097	 0.102162
H	 4.4981571127	-2.6283678752	 0.0793332678	 0.107779
95.6112	155.7653	226.5983	260.1703	296.4404	372.3854	450.7501	460.8196	575.2987	624.3373	671.7053	709.6083	816.7184	840.9664	851.0663	907.1355	924.3209	930.1672	986.861	1018.8761	1030.3993	1080.0678	1114.3127	1135.1189	1146.0074	1184.5633	1196.1731	1218.718	1256.3288	1276.8075	1298.9761	1323.0758	1328.2139	1365.8927	1386.2922	1391.7823	1413.1775	1482.6263	1486.7192	1492.0216	1498.2649	1508.4885	1763.4659	3004.3109	3010.895	3012.673	3041.0995	3043.7508	3046.8923	3078.0014	3107.1032	3110.061	3116.269	3124.2249
CC1CC2CCN=C2O1	C[C@H]1C[C@H]2CC[N][C]2O1	
InChI=1S/C7H11NO/c1-5-4-6-2-3-8-7(6)9-5/h5-6H,2-4H2,1H3	InChI=1S/C7H11NO/c1-5-4-6-2-3-8-7(6)9-5/h5-6H,2-4H2,1H3/t5-,6+/m0/s1
