21
gdb 108528	2.67967	1.62573	1.21907	1.9714	81.3	-0.2271	0.079	0.3061	1100.7462	0.183642	-387.042807	-387.034931	-387.033987	-387.075052	31.661	
C	 0.0741566563	 1.5237427228	 0.1642199472	-0.385303
C	-0.0403688803	 0.0207119798	-0.1223389069	-0.289264
C	-1.4598404838	-0.5046993219	-0.0998300293	 0.368763
C	-2.4949948719	 0.0140821636	-1.1004187743	-0.301849
C	-3.7493274151	-0.8172055755	-0.6950437934	-0.25605
C	-3.1682879077	-1.6364899594	 0.4492061377	-0.031713
C	-1.7046473582	-2.0385325442	 0.1190132765	-0.00115
O	-1.321688284	-1.9365501117	 1.5349526679	-0.321491
C	-2.1757060288	-0.7685828884	 1.2727213317	 0.012516
H	 1.1221539424	 1.8381367005	 0.175753989	 0.114428
H	-0.4419561842	 2.1240416441	-0.592054004	 0.11526
H	-0.3570273946	 1.7746825319	 1.1394256024	 0.115862
H	 0.4046938421	-0.1975584833	-1.1025369542	 0.090486
H	 0.5344068825	-0.5425878635	 0.6204668286	 0.116626
H	-2.6601841906	 1.0912458309	-1.0022505173	 0.103743
H	-2.1837126722	-0.1709346624	-2.1342601433	 0.099966
H	-4.5837648592	-0.188224361	-0.370011402	 0.103024
H	-4.1165802067	-1.4490703387	-1.5096177905	 0.10335
H	-3.7859247714	-2.3542509039	 0.9876793608	 0.076783
H	-1.325103112	-2.8892271992	-0.4505697557	 0.082697
H	-2.3707212526	-0.0857458106	 2.1017574791	 0.083318
92.4157	161.4758	216.4553	232.6505	318.4565	337.7177	410.0733	518.4491	641.9205	677.0172	708.7521	738.1771	784.9362	808.9433	820.9368	897.8615	900.1427	913.3615	940.2917	977.456	987.7067	1018.4286	1024.399	1070.567	1084.5529	1100.304	1147.7871	1170.1976	1178.7337	1217.1357	1227.3667	1234.2756	1252.7712	1274.3314	1288.3772	1315.4501	1342.5242	1359.4949	1385.6589	1411.0525	1484.6935	1488.4236	1501.6918	1506.7105	1510.4089	3017.615	3034.3673	3041.502	3052.8461	3071.1346	3075.9185	3094.46	3095.8686	3100.4759	3103.1679	3106.5506	3135.0128
CCC12CCC3C1OC23	CC[C@@]12CC[C@H]3[C@@H]1O[C@@H]23	
InChI=1S/C8H12O/c1-2-8-4-3-5-6(8)9-7(5)8/h5-7H,2-4H2,1H3	InChI=1S/C8H12O/c1-2-8-4-3-5-6(8)9-7(5)8/h5-7H,2-4H2,1H3/t5-,6-,7+,8+
