18
gdb 115981	2.12564	1.4401	0.9029	3.1961	81.19	-0.2549	-0.0505	0.2044	1280.8123	0.147496	-401.976086	-401.967183	-401.966239	-402.01039	31.962	
C	 0.0770467521	 1.5604103003	 0.0791062418	-0.385866
C	 0.0796889936	 0.0303001772	 0.058940281	-0.184764
C	 0.5883487133	-0.5350525912	-1.2694788901	 0.023151
O	 1.9382162295	-0.1265144103	-1.5093960343	-0.276208
C	 2.7789365097	-1.243541376	-1.7643536902	-0.1118
C	 1.9030766462	-2.4463062908	-1.5932919618	-0.20832
C	 0.6568682399	-2.0531974352	-1.3209255752	 0.194715
C	-0.4750454227	-2.881904847	-1.1127830185	 0.223457
N	-1.4225867203	-3.5253420322	-0.938760457	-0.338405
H	 1.0830833564	 1.9497389865	-0.0976073581	 0.136252
H	-0.5819152459	 1.9643911237	-0.6974205417	 0.116784
H	-0.2733349821	 1.9374479149	 1.0440377379	 0.116318
H	 0.7111874244	-0.3617729368	 0.8649903272	 0.101719
H	-0.9333095086	-0.3550426865	 0.2283787401	 0.116798
H	-0.0503190563	-0.1568582217	-2.0851111032	 0.095691
H	 3.1967822703	-1.187933323	-2.7828462077	 0.121171
H	 3.6300609726	-1.2430687284	-1.0666685644	 0.123396
H	 2.2486663881	-3.4668110235	-1.6911799158	 0.135911
63.9437	100.2662	124.3372	169.475	211.8633	232.5573	328.9829	395.2955	450.7024	533.4756	567.8465	629.2532	753.846	780.3219	848.244	868.9237	923.9602	946.6373	975.96	1041.0213	1054.3275	1090.2584	1124.2176	1141.1501	1193.3642	1198.8222	1274.7758	1291.8745	1312.9975	1352.3765	1385.003	1393.9297	1411.2256	1477.4341	1497.7513	1509.0813	1513.3335	1689.9871	2340.3004	2963.2293	2974.3297	3000.5356	3031.163	3039.1886	3071.3332	3106.8338	3125.0243	3232.4836
CCC1OCC=C1C#N	CC[C@H]1OCC=C1C#N	
InChI=1S/C7H9NO/c1-2-7-6(5-8)3-4-9-7/h3,7H,2,4H2,1H3	InChI=1S/C7H9NO/c1-2-7-6(5-8)3-4-9-7/h3,7H,2,4H2,1H3/t7-/m1/s1
