21
gdb 59390	2.77054	0.98881	0.94526	5.0861	84.22	-0.2468	0.0301	0.2768	1389.5456	0.181097	-383.271613	-383.261213	-383.260268	-383.306783	38.27	
C	 0.0261023282	 1.4422292048	-0.2244443733	-0.390095
C	 0.0554911127	-0.0545399262	 0.1222602957	-0.005379
C	 0.7457397975	-0.3070333701	 1.4711107675	-0.394236
C	-1.3581633321	-0.6149710377	 0.1191056038	 0.001294
C	-2.0341507284	-1.0896572775	-1.1380745136	-0.340933
C	-1.6409534601	-2.1011158502	-0.0554553134	 0.130213
N	-0.5598255224	-3.045533211	-0.2103333164	-0.569282
C	-2.7327390353	-2.6367779666	 0.7307385185	 0.280227
N	-3.621911011	-3.0570058482	 1.3396965821	-0.347461
H	 1.0400402575	 1.8527911989	-0.2587428041	 0.116276
H	-0.4469719319	 1.6187087281	-1.1952500542	 0.118588
H	-0.5356384389	 2.0047442615	 0.5299393321	 0.120309
H	 0.6351042811	-0.5561866098	-0.6657627453	 0.066364
H	 0.7928681907	-1.3753086637	 1.7010978282	 0.135752
H	 1.7654393093	 0.0911408037	 1.4689798025	 0.113676
H	 0.1981365189	 0.1847980521	 2.2830500504	 0.121032
H	-2.009662623	-0.1282410589	 0.8410288659	 0.11169
H	-3.0844708773	-0.8707136578	-1.2928166569	 0.134149
H	-1.4366753832	-1.1333845963	-2.0437445421	 0.116006
H	-0.7956797035	-3.7491951289	-0.9031469781	 0.242796
H	 0.2858542912	-2.5822426961	-0.5182061493	 0.239014
78.2299	100.5525	123.2602	151.6989	212.0746	228.6314	248.2453	267.8306	327.9527	349.3049	380.3648	460.5364	474.2857	583.4915	601.5405	702.6842	772.9023	832.331	872.7736	892.6208	921.5149	933.067	962.315	981.7545	1032.6984	1059.7943	1097.1116	1147.1058	1183.9891	1190.3759	1216.5155	1295.5523	1313.4673	1332.5271	1350.3	1400.3866	1418.3775	1430.9921	1476.1805	1488.318	1491.0337	1503.4569	1512.2586	1651.4447	2351.3978	2997.3682	3030.1064	3034.199	3096.7455	3102.1897	3108.8487	3114.1372	3127.8313	3140.0546	3221.8792	3510.1092	3605.6103
CC(C)C1CC1(N)C#N	CC(C)[C@H]1C[C@]1(N)C#N	
InChI=1S/C7H12N2/c1-5(2)6-3-7(6,9)4-8/h5-6H,3,9H2,1-2H3	InChI=1S/C7H12N2/c1-5(2)6-3-7(6,9)4-8/h5-6H,3,9H2,1-2H3/t6-,7+/m1/s1
