22
gdb 75544	2.35207	1.6492	1.09336	1.4766	89.09	-0.2168	0.0238	0.2406	1181.0674	0.196418	-367.214407	-367.205963	-367.205018	-367.247017	33.93	
C	-0.0861303921	 1.521978934	 0.034447064	-0.514298
C	-0.0003612147	 0.0158944826	 0.0088838736	 0.277919
C	-0.0159760349	-0.6543183638	-1.1504828091	-0.156037
C	 0.056156382	-2.1515823698	-1.2883111889	-0.249257
C	 0.4650697176	-2.8388508302	 0.0218354355	-0.21338
C	-0.2689884361	-2.2026252665	 1.2058040501	-0.261601
C	 0.0730669497	-0.7266355743	 1.3104631841	 0.271706
C	 1.0553061291	-0.2824261622	 2.3481879823	-0.282468
N	-0.384933379	-0.0930649701	 2.5655558197	-0.370402
H	 0.7241819901	 1.9775179851	 0.6169317141	 0.124178
H	-0.0275423338	 1.9270877629	-0.9785863084	 0.126012
H	-1.0306348822	 1.8714454314	 0.4712578665	 0.128571
H	-0.0917717572	-0.0884437229	-2.0771944066	 0.074877
H	-0.9225865204	-2.5304089162	-1.621152798	 0.106622
H	 0.7550540462	-2.4147777227	-2.0927642695	 0.100354
H	 0.2595455624	-3.9130670245	-0.0297222474	 0.090994
H	 1.5470485051	-2.7289208661	 0.1685029756	 0.099142
H	-1.3535783497	-2.3029039557	 1.067366938	 0.099753
H	-0.0233608769	-2.7033068356	 2.1470669267	 0.097603
H	 1.5242860815	-1.0270343016	 2.9869308635	 0.114732
H	 1.6748034782	 0.5865048936	 2.1431192415	 0.10789
H	-0.6303695146	 0.8803651826	 2.4068443226	 0.227089
86.9163	185.6879	218.6086	276.7037	288.4487	304.2353	373.7645	382.9855	446.3092	486.1035	595.6446	633.1304	653.6534	812.082	821.6209	838.231	871.7941	910.5534	922.4438	956.6946	972.5631	985.8034	1037.0578	1061.8685	1073.1125	1092.5317	1101.4262	1118.8513	1158.5751	1170.8163	1209.6554	1261.3732	1274.905	1305.7111	1336.5582	1367.1064	1375.5637	1386.3261	1406.8639	1415.0312	1475.6245	1482.2307	1488.3625	1495.7478	1498.9411	1516.0359	1719.845	2989.7832	3015.8499	3020.7163	3026.2551	3038.398	3062.412	3074.4743	3082.7378	3103.03	3113.8684	3139.7903	3186.4834	3509.8
CC1=CCCCC11CN1	CC1=CCCC[C@]21CN2	
InChI=1S/C8H13N/c1-7-4-2-3-5-8(7)6-9-8/h4,9H,2-3,5-6H2,1H3	InChI=1S/C8H13N/c1-7-4-2-3-5-8(7)6-9-8/h4,9H,2-3,5-6H2,1H3/t8-/m1/s1
