17
gdb 15609	3.48334	1.81296	1.27147	3.0644	72.37	-0.2255	-0.0042	0.2213	969.3304	0.14241	-360.068929	-360.060544	-360.0596	-360.102054	29.693	
C	-0.0283207077	 1.4229767727	-0.0055199879	-0.339894
N	-0.0404469048	-0.0312037876	 0.0041899755	-0.319655
C	 0.5575881943	-0.6191631675	 0.9535926647	 0.408407
N	 1.2540856973	-0.081279111	 2.0402377687	-0.358233
C	 1.6943645167	-1.1296436792	 2.8397456681	 0.059124
N	 1.4224199046	-2.3038833598	 2.4257925775	-0.249277
C	 0.6697712432	-2.1307212091	 1.1660667596	-0.059491
C	-0.690345702	-2.8286804766	 1.2100719644	-0.377264
H	 0.9927221859	 1.831459549	-0.0671383109	 0.108274
H	-0.5811288585	 1.7877807926	-0.8745024342	 0.128733
H	-0.5036599322	 1.852392986	 0.8911362426	 0.105179
H	 1.3273961528	 0.8960796531	 2.2625380301	 0.262687
H	 2.241765751	-0.9105381188	 3.7515318905	 0.132334
H	 1.2642549425	-2.5624655472	 0.3509127154	 0.117673
H	-1.2887651066	-2.452482316	 2.0450691859	 0.117951
H	-1.2307139794	-2.6340784619	 0.2804267765	 0.137948
H	-0.5582052372	-3.9056658086	 1.3387726633	 0.125504
69.8469	98.4794	157.075	199.4083	232.9749	269.4489	297.4259	411.3498	496.5867	587.0761	663.8764	724.8648	815.9778	853.5436	903.4915	941.4184	1027.6414	1052.0824	1080.9033	1102.3696	1109.4478	1121.1312	1164.1401	1216.8082	1283.1534	1320.7821	1351.3791	1395.2432	1403.918	1435.6446	1487.0725	1493.0563	1495.4948	1506.8357	1681.843	1779.0983	2964.2994	3010.6907	3030.3109	3047.2956	3102.6304	3122.15	3136.2739	3187.4922	3678.6864
CN=C1NC=NC1C	CN=C1NC=N[C@H]1C	
InChI=1S/C5H9N3/c1-4-5(6-2)8-3-7-4/h3-4H,1-2H3,(H,6,7,8)	InChI=1S/C5H9N3/c1-4-5(6-2)8-3-7-4/h3-4H,1-2H3,(H,6,7,8)/t4-/m0/s1
