16
gdb 49502	2.34837	1.64408	1.14363	4.8803	71.76	-0.242	-0.053	0.189	1061.9782	0.123284	-437.837022	-437.829129	-437.828185	-437.869872	28.969	
O	 0.1357074374	 0.0761984541	 0.4989294108	-0.313476
C	 0.0662255485	 1.2330969626	 0.1473777484	 0.114172
N	 1.0927599226	 1.9120567825	-0.4775654437	-0.097424
C	 2.5545596099	 1.6829357976	-0.1903075495	-0.016317
C	 2.8361066485	 2.9483181948	-1.0489953508	-0.259244
C	 1.621967576	 3.2770325699	-0.118697584	 0.217615
C	 2.4381390516	 2.6154119084	 1.0531109594	-0.26391
C	 0.7835290988	 4.5074319098	-0.0734171042	 0.046415
O	-0.4152278106	 4.5113066924	-0.1948500856	-0.241864
H	-0.8541859072	 1.8412412691	 0.2026999197	 0.107856
H	 2.9984240144	 0.6936718929	-0.2616777403	 0.124082
H	 3.7648163755	 3.481392339	-0.8446033522	 0.11399
H	 2.6020327437	 2.8737534136	-2.1106457865	 0.128592
H	 1.8456807007	 2.2371986621	 1.8868398643	 0.135469
H	 3.3435146361	 3.1321232809	 1.3800723661	 0.112435
H	 1.3602523342	 5.4436663101	 0.0968775579	 0.091608
95.35	121.3681	136.3876	226.5246	262.8293	314.9348	440.7889	494.3774	554.2915	653.9982	754.5786	762.8157	800.0897	884.5245	900.2428	959.6236	980.697	1007.2265	1012.9361	1046.4323	1087.729	1100.2819	1127.7651	1164.8354	1215.7298	1217.1316	1224.523	1283.2088	1337.5547	1404.0457	1420.5404	1478.9036	1519.8717	1782.2323	1818.5651	2888.6782	2986.0922	3068.605	3089.8677	3152.5538	3165.5567	3171.1953
O=CN1C2CC1(C2)C=O	O=CN1[C@H]2C[C@@]1(C2)C=O	
InChI=1S/C6H7NO2/c8-3-6-1-5(2-6)7(6)4-9/h3-5H,1-2H2	InChI=1S/C6H7NO2/c8-3-6-1-5(2-6)7(6)4-9/h3-5H,1-2H2/t5-,6+
