21
gdb 104191	2.42464	1.27382	1.2584	1.3624	74.31	-0.2482	0.0644	0.3126	1163.702	0.179682	-461.351058	-461.340889	-461.339945	-461.385232	38.898	
C	 0.3986832729	 1.5084413207	-0.225799474	-0.442368
C	-0.0315816026	 0.0732006338	 0.0508619071	 0.351549
O	-1.4441972632	-0.027406965	 0.133682925	-0.484087
C	 0.6977540805	-0.9794805914	-0.8410269988	-0.283075
C	 1.68416505	-1.24325928	 0.3277929928	-0.289675
C	 0.6735719056	-0.5494679404	 1.2927596106	 0.402361
O	 1.1877536814	 0.3937127058	 2.2023031469	-0.497536
C	-0.2120815248	-1.5399591947	 2.0442694518	-0.139842
O	 0.6057380652	-2.0794747447	 3.0864206883	-0.44314
H	 1.4866372449	 1.6048990214	-0.2581847571	 0.128697
H	 0.003109482	 1.833603011	-1.1968030946	 0.096099
H	 0.0238635255	 2.1740476272	 0.5550867597	 0.134897
H	-1.8259305118	 0.4793396506	-0.5902445756	 0.275787
H	 0.0451208789	-1.8324261548	-1.0423372653	 0.103654
H	 1.1183980805	-0.6213833192	-1.7839677744	 0.091625
H	 1.9453182896	-2.2792727338	 0.5506417589	 0.104903
H	 2.5991016532	-0.6526337495	 0.2466855654	 0.106458
H	 1.3893589598	-0.1056596076	 3.0050711393	 0.282529
H	-1.0767788727	-1.0050364313	 2.4537878179	 0.110518
H	-0.579946926	-2.3297665025	 1.377043818	 0.097102
H	 0.0335744513	-2.5009842557	 3.733013418	 0.293545
100.1826	131.0476	176.7673	194.4678	239.8769	261.0874	277.8538	291.1866	325.5044	351.9172	399.7151	421.5676	457.5959	497.4689	575.7602	621.5025	738.6112	762.2023	885.8756	908.1714	923.9761	938.8686	961.6104	990.6496	1042.4575	1061.2609	1110.7909	1146.5415	1181.0051	1195.3587	1206.1374	1219.3688	1234.274	1249.7895	1280.5299	1305.2096	1342.2481	1406.6441	1417.5486	1445.1174	1474.3819	1484.9312	1490.8963	1497.1717	1507.2198	3017.4366	3023.3885	3060.7399	3065.8151	3074.3268	3103.8396	3112.5447	3132.0675	3135.3762	3757.0329	3812.0347	3844.4315
CC1(O)CCC1(O)CO	C[C@@]1(O)CC[C@]1(O)CO	
InChI=1S/C6H12O3/c1-5(8)2-3-6(5,9)4-7/h7-9H,2-4H2,1H3	InChI=1S/C6H12O3/c1-5(8)2-3-6(5,9)4-7/h7-9H,2-4H2,1H3/t5-,6+/m1/s1
