16
gdb 67922	2.07879	1.77233	1.17434	2.8889	77.7	-0.2502	0.0065	0.2567	1081.4314	0.122169	-400.69006	-400.681643	-400.680699	-400.722938	31.943	
C	-0.0992835814	 1.4883043931	 0.0659002655	-0.49259
C	 0.0441142291	 0.0053619728	 0.087143515	 0.436706
O	-1.170743013	-0.7864390796	-0.0162763513	-0.295709
C	-0.6799857328	-1.6732800689	 0.9463585211	 0.451083
N	-1.2356201096	-2.6340497594	 1.5235775709	-0.555283
C	 0.6442299119	-0.9941082863	 1.0507893013	-0.271292
C	 1.2109901541	-0.8216392267	-0.381232605	-0.304571
C	 1.1320198583	-1.8299468328	-1.3973435057	 0.336192
C	 1.0787390539	-2.6704053193	-2.254758208	-0.417169
H	 0.8684317856	 1.9664457279	 0.2402664117	 0.134527
H	-0.4742230462	 1.8215733366	-0.907424865	 0.147173
H	-0.8001411178	 1.8197544256	 0.8375794717	 0.142747
H	-2.1909987014	-2.7650155562	 1.1869709285	 0.233352
H	 1.2599271061	-0.8863621685	 1.9316945979	 0.126162
H	 2.1478236135	-0.2672087131	-0.3578996754	 0.127992
H	 1.0228242597	-3.416102295	-3.0086462734	 0.20068
97.4375	136.1933	167.3735	199.945	289.0856	310.6636	371.6883	447.6557	491.2971	576.5489	607.6319	662.0239	673.292	705.2103	713.6529	819.2769	870.2887	898.3825	908.8603	939.8678	976.2193	979.014	1065.6837	1089.4595	1114.1792	1162.5367	1196.3948	1297.4166	1314.4014	1408.7827	1467.4602	1474.312	1495.9142	1838.1966	2242.5125	3041.1242	3109.657	3123.1505	3129.0988	3229.7613	3480.8624	3503.4169
CC12OC(=N)C1C2C#C	C[C@]12O[C]([NH])[C@H]1[C@H]2C#C	
InChI=1S/C7H7NO/c1-3-4-5-6(8)9-7(4,5)2/h1,4-5,8H,2H3	InChI=1S/C7H7NO/c1-3-4-5-6(8)9-7(4,5)2/h1,4-5,8H,2H3/t4-,5-,7-/m1/s1
