20
gdb 82382	2.69014	1.78129	1.37652	3.0502	76.76	-0.2445	0.0616	0.3061	994.4861	0.174459	-403.11582	-403.10862	-403.107676	-403.147014	30.502	
O	 0.0327510413	 1.4509851069	 0.0323893627	-0.439909
C	-0.0223962888	 0.0391407982	-0.0088451626	 0.08622
C	-1.4708625459	-0.4740398332	-0.0211040014	-0.024525
C	-2.6235928838	 0.4875484323	-0.1253156808	-0.29365
C	-2.2166160907	-0.3221375954	-1.330903566	-0.020676
C	-1.4192966848	 0.301940118	-2.4786100665	-0.251581
C	-0.0224363678	-0.3116454756	-2.5551632005	-0.009729
N	 1.1263759313	 0.5571714739	-2.2108369406	-0.357679
C	 0.6937547648	-0.4904062558	-1.2690377441	-0.057755
H	 0.5694437387	 1.7097498659	-0.7367201806	 0.292597
H	 0.4832677387	-0.3622004255	 0.8800648816	 0.065859
H	-1.6255024843	-1.3889809949	 0.5426733144	 0.075152
H	-3.5505383364	 0.2311815048	 0.3764843321	 0.101342
H	-2.3717221141	 1.5414799522	-0.1178596427	 0.131801
H	-2.8746144782	-1.1379917474	-1.6148116829	 0.075917
H	-1.9456989582	 0.1633340615	-3.4271494214	 0.097379
H	-1.3161764288	 1.3793881197	-2.32663964	 0.120151
H	 0.1477294437	-1.0512001168	-3.3334772912	 0.086254
H	 1.9669458928	 0.2804839883	-2.7089547441	 0.236968
H	 1.3326809306	-1.3582595671	-1.1354670756	 0.085864
126.0605	235.6421	295.8581	352.2509	386.1525	452.8404	480.3567	531.8172	573.1815	596.1623	731.9638	776.9405	803.1446	814.5178	853.8006	869.5053	912.7404	914.3773	948.0026	970.4278	997.6066	1031.794	1049.7093	1071.6021	1077.1902	1126.5283	1128.8341	1144.309	1176.3998	1195.3962	1221.3713	1238.1033	1265.9579	1306.2489	1317.7257	1359.2263	1363.8028	1383.596	1404.1397	1433.4856	1457.6553	1472.79	1486.793	2998.1016	3058.3349	3100.0421	3134.5871	3135.3294	3142.4097	3150.9583	3155.1541	3228.3304	3518.2932	3621.0483
OC1C2CC2CC2NC12	O[C@H]1[C@H]2C[C@H]2C[C@H]2N[C@@H]12	
InChI=1S/C7H11NO/c9-7-4-1-3(4)2-5-6(7)8-5/h3-9H,1-2H2	InChI=1S/C7H11NO/c9-7-4-1-3(4)2-5-6(7)8-5/h3-9H,1-2H2/t3-,4-,5+,6+,7-/m0/s1
