22
gdb 118200	1.83431	1.19164	0.76441	6.5127	79.99	-0.2364	0.036	0.2724	1528.2966	0.193853	-441.523392	-441.513111	-441.512167	-441.55925	37.059	
C	 1.024252011	 0.7161706661	 0.3455202901	-0.326599
N	 0.6837515677	-0.6445212373	-0.0766495132	-0.296314
H	 1.8728400009	-1.8976280791	-0.2827726641	 0.307896
H	 0.1893523124	-1.1091529723	 0.681204241	 0.23926
C	-0.1559572722	-0.694551191	-1.2809234504	-0.133818
C	-0.2928512653	-2.1149749881	-1.8528118333	-0.014634
C	-1.3747468021	-2.1183806957	-2.9438073207	-0.39878
C	 1.0374735419	-2.6722211662	-2.4278595974	-0.323618
C	 1.9752000409	-3.4188152408	-1.4713454009	 0.376603
O	 2.3385779043	-2.7756089281	-0.3570219937	-0.383196
O	 2.3868830604	-4.5237235858	-1.7217242304	-0.332241
H	 1.6605097508	 1.1816309446	-0.4131503415	 0.138582
H	 0.1413006701	 1.3576808947	 0.4904047506	 0.113655
H	 1.5853878632	 0.67789231	 1.2824956665	 0.13682
H	-1.1556479716	-0.2724971908	-1.0861451249	 0.092655
H	 0.3126104688	-0.0493834424	-2.0352214541	 0.112885
H	-0.6323470951	-2.7770180128	-1.0433338866	 0.087358
H	-2.3296683935	-1.7436544414	-2.5612433889	 0.114002
H	-1.0812872745	-1.4862557284	-3.7902592102	 0.120044
H	-1.5373390662	-3.1295982968	-3.326585094	 0.128713
H	 0.8205719526	-3.3861527724	-3.2243029559	 0.126821
H	 1.6036419153	-1.8490033461	-2.8853892682	 0.113907
60.2874	77.4311	114.5153	153.9162	193.6276	222.0791	258.6129	269.1899	310.051	347.9008	434.5107	459.856	465.8882	606.7628	709.8623	819.0766	857.7619	895.8439	904.6366	949.5845	957.3068	991.658	1058.7957	1077.6757	1089.6785	1125.2939	1144.7246	1151.9583	1192.9982	1242.2006	1294.365	1310.5297	1320.6282	1338.8225	1370.0726	1401.5121	1417.6522	1460.2326	1468.4295	1474.847	1492.6604	1495.387	1499.6015	1500.9408	1508.8412	1516.6197	1846.7471	2966.7873	2987.5577	3003.0488	3023.5054	3031.2226	3046.7025	3081.6792	3096.3116	3110.2142	3116.5518	3123.5734	3149.2385	3493.5383
C[NH2+]CC(C)CC([O-])=O	CNC[C@@H](C)CC(=O)O	
InChI=1S/C6H13NO2/c1-5(4-7-2)3-6(8)9/h5,7H,3-4H2,1-2H3,(H,8,9)	InChI=1S/C6H13NO2/c1-5(4-7-2)3-6(8)9/h5,7H,3-4H2,1-2H3,(H,8,9)/t5-/m0/s1
