16
gdb 123906	3.4626	1.58962	1.13483	5.0701	70.73	-0.2167	-0.0294	0.1873	1022.4489	0.127378	-434.054753	-434.047906	-434.046962	-434.085992	27.008	
C	-0.0106028068	 1.528677772	-0.0042975714	-0.214614
C	 1.4389155482	 2.0616138464	 0.0299078467	-0.169624
N	 2.216976822	 1.6312172258	 1.2021452704	-0.392167
C	 1.9100292225	 0.3283550262	 1.5800225431	 0.249303
C	 0.9462230447	-0.4579377273	 1.0273853129	 0.354944
C	-0.0499856739	-0.0185097769	 0.0149380403	-0.337601
O	 1.0187609411	-1.6662789876	 1.5881953832	-0.230168
N	 2.0727122515	-1.5898013425	 2.5626408637	-0.029005
N	 2.5672751673	-0.4295169506	 2.5169942887	-0.201203
H	-0.5579064202	 1.9141454485	 0.8636905915	 0.112616
H	-0.5149679287	 1.9052813967	-0.8990383369	 0.111053
H	 1.965675344	 1.7159150187	-0.8695326747	 0.120968
H	 1.4435639703	 3.1537916055	 0.0022993053	 0.115312
H	 2.1963080153	 2.2888507561	 1.9712329892	 0.244637
H	-1.0517867201	-0.3815534518	 0.2664643803	 0.133639
H	 0.1928330228	-0.4274698491	-0.9742622821	 0.131909
111.0936	216.9945	300.9397	333.5474	390.9028	452.7814	516.2637	569.8836	653.7919	661.3259	692.0766	728.508	769.4327	858.9422	872.0274	938.0653	996.6075	1013.8305	1063.1165	1102.9707	1179.3341	1213.4174	1225.2852	1274.6283	1298.1987	1329.5763	1363.6672	1394.258	1417.614	1433.9489	1474.2614	1476.1927	1492.5576	1500.3343	1673.6416	3020.4394	3026.3794	3042.7138	3078.1101	3095.3114	3102.8548	3556.8513
C1CNC2=C(C1)ON=N2	C1CNc2c(C1)onn2	
InChI=1S/C5H7N3O/c1-2-4-5(6-3-1)7-8-9-4/h6H,1-3H2	InChI=1S/C5H7N3O/c1-2-4-5(6-3-1)7-8-9-4/h6H,1-3H2
