23
gdb 64320	2.50667	1.39592	1.13633	1.3457	86.48	-0.2302	0.027	0.2572	1205.4967	0.206543	-388.310719	-388.301528	-388.300584	-388.343831	36.8	
C	-0.0725454242	 1.5581201334	 0.0053005501	-0.420642
C	-0.0234388828	 0.0222652485	-0.0074937231	 0.339945
O	-1.3579032092	-0.4945397429	 0.1034014496	-0.457422
C	 0.6199799905	-0.4527697663	-1.3299121521	-0.207599
C	 0.611226105	-1.9725398007	-1.5752621256	-0.256564
C	 1.6066287074	-2.7524884036	-0.7503347256	-0.05159
C	 1.6545295093	-2.7593122292	 0.5813755461	-0.051218
C	 0.7241547845	-1.9889874953	 1.4872527306	-0.264385
C	 0.7063296388	-0.4662127759	 1.2575543281	-0.178829
H	 0.9332561706	 1.9897478099	-0.0254781663	 0.114494
H	-0.6220264419	 1.9371547182	-0.8649630785	 0.098726
H	-0.5763877112	 1.9144094097	 0.9083767077	 0.119013
H	-1.8641306496	-0.1643887844	-0.6467495678	 0.274205
H	 0.0686601993	 0.0315084934	-2.1490085699	 0.075317
H	 1.6470912383	-0.0728930521	-1.3859321634	 0.095756
H	-0.4051361796	-2.3400410372	-1.3816607879	 0.115602
H	 0.8062467829	-2.1510553442	-2.6374712775	 0.090045
H	 2.3289108293	-3.3523643586	-1.2994914598	 0.079143
H	 2.4152953812	-3.3655582231	 1.0683191031	 0.07935
H	-0.3025010655	-2.3604771443	 1.3804279724	 0.129843
H	 1.0081153541	-2.1709039984	 2.5286693582	 0.090428
H	 1.7327224718	-0.0824841879	 1.2389353548	 0.091445
H	 0.203830921	 0.0021069712	 2.1119855366	 0.094937
92.2529	188.4659	230.6585	241.7327	266.4808	280.1398	294.9572	346.8514	402.8325	422.0201	459.2521	501.07	560.9694	656.1684	691.9771	733.5104	841.0505	857.8372	885.2328	914.9898	928.6323	975.5052	995.3254	1002.346	1041.6675	1048.3643	1087.9827	1105.9788	1124.036	1164.8166	1201.1067	1241.3282	1262.7999	1273.6918	1309.3585	1344.0783	1362.4225	1367.3108	1382.4766	1403.1489	1417.0484	1422.559	1466.6968	1480.4492	1482.1648	1490.2381	1494.2241	1496.4956	1726.1243	2998.6989	3023.425	3024.3378	3030.5605	3034.7081	3058.1877	3071.3039	3072.2854	3077.3421	3091.3806	3113.9234	3135.6245	3160.6695	3802.406
CC1(O)CCC=CCC1	C[C@@]1(O)CCC=CCC1	
InChI=1S/C8H14O/c1-8(9)6-4-2-3-5-7-8/h2-3,9H,4-7H2,1H3	InChI=1S/C8H14O/c1-8(9)6-4-2-3-5-7-8/h2-3,9H,4-7H2,1H3
