18
gdb 51594	3.00502	0.96651	0.80272	3.5268	78.89	-0.2503	0.0194	0.2697	1419.485	0.146044	-401.923185	-401.913704	-401.91276	-401.958496	34.202	
O	 0.3572811496	 1.1459428632	 1.4444062655	-0.317916
C	 0.2409995775	 1.6619307301	 0.3549051971	 0.150545
N	 1.2412525851	 1.7818457481	-0.5652074376	-0.279233
C	 2.5172445025	 1.1452754338	-0.4047017494	 0.013255
C	 3.7361080537	 1.8449413387	-0.9513863497	-0.324227
C	 3.5453571209	 1.7225005627	 0.5382654422	 0.026239
C	 3.235805443	 2.9460373714	 1.3868748205	-0.393067
C	 4.4381388577	 3.6779991809	 1.7729958344	 0.306015
C	 5.4382408024	 4.266473647	 2.0863022404	-0.436718
H	-0.7046267562	 2.1146797541	-0.0065782018	 0.077183
H	 0.9936313047	 2.1278801229	-1.4798948658	 0.249902
H	 2.487676697	 0.0602853611	-0.4695587031	 0.109211
H	 4.4951880665	 1.2484012421	-1.4438136372	 0.122499
H	 3.5853150292	 2.8281511055	-1.3866321123	 0.118391
H	 4.1609835708	 0.9845240778	 1.0424249552	 0.105077
H	 2.5626830941	 3.612621785	 0.8354484413	 0.124301
H	 2.6831910215	 2.630191001	 2.27950298	 0.15611
H	 6.3157623902	 4.7930648844	 2.3685155705	 0.192435
45.2343	64.2842	113.4749	147.3991	218.3698	276.7759	303.0579	343.0653	412.6935	478.53	525.5514	580.4221	614.1094	637.8818	763.6859	816.523	852.5985	874.6985	887.9746	967.2389	1024.5007	1036.3229	1043.143	1073.6066	1112.0632	1136.5363	1158.9295	1204.0732	1247.877	1274.4185	1319.9894	1389.5794	1419.7658	1430.4472	1469.9332	1487.617	1503.2172	1809.559	2239.2636	2929.2685	3036.4681	3069.8648	3128.382	3132.3814	3164.2803	3220.6408	3507.5502	3612.4618
O=CNC1CC1CC#C	O=CN[C@H]1C[C@H]1CC#C	
InChI=1S/C7H9NO/c1-2-3-6-4-7(6)8-5-9/h1,5-7H,3-4H2,(H,8,9)	InChI=1S/C7H9NO/c1-2-3-6-4-7(6)8-5-9/h1,5-7H,3-4H2,(H,8,9)/t6-,7+/m1/s1
