23
gdb 118954	2.97206	0.89654	0.85696	2.3234	81.46	-0.2428	0.0759	0.3187	1504.3517	0.203746	-425.412054	-425.401458	-425.400514	-425.447969	38.727	
C	-0.4727999903	 1.3329027932	-0.1149625566	-0.419256
C	 0.0960585345	-0.0768905887	-0.0585242705	-0.074719
C	 1.4588318665	-0.3535635631	-0.7240777535	-0.083074
O	 1.9706072135	-0.9880925388	 0.4622402946	-0.329542
C	 0.7859367387	-0.6209049133	 1.2365715615	 0.41029
C	 1.1556132667	 0.4154452863	 2.2933718879	-0.438691
C	 0.1266367563	-1.8689538166	 1.8259146771	-0.242622
C	 0.9862168424	-2.6269990352	 2.8430865289	-0.073908
O	 0.3780460772	-3.8419746692	 3.2587697519	-0.421025
H	 0.2638483045	 2.0877748268	 0.1754000626	 0.120039
H	-0.8011202764	 1.5697425513	-1.132977255	 0.119141
H	-1.3425207745	 1.4403166304	 0.5420862537	 0.120093
H	-0.6639595278	-0.7860556211	-0.4004462774	 0.07593
H	 1.4630498352	-1.0274922626	-1.5888855565	 0.098907
H	 2.0289830545	 0.5506608217	-0.9822898679	 0.092662
H	 1.6141118495	 1.2959495334	 1.8371040909	 0.117769
H	 0.2755841913	 0.7377153699	 2.8602943503	 0.115168
H	 1.8807798734	-0.0035884898	 2.996324486	 0.129825
H	-0.8312282528	-1.5967751556	 2.2873852469	 0.10094
H	-0.1007693502	-2.550749949	 0.9956212076	 0.082968
H	 1.9863720873	-2.7985182356	 2.4195461068	 0.109562
H	 1.112788514	-2.0421482965	 3.7588837351	 0.109952
H	 0.3286511165	-4.4202741877	 2.4909722056	 0.279591
54.1512	92.7769	98.2001	143.3028	203.1068	214.4437	270.311	299.1773	304.5794	343.996	354.3822	404.8008	441.9709	537.8048	684.2773	757.3999	780.7569	876.427	900.5837	921.313	951.4237	980.9504	1018.4012	1024.269	1059.6649	1073.5418	1120.8913	1127.4891	1145.2527	1174.324	1178.9786	1220.3324	1252.462	1289.9544	1311.1465	1339.2141	1348.3019	1390.4808	1400.7385	1413.5537	1415.726	1424.0325	1469.8086	1482.711	1491.7413	1499.5518	1509.2434	1516.2294	1529.4665	2995.0949	3004.8774	3013.8354	3031.8696	3041.525	3043.0407	3055.911	3061.3046	3089.3257	3094.033	3106.4784	3114.1105	3123.9255	3815.1753
CC1COC1(C)CCO	C[C@H]1CO[C@]1(C)CCO	
InChI=1S/C7H14O2/c1-6-5-9-7(6,2)3-4-8/h6,8H,3-5H2,1-2H3	InChI=1S/C7H14O2/c1-6-5-9-7(6,2)3-4-8/h6,8H,3-5H2,1-2H3/t6-,7+/m0/s1
