21
gdb 71026	3.69957	1.58858	1.32054	0.04	87.01	-0.2614	0.1026	0.364	1037.7102	0.184472	-349.886742	-349.879546	-349.878602	-349.917739	30.456	
C	-0.0537491923	 1.49528254	-0.0749242024	-0.514473
C	 0.0520856947	-0.0050234926	-0.0341350887	 0.313953
C	 0.6976166994	-0.9440563587	-1.1133667878	-0.396569
C	 0.1999997424	-1.8996695064	-0.0097399863	 0.347769
C	 0.0187944427	-3.2920033834	 0.5610820601	-0.352279
C	-0.7152747647	-2.8544738308	 1.8902916319	-0.222238
C	-0.771896886	-1.305174272	 1.7476592534	-0.077342
C	 0.584336102	-0.9022147743	 1.1311375585	-0.090726
C	-1.0803183735	-1.0434150437	 0.2582966544	-0.090738
H	 0.9364944061	 1.9620302025	-0.1282813689	 0.116039
H	-0.6249126027	 1.8295828244	-0.9485918793	 0.116038
H	-0.5566684517	 1.8765980296	 0.8207879355	 0.117288
H	 0.1922262521	-0.9972844433	-2.0841534986	 0.088349
H	 1.7816582745	-0.8624854912	-1.2507668356	 0.088351
H	-0.6022663496	-3.9436342135	-0.0609418305	 0.097866
H	 0.961517557	-3.8109927202	 0.7590116621	 0.097866
H	-1.7160981366	-3.2920664322	 1.9648976644	 0.096896
H	-0.1580289343	-3.1599109186	 2.7818555006	 0.096896
H	-1.2458730339	-0.7528503767	 2.5622610073	 0.052229
H	 1.5696406099	-0.8509744884	 1.6015899981	 0.057412
H	-2.0235725155	-1.1557728006	-0.2824640383	 0.057415
212.9414	223.1409	226.8049	245.5781	384.1884	431.9423	463.6789	571.7392	699.3035	722.029	730.4937	811.222	823.1489	840.2979	858.1562	873.4451	893.102	935.9445	949.843	989.4278	994.41	1019.0032	1031.315	1067.4132	1084.9777	1122.0392	1147.5963	1153.9704	1164.729	1170.2933	1188.0334	1214.3363	1232.0378	1242.2428	1256.0651	1267.4215	1307.186	1338.78	1370.4248	1410.0961	1486.617	1487.2994	1492.9606	1509.1463	1510.5865	3021.2112	3026.9445	3041.0253	3052.1091	3074.2043	3075.1101	3077.7887	3083.4094	3086.2047	3090.617	3091.9773	3097.6862
CC12CC34CCC(C13)C24	C[C@@]12C[C@@]34CC[C@@H]([C@H]13)[C@@H]24	
InChI=1S/C9H12/c1-8-4-9-3-2-5(6(8)9)7(8)9/h5-7H,2-4H2,1H3	InChI=1S/C9H12/c1-8-4-9-3-2-5(6(8)9)7(8)9/h5-7H,2-4H2,1H3/t5-,6+,7-,8+,9-
