23
gdb 109176	3.73859	0.89517	0.79061	1.2829	88.68	-0.2305	0.0299	0.2603	1536.2903	0.206477	-388.318185	-388.308629	-388.307685	-388.35254	36.592	
C	 0.0930950426	 1.5263584733	 0.2884405696	-0.372331
C	 0.0015293348	 0.0445173002	-0.1168612307	-0.271509
C	-1.4047676817	-0.5058618987	-0.11067377	 0.33561
C	-1.9939290074	-0.9440711288	-1.2272884848	-0.163138
C	-3.3962618574	-1.4923920483	-1.2929717199	-0.27956
C	-4.2088849914	-1.1567491568	-0.0370476896	 0.136211
O	-5.3946448046	-1.9358422152	 0.0592012965	-0.442547
C	-3.3737885271	-1.4265526428	 1.2089153483	-0.205177
C	-2.1218363328	-0.5395852544	 1.2237609532	-0.306817
H	 1.1293633347	 1.8759282652	 0.246873206	 0.112241
H	-0.5031211316	 2.1519085729	-0.3838500696	 0.117492
H	-0.2697190261	 1.6906883489	 1.3077522767	 0.118636
H	 0.4355710522	-0.0839172749	-1.1146121417	 0.096705
H	 0.6232448368	-0.5447727992	 0.5727867545	 0.097862
H	-1.4394776801	-0.91580856	-2.1636260088	 0.07352
H	-3.9068015889	-1.1066041636	-2.1871118629	 0.088358
H	-3.3774355401	-2.5864658922	-1.4064095522	 0.112303
H	-4.4623375992	-0.0827038574	-0.059591867	 0.061861
H	-5.9049622096	-1.8001862668	-0.7456630948	 0.277642
H	-3.9825322183	-1.2579345596	 2.102619676	 0.099933
H	-3.0872923017	-2.4854111476	 1.2093360066	 0.10343
H	-1.4292050432	-0.8859899148	 2.0023463368	 0.099868
H	-2.3954743298	 0.4840983506	 1.5173224079	 0.109404
66.8832	88.6666	195.0212	198.6885	223.0676	279.8461	307.1296	330.4526	377.7249	403.919	447.5422	510.9097	557.8598	665.5345	762.4031	786.0641	825.8338	845.022	934.6839	938.8308	961.5441	978.7056	1046.7031	1064.2196	1075.021	1092.4668	1097.4491	1120.117	1153.5655	1182.4363	1214.5464	1257.0138	1283.2368	1290.7177	1324.8361	1337.7324	1343.7606	1359.3709	1385.2947	1401.8747	1407.1139	1441.6507	1477.6934	1480.66	1482.0586	1498.1712	1501.428	1508.786	1732.7943	2946.8328	2995.5584	3001.0766	3003.8145	3023.2909	3027.0566	3036.3673	3042.0817	3059.4396	3085.5732	3105.5664	3109.3596	3137.0927	3812.8501
CCC1=CCC(O)CC1	CCC1=CC[C@@H](O)CC1	
InChI=1S/C8H14O/c1-2-7-3-5-8(9)6-4-7/h3,8-9H,2,4-6H2,1H3	InChI=1S/C8H14O/c1-2-7-3-5-8(9)6-4-7/h3,8-9H,2,4-6H2,1H3/t8-/m1/s1
