21
gdb 62607	2.85445	1.73156	1.51008	0.3636	85.72	-0.2158	0.0165	0.2323	993.1787	0.183355	-349.932276	-349.924531	-349.923586	-349.963645	32.586	
C	-0.0224169686	 1.569700113	-0.0490874765	-0.450977
C	 0.0516716612	 0.0447491882	-0.0215126195	 0.323473
C	-1.3360753219	-0.5468233476	 0.2504719233	-0.427723
C	 0.7105912683	-0.6780754649	-1.199494662	-0.093843
C	 2.2617222696	-0.744111837	-1.099456666	-0.097072
C	 2.9762401643	 0.1758673451	-0.1671158112	-0.090027
C	 2.3680941918	 0.1593410404	 1.0241784549	-0.104455
C	 1.1239154975	-0.6888255349	 0.9263208731	-0.131551
C	 1.3932780703	-1.6542854213	-0.2760869711	-0.072748
H	 0.9509998058	 2.0233143481	-0.2419327051	 0.117909
H	-0.7092253969	 1.8948684206	-0.8397030668	 0.105863
H	-0.4037391756	 1.9671451064	 0.8993347715	 0.10439
H	-2.0516019596	-0.2463979246	-0.5237978371	 0.107909
H	-1.3091513038	-1.6404601098	 0.2756271372	 0.112787
H	-1.7234421053	-0.1931740204	 1.2130863539	 0.108163
H	 0.2369706323	-0.8655074239	-2.1577498758	 0.077383
H	 2.7498063147	-1.1314561077	-1.9868707512	 0.080794
H	 3.8302951431	 0.7782944257	-0.4514866175	 0.093975
H	 2.611086793	 0.7773493631	 1.8798300315	 0.094106
H	 0.7185858493	-1.0836748421	 1.8580539811	 0.058896
H	 1.4225664806	-2.7371636562	-0.2769047166	 0.08275
184.871	204.2197	242.7558	255.4378	336.7527	351.9236	422.2258	460.8702	592.683	594.7563	714.9946	740.0729	757.7431	796.9725	807.5071	822.8076	872.7309	902.7939	925.3771	945.2424	956.3505	968.6149	990.6643	994.3147	1027.0126	1042.6607	1064.2587	1094.7491	1124.2212	1135.0597	1198.4132	1210.1054	1232.5477	1250.8241	1277.5276	1330.1624	1359.6137	1376.5979	1397.4117	1416.8167	1483.5239	1485.1843	1501.5932	1510.0996	1643.5809	3019.3247	3026.1434	3077.6133	3084.2567	3101.6342	3107.6653	3132.0915	3159.0259	3171.7795	3184.491	3194.8896	3219.8284
CC1(C)C2C3C=CC1C23	CC1(C)[C@H]2[C@H]3C=C[C@@H]1[C@@H]23	
InChI=1S/C9H12/c1-9(2)6-4-3-5-7(6)8(5)9/h3-8H,1-2H3	InChI=1S/C9H12/c1-9(2)6-4-3-5-7(6)8(5)9/h3-8H,1-2H3/t5-,6+,7-,8-/m0/s1
