17
gdb 6871	2.83655	1.69305	1.46522	4.4134	69.39	-0.2401	0.0256	0.2657	940.6123	0.141922	-360.034498	-360.025504	-360.02456	-360.067514	32.9	
C	-0.1554681295	 1.5239951838	-0.092133122	-0.458344
C	-0.0310848592	 0.0143911488	-0.0661435516	 0.243282
N	-1.1057106494	-0.7448854539	 0.5311529358	-0.546251
C	 0.6797402863	-0.711539238	-1.1902453177	-0.000237
N	 1.2989714614	-0.077849035	-2.317235997	-0.531646
C	 1.3403595067	-0.62987066	 0.1846981417	-0.227729
C	 2.502932276	 0.1902391911	 0.345734524	 0.300415
N	 3.4369940293	 0.8679705621	 0.4452944354	-0.356699
H	 0.7019858662	 2.0094666504	-0.5631892993	 0.131926
H	-1.056763613	 1.8145259893	-0.645016605	 0.113558
H	-0.2443637076	 1.9215454387	 0.9247521946	 0.126884
H	-1.2810333262	-0.4249270916	 1.4804739775	 0.232328
H	-1.9668519305	-0.5956521809	 0.0110685569	 0.231655
H	 0.2672375336	-1.6955776191	-1.400288539	 0.11349
H	 0.6457974949	 0.5020078289	-2.8318399704	 0.236176
H	 2.0921827755	 0.495372507	-2.0525352098	 0.251914
H	 1.3304602354	-1.5355035017	 0.7794084258	 0.139277
118.8198	138.2539	156.3041	183.3365	209.8495	249.1033	310.7796	380.1028	387.6998	428.8174	501.3396	561.6011	633.939	709.8684	768.7588	829.6388	855.4621	882.9825	947.3257	1004.8971	1036.5699	1075.3839	1119.4089	1203.0808	1221.6281	1263.913	1277.9152	1305.2325	1350.5608	1411.8803	1430.566	1488.2809	1495.5795	1657.4696	1659.7995	2341.4635	3028.4598	3088.6319	3125.246	3135.5597	3188.2201	3474.5792	3513.0745	3549.3142	3595.6603
CC1(N)C(N)C1C#N	C[C@@]1(N)[C@@H](N)[C@H]1C#N	
InChI=1S/C5H9N3/c1-5(8)3(2-6)4(5)7/h3-4H,7-8H2,1H3	InChI=1S/C5H9N3/c1-5(8)3(2-6)4(5)7/h3-4H,7-8H2,1H3/t3-,4+,5+/m1/s1
