14
gdb 56093	7.6917	0.51208	0.48171	4.3586	71.23	-0.273	-0.0677	0.2053	2088.6338	0.098147	-473.835441	-473.825565	-473.824621	-473.873282	32.2	
N	-0.1260470783	 1.3067027341	-0.0858235006	-0.564672
C	 0.0585231644	-0.0389255228	-0.0084731715	 0.518167
O	 1.121431177	-0.6085874285	 0.0632111353	-0.388723
O	-1.1480719921	-0.6729678781	-0.0534882843	-0.257381
C	-1.045918689	-2.1028088342	-0.0278307897	-0.227475
C	-2.3798337027	-2.6718956784	-0.0033704035	 0.060329
C	-3.4671758436	-3.195696095	 0.0175913406	 0.081584
C	-4.7851827479	-3.7767444752	 0.0422042656	 0.022378
O	-5.0082762621	-4.9649141093	 0.0576934564	-0.225203
H	 0.671122847	 1.8867244271	 0.1084844206	 0.274859
H	-1.046837235	 1.6909282778	 0.0364178466	 0.271196
H	-0.494448986	-2.4546043806	-0.9077355746	 0.164349
H	-0.4730422946	-2.4217436303	 0.8503468992	 0.166281
H	-5.6050970472	-3.0302154366	 0.0460259897	 0.104311
11.6581	49.5599	65.0939	147.3504	176.4282	183.1579	238.6528	275.5415	395.1893	407.7039	511.6292	547.2712	588.2934	674.9427	781.1802	848.5658	939.4202	996.6022	1020.5821	1082.7228	1114.6219	1166.7892	1245.4502	1333.8268	1413.4469	1421.41	1478.601	1611.7801	1770.2375	1839.0255	2334.9662	2922.1195	3039.6606	3072.6518	3621.6804	3753.6772
NC(=O)OCC#CC=O	NC(=O)OCC#CC=O	
InChI=1S/C5H5NO3/c6-5(8)9-4-2-1-3-7/h3H,4H2,(H2,6,8)	InChI=1S/C5H5NO3/c6-5(8)9-4-2-1-3-7/h3H,4H2,(H2,6,8)
