20
gdb 110441	2.64105	1.36933	1.08088	1.8672	77.59	-0.2414	0.0614	0.3029	1177.4166	0.171513	-403.07841	-403.069839	-403.068895	-403.112016	32.426	
C	-0.356111495	 1.5225342091	 0.4004710795	-0.439698
C	 0.0191054021	 0.0488227724	 0.3060152342	 0.048271
C	 0.5172089797	-0.619336437	-0.9653130223	-0.070068
C	 2.0173693392	-0.6544952494	-0.98107905	-0.085646
C	 2.5670535612	-0.0066564904	 0.2807855194	 0.025596
C	 3.0246509264	 1.4476096419	 0.3605520842	-0.117546
O	 4.3831397533	 1.5919797526	-0.0385695071	-0.417828
C	 1.2860212173	-0.5823991961	 0.9339044456	-0.088788
N	 1.2516186326	-1.6773847211	-0.1905332669	-0.157157
H	 0.3849979961	 2.1824361572	-0.0537009471	 0.122696
H	-1.3099871046	 1.701892534	-0.1074468778	 0.119374
H	-0.481935982	 1.825525553	 1.4458529716	 0.119766
H	-0.8244853866	-0.5535772633	 0.6650751315	 0.091788
H	-0.0587996221	-0.8795902431	-1.8474442598	 0.091513
H	 2.5611875528	-0.9476071759	-1.873673221	 0.090346
H	 3.4055726351	-0.6206161402	 0.6309724256	 0.099655
H	 2.3782040434	 2.1108079965	-0.2282242906	 0.091556
H	 2.986221463	 1.7915624035	 1.4003232466	 0.11244
H	 4.4407809572	 1.366813759	-0.9724915673	 0.283197
H	 1.2934958011	-0.8878549728	 1.9791750118	 0.080535
55.9287	124.9896	163.1772	194.0332	246.7033	283.0328	329.7001	384.4101	551.4999	584.6654	686.923	738.4363	764.6975	803.1675	812.1556	890.6626	912.9935	925.2858	986.0777	1026.7207	1040.2924	1053.7352	1060.9932	1088.6802	1102.0453	1129.8016	1142.9383	1156.3234	1178.8015	1185.0767	1214.0983	1273.9965	1277.6898	1335.2819	1366.4578	1378.295	1399.517	1405.4738	1411.3774	1421.9003	1489.8667	1496.939	1505.4916	3015.7876	3031.3141	3038.7396	3043.6891	3071.0752	3093.4524	3128.4799	3133.7921	3159.0364	3172.6136	3817.3722
CC1C2C3C(CO)C1N23	C[C@H]1[C@H]2[C@H]3[C@@H](CO)[C@@H]1N23	
InChI=1S/C7H11NO/c1-3-5-4(2-9)7-6(3)8(5)7/h3-7,9H,2H2,1H3	InChI=1S/C7H11NO/c1-3-5-4(2-9)7-6(3)8(5)7/h3-7,9H,2H2,1H3/t3-,4+,5-,6+,7-,8?/m1/s1
