17
gdb 42481	4.44289	0.75191	0.67214	2.176	77.29	-0.276	-0.0388	0.2371	1641.6098	0.133738	-421.802431	-421.793153	-421.792209	-421.837992	32.861	
O	-0.0165105994	-0.0765999813	-0.3317890002	-0.356755
C	 0.061400679	 1.1029650372	-0.0896327004	 0.298001
O	 1.2033958473	 1.8044348862	-0.0358703456	-0.234357
C	 2.4089749609	 1.0481390202	-0.3082383034	-0.084865
C	 3.5750373643	 1.9843123721	-0.2112343305	 0.001428
C	 4.1716755435	 2.305842972	 1.1350548654	-0.249068
C	 4.9254929669	 1.4281823561	 0.1700349538	-0.272844
C	-1.0794445455	 1.9516357394	 0.1856188742	 0.226187
C	-2.0610518853	 2.6078528194	 0.4072761463	-0.359034
H	 2.4847509852	 0.2320868938	 0.4181601412	 0.121166
H	 2.3179262612	 0.5982876222	-1.3021168113	 0.127806
H	 3.5681363469	 2.7852389217	-0.9443493148	 0.096267
H	 4.5301857738	 3.3143506693	 1.3055644218	 0.118592
H	 3.72822927	 1.8381886532	 2.0077278422	 0.118509
H	 4.9956081586	 0.3686242681	 0.3931529896	 0.118352
H	 5.7990729851	 1.8331596779	-0.3275648524	 0.119136
H	-2.9292330726	 3.1886858827	 0.6032187442	 0.211479
40.2348	55.206	101.2706	152.2442	196.7936	268.933	299.5557	355.6835	413.7755	558.1276	608.1411	655.5034	696.0524	773.3729	776.2278	813.7348	838.8817	897.3677	935.9606	960.2183	1003.4096	1041.6812	1062.3968	1083.0546	1136.1073	1196.1075	1200.03	1227.1075	1255.7271	1277.9784	1369.7827	1439.602	1470.8499	1498.3325	1510.889	1788.1216	2237.1052	3046.4558	3090.5106	3134.8525	3139.5276	3157.1132	3213.887	3228.7185	3497.7574
O=C(OCC1CC1)C#C	O=C(OCC1CC1)C#C	
InChI=1S/C7H8O2/c1-2-7(8)9-5-6-3-4-6/h1,6H,3-5H2	InChI=1S/C7H8O2/c1-2-7(8)9-5-6-3-4-6/h1,6H,3-5H2
