17
gdb 85551	2.54873	1.71834	1.28843	4.1834	67.76	-0.2547	0.0141	0.2688	998.5683	0.136814	-458.982982	-458.975341	-458.974397	-459.015147	29.801	
O	-0.1147238524	 1.4891537126	 0.1020388081	-0.425229
C	-0.0168351011	 0.0757304243	-0.000324213	 0.087792
C	 0.735006536	-0.5156290338	 1.2009356304	-0.381223
C	 0.0180395508	-0.2116695863	 2.508456901	 0.426228
O	 0.5782913798	 0.1044176741	 3.5203311629	-0.323702
O	-1.3385907328	-0.2937956807	 2.4968761071	-0.220907
C	-2.030819496	-0.7469205526	 1.3500107373	 0.101196
C	-2.6154056387	 0.2827302099	 0.433483132	-0.299245
C	-1.4158311775	-0.5284111011	-0.0036379669	-0.070187
H	 0.7678910564	 1.843345173	 0.2531416811	 0.290684
H	 0.4990346474	-0.2012221977	-0.9305063012	 0.078713
H	 0.8111281689	-1.6031660326	 1.0787525416	 0.132463
H	 1.7518943349	-0.1257369387	 1.2959189097	 0.124904
H	-2.5802660734	-1.6583363185	 1.5608886264	 0.108226
H	-3.5731569493	 0.0746052264	-0.029453675	 0.118164
H	-2.4287867365	 1.319456571	 0.6836395624	 0.154106
H	-1.5736134665	-1.3073595194	-0.7414319139	 0.098015
102.4191	111.3597	252.1409	298.16	361.7652	382.5321	439.3999	505.9624	519.3606	587.9498	627.97	724.9293	765.9326	818.0826	873.072	912.3734	915.6479	982.9979	1020.1436	1031.0597	1059.1757	1077.5767	1119.783	1126.8017	1160.9933	1183.087	1223.6227	1225.8553	1266.4411	1302.8931	1373.6168	1379.7386	1405.4747	1430.5451	1468.258	1479.4309	1855.0642	2994.2935	3044.1946	3103.9883	3148.1783	3159.5896	3169.9598	3247.4095	3815.2026
OC1CC(=O)OC2CC12	O[C@H]1CC(=O)O[C@H]2C[C@@H]12	
InChI=1S/C6H8O3/c7-4-2-6(8)9-5-1-3(4)5/h3-5,7H,1-2H2	InChI=1S/C6H8O3/c7-4-2-6(8)9-5-1-3(4)5/h3-5,7H,1-2H2/t3-,4-,5-/m0/s1
