20
gdb 53265	3.42677	0.87693	0.77455	1.3446	90.48	-0.2279	0.0428	0.2707	1559.7979	0.170021	-365.953844	-365.94426	-365.943316	-365.990247	34.49	
C	 0.0764575958	 1.4875375035	 0.0141512862	-0.499852
C	 0.037238899	 0.0325799761	 0.0148119047	 0.081699
C	 0.0099293158	-1.1720662645	 0.0318426162	 0.149618
C	-0.0324432435	-2.6067254164	 0.0076349344	-0.349065
N	-0.5555955187	-3.3089449326	 1.2175308716	-0.375498
C	-1.3183606106	-3.3678194005	-0.0144787435	 0.384779
C	-2.7207135969	-2.7955103336	-0.22311465	-0.28778
C	-2.8901997646	-3.7980765748	-1.4049211441	-0.206076
C	-1.6299315461	-4.572042148	-0.9109458081	-0.308645
H	 1.1033075632	 1.8579524905	-0.0806426253	 0.147793
H	-0.5044337729	 1.9050714094	-0.8159389371	 0.145899
H	-0.336602806	 1.8930847238	 0.944404345	 0.151484
H	 0.801387491	-3.0824197692	-0.506813005	 0.100989
H	-0.0327222992	-4.1727453895	 1.3519176502	 0.228936
H	-3.3799690889	-3.0170691804	 0.6210704301	 0.10792
H	-2.7807918633	-1.7290831455	-0.4510589392	 0.11246
H	-3.8238365875	-4.3619718457	-1.4416267914	 0.100908
H	-2.7282792211	-3.3250436391	-2.3760596594	 0.10862
H	-0.8810966224	-4.8551672768	-1.6558475583	 0.101034
H	-1.8941410531	-5.4589232568	-0.324523037	 0.104778
16.6094	68.4681	93.7952	114.6156	224.8658	245.9338	333.9433	358.8607	373.8399	492.2513	524.3801	584.3682	711.7531	754.1607	792.3774	834.9245	884.4387	914.8585	926.853	951.4257	982.705	1007.5136	1051.9247	1053.1267	1060.0625	1136.4682	1152.4889	1190.2742	1211.2545	1222.324	1246.346	1251.6069	1269.613	1290.4486	1354.9517	1413.9223	1455.18	1470.9195	1477.174	1478.5842	1480.668	1505.7531	2368.0739	3025.4632	3040.6804	3060.9953	3072.4936	3084.717	3087.7408	3091.9683	3111.2077	3112.2861	3130.3103	3478.5255
CC#CC1NC11CCC1	CC#C[C@H]1NC21CCC2	
InChI=1S/C8H11N/c1-2-4-7-8(9-7)5-3-6-8/h7,9H,3,5-6H2,1H3	InChI=1S/C8H11N/c1-2-4-7-8(9-7)5-3-6-8/h7,9H,3,5-6H2,1H3/t7-/m1/s1
