22
gdb 120702	3.18416	0.83673	0.74893	1.6121	85.65	-0.2261	-0.0233	0.2028	1644.565	0.1918	-404.344331	-404.33386	-404.332916	-404.380653	37.402	
C	 0.3366183182	 1.3916746048	 0.6424179801	-0.38223
C	 0.0969350149	-0.0403867597	 0.1575880916	-0.163701
C	 1.018832607	-0.4229975219	-1.0015621606	-0.135329
N	 0.7779675609	-1.8194653894	-1.3776533569	-0.084985
C	-0.2232569988	-2.1053966385	-2.3742795224	-0.239544
C	 1.2279375965	-2.3411267843	-2.6837938539	-0.111514
C	 1.8856350004	-1.4703606247	-3.7160764715	 0.386175
C	 3.0806136137	-2.0860491136	-4.4192222522	-0.486022
O	 1.497686145	-0.3489904208	-3.9733455011	-0.3208
H	 1.3635333076	 1.523834153	 1.0012041418	 0.11442
H	 0.1726844667	 2.1168830985	-0.1621203042	 0.118751
H	-0.3375036871	 1.6484803007	 1.4650498978	 0.113088
H	 0.243828699	-0.7511982197	 0.9787357598	 0.103769
H	-0.946098803	-0.1517795073	-0.1650540893	 0.097333
H	 0.8847481563	 0.2707355793	-1.8409293211	 0.126909
H	 2.0654130822	-0.3485250244	-0.6802288524	 0.095444
H	-0.8677100017	-2.9605406642	-2.1861491909	 0.11761
H	-0.6810402591	-1.2684964067	-2.8995688749	 0.132812
H	 1.6204969936	-3.3536301177	-2.6226883746	 0.089932
H	 2.7965851733	-3.0319063799	-4.8951683374	 0.141167
H	 3.4676810593	-1.395911762	-5.1692188346	 0.142164
H	 3.8659308951	-2.3232900115	-3.6919406133	 0.144553
51.5378	77.9592	93.2319	125.4427	148.7847	223.978	238.8312	243.3462	339.8395	348.1538	415.3854	448.4892	594.1011	642.7291	761.3216	767.1048	790.4114	876.1842	905.7504	916.4549	957.0944	1009.9875	1021.252	1046.9874	1056.1975	1103.946	1123.1919	1132.9377	1141.8079	1190.7449	1206.417	1281.6724	1319.4647	1333.4133	1333.9912	1376.2793	1400.8188	1404.5674	1414.8897	1463.2671	1474.1944	1487.0872	1493.0449	1500.3947	1505.2684	1520.5885	1787.2413	3017.1451	3028.3355	3032.1919	3033.0297	3052.308	3072.9554	3091.8972	3092.3473	3099.1459	3105.3479	3129.9637	3155.4611	3184.6776
CCCN1CC1C(C)=O	CCCN1C[C@H]1C(=O)C	
InChI=1S/C7H13NO/c1-3-4-8-5-7(8)6(2)9/h7H,3-5H2,1-2H3	InChI=1S/C7H13NO/c1-3-4-8-5-7(8)6(2)9/h7H,3-5H2,1-2H3/t7-,8?/m0/s1
