18
gdb 38141	2.83422	1.83901	1.34596	3.2171	75.79	-0.2367	0.0022	0.2389	966.8644	0.151158	-401.907933	-401.901066	-401.900122	-401.939464	27.569	
C	 0.2294948352	 1.6008865754	 0.1643419522	-0.082053
O	 1.4300691352	 1.4949025728	-0.6321619171	-0.29498
C	 1.3270418041	 0.0461351132	-0.681309748	 0.078487
C	 2.482504836	-0.6439566422	-0.0272555879	-0.077353
C	 2.386042847	-1.3179546673	 1.1189839842	-0.031071
C	 1.1181151484	-1.4335039099	 1.8808532516	-0.087752
N	 0.6498633233	-0.1944782268	 2.5568301731	-0.329461
C	-0.0896382546	-0.7135098998	 1.3933603282	-0.054788
C	-0.0135998975	 0.0763822902	 0.1002432411	-0.083833
H	 0.4402056784	 1.9738918171	 1.1714780482	 0.122178
H	-0.5266545867	 2.23052671	-0.3192373726	 0.092995
H	 1.2356001081	-0.2830775638	-1.7260813686	 0.074121
H	 3.4379675548	-0.5673561348	-0.5401456996	 0.09869
H	 3.262698826	-1.799187379	 1.5451815657	 0.094634
H	 0.9688085703	-2.3680864529	 2.4161832996	 0.087942
H	 0.1543714125	-0.4363133201	 3.4120811636	 0.230834
H	-1.0496674572	-1.1834090758	 1.5934993778	 0.083541
H	-0.8590140831	-0.1955069663	-0.5346235216	 0.07787
67.1211	190.3781	273.9734	350.8089	448.9394	491.5473	537.7016	613.3063	697.6768	753.5255	795.6122	819.1204	856.2514	876.7603	928.8306	938.5179	972.09	987.1438	1001.9017	1019.2823	1025.5536	1066.4347	1102.9243	1135.0647	1163.8845	1171.3766	1174.3382	1221.869	1250.7476	1268.4091	1288.8087	1341.1545	1358.2897	1374.5984	1405.5758	1429.4777	1456.5996	1518.3024	1714.8704	2993.9764	3025.0059	3078.7092	3091.1674	3125.5174	3135.7425	3150.3652	3171.9341	3489.5825
C1OC2C=CC3NC3C12	C1O[C@H]2C=C[C@H]3N[C@H]3[C@@H]12	
InChI=1S/C7H9NO/c1-2-6-4(3-9-6)7-5(1)8-7/h1-2,4-8H,3H2	InChI=1S/C7H9NO/c1-2-6-4(3-9-6)7-5(1)8-7/h1-2,4-8H,3H2/t4-,5+,6-,7-/m0/s1
