15
gdb 51713	4.06936	0.92085	0.77857	2.4505	62.85	-0.266	-0.0401	0.2259	1370.6349	0.110985	-494.942781	-494.934415	-494.933471	-494.97759	28.712	
O	-0.7190198159	 0.8484427843	 0.7314727695	-0.227129
C	 0.0484469259	 0.9738510259	-0.1862594692	 0.14759
C	 1.3180836934	 1.8062727467	-0.1178353946	-0.303054
C	 1.3717671364	 2.8830256309	-1.1892519749	 0.210324
O	 2.593927245	 3.5816329245	-1.1118543489	-0.252452
C	 2.9451370831	 3.9411571958	-2.4344473663	-0.230795
C	 2.2071522024	 2.9349793881	-3.309521682	 0.404576
O	 2.3294537958	 2.7044782565	-4.4721854199	-0.312199
O	 1.3186034916	 2.2952824562	-2.4953725378	-0.231209
H	-0.1232061207	 0.4694282021	-1.1605081873	 0.106936
H	 1.3910486902	 2.270973506	 0.8681172236	 0.142973
H	 2.181908202	 1.1476658018	-0.2719922804	 0.138454
H	 0.5211289879	 3.5781812191	-1.1050776193	 0.106856
H	 2.6245057464	 4.9615096893	-2.6928821868	 0.140522
H	 4.0262761062	 3.8654301128	-2.5663365359	 0.158607
41.1209	65.5637	104.9644	145.341	206.1942	358.9723	404.3275	510.3291	528.985	559.2543	671.8564	721.739	844.0309	848.6221	928.3509	968.1903	1029.785	1062.6036	1072.0142	1110.6659	1141.7321	1199.1176	1216.7366	1230.6271	1286.1255	1340.1936	1385.9082	1420.2704	1426.6436	1453.4254	1493.7098	1835.8777	1911.6932	2916.9395	2982.8997	3005.3708	3044.9111	3115.9677	3125.8579
O=CCC1OCC(=O)O1	O=CC[C@H]1OCC(=O)O1	
InChI=1S/C5H6O4/c6-2-1-5-8-3-4(7)9-5/h2,5H,1,3H2	InChI=1S/C5H6O4/c6-2-1-5-8-3-4(7)9-5/h2,5H,1,3H2/t5-/m0/s1
