21
gdb 30718	2.90527	1.18091	0.90155	0.8242	87.02	-0.2023	0.0316	0.2339	1374.5219	0.181326	-387.143503	-387.133493	-387.132548	-387.178761	36.173	
C	 0.2683654758	 1.6098527451	-0.2185657655	-0.368389
C	-0.053403162	 0.1293706518	 0.0525374868	-0.291831
C	 0.5477021557	-0.3870890757	 1.3151236408	 0.28648
C	 0.0349186388	-0.836533926	 2.4968353246	 0.0568
C	-1.4044513668	-0.9595594707	 2.8917225448	-0.509476
C	 1.1689919503	-1.1843542469	 3.3247719039	 0.195485
C	 1.1276269789	-1.7293967299	 4.717804185	-0.501713
C	 2.2666414299	-0.9140637631	 2.5744462173	-0.132073
O	 1.9146123738	-0.4298381255	 1.3524315373	-0.194147
H	 1.3493211655	 1.7657420386	-0.2709173608	 0.131371
H	-0.1706439665	 1.9361240516	-1.1664821581	 0.109771
H	-0.1247896672	 2.2475911086	 0.5791258931	 0.118458
H	-1.1373328505	-0.0139502429	 0.1014451452	 0.1093
H	 0.3011085498	-0.4758737872	-0.792266841	 0.114622
H	-1.6655301634	-1.9932265113	 3.1493574985	 0.125919
H	-1.6356674456	-0.3464964053	 3.7713964257	 0.125974
H	-2.0731220951	-0.6428503225	 2.0870552506	 0.123308
H	 0.582514833	-2.6798674061	 4.7646648336	 0.126005
H	 2.1355778886	-1.9063389145	 5.1034154949	 0.123207
H	 0.6240970698	-1.0411758864	 5.4074004525	 0.125883
H	 3.3250790274	-1.0090036216	 2.7567623609	 0.125046
47.2885	110.0127	126.5385	145.2878	198.8287	225.1977	234.7833	288.9941	296.4798	380.547	470.4018	559.1441	632.6191	677.393	711.0137	731.6481	735.0572	784.0466	922.5086	973.948	1009.6699	1027.8522	1052.3305	1072.3049	1083.2794	1126.7746	1170.8211	1177.2662	1249.3862	1282.9962	1317.0142	1354.1136	1401.4974	1412.7372	1417.6316	1430.4977	1472.7787	1478.1069	1487.4603	1489.2184	1495.8375	1502.403	1507.4735	1606.9722	1679.1565	3020.7994	3021.6421	3023.0839	3039.5431	3066.4991	3068.9146	3078.7505	3107.4158	3109.6877	3111.0406	3121.7427	3266.4957
CCC1=C(C)C(C)=CO1	CCc1c(C)c(C)co1	
InChI=1S/C8H12O/c1-4-8-7(3)6(2)5-9-8/h5H,4H2,1-3H3	InChI=1S/C8H12O/c1-4-8-7(3)6(2)5-9-8/h5H,4H2,1-3H3
