15
gdb 44160	3.08154	1.21788	1.02423	6.4045	69.3	-0.2632	-0.0296	0.2335	1145.6818	0.112462	-416.794668	-416.786813	-416.785869	-416.827958	28.698	
O	 0.2486071659	 0.0312483561	 0.2477293791	-0.277042
C	 0.095191306	 1.2072322915	 0.1726708568	 0.394006
C	-1.1071374983	 2.1623437322	 0.0999239318	-0.383253
C	-0.0593917375	 3.2701380004	 0.0234156916	-0.056348
C	 0.9336337703	 3.2224563558	 1.1066079296	 0.00454
C	 0.6423368604	 2.8009178659	 2.5422435281	-0.380704
C	 1.853360101	 2.3817997876	 3.2491047988	 0.276648
N	 2.8127574256	 2.0705129499	 3.8113502495	-0.290735
N	 1.1005664886	 2.2496315137	-0.0137892259	-0.177522
H	-1.6542862723	 2.0265068916	-0.8364497014	 0.155599
H	-1.8191772048	 2.1609492111	 0.9288256923	 0.137949
H	-0.0774013497	 4.0790724851	-0.6968552661	 0.125187
H	 1.7129122203	 3.9781529274	 1.0485485856	 0.137227
H	 0.2107839247	 3.6554810094	 3.0773573608	 0.165476
H	-0.0901383001	 1.9906797821	 2.5953620696	 0.168973
46.217	113.8871	143.5634	235.5751	350.2794	382.533	468.5137	484.3237	530.5717	595.2782	641.1138	743.5611	805.8016	833.8245	923.1458	940.3818	971.3425	1000.9406	1017.9733	1030.0911	1077.0449	1123.415	1159.1103	1225.2334	1236.0898	1268.5905	1320.8715	1355.6362	1442.1491	1456.3086	1459.9824	1924.2772	2370.3271	3047.1491	3070.7171	3100.0612	3123.9195	3150.2712	3194.9417
O=C1CC2C(CC#N)N12	O=C1C[C@H]2[C@@H](CC#N)N12	
InChI=1S/C6H6N2O/c7-2-1-4-5-3-6(9)8(4)5/h4-5H,1,3H2	InChI=1S/C6H6N2O/c7-2-1-4-5-3-6(9)8(4)5/h4-5H,1,3H2/t4-,5+,8?/m1/s1
