15
gdb 98008	4.63634	0.58354	0.5728	2.9506	76.37	-0.2812	-0.0838	0.1974	1911.6667	0.108103	-457.758462	-457.74832	-457.747376	-457.795716	33.529	
C	 0.7005060262	 1.1647525083	 0.2535357238	-0.484059
C	-0.2382180715	 0.0138142196	-0.023196216	 0.249224
O	-1.1028158859	-0.3555413443	 0.7384935126	-0.258069
C	-0.0451312747	-0.6609206837	-1.3019096861	 0.155858
C	 0.1127068266	-1.2404501148	-2.3520450142	-0.024585
C	 0.2719895553	-1.9163514657	-3.6164636963	 0.190151
O	 1.1110407718	-2.7758278348	-3.8013527171	-0.302211
C	-0.6716435515	-1.5078027284	-4.7384232972	-0.137535
O	-0.395078261	-2.2170741859	-5.9047221659	-0.416425
H	 1.7377151874	 0.8124773377	 0.2432063533	 0.159152
H	 0.6111048735	 1.922341176	-0.5325949398	 0.154232
H	 0.4621515452	 1.6011259138	 1.224338577	 0.154485
H	-1.7039088552	-1.6776173355	-4.3890260725	 0.13306
H	-0.5723953485	-0.4206020151	-4.8914001142	 0.127702
H	 0.3294790721	-2.8217700674	-5.6780649975	 0.299021
29.2762	62.9802	67.6211	116.982	124.4656	216.7255	243.8711	316.2383	320.081	380.9389	493.7324	552.198	564.8925	604.6079	626.6478	756.19	873.9903	974.3099	1008.5725	1044.2396	1109.794	1157.3985	1233.3691	1238.4032	1308.1906	1384.2553	1444.4971	1458.6522	1466.0658	1485.7734	1752.1254	1777.0521	2297.217	2975.0386	2993.4614	3040.4712	3105.0427	3156.1894	3690.2946
CC(=O)C#CC(=O)CO	CC(=O)C#CC(=O)CO	
InChI=1S/C6H6O3/c1-5(8)2-3-6(9)4-7/h7H,4H2,1H3	InChI=1S/C6H6O3/c1-5(8)2-3-6(9)4-7/h7H,4H2,1H3
