17
gdb 125830	3.01648	1.29596	0.98204	4.1102	74.98	-0.2669	-0.0342	0.2328	1205.4746	0.135962	-417.968657	-417.960451	-417.959507	-418.002662	29.878	
C	-0.2484109627	 1.5161270468	-0.0861966642	-0.504408
C	-0.0043949948	 0.0471423232	 0.0118084551	 0.251729
N	 0.029882404	-0.7283847477	-1.0380039786	-0.136635
O	 0.2718784354	-1.98860918	-0.5725821136	-0.157474
N	 0.3902348433	-1.9970880135	 0.7906625804	-0.175369
C	 0.2246536231	-0.7587984877	 1.1765723722	 0.287533
C	 0.2766376069	-0.3301808196	 2.5845489541	-0.115478
C	-0.2442591894	-1.2440264926	 3.6799377574	-0.255375
C	 1.2286737235	-1.0085939958	 3.5538897021	-0.255389
H	 0.5932096046	 2.0834077946	 0.3248010025	 0.143873
H	-0.3836631561	 1.8032006342	-1.1301862889	 0.15748
H	-1.1443736243	 1.8047035226	 0.4732815301	 0.143885
H	 0.1185401948	 0.733172099	 2.7245903673	 0.090927
H	-0.7780186509	-0.7820879227	 4.5027382495	 0.119936
H	-0.6327287796	-2.2037218465	 3.3596363424	 0.142401
H	 1.836327284	-1.8091355396	 3.1484217608	 0.142429
H	 1.7217536483	-0.3825629948	 4.2889078115	 0.119934
28.5215	127.3057	155.3016	176.1874	268.4225	272.2492	439.4201	461.7871	612.0907	637.9644	711.953	750.401	800.8902	825.9898	915.9441	916.5138	929.4325	940.7845	1007.721	1062.8828	1070.919	1071.3267	1093.1061	1112.5072	1129.1639	1193.5027	1206.5976	1234.8644	1364.9633	1419.2117	1448.5662	1462.8537	1482.6206	1485.5253	1497.9045	1533.4067	1624.8909	3042.5003	3097.6558	3140.315	3142.9254	3143.8365	3172.0426	3226.5317	3241.1251
CC1=NON=C1C1CC1	Cc1nonc1C1CC1	
InChI=1S/C6H8N2O/c1-4-6(5-2-3-5)8-9-7-4/h5H,2-3H2,1H3	InChI=1S/C6H8N2O/c1-4-6(5-2-3-5)8-9-7-4/h5H,2-3H2,1H3
