16
gdb 75848	3.37475	1.2377	0.94864	2.5255	82.32	-0.2104	-0.0288	0.1816	1189.9004	0.123548	-400.773185	-400.764549	-400.763605	-400.806418	32.281	
C	-0.0781163887	 1.5626695118	 0.0220550783	-0.390551
C	 0.0340493377	 0.0328823471	 0.0442478923	-0.271462
C	 0.836271299	-0.4952721226	-1.1587090648	 0.438301
O	 0.6583632139	-0.2769568985	-2.3330333401	-0.370195
N	 1.8451845407	-1.2832666974	-0.6210205666	-0.327258
C	 1.8011001734	-1.295293678	 0.7707514876	-0.126431
C	 0.7751438609	-0.5545514969	 1.2378208263	 0.12037
C	 0.4132951273	-0.3464396241	 2.5805192261	 0.244999
C	 0.0618884616	-0.1362837839	 3.7153664954	-0.44043
H	 0.9084913406	 2.0278485147	 0.1056455641	 0.124599
H	-0.5330789661	 1.8840403317	-0.9182386677	 0.141458
H	-0.6917203733	 1.9121796992	 0.8560863273	 0.131445
H	-0.9740742723	-0.3967830337	-0.0233176772	 0.127486
H	 2.5420290882	-1.7365788048	-1.1888464212	 0.26649
H	 2.5323839829	-1.8591017047	 1.3309543669	 0.140714
H	-0.2356615856	 0.0397264702	 4.7189806433	 0.190463
76.5795	130.6913	172.4436	222.2976	233.7111	287.0302	424.2977	444.7403	506.831	518.5866	534.573	562.8713	616.0742	656.6095	703.2332	740.9656	816.095	827.9692	876.9812	1027.8735	1073.2876	1088.1129	1110.8624	1178.6643	1212.3538	1287.2831	1302.499	1334.7158	1402.5449	1409.3248	1492.4726	1499.6523	1657.6427	1839.4689	2217.6737	3030.5287	3047.0626	3121.2419	3132.2462	3248.1045	3504.4548	3660.5108
CC1C(=O)NC=C1C#C	C[C@H]1C(=O)NC=C1C#C	
InChI=1S/C7H7NO/c1-3-6-4-8-7(9)5(6)2/h1,4-5H,2H3,(H,8,9)	InChI=1S/C7H7NO/c1-3-6-4-8-7(9)5(6)2/h1,4-5H,2H3,(H,8,9)/t5-/m1/s1
