16
gdb 54674	2.78645	1.44364	0.96215	2.8789	73.42	-0.2452	-0.0638	0.1814	1164.8599	0.125217	-437.969965	-437.96181	-437.960866	-438.003119	30.298	
N	-0.0388149228	 1.3264390352	 0.0110449303	-0.552872
C	 0.0699458778	-0.0249062478	 0.0030620869	 0.327642
O	 1.1269657366	-0.6329877421	-0.0096076399	-0.375142
C	-1.2482304155	-0.7386548227	 0.0120181394	 0.109451
C	-1.3714717751	-2.0754976846	 0.0094977963	-0.116559
C	-2.7969665782	-2.5494419371	 0.0196092967	-0.279345
C	-3.6260000926	-1.2501507932	 0.029450377	-0.321887
C	-2.5955904438	-0.1161758957	 0.02417398	 0.326471
O	-2.854094341	 1.0717563042	 0.0290548273	-0.355865
H	 0.8047652801	 1.8749808811	 0.0023631809	 0.258083
H	-0.9529545212	 1.7613580106	 0.017263441	 0.281149
H	-0.5200693394	-2.7469675009	 0.0008855085	 0.146098
H	-3.002609401	-3.1787542479	-0.8548248741	 0.133466
H	-2.9887532918	-3.183173741	 0.8939994924	 0.133462
H	-4.2785690971	-1.1485393649	-0.8425281479	 0.142922
H	-4.2646558148	-1.1529629532	 0.9121707952	 0.142927
72.9342	97.1026	184.1157	219.2225	306.0943	370.1282	402.41	408.6366	557.5388	566.5883	624.8751	698.7896	700.3047	780.8393	788.9307	802.7543	927.5379	928.945	987.7728	1027.8584	1034.0145	1132.0965	1154.7526	1184.0798	1230.4525	1263.3265	1322.8631	1333.1306	1367.6124	1447.2573	1474.034	1614.1786	1675.0241	1776.2899	1793.5239	3034.6764	3059.2997	3068.5537	3108.7456	3211.4243	3520.7672	3704.2099
NC(=O)C1=CCCC1=O	NC(=O)C1=CCCC1=O	
InChI=1S/C6H7NO2/c7-6(9)4-2-1-3-5(4)8/h2H,1,3H2,(H2,7,9)	InChI=1S/C6H7NO2/c7-6(9)4-2-1-3-5(4)8/h2H,1,3H2,(H2,7,9)
