21
gdb 76224	2.53429	1.49591	1.15453	1.3819	84.31	-0.2174	0.0252	0.2426	1158.0008	0.181533	-387.094811	-387.085683	-387.084738	-387.127862	35.824	
C	-0.1748749028	 1.5602244909	 0.0018826176	-0.405194
C	 0.0140136376	 0.0373479075	-0.0125195459	-0.144623
C	 0.8051345202	-0.5122343213	-1.1953825801	 0.313344
C	 0.4693961668	-0.1511612035	-2.6082590219	-0.492957
C	 1.7723674395	-1.342699591	-0.7855071973	-0.187247
C	 1.8456413435	-1.4380736736	 0.6990750705	-0.130553
C	 2.2042555804	-0.1383014334	 1.4183106392	-0.34754
C	 0.7618723222	-0.5209975619	 1.2054034862	 0.398352
O	-0.0005574542	-0.9005660157	 2.3135973789	-0.473535
H	 0.7879562093	 2.0813418982	 0.0053415557	 0.116458
H	-0.7403492855	 1.9034278858	-0.8701406488	 0.115698
H	-0.7302947117	 1.8710966003	 0.8938688563	 0.106057
H	-0.9862081842	-0.4235106006	-0.0102943462	 0.085919
H	 0.5998505657	 0.9217811183	-2.7979748785	 0.125068
H	 1.0990957962	-0.6947467188	-3.318086093	 0.122187
H	-0.5793605914	-0.381298733	-2.8384661028	 0.122467
H	 2.4515918395	-1.8728405486	-1.4450620989	 0.086239
H	 2.0683406249	-2.3761944788	 1.1944114247	 0.094061
H	 2.5613393792	-0.2361477565	 2.4387347572	 0.107994
H	 2.6562131115	 0.6611090145	 0.8401067858	 0.107273
H	-0.1475373566	-0.1179053188	 2.8556724913	 0.280533
109.814	186.5521	207.8525	231.3891	238.8165	262.3542	277.1104	330.2414	397.3212	448.7026	474.4258	550.4274	587.9381	675.2502	711.5795	801.9156	845.9469	866.0904	889.4222	921.155	977.1593	998.839	1028.999	1041.4967	1057.0169	1062.8381	1088.3108	1101.1347	1107.3326	1180.567	1220.2345	1253.9185	1306.837	1317.0395	1336.1668	1350.4922	1398.615	1405.2144	1415.1976	1472.7148	1478.7945	1488.4878	1496.6614	1502.1639	1700.8941	2984.8115	3013.6631	3029.1111	3058.0976	3093.2954	3103.9833	3107.5329	3120.7951	3175.2648	3186.0075	3214.6218	3795.2629
CC1C(C)=CC2CC12O	C[C@H]1C(=C[C@H]2C[C@@]12O)C	
InChI=1S/C8H12O/c1-5-3-7-4-8(7,9)6(5)2/h3,6-7,9H,4H2,1-2H3	InChI=1S/C8H12O/c1-5-3-7-4-8(7,9)6(5)2/h3,6-7,9H,4H2,1-2H3/t6-,7-,8+/m0/s1
