15
gdb 26875	2.98552	1.43931	0.97706	4.9022	74.51	-0.2119	-0.0573	0.1546	1133.8458	0.111188	-457.82642	-457.817843	-457.816899	-457.860495	30.713	
C	 0.0628866242	 1.4911951518	 0.0437365523	-0.47878
C	-0.0691321272	 0.0067740765	 0.0272728686	 0.328113
C	-1.2313830076	-0.6907280063	-0.0713781901	 0.209388
O	-2.4203467306	-0.0112671266	-0.1543788234	-0.450091
C	-1.1701287121	-2.1157966397	-0.0715679041	-0.142707
C	 0.0153533901	-2.7657090551	 0.0230468121	-0.266354
C	 1.2605614955	-2.0363546432	 0.1327873449	 0.422097
O	 2.3730895281	-2.4851582598	 0.2245844701	-0.353171
O	 1.1144637328	-0.6419762394	 0.1283087147	-0.259574
H	 0.7303768539	 1.8231274914	-0.7588510843	 0.148661
H	-0.913024561	 1.9598658977	-0.0825873112	 0.153562
H	 0.5016273936	 1.827643619	 0.989843129	 0.149089
H	-3.1298125326	-0.6376821119	-0.3238361616	 0.300678
H	-2.0968666104	-2.6812817732	-0.148876486	 0.110129
H	 0.0886449531	-3.845206301	 0.0231681691	 0.128959
37.5226	110.4996	133.4846	181.4596	280.8794	334.0739	355.15	426.4142	475.9284	502.4502	587.2566	599.141	723.6778	743.5799	784.8839	839.9018	852.7798	978.5209	1035.5398	1055.2283	1059.7638	1133.082	1185.3764	1265.5854	1283.8266	1368.3584	1411.0077	1458.654	1475.6501	1481.7898	1598.4404	1709.2542	1835.4784	3037.6751	3089.926	3147.6885	3157.5412	3225.6143	3842.6155
CC1=C(O)C=CC(=O)O1	Cc1c(O)ccc(=O)o1	
InChI=1S/C6H6O3/c1-4-5(7)2-3-6(8)9-4/h2-3,7H,1H3	InChI=1S/C6H6O3/c1-4-5(7)2-3-6(8)9-4/h2-3,7H,1H3
