15
gdb 15965	3.11585	1.94757	1.37265	3.3097	65.75	-0.2568	0.0038	0.2606	888.4459	0.120314	-358.795202	-358.788022	-358.787078	-358.82682	26.584	
N	-0.2737860045	-0.9296716213	-0.7716688165	-0.328506
C	-0.1495845307	 0.1368090893	-0.3433129668	 0.307572
C	 0.0341575697	 1.5022357768	 0.1500912879	-0.21236
N	 0.1575917481	 1.6426632249	 1.6202192012	-0.31088
C	 1.3045621842	 2.5834268759	 1.4825735464	-0.231552
C	 1.4392720709	 2.1364155312	 0.0270057779	 0.33812
C	 2.5963715853	 1.6041470554	-0.7140644075	-0.293407
N	 1.9881389877	 2.9086884346	-1.0635213377	-0.361702
H	-0.733982018	 2.1430623625	-0.3082889569	 0.114364
H	-0.6668266169	 2.0202208676	 2.0725514479	 0.233425
H	 1.0435749624	 3.6466063775	 1.5640014055	 0.111299
H	 2.1386802146	 2.3629654659	 2.1550615437	 0.122927
H	 3.5907319752	 1.6671011034	-0.2812964609	 0.130304
H	 2.4304056356	 0.7526489198	-1.3687467943	 0.140506
H	 1.4148798664	 2.8256510365	-1.9001767798	 0.239892
96.5654	128.0584	211.3734	301.6583	331.841	380.9906	513.9448	548.2751	579.8503	699.9147	828.6843	867.247	898.7078	939.6897	964.1454	986.8045	1005.267	1048.7092	1055.4663	1106.2083	1129.5249	1136.1672	1209.2604	1256.5161	1267.2692	1309.0754	1351.8373	1388.7366	1433.0324	1515.9114	1520.8973	2354.09	2989.6364	3019.3821	3082.9329	3112.0841	3201.4561	3494.3112	3546.2487
N#CC1NCC11CN1	N#C[C@H]1NC[C@]21CN2	
InChI=1S/C5H7N3/c6-1-4-5(2-7-4)3-8-5/h4,7-8H,2-3H2	InChI=1S/C5H7N3/c6-1-4-5(2-7-4)3-8-5/h4,7-8H,2-3H2/t4-,5-/m1/s1
