18
gdb 60873	2.33334	1.25491	1.1024	3.652	79.66	-0.2463	0.0185	0.2647	1202.1772	0.145237	-401.920468	-401.910928	-401.909984	-401.954927	34.877	
C	 0.7231032088	 1.2644107025	 0.0413743484	-0.356917
N	 0.1575113415	-0.0775666576	 0.013386229	-0.092181
C	-0.5490114858	-0.5377382589	 1.0948601823	 0.147047
O	-0.6412581683	 0.0285318275	 2.1620149965	-0.336728
C	 0.0715297262	-0.7486456617	-1.2581357803	 0.119103
C	 1.3785205216	-1.2204424288	-1.8832751864	-0.294618
C	 0.4286966581	-2.2275609977	-1.3123314093	-0.300527
C	-0.9582383726	-0.2622221605	-2.1468356302	 0.348952
C	-1.8172503681	 0.1651572093	-2.8719812578	-0.491825
H	 1.7659694542	 1.2473689685	-0.2897939513	 0.123308
H	 0.1588869029	 1.9384694199	-0.6135725416	 0.136802
H	 0.6667231363	 1.6255744952	 1.0677349656	 0.167542
H	-1.0204145721	-1.515806649	 0.8883486975	 0.082737
H	 1.4686009841	-1.1361721519	-2.9590361828	 0.136356
H	 2.2811050921	-1.0058393201	-1.3229480328	 0.132753
H	 0.6973722217	-2.7009560219	-0.3760099282	 0.136284
H	-0.1503568987	-2.8430556506	-1.9896185392	 0.138882
H	-2.5813679118	 0.5379180158	-3.5084726295	 0.203029
63.671	103.3738	142.8697	191.4065	195.174	227.9064	316.518	326.9886	383.2581	416.4584	513.7622	557.7378	584.3909	604.2369	672.1432	771.9104	793.2224	875.8629	915.4944	948.802	967.9778	1035.3765	1054.8084	1069.888	1093.3568	1159.8047	1178.5088	1198.081	1288.239	1322.3495	1372.7755	1437.6204	1439.2455	1457.3638	1487.1724	1496.0954	1514.7432	1796.9321	2232.4071	2969.1935	3031.9763	3089.7755	3147.9142	3153.4564	3163.5808	3236.554	3250.2478	3500.9143
CN(C=O)C1(CC1)C#C	CN(C=O)C1(CC1)C#C	
InChI=1S/C7H9NO/c1-3-7(4-5-7)8(2)6-9/h1,6H,4-5H2,2H3	InChI=1S/C7H9NO/c1-3-7(4-5-7)8(2)6-9/h1,6H,4-5H2,2H3
