16
gdb 49545	3.5922	1.19029	1.03045	2.2965	70.53	-0.255	-0.0495	0.2056	1139.1683	0.122883	-437.801189	-437.793256	-437.792312	-437.83438	28.714	
O	-0.2627197121	-0.131311482	 0.3672251472	-0.236242
C	-0.0541171363	 0.9471371641	-0.1277974555	 0.122322
C	 1.239696557	 1.7137586353	-0.0862785297	-0.044653
C	 1.5541641502	 2.7007426983	 1.0874435523	-0.096508
C	 1.8001766792	 1.4180993483	 1.9129776085	-0.180907
N	 2.4767220288	 1.062134308	 0.5650476501	-0.166337
C	 3.019892189	 2.5216241168	 0.6552077869	-0.023076
C	 3.5866488943	 3.1163614368	-0.610365022	 0.122238
O	 3.0590196282	 3.9874133903	-1.2554231229	-0.237661
H	-0.8503826514	 1.4833341566	-0.6948288209	 0.087059
H	 1.4269683098	 2.1124636983	-1.0873826956	 0.112834
H	 1.0279222117	 3.6203652525	 1.3560352011	 0.090962
H	 2.5091652453	 1.4814541559	 2.7417849084	 0.109286
H	 0.9599461583	 0.7696319794	 2.1487569499	 0.145392
H	 3.7796121797	 2.5968802713	 1.4438485938	 0.099895
H	 4.5735268883	 2.6940985203	-0.9041770717	 0.095396
70.542	97.1251	168.6979	212.4175	225.096	310.4467	424.7544	500.7093	680.6047	700.7354	763.0321	771.9428	812.4652	850.5765	896.0124	909.3265	1006.8506	1021.0333	1044.7397	1054.7819	1074.0584	1125.062	1141.5731	1152.6628	1180.6009	1221.3366	1230.5335	1255.526	1394.9399	1408.9111	1418.6663	1426.3008	1542.0406	1821.0438	1825.6455	2864.5626	2888.5172	3031.865	3071.2936	3079.915	3084.481	3178.0565
O=CC1C2CN1C2C=O	O=C[C@H]1[C@H]2CN1[C@H]2C=O	
InChI=1S/C6H7NO2/c8-2-5-4-1-7(5)6(4)3-9/h2-6H,1H2	InChI=1S/C6H7NO2/c8-2-5-4-1-7(5)6(4)3-9/h2-6H,1H2/t5-,6-/m0/s1
