17
gdb 115246	4.15964	1.00783	0.84539	2.3436	65.23	-0.2624	0.0014	0.2637	1303.0863	0.136155	-496.121205	-496.112767	-496.111823	-496.154781	30.73	
O	-0.0922301597	 1.4672807452	-0.0729166477	-0.417899
C	 0.0167881462	 0.0624673054	-0.1077219176	-0.073315
C	-1.3520410557	-0.5963505906	 0.0313208964	 0.058256
C	-1.2988073359	-2.1117924948	 0.0453777998	-0.072802
O	-2.581446988	-2.6997394531	 0.3328728318	-0.226711
C	-3.5015192898	-2.0377299243	 1.0672602064	 0.389565
O	-4.5384521109	-2.5665574625	 1.3560311756	-0.317634
C	-3.2139144973	-0.588963137	 1.4551306124	-0.220775
O	-1.879210497	-0.1619253968	 1.2812161739	-0.267913
H	-0.5971084966	 1.6771599669	 0.7219246093	 0.293658
H	 0.4622860855	-0.2038915436	-1.0715039363	 0.117515
H	 0.6773585463	-0.3154228244	 0.6892570307	 0.098731
H	-2.0038728222	-0.24638931	-0.7859779221	 0.091211
H	-0.9993007122	-2.5143580364	-0.9262009797	 0.130301
H	-0.5873326025	-2.4555388745	 0.8051964409	 0.125475
H	-3.9102463241	 0.0336731217	 0.8702070043	 0.136615
H	-3.4684167761	-0.4695737115	 2.510211992	 0.155721
73.4636	116.9105	158.1973	166.7565	233.112	357.6863	411.939	437.4194	460.3718	508.4308	556.3002	566.9549	724.3138	781.4244	857.72	934.488	1018.7793	1048.2069	1080.2925	1098.1672	1119.2847	1125.8926	1145.2441	1228.1838	1240.8178	1265.7696	1282.9493	1316.3702	1367.9418	1391.2274	1407.6062	1434.3445	1443.0257	1470.0506	1495.2259	1504.1663	1853.4985	2973.2194	2984.7317	2987.7159	3041.6154	3081.9703	3101.8195	3117.2542	3794.3914
OCC1COC(=O)CO1	OC[C@H]1COC(=O)CO1	
InChI=1S/C5H8O4/c6-1-4-2-9-5(7)3-8-4/h4,6H,1-3H2	InChI=1S/C5H8O4/c6-1-4-2-9-5(7)3-8-4/h4,6H,1-3H2/t4-/m0/s1
