18
gdb 6482	3.21575	1.59854	1.33162	1.9822	63.88	-0.247	0.0651	0.3121	970.4828	0.1524	-422.055605	-422.047064	-422.04612	-422.088135	32.553	
O	 0.0219340173	 1.1308258028	-0.4493745449	-0.440488
C	-0.1265461892	-0.2735771309	-0.2380969211	-0.146927
C	-1.584690031	-0.4903636838	 0.1451232688	 0.449456
O	-1.9042947182	 0.2998500183	 1.2660027489	-0.492327
C	-2.5622602094	-0.4195441582	-1.0734599003	-0.28141
C	-2.5750100956	-1.9638493365	-1.1177394889	 0.115381
O	-1.6796333411	-2.4101530653	-2.1263885902	-0.431707
C	-1.9670093941	-1.9797384076	 0.3145891679	-0.31539
H	 0.9564050772	 1.3304014544	-0.5498522605	 0.293781
H	 0.1158373104	-0.8495505149	-1.1393868234	 0.112019
H	 0.5133357931	-0.6152797233	 0.5899552786	 0.087393
H	-1.4682659976	 1.1499994574	 1.1197379818	 0.28301
H	-3.5252853191	-0.0103419797	-0.7617125413	 0.104716
H	-2.2169120787	 0.0820765919	-1.9792330414	 0.11224
H	-3.5549032514	-2.4437152341	-1.2304918914	 0.067283
H	-1.5436163922	-3.3552159661	-2.0017279334	 0.281148
H	-1.1614789788	-2.6963552882	 0.5053971337	 0.087989
H	-2.7327262315	-2.079939596	 1.0878553769	 0.113832
105.6789	137.7175	206.8184	239.0567	294.3491	323.2015	344.8974	384.0129	415.2314	447.6136	472.8171	524.2324	700.4695	818.939	830.08	852.1041	936.7557	947.2224	960.7387	995.3423	1054.7601	1069.1944	1085.8428	1161.5699	1177.2924	1193.471	1216.0589	1243.0443	1256.9149	1278.2914	1318.4333	1328.334	1405.7027	1413.9598	1449.9753	1452.7165	1479.7731	1516.2356	2985.2545	3018.2365	3048.0168	3057.886	3077.0273	3115.179	3139.5489	3761.908	3809.1343	3845.0181
OCC1(O)CC(O)C1	OC[C@@]1(O)C[C@@H](O)C1	
InChI=1S/C5H10O3/c6-3-5(8)1-4(7)2-5/h4,6-8H,1-3H2	InChI=1S/C5H10O3/c6-3-5(8)1-4(7)2-5/h4,6-8H,1-3H2/t4-,5-
