17
gdb 50348	2.9681	1.58096	1.50542	2.2867	66.9	-0.2542	-0.0346	0.2196	940.7575	0.137406	-458.974668	-458.967525	-458.966581	-459.00663	27.43	
O	-0.2115394803	 0.0452046805	-0.0729304254	-0.239712
C	-0.0166067007	 1.1970083246	 0.2126641889	 0.136022
C	 1.2879818671	 1.939152189	 0.0108829176	 0.030291
O	 2.3998089576	 1.070853868	-0.1677942696	-0.26613
C	 2.9882879274	 1.4795125377	-1.4064942147	 0.185935
C	 2.1310884559	 0.9343078911	-2.562321884	-0.236082
C	 0.9383468972	 1.938116395	-2.5121317858	-0.230524
C	 1.3477906429	 2.7982713253	-1.2985548056	 0.00858
O	 2.7704841178	 2.8785763559	-1.4469929003	-0.24179
H	-0.8192592481	 1.8319437697	 0.6563906836	 0.076035
H	 1.4508381416	 2.586540252	 0.8858383072	 0.099688
H	 4.0517373652	 1.2462072466	-1.3974875662	 0.099499
H	 2.668863173	 0.9778788936	-3.5121752369	 0.10761
H	 1.829361547	-0.0948664212	-2.3648710597	 0.134409
H	 0.9005049796	 2.5650977984	-3.4051098394	 0.113581
H	-0.028380618	 1.4474574325	-2.3937793353	 0.126636
H	 0.9128882348	 3.7930620214	-1.2236658644	 0.095953
88.0811	109.7347	241.5728	269.7844	373.6984	425.809	558.476	640.3325	732.9787	748.7015	815.9172	837.0565	846.4425	878.7729	897.3944	933.1868	950.0522	981.4294	1018.5113	1033.6301	1055.6918	1094.9178	1112.7306	1164.6012	1222.821	1233.9508	1261.6287	1290.8696	1298.4044	1324.2839	1334.72	1353.1857	1369.3392	1424.1701	1476.6899	1501.1047	1835.1845	2856.5828	2996.2934	3074.4255	3085.1007	3129.5888	3143.4167	3144.6301	3148.2512
O=CC1OC2CCC1O2	O=C[C@H]1O[C@H]2CC[C@@H]1O2	
InChI=1S/C6H8O3/c7-3-5-4-1-2-6(8-4)9-5/h3-6H,1-2H2	InChI=1S/C6H8O3/c7-3-5-4-1-2-6(8-4)9-5/h3-6H,1-2H2/t4-,5+,6-/m0/s1
