15
gdb 15762	5.67724	0.96897	0.88221	3.673	74.82	-0.2558	-0.058	0.1978	1306.4351	0.117575	-362.628251	-362.619581	-362.618636	-362.664361	28.946	
C	-0.1105374986	 1.5229083121	-0.3111869303	-0.504294
C	-0.0200979073	 0.089882735	-0.0948177952	 0.137044
C	 0.0335731357	-1.1023049694	 0.0872190369	-0.006961
C	 0.1243361393	-2.5264198604	 0.2996794079	 0.226176
O	-0.8516251417	-3.2234949337	 0.5187965239	-0.330154
C	 1.5005272743	-3.1139110616	 0.2424077582	-0.108601
C	 1.8767014509	-4.0100216247	 1.3858635032	-0.218424
N	 1.5950766514	-4.5694748687	 0.0719910725	-0.302566
H	 0.8756618949	 1.9681011238	-0.4770987552	 0.159767
H	-0.7347430745	 1.7425431197	-1.1841726367	 0.166746
H	-0.5668541786	 2.0165281844	 0.5536659124	 0.166037
H	 2.2659625584	-2.5208673953	-0.2470062685	 0.105084
H	 2.9160649671	-4.0443885996	 1.6991070058	 0.127194
H	 1.1393058821	-4.1317233133	 2.1743486797	 0.133703
H	 0.6370774667	-4.9235241982	 0.0702288056	 0.249249
7.7237	62.6344	87.1638	157.3198	263.9976	270.5039	317.3184	396.6339	431.9642	569.8926	756.507	763.4456	845.882	877.0995	950.9769	997.3782	1019.3308	1043.2976	1054.4104	1116.2091	1132.9348	1175.2157	1211.4734	1289.5492	1318.3012	1395.1093	1409.3932	1469.1075	1472.4642	1496.2148	1732.3326	2339.9184	3032.6356	3096.5126	3101.0441	3112.5996	3168.5551	3206.8495	3459.3704
CC#CC(=O)C1CN1	CC#CC(=O)[C@H]1CN1	
InChI=1S/C6H7NO/c1-2-3-6(8)5-4-7-5/h5,7H,4H2,1H3	InChI=1S/C6H7NO/c1-2-3-6(8)5-4-7-5/h5,7H,4H2,1H3/t5-/m1/s1
