27
gdb 123042	5.99682	0.48558	0.46755	0.0984	97.81	-0.2804	0.0891	0.3694	2486.3266	0.25212	-353.561619	-353.550769	-353.549825	-353.598673	39.738	
C	 0.0451250096	 1.5987634479	 0.0037643654	-0.378691
C	 0.0066917284	 0.070002097	 0.0797463052	-0.163653
C	-1.4081195195	-0.5057337769	-0.0439314069	-0.157051
C	-1.4571264142	-2.0354266809	 0.0293030565	-0.176134
C	-2.8734684263	-2.6093251348	-0.0988691982	-0.213368
C	-2.926582953	-4.128663311	-0.0136449316	 0.065473
C	-2.6265357464	-4.8300077926	 1.3449986827	-0.214796
C	-3.7598371167	-5.8429508783	 1.0299545891	-0.210518
C	-4.3102255438	-4.8393288934	-0.0187546383	-0.236345
H	 1.067317291	 1.9796476009	 0.0945534499	 0.109322
H	-0.360392732	 1.9577819765	-0.9488829647	 0.112263
H	-0.5505720076	 2.0501442228	 0.8052084854	 0.112243
H	 0.6392122758	-0.3522690414	-0.7125133748	 0.092582
H	 0.4501867631	-0.2613450897	 1.0281649568	 0.092804
H	-2.0414775649	-0.0832642709	 0.7489800289	 0.089496
H	-1.8529768518	-0.172713193	-0.9924061402	 0.089408
H	-0.822631908	-2.4575414601	-0.7628259839	 0.08933
H	-1.0147570349	-2.3676025767	 0.9786368573	 0.095179
H	-3.5118000792	-2.1842795787	 0.6892176699	 0.085317
H	-3.3125527234	-2.2841363222	-1.0529447784	 0.088997
H	-2.2898517106	-4.5627859446	-0.7951211436	 0.064175
H	-1.6202137214	-5.2222573599	 1.5120972966	 0.091793
H	-2.8896716814	-4.1820818769	 2.1885972674	 0.094075
H	-3.3717416782	-6.7500616964	 0.5573861143	 0.099271
H	-4.4209270548	-6.1372897061	 1.8485921576	 0.09305
H	-5.0853465357	-4.1946105542	 0.4095842757	 0.094774
H	-4.678095474	-5.2367597466	-0.968371358	 0.091004
52.0859	63.8356	83.7165	120.0819	147.857	160.5972	215.0785	248.8388	282.7549	358.3695	433.9708	468.3933	637.5836	733.6002	754.1748	769.651	786.0585	841.2776	893.8986	903.144	931.9021	937.4707	964.2856	977.6391	997.3664	1026.7781	1044.3011	1066.2224	1077.532	1117.3923	1140.8022	1191.8247	1202.7114	1227.1848	1250.6443	1256.04	1258.2322	1264.5016	1282.0861	1291.4561	1306.5595	1331.1711	1333.2781	1337.9486	1375.9292	1398.4205	1401.9233	1414.7788	1477.5482	1480.8848	1484.1187	1486.6628	1491.5761	1500.335	1503.5183	1511.3235	1514.3696	2995.5744	2999.885	3006.6465	3015.366	3016.8284	3021.6078	3028.1828	3029.5566	3040.0277	3043.7055	3046.531	3055.7669	3060.7449	3091.9717	3094.2731	3096.3347	3099.6403	3113.5892
CCCCCC1CCC1	CCCCCC1CCC1	
InChI=1S/C9H18/c1-2-3-4-6-9-7-5-8-9/h9H,2-8H2,1H3	InChI=1S/C9H18/c1-2-3-4-6-9-7-5-8-9/h9H,2-8H2,1H3
