21
gdb 114207	2.73759	1.1935	0.98129	0.5111	79.19	-0.2312	0.0657	0.2969	1306.7829	0.180797	-424.196147	-424.186613	-424.185669	-424.230873	35.794	
C	 0.338374466	 1.3998421868	 0.1960163715	-0.385155
C	 0.1231408003	-0.1063245094	 0.0201372196	-0.188066
C	 0.4135007191	-0.563391008	-1.3986999807	 0.105516
O	 1.8119548296	-0.3857578553	-1.7706085344	-0.323933
C	 1.992544224	-1.7925066119	-1.9197431391	 0.420126
C	 2.9685735841	-2.3829098398	-2.8750815365	-0.340696
C	 3.1847477937	-2.5168035693	-1.3723960966	-0.343765
C	 0.5194469707	-2.0963137908	-1.662011258	-0.027612
O	 0.1892360902	-3.0035782908	-0.644142329	-0.42242
H	 1.3628903196	 1.6719568679	-0.0730176877	 0.136593
H	-0.3406762184	 1.9733823363	-0.4445034345	 0.115129
H	 0.1620336349	 1.7070896263	 1.23101085	 0.111966
H	 0.7712208585	-0.6513527981	 0.718239161	 0.082978
H	-0.9092881536	-0.3827026599	 0.2673762861	 0.108076
H	-0.2322034665	-0.0311226353	-2.1092886576	 0.075711
H	 2.6768049076	-3.2633352283	-3.4387222416	 0.119224
H	 3.6123004736	-1.6914885815	-3.4082412951	 0.126102
H	 3.9679917296	-1.9140997235	-0.9255133639	 0.124611
H	 3.030581413	-3.4894298822	-0.9148916617	 0.118352
H	-0.0351722766	-2.4229095543	-2.5446508025	 0.101212
H	 0.7700812208	-2.8354686891	 0.1059657108	 0.286051
44.1742	90.4524	162.9893	200.2336	218.4299	243.4071	292.2708	316.7474	384.8174	420.5961	501.3011	550.2046	648.777	764.2157	770.1298	799.0253	837.2118	883.0213	896.4515	944.2996	967.7435	985.8735	1000.0922	1044.1569	1058.3748	1068.0723	1101.2785	1143.0231	1160.8945	1190.8555	1220.3978	1236.501	1275.8275	1285.0501	1311.1553	1346.6622	1367.8755	1405.0515	1411.5018	1443.4602	1447.5678	1471.2599	1495.749	1497.5121	1509.1145	3015.5106	3023.9644	3036.8471	3062.5542	3088.0649	3103.5623	3119.392	3125.3434	3128.5495	3210.7286	3224.6753	3807.8196
CCC1OC2(CC2)C1O	CC[C@H]1OC2(CC2)[C@H]1O	
InChI=1S/C7H12O2/c1-2-5-6(8)7(9-5)3-4-7/h5-6,8H,2-4H2,1H3	InChI=1S/C7H12O2/c1-2-5-6(8)7(9-5)3-4-7/h5-6,8H,2-4H2,1H3/t5-,6+/m1/s1
