21
gdb 72261	2.68897	1.82979	1.6221	1.3749	81.01	-0.2337	0.0866	0.3203	961.8456	0.18498	-387.068652	-387.061425	-387.060481	-387.099626	30.646	
C	 0.0232779114	 1.5382127404	 0.0070663136	-0.508078
C	-0.0252009206	 0.0297710658	-0.0543983988	 0.351013
C	 0.4092860535	-0.7455852377	-1.3081762721	-0.280755
C	-0.5191158892	-1.889267657	-0.8116318381	-0.060806
C	 0.301915634	-2.7806906504	 0.1184894088	-0.086308
O	 1.0683062961	-1.9540886131	 0.998475981	-0.269278
C	 0.3831175686	-0.7433036252	 1.2757989132	 0.070788
C	-1.1242474669	-0.9912919931	 1.5609658743	-0.265049
C	-1.3309535535	-0.8341750832	 0.0447501058	-0.07458
H	 1.0601429041	 1.8964180178	 0.0099799471	 0.119395
H	-0.4813516869	 1.9866293735	-0.8561540503	 0.113199
H	-0.458813918	 1.9256552686	 0.9121494632	 0.113846
H	 0.027192258	-0.2623462142	-2.2131696148	 0.090547
H	 1.4704088688	-0.9800378919	-1.4396005304	 0.097776
H	-1.071641199	-2.4747001339	-1.5493515473	 0.065398
H	-0.3446078522	-3.4607714764	 0.6925611465	 0.091866
H	 1.017523753	-3.3918240514	-0.442321631	 0.103954
H	 0.9851810478	-0.2026191848	 2.0091527026	 0.072362
H	-1.3937934468	-1.923830121	 2.0649641053	 0.097025
H	-1.5730774084	-0.1546027602	 2.1042436402	 0.099852
H	-2.2920075336	-0.5240214325	-0.3702470489	 0.057833
205.3484	217.4736	264.4632	307.8899	386.8236	409.0863	445.4012	497.6271	573.8372	660.987	689.2404	796.5525	826.4224	842.1025	862.6601	894.6293	920.6738	945.3921	947.368	967.0199	1021.941	1029.2514	1043.4932	1095.89	1109.5266	1124.0596	1159.5495	1169.9988	1194.5119	1209.5494	1231.9618	1239.7284	1257.712	1278.3949	1288.4575	1322.1458	1331.2631	1358.8085	1399.7509	1410.446	1480.2006	1482.9017	1491.1187	1493.2221	1522.6075	2993.0476	3016.7445	3039.8092	3051.5044	3062.6485	3079.294	3081.6403	3085.6332	3088.5248	3092.0751	3095.7854	3102.5922
CC12CC3COC1CC23	C[C@@]12C[C@H]3CO[C@@H]1C[C@@H]23	
InChI=1S/C8H12O/c1-8-3-5-4-9-7(8)2-6(5)8/h5-7H,2-4H2,1H3	InChI=1S/C8H12O/c1-8-3-5-4-9-7(8)2-6(5)8/h5-7H,2-4H2,1H3/t5-,6+,7+,8-/m0/s1
