20
gdb 7819	3.19758	1.72049	1.20957	1.2551	78.5	-0.2334	0.0266	0.26	1056.4333	0.177232	-349.026068	-349.017814	-349.01687	-349.058388	31.488	
C	-0.0163911569	 1.5298866463	-0.0522651184	-0.393443
C	-0.0059984596	 0.0031685399	-0.0058487391	 0.10141
O	 0.6344117198	-0.4389100202	-1.1948242511	-0.261492
C	 0.9636725198	-1.8144455217	-1.1645249726	-0.081793
C	 2.0116622725	-2.1041035544	-0.0892469612	-0.291745
C	 1.6112584433	-1.4671182932	 1.2218849486	 0.298639
C	 2.314218384	-1.9462528843	 2.4607470377	-0.475749
C	 0.6675564095	-0.5245339772	 1.2371561225	-0.158768
H	 1.0064238578	 1.9162586249	-0.0239646069	 0.123289
H	-0.4941008279	 1.8729219824	-0.9739745618	 0.122285
H	-0.5688651174	 1.9364774561	 0.8001807834	 0.110914
H	-1.0561613215	-0.3497785786	-0.014381409	 0.067713
H	 0.0616386816	-2.4206369917	-0.9760420242	 0.086094
H	 1.3334891464	-2.0648865163	-2.1631613344	 0.102375
H	 2.124905213	-3.1895728666	 0.0361773104	 0.096893
H	 2.994501004	-1.7282602225	-0.4062152779	 0.111719
H	 3.3996694715	-1.8023155574	 2.3781549698	 0.123526
H	 1.9695932897	-1.4168459898	 3.3532679937	 0.119061
H	 2.1560924545	-3.0214527456	 2.6162032741	 0.120878
H	 0.3461361357	-0.08129069	 2.1775813563	 0.078194
104.7487	148.8408	202.3211	229.1583	278.7415	294.2368	376.3819	418.9741	452.2671	472.33	579.4862	667.3095	794.1223	825.5608	863.2411	890.0144	948.3434	1000.2801	1004.9837	1034.5316	1062.0067	1099.058	1106.6258	1128.4115	1174.6016	1190.0567	1240.3554	1293.9948	1317.1474	1349.335	1364.8412	1381.9475	1402.2099	1413.4813	1418.7489	1468.1305	1478.7713	1483.2854	1491.3804	1495.8812	1501.3208	1742.7412	2901.8029	2965.1471	3006.7363	3013.6258	3039.9995	3042.3775	3057.9314	3081.7129	3108.6433	3118.0759	3123.3763	3146.2724
CC1OCCC(C)=C1	C[C@H]1OCCC(=C1)C	
InChI=1S/C7H12O/c1-6-3-4-8-7(2)5-6/h5,7H,3-4H2,1-2H3	InChI=1S/C7H12O/c1-6-3-4-8-7(2)5-6/h5,7H,3-4H2,1-2H3/t7-/m1/s1
