17
gdb 24565	2.12044	1.88201	1.09991	0.1984	89.81	-0.2169	-0.0227	0.1942	1098.9518	0.137359	-384.674793	-384.666996	-384.666052	-384.707609	29.578	
O	-0.1129119476	 1.3482211519	 0.0475322366	-0.200901
C	 0.8754068908	 2.2621746537	-0.0862758565	 0.049258
C	 2.0677056917	 2.2584353436	-0.7005219474	-0.128224
C	 2.9329942931	 1.2794977882	-1.3214774821	-0.135547
C	 3.4726400694	 0.1401629362	-0.8393489647	-0.093607
C	 3.262473377	-0.5440029843	 0.4122108901	-0.09364
C	 2.1234282939	-0.9348082862	 1.0218246808	-0.135568
C	 0.74906415	-0.9161324711	 0.5708946799	-0.128274
C	-0.1188609734	-0.0029895776	 0.1106234339	 0.049286
H	 0.4878617392	 3.2107221292	 0.2718388771	 0.114566
H	 2.4570466969	 3.2735668506	-0.7874011151	 0.103791
H	 3.3635483665	 1.6358232152	-2.2572846131	 0.096232
H	 4.2775197035	-0.283963564	-1.4395775368	 0.094065
H	 4.1836087514	-0.8891018934	 0.8816859106	 0.09405
H	 2.2620934582	-1.5442844675	 1.9147898908	 0.096185
H	 0.2658752324	-1.8892261416	 0.6670229415	 0.103753
H	-1.1217214729	-0.332759393	-0.1417513056	 0.114573
75.1228	81.6372	215.8853	239.7025	305.2906	375.761	516.2222	520.5422	615.1647	649.8298	697.8313	739.3637	806.2347	808.6203	833.2763	861.6083	882.2679	935.4482	955.3051	960.9097	979.725	995.9849	1000.0541	1078.8088	1189.135	1290.0951	1293.4667	1344.7787	1384.5719	1439.4063	1453.5957	1462.1038	1495.3417	1636.5674	1675.3957	1705.0097	1711.7059	3105.1309	3107.8937	3112.9946	3117.0288	3130.1953	3138.4108	3183.5528	3186.5393
O1C=CC=CC=CC=C1	o1cccccccc1	
InChI=1S/C8H8O/c1-2-4-6-8-9-7-5-3-1/h1-8H/b3-1-,4-2-,7-5-,8-6-	InChI=1S/C8H8O/c1-2-4-6-8-9-7-5-3-1/h1-8H/b3-1-,4-2-,7-5-,8-6-
