19
gdb 79298	3.7454	1.21976	1.1232	0.8534	88.72	-0.2224	0.0389	0.2613	1161.2515	0.159132	-348.67917	-348.671102	-348.670158	-348.711419	32.271	
C	 0.0037354844	 1.6121769969	-0.003080294	-0.428197
C	 0.098535326	 0.0917739776	 0.0113743804	 0.035682
C	 0.800653246	-0.6651342193	-1.1183181607	-0.139751
C	 2.2800922406	-0.797476218	-0.7555400428	-0.125834
C	 2.4959692891	-0.1284265546	 0.5994872627	-0.241196
C	 1.0823817648	-0.6466665615	 0.9713064677	-0.142186
C	 1.2550266651	-1.7583788309	-0.1595995071	 0.346248
C	 1.1283963094	-3.1607559847	-0.1787116902	-0.003092
C	 1.0153024767	-4.360614623	-0.1740442106	-0.376855
H	 0.9697721044	 2.0860777753	-0.1973709719	 0.119284
H	-0.6874317091	 1.9457235421	-0.7849790244	 0.116482
H	-0.3734569827	 1.9910643501	 0.9536514687	 0.11513
H	-0.8986680989	-0.3411858818	 0.1487786171	 0.078912
H	 0.4619636713	-0.8127389846	-2.136229863	 0.095301
H	 3.0184789609	-1.0415953501	-1.5082951099	 0.098469
H	 3.2686578204	-0.6497738818	 1.1703859533	 0.10791
H	 2.6782792873	 0.9504262353	 0.640637677	 0.09214
H	 0.8094338773	-0.8375936715	 2.0068659938	 0.078295
H	 0.916815027	-5.4173178956	-0.174149816	 0.173257
108.3733	143.3206	188.7418	251.599	290.4361	419.4836	449.6266	504.7918	549.8573	560.3548	611.0714	649.2062	670.093	731.7209	787.3402	853.7792	882.0423	914.2526	937.5663	958.7069	987.2759	1005.0024	1029.2882	1056.4768	1088.2247	1092.2819	1113.5678	1131.2992	1167.3741	1202.8504	1229.6956	1254.1589	1290.4268	1325.6563	1385.883	1406.5278	1425.0665	1489.8669	1493.8506	1512.5386	2226.5941	3030.6432	3043.6786	3046.4964	3091.4643	3101.4603	3113.7885	3141.8601	3194.3363	3206.4097	3504.4486
CC1C2C3CC1C23C#C	C[C@H]1[C@H]2[C@H]3C[C@@H]1[C@@]23C#C	
InChI=1S/C9H10/c1-3-9-6-4-7(9)8(9)5(6)2/h1,5-8H,4H2,2H3	InChI=1S/C9H10/c1-3-9-6-4-7(9)8(9)5(6)2/h1,5-8H,4H2,2H3/t5-,6+,7-,8+,9-/m1/s1
