16
gdb 69199	2.09817	1.58004	1.08957	5.8291	71.71	-0.2416	-0.0405	0.2011	1124.6251	0.122111	-437.863421	-437.854906	-437.853961	-437.897019	30.974	
C	-0.0294249363	 1.5281125379	 0.0829004627	-0.506138
C	 0.0999734881	 0.0386472759	 0.0117809872	 0.311748
N	-0.7960681888	-0.8890137777	 0.7110932494	-0.357874
C	 0.6756138626	-0.9271521672	 1.0197655945	-0.248768
C	 1.2836564475	-1.7343698172	-0.0953739699	 0.448766
O	 2.0895052278	-2.6076520358	-0.1649657867	-0.285216
C	 0.6426731722	-0.7750507528	-1.1858803713	-0.257706
C	-0.3390525275	-1.3488754904	-2.1733253049	 0.143865
O	-0.0679968505	-1.5806381857	-3.3252627746	-0.253284
H	 0.8895649282	 2.0172236893	-0.2545940579	 0.141487
H	-0.8492658292	 1.8812677492	-0.5520944244	 0.144437
H	-0.2323244765	 1.854450283	 1.1083579218	 0.128064
H	-1.2290910085	-0.3884036765	 1.4881376949	 0.242131
H	 1.0304383693	-0.7802122453	 2.0319779842	 0.123812
H	 1.4652603608	-0.2884092197	-1.718282246	 0.122324
H	-1.3420782691	-1.5613687171	-1.7522727692	 0.102351
67.3088	102.4933	180.0538	208.6357	222.8145	264.467	360.7475	445.0631	486.1649	534.6322	575.736	639.7768	725.8452	757.7295	808.6192	940.5256	945.0663	993.3704	1002.9592	1044.3523	1071.7365	1091.7953	1107.8663	1125.0739	1151.3104	1239.8236	1287.8439	1330.0724	1401.2686	1417.2906	1440.4036	1481.4435	1496.7792	1808.5948	1909.9611	2936.7685	3032.4827	3086.2365	3098.51	3108.1763	3205.0377	3465.5823
CC12NC1C(=O)C2C=O	C[C@]12N[C@H]1C(=O)[C@H]2C=O	
InChI=1S/C6H7NO2/c1-6-3(2-8)4(9)5(6)7-6/h2-3,5,7H,1H3	InChI=1S/C6H7NO2/c1-6-3(2-8)4(9)5(6)7-6/h2-3,5,7H,1H3/t3-,5+,6-/m1/s1
