20
gdb 66585	2.94605	1.85391	1.56778	1.7947	80.57	-0.215	0.0871	0.302	948.9262	0.173644	-365.962271	-365.955204	-365.95426	-365.993375	29.245	
C	 0.0756993351	 1.5017855256	 0.0302424362	-0.519425
C	-0.0304334936	 0.0077194434	-0.0211676454	 0.338076
C	-0.0510653993	-0.8879041925	 1.2436536096	-0.147252
C	 1.0108258197	-1.0505175169	 0.1946825836	-0.091543
N	 0.103051471	-2.0610455735	-0.5182160806	-0.189272
C	-0.7120176611	-2.1781516567	 0.7700624102	 0.019196
C	-2.1887735625	-2.1023116632	 0.3884511379	-0.227854
C	-2.1788867446	-1.1981320578	-0.881221115	-0.233785
C	-0.6955968641	-0.8830303712	-1.0710593227	-0.032654
H	 0.7422634636	 1.8253259787	 0.8369991697	 0.121048
H	 0.4736823258	 1.9040343588	-0.9085779657	 0.12081
H	-0.9011567296	 1.9684190789	 0.2049202788	 0.120358
H	 0.0267542721	-0.4614500514	 2.2369067265	 0.081269
H	 2.0916309556	-1.0626469151	 0.2068690802	 0.093689
H	-0.4212956555	-3.0643042936	 1.3385305644	 0.070837
H	-2.5865797414	-3.0961676436	 0.1630071746	 0.104817
H	-2.7892206038	-1.6858767999	 1.2025453141	 0.100288
H	-2.5826522313	-1.7285007083	-1.7485607166	 0.104776
H	-2.7674933539	-0.2843439036	-0.7561525617	 0.100209
H	-0.3948883721	-0.651776428	-2.0962597982	 0.066411
150.0445	193.6475	210.4476	286.3837	376.1865	472.5087	594.7281	655.8122	708.5091	749.1794	762.5781	785.1485	843.6637	875.5824	889.3531	891.23	904.1126	926.0396	950.1999	970.6422	1024.8038	1028.348	1050.8963	1062.5139	1094.6794	1104.7695	1149.7999	1155.2071	1194.3754	1229.0844	1245.412	1254.5204	1266.5915	1281.3665	1330.537	1342.9393	1363.4959	1411.2159	1436.3282	1477.3391	1486.7232	1498.5196	1499.4465	3019.8437	3047.5517	3056.8052	3075.5759	3078.2443	3083.4343	3086.9823	3090.7672	3104.3252	3178.817	3213.7848
CC12C3C1N1C3CCC21	C[C@]12[C@@H]3[C@H]1N1[C@@H]3CC[C@@H]21	
InChI=1S/C8H11N/c1-8-5-3-2-4-6(8)7(8)9(4)5/h4-7H,2-3H2,1H3	InChI=1S/C8H11N/c1-8-5-3-2-4-6(8)7(8)9(4)5/h4-7H,2-3H2,1H3/t4-,5+,6+,7-,8+/m1/s1
