21
gdb 7596	2.64289	1.59997	1.40328	2.0452	74.72	-0.2378	0.0679	0.3057	1048.6074	0.18642	-366.245532	-366.235616	-366.234672	-366.279934	36.416	
C	 0.2765528948	 1.3910747892	 0.3588102759	-0.422261
C	-0.1728995825	-0.0190295224	-0.0256017835	 0.096534
O	-1.5894296911	-0.1031750704	-0.1821660672	-0.438494
C	 0.5473735669	-0.5541646896	-1.2637684426	 0.327555
C	 0.2602867953	 0.1858459132	-2.5568655977	-0.494384
N	 1.9316953307	-0.9944887678	-0.9991617885	-0.378737
C	 0.9098221568	-1.997300919	-1.3662256158	-0.038132
C	 0.5765431561	-3.0694690506	-0.3559894623	-0.403211
H	 1.3601720603	 1.4171021734	 0.503600584	 0.135583
H	 0.0200167725	 2.1221050152	-0.4177330143	 0.103439
H	-0.2113264322	 1.7013304425	 1.2869398695	 0.121262
H	 0.0577705589	-0.6849630106	 0.809244567	 0.090504
H	-1.8742229566	 0.6510954535	-0.7080814097	 0.277724
H	 0.5986626543	 1.2273492479	-2.5142484255	 0.120278
H	 0.7673560061	-0.2932917623	-3.4002153315	 0.115215
H	-0.8124415462	 0.1872020959	-2.7786294516	 0.121385
H	 2.530094374	-0.7823180225	-1.7939396894	 0.222345
H	 0.9524700594	-2.3702888998	-2.3901465993	 0.074593
H	 0.6635321319	-2.7025364187	 0.6682879156	 0.129474
H	-0.4422547449	-3.4414102065	-0.5066959068	 0.124266
H	 1.2660169656	-3.9142177409	-0.4610364065	 0.115061
44.1148	124.2915	178.8235	198.988	228.3546	236.827	246.6303	286.7504	290.6932	376.5189	421.3243	469.8252	514.6092	557.9523	697.8334	782.8425	853.0646	901.0287	937.9553	973.687	1014.8855	1035.9007	1039.5569	1080.1065	1091.7358	1118.2438	1137.101	1144.9159	1239.9889	1275.8848	1306.4675	1342.8834	1387.4327	1395.7195	1406.165	1409.6641	1413.9084	1463.0328	1484.2907	1489.2541	1493.9827	1498.8959	1502.191	1510.5953	3025.3373	3031.7406	3038.1272	3080.5382	3089.34	3092.0447	3098.0464	3100.3053	3105.0166	3124.3018	3134.8258	3490.4005	3814.0236
CC(O)C1(C)NC1C	C[C@@H](O)[C@@]1(C)N[C@H]1C	
InChI=1S/C6H13NO/c1-4-6(3,7-4)5(2)8/h4-5,7-8H,1-3H3	InChI=1S/C6H13NO/c1-4-6(3,7-4)5(2)8/h4-5,7-8H,1-3H3/t4-,5+,6-/m0/s1
