23
gdb 110558	3.38688	1.1255	0.99868	0.186	90.77	-0.2756	0.0924	0.3679	1331.7955	0.205505	-351.093488	-351.084656	-351.083712	-351.126772	34.796	
C	 0.0662384584	 1.5869383929	 0.1218302312	-0.375064
C	-0.1837921515	 0.0881252261	-0.0826251134	-0.21197
C	 0.6038540519	-0.4888581053	-1.2529152805	 0.008311
C	 2.1152179433	-0.7855719798	-1.0984375533	-0.083504
C	 1.8627806505	-2.1375853044	-0.3457176022	-0.046779
C	 2.7806520013	-2.9252599197	-1.2965577009	-0.314709
C	 2.0800702796	-1.8999358094	-2.2137781069	 0.359302
C	 2.2480557337	-1.7065395971	-3.6966599517	-0.521918
C	 0.7244412074	-2.0203086265	-1.4176716432	-0.100154
H	 1.1224490213	 1.7874801973	 0.3318118019	 0.115729
H	-0.2056882363	 2.1583149131	-0.7729173125	 0.111906
H	-0.520022347	 1.9802415322	 0.9582401795	 0.109353
H	 0.0647568566	-0.4546248368	 0.8377069811	 0.092435
H	-1.255032971	-0.0816035992	-0.2560828734	 0.091001
H	 0.3462359663	 0.0440935934	-2.1786583598	 0.054146
H	 2.9437033955	-0.0966280306	-0.9162364174	 0.060008
H	 1.7288948446	-2.2646530217	 0.7285155223	 0.068015
H	 3.8606993547	-2.8024678043	-1.1561801537	 0.084607
H	 2.5347429809	-3.9807035021	-1.4603502201	 0.084668
H	 1.9863659628	-2.6196096315	-4.2433636785	 0.117859
H	 1.6109512919	-0.8983704718	-4.0722600626	 0.119848
H	 3.2858290298	-1.4568126003	-3.9449696661	 0.117805
H	-0.0606410047	-2.7580039944	-1.6024581498	 0.059104
83.1387	137.9089	173.2062	210.4434	244.3995	296.7483	305.3088	354.9599	459.3778	512.5625	632.5533	719.5155	734.1795	803.4315	851.2602	853.7472	867.0002	894.7297	899.7313	942.0123	960.2261	986.4726	1019.6117	1041.2198	1043.7031	1070.2073	1099.3952	1103.2487	1146.0087	1151.5571	1161.3174	1179.2019	1192.0584	1214.4703	1229.1745	1262.9406	1285.54	1300.6224	1336.8818	1351.6276	1404.9282	1409.935	1418.6811	1485.8629	1486.8341	1493.2218	1499.3621	1506.79	1512.0983	3006.347	3015.6014	3022.7301	3025.3809	3029.3546	3051.5822	3076.3615	3078.7124	3080.718	3087.6425	3093.1229	3095.9664	3101.062	3112.4307
CCC1C2C3CC2(C)C13	CC[C@H]1[C@H]2[C@@H]3C[C@@]2(C)[C@H]13	
InChI=1S/C9H14/c1-3-5-7-6-4-9(7,2)8(5)6/h5-8H,3-4H2,1-2H3	InChI=1S/C9H14/c1-3-5-7-6-4-9(7,2)8(5)6/h5-8H,3-4H2,1-2H3/t5-,6-,7-,8+,9+
