20
gdb 69972	2.47602	1.83586	1.3515	3.2885	78.28	-0.223	0.067	0.2899	1026.4218	0.170588	-403.076976	-403.068744	-403.0678	-403.109077	32.802	
C	-0.0423906038	 1.5659724003	 0.1178881482	-0.515384
C	 0.1051654223	 0.0780122371	 0.0218334811	 0.27571
N	-0.8392147935	-0.8366300988	 0.6948479254	-0.36111
C	 0.6108557323	-0.9429760411	 0.9971247237	-0.136369
C	 1.2537678519	-1.7580520315	-0.1497478469	 0.083818
O	 0.4711599051	-2.8166877832	-0.7229757883	-0.290724
C	-0.0980291951	-1.9180454328	-1.7108767354	-0.126132
C	 0.7306276116	-0.7213827587	-1.1712322609	 0.249224
C	 1.63717864	 0.0361938352	-2.1132279122	-0.501169
H	 0.8594239568	 2.085275867	-0.2208308851	 0.127195
H	-0.8809145103	 1.9222573839	-0.4928972362	 0.129257
H	-0.2326591787	 1.8695146205	 1.1533790211	 0.118863
H	-1.2599053072	-0.319204285	 1.4667598286	 0.224804
H	 0.9658549703	-0.8313552996	 2.0157419562	 0.087
H	 2.3119149114	-2.0070948674	-0.0253592614	 0.070374
H	 0.1776610485	-2.2275928315	-2.727183537	 0.087396
H	-1.1839468834	-1.8425848182	-1.6152850349	 0.114663
H	 1.0670138569	 0.708341812	-2.7657756492	 0.12029
H	 2.3649000834	 0.6457802071	-1.5659500651	 0.117985
H	 2.1971727914	-0.6537817456	-2.7526393916	 0.124308
149.6072	197.9661	217.7323	246.5742	262.2115	290.5935	351.7487	378.7888	477.1025	542.5159	587.8018	675.3898	761.6122	797.206	834.2038	884.5564	895.5135	905.7609	949.2909	976.1165	995.7365	1006.3212	1019.1607	1042.7048	1097.6015	1114.5631	1153.2906	1168.1669	1189.5257	1201.4711	1259.9006	1278.0874	1316.5825	1336.2437	1372.1758	1400.8605	1414.7993	1431.2698	1480.1763	1490.8613	1495.8857	1501.2076	1502.9791	3015.3384	3021.5929	3024.7804	3065.4877	3082.2898	3085.1766	3095.8928	3099.0795	3101.5873	3171.0975	3465.124
CC12NC1C1OCC21C	C[C@]12N[C@H]1[C@H]1OC[C@@]21C	
InChI=1S/C7H11NO/c1-6-3-9-5(6)4-7(6,2)8-4/h4-5,8H,3H2,1-2H3	InChI=1S/C7H11NO/c1-6-3-9-5(6)4-7(6,2)8-4/h4-5,8H,3H2,1-2H3/t4-,5+,6+,7-/m0/s1
