19
gdb 125297	3.01121	1.07402	0.84801	1.3457	78.44	-0.2311	0.023	0.2541	1367.0682	0.160104	-419.228284	-419.219025	-419.218081	-419.263298	33.128	
C	-0.152638682	 1.5438506092	-0.0331939989	-0.507744
C	-0.0432203498	 0.0536423994	-0.056782788	 0.367074
C	-0.0220902551	-0.830684439	-1.1196053657	-0.308797
C	 0.0909544671	-2.1053532456	-0.5318767205	-0.000973
N	 0.1366246298	-2.0341800364	 0.794022132	-0.277009
N	 0.0477499557	-0.7112564991	 1.0691050822	-0.009852
C	 0.13825508	-0.2826807644	 2.4498522226	-0.180988
C	 1.5893005053	-0.2480861541	 2.9536839454	-0.070374
O	 1.6579701615	 0.1693669249	 4.3044458341	-0.408374
H	 0.7127617717	 2.0172389949	 0.4444617185	 0.137771
H	-0.2146460503	 1.9223969668	-1.0555236126	 0.139981
H	-1.0477779863	 1.8834318562	 0.5009896776	 0.138166
H	-0.0871941724	-0.5788568324	-2.1661259824	 0.098387
H	 0.1344957562	-3.0698177446	-1.0168333903	 0.108285
H	-0.3111834252	 0.7079965851	 2.5508771225	 0.126075
H	-0.4458129318	-0.9846829356	 3.052845012	 0.122635
H	 2.0473665828	-1.2332695051	 2.7932838645	 0.119845
H	 2.1647667029	 0.4821847025	 2.374996362	 0.116928
H	 1.3365559799	-0.5512611226	 4.8555340949	 0.288964
45.3997	95.765	99.2685	138.4048	240.9005	268.9169	303.5804	328.3426	375.573	436.1099	650.281	661.7792	674.9934	781.0292	789.5705	799.4303	886.9696	939.5966	998.028	1029.0999	1043.1152	1063.5339	1067.3804	1080.098	1125.3642	1211.9325	1236.5576	1289.7228	1330.2921	1341.3566	1368.2844	1400.7282	1415.4918	1418.6329	1441.0859	1475.3217	1484.1032	1486.7109	1510.6145	1518.3776	1586.1161	3020.0327	3028.6291	3060.3992	3077.6883	3078.9092	3121.7123	3128.1412	3240.0497	3264.5683	3819.3542
CC1=CC=NN1CCO	Cc1ccnn1CCO	
InChI=1S/C6H10N2O/c1-6-2-3-7-8(6)4-5-9/h2-3,9H,4-5H2,1H3	InChI=1S/C6H10N2O/c1-6-2-3-7-8(6)4-5-9/h2-3,9H,4-5H2,1H3
