21
gdb 67874	2.2876	1.87117	1.40374	0.1921	87.85	-0.23	0.0166	0.2465	1038.7381	0.184541	-349.985474	-349.97757	-349.976626	-350.017774	31.952	
C	 0.2414538038	 1.4975666555	-0.1667977756	-0.444136
C	-0.0795794402	 0.0018246484	 0.0045671233	 0.253766
C	-1.5624724476	-0.240071761	 0.2099553334	-0.108655
C	-1.8198720389	-0.9930638181	 1.275100555	-0.073012
C	-0.5650748109	-1.4346815507	 1.9868117644	-0.27988
C	 0.5793978941	-0.655009014	 1.2765730222	-0.043512
C	 1.7438481752	-1.5351029954	 0.7514871003	-0.285405
C	 1.4725122678	-1.6414388705	-0.7305774674	-0.067205
C	 0.5052138955	-0.8200751938	-1.1311721796	-0.107986
H	 1.3226253905	 1.661270561	-0.2266664765	 0.113766
H	-0.2052163989	 1.8946752024	-1.0855603153	 0.108651
H	-0.151210257	 2.0793818714	 0.6739656803	 0.113084
H	-2.3066884139	 0.1645321179	-0.4690340352	 0.084526
H	-2.8091033564	-1.299452558	 1.599271023	 0.089072
H	-0.6006761579	-1.2277610662	 3.0634398274	 0.100717
H	-0.4319806932	-2.5216287238	 1.8939840399	 0.10438
H	 0.9537238296	 0.122062457	 1.9480697181	 0.067305
H	 2.72308072	-1.0716223923	 0.934680773	 0.101972
H	 1.7796287912	-2.5138471703	 1.2454170873	 0.099806
H	 2.0355968	-2.3046406588	-1.3793097661	 0.088016
H	 0.1581802574	-0.7101223708	-2.153842172	 0.08473
60.3627	197.8522	238.1351	253.6246	277.5151	402.8273	430.0378	479.6857	592.7216	602.4395	698.1098	730.4173	784.1147	786.6008	806.0224	873.672	927.0645	932.9045	953.1625	958.3218	974.0972	978.9048	986.6116	1049.2716	1052.1359	1093.5157	1122.7662	1136.5254	1164.9316	1193.2571	1217.9432	1223.5508	1265.8559	1310.2904	1320.2706	1330.2571	1369.992	1377.179	1405.3518	1482.2951	1491.1131	1494.0531	1495.4333	1679.6564	1697.875	3007.1487	3009.5043	3022.1656	3037.8336	3042.694	3069.1965	3090.1071	3098.6661	3167.9187	3169.6542	3194.4641	3196.1825
CC12C=CCC1CC=C2	C[C@]12C=CC[C@H]1CC=C2	
InChI=1S/C9H12/c1-9-6-2-4-8(9)5-3-7-9/h2-3,6-8H,4-5H2,1H3	InChI=1S/C9H12/c1-9-6-2-4-8(9)5-3-7-9/h2-3,6-8H,4-5H2,1H3/t8-,9+
