21
gdb 114093	3.0923	1.15538	0.98578	0.5632	78.42	-0.2407	0.0707	0.3114	1278.3193	0.18185	-424.1892	-424.180011	-424.179067	-424.223287	34.462	
C	-0.3352752805	 1.5326584103	-0.0438500611	-0.502932
C	 0.0433654876	 0.0707499003	-0.0097829618	 0.308626
C	-1.0576283052	-0.9860027861	 0.1983216601	-0.116592
O	-0.2766563075	-1.6784856332	 1.2007629048	-0.296044
C	 0.7522517262	-0.6637868119	 1.1731955704	 0.041097
C	 1.9489938507	-1.0241795996	 0.2634956323	 0.025955
C	 2.3731862095	-2.4769800519	 0.2055834129	-0.096336
O	 3.343920082	-2.6001159844	-0.8276860814	-0.425853
C	 1.1789438452	-0.4298378958	-0.9576167352	-0.302022
H	 0.5493322775	 2.1753265132	 0.0228031825	 0.119013
H	-0.8491650358	 1.781424828	-0.9806177238	 0.12087
H	-1.0047024585	 1.7938768348	 0.7831660059	 0.11814
H	-1.9897154908	-0.5921888847	 0.627485767	 0.094123
H	-1.3010179008	-1.625813923	-0.6594230805	 0.097222
H	 0.9429285488	-0.2467098448	 2.1671663687	 0.066467
H	 2.8168212372	-0.404410083	 0.5133679754	 0.077482
H	 2.7859971692	-2.7839762983	 1.180845828	 0.083676
H	 1.4928282554	-3.1045686325	 0.0108628927	 0.098006
H	 3.5468664674	-3.5337268745	-0.935650315	 0.285706
H	 0.8608665906	-1.1665572586	-1.7008803258	 0.100419
H	 1.7128948017	 0.3689579356	-1.4768301861	 0.102976
71.0449	93.9083	160.5658	213.7953	224.9518	262.8528	283.9743	346.5199	379.5537	432.4383	498.1839	634.9632	700.5614	806.0082	842.9461	875.8979	893.741	913.9447	943.004	980.2387	1009.0158	1029.9764	1051.8216	1071.1341	1081.2449	1152.379	1157.0876	1162.4693	1197.9153	1223.7137	1244.2149	1254.0346	1263.8159	1284.4797	1293.08	1325.8104	1358.5519	1379.871	1413.4378	1456.7964	1482.8012	1492.1297	1494.4877	1521.4958	1525.6712	2965.7074	2994.5208	3020.505	3023.2615	3044.3902	3048.1849	3057.8624	3062.3684	3082.8045	3094.1395	3112.6382	3830.0876
CC12COC1C(CO)C2	C[C@]12CO[C@H]1[C@@H](CO)C2	
InChI=1S/C7H12O2/c1-7-2-5(3-8)6(7)9-4-7/h5-6,8H,2-4H2,1H3	InChI=1S/C7H12O2/c1-7-2-5(3-8)6(7)9-4-7/h5-6,8H,2-4H2,1H3/t5-,6+,7+/m1/s1
