18
gdb 22729	3.03071	1.13328	0.90672	1.4117	76.45	-0.2482	-0.0014	0.2468	1284.591	0.145054	-439.01091	-439.001875	-439.000931	-439.044874	33.59	
C	-0.3937618311	 1.3441980787	-0.1194623052	-0.408686
C	-0.0130952099	-0.1253791882	 0.0065923872	-0.154742
C	 1.164151547	-0.6532117769	-0.8021215247	 0.407863
C	 1.8177858043	-1.3367609816	 0.3861238839	-0.418345
C	 0.7654630213	-0.6188300605	 1.2503018986	 0.435796
C	 0.926799363	 0.0237645225	 2.5536418632	-0.26039
O	 0.155913428	-1.1791471725	 2.3928552008	-0.270872
N	 1.4616938961	-0.4520993643	-2.0149366049	-0.24261
O	 2.6752496195	-1.0814578969	-2.3493465899	-0.391241
H	 0.4727947352	 1.9907552213	 0.049099863	 0.119214
H	-0.7795076176	 1.5549461478	-1.1208534004	 0.135588
H	-1.1695750643	 1.6089519882	 0.6062132017	 0.121545
H	-0.8960625433	-0.7621474549	-0.1391012435	 0.109443
H	 1.7005657134	-2.4257885779	 0.3828126163	 0.139413
H	 2.8699582076	-1.0976623869	 0.5611553586	 0.13361
H	 1.861784878	-0.091307204	 3.1006339343	 0.118202
H	 0.3509403645	 0.9149365854	 2.7986502029	 0.119117
H	 2.7805570782	-0.8406050893	-3.2761129518	 0.307095
52.8495	147.6903	181.2551	198.9695	206.8248	287.3286	343.3004	354.6294	386.7595	477.2507	485.8858	513.0676	635.7096	731.26	811.8536	834.0014	876.8697	917.7198	960.0779	972.1777	1034.1864	1057.9389	1100.8305	1121.3995	1129.9059	1151.1946	1161.2995	1201.3469	1225.7576	1247.7675	1342.9625	1401.7439	1405.8169	1428.8205	1455.6046	1492.9148	1496.3141	1537.2127	1790.8593	3022.3069	3037.6743	3052.993	3082.8116	3105.7039	3108.4092	3116.0959	3169.9541	3815.9709
CC1C(CC11CO1)=NO	C[C@H]1C(=NO)C[C@]21CO2	
InChI=1S/C6H9NO2/c1-4-5(7-8)2-6(4)3-9-6/h4,8H,2-3H2,1H3	InChI=1S/C6H9NO2/c1-4-5(7-8)2-6(4)3-9-6/h4,8H,2-3H2,1H3/t4-,6+/m0/s1
