21
gdb 104397	2.44063	1.38407	1.14994	2.2173	73.51	-0.2422	0.0581	0.3003	1168.2125	0.181666	-461.364623	-461.354898	-461.353954	-461.399029	36.428	
C	 0.2919905215	 1.648452987	-0.0791964085	-0.403544
C	 0.0022786566	 0.1634211612	 0.1337640436	 0.070958
O	 0.4401610873	-0.6428967515	-0.9556676833	-0.271921
C	 1.8151738075	-0.9885675548	-0.75328917	-0.077094
C	 2.0975978881	-0.8437824084	 0.7560014513	-0.312668
C	 0.7244684943	-0.4431398284	 1.3573058099	 0.420953
O	 0.8226730633	 0.503906261	 2.4051315549	-0.494421
C	-0.0405024753	-1.6653006354	 1.8713070219	-0.14094
O	 0.6923272228	-2.163082801	 2.9897758359	-0.439217
H	 1.3660126994	 1.8431313892	-0.1562784242	 0.115454
H	-0.1854433712	 1.9820477148	-1.0046087315	 0.115552
H	-0.0948197603	 2.2355907674	 0.7568247027	 0.131542
H	-1.0822587792	 0.0161183918	 0.2021798791	 0.074348
H	 1.9485892566	-2.0113970848	-1.119537965	 0.103241
H	 2.4661607839	-0.3344694626	-1.3494197934	 0.09632
H	 2.4826411257	-1.7587349567	 1.2096891197	 0.116691
H	 2.8089258902	-0.0409957773	 0.9614163132	 0.11127
H	 1.0437782296	-0.0036578328	 3.1963353417	 0.286251
H	-1.0483669751	-1.3505470981	 2.177104937	 0.095993
H	-0.1335180969	-2.4194211931	 1.0779716372	 0.106143
H	 0.1565758511	-2.8202154775	 3.4420599179	 0.295088
66.9275	120.011	140.6074	184.4088	222.7906	250.8113	283.8635	327.0549	338.7935	416.7459	453.0897	479.0019	519.8816	649.9308	709.4083	780.2313	823.6672	873.6245	925.6926	949.756	991.1056	1011.002	1032.0916	1053.7919	1102.9375	1107.2974	1147.1044	1161.6605	1187.028	1223.4253	1241.3342	1255.2975	1270.8583	1300.1741	1320.9808	1371.6991	1393.7736	1401.9184	1421.6169	1445.7339	1487.3469	1490.7531	1502.9092	1511.1147	1533.3143	2994.1435	3004.8164	3033.6113	3041.983	3046.9488	3064.7225	3077.4101	3116.8925	3126.3596	3133.6498	3775.3402	3843.8928
CC1OCCC1(O)CO	C[C@H]1OCC[C@]1(O)CO	
InChI=1S/C6H12O3/c1-5-6(8,4-7)2-3-9-5/h5,7-8H,2-4H2,1H3	InChI=1S/C6H12O3/c1-5-6(8,4-7)2-3-9-5/h5,7-8H,2-4H2,1H3/t5-,6+/m1/s1
