12
gdb 20586	3.58884	1.9209	1.26103	2.1321	63.02	-0.2763	-0.0469	0.2294	877.3367	0.084328	-377.541508	-377.534567	-377.533622	-377.57312	24.268	
C	 0.0505824822	 1.4998921782	 0.0590814924	-0.500946
C	-0.0487246664	 0.0193629921	 0.0702002791	 0.365386
C	-1.1062720115	-0.8457863774	-0.0667887795	-0.029211
C	-0.5027013671	-2.1359656663	 0.0419118546	-0.036581
N	 0.7853086039	-2.0566777112	 0.225428897	-0.122597
O	 1.0718694855	-0.6853199532	 0.2430993574	-0.199037
C	-2.4661678414	-0.5176750365	-0.2675908542	 0.198201
N	-3.5794246187	-0.2441679483	-0.432058042	-0.337162
H	 0.7138296903	 1.8352780074	-0.7444038449	 0.16632
H	-0.9369613175	 1.9392318466	-0.0898786581	 0.16811
H	 0.4633269247	 1.8652461988	 1.0046673847	 0.166316
H	-0.980483384	-3.1033821501	-0.0101146664	 0.1612
90.5597	138.6245	177.0569	252.8002	330.9384	526.7902	534.7679	593.0529	634.8546	699.0621	701.8181	891.469	918.071	954.985	1014.036	1062.9771	1164.0959	1206.1001	1281.9147	1395.1528	1420.7349	1472.348	1476.495	1523.2305	1639.5729	2352.0073	3048.029	3108.4816	3148.5252	3257.3078
CC1=C(C=NO1)C#N	Cc1c(cno1)C#N	
InChI=1S/C5H4N2O/c1-4-5(2-6)3-7-8-4/h3H,1H3	InChI=1S/C5H4N2O/c1-4-5(2-6)3-7-8-4/h3H,1H3
