20
gdb 126153	3.70036	0.91027	0.88427	2.8332	80.84	-0.2599	-0.0053	0.2546	1425.8368	0.170705	-403.156428	-403.147241	-403.146296	-403.191198	33.574	
C	-0.1042699878	 1.5296424411	-0.0854004686	-0.391613
C	-0.1173606505	 0.0049690894	 0.0592174525	-0.172288
C	 0.7204587536	-0.5257604566	 1.2450500638	-0.083123
C	 0.1761011439	-0.0738354538	 2.611784102	-0.39999
C	 0.8211964121	-2.0255554861	 1.1836924962	 0.392885
N	 1.986283977	-2.5978455413	 0.9866359761	-0.212423
O	 1.7453543037	-3.9720984743	 0.9741935293	-0.165551
C	 0.4362814419	-4.1791226285	 1.165612382	 0.082528
C	-0.2173199243	-3.0003911295	 1.3071408667	-0.336229
H	 0.919848231	 1.9077821143	-0.1789004259	 0.119411
H	-0.6538855673	 1.8368260429	-0.9804220566	 0.115764
H	-0.5675472264	 2.0299377836	 0.7703503306	 0.119248
H	-1.1522305993	-0.3476973478	 0.1629106297	 0.093963
H	 0.2684871982	-0.4466142102	-0.8619472249	 0.109493
H	 1.7432521242	-0.1462686311	 1.1349407605	 0.098283
H	 0.7842893843	-0.4777916853	 3.42602551	 0.127493
H	 0.1829756946	 1.0159419298	 2.6968563903	 0.12147
H	-0.8545721299	-0.4153574364	 2.7599758822	 0.113753
H	 0.1198671776	-5.2109434541	 1.1771875081	 0.148576
H	-1.2696717765	-2.8427086261	 1.473539806	 0.118348
44.0887	83.6644	122.0403	189.6406	217.2905	269.5051	289.6704	342.3336	395.5595	476.9087	615.6142	690.4982	743.9711	783.6763	800.5519	849.3777	872.0967	904.4047	938.6454	965.3099	980.7836	1002.0702	1032.3921	1064.8011	1101.4792	1134.4403	1160.6817	1186.9556	1288.9337	1297.6531	1313.7244	1360.1832	1378.1753	1409.8618	1415.9431	1446.3359	1478.3336	1483.4664	1495.5116	1501.0948	1506.1575	1512.0677	1608.7328	3018.849	3034.3588	3036.9382	3043.411	3062.3979	3102.0136	3105.421	3108.7743	3120.6999	3258.659	3284.8112
CCC(C)C1=NOC=C1	CC[C@@H](C)c1nocc1	
InChI=1S/C7H11NO/c1-3-6(2)7-4-5-9-8-7/h4-6H,3H2,1-2H3	InChI=1S/C7H11NO/c1-3-6(2)7-4-5-9-8-7/h4-6H,3H2,1-2H3/t6-/m1/s1
