19
gdb 47063	3.6029	1.33064	1.06159	4.0442	75.47	-0.2329	0.0671	0.3001	1133.9996	0.163503	-419.251017	-419.243404	-419.24246	-419.283198	30.119	
O	-0.0217621177	-0.0957999321	-0.2096502043	-0.414806
C	-0.0473000596	 1.1176004699	-0.1007882675	 0.42073
N	-1.2033489827	 1.8610409514	-0.2588400858	-0.338681
C	-1.3051866132	 3.2065137714	 0.2841655156	-0.187519
C	-0.1366510242	 4.0332162122	-0.2522485904	-0.007283
C	 0.3415434958	 5.1692912072	 0.6935113787	-0.242995
C	 1.4166507673	 4.2027260002	 1.2673917612	-0.239068
C	 1.1984918213	 3.2924781965	 0.0207976918	 0.057013
N	 1.0799157549	 1.861049292	 0.1887372722	-0.344587
H	-2.0276566733	 1.2804409146	-0.2608607188	 0.248286
H	-2.2605893695	 3.6413003962	-0.0240740653	 0.112723
H	-1.2909717554	 3.2039313583	 1.3860696855	 0.103278
H	-0.3218908141	 4.2942093351	-1.2964450856	 0.080089
H	 0.7806314136	 6.0042283102	 0.1424372414	 0.10759
H	-0.3955896829	 5.5690851926	 1.3942629695	 0.103611
H	 2.420974803	 4.6009670688	 1.4272730229	 0.100427
H	 1.0855238026	 3.7030052095	 2.1807760411	 0.111444
H	 1.9384499275	 3.523774056	-0.754593084	 0.083876
H	 1.9180735967	 1.3003985098	 0.1846148618	 0.245872
101.4352	110.7531	223.4321	312.101	376.3649	420.2094	445.617	521.7362	557.7173	597.3563	659.3202	745.9045	768.4465	794.1171	827.0091	889.8655	910.6875	943.1253	972.4539	1007.2126	1033.0169	1089.8716	1119.3478	1149.0705	1176.2447	1205.6412	1232.3756	1247.0079	1262.7894	1276.6785	1304.4977	1310.7567	1360.0769	1389.719	1419.0726	1453.4841	1472.6551	1480.1738	1497.4698	1517.6024	1806.2229	2970.3368	3024.7959	3062.3164	3068.0987	3071.8586	3086.5865	3108.7413	3127.8722	3627.9161	3632.5007
O=C1NCC2CCC2N1	O=C1NC[C@H]2CC[C@H]2N1	
InChI=1S/C6H10N2O/c9-6-7-3-4-1-2-5(4)8-6/h4-5H,1-3H2,(H2,7,8,9)	InChI=1S/C6H10N2O/c9-6-7-3-4-1-2-5(4)8-6/h4-5H,1-3H2,(H2,7,8,9)/t4-,5-/m1/s1
