19
gdb 68475	2.80984	1.68401	1.28631	1.8955	75.94	-0.2398	0.0062	0.246	1014.8	0.160144	-423.004992	-422.997344	-422.996399	-423.0365	31.419	
O	-0.267774953	 1.4540080274	-0.1439058269	-0.488374
C	-0.0790515629	 0.0605383824	-0.0447462923	 0.377697
C	 0.2640406481	-0.5334783705	 1.3603417139	-0.324939
C	-0.7295025545	-1.6831045919	 1.0424094069	 0.121815
C	-1.4099823212	-0.7370745717	 0.0135127933	-0.255594
O	-0.1874748811	-2.8548588259	 0.4565898455	-0.270571
C	 1.0842311887	-2.8089423233	-0.1688923209	-0.127984
C	 1.3425533601	-1.6998748114	-1.164657324	-0.083075
C	 0.8504958307	-0.4631993422	-1.1142042496	-0.139199
H	 0.5982588555	 1.8765129372	-0.143530017	 0.274118
H	 1.3038097142	-0.7745731627	 1.5905889766	 0.100498
H	-0.1435284031	 0.1113677739	 2.1427082951	 0.109406
H	-1.3521435851	-2.0342828582	 1.8677912726	 0.084445
H	-2.1915406283	-0.1306783474	 0.4798257703	 0.106831
H	-1.7756205808	-1.189153924	-0.9093008607	 0.104931
H	 1.8850354217	-2.8021378929	 0.5907535614	 0.105685
H	 1.1666520683	-3.7717356388	-0.6840355189	 0.11739
H	 2.00880431	-1.9696256359	-1.98075812	 0.09653
H	 1.0865494226	 0.2452389159	-1.9050836554	 0.090391
159.4239	203.7785	286.7452	308.616	333.6847	360.0204	427.7654	431.07	484.8163	541.405	653.1502	689.4229	742.4408	809.2131	826.2117	869.3014	907.4842	941.8322	955.5298	985.0879	993.5676	1014.0373	1030.8872	1068.1204	1102.5311	1145.4831	1189.2633	1198.482	1239.9811	1251.948	1263.3686	1272.6564	1286.9795	1364.0222	1380.6106	1406.2585	1411.0329	1455.5606	1481.5965	1499.3357	1716.2369	2951.8325	3063.1117	3065.1476	3067.8943	3087.1615	3127.4433	3136.6841	3142.6328	3165.3698	3798.9288
OC12CC(C1)OCC=C2	O[C@@]12C[C@@H](C1)OCC=C2	
InChI=1S/C7H10O2/c8-7-2-1-3-9-6(4-7)5-7/h1-2,6,8H,3-5H2	InChI=1S/C7H10O2/c8-7-2-1-3-9-6(4-7)5-7/h1-2,6,8H,3-5H2/t6-,7-
