19
gdb 75149	3.23135	1.07422	1.04056	4.7582	82.	-0.2506	0.0105	0.2612	1255.1766	0.159589	-382.099008	-382.089951	-382.089007	-382.132491	34.324	
C	 0.529320499	 1.4243186967	 0.1162909834	-0.497779
C	 0.0873607121	 0.001270987	-0.0102218976	 0.323963
C	 0.1583493141	-0.7832213683	-1.0885223326	-0.174833
C	-0.4465435886	-2.1435735355	-0.8577137513	-0.289312
C	-0.530010382	-2.2197701608	 0.7080053137	 0.10228
N	 0.6451797785	-2.840428397	 1.3387289702	-0.533605
C	-0.5770114007	-0.7230472731	 1.1423079449	-0.318051
C	-1.7205721147	-2.964125216	 1.1427004448	 0.285968
N	-2.6656625153	-3.5510428564	 1.4550794783	-0.347145
H	 1.2668210381	 1.5420169844	 0.9200257797	 0.129781
H	 0.9730151281	 1.792260092	-0.8125329896	 0.127884
H	-0.3145368366	 2.0774820805	 0.3725489742	 0.133029
H	 0.5651649282	-0.4815666204	-2.0476937132	 0.094771
H	-1.4401728204	-2.2219772033	-1.3184782677	 0.128163
H	 0.1497191689	-2.9749589092	-1.2503828511	 0.106601
H	 0.7523690766	-3.7940404777	 1.0027621181	 0.236701
H	 1.4713277441	-2.3305126389	 1.034684757	 0.235562
H	-0.0658854709	-0.5999416668	 2.1025257451	 0.126315
H	-1.6085686784	-0.3761956871	 1.2798249534	 0.129706
80.2265	147.9905	179.1525	196.888	239.5394	281.8006	311.5742	379.7276	409.6173	449.3535	479.2376	568.99	601.0334	640.6358	779.1488	821.7582	862.0913	889.9485	939.0574	942.1185	966.4729	1009.2265	1028.3497	1041.4086	1080.4314	1115.2599	1177.9749	1195.5	1257.4704	1280.3909	1293.8443	1339.4871	1365.4338	1416.2945	1475.0267	1479.0862	1484.9351	1488.444	1650.3622	1721.2125	2359.6094	3019.6232	3020.3117	3034.1654	3061.4987	3066.6063	3081.3482	3114.027	3190.7983	3476.7836	3560.2372
CC1=CCC(N)(C1)C#N	CC1=CC[C@@](N)(C1)C#N	
InChI=1S/C7H10N2/c1-6-2-3-7(9,4-6)5-8/h2H,3-4,9H2,1H3	InChI=1S/C7H10N2/c1-6-2-3-7(9,4-6)5-8/h2H,3-4,9H2,1H3/t7-/m1/s1
