20
gdb 38892	3.49394	1.43468	1.13446	1.3505	85.36	-0.2285	0.0177	0.2462	1110.7652	0.174351	-365.984855	-365.977632	-365.976688	-366.016376	29.769	
C	 0.0329459245	 1.5824430708	 0.1384605812	-0.241544
C	 1.5794723026	 1.5190534178	-0.1026834734	-0.324781
C	 1.4830869527	 0.0357490023	 0.1840067071	 0.371695
C	 2.2082247528	-0.9281906249	 0.7369712957	-0.250496
C	 1.5117046241	-2.2034669139	 1.0665128194	-0.058587
N	 0.8891038472	-2.3024552931	 2.4116902991	-0.337169
C	 0.0285902042	-2.1799674923	 1.2151435403	-0.038626
C	-0.7297532023	-0.8580631242	 1.0485728001	-0.239325
C	-0.0231358744	 0.0232703356	 0.0111401094	-0.055501
H	-0.2051221598	 1.9110582491	 1.153541379	 0.108325
H	-0.5571630732	 2.1645491171	-0.5726685692	 0.096999
H	 1.8383793967	 1.735270499	-1.1455009936	 0.10995
H	 2.2249524296	 2.1197587354	 0.5436483965	 0.11107
H	 3.2573296004	-0.8092147928	 0.9955112001	 0.084323
H	 1.9584617751	-3.1149247515	 0.6717424159	 0.083304
H	 0.908905687	-3.271602128	 2.7231029266	 0.223531
H	-0.5042271741	-3.0743659633	 0.900984196	 0.079419
H	-1.7738694926	-1.0484370926	 0.7772852532	 0.090234
H	-0.730301192	-0.3449534418	 2.0154882958	 0.112086
H	-0.3138817884	-0.2650198987	-1.0072590591	 0.075093
106.5736	160.53	285.0086	356.8706	373.8364	446.0247	490.2277	515.9126	639.9365	723.7416	757.1208	782.1927	821.7644	826.0628	869.6673	898.7177	919.9692	926.252	970.9249	976.3598	999.4649	1050.6965	1085.8172	1101.0468	1110.6174	1132.1643	1167.0098	1195.6406	1201.0847	1228.6348	1243.6066	1256.8436	1264.9884	1270.0689	1303.1457	1345.8692	1358.6825	1394.6433	1440.8304	1469.9606	1480.8475	1490.6613	1763.0843	3016.5869	3037.6359	3038.6799	3062.0637	3085.21	3092.425	3108.1565	3120.3829	3130.5004	3157.2003	3479.4153
C1CC2=CC3NC3CC12	C1CC2=C[C@H]3N[C@H]3C[C@@H]12	
InChI=1S/C8H11N/c1-2-6-4-8-7(9-8)3-5(1)6/h3,6-9H,1-2,4H2	InChI=1S/C8H11N/c1-2-6-4-8-7(9-8)3-5(1)6/h3,6-9H,1-2,4H2/t6-,7-,8+/m1/s1
