20
gdb 100873	2.42682	1.03075	0.75773	3.0657	75.81	-0.2788	0.0338	0.3127	1501.5077	0.16899	-440.299609	-440.288967	-440.288023	-440.335628	37.769	
C	 0.0708071648	 1.5620651049	 0.0258155191	-0.402055
C	 0.0069212926	 0.0343590998	 0.0006937621	-0.185152
C	-1.4372570722	-0.5200536277	-0.0217191055	-0.145369
C	-2.1423554253	-0.0974157126	-1.2353847901	 0.281451
N	-2.6891206795	 0.233326544	-2.1989849316	-0.342735
C	-1.4622888277	-2.0564351495	 0.1176539008	 0.134351
O	-0.8554904165	-2.3598282515	 1.3578628471	-0.445702
C	-2.873895984	-2.6409592291	 0.0793160105	-0.122648
O	-2.7186149299	-4.0244078611	 0.3836094642	-0.432725
H	 1.1099276844	 1.9028193263	 0.0444521596	 0.121449
H	-0.4099176933	 1.9981110866	-0.8554708824	 0.139637
H	-0.4273521591	 1.9650336224	 0.9144700011	 0.118513
H	 0.5421465473	-0.3521748324	-0.874399362	 0.111777
H	 0.4912774182	-0.3865682912	 0.8848828464	 0.136071
H	-1.9812195069	-0.1088902648	 0.8392722468	 0.12692
H	-0.887179766	-2.4962672753	-0.7140345011	 0.089254
H	-1.1032633806	-3.2745832695	 1.5467598148	 0.296266
H	-3.4973868447	-2.1378012013	 0.8335915815	 0.098622
H	-3.3276454518	-2.4931363405	-0.908946803	 0.122794
H	-3.5856663998	-4.4063870474	 0.5443578717	 0.299281
65.0258	86.5993	121.3184	131.9197	165.4425	209.0787	242.4924	271.8903	299.3887	333.4204	369.1821	458.5182	473.4498	496.0133	566.3831	621.4986	773.1991	873.0011	899.7482	954.9454	1029.7219	1034.9428	1066.634	1083.3712	1118.1151	1130.366	1135.155	1225.7174	1249.8894	1275.6627	1277.2027	1307.9453	1350.157	1366.3533	1381.3658	1416.3208	1428.4712	1457.5042	1491.0655	1499.5568	1507.5361	1511.4081	2352.3959	2969.0567	2993.3926	3027.8753	3036.0123	3048.1447	3052.721	3096.9077	3110.6097	3121.275	3767.7802	3844.8511
CCC(C#N)C(O)CO	CC[C@@H](C#N)[C@@H](O)CO	
InChI=1S/C6H11NO2/c1-2-5(3-7)6(9)4-8/h5-6,8-9H,2,4H2,1H3	InChI=1S/C6H11NO2/c1-2-5(3-7)6(9)4-8/h5-6,8-9H,2,4H2,1H3/t5-,6-/m0/s1
