14
gdb 130338	3.31648	1.33506	0.95686	6.6187	83.46	-0.1515	-0.0403	0.1112	1130.4514	0.101004	-432.819105	-432.811101	-432.810157	-432.852141	28.951	
N	-0.0087019714	 0.9684645101	-0.1053677295	-0.514171
H	-0.2105287189	 0.0193641768	-0.4336206267	 0.297995
H	 0.9540236135	 0.9894636104	 0.379216501	 0.303635
H	 0.0001089697	 1.5885124849	-0.9206228977	 0.298062
C	-0.7693410159	 1.427467716	 1.0448482789	 0.023781
C	-2.1366458464	 1.7022104364	 1.3534088215	-0.209342
C	-2.1980206484	 2.1132238944	 2.6602835529	-0.240304
C	-0.8373977646	 2.0968684475	 3.1886917811	 0.236961
C	 0.0943529182	 1.6450128812	 2.1249228183	 0.290354
O	 1.3412617634	 1.4642421674	 2.0793701485	-0.52076
N	-0.0825347577	 2.6882581262	 5.4258527188	-0.247934
N	-0.4559340259	 2.4161522175	 4.3891011951	 0.100531
H	-2.9856612246	 1.6104390175	 0.689743849	 0.08693
H	-3.0719668912	 2.4028788738	 3.220597959	 0.094264
71.0762	117.65	140.9581	234.6679	287.2374	405.1551	440.9247	507.165	526.2062	554.4245	592.4165	595.8394	727.1728	732.2044	765.877	809.1287	1001.2853	1071.2152	1075.8319	1088.0612	1175.5435	1256.267	1327.0615	1369.8436	1433.1245	1453.2522	1510.101	1632.7104	1647.3532	1652.0515	2207.9947	2683.6577	3218.5629	3263.2314	3369.9274	3390.4723
[NH3+][C-]1C=CC2=C1ON=N2	[NH3]C1=CC=C(C1=O)[N][N]	
InChI=1S/C5H5N3O/c6-3-1-2-4-5(3)9-8-7-4/h1-2H,6H3	InChI=1S/C5H5N3O/c6-3-1-2-4(8-7)5(3)9/h1-2H,6H3
