18
gdb 73112	2.66544	1.58437	1.29356	3.2663	72.82	-0.2594	0.0253	0.2847	1040.0617	0.148007	-439.096589	-439.088669	-439.087725	-439.129194	30.423	
C	-0.1398762725	 1.5830791478	 0.0863418035	-0.465044
C	 0.0551409413	 0.0867941368	 0.0236382435	 0.339549
C	-1.1336921459	-0.8603532374	 0.2852912193	-0.113459
O	-0.3515732541	-1.64107518	 1.2164514139	-0.29292
C	 0.7513822126	-0.7083827566	 1.158849055	 0.062493
C	 2.0068128788	-1.2962195326	 0.5438976026	-0.320161
C	 1.7969480645	-1.1251005077	-0.9489346127	 0.394009
N	 2.4874094427	-1.663838859	-1.8552372814	-0.532669
O	 0.7542535492	-0.2613689339	-1.1797671338	-0.276695
H	 0.824861792	 2.0989110836	 0.0687771886	 0.131154
H	-0.7243378288	 1.9291157362	-0.7718150666	 0.137298
H	-0.6700363072	 1.8639176697	 1.0007033379	 0.126587
H	-1.9965216846	-0.3879904274	 0.7716576311	 0.101862
H	-1.4657055624	-1.4439903246	-0.5791704857	 0.118143
H	 0.9027649425	-0.199394761	 2.1158034567	 0.081319
H	 2.9031604216	-0.7471178448	 0.851518158	 0.133241
H	 2.1469400146	-2.3460582581	 0.8058841642	 0.152517
H	 2.1556773757	-1.380131411	-2.7786427843	 0.222776
83.3144	105.752	218.0781	251.9708	314.3917	367.9561	410.3268	469.2093	522.6607	597.339	675.6401	691.4243	833.1329	857.7843	879.0822	894.3003	909.5116	944.2278	971.0932	1012.7488	1022.2442	1056.694	1083.8412	1144.4153	1165.3165	1192.4159	1200.465	1218.0703	1284.5976	1300.1336	1313.3756	1360.2035	1374.3569	1414.3862	1449.7422	1485.1249	1492.5031	1512.5957	1780.5565	3019.4575	3041.5725	3054.2276	3067.9232	3084.1045	3113.5843	3120.9356	3130.4811	3474.2181
CC12COC1CC(=N)O2	C[C@]12CO[C@H]1C[C]([NH])O2	
InChI=1S/C6H9NO2/c1-6-3-8-4(6)2-5(7)9-6/h4,7H,2-3H2,1H3	InChI=1S/C6H9NO2/c1-6-3-8-4(6)2-5(7)9-6/h4,7H,2-3H2,1H3/t4-,6-/m0/s1
