19
gdb 106479	2.57714	1.69328	1.28045	2.7235	75.29	-0.2216	-0.0098	0.2118	1043.5958	0.159678	-423.025888	-423.017832	-423.016888	-423.058398	31.264	
C	 0.002195963	 1.3717983452	 0.092071503	-0.274189
O	-0.0881919559	-0.0411840708	-0.0534268523	-0.300736
C	 0.5975208016	-0.5578217186	-1.1271778795	 0.344866
C	 2.172620828	-0.558396472	-1.2748208179	-0.303452
C	 1.8710319202	-1.7401407177	-2.2383031985	-0.035409
C	 0.6931782524	-2.1048018623	-1.2898207284	-0.287273
C	 1.1459757981	-1.0345434526	-3.4028109333	-0.326415
C	 0.2022825146	-0.1613130296	-2.5550857248	 0.379448
O	-0.6311966699	 0.6283093758	-2.9127331799	-0.345929
H	 1.0459764361	 1.6903849555	 0.2263325696	 0.106663
H	-0.4285392533	 1.8916489476	-0.7685889952	 0.147073
H	-0.5605549383	 1.6259247629	 0.9924283827	 0.128987
H	 2.6687010405	 0.3275481788	-1.6802704356	 0.102057
H	 2.645603285	-0.8755199982	-0.3431221514	 0.113193
H	 2.6368285907	-2.4698972369	-2.4921150662	 0.078572
H	 1.0226088843	-2.5703868564	-0.3589688951	 0.114681
H	-0.1703817318	-2.6342574468	-1.7012011834	 0.10716
H	 1.8004842248	-0.4214291983	-4.0306198748	 0.124251
H	 0.5811015198	-1.7103777556	-4.052617409	 0.126453
97.4231	139.525	175.646	214.7433	301.712	391.6191	430.5328	450.3728	507.9533	589.7469	631.2343	654.5913	753.5835	826.3258	890.1557	894.5195	910.2204	971.3958	982.5457	1003.1706	1025.1744	1059.92	1067.2845	1099.6202	1126.1911	1178.6528	1179.7859	1195.2014	1215.6313	1233.7208	1253.9086	1274.2409	1305.4594	1350.0248	1459.5734	1481.8983	1484.9791	1487.7258	1513.9006	1526.0259	1862.577	3001.1324	3052.672	3058.9761	3063.6982	3089.6496	3099.7008	3126.5918	3129.6051	3134.0338	3135.7842
COC12CC(C1)CC2=O	CO[C@@]12C[C@@H](C1)CC2=O	
InChI=1S/C7H10O2/c1-9-7-3-5(4-7)2-6(7)8/h5H,2-4H2,1H3	InChI=1S/C7H10O2/c1-9-7-3-5(4-7)2-6(7)8/h5H,2-4H2,1H3/t5-,7-
