16
gdb 61047	3.30009	1.11916	1.00043	3.3862	67.15	-0.2502	-0.0474	0.2029	1186.2307	0.12183	-475.012319	-475.003426	-475.002481	-475.046885	31.444	
O	-0.0735328623	 1.4598004488	 0.1650315304	-0.4314
C	-0.0209769324	 0.0714113835	 0.0163276031	 0.058059
C	 0.7499049356	-0.3077967365	-1.2322407873	 0.141234
O	 1.3113564964	 0.5178420704	-1.9080415756	-0.252127
C	 0.629976979	-0.5985829414	 1.2428048409	-0.167217
N	 1.9713939063	-0.0523525522	 1.5799309753	-0.313854
C	 1.534976616	 0.4258121577	 2.9227763203	-0.281505
C	 0.1150224386	-0.0605270738	 2.6006102459	 0.416169
O	-0.9382250487	-0.0616421794	 3.1560875539	-0.279974
H	 0.5804387254	 1.8150368908	-0.4565822242	 0.300402
H	-1.0413421926	-0.3379205954	-0.073124351	 0.113427
H	 0.7862002387	-1.3899627597	-1.4769459995	 0.094107
H	 0.5619193215	-1.6930444138	 1.1643603387	 0.096997
H	 2.6910253313	-0.7630836356	 1.6268781091	 0.229994
H	 1.9835849195	-0.0808833171	 3.7863608623	 0.128002
H	 1.6310324877	 1.5086099937	 3.0558006177	 0.147686
68.5365	73.665	89.4531	142.6497	267.8341	281.2021	310.5428	399.8097	428.9293	529.5895	624.7548	650.9635	737.5662	752.9124	820.1648	868.364	912.0461	990.5743	1010.0142	1024.7559	1044.3917	1078.0879	1111.5515	1160.7486	1210.7399	1253.7366	1272.4258	1305.3323	1346.3353	1374.9604	1403.8617	1437.9929	1465.5557	1817.6605	1921.1338	2917.7264	2981.0932	3012.649	3029.1232	3081.1316	3557.0791	3709.3793
OC(C=O)C1NCC1=O	O[C@@H](C=O)[C@H]1NCC1=O	
InChI=1S/C5H7NO3/c7-2-4(9)5-3(8)1-6-5/h2,4-6,9H,1H2	InChI=1S/C5H7NO3/c7-2-4(9)5-3(8)1-6-5/h2,4-6,9H,1H2/t4-,5-/m0/s1
