19
gdb 63601	4.33971	0.66638	0.64079	4.766	92.96	-0.2571	-0.0537	0.2034	1783.0844	0.156278	-385.869185	-385.859081	-385.858136	-385.904956	35.835	
C	-0.0494371389	 1.5275921338	-0.1263082828	-0.452945
C	 0.0074299316	 0.0160419323	-0.0412411917	 0.337724
C	-1.2347990278	-0.6940223959	-0.5435642328	-0.449322
C	 1.3291371089	-0.6605330514	-0.2219116462	-0.315521
C	 0.6994593114	-0.6284464379	 1.1747164547	-0.250026
C	 1.2809553432	 0.1610910992	 2.2061097932	 0.115158
C	 1.7615740606	 0.8159163197	 3.1050354169	 0.037736
C	 2.345039047	 1.6202967129	 4.1391422886	 0.013318
O	 2.380089797	 1.3230491096	 5.313415891	-0.23895
H	 0.8551672812	 1.9896457056	 0.2755112995	 0.127553
H	-0.1598447994	 1.8439312197	-1.1695385044	 0.120211
H	-0.9041622371	 1.9204601775	 0.4349836407	 0.125102
H	-1.4064075139	-0.4640282496	-1.6013773204	 0.123592
H	-1.1462807417	-1.7805563866	-0.448879795	 0.118662
H	-2.1224416866	-0.3770792608	 0.0147167363	 0.126475
H	 1.3653791011	-1.6287494598	-0.70970624	 0.122992
H	 2.2080470201	-0.0438550811	-0.3712531796	 0.128174
H	 0.2615284874	-1.5635509904	 1.5119145661	 0.119593
H	 2.7806241457	 2.5742622633	 3.774876356	 0.090474
51.3783	77.9038	97.6374	173.9436	203.0964	207.1213	245.2052	288.7594	349.7469	372.8158	398.5857	488.1288	561.0699	613.7512	695.6218	778.994	835.2194	921.8059	931.809	948.9637	975.652	1019.0841	1045.7642	1060.496	1082.2818	1105.3205	1145.9018	1220.7628	1279.5095	1333.9258	1400.1149	1414.4013	1423.6425	1426.8591	1480.0037	1485.9032	1490.7326	1501.2401	1511.3523	1758.1311	2306.1602	2903.9948	3026.8295	3034.0028	3090.1448	3094.1206	3104.3359	3123.9147	3137.0143	3147.5764	3227.5374
CC1(C)CC1C#CC=O	CC1(C)C[C@H]1C#CC=O	
InChI=1S/C8H10O/c1-8(2)6-7(8)4-3-5-9/h5,7H,6H2,1-2H3	InChI=1S/C8H10O/c1-8(2)6-7(8)4-3-5-9/h5,7H,6H2,1-2H3/t7-/m1/s1
