21
gdb 84020	2.0948	1.58611	1.38256	1.0543	77.69	-0.2398	0.0662	0.306	1088.583	0.183779	-424.22245	-424.213868	-424.212924	-424.254927	34.49	
O	 0.025115443	 1.3941857608	-0.1789504056	-0.415328
C	-0.0179952201	 9.3311*^-6	-0.0741391784	 0.011812
C	-0.4799374631	-0.6684905809	 1.2200865194	-0.122713
C	-0.8629735373	 0.1820126048	 2.4285101944	-0.217654
C	-2.3535442633	 0.5557746027	 2.4540965351	-0.186314
C	-2.8021306677	 1.1407574877	 1.1105735612	-0.201207
C	-2.6660854852	 0.1006467615	-0.0145059377	-0.269061
C	-1.3576442127	-0.6744265157	-0.0101031329	 0.36344
O	-1.4294684911	-1.9306316386	-0.6432167416	-0.467567
H	 0.7787355528	 1.7106314129	 0.3315265738	 0.289981
H	 0.7457799969	-0.5283591333	-0.6444559379	 0.083912
H	 0.0039503109	-1.6169334061	 1.4298697176	 0.094501
H	-0.5968052464	-0.3561568732	 3.3433308578	 0.097355
H	-0.2700221592	 1.1066027383	 2.4339980685	 0.08218
H	-2.9495568866	-0.3393145401	 2.6777092022	 0.095449
H	-2.5407311317	 1.2699518149	 3.2638724096	 0.087616
H	-3.8459852145	 1.4684325591	 1.1668459462	 0.087401
H	-2.1986882708	 2.0225837934	 0.8760968491	 0.113379
H	-3.4556134723	-0.6528282916	 0.0986574661	 0.104795
H	-2.818800755	 0.5751829729	-0.9926927562	 0.091262
H	-1.5634534565	-1.7746107205	-1.5854145009	 0.276761
131.8016	173.683	232.5599	258.4213	300.6693	313.2459	332.2362	380.6738	442.8454	453.8789	509.8028	576.0369	587.8345	693.1447	780.5622	811.7268	871.984	897.0242	930.3829	950.5435	960.0403	1000.2887	1070.0884	1077.225	1090.8617	1106.7807	1150.0819	1183.8348	1188.4139	1216.0233	1247.7382	1286.637	1295.6052	1304.6304	1339.1283	1362.2471	1370.7482	1373.5846	1382.074	1391.1729	1464.586	1483.8759	1488.8558	1492.5064	1505.9843	3010.5354	3014.4315	3017.8128	3042.816	3051.883	3064.292	3072.8326	3095.7055	3101.6352	3160.9424	3783.6655	3791.0574
OC1C2CCCCC12O	O[C@H]1[C@H]2CCCC[C@@]12O	
InChI=1S/C7H12O2/c8-6-5-3-1-2-4-7(5,6)9/h5-6,8-9H,1-4H2	InChI=1S/C7H12O2/c8-6-5-3-1-2-4-7(5,6)9/h5-6,8-9H,1-4H2/t5-,6+,7+/m1/s1
