20
gdb 91962	2.45893	1.69407	1.4135	3.172	78.43	-0.2425	0.07	0.3125	1021.4761	0.173301	-403.122767	-403.115157	-403.114213	-403.154422	31.507	
O	 0.0861178316	 1.392838212	-0.1292205274	-0.437683
C	 0.0322764423	-0.0158503304	 0.0061442506	 0.009656
C	 0.6196093767	-0.4925164381	 1.3646782933	-0.237136
C	-0.5793732937	-0.528729021	 2.295840833	-0.031704
N	-1.428631588	 0.6835768133	 2.1787802533	-0.363731
C	-1.8132590651	-0.5685903059	 1.471532554	-0.132246
C	-1.4131455361	-0.5442609541	 0.0257905796	 0.411728
C	-2.3637801339	-0.2313306855	-1.0919237375	-0.312812
C	-1.8613309225	-1.642820732	-0.9069922798	-0.332859
H	-0.4418874685	 1.7344613138	 0.6089134072	 0.286327
H	 0.5957933228	-0.4176898305	-0.8406179917	 0.073638
H	 1.0366257054	-1.5026838972	 1.2761073142	 0.099851
H	 1.4143538124	 0.1818915193	 1.6944521752	 0.109425
H	-0.5159749579	-1.0225305187	 3.2600297333	 0.08665
H	-1.9913743817	 0.7911138667	 3.0184682524	 0.233697
H	-2.7113780948	-1.0906200024	 1.7866494264	 0.083678
H	-3.3987619694	-0.0205663475	-0.8430662265	 0.108117
H	-1.9765176995	 0.3524820563	-1.9195987146	 0.126335
H	-1.1393577849	-2.0304700372	-1.6185211822	 0.113003
H	-2.5531490852	-2.3889992109	-0.5278943427	 0.106063
122.2257	218.7697	227.8925	268.7029	348.6493	399.211	458.519	493.1568	561.6431	605.8449	702.9145	773.8394	809.1299	813.4429	850.1861	882.5471	891.8779	915.6118	943.9693	960.0699	972.9459	993.2206	1016.0513	1052.3224	1060.0792	1077.7248	1104.2496	1113.952	1148.4177	1185.3922	1197.9871	1236.687	1255.1737	1288.7496	1303.4118	1311.2074	1338.2142	1394.8162	1438.5706	1465.9575	1469.857	1478.0345	1506.4607	3040.603	3070.7345	3101.2909	3120.3993	3132.3504	3155.8728	3167.1608	3200.2916	3219.8633	3507.3508	3696.7635
OC1CC2NC2C11CC1	O[C@H]1C[C@H]2N[C@H]2C21CC2	
InChI=1S/C7H11NO/c9-5-3-4-6(8-4)7(5)1-2-7/h4-6,8-9H,1-3H2	InChI=1S/C7H11NO/c9-5-3-4-6(8-4)7(5)1-2-7/h4-6,8-9H,1-3H2/t4-,5+,6-/m1/s1
