23
gdb 118875	3.0745	0.99193	0.90216	1.1931	85.52	-0.2417	0.0737	0.3154	1440.0344	0.204688	-388.265588	-388.255939	-388.254995	-388.300021	37.179	
C	 0.0116992291	 1.6162005188	-0.0071097936	-0.380311
C	 0.0020687818	 0.0862992053	 0.062101778	-0.185983
C	-1.4034492362	-0.5096808535	-0.094117043	-0.217746
C	-1.4546667989	-2.0338462399	 0.0207074174	 0.407781
O	-0.6925909217	-2.6522443842	-1.0098168431	-0.490976
C	-1.1698930929	-2.6979081311	 1.4227209654	-0.297213
C	-2.5261592984	-3.4092974692	 1.3356805133	-0.037099
C	-3.6282196599	-2.3951515535	 1.2406371891	-0.293445
C	-2.828631278	-2.7160150182	 0.0083136879	-0.071718
H	 1.0255623223	 2.0154896523	 0.0959186002	 0.110992
H	-0.3914160567	 1.9697552089	-0.9623723634	 0.11745
H	-0.6011009731	 2.0509963621	 0.7902333464	 0.115281
H	 0.6586105047	-0.3063687817	-0.7259530604	 0.088873
H	 0.4352700429	-0.2384663311	 1.0176588604	 0.099258
H	-2.0629821054	-0.0694050961	 0.6632743884	 0.090543
H	-1.813972452	-0.2283134512	-1.0726028822	 0.09837
H	 0.2305371627	-2.4096753395	-0.8827866771	 0.274861
H	-0.3172125409	-3.3764220215	 1.3528543118	 0.100518
H	-1.0343383533	-2.0311216861	 2.2818721455	 0.084456
H	-2.7144322874	-4.4363033685	 1.622666916	 0.083319
H	-4.6365447141	-2.7971878189	 1.2419168849	 0.11164
H	-3.5406042252	-1.4329605801	 1.740415133	 0.102959
H	-3.2778114792	-3.1155165434	-0.8927242649	 0.088189
80.7157	86.4924	130.5995	199.3566	244.4587	268.7383	294.379	320.8068	368.6076	433.287	445.7091	493.2207	671.3932	744.3253	764.6574	793.3375	841.4111	862.0067	905.1375	914.8299	943.852	950.563	980.6313	1005.1536	1037.8414	1049.7066	1056.1715	1070.6061	1090.9881	1120.8845	1141.8133	1168.7032	1203.1517	1236.3566	1255.2156	1272.274	1286.2916	1303.0696	1334.1512	1353.8362	1372.7508	1405.9677	1412.0825	1467.9977	1471.7289	1491.8993	1497.8208	1498.9835	1508.4509	3007.9223	3022.3941	3030.525	3034.1985	3037.6202	3067.9152	3097.8835	3101.889	3107.2499	3109.9781	3181.4847	3186.8827	3200.2118	3809.2303
CCCC1(O)CC2CC12	CCC[C@@]1(O)C[C@H]2C[C@@H]12	
InChI=1S/C8H14O/c1-2-3-8(9)5-6-4-7(6)8/h6-7,9H,2-5H2,1H3	InChI=1S/C8H14O/c1-2-3-8(9)5-6-4-7(6)8/h6-7,9H,2-5H2,1H3/t6-,7-,8-/m1/s1
