16
gdb 41225	3.21195	1.87238	1.51736	1.5037	71.71	-0.1988	-0.0284	0.1704	873.5296	0.126842	-437.810987	-437.804477	-437.803533	-437.841494	26.922	
C	-0.0732837719	 1.1053179837	 0.1240204956	-0.138685
O	 1.3436654904	 1.349623593	-0.3588440744	-0.258083
C	 1.9236369168	 0.282386483	-0.9607558038	 0.060645
C	-0.2827478257	-0.3671266571	 0.1096426929	 0.013231
N	 0.8774175236	-1.0034108988	 0.7004368214	-0.346303
C	 1.7210731325	-0.971625075	-0.4832936458	-0.008476
C	 1.3652258603	-2.171025466	-1.2826847738	-0.09495
O	-0.1387915927	-2.1971972086	-1.3609252309	-0.253605
C	-0.749238749	-1.0607121613	-0.9566103169	 0.068705
H	-0.0933940027	 1.560645004	 1.1181690382	 0.123333
H	-0.727825237	 1.6617924607	-0.5491225227	 0.128316
H	 2.4881456461	 0.529692546	-1.855617391	 0.116149
H	 1.2666924861	-0.3979971169	 1.4171184643	 0.232567
H	 1.729899011	-2.1493311494	-2.3125732764	 0.115683
H	 1.6288530259	-3.1136795035	-0.8009511447	 0.129109
H	-1.5529161536	-0.7221043439	-1.6035128821	 0.112364
167.0051	292.0842	318.7777	406.0338	426.6184	486.6023	508.7302	600.8404	620.5084	694.6966	733.8008	788.373	816.6482	832.2957	866.062	907.282	917.3134	990.1276	996.8235	1048.5391	1113.7725	1139.8767	1163.1928	1177.1173	1193.6424	1207.8344	1323.4649	1331.3764	1350.2442	1355.4913	1400.1058	1492.7012	1502.7638	1618.5387	1657.82	3059.6836	3070.5593	3120.7334	3130.8786	3165.3125	3173.3249	3509.7368
C1OC2C11NC22COC12	C1O[CH][C]2N[C]1[CH]OC2	
InChI=1S/C6H7NO2/c1-5-3(8-1)6(7-5)2-9-4(5)6/h3-4,7H,1-2H2	InChI=1S/C6H7NO2/c1-5-2-9-4-6(7-5)3-8-1/h1,4,7H,2-3H2
