15
gdb 113124	2.49866	1.18954	0.89837	4.5547	72.28	-0.3263	-0.0498	0.2765	1286.0157	0.110557	-416.802619	-416.793531	-416.792587	-416.836986	31.719	
C	-0.0118130926	 1.4869468991	-0.3001964714	-0.385685
C	 0.0070422232	 0.0908508835	 0.3371421234	-0.237159
C	-1.3685708715	-0.5210442535	 0.3533305532	 0.042314
O	-1.881614559	-1.0468699021	-0.8692549103	-0.246633
C	-1.6162546022	-1.9852540168	 0.1741209489	 0.123648
C	-0.5042193193	-2.8915278374	-0.0447254173	 0.272961
N	 0.3875207784	-3.6073923391	-0.2065894163	-0.319614
C	-2.7812412546	-2.5892484895	 0.7949574758	 0.255911
N	-3.7067621417	-3.0545555581	 1.3053346813	-0.30899
H	 0.9914134708	 1.9202322812	-0.2969025755	 0.133308
H	-0.3579496548	 1.4359749868	-1.3363770873	 0.14317
H	-0.6734873687	 2.1667526227	 0.2464141369	 0.127317
H	 0.6926122347	-0.566861552	-0.2051073363	 0.139506
H	 0.3641273503	 0.1495735966	 1.3723373282	 0.127534
H	-2.1216807431	-0.0034895815	 0.9496442366	 0.132414
71.7874	116.8099	130.7019	140.8371	210.471	237.9574	268.6412	363.358	428.5143	495.076	543.9955	594.3163	634.797	662.6221	765.4057	848.9168	917.0685	944.1323	1027.9323	1051.8624	1125.5493	1162.7028	1219.2441	1291.4085	1307.0048	1348.9135	1412.9478	1447.5849	1475.92	1499.5921	1507.2139	2367.851	2368.7192	3043.0975	3045.7511	3091.4162	3110.8447	3120.7708	3127.0317
CCC1OC1(C#N)C#N	CC[C@H]1OC1(C#N)C#N	
InChI=1S/C6H6N2O/c1-2-5-6(3-7,4-8)9-5/h5H,2H2,1H3	InChI=1S/C6H6N2O/c1-2-5-6(3-7,4-8)9-5/h5H,2H2,1H3/t5-/m1/s1
