21
gdb 113861	3.42448	0.96841	0.86185	2.0693	79.3	-0.2484	0.0784	0.3267	1409.385	0.182299	-424.182655	-424.173231	-424.172286	-424.217815	34.175	
O	-0.1172679745	 1.2891854221	-0.7389991551	-0.42549
C	 0.0167708502	 0.0680081593	-0.0148636083	-0.117951
C	-1.3509910528	-0.5591176122	 0.0681611703	 0.003083
C	-1.8756024041	-1.4252835502	-1.0535016169	-0.289703
C	-1.5656272638	-2.0392475475	 0.2875689424	-0.04545
C	-0.4553078723	-3.0475203665	 0.4566072923	 0.122623
C	-0.7484722065	-4.5000700306	 0.0042995082	-0.285741
C	 0.4940245904	-4.324093524	-0.8875462583	-0.061991
O	 0.6198513782	-2.9355490301	-0.5116530151	-0.284964
H	 0.7547759936	 1.6899697729	-0.8002435592	 0.282151
H	 0.7182222082	-0.6172578542	-0.5056142863	 0.119553
H	 0.3958368637	 0.2614138902	 1.0028286312	 0.076409
H	-2.0816825175	 0.0892901966	 0.545243751	 0.087083
H	-2.9096921264	-1.3173225651	-1.3608001754	 0.10545
H	-1.1792963276	-1.6445074874	-1.8556799826	 0.124611
H	-2.4175113694	-2.2890710048	 0.9178196721	 0.084994
H	-0.0477937367	-2.9919411331	 1.4768903917	 0.074139
H	-0.6902573745	-5.2696154028	 0.7750917755	 0.108022
H	-1.6857649035	-4.6016382692	-0.5456502347	 0.1147
H	 1.3732079403	-4.9052506909	-0.581598049	 0.101674
H	 0.3471699548	-4.4432323424	-1.9668161239	 0.106797
67.7967	77.2169	88.7949	124.1556	216.7752	243.8707	247.4181	301.3657	415.6857	530.0054	598.603	697.9382	790.1227	807.7179	845.0551	870.5359	914.5171	935.4745	962.7663	982.2071	999.785	1031.7663	1063.4362	1068.1645	1090.5225	1110.7853	1134.9227	1139.4343	1169.6612	1175.9337	1217.8278	1225.6785	1258.0249	1260.646	1280.6509	1295.1474	1352.8874	1374.1873	1385.2825	1415.8575	1470.7573	1487.923	1492.4761	1528.1153	1530.6365	2957.7936	2987.6847	3016.9958	3053.6787	3061.4528	3080.4078	3119.8555	3134.3977	3137.7917	3141.2487	3223.4657	3826.5874
OCC1CC1C1CCO1	OC[C@H]1C[C@H]1[C@H]1CCO1	
InChI=1S/C7H12O2/c8-4-5-3-6(5)7-1-2-9-7/h5-8H,1-4H2	InChI=1S/C7H12O2/c8-4-5-3-6(5)7-1-2-9-7/h5-8H,1-4H2/t5-,6-,7-/m1/s1
