21
gdb 103841	4.16652	0.90291	0.8451	2.74	79.54	-0.2597	0.0723	0.332	1423.5263	0.180709	-424.184874	-424.17507	-424.174126	-424.219583	36.152	
C	 0.1090764718	 1.5473303575	 0.0478194082	-0.477952
C	-0.0409931226	 0.0381900187	 0.102193591	 0.348216
C	-1.3128532698	-0.482348127	-0.5297548507	-0.14061
O	-1.2926767022	-0.1637461347	-1.9160804102	-0.420054
C	 1.1896171692	-0.8302185864	-0.0315459449	-0.325885
C	 0.4755215142	-0.745354768	 1.2943094949	-0.098496
C	 1.1152846538	-0.0797673997	 2.4735005677	 0.052075
C	 2.4285867437	-0.5024841562	 2.9835512041	-0.174174
O	 2.2829400332	 0.7136077208	 2.2475552733	-0.226714
H	 1.0630468346	 1.8728796988	 0.4654667646	 0.14355
H	 0.0454868138	 1.8865293154	-0.989766008	 0.132095
H	-0.6936796425	 2.0420083834	 0.6089454748	 0.102568
H	-1.385364795	-1.5716625791	-0.3784013367	 0.076646
H	-2.1844031499	-0.0218093364	-0.0356093457	 0.08245
H	-2.162423586	-0.3524886267	-2.2798964313	 0.286012
H	 1.1174383736	-1.7494692353	-0.6024749524	 0.108668
H	 2.1450050094	-0.3219112962	-0.0994218785	 0.127214
H	-0.1210807577	-1.6087331336	 1.5843664017	 0.081811
H	 0.4238147299	 0.3646625027	 3.1922093511	 0.09267
H	 2.6689077271	-0.3816112955	 4.0387299492	 0.113664
H	 2.9657601915	-1.2955393425	 2.4658847177	 0.116248
83.3671	88.2641	133.8237	164.9884	221.5776	238.8693	249.6667	301.1359	353.2975	372.4269	376.8103	585.5055	598.6723	706.568	767.6827	851.3233	883.6823	905.8922	942.8159	967.4469	982.0892	991.6053	1043.5002	1069.8995	1071.6578	1094.762	1118.2937	1130.7951	1143.5902	1167.3195	1175.3501	1241.0893	1248.6362	1272.1214	1300.0939	1355.9034	1405.1266	1413.7309	1434.651	1463.156	1487.4689	1495.3218	1512.293	1516.5263	1523.5065	2955.228	2985.7159	3028.5699	3083.8055	3088.7436	3098.3859	3120.1686	3135.4173	3142.2394	3175.1784	3224.6719	3831.596
CC1(CO)CC1C1CO1	C[C@@]1(CO)C[C@H]1[C@H]1CO1	
InChI=1S/C7H12O2/c1-7(4-8)2-5(7)6-3-9-6/h5-6,8H,2-4H2,1H3	InChI=1S/C7H12O2/c1-7(4-8)2-5(7)6-3-9-6/h5-6,8H,2-4H2,1H3/t5-,6+,7-/m0/s1
