19
gdb 57674	4.33452	0.80445	0.80216	3.2063	78.12	-0.2452	-0.022	0.2232	1467.6668	0.154212	-423.005955	-422.99544	-422.994495	-423.041798	38.048	
C	 0.0109976278	 1.640759103	-0.0003741018	-0.422696
C	-0.0133823601	 0.1061535599	-0.039374084	 0.318042
O	 0.6064871528	-0.4370257528	 1.1216933625	-0.464237
C	-1.455729094	-0.433501162	-0.0236060015	-0.287334
C	-2.2436228822	-0.0005868838	 1.1968275158	 0.146568
O	-3.3481131006	 0.4796532467	 1.1520513599	-0.24748
C	 0.7118112898	-0.4271715429	-1.3106323263	-0.373339
C	 2.1395289677	-0.1345353661	-1.2846128659	 0.266372
C	 3.3139282635	 0.1122251757	-1.1976719464	-0.420044
H	 1.0406262985	 2.0071233883	-0.0499515604	 0.12678
H	-0.5434089604	 2.0689369643	-0.8416231734	 0.121896
H	-0.4388870146	 2.0034928334	 0.9276071544	 0.132732
H	 1.5409716411	-0.1962670693	 1.0898371141	 0.285617
H	-2.0030085475	-0.1277527294	-0.919305736	 0.116664
H	-1.4030415281	-1.5306752063	-0.0016527218	 0.126026
H	-1.7256442625	-0.1739165966	 2.1629212636	 0.101469
H	 0.5664400991	-1.5124894172	-1.3623848842	 0.136385
H	 0.2526556704	 0.0036402494	-2.2083832895	 0.133182
H	 4.3540787993	 0.3237865257	-1.1570759991	 0.203396
54.0362	68.6888	100.5263	126.4721	211.6688	246.0606	305.4432	323.3313	349.3105	378.8547	399.7905	410.8281	435.8141	493.4164	622.8046	627.95	660.655	759.2614	831.642	885.3033	917.2286	956.2064	972.8622	1008.782	1056.3686	1123.7598	1146.5643	1189.6724	1209.5837	1285.7259	1307.8929	1328.1045	1396.6098	1413.3628	1421.2474	1445.6757	1461.5315	1492.3147	1498.7994	1827.5241	2229.6165	2922.8229	3023.6442	3031.377	3041.5102	3071.5197	3106.38	3114.2752	3122.8453	3503.1308	3772.4577
CC(O)(CC=O)CC#C	C[C@@](O)(CC=O)CC#C	
InChI=1S/C7H10O2/c1-3-4-7(2,9)5-6-8/h1,6,9H,4-5H2,2H3	InChI=1S/C7H10O2/c1-3-4-7(2,9)5-6-8/h1,6,9H,4-5H2,2H3/t7-/m0/s1
