20
gdb 37722	3.05361	2.05776	1.65658	1.6338	80.71	-0.2177	0.0885	0.3062	892.2708	0.176451	-365.981318	-365.975197	-365.974252	-366.011519	26.772	
C	 0.0099899844	 1.6412228888	 0.1019916767	-0.214633
C	 1.5450473297	 1.3329645166	 0.007109104	-0.069163
C	 1.7159947066	 0.5330039124	 1.3026157659	-0.051158
C	 1.8219240894	-0.9517981517	 1.2432891539	-0.008869
C	 2.2886620746	-1.7333198081	 0.0361814216	-0.234835
C	 2.089744181	-0.9331407803	-1.2617832747	-0.256894
C	 1.1445188434	 0.2319868297	-1.0179310025	 0.014146
C	-0.0657503453	 0.0949841526	-0.042794	-0.015215
N	 0.4839877569	-0.3209712514	 1.2915332496	-0.132601
H	-0.3682601467	 2.0616115199	 1.036661117	 0.101007
H	-0.3784376173	 2.1853998767	-0.7620856464	 0.09309
H	 2.288879787	 2.0960036172	-0.2238140376	 0.060715
H	 1.9394767024	 1.0678234305	 2.2224809949	 0.086318
H	 2.0459383402	-1.4383224073	 2.1917991733	 0.085022
H	 3.3372847214	-2.0180563764	 0.1734035781	 0.103296
H	 1.7199139177	-2.67110448	 0.0049030548	 0.106539
H	 3.0464515853	-0.5359988176	-1.622638807	 0.099192
H	 1.7036064522	-1.5769295775	-2.0589869201	 0.098253
H	 0.8252166341	 0.6934253889	-1.9552808011	 0.069683
H	-0.981427107	-0.436895113	-0.3006923503	 0.066108
135.1731	308.0063	424.2133	478.8984	497.9085	583.5665	673.254	734.0778	736.2479	752.5552	788.4535	841.9623	854.089	887.6576	898.3941	909.3643	967.798	996.0541	1003.5328	1033.2372	1044.4345	1053.4369	1070.5759	1104.2056	1114.7985	1128.988	1144.6603	1167.1023	1222.6488	1231.8661	1245.2035	1257.3373	1277.4015	1289.3229	1297.7756	1327.1601	1350.7973	1376.765	1403.4928	1435.3692	1483.0947	1495.3062	1501.9466	3022.0425	3027.5165	3057.041	3062.162	3073.4771	3079.933	3109.7188	3110.9983	3117.3675	3128.9899	3135.7893
C1C2C3C4CCC2C1N34	C1[C@H]2[C@@H]3[C@@H]4CC[C@H]2[C@H]1N34	
InChI=1S/C8H11N/c1-2-6-8-5-3-7(4(1)5)9(6)8/h4-8H,1-3H2	InChI=1S/C8H11N/c1-2-6-8-5-3-7(4(1)5)9(6)8/h4-8H,1-3H2/t4-,5-,6+,7+,8-,9?/m1/s1
