22
gdb 22259	2.44504	1.03916	0.87081	1.7541	81.88	-0.2344	0.0182	0.2526	1445.6073	0.190207	-441.451893	-441.440496	-441.439551	-441.488999	41.161	
C	 0.0581471508	 1.5141281786	-0.0883852464	-0.420555
C	-0.0154455717	-0.0133065406	-0.0945602994	 0.152243
O	 0.8547084568	-0.5512925865	 0.902626381	-0.434338
C	-1.4566587356	-0.5728829261	 0.0542758326	-0.071117
C	-2.4116641163	-0.003171474	-1.0069087399	-0.40002
C	-1.4260452166	-2.0972064236	 0.0446209579	 0.367729
C	-1.2648015689	-2.8295364135	 1.347561841	-0.498027
N	-1.5184086384	-2.645373397	-1.1055572733	-0.176798
O	-1.4387832642	-4.0472115448	-1.0588946906	-0.397654
H	 1.1064580565	 1.8251370651	-0.0995694391	 0.125901
H	-0.4394869791	 1.9548719173	-0.9553804585	 0.126663
H	-0.4121623756	 1.9262594418	 0.8143463314	 0.105519
H	 0.3865297785	-0.3932692914	-1.0410205463	 0.103218
H	 0.6360618231	-0.1255269139	 1.7392885982	 0.274871
H	-1.8164522263	-0.2622898871	 1.0467256962	 0.061229
H	-3.3942478302	-0.4751745262	-0.9272265985	 0.118488
H	-2.5420354656	 1.0748556764	-0.8831802093	 0.107316
H	-2.0382837765	-0.1987482792	-2.0152011566	 0.134058
H	-1.97032959	-2.4399631784	 2.0900637362	 0.117898
H	-1.4242639711	-3.899762994	 1.2263342513	 0.149291
H	-0.2555035255	-2.6549141736	 1.7332035264	 0.151641
H	-1.5628838942	-4.2822864494	-1.9839615644	 0.302445
32.0568	61.0734	90.1221	165.8919	202.3867	222.0865	241.0227	282.9201	313.03	326.885	344.5894	367.6466	387.5797	428.6502	462.9819	502.7488	573.238	660.0818	786.6076	834.9435	923.1799	955.9128	980.0656	999.5601	1044.7789	1054.8904	1075.0645	1115.6696	1130.029	1160.7923	1219.5777	1266.078	1321.6631	1357.2482	1370.4586	1388.0729	1392.7424	1401.6104	1410.8852	1422.664	1482.7887	1488.8766	1490.8991	1493.602	1498.9743	1505.2709	1731.2658	2992.7576	3022.7141	3041.4728	3050.7544	3052.1352	3100.325	3100.5024	3118.8198	3126.3732	3130.4468	3165.7277	3795.4016	3824.7347
CC(O)C(C)C(C)=NO	C[C@@H](O)[C@@H](C)C(=NO)C	
InChI=1S/C6H13NO2/c1-4(6(3)8)5(2)7-9/h4,6,8-9H,1-3H3	InChI=1S/C6H13NO2/c1-4(6(3)8)5(2)7-9/h4,6,8-9H,1-3H3/t4-,6+/m0/s1
