20
gdb 10759	3.59465	1.35191	1.27914	2.477	70.32	-0.255	0.0664	0.3214	1058.5483	0.175486	-386.124409	-386.115242	-386.114298	-386.157769	34.803	
C	 0.0933833033	 1.5331862916	 0.289324695	-0.441213
C	-0.0200043473	 0.0281321255	 0.027576483	 0.298146
O	 0.3564567182	-0.6937816966	 1.2175679763	-0.479649
C	-1.4938945109	-0.3769007782	-0.1666414522	-0.046898
O	-2.2714974613	-0.1039972531	 0.9805723272	-0.430956
C	 0.8076436201	-0.4885460943	-1.1394578643	-0.000359
C	 0.9444952323	 0.2324664753	-2.4569526055	-0.273534
C	 2.138187935	 0.1026163954	-1.5453514128	-0.295456
H	 1.1020761631	 1.8049090514	 0.6176599707	 0.103383
H	-0.1431998155	 2.12270894	-0.6013462683	 0.118626
H	-0.6136877322	 1.8073129058	 1.0744124606	 0.138423
H	 1.2697720833	-0.4695748126	 1.4229770956	 0.280059
H	-1.9284441008	 0.1880386004	-0.9967127561	 0.106526
H	-1.5294268249	-1.4462726948	-0.4278206148	 0.084374
H	-1.7767937882	-0.4809836587	 1.7189690631	 0.28974
H	 0.7497096795	-1.5715457523	-1.2097019283	 0.090464
H	 0.9167836326	-0.3602659654	-3.3644988253	 0.114681
H	 0.4973846294	 1.2148059664	-2.5598506099	 0.116172
H	 2.4843984761	 1.0012778412	-1.046976707	 0.113147
H	 2.9326685384	-0.5801562571	-1.8255245771	 0.114325
62.5544	140.7717	180.0662	243.2537	254.8552	271.0748	307.0002	342.6648	381.5296	428.4242	472.7151	487.3132	570.5691	737.536	790.7734	833.4171	868.9621	917.4374	928.8082	956.3083	969.9531	1057.1682	1059.2083	1076.6574	1084.6791	1126.3529	1142.2796	1149.6322	1199.9551	1217.8231	1236.3237	1270.6281	1348.2678	1380.5681	1397.464	1418.1188	1437.5312	1467.1409	1489.2916	1500.92	1503.8779	1510.0803	2981.0606	3041.1767	3087.3941	3106.9475	3135.0764	3137.0771	3138.0933	3142.9818	3211.482	3226.2315	3783.0955	3819.0057
CC(O)(CO)C1CC1	C[C@@](O)(CO)C1CC1	
InChI=1S/C6H12O2/c1-6(8,4-7)5-2-3-5/h5,7-8H,2-4H2,1H3	InChI=1S/C6H12O2/c1-6(8,4-7)5-2-3-5/h5,7-8H,2-4H2,1H3/t6-/m1/s1
