17
gdb 63604	4.47196	0.6649	0.63834	5.3682	84.9	-0.2598	-0.0566	0.2032	1730.8801	0.13231	-421.792559	-421.782676	-421.781732	-421.828196	34.811	
C	-0.0528407911	 1.5645957051	-0.1498915973	-0.449968
C	 0.0003292598	 0.0608712458	-0.0301600286	 0.408696
O	-1.174248308	-0.6014948889	-0.411022388	-0.458718
C	 1.2864863225	-0.6832439942	-0.212322963	-0.339734
C	 0.6416869955	-0.6063279769	 1.1824261467	-0.253784
C	 1.2539295994	 0.1564481182	 2.2164537741	 0.118979
C	 1.7691158033	 0.7898651566	 3.1108131998	 0.036477
C	 2.3931568479	 1.5687709448	 4.1423325722	 0.014523
O	 2.4129414949	 1.2738651071	 5.3169465093	-0.235717
H	 0.8518040725	 2.027970987	 0.2500516813	 0.131982
H	-0.149353397	 1.8590863706	-1.2015980043	 0.114327
H	-0.9158105765	 1.9562877645	 0.3962345065	 0.138746
H	-1.2767298857	-0.4995989007	-1.3643311887	 0.287048
H	 1.2454564845	-1.6533261431	-0.6936123586	 0.128888
H	 2.2002317454	-0.1199514196	-0.362184162	 0.130191
H	 0.1276162197	-1.5080817968	 1.4992572952	 0.13644
H	 2.8763995729	 2.4978858204	 3.7742802954	 0.091624
48.7269	77.9322	98.0019	173.2546	207.0599	231.0201	264.0746	296.5583	362.4067	384.1717	441.81	496.7232	565.9323	614.0645	707.2769	789.3401	850.066	913.066	940.9136	960.378	1015.6342	1019.2234	1063.6803	1084.9957	1093.9626	1208.9303	1240.9596	1301.4052	1345.8899	1397.6549	1418.7449	1423.7932	1470.2893	1483.7336	1501.8703	1760.3692	2310.5975	2905.7625	3034.2299	3101.9489	3132.3388	3142.3617	3165.1605	3239.8066	3791.0584
CC1(O)CC1C#CC=O	C[C@@]1(O)C[C@H]1C#CC=O	
InChI=1S/C7H8O2/c1-7(9)5-6(7)3-2-4-8/h4,6,9H,5H2,1H3	InChI=1S/C7H8O2/c1-7(9)5-6(7)3-2-4-8/h4,6,9H,5H2,1H3/t6-,7-/m1/s1
