18
gdb 37987	3.03371	1.80338	1.35396	1.2923	71.62	-0.2453	0.0777	0.323	954.2891	0.150848	-438.998505	-438.99189	-438.990946	-439.029382	27.228	
C	-0.0145475659	 1.4154286128	 0.0077105518	-0.088674
C	 1.3621031409	 2.0582290323	 0.0259007008	-0.08838
O	 2.0061361914	 1.954367074	 1.2810014197	-0.264797
C	 2.2070620133	 0.6884676113	 1.8192700165	 0.178342
C	 2.3485519879	-0.625979312	 0.9871956143	-0.147405
N	 2.1681134379	-1.3147878214	 2.3271510588	-0.315097
C	 1.0606292727	-0.2776360984	 2.2882083744	-0.146677
C	 0.7875183754	-0.7073405161	 0.8092442203	 0.136618
O	 0.0349445094	 0.0073578649	-0.1244348591	-0.265636
H	-0.5586900413	 1.7053567252	 0.9199628851	 0.104521
H	-0.5825935505	 1.7713571104	-0.8576650008	 0.112117
H	 1.9786115626	 1.6119747211	-0.7698706252	 0.104442
H	 1.2757297028	 3.1318470022	-0.1693913248	 0.112608
H	 2.9808939588	 0.7938107364	 2.5799532648	 0.106071
H	 3.1387548305	-0.9248895286	 0.2967050107	 0.082892
H	 1.7609160689	-2.2417470797	 2.1716813925	 0.216178
H	 0.3643115538	-0.1590257078	 3.1197093403	 0.082689
H	 0.4387725313	-1.7417266265	 0.7180891099	 0.080188
126.4522	244.008	354.3438	384.5724	388.1234	448.6741	530.3914	592.8898	643.6448	745.1983	843.7207	852.5985	855.6758	877.922	916.8425	952.2214	991.8448	1027.4157	1044.4996	1059.4821	1106.12	1111.3133	1133.0256	1136.7972	1161.7619	1178.2138	1217.8494	1250.6348	1258.2358	1271.037	1291.0789	1308.6231	1331.1057	1386.6913	1410.3099	1418.3486	1451.6931	1488.6362	1489.7495	2987.3334	2997.6232	3053.8737	3078.9633	3086.046	3103.2719	3106.0311	3121.9827	3397.8794
C1COC2C3NC2C3O1	C1CO[C@@H]2[C@H]3N[C@@H]2[C@H]3O1	
InChI=1S/C6H9NO2/c1-2-9-6-3-5(8-1)4(6)7-3/h3-7H,1-2H2	InChI=1S/C6H9NO2/c1-2-9-6-3-5(8-1)4(6)7-3/h3-7H,1-2H2/t3-,4+,5-,6+
