17
gdb 75725	2.20699	1.7192	1.31692	1.8992	68.16	-0.2447	-0.0333	0.2114	1016.1829	0.134019	-458.944061	-458.935415	-458.934471	-458.977256	32.382	
O	 0.5199948079	 0.8979077424	-0.8265303828	-0.439092
C	 0.085611743	-0.2452810082	-0.1480235218	-0.028248
C	 0.1565215831	-0.2676597127	 1.3779120361	 0.360447
O	 0.9374571513	 0.2345653482	 2.1404538841	-0.321619
C	-1.2408901577	-0.8748550742	 1.5160458723	-0.219734
C	-2.2677194276	 0.2604743654	 1.8240123218	-0.215706
C	-2.3586773378	 0.6048251669	 0.3076311363	-0.29614
C	-1.434972599	-0.59948417	-0.0243319084	 0.37556
O	-1.9229901958	-1.6109037296	-0.8487670462	-0.482102
H	 1.046304986	 1.4145173939	-0.2036471875	 0.300124
H	 0.5664716014	-1.1584860205	-0.5400259905	 0.110314
H	-1.3598402878	-1.8438938653	 1.9987087704	 0.105291
H	-3.2020985839	-0.1387620127	 2.2219997162	 0.118142
H	-1.9067565858	 1.0435068534	 2.4939569818	 0.121334
H	-3.3601886842	 0.4906067941	-0.1106351351	 0.110237
H	-1.9512302922	 1.5729768818	 0.0077468163	 0.114608
H	-2.0255113209	-1.2545685928	-1.7388541529	 0.286583
73.2937	166.959	189.8532	210.4772	241.98	247.8526	301.4972	378.7313	471.4383	534.8819	596.6244	616.6871	651.3736	759.3013	813.4904	874.2157	883.3506	932.5951	952.8696	1012.8092	1026.4781	1061.5269	1108.9869	1123.4477	1144.8298	1209.7624	1210.247	1228.2976	1256.5736	1263.7739	1288.444	1337.5955	1365.2529	1385.6509	1473.6977	1493.3019	1869.9823	2965.3659	3070.8804	3075.5149	3119.1244	3129.1752	3137.8101	3778.6473	3792.9962
OC1C(=O)C2CCC12O	O[C@H]1C(=O)[C@H]2CC[C@@]12O	
InChI=1S/C6H8O3/c7-4-3-1-2-6(3,9)5(4)8/h3,5,8-9H,1-2H2	InChI=1S/C6H8O3/c7-4-3-1-2-6(3,9)5(4)8/h3,5,8-9H,1-2H2/t3-,5+,6+/m1/s1
