15
gdb 30324	3.09416	1.65948	1.17517	2.5914	66.72	-0.2119	-0.0071	0.2048	998.7341	0.115734	-453.944075	-453.93694	-453.935996	-453.976078	26.834	
N	-0.1811428832	 1.5405215739	-0.0980187178	-0.502367
C	 0.0740315026	 0.0977775658	-0.0032902265	-0.167786
C	-1.2788220326	-0.7280447032	-0.0340061832	-0.090413
O	-1.3907552351	-1.4781758408	-1.288030515	-0.277285
C	-0.1600570915	-1.3697472099	-1.8289353958	 0.358535
C	 0.7094315505	-0.588018272	-1.167193566	 0.187437
O	 1.8706212259	-0.5614061154	-1.8965739422	-0.192516
C	 1.5849438958	-1.3718681587	-2.9527509666	 0.047647
N	 0.3859307105	-1.885799154	-2.9744070741	-0.348562
H	 0.6862646025	 2.0516048343	 0.039626494	 0.234579
H	-0.4979077521	 1.7690770841	-1.0375843918	 0.229951
H	 0.5782121999	-0.0685829037	 0.954158836	 0.10223
H	-1.3084296512	-1.4556066189	 0.7808950561	 0.129072
H	-2.1362791527	-0.0570674015	 0.0372550982	 0.136048
H	 2.3782214107	-1.5221669299	-3.6677209252	 0.15343
73.5052	138.0661	256.5483	295.3934	332.6473	429.9109	504.8415	628.0871	643.3575	713.5883	750.283	765.6332	807.1078	864.7134	891.8324	946.9308	964.1719	1004.9247	1095.607	1098.132	1133.129	1203.3695	1240.7915	1245.8941	1279.6545	1331.1501	1355.822	1414.7311	1449.9808	1496.7245	1517.8107	1659.2016	1688.5875	3049.8492	3072.2364	3136.8943	3279.8224	3478.8788	3561.4451
NC1COC2=C1OC=N2	N[C@H]1COc2c1ocn2	
InChI=1S/C5H6N2O2/c6-3-1-8-5-4(3)9-2-7-5/h2-3H,1,6H2	InChI=1S/C5H6N2O2/c6-3-1-8-5-4(3)9-2-7-5/h2-3H,1,6H2/t3-/m0/s1
