12
gdb 18418	3.41187	2.04685	1.68117	4.7759	58.76	-0.273	-0.0407	0.2323	766.0771	0.083876	-377.504568	-377.498055	-377.497111	-377.535461	23.837	
O	 0.0343222123	 0.0110822823	 0.0093184211	-0.262485
C	-0.0210483521	 1.1924150087	 0.068464311	 0.415218
C	-1.1260592737	 2.2598438835	 0.1544522655	-0.387051
C	 0.0199226426	 3.2628410032	 0.0520209828	-0.026464
C	 1.0369524972	 3.0593272996	 1.1059204565	-0.167782
C	 0.695864159	 2.5541971409	 2.4147929239	 0.314872
N	 0.4223942457	 2.1699880411	 3.4703828053	-0.321859
N	 1.0734472431	 2.168518211	-0.102017283	-0.18322
H	-1.7707958312	 2.2349750313	-0.7270972191	 0.157285
H	-1.7383307622	 2.2747291179	 1.0581907251	 0.165391
H	 0.0456867272	 4.1343441358	-0.5898928107	 0.134329
H	 1.8857035019	 3.7366675146	 1.1113617817	 0.161767
99.3494	153.4328	236.2908	368.1567	469.7944	500.9652	567.9836	610.446	664.9527	740.8726	813.1933	857.2815	919.404	966.3403	996.9634	1016.7101	1059.0519	1099.9125	1151.898	1222.4426	1235.5338	1331.7273	1388.0341	1452.8872	1943.3836	2357.68	3082.0363	3139.4378	3165.8323	3205.1439
O=C1CC2C(C#N)N12	O=C1C[C@H]2[C@@H](C#N)N12	
InChI=1S/C5H4N2O/c6-2-4-3-1-5(8)7(3)4/h3-4H,1H2	InChI=1S/C5H4N2O/c6-2-4-3-1-5(8)7(3)4/h3-4H,1H2/t3-,4+,7?/m0/s1
