19
gdb 71329	3.05532	1.53948	1.20884	2.3386	80.69	-0.2454	-0.0245	0.2208	1061.165	0.158228	-385.827499	-385.819466	-385.818522	-385.860045	30.962	
C	 0.2784503212	 1.5021428641	 0.0399237812	-0.527929
C	 0.1751362842	 0.0008449053	 0.0049405676	 0.356327
C	 0.6840493781	-0.9268955157	-1.1234184474	-0.304698
C	 0.0749174817	-1.8919502227	-0.0977254979	-0.044873
C	 0.5825572127	-1.0458135685	 1.119820813	-0.086094
C	-0.8114288001	-1.0692522992	 1.7747224159	-0.106579
C	-1.2532923761	-0.0060766978	 2.7353655536	 0.127946
O	-0.5714412477	 0.906358319	 3.1360637777	-0.251131
C	-1.0919629878	-0.909721352	 0.2481607355	-0.106143
H	 1.3266003956	 1.8099308123	-0.0479774783	 0.119468
H	-0.2656896663	 1.9437798123	-0.8029887922	 0.112769
H	-0.1143330294	 1.9197343469	 0.9682611414	 0.149798
H	 0.1775201883	-0.84663211	-2.0914785279	 0.089904
H	 1.7695557592	-0.975586731	-1.261540694	 0.092219
H	-0.0054605254	-2.9796129128	-0.1222635223	 0.071686
H	 1.5578920991	-1.1244022408	 1.6007817064	 0.079082
H	-1.137236311	-2.0457864956	 2.1613208329	 0.081056
H	-2.3073378922	-0.1185025944	 3.0850457585	 0.07236
H	-2.0555762742	-0.8406768296	-0.2597611936	 0.074833
87.7353	145.3506	187.812	206.9094	280.0335	311.2228	400.0136	433.6719	621.5045	679.2322	707.7239	772.757	830.1614	852.7761	856.1333	894.403	917.0177	944.3136	985.6102	1007.6548	1015.6464	1027.6718	1054.237	1079.1259	1123.878	1148.2958	1155.4405	1157.3232	1185.5459	1208.3663	1222.8879	1238.5902	1288.2629	1344.227	1382.6919	1412.3774	1426.6392	1487.7182	1496.2484	1510.8841	1815.1923	2847.1678	3008.757	3029.8564	3032.5808	3085.5992	3088.2552	3095.5706	3104.5723	3116.2034	3142.1652
CC12CC3C1C(C=O)C23	C[C@@]12C[C@H]3[C@@H]1[C@@H](C=O)[C@@H]23	
InChI=1S/C8H10O/c1-8-2-4-6(8)5(3-9)7(4)8/h3-7H,2H2,1H3	InChI=1S/C8H10O/c1-8-2-4-6(8)5(3-9)7(4)8/h3-7H,2H2,1H3/t4-,5+,6+,7-,8+
