17
gdb 75876	2.23437	1.96961	1.06044	3.9191	77.98	-0.2439	-0.0483	0.1956	1089.5505	0.137762	-418.068722	-418.060528	-418.059584	-418.102167	30.334	
C	-0.0325278654	 1.4157777497	 0.2340211104	-0.33708
N	-0.0082759525	-0.0342622484	 0.0337388597	-0.172104
C	-1.2374783645	-0.6841299018	-0.0630147745	 0.366036
N	-2.2998259061	 0.0186801073	 0.0285843392	-0.511879
C	-1.2339953382	-2.1912237254	-0.272594572	-0.385826
C	 0.1092690187	-2.8376990157	-0.3509568607	-0.068191
C	 1.2308796194	-2.1314608376	-0.2455466895	-0.148574
C	 1.2360662108	-0.668187053	-0.0453854674	 0.427277
O	 2.2782243477	-0.0469966538	 0.0483425458	-0.371683
H	 0.9987277089	 1.755485487	 0.2857941914	 0.160349
H	-0.5606062326	 1.8961524848	-0.5925951598	 0.142575
H	-0.5687008519	 1.6548545947	 1.1550701942	 0.142565
H	-3.1252654546	-0.5726506942	-0.0581446502	 0.215949
H	-1.8176336965	-2.6467204584	 0.5389333864	 0.150083
H	-1.8025124174	-2.4065985482	-1.1875819783	 0.150222
H	 0.1371153752	-3.9138818648	-0.4984843111	 0.11625
H	 2.2176439591	-2.5747498222	-0.2988091238	 0.124031
44.4158	105.3712	155.6594	222.7125	334.9774	369.7532	401.5628	494.2512	502.7657	564.7627	568.5043	664.1717	671.6687	819.3795	828.0237	852.7501	943.2442	969.3408	990.2397	1021.0351	1084.8709	1128.0537	1159.4817	1183.8072	1222.4459	1237.3503	1350.4989	1353.0882	1410.1197	1414.7283	1444.5413	1468.1166	1490.8521	1506.813	1680.4426	1722.3779	1772.4144	3017.5385	3040.1583	3065.771	3125.7711	3167.5899	3192.4106	3217.7322	3488.8624
CN1C(=N)CC=CC1=O	CN1[C]([NH])CC=CC1=O	
InChI=1S/C6H8N2O/c1-8-5(7)3-2-4-6(8)9/h2,4,7H,3H2,1H3	InChI=1S/C6H8N2O/c1-8-5(7)3-2-4-6(8)9/h2,4,7H,3H2,1H3
