17
gdb 36607	5.53407	0.81774	0.80437	3.0252	74.56	-0.2607	0.0059	0.2666	1415.7997	0.136306	-417.923916	-417.915865	-417.914921	-417.957879	29.431	
N	 0.0345161675	-1.1257160556	 0.0124252954	-0.289958
C	 0.0304308545	 0.0286003254	 0.0029032696	 0.264944
C	-0.0168713031	 1.4922508784	-0.0101545432	-0.22468
O	 1.3023380578	 1.9962257155	 0.0152228872	-0.283864
C	 1.3676495936	 3.38408714	 0.0045045317	 0.395049
C	 0.8521238416	 4.4235448299	 1.0337983134	-0.237612
N	 1.5890175565	 5.2799177798	-0.0071589093	-0.131424
C	 2.6717243127	 4.1827196476	 0.0269222042	-0.22366
C	 0.8994835761	 4.4050993851	-1.0650889498	-0.237613
H	-0.5555505101	 1.8187402194	-0.912398181	 0.148433
H	-0.5952368487	 1.8332880041	 0.8616284877	 0.148438
H	-0.2190093144	 4.6341146038	 1.0825857944	 0.106661
H	 1.3165721523	 4.4428377029	 2.0221922861	 0.114676
H	 3.2610029549	 4.180049447	 0.9461875401	 0.114632
H	 3.3018735156	 4.1641410343	-0.8646331575	 0.114633
H	 1.4080385405	 4.4072091894	-2.0317189291	 0.114681
H	-0.1682731473	 4.6143695131	-1.16582627	 0.106663
40.1571	74.5296	113.9927	225.5198	360.9799	389.1218	389.5902	494.2097	592.3965	593.1733	690.6601	787.2247	792.9754	891.3076	942.4788	951.87	966.232	998.911	1022.5308	1034.4199	1034.7896	1081.4283	1154.9841	1170.9319	1175.1422	1191.5355	1192.5028	1202.5844	1245.2573	1252.7129	1300.251	1410.7014	1494.7128	1508.035	1511.2734	1565.9873	2374.8802	2991.7766	3022.2136	3058.2831	3062.2403	3071.7156	3130.0001	3134.2541	3141.0061
N#CCOC12CN(C1)C2	N#CCO[C@@]12CN(C1)C2	
InChI=1S/C6H8N2O/c7-1-2-9-6-3-8(4-6)5-6/h2-5H2	InChI=1S/C6H8N2O/c7-1-2-9-6-3-8(4-6)5-6/h2-5H2
