18
gdb 46261	2.96125	1.5168	1.25248	2.6773	76.16	-0.2308	-0.0253	0.2055	1045.311	0.148003	-401.908043	-401.900338	-401.899394	-401.940394	30.06	
O	-0.0147801523	 0.0409344055	-0.3536438525	-0.299464
C	-0.0359942965	 1.2082846755	-0.0960696734	 0.337845
C	-1.1157962092	 2.2248172137	 0.3111242639	-0.286552
N	-0.0184743806	 3.1976544803	 0.5708520099	-0.384032
C	 1.0188850041	 2.3192445159	-0.0300892667	 0.244627
C	 2.3998843273	 2.2023321426	 0.686449039	-0.295065
C	 3.1022321231	 2.6162632716	-0.6141103753	-0.039895
C	 2.7275897408	 1.6746611128	-1.7212654348	-0.279212
C	 1.7512983786	 2.7497017021	-1.3160215177	-0.128858
H	-1.7933904801	 2.4699575675	-0.5180721692	 0.123382
H	-1.715070257	 1.9718826669	 1.1921673435	 0.132963
H	-0.1300261158	 4.0846978198	 0.0925448218	 0.222017
H	 2.451538925	 2.9594613133	 1.4716507548	 0.119945
H	 2.6651095785	 1.2246845323	 1.1013711873	 0.107845
H	 3.9672854706	 3.2640337806	-0.6814355564	 0.08952
H	 3.2241271152	 1.8463096954	-2.6710217314	 0.113927
H	 2.5014535501	 0.6328425595	-1.5125977683	 0.135305
H	 1.387979548	 3.5016222045	-2.0080114743	 0.085705
95.5373	115.1476	153.2863	311.3456	326.6397	404.1398	446.0868	534.7702	590.093	672.7522	733.3593	753.2193	791.2397	841.2351	872.8706	923.9222	948.861	962.6653	974.4036	996.3944	1026.6805	1044.5213	1056.374	1084.1544	1097.7874	1119.1692	1151.2619	1170.7963	1181.5059	1233.1903	1245.1776	1276.1824	1290.3224	1348.5101	1365.0248	1470.1948	1475.3545	1494.4028	1903.0101	3014.8209	3050.9638	3072.8299	3119.8754	3121.862	3168.1531	3188.4269	3209.8307	3537.4153
O=C1CNC11CC2CC12	O=C1CN[C@]21C[C@H]1C[C@@H]21	
InChI=1S/C7H9NO/c9-6-3-8-7(6)2-4-1-5(4)7/h4-5,8H,1-3H2	InChI=1S/C7H9NO/c9-6-3-8-7(6)2-4-1-5(4)7/h4-5,8H,1-3H2/t4-,5-,7-/m1/s1
