14
gdb 7421	2.99577	1.86152	1.26058	2.4019	54.24	-0.2668	-0.0063	0.2605	912.844	0.108264	-453.070322	-453.062631	-453.061687	-453.102617	28.32	
N	-0.0687251221	 1.2845618898	 0.295811462	-0.513339
C	 0.1040658648	 0.0076879827	-0.1090479773	 0.40504
O	 1.1518707496	-0.4698907506	-0.5050879171	-0.365116
C	-1.1868758828	-0.8531700783	-0.0922653459	-0.238402
N	-0.8708862083	-2.2388506464	-0.4211855895	-0.53634
H	 0.1341429116	-2.2844353677	-0.5962291903	 0.264869
H	-1.6302181682	-2.5896920326	 1.2043336103	 0.314693
H	-1.348191542	-2.5423436441	-1.2609860213	 0.251542
C	-1.8903975866	-0.7769567886	 1.2847111395	 0.434447
O	-2.2588716265	 0.2650226196	 1.7751073538	-0.358745
O	-2.0449837645	-1.9620787378	 1.8530548554	-0.349667
H	 0.7571756765	 1.851332244	 0.4086598673	 0.266058
H	-0.9004416918	 1.5032509116	 0.8322557588	 0.286271
H	-1.8828995897	-0.3988994817	-0.8063775857	 0.138687
80.496	98.1105	236.2228	309.606	340.0715	359.8199	421.4507	482.5601	524.718	590.3689	618.4747	645.8709	693.7632	753.4917	881.2	890.311	949.671	995.2731	1118.4883	1144.536	1180.683	1247.6692	1259.8102	1337.919	1390.7115	1463.1933	1621.622	1648.6684	1802.956	1841.0183	3055.5602	3301.4951	3450.1694	3518.191	3587.6137	3680.7388
NC(=O)C([NH3+])C([O-])=O	NC(=O)[C@@H](N)C(=O)O	
InChI=1S/C3H6N2O3/c4-1(2(5)6)3(7)8/h1H,4H2,(H2,5,6)(H,7,8)	InChI=1S/C3H6N2O3/c4-1(2(5)6)3(7)8/h1H,4H2,(H2,5,6)(H,7,8)/t1-/m1/s1
