22
gdb 117755	2.44479	0.9514	0.83969	3.1386	82.42	-0.2723	0.0408	0.313	1506.5356	0.191767	-404.367968	-404.356729	-404.355785	-404.40454	39.908	
C	 0.1613507761	 1.5151367922	 0.0853881628	-0.411606
C	-0.0418844192	 0.0009090618	-0.0067998573	-0.18644
C	-1.5198257687	-0.4887427465	-0.0364297419	 0.067554
C	-2.2636680681	 0.0716950152	-1.2706137685	-0.412904
C	-1.5139324058	-2.0403974725	-0.0391489745	-0.185647
C	-2.8771255123	-2.7197251251	 0.0524959643	-0.104787
O	-2.6290315512	-4.1177353752	 0.0860017032	-0.419113
C	-2.1966781082	-0.012132272	 1.1831859494	 0.289911
N	-2.724802191	 0.3644922001	 2.140679449	-0.361953
H	 1.2273700733	 1.7439480588	 0.1741138462	 0.121641
H	-0.2111647932	 2.0378429615	-0.8002948668	 0.121106
H	-0.34383336	 1.9308029766	 0.9625424082	 0.144326
H	 0.4402306054	-0.3878647301	-0.9118567478	 0.104187
H	 0.4545697011	-0.4821140915	 0.8420732591	 0.114829
H	-1.7682807806	-0.2788108985	-2.1816192071	 0.123144
H	-3.3047282544	-0.2566908053	-1.2960538736	 0.135093
H	-2.2617698328	 1.1634255881	-1.2740570991	 0.136744
H	-1.0144853509	-2.3739682193	-0.9559045899	 0.111316
H	-0.9089328011	-2.3978371746	 0.8007135513	 0.1216
H	-3.4016424474	-2.3829644704	 0.9589147914	 0.113313
H	-3.5043776057	-2.4538560028	-0.8118087038	 0.088357
H	-3.4703905255	-4.5687625404	 0.2009152654	 0.289328
65.7606	88.0346	93.4502	136.4907	158.5366	201.2368	216.1559	253.6542	269.7124	304.2387	333.4681	369.3202	380.6268	457.6157	582.6333	630.9646	708.1402	787.4977	798.9096	886.1641	935.0386	983.8461	1011.4003	1026.633	1072.4021	1081.1098	1094.0311	1167.8	1190.4274	1210.117	1256.5787	1259.9902	1309.3047	1341.157	1349.1935	1369.0663	1412.6247	1416.951	1465.5791	1474.0418	1487.6766	1492.0774	1497.7301	1506.7893	1513.9026	1530.8817	2345.8845	2980.8976	3014.3824	3030.6864	3042.6465	3044.0255	3050.3048	3071.0076	3091.0865	3111.9537	3117.7685	3125.2482	3137.8083	3833.2438
CCC(C)(CCO)C#N	CC[C@@](C)(CCO)C#N	
InChI=1S/C7H13NO/c1-3-7(2,6-8)4-5-9/h9H,3-5H2,1-2H3	InChI=1S/C7H13NO/c1-3-7(2,6-8)4-5-9/h9H,3-5H2,1-2H3/t7-/m0/s1
