17
gdb 34866	2.68151	1.57399	1.45306	3.1157	70.57	-0.2322	0.0126	0.2448	967.5553	0.139549	-417.991389	-417.984217	-417.983273	-418.023023	28.036	
N	-0.1250951802	-1.2302004644	-0.1573779143	-0.33977
C	-0.073802174	-0.0773898774	-0.0803485962	 0.280268
C	-0.0058437065	 1.3686604337	 0.0200410086	-0.157599
C	-0.1058895048	 2.0828100085	 1.3984397514	 0.064213
C	 0.6445436567	 1.2976569627	 2.4939622105	-0.202072
N	 2.0950214133	 1.3193958308	 2.2473232295	-0.274729
C	 2.4266233923	 1.3305614585	 0.8137598344	-0.202072
C	 1.3618271232	 2.1099087253	 0.0146271527	 0.064213
O	 0.7826482499	 3.1169560775	 0.8905775616	-0.292049
H	-0.6910501662	 1.824122467	-0.6977910215	 0.13559
H	-1.0800506495	 2.4703734655	 1.7032887077	 0.097715
H	 0.4569461331	 1.7421936528	 3.4750583963	 0.114663
H	 0.2745613393	 0.2651281064	 2.5270071135	 0.134595
H	 2.437155874	 2.1936542178	 2.6273245942	 0.23006
H	 3.4081511661	 1.7966848328	 0.6925662049	 0.114663
H	 2.5014703491	 0.3062456041	 0.4274054999	 0.134595
H	 1.7156109143	 2.5219912584	-0.9325545432	 0.097715
117.7492	150.4309	211.5427	312.618	375.2639	448.7905	517.229	548.1436	626.5223	634.2054	762.533	818.3956	822.3187	847.2869	899.1681	910.6643	964.8127	1012.8378	1020.7961	1034.8701	1077.3405	1093.2534	1128.5089	1160.5019	1210.5847	1260.1997	1272.0435	1309.8453	1311.3816	1342.7854	1346.2121	1365.2751	1397.2654	1491.4623	1497.8846	1517.0682	2351.478	3032.2146	3035.2853	3086.796	3088.9295	3094.5295	3098.6079	3103.3721	3546.0433
N#CC1C2CNCC1O2	N#C[C@H]1[C@H]2CNC[C@@H]1O2	
InChI=1S/C6H8N2O/c7-1-4-5-2-8-3-6(4)9-5/h4-6,8H,2-3H2	InChI=1S/C6H8N2O/c7-1-4-5-2-8-3-6(4)9-5/h4-6,8H,2-3H2/t4-,5+,6-
