25
gdb 63978	2.80319	1.29419	1.16567	0.0759	91.73	-0.2687	0.0771	0.3458	1239.3707	0.230678	-352.37101	-352.36205	-352.361106	-352.404492	36.29	
C	 0.3558584737	 1.4135366462	-0.270605739	-0.447938
C	 0.0203927287	-0.0622410397	-0.0587262122	 0.349953
C	-1.4950779819	-0.2641361123	-0.0911837743	-0.440658
C	 0.8051585744	-1.0270604665	-1.0119705382	-0.297895
C	 1.556728013	-1.640461204	 0.1994284305	 0.021863
C	 3.01624685	-1.2142039589	 0.4517337616	-0.223423
C	 3.0258153926	-0.7866582116	 1.9310894832	-0.188404
C	 1.6869154852	-0.0354596439	 2.1130573303	-0.241054
C	 0.7021374467	-0.7746027667	 1.1787261304	-0.032253
H	 1.4343007454	 1.5967150062	-0.3017928379	 0.112194
H	-0.0581811719	 1.7586661122	-1.225530579	 0.108308
H	-0.0676932113	 2.042926147	 0.5209505583	 0.109826
H	-1.9190126506	 0.0634990124	-1.0479152099	 0.107128
H	-1.7582192348	-1.318678898	 0.0453991488	 0.107052
H	-1.9863651913	 0.3077789019	 0.7053446891	 0.108191
H	 0.1580096897	-1.7340111247	-1.5388823641	 0.08968
H	 1.4418713666	-0.5345668655	-1.7540460336	 0.08763
H	 1.4424429931	-2.7223802331	 0.306532921	 0.059095
H	 3.7393477441	-2.0047451119	 0.2293430296	 0.091295
H	 3.2765832149	-0.3563068204	-0.1811676263	 0.0926
H	 3.0419042671	-1.6775146446	 2.5714828114	 0.094615
H	 3.8971098368	-0.1812713009	 2.2001400012	 0.089675
H	 1.3526006989	-0.0303303731	 3.1546205878	 0.090469
H	 1.8069100985	 1.0118272745	 1.8189510696	 0.097073
H	-0.0327155977	-1.3440696947	 1.7538208418	 0.054977
41.3874	177.1171	232.6824	236.3398	279.8201	300.7958	333.8264	362.864	399.26	468.8138	540.3551	586.0641	675.8655	747.9466	800.4561	834.0452	857.9453	886.2878	899.3271	920.4161	952.7729	961.8048	971.4595	985.0549	1007.5186	1037.8442	1052.9619	1064.3055	1106.6976	1154.0621	1188.141	1198.7597	1214.6397	1232.6165	1243.2777	1272.2153	1281.0259	1291.4713	1307.3473	1330.504	1340.1466	1347.5049	1355.1906	1399.6341	1418.3443	1481.8172	1483.364	1486.2697	1491.6733	1494.1667	1500.4595	1506.9684	1515.9857	3014.4474	3020.6991	3024.6692	3029.3281	3041.409	3049.785	3053.6396	3063.2398	3078.1316	3080.0631	3083.2548	3084.4039	3087.5807	3093.319	3094.1802	3100.3235
CC1(C)CC2CCCC12	CC1(C)C[C@H]2CCC[C@@H]12	
InChI=1S/C9H16/c1-9(2)6-7-4-3-5-8(7)9/h7-8H,3-6H2,1-2H3	InChI=1S/C9H16/c1-9(2)6-7-4-3-5-8(7)9/h7-8H,3-6H2,1-2H3/t7-,8-/m1/s1
