22
gdb 121892	2.58824	1.00203	0.77526	6.2384	79.85	-0.2389	0.0354	0.2743	1529.3305	0.193928	-441.523949	-441.51373	-441.512786	-441.559639	37.034	
C	-0.930319763	 0.5317444467	-0.2724591563	-0.324713
N	-0.0300349759	-0.6187453211	-0.3715728293	-0.28475
H	-0.0270071407	-1.1121434996	 0.5179591609	 0.239511
H	-0.3515685245	-2.0578247804	-1.3158334419	 0.303392
C	 1.353449481	-0.26065081	-0.7126631915	-0.146814
C	 2.2048866685	-1.4832991904	-1.0690338062	-0.229831
C	 1.8254915438	-2.1997073499	-2.3962470876	-0.116831
C	 3.0686774221	-2.7344379361	-3.1144204313	-0.387971
C	 0.8011112111	-3.3360258977	-2.2095135867	 0.400153
O	-0.357886521	-3.0024808715	-1.6317274045	-0.39196
O	 1.0109957856	-4.4647351605	-2.5775110406	-0.332817
H	-0.5724488511	 1.3025834333	 0.4274767654	 0.113122
H	-1.0378581328	 0.9934320587	-1.2585783648	 0.137881
H	-1.9174589427	 0.1953852505	 0.0542177453	 0.136382
H	 1.3109312708	 0.4119663492	-1.5785127613	 0.115036
H	 1.8340619003	 0.3067160004	 0.101106917	 0.095154
H	 3.2397152584	-1.1349932867	-1.1577698386	 0.11152
H	 2.2034184998	-2.1977108333	-0.2351039164	 0.111083
H	 1.3402675761	-1.455962504	-3.0456943118	 0.092147
H	 3.6001877918	-3.454039449	-2.4850271459	 0.127923
H	 2.7940869413	-3.2522328188	-4.034863141	 0.134176
H	 3.7515029209	-1.9139902997	-3.3578066627	 0.098207
58.6916	65.8395	124.4967	190.4208	216.9685	230.5415	265.3108	271.1329	321.2441	325.0498	335.7001	486.7947	531.3543	614.3884	729.2928	782.903	815.326	871.6406	877.5177	967.0939	984.1129	1042.2165	1054.4256	1064.4939	1116.3994	1120.8343	1136.1344	1162.9802	1182.2421	1239.4617	1272.0223	1296.5666	1324.5229	1354.7937	1384.7855	1397.6561	1412.43	1461.2832	1464.6482	1481.4936	1487.934	1489.0985	1494.19	1497.2694	1509.0478	1516.6113	1841.4379	2969.5705	2987.6471	2997.119	3025.3704	3042.778	3049.7836	3071.6254	3081.2097	3111.7971	3123.2122	3138.3146	3162.1112	3492.9993
C[NH2+]CCC(C)C([O-])=O	CNCC[C@@H](C)C(=O)O	
InChI=1S/C6H13NO2/c1-5(6(8)9)3-4-7-2/h5,7H,3-4H2,1-2H3,(H,8,9)	InChI=1S/C6H13NO2/c1-5(6(8)9)3-4-7-2/h5,7H,3-4H2,1-2H3,(H,8,9)/t5-/m1/s1
