16
gdb 6699	7.30086	0.71278	0.67074	5.1854	73.34	-0.2598	-0.0541	0.2056	1617.8706	0.126987	-383.718989	-383.709395	-383.708451	-383.754915	32.101	
C	-0.0714447604	 1.5515804364	 0.0350560286	-0.404603
C	-0.0238952727	 0.0246057228	-0.0158234885	 0.136715
O	 0.6496476963	-0.441322746	-1.1760275803	-0.42491
C	 0.7506395482	-0.5528532975	 1.1815249569	-0.350648
C	 0.7168568487	-2.004431756	 1.2575780624	 0.099918
C	 0.6845454176	-3.2088168686	 1.3444744174	 0.042095
C	 0.628134569	-4.6448158298	 1.3990477014	 0.01894
O	 1.1095287334	-5.3220181056	 2.2792462295	-0.232816
H	 0.9414912346	 1.9665492116	 0.0331937608	 0.129329
H	-0.6022286311	 1.9471194284	-0.8376062973	 0.111739
H	-0.5953904035	 1.9045247212	 0.929326156	 0.120097
H	-1.0503197972	-0.3734425688	 0.0170948576	 0.080626
H	 0.1585672819	-0.144920179	-1.9486391458	 0.286602
H	 1.793934935	-0.2188935579	 1.1093613453	 0.150886
H	 0.348591056	-0.1335082227	 2.1118080188	 0.140447
H	 0.0917069142	-5.1075439386	 0.5450508771	 0.095584
27.7786	63.5589	75.8913	170.7603	189.0767	237.1626	264.8644	304.76	374.9284	402.8944	461.6391	503.8319	612.601	827.8744	851.0922	889.6933	943.8156	1022.8378	1064.415	1111.098	1130.9882	1161.8416	1210.2728	1299.9656	1316.7468	1383.4218	1406.8889	1419.2528	1424.1416	1442.5441	1491.9402	1497.0522	1766.6213	2332.6093	2912.4952	2978.5514	3027.4906	3032.3703	3067.9971	3100.5222	3113.3907	3823.0874
CC(O)CC#CC=O	C[C@@H](O)CC#CC=O	
InChI=1S/C6H8O2/c1-6(8)4-2-3-5-7/h5-6,8H,4H2,1H3	InChI=1S/C6H8O2/c1-6(8)4-2-3-5-7/h5-6,8H,4H2,1H3/t6-/m1/s1
