19
gdb 24605	4.75095	0.98296	0.87054	0.8637	81.15	-0.2176	0.0242	0.2418	1343.2419	0.161383	-385.906575	-385.898831	-385.897887	-385.939832	29.703	
C	-0.2063583737	 1.4109677596	 0.0279210035	-0.212793
C	 1.2873939263	 1.48968874	-0.3865696327	-0.230982
C	 1.562826448	 0.2519237107	 0.5134802401	-0.092721
C	 0.0315392202	-0.0616312275	 0.4533331145	-0.216104
C	 2.5438580763	-0.7864780312	 0.0860662615	 0.242632
C	 3.3084955615	-0.8070215836	-1.0402587204	-0.105869
O	 4.0799702897	-1.9285634676	-1.0908780732	-0.146814
C	 3.8011460713	-2.6436556819	 0.0293509495	 0.008382
C	 2.8767393624	-2.0017410718	 0.786405077	-0.291775
H	-0.4204836682	 2.0514552743	 0.8885195622	 0.101869
H	-0.9573760135	 1.6022085875	-0.7415513577	 0.097312
H	 1.4136559367	 1.2450864824	-1.4457102779	 0.10131
H	 1.8389203921	 2.4077686776	-0.1710056039	 0.097364
H	 1.8067796872	 0.5919050702	 1.5274294187	 0.079678
H	-0.4507234345	-0.4220125838	 1.3652616534	 0.094126
H	-0.1878567151	-0.7579792848	-0.3611061363	 0.104592
H	 3.4266839735	-0.1250008404	-1.865443471	 0.130831
H	 4.3372411089	-3.5722618379	 0.1372659218	 0.133098
H	 2.4709267608	-2.3390468519	 1.7279650709	 0.105865
39.9106	114.2808	145.3417	224.0601	365.4596	408.204	535.7099	620.2205	659.4002	713.2351	735.4989	780.6781	792.632	831.0857	855.5968	893.6875	906.4291	934.0686	951.8042	980.8647	1027.7991	1034.3618	1069.5208	1100.8118	1123.3904	1194.8748	1204.7017	1234.3041	1249.2523	1256.6197	1260.8843	1273.1465	1284.1232	1287.0674	1367.2964	1408.6435	1477.843	1487.0406	1509.7436	1539.3605	1633.0472	3024.1447	3052.647	3055.2262	3059.8491	3099.7837	3107.568	3121.0447	3247.0809	3277.2147	3282.5217
C1CC(C1)C1=COC=C1	C1CC(C1)c1cocc1	
InChI=1S/C8H10O/c1-2-7(3-1)8-4-5-9-6-8/h4-7H,1-3H2	InChI=1S/C8H10O/c1-2-7(3-1)8-4-5-9-6-8/h4-7H,1-3H2
