17
gdb 38618	2.68003	2.33886	1.66534	1.0945	69.75	-0.2237	0.0819	0.3056	840.4824	0.138343	-421.765772	-421.759644	-421.758699	-421.795883	26.245	
C	-0.0573437744	 1.4392042101	-0.0900091595	-0.412641
C	 1.3403680183	 0.8071641509	-0.0420073216	 0.045755
O	 2.1312684543	 0.4427812633	-1.1472412955	-0.257439
C	 1.556550299	-0.7589022603	-1.6214139524	 0.099074
C	 1.094509916	-1.929036193	-0.7176819456	-0.126804
C	 0.977659485	-1.8900982324	 0.822100341	-0.120165
O	-0.0282591358	-0.898633222	 1.1355412706	-0.299285
C	 0.1118190352	-0.0396091632	 0.0364514702	 0.372146
C	 0.1287447284	-0.8860212411	-1.2312118814	-0.188256
H	-0.3060929795	 2.0246983558	 0.7889519395	 0.131961
H	-0.4822359398	 1.806213669	-1.018735118	 0.127822
H	 1.9136756314	 1.0036209135	 0.8570828824	 0.109762
H	 1.935946637	-1.0196671433	-2.6028370056	 0.107366
H	 1.1588671456	-2.9054193037	-1.1861443768	 0.096576
H	 0.6330994626	-2.8511158528	 1.2133135747	 0.114236
H	 1.9240365668	-1.6256234196	 1.3107368002	 0.108468
H	-0.7389127901	-1.0342672911	-1.8634974521	 0.091426
231.8366	238.8205	376.219	418.3963	509.9337	542.4094	625.6589	711.5823	714.4796	752.7833	790.6347	830.574	838.7113	878.1902	924.3069	952.8867	979.0645	992.0075	1008.9977	1030.5447	1057.6411	1065.1089	1083.0751	1095.8511	1119.9976	1138.2645	1160.3863	1205.152	1232.725	1275.9454	1307.5286	1332.3389	1359.3298	1373.2848	1416.1349	1470.7218	1508.2363	3023.7434	3093.6751	3129.9141	3167.4155	3172.6807	3175.5434	3190.7604	3222.2176
C1C2OC3C4COC12C34	C1[C@@H]2O[C@H]3[C@H]4CO[C@@]12[C@@H]34	
InChI=1S/C7H8O2/c1-4-7(1)5-3(2-8-7)6(5)9-4/h3-6H,1-2H2	InChI=1S/C7H8O2/c1-4-7(1)5-3(2-8-7)6(5)9-4/h3-6H,1-2H2/t3-,4-,5+,6-,7-/m0/s1
