20
gdb 54526	3.1023	1.32956	1.08407	3.4482	79.03	-0.2402	0.0324	0.2726	1163.8638	0.173291	-403.195829	-403.187473	-403.186528	-403.228642	32.957	
N	 0.1431349737	 1.2031471256	-0.3060907009	-0.545584
C	-0.0276170766	-0.0052651889	 0.3170687342	 0.317768
O	 0.8137128987	-0.4605969504	 1.0738847229	-0.37939
C	-1.2894746032	-0.7398422174	-0.0144198354	 0.261414
C	-1.8563074264	-1.6029399502	 1.1034656308	-0.323127
C	-1.2336004785	-2.2666724487	-0.082430694	-0.040912
C	-2.1406350047	-2.7172070909	-1.2156752032	-0.219416
C	-3.0901114903	-1.5217015047	-1.464110585	-0.234526
C	-2.2679978839	-0.2661058109	-1.0851696916	-0.315102
H	 0.9286793785	 1.7577834195	-0.0054854485	 0.257286
H	-0.6212196171	 1.675440739	-0.7561497684	 0.256899
H	-1.2736897759	-1.6018005975	 2.0167290988	 0.137269
H	-2.9328253425	-1.6286674616	 1.2373206502	 0.106397
H	-0.2748630958	-2.7493782142	 0.0647460447	 0.1064
H	-1.5329272366	-2.916419213	-2.1062429122	 0.103135
H	-2.6888145675	-3.6375373081	-0.9871777071	 0.101428
H	-3.4563956455	-1.482392477	-2.4930385141	 0.100755
H	-3.9718340879	-1.5996148148	-0.8209717255	 0.109067
H	-2.9125511352	 0.5579183037	-0.7559554847	 0.095986
H	-1.7037695534	 0.0858018103	-1.9580189511	 0.104252
69.4943	159.4829	210.5287	253.8194	291.6673	316.5132	387.6831	416.1994	476.4579	567.6859	611.1211	629.0406	689.3193	762.923	817.0753	829.7184	888.885	896.6872	922.3829	953.4142	988.3396	999.2645	1040.3318	1072.2138	1082.664	1092.8731	1115.9061	1180.8913	1196.1785	1224.6935	1262.0636	1276.5502	1327.5029	1338.682	1343.5383	1364.8086	1410.3	1470.2959	1493.1134	1498.9294	1517.7534	1616.5638	1773.241	3019.5399	3034.5967	3050.5313	3062.6546	3074.0151	3103.0493	3134.1301	3188.8802	3231.4397	3598.4189	3731.9825
NC(=O)C12CC1CCC2	NC(=O)[C@]12C[C@H]1CCC2	
InChI=1S/C7H11NO/c8-6(9)7-3-1-2-5(7)4-7/h5H,1-4H2,(H2,8,9)	InChI=1S/C7H11NO/c8-6(9)7-3-1-2-5(7)4-7/h5H,1-4H2,(H2,8,9)/t5-,7-/m1/s1
