21
gdb 74416	2.72046	1.366	1.09254	1.2696	84.98	-0.2163	0.0253	0.2416	1210.1753	0.181042	-387.098924	-387.089625	-387.088681	-387.132119	36.278	
C	 0.0366494996	 1.5168832673	 0.052944307	-0.48658
C	-0.0296645572	 0.0242591147	-0.0189778008	 0.320902
C	-0.0734936801	-0.7386463822	-1.1159550925	-0.250817
C	-0.0540135772	-2.1961142322	-0.78767721	 0.345796
O	-0.8390949675	-3.0832022562	-1.5282687437	-0.471758
C	 1.197155387	-2.6903058715	-0.0893336411	-0.390963
C	-0.0161977861	-2.276604222	 0.7283511735	 0.293224
C	-0.7774030872	-3.3349358354	 1.4879697792	-0.477495
C	-0.0299131403	-0.8330445037	 1.2371634542	-0.382078
H	 0.96709901	 1.8550552683	 0.527198673	 0.123348
H	-0.0190221656	 1.9710169162	-0.9402071774	 0.122654
H	-0.7841261979	 1.9205772104	 0.6600472102	 0.123223
H	-0.0885580139	-0.3737831815	-2.1377615137	 0.083106
H	-0.3037967631	-3.4240032143	-2.2520013064	 0.282875
H	 1.3864649062	-3.75954076	-0.1312679294	 0.103644
H	 2.0846384884	-2.0646531708	-0.1030789871	 0.103349
H	-0.8516143272	-4.2547505125	 0.9017844619	 0.124962
H	-0.2898673933	-3.573619102	 2.440431096	 0.110878
H	-1.797686828	-3.0017705381	 1.7094853339	 0.115573
H	 0.8350618805	-0.6122945651	 1.8776187225	 0.104574
H	-0.9208363169	-0.6312097593	 1.8494663807	 0.101581
137.1225	169.8418	185.3462	210.8065	219.4346	259.183	269.4979	364.7451	400.9506	419.0716	467.7598	524.6623	552.9953	576.4864	735.4487	761.6853	837.5069	871.2332	897.1173	920.3827	947.3616	975.4813	985.1511	1017.6656	1048.5	1050.0482	1107.0073	1151.6229	1157.9818	1197.3047	1229.2358	1240.934	1303.2169	1328.4537	1364.4838	1395.2736	1413.2473	1416.9601	1466.2195	1478.5059	1481.2178	1489.6195	1492.3471	1502.6664	1709.5722	3000.9225	3014.3576	3025.6115	3031.7764	3058.1241	3082.1131	3108.2618	3108.3936	3114.1825	3184.4834	3200.2874	3808.3449
CC1=CC2(O)CC2(C)C1	CC1=C[C@@]2(O)C[C@@]2(C)C1	
InChI=1S/C8H12O/c1-6-3-7(2)5-8(7,9)4-6/h4,9H,3,5H2,1-2H3	InChI=1S/C8H12O/c1-6-3-7(2)5-8(7,9)4-6/h4,9H,3,5H2,1-2H3/t7-,8-/m1/s1
