17
gdb 52286	3.79681	0.82723	0.72281	5.3281	70.96	-0.2412	-0.0232	0.218	1508.0768	0.135166	-455.151165	-455.142038	-455.141094	-455.186454	31.675	
O	-0.2380420377	 0.2748537208	 0.4829647275	-0.237895
C	 0.0117320738	 1.2990117063	-0.0966121359	 0.150716
C	 1.3702632825	 1.9752543591	-0.1026385582	-0.237979
N	 1.6206505499	 2.6004272798	-1.4002324679	-0.327676
C	 2.6959793229	 3.5725654033	-1.3841738483	-0.116788
C	 2.7911856497	 4.4789785355	-2.6477190384	-0.182525
N	 2.5146734607	 5.6194880147	-1.7677133959	-0.322369
C	 2.3260714385	 4.8834059071	-0.6294860878	 0.460178
O	 1.9832473799	 5.1616853656	 0.4898544072	-0.36437
H	-0.7572467864	 1.8515441874	-0.6820540367	 0.084709
H	 1.3296751682	 2.7747106904	 0.6498662036	 0.175123
H	 2.1341796456	 1.2526246112	 0.2239195861	 0.10889
H	 1.8181616447	 1.8859447891	-2.0941358226	 0.228111
H	 3.6733356013	 3.1741332388	-1.0673020838	 0.089176
H	 3.7681454539	 4.5152834264	-3.1382216559	 0.115903
H	 2.0027982668	 4.2791245084	-3.3794512065	 0.121363
H	 2.3363929358	 6.5933639063	-1.9650603565	 0.255432
54.4522	70.0468	98.3203	139.6699	163.1408	249.3913	334.091	350.6907	462.9943	507.9509	548.4537	719.3853	749.1413	757.1492	822.1141	856.5102	934.2634	992.8674	1039.8148	1054.0291	1091.3339	1133.1653	1162.7093	1189.3814	1193.4161	1206.245	1260.2671	1299.8979	1342.5398	1364.3455	1401.4194	1411.0526	1471.5299	1493.7532	1517.7328	1838.9782	1887.4662	2887.2044	2970.6357	2987.1736	3047.5986	3053.757	3101.0291	3506.3231	3607.3805
O=CCNC1CNC1=O	O=CCN[C@H]1CNC1=O	
InChI=1S/C5H8N2O2/c8-2-1-6-4-3-7-5(4)9/h2,4,6H,1,3H2,(H,7,9)	InChI=1S/C5H8N2O2/c8-2-1-6-4-3-7-5(4)9/h2,4,6H,1,3H2,(H,7,9)/t4-/m0/s1
