22
gdb 107007	2.93687	1.18986	0.99619	2.2145	81.99	-0.2221	0.0598	0.2818	1289.6169	0.193842	-404.306987	-404.297371	-404.296427	-404.340947	36.681	
C	-0.4086576465	 1.5552216728	 0.2646180074	-0.404383
C	-0.1365842824	 0.060109108	 0.3571639804	 0.016121
C	 0.1672263343	-0.6900591326	-0.9478058849	-0.138593
N	 1.441690723	-0.1333792103	-1.4753832744	-0.371901
C	 1.4744799589	-1.1774202944	-0.4280434907	 0.338225
C	 2.1872481144	-2.4778793558	-0.6701471104	-0.21129
O	 1.9291168827	-2.9976632777	-1.9692816249	-0.410644
C	 1.2586948472	-0.4585557013	 0.916854337	-0.064618
C	 2.3165359549	 0.5414093247	 1.3644324856	-0.41058
H	 0.3448591261	 2.0497203615	-0.3527578889	 0.139273
H	-1.390262678	 1.7404928575	-0.1861762502	 0.10692
H	-0.4077490901	 2.0229261827	 1.2550943108	 0.108888
H	-0.9468505783	-0.436828626	 0.9002381838	 0.066836
H	-0.540490171	-1.1606832166	-1.622435351	 0.077046
H	 1.628312579	-0.6265479697	-2.3499354339	 0.232599
H	 3.2734164533	-2.3339034872	-0.6220887844	 0.121484
H	 1.9210369516	-3.2025061235	 0.1150441378	 0.09517
H	 1.0026735257	-3.2593401538	-1.9954121114	 0.287526
H	 1.0753747488	-1.1924410715	 1.7094597272	 0.065347
H	 2.5734186984	 1.2233142842	 0.5507368321	 0.139437
H	 1.9665127562	 1.1341314278	 2.2163585427	 0.110279
H	 3.2319534317	 0.0266993213	 1.6779237203	 0.10686
96.9382	129.6379	160.437	213.8065	222.2854	242.836	261.3673	313.3586	321.2315	377.9925	482.9245	546.5111	597.6821	663.1346	689.4377	755.087	844.9186	871.9291	891.4577	974.4366	981.8575	1014.8155	1020.0168	1040.433	1063.4051	1069.8654	1103.6549	1145.6457	1154.3467	1169.4857	1203.6632	1233.2856	1244.1069	1303.2567	1318.2493	1358.1238	1375.978	1388.4464	1401.1992	1407.7417	1417.2045	1448.7292	1484.1143	1498.8242	1499.9896	1502.7648	1514.8237	2984.3898	3029.6669	3032.934	3037.7982	3053.6058	3057.0577	3087.7692	3091.5153	3124.7458	3130.9885	3162.6738	3460.6141	3811.8153
CC1C2NC2(CO)C1C	C[C@H]1[C@H]2N[C@@]2(CO)[C@H]1C	
InChI=1S/C7H13NO/c1-4-5(2)7(3-9)6(4)8-7/h4-6,8-9H,3H2,1-2H3	InChI=1S/C7H13NO/c1-4-5(2)7(3-9)6(4)8-7/h4-6,8-9H,3H2,1-2H3/t4-,5+,6-,7+/m1/s1
