23
gdb 91351	1.86391	1.57451	1.4884	1.7503	85.03	-0.2331	0.0735	0.3066	1141.167	0.204573	-388.268882	-388.259293	-388.258348	-388.302982	36.761	
C	-1.0465755638	 0.9690700919	 0.0617635156	-0.423493
C	-0.0951996527	-0.2215188235	 0.0320399183	-0.009375
C	 1.2086364033	-0.1776009507	-0.8260842114	-0.27035
C	 1.9816545993	-0.83250312	 0.346466913	 0.08747
O	 2.7318090631	 0.1177057727	 1.1206137719	-0.314382
C	 1.6362079552	 0.2913799193	 2.0581853109	 0.113123
C	 1.3042827604	 1.7517129864	 2.3017309427	-0.411569
C	 0.7316047668	-0.7093719709	 1.2699878779	 0.248073
C	 0.1332618869	-1.8331771347	 2.0916976192	-0.495323
H	-0.5338082748	 1.9164887206	 0.237955162	 0.119264
H	-1.5706721555	 1.0555599313	-0.8968327812	 0.114412
H	-1.8087414099	 0.8507063958	 0.8405839185	 0.112832
H	-0.6763401305	-1.0959462798	-0.2859036007	 0.073695
H	 1.1702424296	-0.7431784463	-1.7606597921	 0.095395
H	 1.5877114775	 0.8262778251	-1.0343021806	 0.106256
H	 2.5326895163	-1.7594161129	 0.1621613282	 0.068656
H	 1.9096624148	-0.165282563	 3.0221436482	 0.069533
H	 0.4062295596	 1.8515818929	 2.9207282605	 0.114492
H	 2.1347068199	 2.2277163889	 2.8338575979	 0.123663
H	 1.1546943536	 2.295938231	 1.3680649945	 0.126412
H	-0.7047364465	-1.4713992295	 2.7013795786	 0.117477
H	-0.250051472	-2.6357807958	 1.4523235697	 0.114581
H	 0.8706589294	-2.2710694588	 2.7732805985	 0.119156
53.2747	156.3522	180.5691	196.2162	202.313	250.9343	291.3084	315.6757	359.5809	418.4675	434.087	566.5661	597.1874	620.8718	709.8381	826.0035	860.8822	869.893	888.3114	901.7664	937.4091	1013.7259	1025.7242	1061.9186	1088.0024	1101.2342	1127.7818	1135.4855	1154.081	1172.4967	1184.4775	1229.9726	1244.5493	1272.0212	1285.9994	1318.8373	1348.4356	1378.9532	1398.7567	1408.5858	1415.0176	1418.0993	1473.5101	1475.2786	1488.9561	1491.1878	1495.0881	1498.5969	1513.5833	2970.2025	3015.5205	3019.2171	3032.6111	3039.2114	3054.6532	3065.2372	3078.5469	3086.294	3093.2552	3101.1943	3114.3813	3126.4649	3142.3919
CC1CC2OC(C)C12C	C[C@H]1C[C@H]2O[C@@H](C)[C@@]12C	
InChI=1S/C8H14O/c1-5-4-7-8(5,3)6(2)9-7/h5-7H,4H2,1-3H3	InChI=1S/C8H14O/c1-5-4-7-8(5,3)6(2)9-7/h5-7H,4H2,1-3H3/t5-,6-,7+,8+/m0/s1
