18
gdb 98782	4.16428	1.01952	0.88907	4.8807	74.04	-0.2418	0.0193	0.2611	1305.304	0.147448	-439.068367	-439.059877	-439.058933	-439.102306	31.278	
O	 0.0746603656	 1.3317946992	 0.08911172	-0.421977
C	 0.0445544802	-0.0618290999	 0.0124263003	-0.140043
C	-1.4096027767	-0.53938127	-0.0526657451	 0.354172
O	-2.321208218	 0.2754412943	 0.0068364463	-0.392924
N	-1.6127264615	-1.8634606805	-0.2227273707	-0.078164
C	-0.7507363655	-3.0531016975	-0.0678912812	-0.196301
C	-2.0244261991	-3.8959395593	 0.1059196959	-0.087818
C	-2.8781243071	-3.3411827831	 1.2210255211	-0.280252
C	-2.8436980949	-2.6254985064	-0.0982982042	-0.000843
H	-0.8642144897	 1.5890145705	 0.1053345078	 0.293904
H	 0.5861252212	-0.4251527106	-0.8753204883	 0.109294
H	 0.5318433757	-0.5207673059	 0.8893515589	 0.104067
H	-0.1926939107	-3.2823900914	-0.9814938002	 0.127851
H	-0.0609238879	-3.01994796	 0.783140118	 0.122685
H	-2.1745638495	-4.8763111755	-0.3220086349	 0.111026
H	-3.7870493777	-3.9009242882	 1.4176420952	 0.127715
H	-2.4246394305	-2.8863203858	 2.0974355236	 0.122058
H	-3.7036394938	-2.4120187899	-0.7184473025	 0.125551
56.5283	98.8565	111.6937	153.6114	328.0626	337.6432	380.8629	454.1104	480.1777	540.2792	585.9894	755.5169	772.9519	805.7175	835.5391	928.3168	951.9322	986.598	993.8227	1032.0564	1047.9508	1068.5492	1081.994	1105.8207	1139.4845	1154.146	1188.6335	1209.5321	1249.1831	1264.8129	1306.3676	1312.1367	1358.9251	1434.8071	1477.3886	1488.7249	1509.7009	1514.1622	1751.9276	2964.3066	2990.6608	3031.3796	3080.9649	3118.7817	3207.1965	3211.9509	3227.273	3635.3165
OCC(=O)N1CC2CC12	OCC(=O)N1C[C@H]2C[C@@H]12	
InChI=1S/C6H9NO2/c8-3-6(9)7-2-4-1-5(4)7/h4-5,8H,1-3H2	InChI=1S/C6H9NO2/c8-3-6(9)7-2-4-1-5(4)7/h4-5,8H,1-3H2/t4-,5-/m1/s1
