17
gdb 63509	2.12855	1.65992	1.07172	3.2205	71.86	-0.2573	-0.0698	0.1874	1130.5161	0.130799	-458.961237	-458.951626	-458.950682	-458.99532	34.416	
C	 0.07565293	 1.4445344415	 0.0453636197	-0.467671
C	 0.0656379406	-0.0671317498	 0.1033440045	 0.333423
C	-1.1146856022	-0.7308084853	-0.5711229176	-0.467666
O	 1.3144198476	-0.701172768	-0.0708159531	-0.271965
C	 0.7924305165	-0.7890259378	 1.2478866236	 0.129214
C	 1.4783349803	 0.0124332367	 2.3158225828	 0.095014
O	 2.2947262864	 0.8752692972	 2.1204243872	-0.246979
C	 0.3049249659	-2.1319470065	 1.7084818417	 0.094993
O	 0.1263104741	-3.0872620443	 0.998100101	-0.246982
H	 0.968884684	 1.8599689606	 0.5087096677	 0.171031
H	 0.0558225237	 1.7507795241	-1.0061545163	 0.137579
H	-0.817327905	 1.8551402334	 0.5268583123	 0.126603
H	-1.130922404	-0.4226345836	-1.6221461042	 0.13763
H	-1.0441006069	-1.8164286378	-0.531303393	 0.171005
H	-2.0541240071	-0.4030074993	-0.1152286018	 0.126587
H	 1.1627324027	-0.2580011803	 3.3480986596	 0.089088
H	 0.1089676334	-2.1838501408	 2.8026650159	 0.089096
119.1464	126.5932	160.3769	179.5555	199.4981	233.2797	236.5184	284.3403	324.6001	382.0471	434.6964	475.6755	517.9057	689.177	734.2819	741.2331	835.5935	949.4103	980.8859	984.372	990.4449	1060.9646	1109.8509	1112.5231	1195.9035	1250.6827	1375.1524	1407.8106	1420.4476	1427.0377	1449.0347	1472.6846	1489.2643	1499.0441	1513.0573	1804.3538	1840.3164	2868.7585	2895.5116	3042.2145	3048.4695	3101.8832	3108.0913	3170.6119	3170.7989
CC1(C)OC1(C=O)C=O	CC1(C)OC1(C=O)C=O	
InChI=1S/C6H8O3/c1-5(2)6(3-7,4-8)9-5/h3-4H,1-2H3	InChI=1S/C6H8O3/c1-5(2)6(3-7,4-8)9-5/h3-4H,1-2H3
