14
gdb 92673	3.38163	1.24218	0.9341	4.7063	71.54	-0.2707	-0.0897	0.181	1163.122	0.10105	-436.729313	-436.721379	-436.720434	-436.762215	28.832	
O	 0.1459470127	 1.3328015141	 0.3367443106	-0.431498
C	-0.0071447501	-0.0255230043	 0.0273688609	 0.054225
C	-1.4741976483	-0.4672380314	-0.0994497621	-0.293925
C	-1.4738714156	-1.3742164402	-1.2995107883	-0.140548
C	-0.3180609222	-1.3405665686	-1.9927100888	 0.089406
C	-0.0196496068	-2.0380082697	-3.1934759362	 0.229029
N	 0.2444135332	-2.6035255781	-4.167987933	-0.323711
C	 0.6124132825	-0.3754819716	-1.3353317033	 0.279302
O	 1.6290174031	 0.1083286111	-1.7636108322	-0.314549
H	 0.9887211546	 1.6064582452	-0.0524594328	 0.299535
H	 0.4967936337	-0.6679890166	 0.7714429979	 0.109024
H	-1.8670492962	-0.9660919311	 0.7915322013	 0.137092
H	-2.1072454047	 0.4102983949	-0.2811565047	 0.159259
H	-2.3331414559	-1.9742120738	-1.5772211294	 0.14736
67.2528	137.785	173.5785	239.6808	300.5916	375.4865	417.0682	435.9076	475.5637	553.6166	624.3522	653.2324	742.3471	812.1886	878.81	941.9772	962.8775	1019.4316	1034.8901	1137.471	1181.9774	1217.1693	1247.2705	1304.6946	1314.3271	1362.0676	1412.4433	1464.5138	1650.002	1832.0462	2350.7413	2946.9154	3043.6801	3088.7736	3208.9969	3746.0627
OC1CC=C(C#N)C1=O	O[C@H]1CC=C(C#N)C1=O	
InChI=1S/C6H5NO2/c7-3-4-1-2-5(8)6(4)9/h1,5,8H,2H2	InChI=1S/C6H5NO2/c7-3-4-1-2-5(8)6(4)9/h1,5,8H,2H2/t5-/m0/s1
