17
gdb 19621	4.66198	2.06164	1.88578	1.6129	71.6	-0.222	0.0871	0.3091	768.2872	0.143551	-326.627682	-326.621596	-326.620652	-326.657437	25.486	
C	-0.1061626849	 1.4864972485	-0.0478285552	-0.344814
C	 1.2359875978	 0.7644533816	 0.0012905743	-0.354281
C	-0.0417504422	 0.0005591515	 0.0553292102	 0.436615
C	-0.4842891134	-0.9985933592	 1.0876379646	-0.179807
C	-1.7396465542	-1.6673068825	 0.4769834665	-0.094253
C	-1.9401303851	-0.9863079352	-0.8664157114	-0.174648
N	-0.4283182434	-0.9478519152	-1.0379562743	-0.216185
C	-0.3632649538	-2.0640467283	 0.0368946033	-0.024238
H	-0.4190918077	 2.0575620141	 0.8201328937	 0.112836
H	-0.4072978975	 1.9109912737	-1.0003425909	 0.118372
H	 1.8068879908	 0.7108292419	-0.9191676489	 0.123593
H	 1.8316770745	 0.84668076	 0.9046820124	 0.110212
H	-0.2584996159	-1.062186546	 2.1446886936	 0.090767
H	-2.4356407511	-2.2244539474	 1.0921171672	 0.09021
H	-2.3710999638	-1.6533532383	-1.6174350064	 0.105259
H	-2.4228860656	-0.0043659741	-0.913301179	 0.100824
H	 0.1834228454	-2.9920621952	-0.0451575298	 0.099539
188.1067	251.1131	281.0906	459.1135	498.6635	600.886	754.8261	763.4321	784.5992	797.1492	816.3942	857.3437	874.4239	888.1644	928.2487	968.7807	976.5299	994.834	1015.3914	1027.8471	1044.9601	1056.3198	1064.4956	1073.5486	1102.8074	1156.2003	1173.6557	1185.2903	1223.5849	1253.6088	1294.0704	1349.0452	1404.3269	1451.3864	1502.7617	1511.4689	3043.339	3103.87	3125.8435	3129.866	3186.2228	3193.9055	3207.4414	3222.3986	3224.1267
C1CC11C2C3CN1C23	C1CC21[C@H]1[C@H]3CN2[C@@H]13	
InChI=1S/C7H9N/c1-2-7(1)5-4-3-8(7)6(4)5/h4-6H,1-3H2	InChI=1S/C7H9N/c1-2-7(1)5-4-3-8(7)6(4)5/h4-6H,1-3H2/t4-,5+,6-/m1/s1
