21
gdb 69378	4.01497	0.94276	0.88913	1.0831	83.51	-0.2466	0.0836	0.3302	1394.1917	0.182349	-387.042782	-387.034137	-387.033192	-387.0762	33.991	
O	-0.1519824563	 1.4464331203	-0.1203762422	-0.463668
C	-0.0309732252	 0.0732938444	 0.0122116392	 0.411084
C	-0.2582392904	-0.8703995686	-1.133682708	-0.355116
C	-1.1538478253	-0.9492992673	 0.085543513	-0.115018
C	-0.4244562414	-1.6957260168	 1.2168234004	 0.024894
C	 0.7181810522	-0.6176909036	 1.1569083307	-0.326924
C	-1.166021842	-1.7551418686	 2.5264308699	 0.024431
C	-2.038817638	-2.9400468611	 2.8578979043	-0.27667
C	-0.7427028764	-2.7243241021	 3.6014200029	-0.277668
H	 0.5523600477	 1.7576864566	-0.6993691665	 0.283401
H	-0.7223451502	-0.4100780593	-2.0005832876	 0.110095
H	 0.4414943477	-1.6729621824	-1.3619585162	 0.0984
H	-2.2258471422	-0.8091402994	 0.014118505	 0.090357
H	-0.098295936	-2.7052622408	 0.9352092528	 0.057778
H	 1.7359340708	-0.9659491887	 0.9486805122	 0.084236
H	 0.7283804323	-0.0035421432	 2.0609209978	 0.108767
H	-1.5281009493	-0.7895750378	 2.8731535136	 0.083514
H	-2.9708989789	-2.7661901276	 3.3842019062	 0.10985
H	-2.08025284	-3.7539178218	 2.1410504693	 0.109913
H	 0.0830047139	-3.3935443201	 3.3817070958	 0.108766
H	-0.7882579533	-2.403000292	 4.6360724974	 0.109579
76.6345	91.9453	170.8403	245.0759	289.6897	344.2663	375.6697	394.8632	441.223	457.9463	630.5764	738.3573	766.2435	811.1869	825.1057	850.9313	889.8237	908.8653	933.2655	942.5322	972.8449	999.5142	1033.8897	1042.8612	1056.5473	1058.2374	1076.8339	1080.4697	1115.0811	1141.7044	1197.7763	1211.4683	1219.061	1225.8649	1238.8161	1252.284	1280.7806	1296.0614	1325.0021	1398.3911	1431.5	1470.1684	1477.1376	1502.3125	1508.1562	3016.2881	3038.4418	3093.121	3105.0116	3127.6793	3127.9973	3133.7394	3184.3718	3196.9793	3205.7838	3220.8867	3793.9197
OC12CC1C(C2)C1CC1	O[C@]12C[C@H]1[C@@H](C2)C1CC1	
InChI=1S/C8H12O/c9-8-3-6(5-1-2-5)7(8)4-8/h5-7,9H,1-4H2	InChI=1S/C8H12O/c9-8-3-6(5-1-2-5)7(8)4-8/h5-7,9H,1-4H2/t6-,7-,8+/m0/s1
