16
gdb 79009	3.92299	1.70479	1.44676	1.156	72.38	-0.2212	-0.0084	0.2128	895.481	0.125178	-400.610811	-400.604393	-400.603449	-400.641204	26.844	
O	 0.1158341389	 1.4974744716	-0.1069696771	-0.437724
C	 0.0461208111	 0.1001475642	-0.0347169671	-0.004637
C	 0.0093419312	-0.5918235598	 1.3670843497	-0.095458
C	-1.4409751815	-0.1437013573	 1.6505519626	-0.053473
C	-2.0232447246	-1.572526541	 1.6769374162	-0.086512
C	-3.1842777997	-1.5740380997	 0.6684184974	-0.076143
C	-2.7458769094	-0.8496318532	-0.3716620171	-0.222876
C	-1.3689115675	-0.461320185	 0.1176914355	 0.318212
N	-0.789767581	-1.7595689292	 0.7546481838	-0.170756
H	 1.0427910694	 1.7550502931	-0.1030603368	 0.291115
H	 0.6726328962	-0.4048439325	-0.7821667533	 0.087684
H	 0.8309829355	-0.7667074147	 2.0622499378	 0.076686
H	-1.8075385533	 0.7703777983	 2.1265899521	 0.07523
H	-2.0988815686	-2.1990342015	 2.5673893081	 0.066618
H	-4.1278467997	-2.0889665572	 0.7834043383	 0.111044
H	-3.2228079969	-0.609912656	-1.3094575402	 0.12099
195.3951	242.6919	260.3151	418.9587	480.3619	535.014	575.2925	670.1825	704.1782	757.1306	782.3367	821.0999	842.3911	862.4203	883.4446	897.6385	915.5173	936.7437	948.967	1008.7307	1060.6081	1108.0473	1131.8685	1140.7437	1146.3817	1173.6093	1178.6296	1206.5489	1243.633	1271.1537	1275.8559	1294.6503	1326.8653	1442.8662	1590.4912	3023.064	3065.1396	3101.3198	3111.226	3227.7402	3260.791	3826.9132
OC1C2C3C4C=CC13N24	O[C@H]1[C@H]2[C@@H]3[C@H]4C=C[C@@]13N24	
InChI=1S/C7H7NO/c9-6-5-4-3-1-2-7(4,6)8(3)5/h1-6,9H	InChI=1S/C7H7NO/c9-6-5-4-3-1-2-7(4,6)8(3)5/h1-6,9H/t3-,4+,5-,6+,7+/m1/s1
