19
gdb 55378	2.2892	1.5346	1.10175	3.1829	78.31	-0.2219	-0.0184	0.2034	1169.5332	0.15701	-423.051601	-423.042143	-423.041198	-423.086461	33.804	
C	 0.1784492564	 1.4095948445	 0.2549979379	-0.491775
C	-0.0429374276	-0.0737376107	 0.0292684348	 0.380715
O	-0.2329598794	-0.8527888183	 0.9293150127	-0.296221
C	-0.0092011999	-0.5613328973	-1.4416390336	-0.075985
O	 0.5517894334	-1.8556182044	-1.5181167493	-0.257087
C	-0.464191954	-2.8115737512	-1.8230012892	-0.115098
C	-1.6601054551	-1.9873389475	-2.196281407	-0.205215
C	-1.4193474699	-0.6938177036	-1.9988826963	 0.322833
C	-2.3219666531	 0.4743672331	-2.2334695316	-0.501439
H	 1.2297830955	 1.6493822867	 0.0532870405	 0.149266
H	-0.4186813272	 2.0135732965	-0.436777422	 0.134574
H	-0.0584961777	 1.6727228835	 1.2865652855	 0.14437
H	 0.6054726843	 0.1356634707	-2.0337642406	 0.084503
H	-0.1118294524	-3.4558633346	-2.6414094289	 0.105597
H	-0.6564043841	-3.4548171781	-0.9511109332	 0.119271
H	-2.5844848634	-2.4131503918	-2.5671051582	 0.103343
H	-3.2597623405	 0.1587806289	-2.6972884704	 0.132727
H	-2.5714807922	 0.9902923885	-1.2980452013	 0.136683
H	-1.8516011229	 1.2173942151	-2.8896925599	 0.128938
54.4646	79.1633	129.9056	156.2015	189.7631	246.1128	274.3885	320.4031	344.9049	460.713	568.2333	597.5511	636.3871	774.3917	800.3729	852.2845	916.963	927.8163	954.9468	986.0057	1026.1837	1038.1441	1047.3897	1076.3579	1128.4549	1175.0316	1194.6832	1207.4633	1268.6049	1302.0184	1356.0572	1376.3007	1383.5801	1418.7227	1461.1218	1472.1502	1482.5447	1490.6633	1514.9604	1730.0562	1828.4001	2973.0711	2989.2549	3013.4679	3020.8508	3033.315	3067.6241	3093.554	3116.4276	3151.638	3210.2911
CC(=O)C1OCC=C1C	CC(=O)[C@H]1OCC=C1C	
InChI=1S/C7H10O2/c1-5-3-4-9-7(5)6(2)8/h3,7H,4H2,1-2H3	InChI=1S/C7H10O2/c1-5-3-4-9-7(5)6(2)8/h3,7H,4H2,1-2H3/t7-/m0/s1
