17
gdb 109646	3.04584	1.06913	0.99646	3.347	72.19	-0.2433	0.01	0.2533	1239.4842	0.133043	-458.891941	-458.882407	-458.881463	-458.926002	35.752	
O	 0.210392325	 1.107857744	-0.6086257025	-0.423639
C	 0.0352602718	 0.0343989044	 0.2996650469	-0.10011
C	-1.3900737754	-0.4983803742	 0.2603658402	-0.134115
C	-1.9097953922	-1.0468003387	-1.0463430012	 0.046517
O	-1.0224464867	-1.1563832283	-2.1205156571	-0.434954
C	-1.6736574754	-1.9922047875	 0.1280704083	 0.131295
O	-0.5292439202	-2.8098264406	-0.0287279229	-0.469042
C	-2.7705205928	-2.5934769159	 0.8256346373	 0.27109
C	-3.6922473586	-3.1210971155	 1.3915237832	-0.42274
H	 0.0253604379	 0.7422258177	-1.4830948769	 0.293404
H	 0.7498577265	-0.7765482138	 0.1128216767	 0.107059
H	 0.2532211598	 0.4305359493	 1.2956473977	 0.113736
H	-2.1139258333	 0.0420299055	 0.8617058542	 0.109069
H	-2.9255409179	-0.8306486183	-1.3599231762	 0.117136
H	-0.4327095612	-1.8953793949	-1.9047232053	 0.293574
H	-0.8420584591	-3.7092825268	-0.1801447811	 0.299013
H	-4.5049388183	-3.5769983264	 1.9012113987	 0.202708
84.8404	122.9079	142.7134	180.8995	233.2514	277.5056	300.5617	342.7898	410.6323	455.8981	480.1807	550.499	556.4896	577.4588	625.8145	677.2076	688.4139	721.7687	829.3021	853.5578	972.2069	1035.562	1054.178	1071.8571	1088.3244	1119.4156	1197.122	1215.0914	1247.5853	1310.8281	1318.7488	1386.982	1400.5362	1438.6632	1451.2229	1515.9817	2230.2346	3029.2566	3085.9216	3162.6804	3172.9957	3500.0006	3703.2085	3775.2804	3802.39
OCC1C(O)C1(O)C#C	OC[C@H]1[C@@H](O)[C@]1(O)C#C	
InChI=1S/C6H8O3/c1-2-6(9)4(3-7)5(6)8/h1,4-5,7-9H,3H2	InChI=1S/C6H8O3/c1-2-6(9)4(3-7)5(6)8/h1,4-5,7-9H,3H2/t4-,5+,6-/m0/s1
