16
gdb 22470	3.549	0.77351	0.64009	0.2754	85.54	-0.2409	-0.0332	0.2077	1697.1478	0.119786	-400.646682	-400.636189	-400.635245	-400.684169	35.863	
C	 0.1654269334	 1.5195360022	-0.01143888	-0.497628
C	 0.0515640111	 0.0691566978	-0.0493186904	 0.070754
C	-0.0546349586	-1.1285211985	-0.0792424965	 0.076574
C	-0.1396018849	-2.5811579896	-0.1206023213	-0.442854
C	-1.5384085631	-3.1630489737	 0.0201873785	 0.192254
N	-2.5290920398	-2.3593960481	 0.1627315322	-0.149883
O	-3.7403599898	-3.0252258961	 0.2789454446	-0.382699
C	-1.6446755971	-4.583236519	-0.0175878271	 0.321989
C	-1.6637408002	-5.7863060357	-0.0577692063	-0.450304
H	 0.8019816137	 1.8489095453	 0.8172845306	 0.146415
H	 0.5994297576	 1.9107645174	-0.9382905152	 0.146414
H	-0.8162542694	 1.9883322693	 0.1183994917	 0.150395
H	 0.2845582634	-2.9600173079	-1.0609882726	 0.150405
H	 0.4841477704	-3.0209850424	 0.6701318699	 0.150404
H	-4.3647919936	-2.2975007984	 0.3765837054	 0.311631
H	-1.7069726132	-6.8472252226	-0.0901545032	 0.206134
21.4057	41.1815	73.4169	141.3048	204.5433	224.2271	251.3576	279.3214	318.2318	379.2977	427.5056	447.1441	467.3854	615.4103	648.6115	652.6788	674.0829	788.1498	819.7931	942.4106	1039.1835	1052.4532	1054.7576	1167.0316	1193.2133	1229.2561	1353.5478	1402.6815	1414.6487	1459.9152	1478.291	1478.6514	1688.6965	2220.0141	2382.8064	3008.869	3026.2227	3030.3415	3086.1775	3087.8234	3499.7851	3808.0856
CC#CCC(=NO)C#C	CC#CCC(=NO)C#C	
InChI=1S/C7H7NO/c1-3-5-6-7(4-2)8-9/h2,9H,6H2,1H3	InChI=1S/C7H7NO/c1-3-5-6-7(4-2)8-9/h2,9H,6H2,1H3
