18
gdb 91993	2.80572	1.50267	1.24846	3.4827	77.02	-0.242	0.057	0.299	1050.9424	0.148757	-401.89921	-401.891347	-401.890402	-401.931308	31.568	
O	-0.0053636698	 1.0887864353	 1.3506019799	-0.424665
C	-0.0294939294	 0.1728496141	 0.2845410779	 0.101462
C	 0.954201046	-1.0094614805	 0.5014215213	-0.243521
C	 0.1323415444	-2.0474009788	 1.242215742	-0.035944
N	-0.685409785	-1.4503389061	 2.3279884664	-0.348679
C	-1.3052493275	-1.7626159906	 1.0224344399	-0.038545
C	-1.4256740794	-0.5372048263	 0.117318809	-0.217764
C	-2.5773585222	 0.3099892568	 0.3825820446	 0.340012
C	-3.5495356538	 0.9846461462	 0.5920791895	-0.453392
H	-0.2526893338	 0.5759816576	 2.1363227465	 0.290877
H	 0.2140386107	 0.7449288767	-0.6137069287	 0.088557
H	 1.2885809672	-1.4263228334	-0.4562474057	 0.100463
H	 1.8340605773	-0.6678486628	 1.0530262384	 0.115499
H	 0.5000003536	-3.0604071157	 1.3683521401	 0.091684
H	-0.9385169736	-2.1593804491	 3.0099569412	 0.239113
H	-2.0589647276	-2.5407709936	 0.973458804	 0.098397
H	-1.4896185348	-0.9090512966	-0.9155013448	 0.1049
H	-4.3960079623	 1.5964146069	 0.7826627186	 0.191546
105.4782	139.9078	218.2815	304.0345	354.5883	401.3256	414.7668	511.5747	549.9238	601.6506	623.8606	631.3291	665.6106	784.3607	808.4182	831.4873	866.5033	884.4984	893.1819	963.405	983.3344	1031.0796	1052.101	1073.4243	1098.3535	1127.5835	1158.2493	1205.4954	1236.5714	1251.8991	1262.4954	1308.5155	1331.0816	1348.0518	1376.2906	1422.3631	1469.9697	1481.9547	2239.249	3005.1691	3039.5257	3086.4243	3101.3416	3163.9986	3176.7887	3505.4487	3518.5124	3687.3171
OC1CC2NC2C1C#C	O[C@H]1C[C@H]2N[C@H]2[C@H]1C#C	
InChI=1S/C7H9NO/c1-2-4-6(9)3-5-7(4)8-5/h1,4-9H,3H2	InChI=1S/C7H9NO/c1-2-4-6(9)3-5-7(4)8-5/h1,4-9H,3H2/t4-,5+,6-,7-/m0/s1
