15
gdb 21130	7.01727	1.3043	1.1152	3.8557	66.63	-0.2138	0.0102	0.224	1053.1159	0.118099	-395.979354	-395.971112	-395.970168	-396.012609	28.536	
C	-0.0410583552	 1.4003998251	-0.0399690855	-0.320951
N	 0.0499907585	-0.0528238536	-0.0570911505	-0.392601
C	 0.5920464567	-0.6185286195	 0.927993389	 0.537576
N	 0.7754525338	-1.9836589072	 1.1068846633	-0.411901
C	 1.3939890002	-2.1783775818	 2.3108876315	 0.415701
C	 1.7563631851	-3.5127147331	 2.8594166538	-0.501342
N	 1.6313210589	-1.0662215205	 2.9242552814	-0.18235
O	 1.1291271185	-0.0473726669	 2.0558248072	-0.25421
H	 0.9477453174	 1.8751805729	-0.1017065752	 0.119857
H	-0.6250203833	 1.7274504745	-0.9037075569	 0.117466
H	-0.5281273059	 1.7814197622	 0.8678675962	 0.120172
H	 0.4766500051	-2.6750628171	 0.4426919815	 0.281685
H	 2.4454638666	-4.0363657362	 2.1887909453	 0.150014
H	 2.236780022	-3.3815184754	 3.8294501744	 0.171026
H	 0.8664268615	-4.1381293035	 2.9846926345	 0.149859
44.3111	105.6195	156.6364	181.222	259.3941	311.9267	319.6241	390.9872	519.105	637.4192	647.003	728.1659	736.4686	897.9222	940.308	1006.5911	1027.5251	1069.2761	1083.0619	1123.7745	1163.8567	1236.3292	1306.1296	1411.5349	1447.8109	1467.6121	1477.3292	1491.3457	1502.4235	1511.6462	1669.1839	1815.9886	2998.6006	3044.8864	3046.9948	3102.9812	3103.3365	3156.3044	3698.8435
CN=C1NC(C)=NO1	CN=c1[nH]c(C)no1	
InChI=1S/C4H7N3O/c1-3-6-4(5-2)8-7-3/h1-2H3,(H,5,6,7)	InChI=1S/C4H7N3O/c1-3-6-4(5-2)8-7-3/h1-2H3,(H,5,6,7)
