22
gdb 82648	2.27419	1.73232	1.3368	1.6807	86.27	-0.2138	0.0869	0.3007	1105.1268	0.193492	-367.155228	-367.146081	-367.145137	-367.188335	35.428	
C	-0.0931587779	 1.5803434212	-0.0725441769	-0.433929
C	 0.0884449566	 0.0750761931	 0.0381656278	 0.022221
N	 1.0915397222	-0.6150561492	-0.8831500948	-0.222823
C	 2.40681717	 0.0304874503	-0.4951654023	-0.189127
C	 2.2800125087	-0.5988820234	 0.8774750836	-0.187529
C	 0.7681978687	-0.5894037432	 1.2281558654	 0.266466
C	 0.2629052267	-0.7591886126	 2.6306205838	-0.515057
C	 1.3350638281	-1.6135781611	 0.2860437227	 0.341665
C	 1.2984020745	-3.0974403909	 0.1745059464	-0.528849
H	 0.778615246	 2.1397491965	 0.2755214922	 0.118464
H	-0.2930996825	 1.8622251339	-1.1123157161	 0.126152
H	-0.9499697596	 1.8985234948	 0.5310024762	 0.115412
H	-0.8733890176	-0.4162200689	-0.1537903165	 0.071422
H	 3.2050435204	-0.4236825561	-1.0894883277	 0.103419
H	 2.4512570277	 1.1177774209	-0.6117218661	 0.092504
H	 3.0264772921	-0.7521796588	 1.6486552167	 0.08122
H	 0.276713678	 0.1893342852	 3.1800951676	 0.122567
H	-0.7677022142	-1.1330006162	 2.6379338022	 0.118576
H	 0.8758479868	-1.471355115	 3.1939598371	 0.118301
H	 0.3228648544	-3.4449316785	-0.1836560943	 0.127681
H	 2.0598933429	-3.4660891468	-0.5217854331	 0.128541
H	 1.4837356978	-3.5586424752	 1.1505918564	 0.122702
145.7824	170.5909	180.4126	187.7565	196.8804	222.1815	294.5853	314.7576	357.6344	506.2708	565.9572	604.342	663.2854	688.7887	762.972	791.7597	854.6178	861.4569	908.7756	932.0578	959.3524	997.8653	1040.6546	1070.734	1084.5329	1104.2651	1123.0856	1131.3339	1146.6233	1172.8053	1227.3258	1237.1537	1239.8526	1294.5319	1334.046	1389.5748	1401.2849	1411.547	1416.5839	1474.5098	1477.7765	1487.9325	1490.1825	1493.4149	1496.0693	1510.677	1525.5248	3019.8775	3023.7429	3025.9325	3034.1002	3046.5181	3079.3364	3085.7823	3088.0792	3090.8764	3096.5081	3098.1935	3117.8491	3176.2316
CC1N2CC3C1(C)C23C	C[C@H]1N2C[C@H]3[C@]1(C)[C@@]23C	
InChI=1S/C8H13N/c1-5-7(2)6-4-9(5)8(6,7)3/h5-6H,4H2,1-3H3	InChI=1S/C8H13N/c1-5-7(2)6-4-9(5)8(6,7)3/h5-6H,4H2,1-3H3/t5-,6+,7-,8+/m1/s1
