20
gdb 87001	4.8745	0.72157	0.68423	3.7978	78.05	-0.2463	0.0326	0.279	1673.3307	0.17043	-440.302089	-440.292504	-440.29156	-440.338323	34.035	
C	 0.1763711761	 1.3294839875	 0.3479735511	-0.398438
C	-0.0128742364	-0.1120510042	-0.0749447489	 0.178263
C	 0.6838313501	-0.6092293349	-1.362456701	-0.329492
C	 1.3465577218	-1.6507324917	-0.440657939	 0.153099
C	 2.8634369394	-1.6702434565	-0.344697187	-0.174267
N	 3.2830322818	-2.3772239386	 0.850258612	-0.272175
C	 4.1263932742	-3.4422257613	 0.8327777155	 0.155339
O	 4.664792403	-3.8952347546	-0.1557902551	-0.32532
O	 0.7595293369	-1.0390437651	 0.7361112498	-0.327175
H	 1.2307932998	 1.6172958594	 0.2924961343	 0.118165
H	-0.4024476676	 1.995856583	-0.3010273018	 0.119968
H	-0.1661522655	 1.474461492	 1.3774827225	 0.129034
H	-1.0775407043	-0.3806228612	-0.0351120582	 0.07864
H	 0.0368695656	-0.999161777	-2.1485680799	 0.114509
H	 1.3834414739	 0.1115598923	-1.7942213432	 0.109545
H	 0.9700574757	-2.6743974479	-0.5686481525	 0.085203
H	 3.3062485651	-2.1870058442	-1.2001495809	 0.147396
H	 3.2409517054	-0.6391871714	-0.3294307515	 0.103656
H	 2.8515643326	-2.103161029	 1.7195879204	 0.259771
H	 4.2779872624	-3.8596440167	 1.8479091733	 0.07428
30.159	53.2234	67.6892	168.3598	226.7699	239.1742	305.6447	330.0508	401.4024	426.2992	483.7372	583.3762	687.0324	764.7191	838.9662	874.9687	903.8398	926.6945	950.4094	988.2752	1032.9589	1059.9351	1074.0901	1106.519	1134.0246	1154.0718	1200.7848	1212.8359	1253.488	1259.8051	1292.4799	1324.8159	1350.495	1384.9257	1405.1594	1422.1765	1429.266	1480.24	1484.6454	1491.051	1496.1328	1528.6564	1803.9752	2937.9013	3004.5667	3010.3651	3024.6487	3033.4199	3069.1463	3106.1905	3112.2207	3113.3212	3134.0807	3630.7865
CC1CC(CNC=O)O1	C[C@H]1C[C@@H](CNC=O)O1	
InChI=1S/C6H11NO2/c1-5-2-6(9-5)3-7-4-8/h4-6H,2-3H2,1H3,(H,7,8)	InChI=1S/C6H11NO2/c1-5-2-6(9-5)3-7-4-8/h4-6H,2-3H2,1H3,(H,7,8)/t5-,6-/m0/s1
