15
gdb 30451	2.78958	1.46978	0.96841	3.1711	76.86	-0.2128	-0.0552	0.1576	1152.8331	0.112031	-453.964778	-453.956537	-453.955593	-453.99806	29.866	
C	-0.0650169139	 1.4571798342	 0.0085238938	-0.325234
N	-0.0000471791	 0.0076051412	 0.0036855708	-0.299397
C	-1.0678016786	-0.6657619131	 0.0090294618	 0.364463
O	-2.3283835972	-0.0257043043	 0.0197515001	-0.275615
C	-3.456026742	-0.7623434665	 0.0251132351	 0.434901
O	-4.5643344714	-0.0163494777	 0.0350098901	-0.395603
C	-3.4366137615	-2.1127998558	 0.0207470314	-0.180447
N	-2.2369048009	-2.7941891633	 0.0104280778	-0.215946
C	-1.1386078271	-2.119893072	 0.0050040866	-0.051794
H	 0.9493910769	 1.861037663	 0.0007575332	 0.128471
H	-0.5992403371	 1.8471514502	-0.8690246916	 0.120453
H	-0.5833763575	 1.8416827036	 0.8979292552	 0.120547
H	-4.3034814666	 0.9140330505	 0.0362416236	 0.313134
H	-4.3554248225	-2.6813559988	 0.0252450962	 0.125809
H	-0.1853146814	-2.6396029712	-0.0031400141	 0.136257
68.3721	116.622	182.6881	191.5703	241.0121	348.6244	384.5684	466.5366	493.4587	533.4789	607.3234	675.5834	719.3687	737.3998	818.8228	885.2196	917.5304	1014.6417	1038.671	1106.5686	1112.3331	1153.4171	1189.6068	1231.7569	1313.7165	1373.8432	1424.7914	1440.062	1484.3693	1499.3933	1591.129	1698.7852	1754.0447	2995.9968	3044.4795	3114.224	3181.5706	3232.4733	3791.9879
CN=C1OC(O)=CN=C1	C[N]C1=C[N]C=C(O1)O	
InChI=1S/C5H6N2O2/c1-6-4-2-7-3-5(8)9-4/h2-3,8H,1H3	InChI=1S/C5H6N2O2/c1-6-4-2-7-3-5(8)9-4/h2-3,8H,1H3
