23
gdb 119375	3.07411	0.9528	0.84661	1.4893	86.33	-0.2465	0.0745	0.3209	1493.7837	0.205481	-388.248255	-388.238799	-388.237855	-388.282821	36.253	
C	-0.0478609611	 1.5542035019	 0.0675199617	-0.378927
C	-0.0064974258	 0.0238264532	 0.0570781777	-0.164897
C	-1.4014201172	-0.6120811233	-0.0119222157	-0.327769
C	-1.3962420228	-2.119671478	-0.0182523892	 0.316939
C	-0.8203981197	-3.0886704666	-1.0991036244	-0.256211
C	-1.4199824424	-4.0246200544	-0.013850987	-0.100837
C	-0.7596589018	-3.0876339011	 1.0389598035	-0.289832
C	-2.6468509824	-3.0647757111	-0.014612348	 0.148236
O	-3.5765021814	-3.0406458954	 1.0323939354	-0.452778
H	 0.9585817829	 1.9813352213	 0.1188325212	 0.110024
H	-0.529409256	 1.9432980882	-0.8365474589	 0.114241
H	-0.6133030687	 1.9286656629	 0.9281434586	 0.113926
H	 0.5918500572	-0.3219053972	-0.7954411023	 0.097914
H	 0.5101451233	-0.3353871314	 0.9563294706	 0.097061
H	-2.0041427509	-0.2676941364	 0.8402473005	 0.097261
H	-1.9219528196	-0.2564289032	-0.9122267904	 0.096105
H	-1.3114480133	-3.0840067724	-2.0772703577	 0.088687
H	 0.2672521667	-3.1100859759	-1.1974331364	 0.094094
H	-1.424677647	-5.1151286333	-0.0156263201	 0.071788
H	 0.3325941551	-3.107300068	 1.0865182545	 0.094871
H	-1.1694142584	-3.0795544537	 2.0551291036	 0.071921
H	-3.2383319301	-3.0564897648	-0.934950816	 0.077086
H	-3.1095000666	-3.0937281212	 1.8723264588	 0.281098
67.1354	82.1829	118.1664	218.7579	249.529	269.3115	300.9645	314.0064	351.8999	478.0954	534.2099	613.8102	682.6342	735.8793	765.2001	818.5864	860.9935	877.1148	899.2232	923.3494	943.9491	957.3061	1010.6426	1026.3014	1047.2031	1062.6672	1099.3723	1103.0171	1137.4643	1150.1261	1169.9585	1185.1962	1214.7778	1229.0295	1246.915	1269.1268	1287.6791	1303.206	1330.4881	1340.642	1396.6538	1412.2658	1450.8275	1476.301	1492.2231	1500.0334	1506.1208	1509.5536	1547.0868	3002.801	3021.2804	3029.3636	3031.0711	3032.7844	3047.5122	3057.5955	3071.8561	3093.5408	3096.6665	3101.1604	3108.9567	3117.0508	3817.0569
CCCC12CC(C1)C2O	CCC[C@@]12C[C@@H](C1)[C@H]2O	
InChI=1S/C8H14O/c1-2-3-8-4-6(5-8)7(8)9/h6-7,9H,2-5H2,1H3	InChI=1S/C8H14O/c1-2-3-8-4-6(5-8)7(8)9/h6-7,9H,2-5H2,1H3/t6-,7-,8+/m1/s1
