16
gdb 26536	2.32425	1.86057	1.0409	5.0966	75.51	-0.217	-0.0193	0.1977	1089.5905	0.124966	-437.944917	-437.936641	-437.935697	-437.977579	31.256	
C	 0.0036798018	 1.5377776798	 0.0288633509	-0.524749
C	 0.0096928647	 0.0334902723	 0.014440433	 0.027808
C	-1.1481922601	-0.6794465472	 0.0470066195	 0.35519
N	-2.4141136111	-0.1508931743	 0.1431022731	-0.566999
O	-1.2019635348	-2.0353959778	 0.03965863	-0.223384
C	-0.0321071844	-2.7276811136	 0.0083451273	 0.053236
C	 1.1658915623	-2.1370141563	-0.0219561748	-0.255463
C	 1.288881011	-0.6710775567	-0.025155742	 0.331862
O	 2.3764702296	-0.1029022586	-0.0590422603	-0.394611
H	 1.0404253034	 1.8792853576	 0.0115949201	 0.165378
H	-0.507213851	 1.963513494	-0.845635041	 0.112881
H	-0.48091831	 1.942631784	 0.9256769284	 0.124816
H	-2.5084655144	 0.8033347038	-0.1673137475	 0.268992
H	-3.15536764	-0.7614091036	-0.167435203	 0.263008
H	-0.2188073885	-3.7938100891	 0.0117365708	 0.140897
H	 2.0694584217	-2.7328443541	-0.0465632544	 0.121137
111.5079	128.6213	190.5669	250.4181	282.1485	343.0727	366.7134	456.2256	490.3473	518.7644	544.18	554.2888	676.1124	687.0061	755.5121	847.8954	848.7729	916.3107	952.7498	1004.1339	1060.2831	1073.2609	1148.682	1221.0455	1272.834	1297.9728	1390.872	1416.7712	1435.748	1492.0697	1501.6362	1617.3702	1645.5607	1706.6916	1727.6252	3007.3561	3057.6075	3134.1616	3212.4008	3232.5309	3581.8001	3694.2756
CC1=C(N)OC=CC1=O	Cc1c(N)occc1=O	
InChI=1S/C6H7NO2/c1-4-5(8)2-3-9-6(4)7/h2-3H,7H2,1H3	InChI=1S/C6H7NO2/c1-4-5(8)2-3-9-6(4)7/h2-3H,7H2,1H3
