20
gdb 72335	2.26435	2.05567	1.5466	1.5454	82.62	-0.2214	0.0348	0.2562	969.3038	0.172595	-365.977436	-365.969976	-365.969032	-366.008748	30.972	
C	-0.0356277985	 1.499657141	 0.0209738456	-0.480528
C	-0.0100584469	-0.0209513182	-0.005388861	 0.351072
C	-1.3311853744	-0.6783659835	-0.4809970853	-0.323704
C	-1.6915753902	-1.6269960435	 0.6417809584	-0.046704
C	-0.8009131558	-1.6451755552	 1.6347715619	-0.073078
C	 0.3409987811	-0.7131482873	 1.3696624786	-0.103279
C	 1.6432900764	-1.2523611925	 0.721092705	-0.05908
N	 1.2519388354	-2.0681120813	-0.453180927	-0.334145
C	 1.3107066252	-0.5949484063	-0.5712851291	-0.108911
H	 0.9042225388	 1.907578106	 0.4101763729	 0.110567
H	-0.185341216	 1.9099359493	-0.9850231889	 0.112859
H	-0.8499165349	 1.8653806479	 0.6558879046	 0.118421
H	-2.1204384236	 0.0656986498	-0.6543024125	 0.090425
H	-1.1949415166	-1.2211752539	-1.4243022952	 0.112895
H	-2.5920201442	-2.2328309019	 0.6101100643	 0.086245
H	-0.87115031	-2.2679772639	 2.5200705991	 0.08609
H	 0.5616356374	-0.0130739553	 2.1823012178	 0.066647
H	 2.6038860373	-1.4022532102	 1.1995080899	 0.086244
H	 2.1127508393	-2.4358495881	-0.8573337949	 0.226469
H	 1.9591897802	-0.1203654029	-1.299995684	 0.081495
154.5853	215.123	250.4304	275.5195	311.9213	377.9999	470.8747	530.8474	610.3394	651.5463	728.1779	775.6914	793.0208	818.3371	837.2838	907.4397	920.2068	929.0826	950.7571	961.5831	974.5013	979.2057	1013.4805	1039.3277	1081.051	1104.7995	1118.4314	1137.7389	1174.9894	1189.2435	1199.0338	1246.811	1266.6473	1313.6606	1318.4689	1332.6104	1372.2345	1383.1999	1408.8086	1472.079	1493.0232	1497.3252	1678.0831	3010.3229	3019.2034	3050.2787	3051.4811	3082.9132	3093.1122	3164.2828	3170.2698	3183.2424	3196.9278	3472.9843
CC12CC=CC1C1NC21	C[C@]12CC=C[C@H]1[C@H]1N[C@@H]21	
InChI=1S/C8H11N/c1-8-4-2-3-5(8)6-7(8)9-6/h2-3,5-7,9H,4H2,1H3	InChI=1S/C8H11N/c1-8-4-2-3-5(8)6-7(8)9-6/h2-3,5-7,9H,4H2,1H3/t5-,6+,7+,8-/m0/s1
