16
gdb 20550	4.43716	1.35649	1.34392	3.8416	65.69	-0.2982	-0.0407	0.2575	987.1256	0.130137	-379.893549	-379.885826	-379.884881	-379.926276	27.756	
C	-0.0356229087	 1.5785119142	 0.1636785024	-0.393458
C	-0.0290808511	 0.0462379239	 0.0180699392	-0.085285
C	 0.857945297	-0.618137083	 1.0861667431	-0.393516
C	-1.4260651856	-0.5036770772	 0.0615057523	 0.347793
N	-1.961934304	-1.1424845762	-0.945210374	-0.159421
O	-3.2256407561	-1.4909073647	-0.5498905141	-0.149882
N	-3.4820344435	-1.0641341024	 0.720962412	-0.060698
C	-2.3952635771	-0.4597415539	 1.1099350133	-0.109679
H	 0.9835945456	 1.9694624851	 0.0889670467	 0.123755
H	-0.6410025532	 2.0491508105	-0.6159154163	 0.13222
H	-0.4384797336	 1.8835764045	 1.1358002992	 0.118578
H	 0.3691901192	-0.2066809392	-0.9701229584	 0.109806
H	 0.8842244864	-1.7041935282	 0.9614301269	 0.132191
H	 1.882302309	-0.240204594	 1.0148949877	 0.123791
H	 0.4932268964	-0.401883611	 2.0964271214	 0.118566
H	-2.3308284708	-0.0223084785	 2.0940872385	 0.145238
40.3657	146.8229	194.4435	225.7615	261.7257	314.9191	418.2829	479.7761	634.2813	651.1982	744.0925	882.853	897.3709	897.7545	933.2593	933.4108	968.3294	1021.4245	1048.8828	1071.2247	1122.1853	1184.8255	1215.7539	1342.9201	1343.1211	1399.8667	1412.7884	1427.8495	1465.0385	1486.987	1490.2039	1502.237	1511.6398	1611.5993	3033.6123	3036.7151	3056.7483	3100.9111	3108.4711	3116.8188	3118.674	3268.198
CC(C)C1=NON=C1	CC(C)c1nonc1	
InChI=1S/C5H8N2O/c1-4(2)5-3-6-8-7-5/h3-4H,1-2H3	InChI=1S/C5H8N2O/c1-4(2)5-3-6-8-7-5/h3-4H,1-2H3
