15
gdb 35071	4.05083	1.37264	1.30973	2.2908	76.29	-0.2453	-0.0534	0.1919	985.1134	0.112539	-379.524281	-379.51741	-379.516465	-379.555523	27.409	
C	-0.0849631503	-1.2497466835	 0.0758883802	-0.441155
C	-0.0477628602	-0.0491236017	 0.0886252311	 0.352224
C	 0.0303898962	 1.4041737334	 0.0724552203	-0.186694
N	-0.4499714473	 1.9615599254	 1.3831001958	-0.190217
C	 0.3718407804	 2.9021574236	 1.6323839413	 0.149328
C	 1.4803776109	 2.6973671135	 2.641255671	-0.257171
C	 2.2365004793	 2.451453889	 1.2810068646	-0.061526
C	 1.4554920769	 1.9993413416	 0.0318955828	-0.059307
N	 1.2999139964	 3.3577778501	 0.5456854956	-0.137503
H	-0.1263144939	-2.3109651197	 0.0687980091	 0.201852
H	-0.5259861127	 1.7902700255	-0.7951792786	 0.124937
H	 1.9154916016	 3.5840769336	 3.1091424591	 0.134376
H	 1.3199152215	 1.8890453963	 3.3523750954	 0.140358
H	 3.3102912571	 2.6108603861	 1.1950422603	 0.117536
H	 2.0505490941	 1.8766091568	-0.870247638	 0.112961
98.2525	156.9647	301.9259	398.6025	444.5513	506.8567	522.032	625.4415	652.5108	664.2993	702.0241	714.2625	781.5214	843.1742	866.3205	905.4944	916.721	981.4008	1004.2649	1033.5206	1056.9304	1071.2523	1100.7047	1134.9344	1150.2781	1209.2437	1233.0006	1291.5842	1330.795	1333.9618	1483.0063	1632.6976	2242.1107	2990.2105	3074.0662	3124.6458	3151.7928	3163.8993	3503.7467
C#CC1N=C2CC3C1N23	C#C[C@H]1[N][C]2C[C@H]3[C@@H]1N23	
InChI=1S/C7H6N2/c1-2-4-7-5-3-6(8-4)9(5)7/h1,4-5,7H,3H2	InChI=1S/C7H6N2/c1-2-4-7-5-3-6(8-4)9(5)7/h1,4-5,7H,3H2/t4-,5+,7-,9?/m1/s1
