20
gdb 56156	3.57453	0.84663	0.78476	1.6116	77.39	-0.2622	0.0315	0.2936	1541.0031	0.168226	-440.279565	-440.269438	-440.268493	-440.3157	36.006	
C	-0.2619586902	 1.3929374924	-0.0965830556	-0.461379
C	 0.0899690782	-0.0623037722	 0.077391247	 0.40409
N	 0.4615336974	-0.672747922	 1.1271262839	-0.521112
O	-0.0417245415	-0.713350588	-1.0971853685	-0.244177
C	 0.2453376384	-2.11706802	-1.0881219798	-0.112165
C	 0.0725926471	-2.6340973324	-2.4953829089	 0.406084
C	 0.8674539115	-1.9388891828	-3.5773422758	-0.464138
C	-0.342989783	-4.0348362256	-2.6588003022	-0.232472
O	-1.277905844	-2.9728867162	-2.8480812091	-0.270116
H	-0.1534636195	 1.9367486248	 0.8429912363	 0.126588
H	 0.3843185037	 1.8496634101	-0.8523249708	 0.145277
H	-1.2924445633	 1.4900815752	-0.4514057816	 0.150707
H	 0.5066512077	-0.0319505211	 1.9158736983	 0.219808
H	 1.268984471	-2.2754386383	-0.7298383766	 0.119522
H	-0.4351465346	-2.6271676284	-0.4007688426	 0.12288
H	 1.9424400445	-2.023124287	-3.3838399404	 0.119775
H	 0.6507740475	-2.3816973648	-4.5520655859	 0.125701
H	 0.6125678237	-0.87655834	-3.6100877648	 0.140174
H	-0.0508283448	-4.5729245929	-3.5598957941	 0.111763
H	-0.5153155796	-4.6612662408	-1.7838497186	 0.113189
45.5156	56.17	115.9523	130.3492	171.9745	200.6017	254.7491	321.8548	366.2468	384.7874	437.6505	518.3705	574.2448	606.5276	743.8284	837.566	854.6264	905.4131	931.6162	937.8095	971.9127	987.6906	1062.7701	1068.2307	1075.0059	1112.0781	1121.1152	1136.1684	1172.8081	1254.1451	1299.6079	1354.085	1382.5669	1404.9967	1414.2651	1442.689	1471.9716	1479.4463	1482.6058	1493.0456	1502.5827	1533.4101	1726.7995	3041.5764	3045.7581	3049.2759	3077.4526	3099.5508	3112.7463	3113.0042	3133.7161	3144.566	3162.0382	3517.0014
CC(=N)OCC1(C)CO1	C[C]([NH])OC[C@@]1(C)CO1	
InChI=1S/C6H11NO2/c1-5(7)8-3-6(2)4-9-6/h7H,3-4H2,1-2H3	InChI=1S/C6H11NO2/c1-5(7)8-3-6(2)4-9-6/h7H,3-4H2,1-2H3/t6-/m0/s1
