15
gdb 128737	2.91523	1.3131	0.91581	2.6982	64.97	-0.2491	-0.0226	0.2265	1229.6784	0.111376	-491.020248	-491.011682	-491.010738	-491.053965	29.757	
C	-0.0113692411	 1.3733381852	 0.0080576852	-0.249173
O	-0.0010169246	-0.05954519	 0.0075066706	-0.254907
C	 0.5967818218	-0.6235112343	-1.0360276975	 0.346345
N	 1.1598077278	-0.0049399178	-2.033024495	-0.184727
O	 1.6376561955	-1.0015750103	-2.8602981793	-0.191942
N	 1.3571456845	-2.2543540752	-2.3524988799	-0.184727
C	 0.7211732414	-2.0409522573	-1.2373173267	 0.346345
O	 0.2539419951	-2.9647621561	-0.405058376	-0.254907
C	 0.4882526485	-4.321868889	-0.8008134188	-0.249173
H	 1.0107408252	 1.7639329489	 0.0084317363	 0.147902
H	-0.5373212056	 1.7530977291	-0.8730901195	 0.147915
H	-0.5323355288	 1.6653876741	 0.9193727048	 0.142615
H	 0.0136556993	-4.5272244175	-1.7651011186	 0.147917
H	 1.5617264188	-4.5170001302	-0.8835864421	 0.1479
H	 0.0469581422	-4.9388533496	-0.0186476736	 0.142615
89.1357	132.9136	156.3027	166.585	180.1494	259.197	289.3269	356.36	451.1739	587.4125	591.1906	668.707	762.9088	788.1787	889.193	960.389	1035.5412	1040.1696	1068.1693	1179.9429	1180.079	1216.9565	1224.1316	1331.7009	1457.2748	1474.4333	1476.6373	1481.3402	1481.3699	1497.7701	1500.134	1628.927	1651.4263	3041.0323	3041.5895	3113.3331	3113.4766	3161.7599	3161.9388
COC1=NON=C1OC	COc1nonc1OC	
InChI=1S/C4H6N2O3/c1-7-3-4(8-2)6-9-5-3/h1-2H3	InChI=1S/C4H6N2O3/c1-7-3-4(8-2)6-9-5-3/h1-2H3
