25
gdb 59780	2.90551	1.08169	0.9584	1.1962	89.07	-0.2419	0.0841	0.326	1404.7779	0.230098	-389.517452	-389.507801	-389.506857	-389.551626	37.459	
C	-0.0482177624	 1.536944984	-0.0516375383	-0.394307
C	 0.0145575917	 0.0076221051	 0.0738480507	 0.017041
C	 0.8401931882	-0.4057810021	 1.3016274545	-0.38684
C	-1.4035438823	-0.5888012633	 0.0793947457	 0.156472
C	-1.4632905433	-2.118838406	-0.0251595715	-0.212037
C	-2.9191127546	-2.6046826397	 0.0416187216	-0.210973
C	-3.6115260087	-2.0236725242	 1.2817980048	-0.192112
C	-3.4251778338	-0.5057030442	 1.3196123275	-0.062007
O	-2.0571899288	-0.1413660135	 1.2648299289	-0.264759
H	 0.9569785775	 1.9683137103	-0.0940860289	 0.104119
H	-0.5825554451	 1.8402154885	-0.9587160281	 0.102845
H	-0.5711027873	 1.9696401531	 0.805980361	 0.129854
H	 0.5069709063	-0.389511061	-0.8249481308	 0.066437
H	 0.3410678494	-0.0920041435	 2.2224689475	 0.131017
H	 0.9923367562	-1.4879289712	 1.3516522011	 0.107932
H	 1.82882962	 0.0633588076	 1.2715469453	 0.104824
H	-1.9449505638	-0.1743641301	-0.792748119	 0.050704
H	-0.9881860488	-2.4409404446	-0.9592186009	 0.089683
H	-0.8942962745	-2.5618030922	 0.8001945352	 0.101475
H	-3.4543758112	-2.2761096119	-0.8601099437	 0.093165
H	-2.9610472646	-3.6991058196	 0.0489226292	 0.093084
H	-4.6805282904	-2.2659992193	 1.2883638314	 0.091029
H	-3.1722960477	-2.4559569247	 2.1894258512	 0.101482
H	-3.9706919731	-0.0431314569	 0.4776589554	 0.080665
H	-3.8180416889	-0.0773801304	 2.2468905301	 0.101205
72.7428	114.2905	186.9056	206.2508	232.9448	247.1144	282.1703	321.5758	365.9094	424.9332	458.6315	483.0219	543.3053	605.4382	796.7108	834.184	852.4465	881.4667	904.2888	928.1014	938.2596	965.4754	968.2719	1023.5424	1046.1176	1061.4163	1098.9519	1113.0744	1141.9216	1173.1684	1196.0843	1212.8682	1232.092	1285.0935	1294.2996	1322.8586	1353.2015	1356.6093	1365.6962	1378.7138	1385.692	1397.0463	1397.9584	1416.8983	1426.2473	1472.9166	1482.431	1489.015	1493.0458	1493.9865	1504.1435	1505.2929	1516.0077	2912.9874	2949.0483	3006.8733	3013.7725	3027.041	3032.0457	3032.6055	3042.0327	3064.5577	3072.1099	3077.5355	3081.4509	3095.9698	3104.2269	3115.9906	3122.2051
CC(C)C1CCCCO1	CC(C)[C@H]1CCCCO1	
InChI=1S/C8H16O/c1-7(2)8-5-3-4-6-9-8/h7-8H,3-6H2,1-2H3	InChI=1S/C8H16O/c1-7(2)8-5-3-4-6-9-8/h7-8H,3-6H2,1-2H3/t8-/m1/s1
