25
gdb 115593	2.80021	0.98964	0.89101	1.3148	89.13	-0.2514	0.0674	0.3188	1503.2934	0.227191	-389.494314	-389.483522	-389.482578	-389.529902	40.54	
C	 0.1131166497	 1.5795199046	 0.1093551709	-0.384117
C	-0.095371586	 0.0691343797	-0.0458163976	-0.192214
C	 0.6806128979	-0.5129569198	-1.2199274644	 0.024931
C	 2.2348932362	-0.5492383937	-1.1758949514	-0.236073
C	 2.1882242927	-1.9408737668	-1.8602402373	-0.274255
C	 0.6885366184	-2.0580944338	-1.4447545674	 0.387459
O	 0.5553169393	-2.6813636944	-0.168922456	-0.484933
C	-0.3070532304	-2.6346154883	-2.449480634	-0.225017
C	-0.128033458	-4.1352190104	-2.7067688047	-0.405501
H	 1.1702373418	 1.8212419238	 0.2653328094	 0.115831
H	-0.2203301451	 2.1230107713	-0.7822895331	 0.108285
H	-0.4455182952	 1.9711636139	 0.9652913721	 0.109115
H	 0.2066890585	-0.4488353828	 0.8699394721	 0.111203
H	-1.1651144921	-0.1409838843	-0.1763418935	 0.090406
H	 0.3560725472	-0.0335519735	-2.1523672961	 0.060353
H	 2.7764569104	 0.2460153711	-1.6927291881	 0.0917
H	 2.6030053779	-0.617184084	-0.1485672944	 0.105791
H	 2.3095926922	-1.8755565642	-2.9457974894	 0.094877
H	 2.8589016277	-2.7155607625	-1.4773823759	 0.08643
H	 0.8689297677	-3.587741406	-0.2496561459	 0.277373
H	-1.3216172626	-2.4432548119	-2.0777621646	 0.101259
H	-0.2067988943	-2.086606751	-3.3942847738	 0.089967
H	 0.8795714276	-4.3616620814	-3.0737155656	 0.117541
H	-0.2969745982	-4.7195668247	-1.7955724515	 0.111652
H	-0.8403293734	-4.4947266607	-3.4550314197	 0.117939
81.6397	91.9482	103.0117	173.249	178.4184	219.7267	243.9458	279.5257	303.4518	318.1049	363.1234	403.2235	458.7015	560.7872	624.1196	732.7401	761.6858	785.7041	804.5271	905.7841	924.466	932.9076	961.2899	965.4077	983.7741	1012.1848	1037.249	1064.7919	1099.3552	1132.4809	1157.5276	1191.9984	1202.8698	1218.8371	1256.63	1265.2026	1287.4354	1302.1321	1321.0764	1327.2203	1343.6472	1379.1176	1397.5411	1409.2131	1413.2483	1468.5461	1477.1582	1486.7465	1494.3501	1500.3533	1502.116	1508.6437	1511.4749	3018.9385	3022.5322	3026.6169	3027.9624	3030.5112	3045.8382	3059.0919	3061.1466	3074.3949	3094.7847	3096.2903	3098.1289	3099.8483	3104.9964	3117.6022	3816.0885
CCC1CCC1(O)CC	CC[C@H]1CC[C@]1(O)CC	
InChI=1S/C8H16O/c1-3-7-5-6-8(7,9)4-2/h7,9H,3-6H2,1-2H3	InChI=1S/C8H16O/c1-3-7-5-6-8(7,9)4-2/h7,9H,3-6H2,1-2H3/t7-,8+/m0/s1
