18
gdb 103027	2.34844	1.73831	1.18287	3.1463	76.88	-0.2464	0.0186	0.2649	1070.165	0.148808	-398.054123	-398.04583	-398.044885	-398.087049	31.395	
C	-1.4999087238	-0.3413762609	 0.0142966062	-0.345212
N	-0.0647129059	-0.0506737713	 0.0109628063	-0.341863
C	 0.652724315	-0.5429926275	-1.1413359448	 0.212911
C	 0.1694067914	 0.0542299425	-2.4029854691	 0.218182
N	-0.2694336103	 0.5774686571	-3.3378605119	-0.351074
C	 2.2131082869	-0.7156137172	-1.0509683081	-0.081699
C	 1.9908424627	-1.875971121	-0.0497249928	-0.217013
C	 1.0071038172	-2.0752016085	-1.2291405347	-0.054842
N	 2.1711571343	-1.7609657986	-2.1460899585	-0.327513
H	-2.0365731027	 0.0460214205	-0.8652325358	 0.129801
H	-1.650048836	-1.4248764662	 0.0558828123	 0.132055
H	-1.9455639755	 0.0917961168	 0.9130587221	 0.13011
H	 0.0881339178	 0.9482083214	 0.1067011165	 0.23246
H	 2.9570772314	 0.0818471472	-1.0350810009	 0.096255
H	 2.8024919259	-2.6008472655	-0.0160231892	 0.116978
H	 1.5671907958	-1.6243738877	 0.9183596539	 0.124434
H	 0.3193542595	-2.897702805	-1.4270918314	 0.097415
H	 1.8327328663	-1.3458094859	-3.0205093502	 0.228614
82.6006	152.7016	161.2011	201.0572	213.4319	345.3711	400.5253	491.0911	504.4555	545.5836	632.339	655.0738	740.4711	806.2251	827.8519	888.122	919.1895	944.3632	1009.1336	1020.1242	1061.7524	1080.4343	1091.021	1138.291	1161.1114	1170.8444	1180.8195	1193.4837	1214.4596	1229.8735	1269.9817	1297.8607	1307.4857	1457.5082	1470.8462	1477.7275	1491.4944	1519.1525	2327.0984	2990.665	3077.2665	3106.6304	3112.1662	3119.7839	3122.0628	3200.4925	3388.1295	3519.9704
CNC1(C#N)C2CC1N2	CN[C@@]1(C#N)[C@H]2C[C@@H]1N2	
InChI=1S/C6H9N3/c1-8-6(3-7)4-2-5(6)9-4/h4-5,8-9H,2H2,1H3	InChI=1S/C6H9N3/c1-8-6(3-7)4-2-5(6)9-4/h4-5,8-9H,2H2,1H3/t4-,5+,6+
