17
gdb 23100	2.29742	1.37939	1.01178	4.0861	75.67	-0.2619	-0.0169	0.245	1189.5412	0.136704	-417.998556	-417.990123	-417.989178	-418.032062	31.276	
O	-0.1402162574	 1.32819022	 0.2318389791	-0.386516
N	 0.007781771	-0.0633338206	 0.2239941751	-0.210406
C	-1.0937112503	-0.6401812188	-0.0345227199	 0.408475
C	-2.4572213405	-0.0329388512	-0.2758881373	-0.295017
C	-3.3736552214	-1.2429423751	-0.5528248035	-0.226054
C	-2.6911040494	-2.415981099	 0.1764788378	-0.223856
C	-1.1765194665	-2.1668496646	-0.0598705556	-0.232597
C	-0.7473801666	-2.6969990395	-1.3587769456	 0.28391
N	-0.4290186108	-3.1186366749	-2.3869882344	-0.32816
H	 0.7527719766	 1.6298706167	 0.4319630163	 0.312565
H	-2.7624450109	 0.5180728231	 0.6222641123	 0.134317
H	-2.4297580106	 0.6987151051	-1.0880721016	 0.140238
H	-4.4008744981	-1.0838177638	-0.2179046171	 0.110747
H	-3.4067263491	-1.4499825249	-1.6274877021	 0.130142
H	-2.8803544963	-2.3584874791	 1.2536941491	 0.115596
H	-3.0143208964	-3.3977981806	-0.1735188091	 0.126885
H	-0.5433696933	-2.608995493	 0.7132875366	 0.139732
63.2924	117.3936	149.1716	225.0262	254.2863	326.4008	399.6009	452.488	466.0054	526.5285	554.7327	634.0718	713.7602	813.3667	839.6968	853.8529	901.2975	936.8254	977.0745	999.1862	1036.2445	1076.7113	1149.9834	1166.208	1208.2134	1239.5441	1253.5029	1308.722	1316.5291	1337.2798	1352.6924	1406.2449	1464.7074	1489.3784	1502.4238	1755.5465	2353.9625	3041.0166	3052.5829	3058.7765	3088.4937	3092.546	3111.8612	3124.1549	3814.7697
ON=C1CCCC1C#N	ON=C1CCC[C@H]1C#N	
InChI=1S/C6H8N2O/c7-4-5-2-1-3-6(5)8-9/h5,9H,1-3H2	InChI=1S/C6H8N2O/c7-4-5-2-1-3-6(5)8-9/h5,9H,1-3H2/t5-/m0/s1
