16
gdb 52564	3.65615	0.67064	0.59039	3.8621	83.95	-0.2524	-0.0204	0.232	1854.2957	0.120984	-400.716622	-400.706106	-400.705162	-400.75538	35.12	
C	 0.0555277282	 1.430893779	 0.0123993152	-0.505347
C	 0.0738522885	-0.0178511457	-0.1009119943	 0.153887
C	 0.0822357538	-1.2187976052	-0.2017844325	-0.050046
C	 0.0426704096	-2.6623554069	-0.357639063	 0.271443
O	-0.7918298858	-3.2369311277	-1.0352532561	-0.363129
N	 1.0265283606	-3.3126517864	 0.3369010616	-0.318104
C	 1.2007347791	-4.7546562667	 0.2429247897	-0.295655
C	 2.5801101502	-5.1279705455	-0.0548380219	 0.284518
C	 3.7231395384	-5.4266940539	-0.2725584827	-0.44237
H	 0.9832775356	 1.8661761441	-0.3743589688	 0.159123
H	-0.7793309764	 1.8597965879	-0.5513368248	 0.163191
H	-0.0476173872	 1.7414935347	 1.0576975941	 0.158518
H	 1.7146684633	-2.7687979787	 0.8316554423	 0.259353
H	 0.879496174	-5.2445977424	 1.1725538082	 0.140471
H	 0.5202639382	-5.0916365938	-0.5455739454	 0.179748
H	 4.7279317397	-5.6997959228	-0.4815118617	 0.204397
14.43	32.0447	50.8822	93.0285	151.8055	221.4373	269.2021	320.4352	327.1433	380.4897	435.3858	469.2222	522.6475	612.4941	620.0471	670.7494	761.7177	826.857	955.5743	996.4387	1049.3314	1052.2463	1064.3914	1136.1498	1240.6356	1266.5996	1375.0398	1411.3243	1471.7653	1474.6011	1485.4092	1521.0559	1750.9479	2242.8923	2356.5078	3008.8773	3032.0768	3085.4347	3095.0372	3099.422	3505.2412	3648.9908
CC#CC(=O)NCC#C	CC#CC(=O)NCC#C	
InChI=1S/C7H7NO/c1-3-5-7(9)8-6-4-2/h2H,6H2,1H3,(H,8,9)	InChI=1S/C7H7NO/c1-3-5-7(9)8-6-4-2/h2H,6H2,1H3,(H,8,9)
