25
gdb 109577	2.40491	1.18723	0.9741	1.2284	88.1	-0.2588	0.0707	0.3295	1368.277	0.228027	-389.481632	-389.470973	-389.470029	-389.516581	40.425	
C	 0.5019915394	 1.3357638626	 0.5509024813	-0.415265
C	 0.4454863666	-0.1539660911	 0.2367427135	 0.030903
C	 1.0754625374	-0.7121668897	-1.0855114266	-0.036272
C	 2.1537753328	 0.1475723754	-1.7472108374	-0.404737
C	 1.5595178135	-1.9522051527	-0.2645413174	 0.036684
C	 2.9248736838	-2.5550262394	-0.5311422436	-0.111001
O	 3.1143776381	-3.6117761021	 0.4061478049	-0.423613
C	 1.2973138584	-1.1742070653	 1.0661144544	-0.002343
C	 2.5285173329	-0.631664532	 1.790005547	-0.411953
H	 1.5219425533	 1.7307776864	 0.5363582182	 0.113096
H	-0.0847202441	 1.9119001487	-0.1737528435	 0.109945
H	 0.0850270484	 1.5394716188	 1.5436211889	 0.111725
H	-0.6029017086	-0.4709101823	 0.2748202365	 0.0672
H	 0.331762218	-0.9621870521	-1.8497802093	 0.061062
H	 2.9446029011	 0.450710565	-1.0552524054	 0.117368
H	 2.6291189624	-0.3902762205	-2.5750184456	 0.110929
H	 1.7160140545	 1.0618056067	-2.1620591767	 0.113062
H	 0.8274196114	-2.7614114158	-0.3567853461	 0.075439
H	 2.9656751813	-2.9335337391	-1.5660555992	 0.082224
H	 3.7173022114	-1.7993318338	-0.4311574075	 0.083075
H	 3.995143111	-3.9747204704	 0.2740574932	 0.284168
H	 0.7079296724	-1.7458615339	 1.7894290607	 0.065179
H	 3.1646544985	-0.012802386	 1.1497116115	 0.109407
H	 2.2373881636	-0.017209206	 2.6486054016	 0.10761
H	 3.1376127325	-1.4629026912	 2.1581373862	 0.126106
83.4393	111.5845	167.5868	209.9541	227.6942	237.5011	251.8759	266.3788	270.8457	289.3639	308.7714	418.1653	444.7	505.4802	535.4976	723.4764	755.2586	764.0893	808.2448	887.9501	978.8911	980.1726	1000.5896	1023.5055	1038.0839	1046.0363	1051.7414	1072.8786	1143.3306	1174.4311	1177.7676	1183.804	1203.6696	1247.1323	1256.8823	1279.7876	1292.2828	1294.9893	1350.9274	1370.2374	1381.8894	1385.9815	1408.2156	1411.4077	1421.3718	1461.0033	1488.1345	1491.7384	1497.2153	1504.407	1508.1175	1513.2799	1525.4738	2962.3619	3005.4907	3022.8218	3027.878	3032.164	3035.7039	3038.99	3043.9974	3060.7588	3085.6635	3091.3324	3098.9585	3104.1133	3106.8384	3115.6063	3826.327
CC1C(C)C(CO)C1C	C[C@H]1[C@@H](C)[C@@H](CO)[C@H]1C	
InChI=1S/C8H16O/c1-5-6(2)8(4-9)7(5)3/h5-9H,4H2,1-3H3	InChI=1S/C8H16O/c1-5-6(2)8(4-9)7(5)3/h5-9H,4H2,1-3H3/t5-,6+,7-,8+
