16
gdb 123639	4.047	1.54264	1.21404	3.1968	74.08	-0.2207	0.0244	0.2451	983.8403	0.12952	-396.920853	-396.914568	-396.913624	-396.951381	25.712	
C	-0.0534088696	 1.5202660364	-0.0037540475	-0.365796
C	 1.4395626349	 1.9053124783	-0.0348752201	-0.017475
N	 2.1996813175	 1.4871459922	 1.1589246937	-0.328065
C	 2.2914419165	 0.6727438001	-0.0877230144	-0.242194
C	 1.3384733483	-0.4638696893	-0.0788730154	 0.286499
C	 0.0512312808	 0.0209979532	-0.002623843	 0.355575
N	-0.7666721557	-1.047172512	 0.0809488811	-0.323604
N	-0.0821398556	-2.2198156299	 0.0418981367	-0.227952
C	 1.2018144628	-1.8645705115	-0.0461168155	-0.170803
H	-0.5479180264	 1.9214555193	 0.8875939653	 0.129953
H	-0.5812387615	 1.9103040369	-0.8828380365	 0.114908
H	 1.7277259727	 2.8204186994	-0.5411202365	 0.090466
H	 3.0286705996	 2.0749436491	 1.2334705515	 0.227891
H	 3.2309406492	 0.6451098534	-0.628193351	 0.091943
H	-1.7697685774	-1.0800721628	 0.1449257124	 0.269979
H	 1.9578255739	-2.6348964229	-0.0871895907	 0.108675
157.5589	226.8604	354.9365	421.3188	461.0402	510.1353	600.7412	683.4983	702.2674	726.6044	785.166	813.3555	846.4822	884.9483	887.7217	932.2875	978.3073	994.5282	1060.6266	1096.5084	1115.7099	1138.4991	1179.0439	1185.5399	1218.4495	1231.7799	1281.2902	1325.9903	1341.0347	1380.0923	1419.9352	1457.7643	1475.5704	1547.8692	1592.2753	3029.6002	3072.1642	3164.4484	3176.9823	3244.0934	3475.706	3674.084
C1C2NC2C2=C1NN=C2	C1[C@H]2N[C@H]2c2c1[nH]nc2	
InChI=1S/C6H7N3/c1-4-3(2-7-9-4)6-5(1)8-6/h2,5-6,8H,1H2,(H,7,9)	InChI=1S/C6H7N3/c1-4-3(2-7-9-4)6-5(1)8-6/h2,5-6,8H,1H2,(H,7,9)/t5-,6+/m1/s1
