18
gdb 73517	3.16378	1.68083	1.34579	2.9688	78.36	-0.2186	0.0118	0.2304	980.1698	0.149472	-401.888004	-401.880925	-401.879981	-401.919033	29.552	
O	 0.0118012367	 1.3975899204	-0.2788864394	-0.493192
C	 0.0036294488	 0.0082701393	-0.070969528	 0.413861
C	 1.1219945451	-0.6234549943	-0.9095625204	-0.292099
C	 2.2991884092	-0.7427356289	 0.1113966694	-0.247259
C	 1.5695134624	-0.9905220724	 1.4338399964	-0.231166
C	 0.3252015666	-0.5361749378	 1.3313451855	 0.291519
C	-1.0910546664	-0.8788387483	 1.6154942438	-0.191899
N	-1.9455676902	 0.2891195589	 1.2462874854	-0.359333
C	-1.4254290832	-0.5814523291	 0.1678879287	-0.137629
H	-0.6470002438	 1.751166211	 0.3368005999	 0.287039
H	 0.8354422772	-1.6263258079	-1.2425450534	 0.098497
H	 1.3549639832	-0.0173343325	-1.7885064509	 0.107816
H	 2.9693092493	-1.5726525369	-0.1357200065	 0.099347
H	 2.9138100166	 0.1663726381	 0.1270860851	 0.118444
H	 1.990361445	-1.5800076036	 2.2406884692	 0.092479
H	-1.4802652866	-1.6556071241	 2.2614261644	 0.104822
H	-2.9138607959	 0.0268264986	 1.425596835	 0.237472
H	-2.0946547241	-1.1108268806	-0.5009482742	 0.101282
153.7462	244.8843	258.9998	307.9302	376.9817	468.096	522.9936	572.9065	616.3017	667.8419	704.7935	754.8244	802.8026	821.5046	849.0259	877.1374	896.8884	907.9289	940.164	952.0681	995.7081	1035.2055	1061.2582	1068.9503	1105.9526	1121.7764	1137.2727	1199.4442	1225.074	1253.9741	1272.1654	1288.4871	1310.0633	1324.7034	1358.2356	1421.4225	1471.3596	1487.7278	1737.6964	3026.3503	3050.8003	3073.9246	3111.3312	3177.1996	3189.9556	3200.1963	3482.6198	3724.0563
OC12CCC=C1C1NC21	O[C@@]12CC[CH][C]1[C@H]1N[C@@H]21	
InChI=1S/C7H9NO/c9-7-3-1-2-4(7)5-6(7)8-5/h2,5-6,8-9H,1,3H2	InChI=1S/C7H9NO/c9-7-3-1-2-4(7)5-6(7)8-5/h2,5-6,8-9H,1,3H2/t5-,6-,7+/m1/s1
