21
gdb 98288	2.51282	1.09644	0.80764	2.9236	79.35	-0.257	-0.0236	0.2334	1460.8444	0.180123	-424.236073	-424.225897	-424.224953	-424.272306	36.753	
C	-0.0935987681	 1.4125650016	 0.1126632555	-0.378018
C	 0.2006321227	-0.0816256447	-0.0076522257	-0.280265
C	 0.8186568626	-0.4727624574	-1.3336862769	 0.353742
O	 1.1292327821	 0.345925974	-2.1747602995	-0.328375
C	 1.0543569277	-1.963078787	-1.6359151876	 0.030243
O	 1.5729563536	-2.0981188848	-2.9320840191	-0.43937
C	 1.9740719548	-2.6088399118	-0.6134131512	 0.012149
C	 1.4144269555	-3.2817396852	 0.6178373321	-0.271883
C	 1.9980108194	-4.1093012342	-0.4981190161	-0.269102
H	 0.8193033755	 2.0007807172	-0.0072998188	 0.134948
H	-0.794216095	 1.7383526004	-0.6606023516	 0.131518
H	-0.5274807146	 1.640063336	 1.0900723016	 0.113254
H	 0.8809358458	-0.4188500831	 0.7849461539	 0.140966
H	-0.708542097	-0.6816627824	 0.1306638845	 0.124075
H	 0.0700603166	-2.4620709611	-1.5688738525	 0.077803
H	 1.6464932844	-1.1898869853	-3.2694897046	 0.290817
H	 2.9305972286	-2.1037563937	-0.5063333276	 0.090449
H	 1.9677770235	-3.1949685652	 1.5462036286	 0.114962
H	 0.3370221421	-3.2967864513	 0.7471224964	 0.111888
H	 1.3151210075	-4.6709516794	-1.1262715096	 0.123196
H	 2.9549772824	-4.5923106824	-0.3381376019	 0.117003
40.0765	63.6705	86.3696	139.2323	191.5478	216.3089	273.0784	300.0126	363.7073	382.8871	447.8383	530.0512	548.0085	680.7932	748.9404	784.9341	826.3736	854.9168	884.7574	941.0347	963.0551	993.5344	1034.4922	1058.3698	1069.6009	1079.8893	1123.6636	1132.5743	1164.6413	1168.8905	1196.9552	1224.507	1260.4331	1286.5613	1318.0247	1373.6766	1403.6588	1414.7305	1442.0207	1448.0668	1470.806	1493.4717	1498.7206	1505.1769	1788.1224	2936.4004	3030.2419	3052.8186	3057.8781	3123.9356	3129.7321	3131.0232	3138.6829	3142.7028	3210.2401	3227.7518	3665.0933
CCC(=O)C(O)C1CC1	CCC(=O)[C@@H](O)C1CC1	
InChI=1S/C7H12O2/c1-2-6(8)7(9)5-3-4-5/h5,7,9H,2-4H2,1H3	InChI=1S/C7H12O2/c1-2-6(8)7(9)5-3-4-5/h5,7,9H,2-4H2,1H3/t7-/m0/s1
