16
gdb 97343	3.14532	0.82149	0.68757	0.1378	76.29	-0.2632	-0.0267	0.2365	1625.124	0.120313	-437.87756	-437.867597	-437.866653	-437.914313	33.834	
C	 0.7164933646	 1.146088273	 0.2523577101	-0.31941
N	 0.9741162394	-0.2544682918	-0.0213099198	-0.186634
C	 0.5645088539	-0.7094917073	-1.1134604752	 0.116528
O	 0.8083575051	-2.0363100404	-1.3987581336	-0.208282
C	 0.3044798135	-2.5437083016	-2.5599869136	 0.449744
O	-0.3786342375	-1.9351448936	-3.3345647169	-0.332139
C	 0.7097323017	-4.006445551	-2.7105194102	-0.436598
C	 2.1532314234	-4.1988515703	-2.7416355536	 0.303039
C	 3.3427227814	-4.3548119849	-2.7839910539	-0.441066
H	 1.669314844	 1.6595535371	 0.4195699867	 0.138131
H	 0.1709214358	 1.667988666	-0.5484660187	 0.107843
H	 0.1416194072	 1.2301209709	 1.1807521394	 0.137452
H	 0.0232483983	-0.1832106491	-1.902230731	 0.135672
H	 0.276116398	-4.5599895906	-1.8676943378	 0.16513
H	 0.2420828865	-4.3719193933	-3.6283995351	 0.163696
H	 4.3952726845	-4.492817763	-2.8130742067	 0.206894
25.8422	62.7378	82.8733	133.3893	164.308	212.7262	306.4498	323.9492	332.0095	387.7531	443.2994	544.9648	603.1948	630.0168	654.4471	754.3984	918.0361	952.272	985.843	986.4407	1063.0764	1119.646	1141.195	1175.1974	1184.7396	1266.1225	1320.0182	1370.9065	1447.1611	1451.8377	1480.3166	1501.1932	1779.9055	1844.872	2248.6724	2986.2717	3035.0895	3073.3431	3091.4826	3103.4236	3116.2847	3505.5827
CN=COC(=O)CC#C	CN=COC(=O)CC#C	
InChI=1S/C6H7NO2/c1-3-4-6(8)9-5-7-2/h1,5H,4H2,2H3	InChI=1S/C6H7NO2/c1-3-4-6(8)9-5-7-2/h1,5H,4H2,2H3
