24
gdb 97459	5.95403	0.48177	0.45782	2.9534	92.37	-0.2445	0.0282	0.2728	2481.6316	0.214146	-405.554336	-405.542575	-405.541631	-405.593357	40.503	
C	 0.0263415662	 1.4009722121	-0.0142348146	-0.313794
N	 0.0810271828	-0.043219082	-0.0896382896	-0.205874
C	-1.0075392295	-0.6671013563	-0.0008282068	 0.134058
O	-1.038723121	-2.0123268354	-0.0490339755	-0.205362
C	-2.3363304742	-2.6129108275	 0.0006887076	-0.086164
C	-2.1427095916	-4.1203583474	 0.0849362734	-0.182776
C	-3.4482766103	-4.9320383733	 0.014738436	 0.035614
C	-3.1327924274	-6.4311196267	-0.0773626894	-0.389383
C	-4.3843477325	-4.6493764337	 1.1996296435	-0.383563
H	 0.4601411455	 1.8346042729	-0.9227537983	 0.126229
H	-0.9917890153	 1.8068669222	 0.1090736737	 0.092981
H	 0.6377095476	 1.7503297404	 0.825964558	 0.126355
H	-1.9938673355	-0.1905820461	 0.1247888601	 0.06808
H	-2.8864237958	-2.2286296369	 0.8691078128	 0.10669
H	-2.9031703046	-2.3468952785	-0.9034337226	 0.104049
H	-1.483144215	-4.4162949603	-0.7390390017	 0.111206
H	-1.6060461081	-4.3563346871	 1.0127416736	 0.107077
H	-3.9738822024	-4.6433970249	-0.9075470825	 0.073391
H	-2.6032430258	-6.7749161347	 0.8190901337	 0.115175
H	-4.0496366639	-7.022524759	-0.1680921623	 0.110946
H	-2.5004442528	-6.6540372981	-0.9428280758	 0.113627
H	-3.8925822684	-4.8876621456	 2.1505012346	 0.115536
H	-4.6992755208	-3.6022196715	 1.2406689455	 0.11177
H	-5.2904170972	-5.2604840926	 1.1339166267	 0.114132
20.388	48.0245	82.475	91.6052	125.0982	205.683	213.277	222.8262	244.9398	266.9698	309.345	357.7566	407.9436	425.6877	505.0919	612.6887	790.949	834.3564	927.6925	948.3354	965.944	984.0668	994.1407	1021.6202	1065.8555	1082.7256	1141.317	1151.4743	1160.5974	1187.9761	1193.4759	1244.0889	1260.5776	1304.9678	1320.7641	1364.8216	1376.0008	1398.7148	1402.8282	1423.6546	1438.1272	1450.2206	1480.0257	1482.6198	1488.7623	1497.1345	1504.5717	1505.8959	1510.2953	1521.5744	1780.7699	2961.5641	2977.5051	2993.4469	2998.682	3024.4603	3027.0842	3032.3818	3040.8647	3055.031	3074.2854	3076.6602	3090.2402	3096.6009	3100.555	3103.0053
CN=COCCC(C)C	CN=COCCC(C)C	
InChI=1S/C7H15NO/c1-7(2)4-5-9-6-8-3/h6-7H,4-5H2,1-3H3	InChI=1S/C7H15NO/c1-7(2)4-5-9-6-8-3/h6-7H,4-5H2,1-3H3
