15
gdb 128337	2.31219	1.56722	0.94188	1.7249	78.31	-0.2065	-0.0174	0.1891	1186.2097	0.113448	-412.956983	-412.948404	-412.94746	-412.990367	31.099	
C	-0.052178411	 1.4314980347	-0.0593373926	-0.323365
N	 0.1866247648	 0.0024293557	 0.0481096623	-0.400922
C	 0.6753250384	-0.6877981644	-1.0270150549	 0.287851
N	 1.2488327054	-0.1069153651	-2.0809327121	-0.282394
N	 1.6125624537	-1.1568527738	-2.834092188	-0.105604
N	 1.3216723861	-2.3541496737	-2.3787884367	-0.275319
C	 0.711651865	-2.1025080264	-1.2088980019	 0.148167
C	 0.2010726822	-3.0889783646	-0.3409986295	 0.247662
C	-0.2647732032	-3.8751419597	 0.4442308265	-0.429961
H	 0.8808702856	 1.9394085013	-0.3160304799	 0.15133
H	-0.7964206825	 1.6884046396	-0.8268590995	 0.121603
H	-0.3952163371	 1.8044110303	 0.9080193452	 0.124473
H	-0.4750102632	-0.5208719669	 0.6006306468	 0.249503
H	 2.0830286759	-1.0281801829	-3.7141698391	 0.292834
H	-0.6622161602	-4.585765694	 1.1257559336	 0.19414
97.7827	118.1894	145.9082	177.1786	223.8945	337.506	392.5508	428.2556	486.7774	510.0445	552.2014	583.2685	616.4624	681.291	691.0433	781.9246	786.0356	980.9807	1078.3986	1134.4599	1159.1966	1193.042	1211.4032	1287.8763	1338.9348	1443.5514	1455.7791	1466.6379	1482.4296	1515.8747	1562.6006	1617.9453	2231.2269	3001.4056	3090.4277	3133.4231	3502.3114	3619.9817	3679.8688
CNC1=NNN=C1C#C	CNc1n[nH]nc1C#C	
InChI=1S/C5H6N4/c1-3-4-5(6-2)8-9-7-4/h1H,2H3,(H2,6,7,8,9)	InChI=1S/C5H6N4/c1-3-4-5(6-2)8-9-7-4/h1H,2H3,(H2,6,7,8,9)
