21
gdb 89108	3.99889	0.60289	0.57347	4.3351	81.06	-0.2747	0.0104	0.2852	1959.9998	0.180807	-424.239063	-424.22888	-424.227936	-424.276154	35.634	
C	 0.3338356217	 1.6310282902	-0.0473240244	-0.405273
C	 0.1833953426	 0.1266853689	 0.0221057586	-0.004287
C	 1.3883507299	-0.7793355771	 0.0963501133	-0.294037
C	 0.4465807996	-0.675227578	 1.2779989979	 0.003046
C	 0.8932601274	-0.0479312084	 2.582330579	-0.220625
C	 1.6251788876	-1.0570507827	 3.4635428105	-0.080568
O	 1.9499243066	-0.4786301969	 4.735866831	-0.17464
C	 3.2336407969	-0.1634936414	 4.9794261954	 0.169907
O	 3.5946939905	 0.3548051511	 5.9929290133	-0.275878
H	 1.1984966254	 1.9864386108	 0.5203149549	 0.11715
H	 0.4724050839	 1.9550499413	-1.084524703	 0.120729
H	-0.5533739071	 2.1416553605	 0.3435275632	 0.12032
H	-0.6395924807	-0.2516040991	-0.5792894314	 0.086971
H	 1.4038444213	-1.6924998744	-0.488445654	 0.112009
H	 2.358903567	-0.2999280879	 0.1918597165	 0.10718
H	-0.2166657542	-1.5265506584	 1.41743883	 0.083918
H	 1.5579247376	 0.8029743744	 2.3986956474	 0.104202
H	 0.0323568624	 0.3406253601	 3.1395822059	 0.118326
H	 0.9933472953	-1.9253026586	 3.6743808086	 0.124027
H	 2.536831551	-1.4166884438	 2.9693275743	 0.11458
H	 3.9087725851	-0.4437182605	 4.1457131829	 0.072943
30.6903	56.82	83.2402	112.7573	160.1746	199.4409	244.4012	311.6854	354.1956	380.1044	440.1931	510.0916	670.31	756.9609	787.7949	838.5052	869.6741	905.1204	943.6247	1005.1924	1035.9944	1047.1179	1054.9483	1073.7947	1091.5191	1112.0975	1148.6198	1153.7044	1199.098	1200.5538	1248.621	1280.6783	1303.5487	1333.3123	1391.0056	1407.311	1419.6707	1430.2959	1434.9782	1484.3679	1493.5111	1497.5461	1506.6805	1509.766	1866.188	2933.5389	3024.8752	3030.8555	3039.3143	3071.3453	3089.8938	3093.7551	3105.4227	3121.4523	3122.941	3138.7405	3206.8683
CC1CC1CCOC=O	C[C@H]1C[C@H]1CCOC=O	
InChI=1S/C7H12O2/c1-6-4-7(6)2-3-9-5-8/h5-7H,2-4H2,1H3	InChI=1S/C7H12O2/c1-6-4-7(6)2-3-9-5-8/h5-7H,2-4H2,1H3/t6-,7+/m0/s1
