21
gdb 108873	2.85029	1.0721	0.84508	2.2955	81.85	-0.2377	0.0099	0.2476	1419.438	0.182588	-424.231895	-424.222542	-424.221598	-424.266271	35.04	
C	-0.2360042373	 1.5588524984	 0.0050333348	-0.373126
C	 0.0641828708	 0.0485922609	 0.0224196202	-0.275051
C	 0.8207521523	-0.4344051033	-1.1904411688	 0.281173
C	 2.1141702238	-0.7635333209	-1.167021205	-0.213896
C	 2.8469864947	-1.2962743056	-2.3696951551	 0.078602
O	 3.7276558853	-2.3642712808	-2.0289240681	-0.429102
C	 1.8318532125	-1.7367237302	-3.4319441091	-0.108337
O	 0.841189734	-0.7472012171	-3.6274116266	-0.24241
C	 0.0401804623	-0.5467662441	-2.4810030595	-0.15363
H	 0.6915101295	 2.1376792743	-0.0373559468	 0.125646
H	-0.8469178057	 1.8438479324	-0.8569642806	 0.12123
H	-0.7807675079	 1.8532522938	 0.9072843687	 0.116591
H	 0.6401721224	-0.1937526499	 0.9219340068	 0.105842
H	-0.8841976386	-0.5011697833	 0.1023806312	 0.101925
H	 2.6949756751	-0.6818603617	-0.2498795891	 0.085443
H	 3.5033160195	-0.524851188	-2.7916346295	 0.102055
H	 3.2121405651	-3.0155172825	-1.5392599062	 0.276442
H	 2.3166759072	-1.898279555	-4.3977487589	 0.113696
H	 1.3777607836	-2.6922061736	-3.1130031534	 0.073229
H	-0.7000944779	-1.3637751716	-2.3797721478	 0.09556
H	-0.5303952409	 0.3697385879	-2.6685002872	 0.118119
60.3561	109.3056	137.4949	199.4241	248.6918	290.8516	299.8311	326.4281	393.7114	453.2359	470.4949	534.1905	567.1818	612.0215	782.1298	871.8325	882.0371	915.6268	944.9803	981.9582	1008.9458	1044.3157	1057.9941	1091.2434	1093.6793	1128.1946	1156.9701	1192.7826	1239.0685	1258.6524	1275.8886	1307.4196	1338.9977	1351.0238	1351.3327	1392.276	1408.7424	1410.6868	1422.8297	1480.3731	1483.569	1495.7757	1499.8804	1506.9045	1730.9523	2922.1275	2946.5583	3010.921	3032.5409	3039.7151	3058.7023	3065.2924	3100.9057	3109.6481	3114.9728	3143.1876	3791.9396
CCC1=CC(O)COC1	CCC1=C[C@@H](O)COC1	
InChI=1S/C7H12O2/c1-2-6-3-7(8)5-9-4-6/h3,7-8H,2,4-5H2,1H3	InChI=1S/C7H12O2/c1-2-6-3-7(8)5-9-4-6/h3,7-8H,2,4-5H2,1H3/t7-/m1/s1
