15
gdb 61698	2.31336	1.16876	0.98385	3.3715	73.75	-0.2496	-0.0272	0.2224	1237.0327	0.106607	-420.548055	-420.538026	-420.537082	-420.583357	35.676	
O	 0.1162153197	 1.379772377	 0.14079478	-0.424194
C	 0.0121510797	-0.0396401857	-0.0080623412	-0.077198
C	 0.6599056635	-0.6263648422	 1.2684372825	-0.279983
C	-0.0860935981	-0.250593146	 2.5385756081	 0.155951
O	-0.1167600617	-0.9534959526	 3.514921292	-0.246546
C	-1.4011205181	-0.4485087017	-0.1063855592	 0.336383
C	-2.5596386589	-0.7596214342	-0.170549642	-0.468096
C	 0.7426713474	-0.4942924279	-1.202850211	 0.323491
C	 1.3548945948	-0.8473640386	-2.1740033929	-0.43105
H	-0.3341564878	 1.787436066	-0.6080163018	 0.294127
H	 0.7379054544	-1.712685708	 1.2020950152	 0.143605
H	 1.6730618782	-0.2103059363	 1.3308287502	 0.149852
H	-0.5838951793	 0.7400319791	 2.5156038365	 0.104291
H	-3.5831056831	-1.0397166349	-0.2283700443	 0.212524
H	 1.8920240093	-1.1612493541	-3.0353566421	 0.206842
53.1596	100.5317	120.9431	126.7955	178.4516	221.6045	282.175	321.1329	386.5478	436.8694	476.7608	514.4312	560.3843	623.1763	647.7824	654.8049	674.6068	676.5655	697.227	799.3719	960.653	1014.6926	1039.5158	1110.444	1132.7227	1239.3472	1302.8362	1360.5921	1424.251	1435.7215	1832.7681	2234.6807	2238.0612	2932.5562	3048.3221	3133.176	3497.4309	3498.0668	3805.7097
OC(CC=O)(C#C)C#C	OC(CC=O)(C#C)C#C	
InChI=1S/C7H6O2/c1-3-7(9,4-2)5-6-8/h1-2,6,9H,5H2	InChI=1S/C7H6O2/c1-3-7(9,4-2)5-6-8/h1-2,6,9H,5H2
