16
gdb 39860	3.20133	1.89509	1.53327	1.4036	67.07	-0.2342	0.0472	0.2814	870.8133	0.126053	-437.783824	-437.777639	-437.776695	-437.814221	25.728	
C	-0.0194702415	 1.4574895483	-0.0386180185	-0.318985
N	 1.2150546835	 0.6454245715	 0.0794149853	-0.379411
C	-0.0793053812	-0.0126076571	 0.0046509168	 0.464527
C	-0.5491741796	-0.9481619276	 1.1115676966	-0.073623
O	 0.2615987702	-2.1331432913	 0.8309506385	-0.286542
C	-0.559535386	-2.2914302582	-0.322669573	 0.06096
C	-1.7717256558	-1.6090953184	 0.3129136887	 0.060151
O	-2.0588165166	-0.8178379776	-0.8437854725	-0.287832
C	-0.6244231076	-0.8956413716	-1.1134545868	-0.098344
H	-0.2604432531	 2.0428901209	 0.844433325	 0.124268
H	-0.2437007592	 1.9487359927	-0.9821185901	 0.118524
H	 1.6950210071	 0.5972715826	-0.8165412427	 0.23413
H	-0.5484627598	-0.6384826402	 2.1534064036	 0.093478
H	-0.4979954742	-3.2455690644	-0.8416721408	 0.101176
H	-2.6238307848	-2.0535724282	 0.8227106358	 0.102038
H	-0.3483560513	-0.7295255413	-2.153497256	 0.085485
158.555	253.972	300.8647	447.7283	495.6863	592.5289	603.1798	736.0402	763.9146	796.2185	844.0716	863.0697	869.6069	908.9507	920.2172	937.7874	959.8121	975.2136	990.5768	1011.0824	1053.6752	1088.7876	1106.5514	1136.3594	1146.335	1170.7071	1193.174	1221.1981	1244.5027	1256.9821	1276.1429	1314.6463	1333.9139	1442.4038	1522.6756	3107.6908	3138.3072	3143.6325	3154.3096	3166.0396	3191.8673	3491.9088
C1NC11C2OC3C2OC13	C1N[C@]21[C@@H]1O[C@H]3[C@@H]1O[C@@H]23	
InChI=1S/C6H7NO2/c1-6(7-1)4-2-3(9-4)5(6)8-2/h2-5,7H,1H2	InChI=1S/C6H7NO2/c1-6(7-1)4-2-3(9-4)5(6)8-2/h2-5,7H,1H2/t2-,3-,4+,5+/m0/s1
