15
gdb 133093	3.77299	1.05553	0.83834	2.5227	69.99	-0.2593	-0.0334	0.2259	1267.3175	0.113557	-461.969609	-461.962018	-461.961074	-462.002295	28.279	
O	 0.3631483251	 0.9917691349	 0.8079120885	-0.402341
C	 0.0063700483	 0.1120609788	-0.2398510126	-0.151005
C	-1.4132185867	-0.4110754144	-0.1463764966	 0.262795
C	-2.0883685289	-0.4574963825	 1.0772796735	-0.202413
C	-3.3785479608	-0.9680422953	 1.1081424973	 0.006783
N	-4.0241903453	-1.4256238274	 0.0270707089	-0.321355
C	-3.3667650523	-1.3710058819	-1.1082438401	 0.362261
F	-4.0111847988	-1.8222007361	-2.1821249431	-0.073457
C	-2.0759718268	-0.8796831628	-1.2763448497	-0.364186
H	-0.1886904348	 1.7779385054	 0.7365075822	 0.289003
H	 0.1653973013	 0.5671252242	-1.2292272147	 0.10622
H	 0.7053824663	-0.7297997889	-0.1655176562	 0.140575
H	-1.6066367791	-0.099850212	 1.9784574639	 0.116312
H	-3.9298587842	-1.0166089314	 2.0435000857	 0.1196
H	-1.6232062732	-0.8669193206	-2.2612857269	 0.111206
60.2216	173.084	220.5279	233.7489	335.1044	372.6354	463.4256	467.5106	566.4985	578.9786	650.1569	762.5789	778.2735	862.911	897.2753	953.6789	986.3798	997.2351	1006.8732	1090.6584	1126.5022	1167.9752	1210.641	1294.1308	1318.7628	1331.5668	1382.1521	1409.8081	1448.3953	1490.1544	1514.594	1612.5455	1644.7952	2992.0085	3055.4896	3164.8552	3195.8348	3217.1267	3810.8265
OCC1=CC=NC(F)=C1	OCc1ccnc(F)c1	
InChI=1S/C6H6FNO/c7-6-3-5(4-9)1-2-8-6/h1-3,9H,4H2	InChI=1S/C6H6FNO/c7-6-3-5(4-9)1-2-8-6/h1-3,9H,4H2
