15
gdb 27573	3.51108	1.25856	0.93179	1.6204	84.75	-0.2511	-0.0605	0.1906	1203.4526	0.112672	-379.700933	-379.692823	-379.691879	-379.734632	29.502	
C	-0.0249327552	 1.4909282376	 0.0040488897	-0.463858
C	 0.0138808785	-0.0117500949	-0.0034639161	 0.35161
N	-0.0258258596	-0.6222795088	-1.1904785288	-0.329704
C	 0.0094226639	-1.9664785373	-1.1868526725	 0.163378
C	 0.0842362754	-2.6927068903	 0.0040977283	-0.184896
C	 0.1198836529	-1.9513192367	 1.1773699978	 0.011931
N	 0.0858339013	-0.620343556	 1.1921186887	-0.282487
C	-0.0322185262	-2.6367040847	-2.4489449676	 0.22361
C	-0.0657779219	-3.2289332598	-3.4955196004	-0.355435
H	 0.8681317148	 1.8879563475	 0.4967957356	 0.142353
H	-0.0829645277	 1.8751581477	-1.0141498493	 0.139221
H	-0.8871004985	 1.8421982051	 0.5796050293	 0.142349
H	 0.1125030733	-3.7745750436	 0.0042573718	 0.118306
H	 0.1781731486	-2.446403611	 2.1444990521	 0.120796
H	-0.0961033097	-3.737986925	-4.4274587186	 0.202826
29.9417	132.3719	144.0275	183.0869	351.6779	357.3564	449.564	485.0579	555.4628	585.0384	637.932	653.2279	659.1113	742.8099	806.1783	870.6856	934.325	1004.0524	1007.1825	1017.9514	1067.8722	1126.9673	1235.884	1258.8327	1316.1119	1390.0822	1417.2707	1462.9981	1478.3954	1482.6295	1583.7235	1607.7483	2234.2732	3049.0609	3106.4637	3152.6186	3159.3936	3219.7163	3500.4014
CC1=NC(=CC=N1)C#C	Cc1nc(ccn1)C#C	
InChI=1S/C7H6N2/c1-3-7-4-5-8-6(2)9-7/h1,4-5H,2H3	InChI=1S/C7H6N2/c1-3-7-4-5-8-6(2)9-7/h1,4-5H,2H3
