19
gdb 18957	5.83461	1.40464	1.37635	1.5612	75.91	-0.2261	0.0881	0.3142	989.2526	0.166234	-327.830917	-327.823802	-327.822858	-327.862253	27.861	
C	 0.0254326985	 1.5889520399	-0.019702319	-0.374474
C	-0.1614230477	 0.0685520787	 0.0424248289	-0.214792
C	 0.5999840223	-0.5561432641	 1.198074698	 0.073617
C	 0.912848673	-2.0513661778	 1.2497212664	-0.092173
C	 2.0954531515	-1.8451795414	 0.2530956305	-0.00588
C	 3.1305507191	-2.5081873436	 1.1656161591	-0.258145
C	 2.1881009303	-1.7292068966	 2.0851540046	 0.003465
N	 2.1308448166	-0.5333182527	 1.0948064149	-0.172414
H	 1.0848141876	 1.8420128678	-0.120319795	 0.137532
H	-0.5137698996	 2.0218729808	-0.8676183298	 0.108337
H	-0.3452580519	 2.0693519971	 0.8925877042	 0.112241
H	-1.2262711562	-0.1753395368	 0.1547035417	 0.095541
H	 0.1576613823	-0.3836590798	-0.9043064337	 0.094647
H	 0.2724802638	-0.1166257867	 2.1510490579	 0.062979
H	 0.2505219972	-2.920338139	 1.3389540775	 0.06024
H	 2.0622898769	-1.8100258532	-0.8361301793	 0.083246
H	 3.1028744453	-3.5985271523	 1.235441105	 0.097793
H	 4.1533591798	-2.1297821227	 1.0894686222	 0.108092
H	 2.2441069911	-1.5444431274	 3.159723936	 0.080148
88.1353	168.1295	191.979	275.6167	358.905	465.3694	517.6156	706.6341	716.3103	814.1838	820.8802	849.9929	867.5522	880.0832	898.7709	923.0363	973.4013	1020.861	1024.1642	1031.7347	1059.9336	1086.4494	1124.9147	1140.4988	1146.635	1151.3192	1185.9895	1197.7441	1231.6808	1251.4683	1272.2279	1292.6838	1317.9927	1343.3465	1408.4685	1426.5996	1482.8455	1491.236	1497.0037	1509.2633	3004.3918	3020.6779	3033.7199	3035.5722	3055.9797	3057.9666	3096.9064	3101.4849	3111.0139	3116.7075	3122.0916
CCC1C2C3CC2N13	CC[C@H]1[C@H]2[C@@H]3C[C@H]2N13	
InChI=1S/C7H11N/c1-2-4-7-5-3-6(7)8(4)5/h4-7H,2-3H2,1H3	InChI=1S/C7H11N/c1-2-4-7-5-3-6(7)8(4)5/h4-7H,2-3H2,1H3/t4-,5-,6+,7-/m0/s1
