18
gdb 31650	3.593	1.10253	0.8556	1.5274	76.6	-0.1676	0.0622	0.2298	1341.7242	0.148253	-435.30214	-435.292704	-435.29176	-435.336492	34.013	
C	 0.058124962	 1.35232948	-0.1329353219	-0.32115
N	-0.008104571	-0.0647159383	 0.160023713	-0.370408
C	-1.245043064	-0.6845455209	 0.0721622992	 0.320446
C	-2.5010086779	-0.134833993	 0.0836591291	-0.237079
N	-3.380615111	-1.2324471481	 0.0329240615	-0.051931
C	-4.8250264753	-1.1876495298	 0.0293556585	-0.345135
C	-2.5943782893	-2.3269435487	-0.0185404326	 0.443339
O	-3.145807252	-3.5539702033	-0.0865922033	-0.433094
N	-1.3110052964	-2.065094694	 0.0009264167	-0.448805
H	 1.0983228905	 1.6832746347	-0.0892026714	 0.120646
H	-0.3581165865	 1.6193658505	-1.1188142577	 0.104995
H	-0.4996620567	 1.913414556	 0.6260453026	 0.127104
H	 0.7151829335	-0.6200414612	-0.2743062609	 0.23665
H	-2.8668962161	 0.875010197	 0.129391668	 0.110498
H	-5.1968618278	-0.630404781	-0.8375464846	 0.135358
H	-5.2076099694	-2.2074138786	-0.0178546534	 0.16025
H	-5.203165545	-0.7101478441	 0.9398533682	 0.136307
H	-2.4074694877	-4.1751045272	-0.098616251	 0.312009
85.3075	92.213	135.2545	171.1304	201.5494	270.6652	289.4825	342.8686	376.197	392.067	539.5075	544.7084	570.1751	665.3529	687.0788	709.6284	734.482	844.1339	1003.6361	1064.8529	1097.3354	1154.3165	1155.6799	1166.0859	1189.8328	1226.305	1285.6808	1340.4277	1365.9375	1455.0569	1457.805	1478.7375	1487.6609	1497.4686	1513.2406	1523.8089	1599.686	1611.0084	1652.0075	2963.3638	3030.0486	3052.3221	3082.2123	3116.6496	3153.636	3291.4177	3594.7975	3812.8511
CNC1=CN(C)C(O)=N1	CNc1cn(C)c(O)n1	
InChI=1S/C5H9N3O/c1-6-4-3-8(2)5(9)7-4/h3,6H,1-2H3,(H,7,9)	InChI=1S/C5H9N3O/c1-6-4-3-8(2)5(9)7-4/h3,6H,1-2H3,(H,7,9)
