21
gdb 101505	5.45111	0.54459	0.52132	1.3517	102.15	-0.2394	-0.0091	0.2304	2142.1158	0.179294	-349.916258	-349.905354	-349.90441	-349.952774	39.376	
C	-0.1105647224	 1.5382635707	 0.1534621407	-0.398795
C	-0.0035710908	 0.0190362517	-0.0103030147	-0.162561
C	 0.7748678719	-0.4372364754	-1.2573377182	 0.046778
C	 2.2454203352	-0.0046580759	-1.230872422	-0.392394
C	 0.652136061	-1.9775019631	-1.4029648096	-0.402908
C	 1.2252900704	-2.5057598544	-2.6306284114	 0.337668
C	 1.699008087	-2.9322271251	-3.6602626347	-0.192502
C	 2.2327469738	-3.4132198901	-4.8159771559	 0.288593
C	 2.7070154195	-3.8399989541	-5.841509093	-0.561711
H	 0.8674128044	 2.0040981711	 0.3060958346	 0.121516
H	-0.5651617182	 1.9998276136	-0.7303522075	 0.116368
H	-0.7329205232	 1.7925129399	 1.0169863635	 0.114973
H	 0.4682821092	-0.4145000704	 0.882724016	 0.094352
H	-1.0155305024	-0.4042723561	-0.0545405747	 0.092935
H	 0.2982803405	 0.0099916753	-2.1402338771	 0.085221
H	 2.7774538276	-0.3746003893	-2.111653308	 0.132306
H	 2.34318907	 1.0839084958	-1.214654982	 0.117621
H	 2.7519367635	-0.3999936123	-0.3416161215	 0.110703
H	 1.1358455539	-2.4585713224	-0.5406389982	 0.132179
H	-0.4075145668	-2.2616006668	-1.3537656711	 0.131734
H	 3.1243083759	-4.2153160827	-6.7424360851	 0.187924
48.3294	65.7127	88.3567	158.6602	191.8341	213.293	250.6736	261.2524	331.0748	358.0702	378.1637	417.1062	496.6725	528.5911	539.0724	587.5828	593.1993	737.8621	775.8942	826.4685	883.7157	913.0719	977.8063	1009.3649	1046.1453	1122.4508	1145.8915	1178.4111	1180.5889	1242.6848	1286.6363	1308.8773	1351.5658	1377.7969	1382.7167	1412.5492	1416.4951	1461.6303	1483.9013	1495.7723	1498.7886	1506.8642	1512.5462	2180.5323	2361.0586	3002.8875	3005.9559	3016.6861	3031.2719	3034.7098	3037.8095	3047.937	3100.115	3100.7873	3109.4853	3120.3426	3507.082
CCC(C)CC#CC#C	CC[C@@H](C)CC#CC#C	
InChI=1S/C9H12/c1-4-6-7-8-9(3)5-2/h1,9H,5,8H2,2-3H3	InChI=1S/C9H12/c1-4-6-7-8-9(3)5-2/h1,9H,5,8H2,2-3H3/t9-/m1/s1
