19
gdb 68542	2.15387	1.9028	1.62549	1.6597	75.11	-0.2236	0.0159	0.2395	962.051	0.157702	-422.988083	-422.979541	-422.978596	-423.020247	34.47	
C	-0.1658923233	 1.5101286142	-0.0147095774	-0.476839
C	 0.0028073328	-0.0056566736	-0.0032348592	 0.391404
O	-1.2702381383	-0.6061603192	-0.0974479832	-0.483442
C	 1.2007814903	-0.6112294543	-0.8622731512	-0.16623
C	 2.1308996834	-0.1811612033	 0.3282146841	-0.263344
C	 0.8864044413	-0.6187736323	 1.1537120525	 0.344683
O	 0.7626528599	-0.2248467083	 2.4823857854	-0.496198
C	 0.8374629104	-2.1131723684	 0.7753577426	-0.157739
C	 1.0445081087	-2.1010956354	-0.542329112	-0.06997
H	 0.771903667	 2.0632430041	 0.0288510332	 0.128096
H	-0.6833340914	 1.8204095175	-0.9322449879	 0.104809
H	-0.780492756	 1.8135178254	 0.8386224688	 0.129211
H	-1.7965676652	-0.1013074293	-0.7251921999	 0.275049
H	 1.394768497	-0.3000734228	-1.8876650948	 0.058768
H	 3.0289221935	-0.7824091834	 0.4700583202	 0.102238
H	 2.3642794052	 0.8830684529	 0.3816891687	 0.099219
H	-0.0678466926	-0.5785587528	 2.8195216813	 0.284686
H	 0.6479709139	-2.9298666829	 1.4577693686	 0.096516
H	 1.0624754436	-2.916672208	-1.2510584799	 0.099084
157.9202	186.5948	218.191	254.0447	269.853	293.2067	359.6115	391.6436	451.9485	510.1202	562.5356	578.7165	638.6218	654.5933	729.0026	756.1304	807.3274	884.2129	899.448	921.4553	928.9067	956.6295	1004.7279	1041.6311	1063.0007	1077.673	1117.3049	1143.3674	1154.988	1197.3742	1210.142	1242.4349	1274.3614	1324.7983	1353.3132	1378.7602	1408.2985	1482.7496	1493.3597	1512.6018	1631.7924	3021.679	3082.8868	3091.4953	3127.8869	3141.428	3154.9539	3216.0844	3243.384	3805.1726	3814.8584
CC1(O)C2CC1(O)C=C2	C[C@@]1(O)[C@H]2C[C@]1(O)C=C2	
InChI=1S/C7H10O2/c1-6(8)5-2-3-7(6,9)4-5/h2-3,5,8-9H,4H2,1H3	InChI=1S/C7H10O2/c1-6(8)5-2-3-7(6,9)4-5/h2-3,5,8-9H,4H2,1H3/t5-,6-,7-/m1/s1
