13
gdb 75677	3.10146	1.29942	1.11219	2.8363	67.13	-0.2435	-0.0515	0.192	1067.1323	0.086092	-456.486333	-456.47829	-456.477346	-456.51911	29.778	
O	 0.2873795738	 1.3520034924	-0.225195593	-0.416327
C	 0.2123708749	-0.0218622729	-0.0400929791	-0.054136
C	 0.3671014459	-0.6527786844	 1.4012144767	 0.391719
O	 1.2609953252	-0.7219770791	 2.1865074454	-0.285522
C	-1.03643477	-1.2409592767	 1.3139779191	-0.189681
O	-1.8712264799	-0.089649503	 1.0556955813	-0.285313
C	-1.1916556803	-0.6830202325	-0.0662021351	 0.270327
C	-1.931733568	-1.1800000007	-1.1705449322	 0.133782
C	-2.5156518416	-1.5785294697	-2.1427404057	-0.343796
H	-0.3620465794	 1.7553688063	 0.3647859954	 0.299593
H	 0.9198019442	-0.4964171849	-0.7277009144	 0.132854
H	-1.5006168119	-2.1083072483	 1.7669633982	 0.14483
H	-3.0401808931	-1.9356503465	-2.9949021366	 0.20167
78.8606	133.9773	178.1339	226.6997	272.118	401.539	451.3297	498.1546	523.8921	547.6403	601.2562	629.1158	678.61	694.6491	727.5361	835.9274	850.6627	929.6101	1003.2738	1036.9973	1129.2723	1159.7783	1179.4349	1207.8647	1283.2218	1377.5682	1432.9177	1909.4879	2244.2848	3078.8576	3206.2824	3498.7982	3782.1604
OC1C(=O)C2OC12C#C	O[C@H]1C(=O)[C@H]2O[C@@]12C#C	
InChI=1S/C6H4O3/c1-2-6-4(8)3(7)5(6)9-6/h1,4-5,8H	InChI=1S/C6H4O3/c1-2-6-4(8)3(7)5(6)9-6/h1,4-5,8H/t4-,5+,6-/m0/s1
