16
gdb 98035	6.05006	0.5819	0.55359	3.2523	82.24	-0.2618	-0.0679	0.194	1933.5298	0.122724	-437.835809	-437.826464	-437.82552	-437.871728	32.199	
O	 0.1396852439	 1.3647840192	-0.1663394148	-0.420337
C	 0.0544613149	-0.0264318744	-0.1822530465	-0.135336
C	-1.3690220939	-0.4865757342	 0.1104055051	 0.187345
O	-2.2408171411	 0.3405738755	 0.3117448648	-0.319361
C	-1.6041153201	-1.9025072507	 0.130946819	-0.01436
C	-1.7750765063	-3.100224806	 0.1495936004	 0.189298
C	-2.0100102175	-4.5094976705	 0.1522626931	-0.175991
C	-2.9289612994	-5.0892722467	 1.1881414977	-0.220573
N	-3.3538005714	-5.0318650894	-0.2048624959	-0.294406
H	-0.7614275021	 1.6714875201	 0.0270114962	 0.295582
H	 0.3526788149	-0.4425851009	-1.1587573281	 0.123309
H	 0.7223247446	-0.4839177778	 0.5660588271	 0.122718
H	-1.1945727109	-5.1264678297	-0.214148221	 0.132006
H	-2.7106595847	-6.0841811241	 1.5646562865	 0.138742
H	-3.3658123548	-4.4032152135	 1.9072448974	 0.138885
H	-3.9891729959	-4.2493538267	-0.3447969711	 0.252478
37.3672	66.4532	77.0876	137.949	167.0437	258.7989	315.9514	405.1234	410.8244	506.0771	535.155	570.5125	606.5101	778.0694	810.4384	855.7035	930.4376	969.4919	1009.7905	1014.4287	1110.4443	1118.0486	1142.2043	1168.4677	1233.1395	1237.0075	1260.4629	1298.1496	1313.2337	1391.5938	1449.0844	1489.2426	1504.6207	1739.7473	2314.9472	2975.5702	2993.2135	3120.3935	3151.3864	3213.8137	3505.7619	3675.9591
OCC(=O)C#CC1CN1	OCC(=O)C#C[C@H]1CN1	
InChI=1S/C6H7NO2/c8-4-6(9)2-1-5-3-7-5/h5,7-8H,3-4H2	InChI=1S/C6H7NO2/c8-4-6(9)2-1-5-3-7-5/h5,7-8H,3-4H2/t5-/m0/s1
