16
gdb 29451	3.26813	1.6615	1.10904	4.8282	77.29	-0.1848	0.0364	0.2212	1046.0348	0.126821	-396.975805	-396.967786	-396.966842	-397.008527	29.636	
C	-0.0152297898	 1.5033950239	 0.0451361099	-0.504435
C	-0.0053020079	 0.006999705	 0.0395286053	 0.130972
C	-0.0312991883	-0.8112453035	-1.0671614844	-0.163853
N	-0.0110881122	-2.1622737415	-0.6879085882	-0.427415
C	 0.0275302186	-2.1735579449	 0.6726530168	 0.405825
C	 0.032807273	-0.8820614995	 1.1654332882	 0.208573
N	 0.0723946154	-0.9016313804	 2.5491754827	-0.349107
C	 0.08984239	-2.1738488828	 2.858530705	-0.017329
N	 0.0639451209	-3.0185827921	 1.7495073856	-0.409747
H	 0.8757349566	 1.9087111372	 0.5383818756	 0.129339
H	-0.0468651394	 1.9028247125	-0.9728516153	 0.112003
H	-0.882116798	 1.8968542886	 0.5883570901	 0.129336
H	-0.0628341746	-0.5534092299	-2.1140317159	 0.112936
H	-0.0248386787	-2.9423527195	-1.3182354946	 0.258801
H	 0.1210637258	-2.5830425156	 3.8575276613	 0.122103
H	 0.0714007084	-4.0229552074	 1.766664098	 0.261998
73.3128	124.6811	189.5084	234.485	239.7858	328.4264	404.3199	526.5461	599.373	600.9135	636.9465	694.8214	700.295	750.194	786.1855	806.2588	948.7635	1001.3672	1054.2178	1064.9471	1085.4761	1111.8243	1207.7046	1257.1937	1314.2289	1337.8186	1372.6223	1419.0612	1450.8518	1478.8941	1500.0346	1511.9725	1518.0156	1606.4945	1634.6522	3026.2869	3075.3957	3104.388	3249.1555	3257.3719	3682.9122	3700.3529
CC1=CNC2=C1N=CN2	Cc1c[nH]c2c1nc[nH]2	
InChI=1S/C6H7N3/c1-4-2-7-6-5(4)8-3-9-6/h2-3,7H,1H3,(H,8,9)	InChI=1S/C6H7N3/c1-4-2-7-6-5(4)8-3-9-6/h2-3,7H,1H3,(H,8,9)
