17
gdb 34232	3.32202	1.60658	1.39079	1.8299	78.51	-0.2402	0.0186	0.2588	963.3933	0.136943	-384.614122	-384.607289	-384.606345	-384.64509	28.458	
C	-0.0553312025	-1.1722812318	 0.1058729042	-0.32907
C	-0.0762203796	 0.0290653477	 0.0546675905	 0.108067
C	-0.0747374533	 1.4573586988	-0.0246194388	 0.382971
O	-1.0106992232	 2.1809788813	 0.7878872032	-0.336449
C	-0.6651313473	 3.314638711	-0.065873914	 0.040747
C	 0.7616715166	 3.626070749	 0.426539344	-0.211665
C	 1.3267432938	 2.2787414543	-0.0608396625	-0.138082
C	 1.1417841565	 2.395694477	-1.595032718	-0.24885
C	-0.3583873825	 2.343998678	-1.2723150117	-0.12913
H	-0.044839973	-2.2330916055	 0.1553577236	 0.185207
H	-1.4282403125	 4.0896593558	-0.0919944889	 0.086349
H	 1.23988998	 4.4798521285	-0.06163865	 0.098677
H	 0.7704134572	 3.762620717	 1.5092200941	 0.112448
H	 2.2330214424	 1.8814271291	 0.3900184317	 0.079143
H	 1.5550403398	 3.280390375	-2.0868724449	 0.097447
H	 1.4515277854	 1.4936456392	-2.1289858546	 0.113935
H	-1.1529724977	 2.1279188254	-1.9832789778	 0.088256
139.6806	151.4395	363.0988	418.9571	490.7542	505.8457	531.5106	549.7448	604.8883	685.563	691.2002	733.2241	799.5153	834.9729	886.5904	898.5923	933.0708	945.5412	964.0206	982.2507	989.4396	1028.6368	1051.1534	1086.6258	1096.0818	1142.2203	1179.254	1216.533	1233.2136	1248.347	1276.6343	1282.1943	1317.6297	1330.9787	1477.2869	1501.2102	2237.1664	3057.5144	3065.7407	3114.0769	3126.7519	3140.9651	3148.1448	3151.4088	3501.4192
C#CC12OC3CC1CC23	C#C[C@@]12O[C@H]3C[C@@H]1C[C@@H]23	
InChI=1S/C8H8O/c1-2-8-5-3-6(8)7(4-5)9-8/h1,5-7H,3-4H2	InChI=1S/C8H8O/c1-2-8-5-3-6(8)7(4-5)9-8/h1,5-7H,3-4H2/t5-,6+,7-,8+/m0/s1
