20
gdb 65044	2.22955	1.51397	1.21773	1.9155	84.68	-0.2432	0.0431	0.2863	1139.6269	0.168973	-365.936818	-365.927469	-365.926525	-365.970787	36.164	
C	-0.0115614064	 1.3259419835	 0.6982158942	-0.467744
C	 0.0073898055	-0.0390207672	 0.0318423454	 0.294811
C	 0.9776867278	-0.2424773694	-1.10653687	-0.336763
C	 1.2268939513	-0.9056233794	 0.2279379191	-0.29005
C	-1.3537065155	-0.7151288615	 0.0089412701	 0.020676
C	-2.3080654802	-0.3832159322	-1.0961760422	-0.266657
N	-1.7142441101	-1.7206460525	-1.016056095	-0.348552
C	-1.8857638696	-1.0018257668	 1.3235551059	 0.34695
C	-2.3085765084	-1.2140186462	 2.4287953092	-0.443416
H	 0.9950937519	 1.7525349375	 0.740603249	 0.111446
H	-0.6516967063	 2.024891879	 0.1481081662	 0.116506
H	-0.3934773032	 1.2537419901	 1.7210083613	 0.135447
H	 0.7154578243	-0.8745070273	-1.9491664621	 0.106896
H	 1.5925737282	 0.6064914755	-1.3859653587	 0.114906
H	 2.029967289	-0.530222432	 0.852920318	 0.114545
H	 1.0785339008	-1.9784578054	 0.2874738735	 0.123052
H	-3.3737459575	-0.3398903248	-0.8942784491	 0.128362
H	-1.948994904	 0.3048796528	-1.8577509218	 0.115986
H	-0.9625057237	-1.8091382742	-1.6945328399	 0.231155
H	-2.6911062539	-1.4150757896	 3.3986703669	 0.192444
43.1912	139.605	182.8989	215.7307	230.5692	282.1095	313.3663	354.7078	419.0185	458.8626	530.2122	571.9793	593.1649	610.3425	647.2667	775.5922	805.3679	857.9865	879.9377	903.8075	920.3564	947.6452	954.642	986.8996	1039.9118	1056.206	1076.4333	1081.6739	1125.7302	1129.8163	1184.3678	1214.545	1263.1418	1300.3961	1337.9343	1364.2388	1416.8205	1469.2124	1489.6624	1497.6867	1502.7877	1513.9243	2237.3353	3031.4381	3097.0527	3107.8408	3111.348	3125.6209	3133.8836	3200.7001	3201.5217	3221.0682	3502.9519	3510.0023
CC1(CC1)C1(CN1)C#C	CC1(CC1)[C@]1(CN1)C#C	
InChI=1S/C8H11N/c1-3-8(6-9-8)7(2)4-5-7/h1,9H,4-6H2,2H3	InChI=1S/C8H11N/c1-3-8(6-9-8)7(2)4-5-7/h1,9H,4-6H2,2H3/t8-/m1/s1
