19
gdb 94443	2.412	1.3709	1.33451	3.5245	71.21	-0.2433	0.0551	0.2985	1099.403	0.157478	-460.120595	-460.111495	-460.11055	-460.154875	33.189	
C	 0.3862937692	 1.6047826976	 0.0322046079	-0.399121
C	-0.0110133855	 0.1525704723	 0.1923037914	 0.089369
O	 0.5072440258	-0.6967385003	-0.8688301016	-0.299034
C	 1.25140255	-1.5022186167	 0.0620011646	-0.134189
C	 0.7533375585	-0.6795268565	 1.2535858644	 0.337285
O	 1.7376288554	-0.0202778687	 2.0670253925	-0.303863
C	 1.0142412768	-0.319632905	 3.2812181267	-0.111262
C	 0.051407728	-1.2436952115	 2.5009593209	-0.014227
O	-1.3254135015	-0.9718618802	 2.5461629426	-0.421829
H	 1.4724559227	 1.720744761	 0.0542696091	 0.129567
H	 0.0071759825	 1.9864009711	-0.9206251039	 0.123271
H	-0.041881964	 2.208298938	 0.8393499366	 0.117372
H	-1.0987457977	 0.0437309307	 0.2711750812	 0.093928
H	 0.9417486285	-2.555849186	 0.0479585007	 0.097114
H	 2.3357492203	-1.4382502309	-0.0933079224	 0.11041
H	 1.6595575215	-0.7748142387	 4.0403258118	 0.10372
H	 0.5130514427	 0.5641899431	 3.6950828878	 0.106197
H	 0.2615092352	-2.3101836084	 2.6546712582	 0.082156
H	-1.7109713186	-1.4380451911	 3.2938529815	 0.293136
62.791	74.5448	163.4364	203.3821	217.9974	235.4357	264.6989	390.4148	408.4879	503.4657	518.9175	545.6255	756.3157	789.4717	868.1346	881.5857	900.4721	1003.0563	1014.4667	1021.1371	1033.6606	1082.3246	1090.4286	1124.2361	1149.5092	1151.4776	1172.4594	1190.9049	1224.4897	1236.0472	1285.0913	1310.3728	1331.1614	1366.5519	1379.5536	1404.2326	1443.3816	1485.0362	1486.587	1508.3032	1514.6542	3004.0291	3015.9174	3020.2649	3040.6119	3046.485	3053.9119	3077.3718	3110.8896	3130.5702	3830.5274
CC1OCC11OCC1O	C[C@H]1OC[C@]21OC[C@H]2O	
InChI=1S/C6H10O3/c1-4-6(3-8-4)5(7)2-9-6/h4-5,7H,2-3H2,1H3	InChI=1S/C6H10O3/c1-4-6(3-8-4)5(7)2-9-6/h4-5,7H,2-3H2,1H3/t4-,5-,6-/m1/s1
