18
gdb 50986	2.39652	1.16207	0.90143	2.4427	77.6	-0.2494	-0.0345	0.215	1307.6973	0.144875	-401.893415	-401.88382	-401.882876	-401.929219	34.367	
O	 0.9917352123	 0.260070006	 0.3343339231	-0.241025
C	 0.487520335	 1.2958093286	-0.0218010011	 0.157777
C	 1.2836800604	 2.5646047459	-0.2589688899	-0.366283
C	 1.7054860308	 2.6650777612	-1.7264080541	 0.320786
C	 0.6094103427	 3.0693903574	-2.7143708809	-0.412767
C	 0.0500182558	 4.3901692972	-2.4473992445	 0.310493
C	-0.4038186635	 5.4768777457	-2.2061721493	-0.454056
C	 3.1177786743	 3.0095724024	-2.0277009852	-0.275132
N	 2.6159017495	 1.6408430077	-2.2530234754	-0.348521
H	-0.6045696298	 1.3560184681	-0.2271283064	 0.088809
H	 0.6901478427	 3.4447566278	 0.0111228074	 0.131306
H	 2.1721827458	 2.5194205695	 0.3770222927	 0.121552
H	 1.0342028284	 3.0327475005	-3.7231533239	 0.146898
H	-0.1922190176	 2.3188337525	-2.7007167912	 0.134483
H	-0.807157276	 6.4391587875	-2.0086453414	 0.200297
H	 3.3594087328	 3.5615368603	-2.9320699345	 0.12354
H	 3.7879084759	 3.1944472999	-1.192614551	 0.117166
H	 2.9099853606	 1.0169754719	-1.5043211843	 0.244676
37.7941	52.4714	87.4139	136.5819	215.5878	317.1925	336.6783	361.4578	372.8634	417.253	522.7321	543.2895	626.1417	649.491	714.1572	843.4861	889.1085	900.5471	933.4187	957.8643	972.9528	997.9198	1025.0779	1042.2497	1104.7507	1145.5257	1189.3594	1204.2424	1255.2339	1297.3282	1319.966	1348.047	1401.2593	1424.0475	1468.6814	1470.0008	1514.8214	1822.4058	2237.7841	2882.6122	3023.3569	3046.9463	3072.8651	3107.224	3109.4793	3193.6823	3495.0149	3504.5284
O=CCC1(CC#C)CN1	O=CC[C@@]1(CC#C)CN1	
InChI=1S/C7H9NO/c1-2-3-7(4-5-9)6-8-7/h1,5,8H,3-4,6H2	InChI=1S/C7H9NO/c1-2-3-7(4-5-9)6-8-7/h1,5,8H,3-4,6H2/t7-/m0/s1
