17
gdb 57588	2.62492	1.24274	1.05616	2.0183	69.31	-0.252	-0.1088	0.1431	1172.5755	0.130725	-458.98902	-458.978801	-458.977857	-459.024669	35.162	
C	 0.13164481	 1.526765817	 0.1752667072	-0.435874
C	-3.1968*^-6	 0.0190417199	-0.1084479263	 0.025494
C	 0.7546899389	-0.8231312706	 0.9536230119	-0.451524
C	-1.4689436322	-0.4192624486	-0.0639955933	 0.162669
O	-2.3760323236	 0.2915105756	 0.2757670254	-0.246446
C	 0.5278296461	-0.3008611675	-1.5043972595	 0.284728
O	-0.1650187443	-0.724383323	-2.4025764463	-0.283853
C	 2.0126963238	-0.0665097533	-1.8536508475	 0.09876
O	 2.8496316806	 0.3622460929	-1.1052037667	-0.219032
H	 1.180757093	 1.8240751625	 0.2049568159	 0.143282
H	-0.3888927767	 2.1176655098	-0.5831751597	 0.135538
H	-0.3339952443	 1.7516903818	 1.1375680377	 0.141901
H	 0.3550188516	-0.5975887295	 1.9468656983	 0.140626
H	 0.6334959387	-1.8968682355	 0.7753304719	 0.127937
H	 1.8189661483	-0.5858671864	 0.9450884412	 0.161714
H	-1.6352512283	-1.4836431081	-0.3335915541	 0.093696
H	 2.2196468252	-0.342920037	-2.9093518761	 0.120385
53.8933	74.3029	112.9509	175.7758	189.2275	222.7461	235.5437	262.3963	295.2371	331.1267	352.9922	488.2352	541.6113	601.3196	635.8131	731.3499	824.7534	918.6885	963.5909	993.4903	1018.7186	1049.8591	1119.9188	1165.782	1243.41	1280.1799	1367.4556	1390.7064	1408.9913	1428.2887	1481.3057	1490.7952	1501.7797	1512.862	1780.32	1824.3964	1839.7991	2910.5816	2924.5273	3041.0129	3057.6576	3107.7724	3127.8748	3150.1164	3152.6424
CC(C)(C=O)C(=O)C=O	CC(C)(C=O)C(=O)C=O	
InChI=1S/C6H8O3/c1-6(2,4-8)5(9)3-7/h3-4H,1-2H3	InChI=1S/C6H8O3/c1-6(2,4-8)5(9)3-7/h3-4H,1-2H3
