18
gdb 72709	2.73045	2.08905	1.62629	1.8117	76.74	-0.2296	-0.0046	0.2249	889.3655	0.146889	-401.786884	-401.779672	-401.778728	-401.817729	30.519	
C	-0.02030969	 1.5168411238	-0.0815788829	-0.452841
C	-0.0562623076	-0.0048780577	 0.0050656244	 0.348583
N	-1.2730975849	-0.4942958472	 0.7405968648	-0.383439
C	-0.4176906133	-0.4582551644	 2.0168749348	-0.286583
C	 0.7385689591	-0.7651038681	 1.0248503167	 0.290936
O	 1.9882750055	-0.2933291898	 0.3500763039	-0.366199
C	 1.1618973367	-0.6293997041	-0.8749095864	-0.104193
C	 0.9937120197	-2.1229473271	-0.7428821325	-0.059218
C	 0.686691332	-2.2242052749	 0.5500789361	-0.101744
H	 0.9624463432	 1.8842808004	-0.3796197154	 0.13953
H	-0.7496237524	 1.8360390937	-0.8379590033	 0.116139
H	-0.2945539561	 2.0048364416	 0.8593864302	 0.113655
H	-2.0517656027	 0.1623087868	 0.7399456679	 0.217768
H	-0.3852374047	 0.5226935369	 2.4983608957	 0.118808
H	-0.6693144777	-1.2351045771	 2.743735668	 0.116357
H	 1.5551589391	-0.1666278975	-1.7808109493	 0.079552
H	 1.077966629	-2.8620271344	-1.5247818029	 0.110268
H	 0.438541965	-3.0766340008	 1.1653244703	 0.10262
184.0489	239.8063	286.1204	328.6436	381.102	412.954	522.3518	528.0056	582.0848	592.5687	671.2341	706.2067	733.4541	795.4108	813.5169	847.9224	881.0971	892.6233	903.219	939.5388	969.9396	992.7009	1050.8576	1059.9051	1090.2253	1124.1613	1138.1041	1169.3438	1207.6276	1215.3538	1258.5529	1282.4374	1316.8631	1357.1296	1403.4145	1477.4844	1499.4859	1505.1511	1621.9073	3022.603	3052.2612	3081.9375	3113.9452	3119.0158	3137.8339	3231.8605	3261.2048	3473.5266
CC12NCC11OC2C=C1	C[C@]12NC[C@@]31O[C@H]2C=C3	
InChI=1S/C7H9NO/c1-6-5-2-3-7(6,9-5)4-8-6/h2-3,5,8H,4H2,1H3	InChI=1S/C7H9NO/c1-6-5-2-3-7(6,9-5)4-8-6/h2-3,5,8H,4H2,1H3/t5-,6+,7-/m0/s1
