19
gdb 22227	3.00059	0.88711	0.72419	3.2485	78.49	-0.2457	-0.0361	0.2096	1590.5677	0.15699	-456.348909	-456.338285	-456.337341	-456.386312	36.894	
C	 0.4777444178	 1.214423603	 0.300138539	-0.370483
C	-0.3945995173	 0.1573506949	-0.3822255795	-0.14644
N	 0.2742973831	-0.4998062837	-1.4906440368	-0.321647
C	 0.7192584816	-1.7792917402	-1.4316489561	 0.371241
O	 0.5730742186	-2.5169334882	-0.4684402967	-0.384159
C	 1.431976175	-2.2731422494	-2.6746132663	 0.271238
C	 1.928271153	-3.6856517907	-2.6932323794	-0.481787
N	 1.5601158307	-1.4306681297	-3.6289168962	-0.184343
O	 2.2265558067	-1.9694813115	-4.7243090455	-0.381154
H	 1.3848882717	 0.7606736587	 0.7092992142	 0.132741
H	 0.7764979121	 1.9991223738	-0.4033468841	 0.112448
H	-0.0705487139	 1.6897033227	 1.1198260433	 0.118638
H	-0.6639523086	-0.6304598941	 0.3243644989	 0.147668
H	-1.324091853	 0.6129114421	-0.7453695634	 0.105423
H	 0.4825804561	 0.0117979622	-2.3348014928	 0.252318
H	 1.4731952817	-4.235764586	-3.5231417115	 0.144173
H	 3.0103054163	-3.7051975342	-2.8585107515	 0.14407
H	 1.6857522462	-4.1673625478	-1.747270481	 0.159404
H	 2.2461613722	-1.2325295618	-5.3453692046	 0.31065
24.7994	60.5689	71.287	107.3417	163.4162	236.4649	247.2679	290.9564	345.8536	370.6201	408.8103	445.1913	502.4322	543.1516	575.9839	714.5531	763.0803	779.2032	872.7389	903.1089	982.6862	1053.4858	1053.9766	1066.4622	1112.9003	1178.1228	1200.5067	1283.8409	1327.8362	1390.3919	1392.2277	1400.9104	1410.3473	1475.0349	1483.9841	1485.9648	1492.5825	1502.6602	1558.1482	1714.831	1764.3228	3030.087	3035.2039	3047.619	3097.836	3101.1831	3116.1523	3126.5873	3170.5538	3619.0186	3808.4253
CCNC(=O)C(C)=NO	CCNC(=O)C(=NO)C	
InChI=1S/C5H10N2O2/c1-3-6-5(8)4(2)7-9/h9H,3H2,1-2H3,(H,6,8)	InChI=1S/C5H10N2O2/c1-3-6-5(8)4(2)7-9/h9H,3H2,1-2H3,(H,6,8)
