12
gdb 130898	5.39231	1.07137	0.89379	1.3133	68.22	-0.2723	-0.1163	0.1561	1167.1822	0.078596	-468.834275	-468.827196	-468.826252	-468.866446	25.269	
O	-0.1045437084	-0.0426747117	-0.0016534696	-0.24216
C	-0.0170625118	 1.1579617313	 0.0066375968	 0.109283
C	 1.2574533072	 1.920315423	-0.0010156418	 0.191122
N	 2.3927815152	 1.2554027747	-0.0185224675	-0.169235
N	 3.4780964492	 1.988594098	-0.0243366392	-0.233803
C	 3.5753163102	 3.4108441634	-0.014011573	 0.47693
O	 4.6626382804	 3.927422909	-0.0213917675	-0.345809
N	 2.3515000284	 4.0765872355	 0.0044196127	-0.302447
C	 1.2745965943	 3.3541420798	 0.0101801248	-0.012573
H	-0.9180705018	 1.8103570315	 0.0218519723	 0.088272
H	 4.3558467493	 1.4803563782	-0.0378020875	 0.297112
H	 0.3215427778	 3.8862519674	 0.0247105797	 0.143306
72.3039	137.964	197.5808	298.5881	406.3002	413.0448	478.3952	513.9826	632.2086	651.5694	786.2474	814.6004	834.3824	844.3668	991.4277	1014.0773	1038.5917	1098.5977	1235.2287	1332.4565	1406.8777	1440.4713	1446.6498	1546.7959	1638.2294	1818.5951	1841.0399	2890.7065	3117.4774	3561.0016
O=CC1=NNC(=O)N=C1	O=Cc1n[nH]c(=O)nc1	
InChI=1S/C4H3N3O2/c8-2-3-1-5-4(9)7-6-3/h1-2H,(H,5,7,9)	InChI=1S/C4H3N3O2/c8-2-3-1-5-4(9)7-6-3/h1-2H,(H,5,7,9)
