22
gdb 52872	1.98039	1.13426	0.9173	1.8207	91.9	-0.2266	0.0442	0.2707	1459.8556	0.191736	-367.175251	-367.164249	-367.163305	-367.21331	39.139	
C	 0.1017400616	 1.4581087795	 0.2913291178	-0.502754
C	 0.0872099619	 0.0051816912	 0.1982628641	 0.086486
C	 0.0712244148	-1.1986936158	 0.1283698912	 0.025019
C	 0.057239953	-2.6376425294	 0.0150656457	 0.155479
C	-0.7106598758	-3.3988777761	 1.0484160677	-0.280986
N	-1.2377843374	-3.2877950443	-0.3183119925	-0.358854
C	 1.2705916763	-3.2883918945	-0.6513262097	-0.017847
C	 1.3963069443	-2.8467398717	-2.1143748778	-0.398831
C	 2.554719005	-3.0198516665	 0.142740579	-0.397873
H	 1.1275134828	 1.8398237271	 0.3399717302	 0.151232
H	-0.3821025468	 1.9209335503	-0.5761148306	 0.149167
H	-0.4220353134	 1.8054476372	 1.1888265994	 0.148695
H	-0.3711481552	-4.3932476612	 1.327519098	 0.117721
H	-1.1884841596	-2.8361509592	 1.8447262163	 0.116708
H	-1.9690517038	-2.5813725658	-0.3447564243	 0.234401
H	 1.0676404209	-4.3662733205	-0.639185413	 0.080173
H	 2.225659676	-3.3644537858	-2.6068593599	 0.10602
H	 0.4774818477	-3.0706995834	-2.6641120536	 0.124883
H	 1.5819946534	-1.7695274497	-2.1830191991	 0.118598
H	 2.4642764404	-3.3645755439	 1.1781830263	 0.110078
H	 3.4056562263	-3.5361363043	-0.3126949151	 0.109848
H	 2.7826386176	-1.9490180333	 0.1654192499	 0.122639
9.1265	67.9959	83.9091	132.8586	215.6022	226.4915	230.0011	262.5747	286.1837	307.0237	338.5892	438.5111	451.6698	543.7779	585.6192	592.0806	812.8279	851.8594	887.1378	931.6303	938.8146	969.0064	988.2423	1017.4612	1052.3532	1053.5602	1091.3443	1107.6411	1139.1989	1148.2701	1196.8113	1262.9393	1299.5948	1340.5425	1346.1116	1389.9916	1395.1762	1414.655	1416.315	1476.7894	1478.95	1488.4604	1490.5891	1500.775	1504.1682	1512.9162	2358.8458	3026.1151	3030.4548	3031.3234	3035.3684	3085.6123	3088.462	3100.5516	3101.2378	3106.5499	3107.3746	3112.8331	3197.8105	3503.9037
CC#CC1(CN1)C(C)C	CC#C[C@]1(CN1)C(C)C	
InChI=1S/C8H13N/c1-4-5-8(6-9-8)7(2)3/h7,9H,6H2,1-3H3	InChI=1S/C8H13N/c1-4-5-8(6-9-8)7(2)3/h7,9H,6H2,1-3H3/t8-/m0/s1
