18
gdb 101504	5.65627	0.54212	0.51851	6.32	87.14	-0.2806	-0.0369	0.2437	2035.7336	0.145694	-401.938298	-401.928017	-401.927072	-401.974406	35.779	
C	 0.0556501633	 1.586071322	 0.0369644462	-0.392866
C	 0.0394257443	 0.0548479085	 0.0335236526	 0.032673
C	 0.7511111515	-0.5188401805	 1.2608415798	-0.079232
O	 2.1002356906	-0.0894252293	 1.2230681057	-0.421108
C	-1.4008386171	-0.5132399033	-0.0265622869	-0.386854
C	-2.1180238514	-0.1510121849	-1.2362948056	 0.050292
C	-2.7033234419	 0.1494043585	-2.250244983	 0.090984
C	-3.3690476187	 0.4874991607	-3.3928558255	 0.202887
N	-3.936168481	 0.7754122104	-4.3652588133	-0.339134
H	 1.0828412848	 1.9491920842	 0.1015891758	 0.143364
H	-0.402117436	 1.9896724221	-0.8701931332	 0.128734
H	-0.4981932978	 1.979304862	 0.8984276047	 0.110332
H	 0.5808426915	-0.3039583158	-0.8501596805	 0.1045
H	 0.2431850957	-0.1685645991	 2.1757486677	 0.087176
H	 0.6841495311	-1.6191336331	 1.2477823836	 0.086737
H	 2.5396699318	-0.3922352261	 2.0227258883	 0.291547
H	-1.3730003503	-1.6086250174	 0.0467573595	 0.144676
H	-1.9722320303	-0.159399289	 0.8429770641	 0.145292
49.2654	64.8561	117.4861	156.5808	192.0814	237.0562	239.1301	253.878	322.4147	367.1873	397.7781	416.3555	538.9107	577.5916	585.5948	733.6451	833.9607	885.2514	931.8496	946.5814	1075.5271	1094.0578	1122.5654	1168.57	1175.6993	1222.6134	1252.0088	1276.9569	1308.5588	1356.5178	1381.4046	1408.1786	1459.1323	1463.1128	1494.8102	1504.9266	1521.3655	2264.8694	2400.7936	2952.1341	2981.7852	3011.2185	3032.0031	3039.5057	3054.4608	3105.5989	3140.2192	3836.3001
CC(CO)CC#CC#N	C[C@@H](CO)CC#CC#N	
InChI=1S/C7H9NO/c1-7(6-9)4-2-3-5-8/h7,9H,4,6H2,1H3	InChI=1S/C7H9NO/c1-7(6-9)4-2-3-5-8/h7,9H,4,6H2,1H3/t7-/m1/s1
