14
gdb 17128	4.71326	1.4948	1.41404	4.3577	57.47	-0.2779	0.0085	0.2864	888.1498	0.107015	-419.676333	-419.669475	-419.66853	-419.708024	24.806	
O	 0.4637225607	 0.4032630008	-0.5873377773	-0.308561
C	 0.1086577905	 1.3997814042	-0.0517258373	 0.461353
C	-1.1106303357	 2.3194600008	-0.039427318	-0.430471
C	-0.2903254099	 3.1133399373	 1.0009200207	 0.091257
O	 0.7959682323	 2.1365349412	 0.8888818664	-0.249047
C	 0.1390890791	 4.4999782014	 0.6045493254	 0.054234
C	 1.5525008975	 4.8682633551	 0.4604242436	-0.166822
O	 0.7286389031	 4.6214844665	-0.6854448861	-0.232559
H	-1.2851501459	 2.8329616501	-0.9855822879	 0.162093
H	-2.0278735424	 1.8473521641	 0.3141122896	 0.145398
H	-0.6931649113	 3.1067771741	 2.0176634892	 0.104036
H	-0.5855511051	 5.2775956893	 0.8532443687	 0.103047
H	 1.8529677191	 5.9045339114	 0.6035250234	 0.122091
H	 2.3123953381	 4.1149561639	 0.6492211695	 0.143951
81.2264	99.9902	225.3052	254.3703	429.7465	519.4127	532.227	603.2505	711.0922	795.9438	856.3381	905.4313	914.9554	964.7294	996.0248	1031.4873	1080.9724	1092.4103	1123.7562	1143.7542	1168.2651	1173.8447	1226.9063	1284.2342	1291.0919	1377.35	1433.3766	1449.7013	1521.5977	1951.2608	3075.1298	3095.6561	3098.0962	3104.2235	3159.6177	3201.2076
O=C1CC(O1)C1CO1	O=C1C[C@@H](O1)[C@H]1CO1	
InChI=1S/C5H6O3/c6-5-1-3(8-5)4-2-7-4/h3-4H,1-2H2	InChI=1S/C5H6O3/c6-5-1-3(8-5)4-2-7-4/h3-4H,1-2H2/t3-,4-/m1/s1
