23
gdb 89461	2.1645	1.47839	1.38605	1.1793	85.18	-0.2399	0.0769	0.3168	1149.8918	0.204042	-388.278023	-388.268176	-388.267232	-388.312227	37.893	
C	 0.1451050892	 1.6642876648	-0.0448469114	-0.42365
C	 0.0657272106	 0.1472128177	 0.0456556571	-0.011837
C	 0.9192128725	-0.7303972644	-0.9226799493	-0.314844
C	 1.3084828699	-1.6813540176	 0.2553079559	 0.337209
C	 0.8413365083	-3.1166910609	 0.1701005043	-0.49033
C	 2.714204774	-1.3804376327	 0.8335451672	-0.272609
C	 2.118445334	-0.2172057714	 1.6847404644	-0.299271
C	 0.681413718	-0.6288030982	 1.2390606857	 0.35836
O	-0.1820659621	-1.0705176796	 2.2533582505	-0.486484
H	 1.1803084144	 2.0205269787	-0.0110552799	 0.114262
H	-0.2920856488	 2.0234992824	-0.9830845832	 0.116442
H	-0.4003548417	 2.1457203519	 0.7756077174	 0.106211
H	-0.9812778888	-0.170713016	-0.0165163499	 0.076197
H	 0.3615638872	-1.2019180985	-1.7357555425	 0.09739
H	 1.7740775409	-0.2017669085	-1.3569234202	 0.090649
H	 1.4181089641	-3.6700853184	-0.5814378676	 0.109901
H	 0.9605895692	-3.6283934666	 1.1306890032	 0.119705
H	-0.2159242493	-3.1794074915	-0.1097455141	 0.115608
H	 3.0946487961	-2.1966038558	 1.4544701448	 0.097868
H	 3.4871562806	-1.1110987347	 0.1077888964	 0.09144
H	 2.2668165338	-0.3324536981	 2.7608970987	 0.099297
H	 2.435890861	 0.7879911375	 1.3962131557	 0.094183
H	-0.377016803	-0.32586096	 2.8333413567	 0.274302
55.6329	171.2536	186.8121	196.2044	208.4179	218.0898	243.3758	308.6364	359.6388	394.7646	435.3391	533.7242	562.8952	590.3821	689.7601	745.3678	805.9281	856.0505	878.5272	911.8242	930.3109	942.8919	956.8367	994.2044	1015.4311	1060.7743	1110.7584	1150.1024	1158.9505	1184.4247	1208.1013	1227.338	1232.2203	1243.5073	1250.8906	1266.1647	1279.4786	1321.8705	1364.7432	1380.1985	1407.9983	1409.0591	1464.0182	1481.0431	1488.0128	1491.735	1492.727	1497.4812	1502.73	3020.0896	3023.2772	3038.6683	3043.9649	3047.2705	3060.9755	3083.2405	3085.0308	3091.2911	3094.8648	3097.2518	3101.3929	3117.9581	3792.257
CC1CC2(C)CCC12O	C[C@H]1C[C@@]2(C)CC[C@@]12O	
InChI=1S/C8H14O/c1-6-5-7(2)3-4-8(6,7)9/h6,9H,3-5H2,1-2H3	InChI=1S/C8H14O/c1-6-5-7(2)3-4-8(6,7)9/h6,9H,3-5H2,1-2H3/t6-,7+,8+/m0/s1
