16
gdb 37812	3.12895	2.11919	1.8226	1.4631	71.55	-0.248	-0.0008	0.2472	805.8861	0.126555	-400.646716	-400.640859	-400.639914	-400.676515	25.015	
C	-0.1210812585	 1.6033078196	 0.0739858705	-0.318291
C	 1.3964573549	 1.3052839113	 0.0147150857	-0.112976
C	 1.2642879809	-0.0255840446	 0.885955858	-0.112365
C	 2.0405750551	-0.867978362	-0.1486192593	-0.299143
C	 1.1900170405	 0.1066964162	-0.9884996952	 0.299825
N	 0.6172118687	-0.1771129173	-2.299299198	-0.353396
C	-0.5025422281	-0.7151572244	-1.9921467325	 0.083043
O	-0.9296660121	-0.7893410567	-0.6713138349	-0.281837
C	 0.0011739917	 0.0797539252	-0.0338230615	 0.349876
H	-0.5107077607	 2.0160206985	 1.0080202092	 0.100457
H	-0.5397141744	 2.1202498582	-0.7932418509	 0.112784
H	 2.2357011692	 1.9963601269	 0.0779952389	 0.092168
H	 1.2932944577	-0.0596737751	 1.9748700529	 0.086989
H	 3.1255431886	-0.7399801239	-0.1768435163	 0.101181
H	 1.7687824857	-1.9249855307	-0.2145225862	 0.108539
H	-1.200006009	-1.1568153113	-2.6956146405	 0.143145
263.9494	288.4058	381.8695	452.803	493.1941	556.8399	577.2233	756.7449	777.4447	790.222	855.4504	888.5033	910.8923	922.7885	935.2593	956.0941	966.6526	995.4316	1001.7624	1060.2428	1082.0707	1094.9569	1113.7384	1137.2497	1147.8998	1163.2076	1212.6459	1218.2002	1246.3316	1256.0559	1283.7647	1319.8694	1506.8215	1510.4848	1603.3018	3057.1585	3059.9374	3116.7503	3118.8703	3122.1063	3131.5698	3216.5305
C1C2C3CC22N=COC132	C1[C@H]2[C@@H]3C[C@@]42[N][CH]O[C@@]134	
InChI=1S/C7H7NO/c1-5-4-2-7(5)6(1,4)8-3-9-7/h3-5H,1-2H2	InChI=1S/C7H7NO/c1-5-4-2-7(5)6(1,4)8-3-9-7/h3-5H,1-2H2/t4-,5-,6-,7-/m0/s1
