19
gdb 71606	2.18417	1.96559	1.66067	1.1729	74.71	-0.2313	0.082	0.3133	956.5563	0.158253	-422.97773	-422.969735	-422.96879	-423.009648	31.697	
C	 0.0751429835	 1.4809837234	-0.1264604956	-0.533346
C	 0.0145262399	-0.0068658786	 0.0034364871	 0.366246
O	 0.6201007501	-0.8452647187	-1.0457621958	-0.35169
C	 0.0967652094	-1.8129633619	-0.0794914782	-0.013837
C	 0.5757200035	-0.9495080407	 1.1207394012	-0.132249
C	-0.4870899554	-1.0472322703	 2.1988431631	-0.120416
O	-1.6938099468	-1.0601722654	 1.4067641198	-0.318194
C	-1.2172319611	-0.9828125478	 0.0797935341	 0.418696
C	-2.3132590099	-0.9841899031	-0.9422942347	-0.499624
H	 1.1118506936	 1.8316072287	-0.1401340198	 0.134041
H	-0.4116895587	 1.8067012856	-1.051064536	 0.136138
H	-0.4400482726	 1.9524812525	 0.7166385501	 0.13288
H	 0.2497778822	-2.8732320813	-0.2802800853	 0.088434
H	 1.6325184188	-0.9149756434	 1.37925544	 0.08381
H	-0.4240542384	-1.9657637827	 2.7948063382	 0.108041
H	-0.4985950634	-0.1884482321	 2.8812055073	 0.106978
H	-2.9794316245	-0.1282803771	-0.7965165398	 0.126212
H	-1.8725669417	-0.9291463198	-1.9404952377	 0.139747
H	-2.9131806185	-1.8958620173	-0.8654812981	 0.128132
166.6697	186.3981	208.7757	233.6526	253.7838	285.7665	389.7463	472.4602	504.7417	655.4844	673.4058	691.2513	727.2894	759.9749	782.7728	873.861	917.1877	926.2833	949.2173	963.2242	992.5398	1026.3029	1080.3773	1112.028	1128.2818	1145.5648	1168.6532	1204.0854	1214.9273	1239.4216	1274.3452	1328.6815	1352.1769	1386.1621	1409.3293	1423.4341	1474.8418	1485.2885	1489.0775	1496.1482	1521.0375	3020.6344	3036.592	3044.8795	3057.7973	3109.1543	3110.3867	3111.1468	3120.2147	3133.9861	3145.7808
CC12OC3C1COC23C	C[C@@]12O[C@H]3[C@@H]1CO[C@@]23C	
InChI=1S/C7H10O2/c1-6-4-3-8-7(6,2)5(4)9-6/h4-5H,3H2,1-2H3	InChI=1S/C7H10O2/c1-6-4-3-8-7(6,2)5(4)9-6/h4-5H,3H2,1-2H3/t4-,5-,6+,7+/m0/s1
