23
gdb 37005	3.53113	1.08457	1.02972	0.0566	90.66	-0.2441	0.0886	0.3327	1310.8952	0.206444	-351.120546	-351.111781	-351.110836	-351.154485	34.086	
C	-0.035934954	 1.5509533705	 0.0110442797	-0.42201
C	 1.2731340617	 0.8057421983	-0.0057128568	 0.315692
C	 2.3350600861	 0.8676038835	-1.1146696179	-0.295526
C	 3.3901841569	 1.2200196881	-0.0238658694	-0.202163
C	 2.3562844504	 0.8554461603	 1.0831453627	-0.295527
C	-0.0114147979	 0.0447590948	 0.0024777649	 0.315667
C	-0.5649747142	-0.8752337588	 1.1017908495	-0.295533
C	-1.3916736563	-1.6131807323	 0.0066414856	-0.202161
C	-0.5861921405	-0.8630892061	-1.0960420454	-0.295534
H	-0.3275927244	 2.0531671816	 0.93029672	 0.104034
H	-0.3452232037	 2.0632747497	-0.8967968997	 0.104034
H	 2.517005555	-0.1045055747	-1.5860469349	 0.09659
H	 2.1810338811	 1.6081456577	-1.904459202	 0.096205
H	 4.3172264956	 0.6426961533	-0.0360117555	 0.095668
H	 3.6451420921	 2.2824245951	-0.020451005	 0.10325
H	 2.2176182746	 1.5871892341	 1.8839059503	 0.096205
H	 2.5471949153	-0.1217988795	 1.5401386329	 0.096591
H	 0.2047310991	-1.5094572309	 1.5552333228	 0.096592
H	-1.1326989846	-0.3975973022	 1.9051879682	 0.096206
H	-1.3305283741	-2.703626081	 0.0000255734	 0.095671
H	-2.4459299292	-1.3266079232	 0.0184024732	 0.10325
H	-1.1692693184	-0.3766649902	-1.8830025519	 0.096206
H	 0.1745489595	-1.4921809681	-1.571239982	 0.096592
58.0975	84.4287	129.3124	169.5497	237.0351	389.8023	401.4965	406.4083	445.7102	640.9493	706.2943	723.0816	788.1703	799.4734	850.3893	862.1725	887.5157	893.0194	913.4883	939.9301	940.1188	941.367	963.6036	1034.3859	1036.5268	1071.1188	1100.0761	1140.3864	1155.2829	1169.7008	1193.5451	1212.1129	1231.0936	1236.7049	1241.7285	1247.9409	1255.8033	1273.2792	1275.3855	1286.0114	1286.175	1422.7637	1477.2537	1478.0913	1480.2527	1480.8935	1492.2547	1503.3731	1511.7827	3035.2278	3036.9522	3038.3966	3041.2719	3065.041	3065.6794	3083.9079	3085.0652	3088.0608	3089.0203	3099.8519	3119.8378	3120.2685	3184.5056
C1C2(CCC2)C11CCC1	C1C2(CCC2)C21CCC2	
InChI=1S/C9H14/c1-3-8(4-1)7-9(8)5-2-6-9/h1-7H2	InChI=1S/C9H14/c1-3-8(4-1)7-9(8)5-2-6-9/h1-7H2
