17
gdb 77207	3.40606	1.0514	0.90862	1.2891	82.02	-0.2469	0.0323	0.2792	1287.0753	0.133078	-384.605585	-384.596284	-384.59534	-384.639616	34.856	
O	 0.3846888372	 0.866763847	-0.6727226707	-0.41572
C	-0.1178061832	-0.3769033314	-0.2931202814	 0.136979
C	-0.1912155067	-0.7486927303	 1.2265963741	-0.191049
C	-1.5779600364	-1.398140223	 0.9266185946	-0.247259
C	-1.6682720555	-0.5355971038	-0.3785815745	-0.250282
C	-2.411655192	 0.6982954742	-0.2077372432	 0.374442
C	-3.049430302	 1.7052706829	-0.0515284211	-0.488311
C	 0.8681231176	-1.5446517301	 1.8041374071	 0.278079
C	 1.7594067773	-2.2201590346	 2.248440802	-0.437026
H	 1.3460761425	 0.8325700731	-0.630243436	 0.292689
H	 0.3562204222	-1.2013796657	-0.843049723	 0.083799
H	-0.3401084088	 0.1786775155	 1.7892330873	 0.121355
H	-1.4832106742	-2.4611079978	 0.697574074	 0.117684
H	-2.3623847909	-1.2476553278	 1.6669693426	 0.125825
H	-2.0202703109	-1.0628701112	-1.2691103862	 0.107027
H	-3.6030132175	 2.6024797659	 0.0741379731	 0.196808
H	 2.5406088213	-2.8130063629	 2.6554069816	 0.194959
64.2088	116.1394	145.7655	184.1446	240.3899	258.7095	322.2412	391.1159	446.2284	484.6086	538.1565	604.765	621.1839	626.0029	630.7802	632.2902	694.4513	809.275	811.861	914.1203	956.236	1002.0136	1062.4413	1091.1737	1120.1009	1161.7453	1191.7369	1216.2447	1222.7263	1250.8271	1295.7867	1346.7291	1363.3532	1432.3139	1488.7337	2230.49	2236.6334	3008.5343	3062.769	3069.9478	3088.4228	3154.408	3503.9797	3504.6923	3816.0381
OC1C(CC1C#C)C#C	O[C@H]1[C@@H](C[C@H]1C#C)C#C	
InChI=1S/C8H8O/c1-3-6-5-7(4-2)8(6)9/h1-2,6-9H,5H2	InChI=1S/C8H8O/c1-3-6-5-7(4-2)8(6)9/h1-2,6-9H,5H2/t6-,7-/m1/s1
