19
gdb 83850	2.19197	1.87999	1.34514	3.4538	77.25	-0.233	0.0078	0.2409	1025.3382	0.161298	-419.189432	-419.181396	-419.180452	-419.221982	31.018	
C	-0.1934859708	 1.4549428001	 0.287245511	-0.331474
N	 0.0375715996	 0.0413996611	 0.0191642074	-0.092842
C	 0.4847494738	-0.4243961651	-1.2850786553	-0.045056
C	 0.8364736752	 0.5366796689	-2.4158990026	-0.247681
C	 2.3150075045	 0.9074693194	-2.3743821436	-0.084086
O	 2.7287104761	 1.3439395784	-1.070261771	-0.249978
C	 2.572048883	 0.4507681924	-0.0414379494	 0.367703
N	 3.3441788084	 0.4498636793	 0.9622289431	-0.510411
C	 1.4047745483	-0.4794672133	-0.0978203736	-0.085623
H	 0.5135210322	 2.1483782795	-0.1871660788	 0.120396
H	-1.2059179699	 1.708674205	-0.0429972641	 0.122356
H	-0.1423167553	 1.608095459	 1.3687891981	 0.138561
H	 0.0044025309	-1.350553685	-1.5932154575	 0.098688
H	 0.6190874032	 0.0640075244	-3.3787773739	 0.112216
H	 0.2212710719	 1.4411752761	-2.3639633488	 0.119969
H	 2.9324178734	 0.0503834504	-2.6747749983	 0.112727
H	 2.5450412184	 1.7427232279	-3.0401370598	 0.119604
H	 4.080480451	 1.1479179096	 0.8332646875	 0.220325
H	 1.5807498463	-1.4062945681	 0.4383842897	 0.114606
79.0081	156.4311	192.4261	228.4053	294.4453	378.5651	404.9041	471.7916	482.1607	537.5054	677.7082	714.2926	735.6321	797.8835	824.2892	911.8288	925.295	933.2663	974.2973	1053.2128	1059.6318	1071.7649	1120.9876	1135.5194	1157.3905	1170.9654	1179.0602	1247.2001	1279.5592	1316.584	1324.6547	1365.9213	1372.9755	1398.6346	1429.1773	1455.3565	1478.8793	1495.288	1508.488	1512.6073	1741.3857	3009.6867	3018.4755	3048.8346	3080.6424	3087.6494	3104.0004	3111.2912	3123.0444	3164.3523	3458.2715
CN1C2CCOC(=N)C12	CN1[C@H]2CCO[C]([NH])[C@@H]12	
InChI=1S/C6H10N2O/c1-8-4-2-3-9-6(7)5(4)8/h4-5,7H,2-3H2,1H3	InChI=1S/C6H10N2O/c1-8-4-2-3-9-6(7)5(4)8/h4-5,7H,2-3H2,1H3/t4-,5-,8?/m0/s1
