19
gdb 40173	3.05717	1.59145	1.38269	0.6421	73.71	-0.2397	0.0777	0.3174	996.437	0.161241	-422.995466	-422.988285	-422.987341	-423.026974	29.146	
C	-0.02566308	 1.5012415266	 0.0133616086	-0.25378
O	 1.1858321922	 0.7472273918	-0.1152076653	-0.283554
C	-0.058140803	 0.0366067804	-0.0154578664	 0.441524
C	-0.3212365224	-0.77652943	 1.2502893289	-0.277342
C	-0.2381171217	-2.3070338491	 0.9976922077	-0.234233
C	-0.5533350923	-2.5916238494	-0.4770537788	 0.099549
C	 0.5005916456	-1.958122317	-1.4074393906	-0.243489
C	-0.4270932552	-0.7367871202	-1.2713482856	 0.00512
O	-1.540237451	-1.6170512831	-0.9461095909	-0.301423
H	-0.1494154595	 2.0247985547	 0.9612771676	 0.112373
H	-0.319495255	 2.0696725623	-0.8688054475	 0.112983
H	 0.3700495876	-0.4557169928	 2.0338598885	 0.111293
H	-1.3335057402	-0.5396059891	 1.5896806273	 0.122173
H	 0.7568704355	-2.7011283516	 1.2333444966	 0.106724
H	-0.9485494776	-2.8246373201	 1.6493825183	 0.104467
H	-0.8740064805	-3.619429005	-0.6636296938	 0.078508
H	 1.5280640086	-1.8630692713	-1.0516713486	 0.114505
H	 0.4769340123	-2.3808016132	-2.4129264495	 0.10759
H	-0.6205256434	-0.101096344	-2.1387766966	 0.077012
94.1648	191.0316	305.8716	340.0387	371.5155	409.1972	438.4446	520.3075	606.2289	711.283	765.1639	823.6175	847.8725	878.4698	908.1208	912.2886	950.3031	964.6982	978.8667	985.2234	1041.5777	1057.7429	1103.1876	1110.5857	1126.7251	1158.0016	1176.3168	1224.1513	1237.4425	1254.4646	1279.4897	1306.8688	1310.6614	1337.7356	1352.767	1365.8542	1436.2626	1469.1774	1487.5486	1499.7008	1531.3376	3041.6315	3058.9146	3072.4805	3073.9192	3079.0422	3083.9766	3088.324	3108.9826	3140.1121	3158.9639
C1OC11CCC2CC1O2	C1O[C@]21CC[C@@H]1C[C@H]2O1	
InChI=1S/C7H10O2/c1-2-7(4-8-7)6-3-5(1)9-6/h5-6H,1-4H2	InChI=1S/C7H10O2/c1-2-7(4-8-7)6-3-5(1)9-6/h5-6H,1-4H2/t5-,6-,7+/m1/s1
