21
gdb 123183	6.12275	0.51502	0.49392	1.5255	77.	-0.262	0.0817	0.3437	2199.067	0.180651	-461.322734	-461.312449	-461.311505	-461.360068	35.658	
O	-0.1500658157	 1.3860716755	 0.0886899553	-0.421607
C	-0.0082307372	-0.0095328613	-0.0869934164	-0.05872
C	-1.3624322508	-0.6989744553	-0.1432065195	-0.071901
O	-2.0637463575	-0.1273641129	-1.232996545	-0.262356
C	-3.4043842278	-0.559291166	-1.3413942711	-0.044219
C	-4.0343740781	 0.1204894801	-2.55264955	-0.240821
C	-5.4844277112	-0.2597433386	-2.7185215897	 0.094551
C	-6.0974982361	-0.4663925029	-4.0355339763	-0.179211
O	-5.7459264407	-1.578831208	-3.2117020883	-0.235255
H	-0.7986823942	 1.6628552061	-0.5693889131	 0.287141
H	 0.5519248698	-0.2453998224	-1.0060429928	 0.093068
H	 0.5663184079	-0.389512696	 0.7640684849	 0.107963
H	-1.2456742085	-1.7868103313	-0.2772077049	 0.089889
H	-1.9118194508	-0.5248817905	 0.7959361074	 0.095054
H	-3.4496190458	-1.6528478178	-1.4613826115	 0.10982
H	-3.9620580608	-0.307387907	-0.4230670145	 0.088435
H	-3.9522684878	 1.2081985558	-2.4357060706	 0.108717
H	-3.4747533995	-0.1575884074	-3.4515393315	 0.114665
H	-6.1438138328	 0.0362486766	-1.899623156	 0.093084
H	-7.1656567214	-0.3013334722	-4.1695389658	 0.11629
H	-5.4925490111	-0.3395712543	-4.9326161305	 0.115414
34.2086	47.8654	90.4015	101.066	134.1211	179.2589	230.1163	317.5163	345.7062	436.7769	456.149	468.1202	563.2223	778.2793	818.5231	859.4572	888.0968	907.6257	950.6663	1015.4088	1049.9597	1067.1	1086.7722	1113.9708	1135.9843	1156.7613	1160.3594	1160.6422	1180.9177	1238.3063	1240.3617	1265.4016	1291.671	1307.3425	1311.3156	1383.9948	1387.9806	1435.8226	1446.1951	1452.5132	1477.2599	1500.0965	1504.3249	1530.2191	1532.4906	2956.5668	2969.5324	2977.8923	3002.4281	3009.1914	3037.6075	3079.1147	3079.7241	3083.4017	3097.61	3168.7977	3794.4161
OCCOCCC1CO1	OCCOCC[C@H]1CO1	
InChI=1S/C6H12O3/c7-2-4-8-3-1-6-5-9-6/h6-7H,1-5H2	InChI=1S/C6H12O3/c7-2-4-8-3-1-6-5-9-6/h6-7H,1-5H2/t6-/m0/s1
