17
gdb 131869	5.48885	0.78253	0.71656	1.7861	71.1	-0.2165	0.0184	0.2349	1529.3269	0.137357	-455.140308	-455.131802	-455.130858	-455.174679	30.785	
O	-0.0161004566	 1.4459635465	-0.058082963	-0.418778
C	 0.0237984324	 0.0354293479	 0.01178824	-0.065838
C	-1.3703573308	-0.5664320445	 0.0496388526	-0.088159
O	-2.0059334635	-0.184352052	-1.1677572902	-0.294397
C	-3.3072182311	-0.5467633705	-1.3039528035	 0.284656
C	-4.0968274549	-0.2269598271	-2.392216397	-0.150886
N	-5.3098540356	-0.7820870067	-2.1330075323	-0.171415
N	-5.3659738235	-1.4334691363	-0.9651970334	-0.225845
C	-4.1440895437	-1.2977861258	-0.4461304638	-0.114144
H	-0.595451847	 1.6614191592	-0.7978563025	 0.291342
H	 0.5779752545	-0.3975756645	-0.836035756	 0.097406
H	 0.5570822835	-0.2277115649	 0.9310007378	 0.113215
H	-1.3251895849	-1.6620269379	 0.1311756521	 0.104212
H	-1.9333827883	-0.1688044062	 0.9050180732	 0.114061
H	-3.8855402144	 0.329411898	-3.2897710187	 0.134891
H	-6.1313998845	-0.7484996959	-2.7116376501	 0.277409
H	-3.9156095116	-1.7393574193	 0.5108930748	 0.112269
53.3789	55.9517	132.0403	176.9209	291.5976	335.1597	407.6907	454.9832	494.0324	498.4178	649.0967	695.8399	716.2116	752.3027	848.208	893.1309	913.6985	943.8224	1017.1414	1059.2079	1081.2777	1105.3353	1135.2335	1167.603	1234.5458	1261.442	1269.0828	1338.675	1381.761	1389.434	1402.0235	1421.109	1441.2897	1497.123	1504.7876	1510.5605	1631.1229	2984.2585	2996.654	3046.8117	3083.0426	3261.1019	3277.1252	3679.0581	3803.3027
OCCOC1=CNN=C1	OCCOc1c[nH]nc1	
InChI=1S/C5H8N2O2/c8-1-2-9-5-3-6-7-4-5/h3-4,8H,1-2H2,(H,6,7)	InChI=1S/C5H8N2O2/c8-1-2-9-5-3-6-7-4-5/h3-4,8H,1-2H2,(H,6,7)
