27
gdb 99767	1.76178	1.32434	0.91717	0.9103	92.34	-0.242	0.078	0.3201	1482.3628	0.248638	-390.695878	-390.683735	-390.682791	-390.732915	44.39	
C	-0.7011564417	 1.3717113418	 0.7537113755	-0.237617
O	-0.1732006205	 0.1195543599	 0.3798372941	-0.256557
C	 0.7567655619	-0.4611059256	 1.301706236	 0.126533
C	 0.1754888723	-1.7996276639	 1.8085565096	 0.03028
C	 1.1244239531	-2.5189949053	 2.778467739	-0.400364
C	-1.196204943	-1.5851799973	 2.4643772085	-0.398425
C	 2.1385385173	-0.5635858764	 0.6149315501	 0.03156
C	 2.108105166	-1.4587021873	-0.6326102481	-0.389236
C	 2.6754449176	 0.8312187772	 0.2619596299	-0.399741
H	 0.0798696922	 2.1380006857	 0.8624466135	 0.104892
H	-1.3841688333	 1.682611489	-0.0423027241	 0.121608
H	-1.265554006	 1.3189555277	 1.6963821449	 0.103818
H	 0.8649855284	 0.2066095966	 2.1722572327	 0.056512
H	 0.0236448547	-2.4393588139	 0.9301645678	 0.082144
H	 0.6471671119	-3.4178397437	 3.1822124366	 0.110663
H	 2.0572064992	-2.8303754843	 2.3007868789	 0.117899
H	 1.3818775916	-1.8755218606	 3.6289853667	 0.109972
H	-1.8909713783	-1.1024214293	 1.7738714993	 0.126192
H	-1.631739098	-2.5420315174	 2.7702773961	 0.106138
H	-1.1123913564	-0.9606982063	 3.3627986771	 0.103405
H	 2.8275465306	-1.0053405555	 1.3455400113	 0.070833
H	 1.3613130706	-1.0930193024	-1.343395566	 0.130573
H	 3.0829921526	-1.4562641795	-1.1307247655	 0.104047
H	 1.8647528863	-2.4977385679	-0.3915753274	 0.11037
H	 2.0339689542	 1.3185229936	-0.4787393171	 0.125352
H	 2.7298150021	 1.4781401501	 1.1447184812	 0.102356
H	 3.6823716845	 0.7629837151	-0.1624473004	 0.106792
57.6471	82.1212	106.6495	167.6035	180.2052	193.6211	222.5906	234.3476	248.7691	266.5157	291.2001	316.8004	350.2073	378.38	423.3983	450.5157	485.5667	603.3734	814.45	856.0237	904.8672	926.3114	928.2589	948.2488	966.162	968.4192	999.1568	1078.9192	1112.6358	1133.1393	1153.5648	1182.5293	1185.0106	1189.7848	1204.3239	1227.7641	1294.2089	1335.6185	1346.8827	1352.3581	1376.5082	1389.015	1396.047	1396.8937	1416.58	1418.8028	1481.295	1484.7774	1488.7498	1490.8768	1493.0665	1495.5767	1502.7185	1505.0383	1509.5014	1514.2124	1520.5308	2961.3888	2985.0894	3022.2202	3024.6129	3027.3956	3028.801	3032.9688	3034.4521	3039.8617	3085.0261	3092.303	3093.4119	3101.1807	3102.1697	3107.8311	3109.1169	3118.1378	3125.0634
COC(C(C)C)C(C)C	COC(C(C)C)C(C)C	
InChI=1S/C8H18O/c1-6(2)8(9-5)7(3)4/h6-8H,1-5H3	InChI=1S/C8H18O/c1-6(2)8(9-5)7(3)4/h6-8H,1-5H3
