16
gdb 14449	3.58145	2.39753	2.02366	1.7042	68.14	-0.2262	-0.0038	0.2224	736.5806	0.130521	-346.534735	-346.528433	-346.527488	-346.564667	25.856	
C	 0.04420457	 1.480262203	-0.113782096	-0.524772
C	-0.0078486369	-0.0075042017	 0.0173287385	 0.443484
O	 0.550547035	-0.8347443393	-1.0665550702	-0.355743
C	 0.0589603351	-1.7991432615	-0.0798340638	 0.069969
C	 0.6180894594	-0.9581516832	 1.1153170691	-0.129335
C	-0.379882054	-1.0574336728	 2.248566092	-0.112831
C	-1.5733172217	-1.0690807691	 1.642615182	-0.112831
C	-1.2487719223	-0.9763618501	 0.1674440137	-0.129335
H	 1.0804472775	 1.8212126898	-0.2001506898	 0.134876
H	-0.5025927273	 1.8057463099	-1.0040509121	 0.134878
H	-0.4076196266	 1.9470378186	 0.7669713587	 0.132879
H	 0.1810693242	-2.8624334873	-0.2999039998	 0.089193
H	 1.6925208094	-0.9290661718	 1.2904832229	 0.073555
H	-0.1497867895	-1.101046526	 3.3040748413	 0.106229
H	-2.5604810807	-1.12457165	 2.0800771108	 0.106229
H	-2.0245058515	-0.9653246286	-0.5967855775	 0.073555
209.2837	213.8312	268.1361	427.6346	500.9748	521.5735	584.3602	683.4212	702.5958	747.4811	764.3707	816.6908	874.9026	918.5386	918.9951	922.2762	947.3478	986.141	991.5509	1028.482	1096.1644	1129.9482	1149.124	1165.819	1190.7603	1227.8577	1242.087	1277.6988	1342.2939	1351.803	1408.9403	1474.8839	1486.4967	1626.7033	3038.7914	3091.1925	3113.3562	3116.4515	3136.1515	3139.6737	3215.7869	3241.4516
CC12OC3C1C=CC23	C[C@@]12O[C@H]3[C@@H]1C=C[C@@H]23	
InChI=1S/C7H8O/c1-7-4-2-3-5(7)6(4)8-7/h2-6H,1H3	InChI=1S/C7H8O/c1-7-4-2-3-5(7)6(4)8-7/h2-6H,1H3/t4-,5+,6-,7+
