13
gdb 29022	3.16031	1.56882	1.04839	3.6619	71.21	-0.2529	-0.0838	0.1691	1035.7957	0.090708	-452.808897	-452.80186	-452.800916	-452.840704	25.991	
O	 0.5404570857	 1.2098271892	 0.321115164	-0.371843
C	 0.2641258046	-0.0858828901	 0.171415537	 0.389293
N	 0.307704648	-0.5861786419	-1.0607547956	-0.334253
C	 0.0300786587	-1.8814081829	-1.1995864728	-0.007107
C	-0.2932149484	-2.6874383365	-0.1097092166	-0.043542
N	-0.3366247732	-2.1868292472	 1.1218230276	-0.27542
C	-0.0625607825	-0.8908030354	 1.2899454213	 0.130315
C	-0.132296895	-0.4083869191	 2.694914527	 0.10919
O	 0.0768966314	 0.7188059682	 3.068366846	-0.250742
H	 0.7319467509	 1.5520997232	-0.5655077808	 0.30597
H	 0.0666593865	-2.2865247314	-2.2074218599	 0.131623
H	-0.5177672023	-3.7419436849	-0.2343628457	 0.124483
H	-0.4086909743	-1.230867941	 3.3887742285	 0.092034
90.1682	178.7886	205.3243	295.1969	413.8892	457.5753	461.6195	569.3277	597.8469	609.5562	684.6627	759.4505	821.7509	881.8987	930.7871	988.6328	1047.5274	1085.2895	1145.322	1260.1449	1277.1287	1290.8992	1358.0308	1403.2613	1479.2795	1495.4562	1593.4149	1615.4071	1814.1236	2914.3065	3165.19	3187.7214	3737.2074
OC1=NC=CN=C1C=O	Oc1nccnc1C=O	
InChI=1S/C5H4N2O2/c8-3-4-5(9)7-2-1-6-4/h1-3H,(H,7,9)	InChI=1S/C5H4N2O2/c8-3-4-5(9)7-2-1-6-4/h1-3H,(H,7,9)
