21
gdb 99051	3.96607	0.72838	0.67025	2.257	85.68	-0.245	-0.0145	0.2305	1746.2907	0.178269	-387.089235	-387.078201	-387.077257	-387.126369	39.135	
C	 0.1637731422	 1.5277214059	 0.1284423514	-0.376191
C	-0.0548245086	 0.042094655	-0.1466275898	-0.277736
C	-1.4955473876	-0.4110095117	 0.0476781887	 0.378293
O	-2.3911080801	 0.3736178311	 0.268493133	-0.302448
C	-1.7399784815	-1.9147376188	-0.0317150972	-0.30322
C	-3.2311442101	-2.2974170535	-0.1300642726	-0.156831
C	-3.8289442206	-1.9298106866	-1.5034816071	-0.395512
C	-3.4117525235	-3.7185439339	 0.1596501703	 0.305113
C	-3.5455716462	-4.8929695199	 0.3805601217	-0.449605
H	 1.205137105	 1.805742402	-0.0556162859	 0.111208
H	-0.4785604393	 2.1388200314	-0.5099631504	 0.134762
H	-0.0808511214	 1.7740344462	 1.1651349043	 0.129549
H	 0.2256469263	-0.2126132688	-1.1789399821	 0.125579
H	 0.5914958349	-0.5846331945	 0.4825763115	 0.120085
H	-1.1724028996	-2.3393345536	-0.8689915312	 0.121304
H	-1.2993749869	-2.3560617358	 0.8723215946	 0.136843
H	-3.7601629272	-1.7116466001	 0.6313109086	 0.127212
H	-3.7330118627	-0.855759237	-1.6771898797	 0.134795
H	-3.3158108724	-2.4699894142	-2.3056224195	 0.117625
H	-4.8884683816	-2.1941148281	-1.5444772323	 0.127536
H	-3.677590769	-5.9262403649	 0.5858726135	 0.191638
44.716	52.7218	78.7979	116.5489	180.7999	198.5338	221.7946	252.5592	290.4945	334.0278	369.3928	467.0661	521.6451	542.8089	623.7459	636.5723	650.2802	734.2995	806.4664	853.222	880.7346	939.5052	997.1271	1017.7861	1024.2086	1090.8957	1117.663	1129.2757	1145.4497	1234.3765	1280.9673	1290.0285	1340.7116	1360.626	1381.5147	1403.2602	1414.2874	1443.9924	1454.1105	1493.5138	1496.214	1498.3588	1503.3722	1801.6184	2234.3692	3014.0536	3028.3076	3038.586	3044.2297	3046.5471	3052.1198	3066.2682	3117.738	3121.9727	3130.2465	3135.4061	3505.2028
CCC(=O)CC(C)C#C	CCC(=O)C[C@@H](C)C#C	
InChI=1S/C8H12O/c1-4-7(3)6-8(9)5-2/h1,7H,5-6H2,2-3H3	InChI=1S/C8H12O/c1-4-7(3)6-8(9)5-2/h1,7H,5-6H2,2-3H3/t7-/m0/s1
