14
gdb 33521	2.18791	1.70427	1.22827	1.3454	74.08	-0.263	-0.0079	0.2551	1030.2793	0.098815	-399.478033	-399.469769	-399.468825	-399.511176	30.597	
C	-0.1022119194	-1.2927068498	-0.0813407841	-0.4462
C	-0.0450002298	-0.0939867133	-0.0458466668	 0.317215
C	-0.0024634013	 1.3632110852	 0.0451738101	 0.006179
C	-0.5059116425	 1.9010212119	 1.4494543526	-0.227148
N	 0.6549643077	 2.5602017879	 2.0436907823	-0.252815
C	 1.5982915096	 2.4435121362	 1.210516444	 0.121841
O	 1.4000651724	 1.7979868637	 0.033780972	-0.236941
C	-0.6985581112	 1.9872160781	-1.0771396129	 0.317463
C	-1.2989128457	 2.518426156	-1.9709255863	-0.446367
H	-0.1482883588	-2.3530903579	-0.1273790299	 0.209417
H	-1.3288668474	 2.6081338791	 1.3216821948	 0.13902
H	-0.8479412818	 1.0772814617	 2.0803765221	 0.139026
H	 2.6056862492	 2.8234841892	 1.3387539616	 0.149887
H	-1.8231746509	 2.9799417519	-2.7714321495	 0.209422
61.9422	123.1281	171.9135	172.8992	261.4504	451.8374	464.1897	500.022	539.717	554.8971	575.7753	635.8548	637.8576	676.0765	676.5245	769.4746	860.8402	932.3997	959.6112	970.5752	1010.1397	1089.3388	1136.9313	1149.7799	1253.759	1308.8123	1332.4656	1490.321	1716.8391	2242.6452	2244.2443	3068.7515	3115.8803	3219.3319	3498.9359	3499.5208
C#CC1(CN=CO1)C#C	C#CC1(CN=CO1)C#C	
InChI=1S/C7H5NO/c1-3-7(4-2)5-8-6-9-7/h1-2,6H,5H2	InChI=1S/C7H5NO/c1-3-7(4-2)5-8-6-9-7/h1-2,6H,5H2
