22
gdb 62956	2.10574	1.78769	1.42293	1.4448	85.67	-0.2226	0.085	0.3076	1075.1869	0.193254	-367.159199	-367.150328	-367.149384	-367.191824	35.652	
C	-0.1776365878	 1.5741741795	 0.0272336437	-0.441238
C	-0.002820971	 0.0605506731	 0.0293623322	 0.236484
C	-1.3409727316	-0.6424408322	-0.1754287338	-0.414653
N	 0.9508605736	-0.485636919	-1.0323905058	-0.158449
C	 2.3151324591	-0.0079576313	-0.7353543564	-0.253545
C	 1.7760669423	-1.1132254609	 0.0788309816	-0.116142
C	 0.8562225219	-0.5804039019	 1.1475407749	 0.355257
C	 1.2324428334	-0.0532144532	 2.502665787	-0.33313
C	 0.3872248505	-1.3010280533	 2.3728619043	-0.344057
H	 0.7584979733	 2.1078957233	 0.207659109	 0.115209
H	-0.5809733859	 1.9052675498	-0.9357263939	 0.124059
H	-0.8838602998	 1.877509417	 0.8079267909	 0.114535
H	-1.7905321321	-0.3247202237	-1.121575282	 0.11814
H	-1.2070618679	-1.7266238249	-0.210722651	 0.119988
H	-2.0385962618	-0.4045392672	 0.6345377048	 0.105062
H	 3.0152387007	-0.2545334172	-1.5283900814	 0.117581
H	 2.4725488458	 0.9668591618	-0.2825963149	 0.110981
H	 2.1375104612	-2.1351762478	 0.0090380031	 0.092753
H	 2.2630875609	-0.1573044554	 2.8270018999	 0.111882
H	 0.7453292587	 0.8528988433	 2.8489983761	 0.111906
H	-0.662424704	-1.2390947057	 2.6412256703	 0.114114
H	 0.8469296703	-2.2563179343	 2.6071748413	 0.113263
131.2974	190.0857	196.6767	228.8908	255.1262	288.9216	299.7301	356.4662	398.805	505.6308	531.8199	567.0982	638.5601	751.1301	766.7946	782.9251	862.5608	904.154	921.0346	935.8711	945.7309	969.6374	997.3766	1014.519	1047.9546	1051.3546	1053.8094	1078.2503	1106.4127	1125.2877	1171.4015	1188.0378	1206.9039	1231.1624	1246.178	1281.1465	1317.6144	1397.9527	1408.5222	1418.5838	1463.0791	1477.7235	1479.051	1493.2557	1497.6948	1508.2106	1509.2931	3032.6357	3037.8669	3096.5518	3105.7262	3111.2911	3118.9133	3119.6835	3121.6173	3125.096	3148.8037	3198.5077	3198.9241	3213.4067
CC1(C)N2CC2C11CC1	CC1(C)N2C[C@H]2C21CC2	
InChI=1S/C8H13N/c1-7(2)8(3-4-8)6-5-9(6)7/h6H,3-5H2,1-2H3	InChI=1S/C8H13N/c1-7(2)8(3-4-8)6-5-9(6)7/h6H,3-5H2,1-2H3/t6-,9?/m0/s1
