18
gdb 34331	2.87832	1.5866	1.29385	1.4837	82.12	-0.2296	0.0387	0.2683	1025.5618	0.147921	-364.709122	-364.701542	-364.700598	-364.740799	30.935	
C	-0.0096371196	-1.2119434282	-0.0011551342	-0.389901
C	-0.0065144513	-0.0079321896	 0.0053228911	 0.1646
C	-0.004033546	 1.4282644456	 0.0139019063	 0.190524
C	-0.4643716082	 2.2026604556	-1.2710501356	-0.273812
C	 0.8708989486	 3.0074171545	-1.2779996794	-0.223529
C	 1.3372966648	 2.266198057	 0.0059576337	-0.083704
C	 0.9321712362	 2.8630320527	 1.3706061407	-0.046304
N	-0.3706640876	 3.549926229	 1.1904714433	-0.339819
C	-0.3357014595	 2.0860380814	 1.3878812186	-0.1197
H	-0.0134633918	-2.2734906577	-0.0110252032	 0.183558
H	-0.5882481345	 1.5385771034	-2.1279701911	 0.107275
H	-1.3666375205	 2.7983067846	-1.1315760428	 0.115012
H	 1.5022641534	 2.7956198992	-2.1437476505	 0.097187
H	 0.7604944954	 4.0866837463	-1.1674998408	 0.113685
H	 2.2964799251	 1.7503393235	-0.0020760191	 0.082658
H	 1.5919822325	 3.1465344363	 2.1814720223	 0.093295
H	-0.6201761177	 3.9673333106	 2.0860145869	 0.23256
H	-0.8741850491	 1.6149061558	 2.2011100538	 0.096414
131.144	148.7216	209.2859	300.4293	375.6345	473.399	495.4759	519.4982	600.3494	610.7755	624.5003	687.909	733.4334	795.7191	810.7166	833.6377	874.165	912.5346	936.1483	950.3999	976.7623	1015.341	1026.0202	1068.4873	1080.2424	1125.313	1135.8064	1146.737	1218.1419	1238.4477	1251.5046	1262.8057	1269.2478	1317.9896	1328.3475	1371.2066	1456.8103	1476.6237	2226.4374	3071.4756	3082.2008	3122.2807	3130.6332	3148.2738	3180.4171	3193.706	3481.6997	3502.9534
C#CC12CCC1C1NC21	C#C[C@]12CC[C@H]1[C@H]1N[C@@H]21	
InChI=1S/C8H9N/c1-2-8-4-3-5(8)6-7(8)9-6/h1,5-7,9H,3-4H2	InChI=1S/C8H9N/c1-2-8-4-3-5(8)6-7(8)9-6/h1,5-7,9H,3-4H2/t5-,6+,7+,8-/m0/s1
