17
gdb 54299	2.43585	1.60434	1.04575	3.7541	69.48	-0.2456	0.0093	0.2549	1114.0499	0.135816	-455.208948	-455.199688	-455.198744	-455.243659	34.137	
N	 1.0944657199	-1.0269072655	 0.5262300923	-0.539484
C	-0.0372528557	-0.2839069608	 0.6823075627	 0.388688
O	 0.0114682529	 0.7647000246	 1.3170760336	-0.397489
C	-1.2963599249	-0.8165383967	 0.0495741122	 0.079509
C	-1.1749844979	-1.5965433115	-1.2662446764	-0.286166
C	-1.4879711599	-2.3373577148	-0.0200861029	-0.286116
C	-2.6174885063	-0.0620410567	 0.1663031224	 0.381835
N	-2.5975578022	 1.0937645663	 0.8583304328	-0.554596
O	-3.6216250871	-0.5215887683	-0.3589823581	-0.39813
H	 1.9360969451	-0.6702473607	 0.9472199195	 0.267617
H	 1.1363714326	-1.8918217054	 0.0201328249	 0.263998
H	-1.9925433106	-1.4313370999	-1.9567307601	 0.157188
H	-0.18991099	-1.6675275022	-1.7127762667	 0.113321
H	-0.7339431599	-2.955256223	 0.4536448838	 0.113429
H	-2.5124243596	-2.6617354305	 0.1130262	 0.15718
H	-1.72627513	 1.412700445	 1.266349688	 0.285935
H	-3.4618802363	 1.6019317002	 0.9431132721	 0.25328
46.0524	62.7477	98.5083	271.6138	271.6804	305.6962	324.9143	392.346	414.4316	420.1124	506.4898	560.2195	608.8958	688.3695	698.5954	754.192	785.8774	795.5415	876.7565	890.2855	976.8172	985.7936	1067.1849	1094.6359	1102.4679	1143.7221	1205.1164	1211.8219	1268.4267	1373.9491	1405.1722	1456.1955	1486.014	1587.5468	1618.4324	1739.7515	1777.4543	3146.6705	3147.7322	3237.4197	3249.9495	3491.8022	3617.4262	3698.0428	3753.5107
NC(=O)C1(CC1)C(N)=O	NC(=O)C1(CC1)C(=O)N	
InChI=1S/C5H8N2O2/c6-3(8)5(1-2-5)4(7)9/h1-2H2,(H2,6,8)(H2,7,9)	InChI=1S/C5H8N2O2/c6-3(8)5(1-2-5)4(7)9/h1-2H2,(H2,6,8)(H2,7,9)
