19
gdb 7140	3.53761	1.05433	0.86438	3.3501	70.56	-0.241	0.0396	0.2806	1381.5886	0.163874	-402.225661	-402.215757	-402.214813	-402.262054	33.429	
C	 0.7987137773	 0.7565180847	 0.539334416	-0.370936
C	-0.0557677302	 0.4153497687	-0.6836634562	-0.145326
N	 0.516221406	-0.64692303	-1.4921605358	-0.298882
C	-0.0335818275	-1.8816681113	-1.5847656866	 0.362096
O	-1.0659024976	-2.234399556	-1.0405657044	-0.387759
C	 0.7441908905	-2.8642621637	-2.4611055966	-0.154839
O	 1.9148327743	-2.2769877433	-2.9839090215	-0.245152
C	 2.6573763137	-3.1480122008	-3.8071493624	-0.230765
H	 0.8992985484	-0.1127273169	 1.1955977057	 0.131564
H	 1.8035755157	 1.0795391197	 0.2459157461	 0.111907
H	 0.3394947873	 1.5691881128	 1.1111987582	 0.118334
H	-1.0437934172	 0.0645651947	-0.3775292822	 0.147829
H	-0.195721135	 1.307639168	-1.3065988465	 0.10454
H	 1.3857876353	-0.5014330975	-1.9819682268	 0.258287
H	 0.9779478593	-3.7462128865	-1.845166712	 0.120714
H	 0.0706117244	-3.1998402407	-3.2647556048	 0.120808
H	 2.990047502	-4.0402672274	-3.2554431048	 0.113237
H	 2.0713212184	-3.4786323209	-4.6780218286	 0.113288
H	 3.5346800551	-2.5991636535	-4.1569415469	 0.131054
36.4893	55.2912	71.464	119.7134	154.1436	231.8615	235.0746	310.7254	349.4023	412.7621	475.0947	545.5747	642.0539	662.8918	782.75	894.0853	948.045	1010.2183	1032.51	1084.95	1133.2323	1155.8152	1178.1772	1185.6171	1228.7549	1248.6734	1267.873	1324.1178	1386.0961	1394.0278	1410.8515	1474.9758	1485.9385	1486.886	1493.0701	1494.6081	1503.5166	1516.7155	1562.4865	1784.3337	2978.3938	2989.1585	3018.1901	3027.7398	3030.3374	3034.6717	3096.7652	3115.2893	3119.4698	3124.7602	3626.9049
CCNC(=O)COC	CCNC(=O)COC	
InChI=1S/C5H11NO2/c1-3-6-5(7)4-8-2/h3-4H2,1-2H3,(H,6,7)	InChI=1S/C5H11NO2/c1-3-6-5(7)4-8-2/h3-4H2,1-2H3,(H,6,7)
