14
gdb 128565	7.26602	0.89393	0.80004	2.4057	75.12	-0.236	-0.027	0.209	1355.9728	0.09945	-436.637334	-436.629057	-436.628113	-436.670593	29.68	
C	 0.0184197107	 1.4240608679	-0.0495990511	-0.255224
O	 0.0043585923	-0.0098066279	-0.004760498	-0.270786
C	 0.5773692593	-0.6549497333	-1.0088857243	 0.552233
C	 0.7133499253	-1.9931053414	-1.23079435	-0.509269
C	 1.4138277561	-2.0358475713	-2.4683104207	 0.274946
N	 1.676332756	-0.8298531027	-2.9497747187	-0.227322
O	 1.133016311	 0.053029392	-2.0011661937	-0.220333
C	 1.8250045312	-3.1931521621	-3.1792628466	 0.256364
C	 2.1584365741	-4.194480453	-3.7549693091	-0.381321
H	 1.0443064961	 1.802508923	-0.056476274	 0.149732
H	-0.5088346152	 1.7902668358	-0.9348181782	 0.149731
H	-0.4957724094	 1.7462214686	 0.8551350471	 0.14756
H	 0.3743818657	-2.809877317	-0.6202373732	 0.132921
H	 2.4584692561	-5.0714658784	-4.2733681843	 0.200769
67.5764	135.5495	135.7962	170.5849	242.3032	308.8247	436.9429	481.2432	546.7791	591.0893	627.1306	671.0258	685.8449	718.984	727.4077	782.621	927.6741	989.1518	1021.2738	1053.9114	1176.2896	1181.2333	1206.6819	1326.0303	1442.9216	1464.4068	1486.3556	1498.1507	1505.0458	1657.3066	2247.2482	3046.792	3121.6278	3164.5122	3303.1604	3503.9453
COC1=CC(=NO1)C#C	COc1cc(no1)C#C	
InChI=1S/C6H5NO2/c1-3-5-4-6(8-2)9-7-5/h1,4H,2H3	InChI=1S/C6H5NO2/c1-3-5-4-6(8-2)9-7-5/h1,4H,2H3
