16
gdb 49296	2.63007	1.47507	0.97296	4.4122	75.44	-0.2501	-0.0719	0.1782	1156.0676	0.125228	-437.919631	-437.91174	-437.910796	-437.952406	29.12	
N	 0.2616357039	 1.2004779777	 0.7242700666	-0.519961
C	 0.1729992814	 0.0357129372	 0.224695417	 0.341679
O	 1.2838986742	-0.7151451617	-0.0314252392	-0.256029
C	 1.1525229325	-1.825790259	-0.9279888935	-0.089386
C	-0.0204823738	-2.7264360274	-0.5536740871	-0.279507
C	-1.2398660179	-1.8853864059	-0.3521037138	-0.125338
C	-1.1421574767	-0.5867898597	-0.0260913565	 0.102341
C	-2.3761106708	 0.2351482594	 0.1532234419	 0.099025
O	-3.4905892507	-0.2112198899	 0.002437787	-0.273586
H	 1.2424875311	 1.4595838956	 0.8438745251	 0.226372
H	 1.019858967	-1.4475327746	-1.9501678976	 0.118866
H	 2.1072285809	-2.3527631669	-0.8766317092	 0.126261
H	-0.1816785717	-3.4725017851	-1.3399690627	 0.127984
H	 0.1997447623	-3.2885938815	 0.3651729237	 0.140744
H	-2.2312340116	-2.3165845765	-0.461653519	 0.138459
H	-2.1961016302	 1.2871126985	 0.4341852876	 0.122077
86.9425	127.004	194.4318	222.0449	290.7502	351.9489	361.1834	486.5099	532.3829	554.1342	684.8043	749.2163	797.1358	884.2348	905.1225	908.3731	933.8377	971.8157	1055.5022	1072.9415	1084.2077	1129.6904	1156.7966	1227.2704	1264.513	1302.2577	1362.7937	1373.6423	1421.3911	1442.9454	1458.032	1509.6821	1666.2594	1727.63	1798.0159	2996.1436	3012.7334	3025.16	3069.4152	3113.6975	3180.1969	3475.8027
N=C1OCCC=C1C=O	[NH]C1=C([CH]CCO1)C=O	
InChI=1S/C6H7NO2/c7-6-5(4-8)2-1-3-9-6/h2,4,7H,1,3H2	InChI=1S/C6H7NO2/c7-6-5(4-8)2-1-3-9-6/h2,4,7H,1,3H2
