14
gdb 78060	3.21793	1.4003	1.15163	1.4216	64.21	-0.2641	-0.0335	0.2306	1019.795	0.099258	-473.766236	-473.758551	-473.757606	-473.798509	28.554	
O	-0.184053332	 1.4190610487	 0.2678505956	-0.440965
C	-0.0961212762	 0.0407093344	 0.1620527161	 0.190095
C	-0.0965147888	-0.8270176715	 1.4997713694	-0.230245
N	-1.5878646936	-0.5656031358	 1.5828716006	-0.082231
C	-2.175346484	 0.5614466139	 2.1016748637	 0.121445
O	-3.0037072442	 1.2355853044	 1.5223116411	-0.322357
C	-1.4142875218	-0.8107066428	 0.0972443504	-0.236144
C	-0.52031877	-1.9891881928	 0.5721496037	 0.492768
O	-0.278116622	-3.1221694207	 0.330235043	-0.289652
H	-1.104195195	 1.6870330364	 0.3900119541	 0.315146
H	 0.6865127642	-0.2169155584	-0.5589083809	 0.117832
H	 0.559520212	-0.7845352547	 2.3652260806	 0.124377
H	-1.863581004	 0.7443871661	 3.1463354418	 0.103091
H	-2.2431480547	-0.7606969572	-0.6023113392	 0.136841
113.3043	154.8437	175.3036	227.2402	310.7628	365.6441	404.0939	492.0405	553.3323	623.0033	672.0592	715.481	755.7432	807.8664	888.0068	901.3683	992.9728	1024.1266	1042.4535	1107.2973	1123.5406	1138.3716	1166.2411	1186.8848	1233.2828	1320.6586	1358.0167	1406.5417	1432.1127	1757.8902	1960.3616	2972.7103	3066.9955	3169.4533	3182.5407	3766.5481
OC1C2N(C=O)C1C2=O	O[C@H]1[C@H]2N(C=O)[C@@H]1C2=O	
InChI=1S/C5H5NO3/c7-1-6-2-4(8)3(6)5(2)9/h1-4,8H	InChI=1S/C5H5NO3/c7-1-6-2-4(8)3(6)5(2)9/h1-4,8H/t2-,3+,4+
