18
gdb 79121	3.98893	1.33237	1.13808	2.0198	76.65	-0.218	-0.0176	0.2004	1088.4879	0.148417	-401.900125	-401.892878	-401.891934	-401.931651	29.037	
C	 0.0531652482	 1.4916781477	-0.2454347746	-0.329699
N	 0.0338043804	 0.0524669281	-0.001833826	-0.1056
C	-1.0446297209	-0.4902169571	 0.8966233333	-0.036521
C	-0.1444641495	-1.7403269424	 1.1420798943	-0.015802
C	-0.3902850878	-2.2944495742	 2.5357172756	-0.370825
C	-0.5525296303	-0.9640888382	 3.292811649	 0.406452
O	-0.7702219254	-0.7955835443	 4.4639168943	-0.322176
C	-0.3720119939	 0.0709607508	 2.2093639327	-0.157708
C	 0.7411874055	-0.4588411888	 1.2241094054	-0.036524
H	 1.0247963394	 1.7592373351	-0.6732406784	 0.124227
H	-0.7123562485	 1.7287498962	-0.9913890736	 0.124227
H	-0.1192165199	 2.1299214374	 0.634647092	 0.101209
H	-2.1038608197	-0.457135315	 0.6325230229	 0.089215
H	 0.0222023604	-2.4045489826	 0.2968777835	 0.089943
H	-1.2943403024	-2.9065743415	 2.619133203	 0.129298
H	 0.4456634872	-2.8759624067	 2.9382155085	 0.1293
H	-0.4421899491	 1.1168118	 2.4918544513	 0.091768
H	 1.8234410761	-0.3881383543	 1.3527211069	 0.089217
128.7704	188.5778	228.1403	234.696	387.0079	449.0112	509.8989	600.2589	610.8818	660.0254	719.0926	774.8975	794.2036	848.4773	884.7248	900.9899	920.7745	978.9703	994.0339	1016.8901	1086.0451	1100.5349	1127.6631	1143.6877	1152.5875	1165.1437	1168.5368	1197.3652	1219.2788	1220.8299	1256.2069	1275.3579	1288.9598	1352.2929	1447.6403	1461.3348	1492.2212	1497.9348	1857.2817	2984.5833	3052.2905	3067.6386	3090.5478	3094.457	3094.6234	3100.6167	3149.4444	3171.8901
CN1C2C3CC(=O)C2C13	CN1[C@H]2[C@@H]3CC(=O)[C@H]2[C@H]13	
InChI=1S/C7H9NO/c1-8-6-3-2-4(9)5(6)7(3)8/h3,5-7H,2H2,1H3	InChI=1S/C7H9NO/c1-8-6-3-2-4(9)5(6)7(3)8/h3,5-7H,2H2,1H3/t3-,5+,6-,7+
