15
gdb 14631	3.54214	1.17697	1.04058	2.6408	59.17	-0.2673	0.0031	0.2704	1120.143	0.117824	-436.980481	-436.971828	-436.970884	-437.015601	28.591	
O	 0.8167038575	 1.8130481859	-1.4952117886	-0.322974
C	 0.5726504037	 2.0616782427	-0.3326390936	 0.150079
N	 1.3477807869	 1.6655284981	 0.7124103202	-0.265898
C	 2.5542408672	 0.8806027989	 0.5122469798	-0.166937
C	 3.7430030836	 1.7292298482	 0.0630766513	-0.088833
O	 4.0871706385	 2.6692223788	 1.0849153127	-0.180633
C	 3.7658991352	 3.9639201139	 0.8882478383	 0.163977
O	 3.9243981871	 4.7995906225	 1.725866525	-0.274953
H	-0.3139525744	 2.6377031989	-0.0043902632	 0.088386
H	 1.094665556	 1.950876875	 1.6442323386	 0.264022
H	 2.795423256	 0.3724409748	 1.4491451339	 0.127818
H	 2.3573642101	 0.1257276466	-0.2551880203	 0.144094
H	 4.6197644296	 1.0964986094	-0.1011459947	 0.128077
H	 3.4986713245	 2.2454694884	-0.8715626753	 0.143836
H	 3.3573593986	 4.1554999077	-0.1225529141	 0.089937
32.5179	55.1817	91.0568	169.1335	194.9266	272.7991	327.2327	393.9284	478.8147	536.6038	625.149	773.1764	857.5296	924.1462	1029.9785	1037.3668	1044.8305	1053.7973	1113.5277	1179.1415	1219.6872	1292.6227	1318.9306	1393.0948	1398.8927	1426.4118	1428.1592	1457.5994	1504.4753	1523.1332	1798.8403	1865.8606	2952.3748	2958.0302	3050.5164	3062.9611	3106.0027	3121.0415	3649.097
O=CNCCOC=O	O=CNCCOC=O	
InChI=1S/C4H7NO3/c6-3-5-1-2-8-4-7/h3-4H,1-2H2,(H,5,6)	InChI=1S/C4H7NO3/c6-3-5-1-2-8-4-7/h3-4H,1-2H2,(H,5,6)
