19
gdb 53977	2.62314	1.11819	0.95209	1.7481	72.92	-0.2576	-0.0291	0.2285	1294.4211	0.154175	-460.211158	-460.200564	-460.19962	-460.247481	37.289	
C	 0.4489437948	 1.4199744698	-0.0431804281	-0.47629
C	-0.1185365651	 0.0213231716	-0.038746037	 0.36936
O	-0.6327121826	-0.4757655679	 0.935706991	-0.314077
C	-0.0432623645	-0.8230284914	-1.338241413	 0.238745
C	 0.7904082409	-2.0766605792	-1.0442413907	-0.41864
C	-1.4759671368	-1.1573577859	-1.7726126178	-0.418602
O	 0.6150102934	 0.0226968338	-2.3193326703	-0.232039
C	 0.8339968561	-0.4271142794	-3.5676863821	 0.165333
O	 1.3727732796	 0.2432845931	-4.398281663	-0.276165
H	 1.50982432	 1.4005486314	-0.3110692819	 0.155974
H	-0.0412432612	 2.0283406565	-0.8094831825	 0.15595
H	 0.3112579579	 1.8629915365	 0.9433179644	 0.13943
H	 0.3682697375	-2.5840051901	-0.1744914335	 0.15564
H	 0.7842208518	-2.7696785031	-1.8898849383	 0.122526
H	 1.8270893682	-1.8065923163	-0.8232516477	 0.135364
H	-2.0140631809	-0.2485420889	-2.0571965852	 0.135366
H	-1.4870622544	-1.8479422555	-2.620198553	 0.122536
H	-1.9976393059	-1.6247914563	-0.9350951221	 0.155622
H	 0.4746197412	-1.4547850386	-3.745594669	 0.083968
25.1711	99.412	141.1483	149.983	172.4136	214.5629	260.5098	278.8823	293.8561	318.8149	381.1147	416.0656	421.3225	530.6425	604.1819	629.8119	744.3618	856.5097	935.1636	961.2111	994.9772	1001.0051	1046.9619	1055.5493	1162.1773	1173.2676	1194.6177	1195.9013	1287.0953	1384.3706	1392.6548	1408.4368	1436.7405	1451.9444	1464.8423	1481.0475	1486.1191	1500.7915	1507.5246	1810.844	1855.5381	2995.6323	3047.7851	3050.4572	3051.3813	3112.9753	3120.3478	3122.3434	3140.4566	3144.5231	3161.3957
CC(=O)C(C)(C)OC=O	CC(=O)C(C)(C)OC=O	
InChI=1S/C6H10O3/c1-5(8)6(2,3)9-4-7/h4H,1-3H3	InChI=1S/C6H10O3/c1-5(8)6(2,3)9-4-7/h4H,1-3H3
