21
gdb 120886	4.75538	0.74684	0.70707	1.4026	79.02	-0.2477	0.0797	0.3275	1620.3393	0.181353	-424.184825	-424.175258	-424.174313	-424.219486	35.886	
O	-0.0594051496	 1.4594087236	-0.0883835245	-0.421466
C	 0.0035797677	 0.0465696857	 0.0424005788	-0.070629
C	-1.407220596	-0.5055228563	-0.1199890806	-0.191513
C	-1.4685262901	-2.0235566155	 0.0152706276	 0.024495
C	-1.2574976409	-2.680410182	 1.4302086924	-0.323665
C	-2.6200364316	-3.3690295959	 1.2789587887	 0.408088
O	-2.8645512891	-4.6876452906	 1.6237809742	-0.464914
C	-3.7152319637	-2.3582017884	 1.1056227697	-0.342427
C	-2.8366107242	-2.7186889851	-0.0775542802	-0.134932
H	 0.8291216941	 1.8109332412	 0.0187358051	 0.284019
H	 0.6647316767	-0.3947874279	-0.7220310893	 0.081842
H	 0.4084143504	-0.2434369221	 1.0259771937	 0.086426
H	-2.0539445493	-0.0229159399	 0.6220467631	 0.102814
H	-1.7858087767	-0.2053388642	-1.1050194506	 0.104278
H	-0.7754606082	-2.4788079738	-0.7007977345	 0.074187
H	-0.431715409	-3.3949425112	 1.4397113302	 0.107344
H	-1.1503386154	-1.9988252851	 2.28204972	 0.087528
H	-3.2058127925	-4.7059076054	 2.5245927797	 0.283769
H	-4.7097516013	-2.7906712577	 1.0551667295	 0.111434
H	-3.672333798	-1.3774584613	 1.5737187456	 0.10426
H	-3.2659114034	-3.1389238482	-0.9791771685	 0.089061
73.7916	91.7682	109.3843	176.6647	251.8198	265.4162	300.4077	310.7199	403.3024	413.0675	450.7972	524.2261	617.2378	704.9528	785.1424	839.5944	863.3513	911.1261	929.1328	959.8162	971.8547	1015.7443	1023.9909	1058.6208	1067.2284	1084.1086	1094.1812	1103.6527	1174.4237	1217.8657	1223.2441	1233.5904	1246.4526	1256.5142	1294.4538	1311.0997	1317.4063	1333.1291	1382.4903	1412.3624	1460.9078	1477.5327	1488.851	1508.3221	1526.28	2955.9239	2980.8603	3030.3009	3034.9115	3038.1872	3074.2778	3107.6112	3110.2347	3182.7296	3200.6348	3793.3796	3829.4979
OCCC1CC2(O)CC12	OCC[C@H]1C[C@@]2(O)C[C@@H]12	
InChI=1S/C7H12O2/c8-2-1-5-3-7(9)4-6(5)7/h5-6,8-9H,1-4H2	InChI=1S/C7H12O2/c8-2-1-5-3-7(9)4-6(5)7/h5-6,8-9H,1-4H2/t5-,6-,7+/m0/s1
