16
gdb 43207	2.31098	1.68	1.19872	5.02	73.34	-0.2631	-0.0463	0.2168	1043.1582	0.124712	-400.752686	-400.744923	-400.743979	-400.785799	28.728	
O	-0.0402891093	 0.0693678639	-0.5445762214	-0.27184
C	-0.0670738441	 1.2085252765	-0.2003110552	 0.402514
C	-1.164131688	 2.2198460342	 0.1124638934	-0.158313
C	-1.6050853879	 2.1566749172	 1.6127393888	-0.231587
C	-0.5050200032	 3.194937697	 1.9846610398	-0.23732
C	-0.0565817762	 3.2721010593	 0.5034642242	-0.045472
C	 1.0651358279	 2.2637747859	 0.0855535773	-0.282118
C	 2.1192630551	 1.9308779274	 1.0197038123	 0.292828
N	 2.9296968968	 1.6603745293	 1.7995059095	-0.330383
H	-1.9378079091	 2.3621178867	-0.6421145972	 0.105417
H	-2.6214635058	 2.5268774332	 1.7560100635	 0.123586
H	-1.5307404098	 1.1719813495	 2.0785551034	 0.130327
H	-0.9090191879	 4.1382589786	 2.3564961086	 0.117401
H	 0.2623496701	 2.8543980192	 2.6836526728	 0.137232
H	 0.0196457075	 4.2549459848	 0.0426039325	 0.09229
H	 1.5011295742	 2.5478712974	-0.8797928323	 0.155437
44.5145	129.1386	155.4554	191.8261	349.8576	390.2309	511.5577	526.9543	590.0664	618.5639	720.602	797.8348	820.9167	836.4113	859.9238	925.3767	956.5179	1004.1149	1015.0776	1050.0901	1070.3891	1091.2952	1130.7166	1185.2541	1194.4895	1215.8957	1248.6523	1273.0764	1284.6871	1301.6862	1313.7101	1481.9867	1497.1784	1904.4775	2349.8172	3050.9073	3073.1384	3078.0782	3112.9053	3119.4031	3130.6866	3138.5859
O=C1C2CCC2C1C#N	O=C1[C@H]2CC[C@H]2[C@H]1C#N	
InChI=1S/C7H7NO/c8-3-6-4-1-2-5(4)7(6)9/h4-6H,1-2H2	InChI=1S/C7H7NO/c8-3-6-4-1-2-5(4)7(6)9/h4-6H,1-2H2/t4-,5+,6-/m1/s1
