14
gdb 50016	2.97038	1.22421	1.02973	3.2096	65.1	-0.2666	-0.0523	0.2143	1136.7069	0.099077	-473.792776	-473.784854	-473.78391	-473.82587	28.367	
N	 0.0642996994	 1.1864189422	-0.3022009594	-0.546071
C	 0.0387611763	-0.0401476647	-0.062355681	 0.398181
O	 1.0350421076	-0.9425188335	 0.2674326474	-0.259564
C	 0.092038922	-2.0546710998	 0.3971221633	-0.159296
C	-1.0291863372	-1.1020509678	-0.0195295931	 0.28436
O	-2.2924166872	-0.9862564252	 0.5602134665	-0.251311
C	-2.2367422308	-1.300758759	-0.8455181556	-0.161482
C	-2.6946875833	-0.2097042861	-1.7669518083	 0.155468
O	-3.1480726132	-0.4367905031	-2.8588002425	-0.244955
H	 1.0031553895	 1.5797486644	-0.2268445177	 0.242793
H	 0.339168817	-2.86653166	-0.2897106369	 0.139843
H	 0.0338145938	-2.4105074568	 1.4282447175	 0.145087
H	-2.5286073917	-2.3136904704	-1.1180470813	 0.128562
H	-2.5737459522	 0.8111136697	-1.3544854389	 0.128384
80.9117	106.404	166.0343	215.7024	273.2182	328.026	395.9178	451.6155	522.0456	622.8169	695.0881	768.6809	855.7309	882.0405	930.5333	945.8223	983.6932	1005.8284	1073.5566	1075.9122	1112.0084	1143.3101	1147.7747	1233.4657	1275.7814	1334.2876	1402.5261	1496.543	1505.6715	1825.3538	1835.3167	2957.7286	3071.6525	3136.2774	3141.1748	3491.3746
N=C1OCC11OC1C=O	[NH][C]1OC[C@]21O[C@H]2C=O	
InChI=1S/C5H5NO3/c6-4-5(2-8-4)3(1-7)9-5/h1,3,6H,2H2	InChI=1S/C5H5NO3/c6-4-5(2-8-4)3(1-7)9-5/h1,3,6H,2H2/t3-,5-/m0/s1
