21
gdb 72884	2.84376	1.50497	1.20896	1.4987	82.73	-0.2203	0.0786	0.2989	1124.1969	0.181608	-387.053082	-387.044604	-387.04366	-387.085968	33.663	
C	-0.3140470914	 1.5595349416	 0.0415498749	-0.476901
C	 0.0538478097	 0.100921851	 0.0833117284	 0.456782
C	-1.0505463947	-0.9898822248	 0.0584338211	-0.270923
C	-0.3357151824	-1.7354084419	 1.2290315529	-0.227631
C	 0.7787450155	-0.6552244206	 1.2452605847	-0.230216
C	 1.8716511321	-0.8663497881	 0.212208578	 0.47171
C	 3.3489456702	-0.6904844714	 0.340571203	-0.345822
C	 2.754509217	-2.0409349579	-0.0477813843	-0.339547
O	 1.1363850925	-0.2230972619	-0.8346360298	-0.354047
H	 0.5633242017	 2.1875722762	 0.2220546385	 0.124143
H	-0.7202865916	 1.8177569759	-0.943296035	 0.127662
H	-1.074419653	 1.7921495098	 0.7940339086	 0.114514
H	-2.0470379117	-0.6198283409	 0.3151349769	 0.097123
H	-1.1037980906	-1.5231390646	-0.8927599038	 0.108865
H	-0.9252990932	-1.7545579145	 2.148394678	 0.099637
H	 0.0069488464	-2.751225767	 1.01738219	 0.103202
H	 1.060407654	-0.2034004714	 2.1967126736	 0.072632
H	 3.8466554218	-0.1238106858	-0.4392503329	 0.121962
H	 3.7766222224	-0.5769845229	 1.3318235697	 0.111199
H	 2.7769757494	-2.8479492749	 0.6779016509	 0.112712
H	 2.8682526661	-2.354956986	-1.0798132932	 0.122942
63.3475	182.1228	204.7293	220.3564	258.2544	305.5254	371.0543	414.257	480.7537	536.075	648.6662	717.8126	756.811	760.9862	844.2727	866.5819	874.9645	909.6838	918.8157	938.5281	954.6654	968.9918	990.602	1010.7076	1044.0919	1065.2262	1096.7049	1133.2292	1161.2465	1182.5177	1186.6836	1220.149	1227.9414	1264.3525	1273.1828	1282.7018	1321.6986	1396.2016	1409.0535	1448.3067	1463.3954	1479.683	1485.9309	1488.2812	1502.5386	3030.2146	3057.8349	3064.9377	3097.9862	3101.6937	3109.9739	3112.4642	3124.519	3127.0972	3127.518	3208.1908	3222.5243
CC12CCC1C1(CC1)O2	C[C@]12CC[C@H]1C1(CC1)O2	
InChI=1S/C8H12O/c1-7-3-2-6(7)8(9-7)4-5-8/h6H,2-5H2,1H3	InChI=1S/C8H12O/c1-7-3-2-6(7)8(9-7)4-5-8/h6H,2-5H2,1H3/t6-,7+/m1/s1
