15
gdb 128047	6.79716	0.7788	0.70275	1.4684	73.42	-0.2568	-0.0218	0.235	1543.5958	0.111857	-453.927166	-453.918917	-453.917973	-453.961536	28.803	
C	 0.0425644023	 1.3985965441	-0.0345179325	-0.319107
N	 0.0115540318	-0.0344234646	-0.2510250414	-0.192263
C	-1.0815447281	-0.6190383564	-0.0771380709	 0.106311
O	-1.1369028763	-1.9747418763	-0.3072456224	-0.239334
C	-2.2684326402	-2.6363165051	 0.005435977	 0.505191
N	-3.2647982982	-2.1092943153	 0.677890441	-0.23523
O	-4.2068492117	-3.1334561775	 0.7745851264	-0.173771
C	-3.7279542145	-4.2269758619	 0.1642880516	 0.10661
C	-2.4977570589	-3.9941448971	-0.3524856878	-0.378631
H	 0.7886278823	 1.630411257	 0.7331090071	 0.136338
H	 0.367302218	 1.895153217	-0.9552958544	 0.135463
H	-0.9229747103	 1.8279705161	 0.2737494914	 0.108098
H	-2.0334151155	-0.1794877463	 0.2314230173	 0.140312
H	-4.3739096523	-5.0912231655	 0.1780924571	 0.160644
H	-1.8475587382	-4.6548540983	-0.8985692197	 0.139369
32.8408	71.9353	128.0895	207.6329	288.8178	321.0538	355.9999	401.0076	548.4343	596.9176	718.2841	787.8443	795.6207	876.8247	916.7962	953.2715	976.0637	1024.9728	1065.7082	1075.4859	1137.9452	1141.5527	1166.1935	1186.8228	1323.0393	1386.3927	1445.9267	1456.6164	1481.0754	1502.5522	1513.761	1621.3279	1783.3749	2984.5857	3070.4822	3088.634	3101.5993	3265.3288	3298.6027
CN=COC1=NOC=C1	CN=COc1nocc1	
InChI=1S/C5H6N2O2/c1-6-4-8-5-2-3-9-7-5/h2-4H,1H3	InChI=1S/C5H6N2O2/c1-6-4-8-5-2-3-9-7-5/h2-4H,1H3
