17
gdb 66059	2.39946	1.27866	1.22034	3.132	74.89	-0.2593	-0.0358	0.2234	1131.0774	0.132319	-421.776439	-421.767055	-421.76611	-421.811232	33.461	
C	-0.0444739857	 1.700426513	-0.1327846409	-0.47152
C	-0.041110822	 0.1790195703	-0.0378325521	 0.135451
C	 1.1972047336	-0.5446905937	-0.6452819484	-0.106318
O	 1.5016720585	-1.1780699639	 0.6060010581	-0.273063
C	 0.4171553066	-0.4956270544	 1.2926292057	-0.116083
C	 0.8679559215	 0.367362305	 2.3693304839	 0.34027
C	 1.2323493888	 1.0830435564	 3.2639974063	-0.437159
C	-1.3374253484	-0.3907758855	-0.5750881943	 0.124731
O	-2.0336535713	-1.1957279209	-0.0133423019	-0.24564
H	 0.9155299299	 2.1084204338	 0.1913009183	 0.144155
H	-0.2237873357	 2.0202534662	-1.1654695742	 0.122608
H	-0.8248544044	 2.1363000795	 0.4987399651	 0.139224
H	 0.9970504341	-1.2733930005	-1.4406398677	 0.112333
H	 1.9921703344	 0.1373422254	-0.9730433524	 0.110873
H	-0.3218588758	-1.215520271	 1.661152756	 0.132201
H	 1.5555019937	 1.7045400453	 4.0626243805	 0.203794
H	-1.6089981579	-0.003619775	-1.584821262	 0.084143
48.4667	75.3488	140.4815	169.8226	200.1246	259.8834	299.1681	327.2251	349.3453	517.7609	527.2904	578.295	626.2388	677.4372	689.8569	840.1285	895.4269	916.9308	957.2788	965.7341	1025.1554	1033.5718	1057.1666	1154.5059	1174.2345	1201.0541	1229.4723	1286.2932	1342.9	1366.7581	1409.1063	1424.8049	1487.4809	1494.1822	1523.5196	1827.5708	2233.5177	2862.6354	3009.034	3036.091	3054.0139	3055.3763	3103.3692	3126.9893	3500.425
CC1(COC1C#C)C=O	C[C@]1(CO[C@H]1C#C)C=O	
InChI=1S/C7H8O2/c1-3-6-7(2,4-8)5-9-6/h1,4,6H,5H2,2H3	InChI=1S/C7H8O2/c1-3-6-7(2,4-8)5-9-6/h1,4,6H,5H2,2H3/t6-,7+/m0/s1
