16
gdb 112386	2.17398	1.58266	1.00708	2.3504	67.45	-0.2626	-0.0467	0.2159	1162.9882	0.122921	-475.046752	-475.038119	-475.037175	-475.081067	30.563	
C	 0.1262875695	 1.3230355197	-0.0415576352	-0.24522
O	-0.0175648815	-0.0884385125	 0.0751655268	-0.232665
C	-1.3258620439	-0.5340332622	-0.0095142105	 0.087096
O	-1.8570378289	-0.4064360694	-1.3296143808	-0.244232
C	-1.7843641825	-1.5920988716	-2.0345485535	 0.41368
N	-2.0984461483	-1.7121519015	-3.246387306	-0.525288
C	-1.3243526151	-2.7037926729	-1.1239875691	-0.428831
C	-1.3011071368	-2.0570995211	 0.2485871985	 0.385824
O	-1.283572111	-2.5761728158	 1.3273733857	-0.286092
H	 1.1862649187	 1.5414016027	 0.0963607607	 0.141489
H	-0.1955052987	 1.6752602663	-1.0277243444	 0.134268
H	-0.4549642135	 1.8407846811	 0.7339664278	 0.120076
H	-1.9945709619	 0.0125733184	 0.6677589037	 0.102865
H	-2.3886475156	-0.8130051955	-3.6353403668	 0.228217
H	-1.972563509	-3.5799465772	-1.1723665159	 0.170268
H	-0.3104661416	-3.0266061786	-1.387214231	 0.178546
62.189	75.1933	112.8164	173.3824	196.7537	319.6055	390.2392	443.1897	479.8409	564.3392	580.053	616.9073	721.9941	835.5739	855.0333	902.689	944.7404	1002.048	1009.0908	1054.9645	1132.6165	1140.155	1173.0423	1178.3549	1219.7752	1239.1194	1290.1365	1353.5305	1384.7696	1419.5834	1477.8732	1485.5889	1508.0989	1792.8851	1887.1363	3007.9318	3037.3167	3061.9299	3080.076	3131.8133	3140.9153	3472.6471
COC1OC(=N)CC1=O	CO[C@H]1O[C]([NH])CC1=O	
InChI=1S/C5H7NO3/c1-8-5-3(7)2-4(6)9-5/h5-6H,2H2,1H3	InChI=1S/C5H7NO3/c1-8-5-3(7)2-4(6)9-5/h5-6H,2H2,1H3/t5-/m0/s1
