19
gdb 56682	2.14478	1.54171	1.10313	5.0146	74.54	-0.2572	0.0159	0.2731	1150.5143	0.158795	-419.185256	-419.175756	-419.174812	-419.219919	34.575	
C	-0.0956838218	 1.5592247103	 0.1479151726	-0.471154
C	 0.0149331653	 0.0436381316	-0.0064722078	 0.269444
C	 1.2225610677	-0.4054477304	-0.8706848033	-0.115721
O	 1.9553378685	-0.8231924164	 0.2952233402	-0.269162
C	 0.8110469932	-0.6245613237	 1.147747832	-0.116469
C	-1.3630498522	-0.5750696554	-0.3613774635	-0.198935
N	-1.9730273523	-0.1304289422	-1.6175979037	-0.504331
C	-1.2966743002	-2.0477739496	-0.3891536924	 0.302399
N	-1.2231234542	-3.2004205298	-0.4145525549	-0.32622
H	 0.8754147713	 1.9809416412	 0.4220545597	 0.138997
H	-0.4108041279	 2.0420130574	-0.7829782063	 0.113626
H	-0.8124281005	 1.8281987942	 0.9327337942	 0.121785
H	 1.0208686219	-1.2468681756	-1.5477600195	 0.110525
H	 1.7416838671	 0.3860766846	-1.4242655486	 0.102381
H	 1.0401413617	 0.0202059803	 2.0043795789	 0.101319
H	 0.4011252774	-1.5756330552	 1.5088969859	 0.121706
H	-2.0626964025	-0.3115056064	 0.4438528466	 0.133496
H	-2.1419023421	 0.8688500397	-1.5876859526	 0.242779
H	-1.3504847902	-0.3142904247	-2.3990657076	 0.243533
57.4026	67.3802	160.2663	199.3291	238.1989	245.1407	299.0372	332.7477	350.2247	390.8645	436.0858	531.6122	600.1696	690.6852	838.2852	844.4476	864.0008	920.2098	941.4223	965.0658	998.8574	1013.438	1044.1049	1109.6924	1155.2511	1165.1866	1167.6221	1205.847	1221.4419	1264.7872	1316.103	1328.2833	1383.2451	1397.8138	1414.8997	1491.3554	1499.845	1512.0585	1534.8438	1653.6056	2361.4773	3002.0604	3019.2652	3021.3747	3028.7093	3053.5709	3065.4297	3094.2501	3111.0301	3500.9501	3593.9683
CC1(COC1)C(N)C#N	CC1(COC1)[C@@H](N)C#N	
InChI=1S/C6H10N2O/c1-6(3-9-4-6)5(8)2-7/h5H,3-4,8H2,1H3	InChI=1S/C6H10N2O/c1-6(3-9-4-6)5(8)2-7/h5H,3-4,8H2,1H3/t5-/m0/s1
