20
gdb 37564	3.63779	1.62551	1.39132	1.8633	82.78	-0.2257	0.0746	0.3003	989.1928	0.173731	-365.905556	-365.898758	-365.897814	-365.936604	28.466	
C	-0.0975359275	 1.5488282324	-0.0534775019	-0.194587
C	 1.4022845656	 1.3043152467	 0.0204663496	-0.118303
C	 1.1639685423	 0.1182010252	 0.9883105267	-0.043408
C	 1.9406670315	-0.8981445895	 0.1334007435	-0.035204
C	 3.3702423617	-0.8083221549	-0.4017920154	-0.271018
C	 3.1463037566	-0.7905399406	-1.9645306556	-0.190287
C	 1.68085477	-0.2691749222	-2.250131667	-0.393099
C	 1.2158052383	 0.0025884943	-0.841634519	 0.427804
N	-0.081592401	 0.0245390962	 0.0153897155	-0.231019
H	-0.5841072069	 2.0163603312	 0.8092070562	 0.096413
H	-0.5194311935	 1.937569927	-0.9861916096	 0.098659
H	 2.2386106221	 2.0111390549	 0.0150707252	 0.063995
H	 0.9820172844	 0.1597815006	 2.0645246357	 0.078063
H	 1.5494350584	-1.9201350066	 0.1840509585	 0.077443
H	 3.853877838	 0.1208391582	-0.0842253989	 0.104095
H	 4.0195040461	-1.6323744536	-0.0965345217	 0.097348
H	 3.8965029154	-0.1705519959	-2.462008086	 0.103713
H	 3.2576404611	-1.8011250603	-2.36743113	 0.108906
H	 1.668143913	 0.6083182116	-2.9022507138	 0.10405
H	 1.0763541843	-1.0483093346	-2.7243999123	 0.116437
97.4322	238.1947	268.2174	302.047	502.7803	520.2088	604.2169	674.2761	689.3194	767.1519	775.4635	824.4104	851.6891	877.2634	879.661	908.3865	919.0099	927.8805	978.6864	998.9091	1036.4482	1051.2498	1078.0548	1096.0518	1103.3237	1136.2161	1149.9355	1172.1894	1188.593	1210.4346	1232.8977	1238.8927	1265.781	1274.9369	1284.332	1300.1521	1315.2276	1345.868	1387.4689	1482.4026	1492.1466	1506.908	1518.951	3031.3576	3044.76	3050.7538	3052.4881	3056.0833	3064.009	3088.0627	3090.3781	3091.7681	3101.0442	3114.5982
C1C2C3C4CCCC24N13	C1[C@H]2[C@@H]3[C@@H]4CCC[C@]24N13	
InChI=1S/C8H11N/c1-2-5-7-6-4-9(7)8(5,6)3-1/h5-7H,1-4H2	InChI=1S/C8H11N/c1-2-5-7-6-4-9(7)8(5,6)3-1/h5-7H,1-4H2/t5-,6-,7-,8+/m0/s1
