20
gdb 9854	3.08152	1.58297	1.24819	1.574	71.43	-0.2494	0.0729	0.3223	1055.7758	0.174283	-386.114581	-386.105111	-386.104166	-386.148534	34.848	
C	 0.0308393337	 1.481664114	-0.1308508859	-0.234014
O	-0.1607622046	 0.0881714131	-0.1991025786	-0.247561
C	 0.6694159088	-0.5849173727	-1.1347070259	 0.085399
C	 2.0849401045	-0.7938607351	-0.5850286864	-0.41859
C	-0.0048689849	-1.9093296547	-1.4813575594	 0.389307
O	 0.6933014633	-2.6340766101	-2.4632064768	-0.472917
C	-0.7595001576	-2.6820857207	-0.4319241188	-0.321689
C	-1.4941143657	-2.0016581737	-1.5743437219	-0.298708
H	 1.0277131655	 1.7541093394	 0.244950701	 0.107224
H	-0.1091176513	 1.9586614789	-1.1131840938	 0.107128
H	-0.7175211764	 1.8750145902	 0.5618257216	 0.127449
H	 0.7293488262	 0.0062427387	-2.0639846427	 0.072113
H	 2.711188524	-1.2988234698	-1.3263738909	 0.115349
H	 2.5664626679	 0.1592429208	-0.349900023	 0.11741
H	 2.0527374187	-1.3975987281	 0.3276381057	 0.122282
H	 1.4160422821	-3.1007836874	-2.030598213	 0.282391
H	-0.6779629543	-3.7632694397	-0.4633268686	 0.104923
H	-0.8509268861	-2.2460331918	 0.5555924109	 0.125639
H	-2.0730960342	-1.117144266	-1.3411096423	 0.121444
H	-1.8846699498	-2.6318800756	-2.3647055212	 0.115423
73.6768	77.8904	181.6031	204.867	207.1074	266.7972	296.4831	337.9848	354.6801	401.54	444.5	469.1931	547.3863	711.9558	780.1056	857.6987	899.0659	920.4631	934.8003	985.8069	1049.3664	1055.0937	1081.7116	1088.5721	1119.5617	1156.1054	1184.8717	1196.4605	1219.4313	1253.081	1314.1414	1355.3174	1367.3834	1383.3184	1396.4671	1438.9843	1477.5567	1486.1979	1491.6732	1493.3104	1505.8838	1513.2495	2963.7824	2980.642	3028.005	3041.4154	3110.8068	3114.7913	3116.4226	3137.3768	3147.9872	3229.2621	3245.8086	3803.5919
COC(C)C1(O)CC1	CO[C@@H](C)C1(O)CC1	
InChI=1S/C6H12O2/c1-5(8-2)6(7)3-4-6/h5,7H,3-4H2,1-2H3	InChI=1S/C6H12O2/c1-5(8-2)6(7)3-4-6/h5,7H,3-4H2,1-2H3/t5-/m0/s1
