19
gdb 126332	1.95697	1.63205	0.99154	2.9055	77.96	-0.2349	0.0199	0.2548	1222.2338	0.16084	-419.231716	-419.222647	-419.221703	-419.26584	33.389	
C	 0.0581620702	 1.5886798534	 0.1290212572	-0.379078
C	-0.0838732255	 0.064724913	-0.0362313245	-0.309693
C	 0.6659988536	-0.4768336531	-1.2185710259	 0.156801
C	 0.1566903828	-0.8578242477	-2.4424596008	-0.121254
N	 1.2096721672	-1.2535916505	-3.2020542482	-0.188468
N	 2.3841609325	-1.1634428103	-2.5570999412	-0.286247
C	 2.0675950041	-0.6923864814	-1.3495507383	 0.230545
C	 3.1523618737	-0.4297578332	-0.3505811868	-0.168338
O	 3.4347127137	 0.961363148	-0.1797547573	-0.406255
H	 1.1124035642	 1.8600959924	 0.2267581535	 0.146572
H	-0.3496279148	 2.1131516284	-0.7415015397	 0.108053
H	-0.4788228159	 1.9361621702	 1.0175831201	 0.104961
H	 0.2733780238	-0.4259952566	 0.8780482168	 0.105637
H	-1.1434002714	-0.2007607016	-0.1278133691	 0.097033
H	-0.855005039	-0.8824417383	-2.8175086524	 0.131255
H	 1.1942572996	-1.6089721602	-4.1426429979	 0.273322
H	 2.8597671182	-0.7846937776	 0.6427475477	 0.112073
H	 4.0507779185	-0.9817176086	-0.6571526871	 0.109822
H	 3.6361222546	 1.3137039338	-1.0533947063	 0.283261
71.4233	92.4709	159.0528	167.9742	214.4165	285.4091	341.2541	360.1998	411.7365	477.1132	511.1831	621.8449	679.7031	707.9491	784.176	798.4468	808.6157	940.4585	966.2982	973.3121	1037.8212	1063.5678	1086.518	1096.6866	1156.7602	1209.9341	1234.6832	1281.842	1322.0721	1358.077	1361.9835	1410.1005	1412.9947	1424.0583	1469.9107	1484.8321	1497.1009	1500.5492	1507.3448	1520.4434	1604.7146	3019.5643	3022.5815	3034.4119	3058.645	3080.8022	3102.1866	3128.1855	3253.4635	3675.9125	3810.025
CCC1=CNN=C1CO	CCc1c[nH]nc1CO	
InChI=1S/C6H10N2O/c1-2-5-3-7-8-6(5)4-9/h3,9H,2,4H2,1H3,(H,7,8)	InChI=1S/C6H10N2O/c1-2-5-3-7-8-6(5)4-9/h3,9H,2,4H2,1H3,(H,7,8)
