20
gdb 61017	4.02316	0.99679	0.92359	4.0323	80.81	-0.2376	0.0326	0.2702	1315.7305	0.171634	-403.139223	-403.130574	-403.12963	-403.17288	32.591	
C	-0.2880374673	-0.6162140118	 1.3882335385	-0.35147
N	-0.0087517463	 0.0222057762	 0.1114687288	-0.04714
C	 0.3742369206	 1.3351229968	 0.1075974591	 0.148931
O	 0.5109971544	 2.0388453531	 1.0860751403	-0.346099
C	-0.1188420383	-0.7104929781	-1.1316875482	 0.048188
C	 0.7750465391	-1.967910602	-1.4365353963	-0.281219
C	-0.48368331	-2.6936359152	-1.9314267114	-0.03071
C	-1.4379552577	-2.8665864491	-0.7933635637	-0.27896
C	-1.3714913825	-1.5235773252	-1.4778066323	-0.080526
H	-1.3390342813	-0.9122477037	 1.4616953368	 0.133917
H	 0.3367900033	-1.5047606533	 1.528633683	 0.123171
H	-0.0620050754	 0.1094305406	 2.1695973201	 0.166233
H	 0.5530459952	 1.704529097	-0.9213287195	 0.070732
H	 0.0487772115	 0.019443848	-1.9280405385	 0.097653
H	 1.5286328672	-1.7669783226	-2.2001863168	 0.110348
H	 1.2667221264	-2.4349515066	-0.5778671797	 0.106039
H	-0.5542107934	-3.2670247944	-2.8462335335	 0.093588
H	-2.340155215	-3.4273219931	-1.0162788135	 0.11683
H	-1.0660066111	-3.0190157519	 0.2154031364	 0.109346
H	-2.2469893494	-1.1077273749	-1.9629874595	 0.091147
53.9263	131.59	157.0133	190.1987	287.8636	326.6396	330.3549	373.417	407.7037	466.5698	652.1874	742.1327	780.2542	808.4231	838.5056	905.4927	939.3432	959.6015	983.608	1017.7342	1027.0222	1039.5959	1066.7424	1085.4771	1091.0479	1103.6975	1138.6708	1156.2315	1204.0402	1233.526	1260.3061	1284.1246	1302.5196	1331.0581	1368.1544	1436.9413	1439.1598	1460.5527	1481.6965	1496.9636	1505.3485	1518.3186	1794.2637	2934.1491	3032.5144	3057.5443	3069.5352	3090.34	3116.918	3122.9543	3155.429	3174.9714	3197.89	3208.4409
CN(C=O)C1CC2CC12	CN(C=O)[C@H]1C[C@H]2C[C@@H]12	
InChI=1S/C7H11NO/c1-8(4-9)7-3-5-2-6(5)7/h4-7H,2-3H2,1H3	InChI=1S/C7H11NO/c1-8(4-9)7-3-5-2-6(5)7/h4-7H,2-3H2,1H3/t5-,6-,7+/m1/s1
