19
gdb 37509	3.2312	2.13942	1.87622	1.4986	76.09	-0.2417	0.0974	0.3391	822.1519	0.164948	-385.885337	-385.879955	-385.879011	-385.914684	24.859	
C	-0.0488992522	 1.5662186606	-0.0194926326	-0.268368
C	 1.4849223405	 1.4253021165	-0.0161305483	-0.022015
C	 1.3358778594	 0.0797489836	 0.7946610196	-0.048956
C	-0.019129474	 0.0273648194	 0.0003954305	-0.026066
C	 0.7101804428	-0.4232213568	-1.278403505	 0.076876
O	 1.3743295074	-1.6143234774	-0.8470988644	-0.263902
C	 2.261316892	-0.9811661725	 0.0908607465	 0.050359
C	 3.093006277	-0.1189149851	-0.875198905	-0.212759
C	 1.8637359994	 0.6946771206	-1.3226533747	-0.072113
H	-0.4316829701	 1.987831809	 0.9137625919	 0.098201
H	-0.5239164904	 2.0670920068	-0.8695047099	 0.088362
H	 2.1429407643	 2.2349106112	 0.3017399841	 0.061411
H	 1.2990675728	 0.1221995274	 1.8809202241	 0.068721
H	-0.8654008632	-0.5847159152	 0.3101192098	 0.06736
H	 0.1349912145	-0.609565256	-2.1836606742	 0.073998
H	 2.7594868213	-1.728032503	 0.7064826676	 0.071657
H	 3.8482557144	 0.5098966902	-0.3938721904	 0.091702
H	 3.5575022574	-0.7308874995	-1.6509057333	 0.101825
H	 1.9376889969	 1.2894156705	-2.2321698262	 0.063705
373.1474	394.8602	440.5521	554.8743	626.6152	655.1484	744.0916	785.394	820.66	839.0134	860.1971	885.512	895.297	908.8539	928.7911	934.2286	951.4526	962.9651	970.4787	999.9092	1022.0706	1037.793	1064.7916	1086.8736	1098.2074	1127.5169	1146.6476	1187.5797	1212.4139	1234.314	1243.0486	1248.6271	1253.4024	1262.0205	1285.8078	1302.8533	1307.1307	1326.1002	1343.5116	1485.4445	1502.8845	3043.2746	3058.7289	3098.7061	3103.9892	3119.3743	3120.3244	3124.545	3136.1495	3138.3025	3149.4105
C1C2C3C1C1OC3CC21	C1[C@H]2[C@H]3[C@@H]1[C@@H]1O[C@H]3C[C@H]21	
InChI=1S/C8H10O/c1-3-4-2-6-7(3)5(1)8(4)9-6/h3-8H,1-2H2	InChI=1S/C8H10O/c1-3-4-2-6-7(3)5(1)8(4)9-6/h3-8H,1-2H2/t3-,4-,5-,6+,7+,8-/m1/s1
