17
gdb 67942	2.43006	1.83755	1.31	4.2274	72.7	-0.25	-0.0038	0.2461	998.7975	0.136485	-421.876224	-421.868703	-421.867759	-421.908056	29.36	
C	-0.1664015483	 1.5303158432	 0.1124338756	-0.462099
C	 0.0096514238	 0.0294858437	 0.085275653	 0.427887
C	-1.2501940417	-0.8061651233	-0.203131357	-0.317217
C	-1.1187768506	-1.9908851916	 0.7231041187	-0.061724
C	-0.0485412518	-1.9159369135	 1.516269678	-0.080565
C	 0.7669211972	-0.6815286644	 1.2427049203	-0.310884
C	 1.852525376	-0.8995203313	 0.1750449273	 0.44829
O	 2.9436425569	-1.3649104651	 0.1058196867	-0.328188
O	 1.1098329689	-0.3465620058	-0.8359901563	-0.284428
H	 0.7803667189	 2.0322819676	 0.3303252028	 0.131519
H	-0.5300060987	 1.8918354328	-0.8547163332	 0.136521
H	-0.8956390721	 1.8128573787	 0.8781508083	 0.128194
H	-2.1685806465	-0.2362873802	-0.0134341805	 0.11278
H	-1.2709466325	-1.0949698964	-1.260924083	 0.133581
H	-1.8317027169	-2.8077646835	 0.7225259763	 0.106176
H	 0.2502272682	-2.6556606611	 2.2487680736	 0.113942
H	 1.0799874892	-0.1089766897	 2.1182294994	 0.106214
115.5087	169.6557	222.1554	282.4216	324.6081	362.9762	421.6142	503.0223	599.7732	662.2431	693.4349	741.1932	798.3361	834.8022	857.9666	935.0019	947.4245	961.176	977.4265	979.2611	1024.4425	1060.2062	1106.955	1139.6935	1176.0874	1216.6063	1224.1888	1245.4967	1275.1121	1354.1553	1366.4409	1414.5137	1465.4157	1484.4058	1491.4186	1674.6058	1932.0143	3026.7341	3039.754	3063.056	3096.1946	3110.6759	3118.9588	3193.1662	3219.4814
CC12CC=CC1C(=O)O2	C[C@]12CC=C[C@H]1C(=O)O2	
InChI=1S/C7H8O2/c1-7-4-2-3-5(7)6(8)9-7/h2-3,5H,4H2,1H3	InChI=1S/C7H8O2/c1-7-4-2-3-5(7)6(8)9-7/h2-3,5H,4H2,1H3/t5-,7-/m0/s1
