15
gdb 6072	4.42141	1.25149	1.23062	2.8194	58.26	-0.255	0.0159	0.2709	1035.9462	0.116767	-437.005379	-436.996403	-436.995459	-437.040341	30.547	
C	-0.2101878511	 1.2874677862	-0.100061377	-0.483161
C	-0.2774831526	-0.2071610683	-0.2674971406	 0.447961
O	 0.005256286	-0.8261317043	-1.2604975634	-0.357906
O	-0.7106808491	-0.7960785064	 0.8770171831	-0.21932
C	-0.9489613108	-2.1894940027	 0.7772641388	-0.180474
C	-2.2363655972	-2.4680744685	-0.0152469586	 0.402512
N	-2.411600171	-3.7868481504	-0.3292712723	-0.524248
O	-3.0414939097	-1.6024377603	-0.2750967488	-0.344623
H	 0.3291480889	 1.724796972	-0.9393843611	 0.147224
H	-1.2298100522	 1.6843812544	-0.0744127226	 0.16657
H	 0.2696000689	 1.5502212071	 0.8455645675	 0.146003
H	-0.0971654474	-2.6949985639	 0.3116440266	 0.131584
H	-1.0688210142	-2.5481318209	 1.8030401737	 0.141264
H	-1.6331045251	-4.4248345148	-0.328946129	 0.260602
H	-3.1876259835	-4.0101344894	-0.9328947762	 0.266014
34.307	75.8231	82.2862	99.7251	276.3558	309.6149	340.081	366.9114	460.9327	485.3631	584.376	602.9257	648.5597	703.1208	830.5283	858.399	997.4834	1040.8371	1063.8556	1096.6989	1118.4181	1249.1594	1295.1657	1318.1621	1393.3497	1414.6838	1460.2618	1470.0603	1475.0928	1623.5185	1819.5786	1833.8779	3055.1278	3058.3245	3112.5868	3126.2802	3169.4085	3588.1759	3715.2516
CC(=O)OCC(N)=O	CC(=O)OCC(=O)N	
InChI=1S/C4H7NO3/c1-3(6)8-2-4(5)7/h2H2,1H3,(H2,5,7)	InChI=1S/C4H7NO3/c1-3(6)8-2-4(5)7/h2H2,1H3,(H2,5,7)
