19
gdb 64808	2.63941	1.39238	1.13115	1.6487	76.39	-0.2512	0.022	0.2732	1144.0925	0.159279	-419.186755	-419.178154	-419.17721	-419.220174	32.768	
C	-0.3376416612	 1.6284198167	-0.0544420013	-0.439964
C	-0.0289572666	 0.142049513	-0.1036637685	 0.358722
C	 1.038622124	-0.3044395361	-1.138162527	-0.406203
C	 1.8701476056	-0.6273354426	 0.081519419	 0.437639
N	 3.0194285646	-1.0870753724	 0.2747014905	-0.54066
O	 0.9044697799	-0.2234590813	 0.9864121526	-0.292547
C	-1.2785823777	-0.7065625231	-0.0305944176	-0.018876
C	-1.253751877	-2.0929938184	 0.4892971285	-0.255172
N	-1.8815970521	-1.0102946076	 1.2747200601	-0.328518
H	 0.5834545484	 2.2173042941	-0.0684209568	 0.128126
H	-0.9470614038	 1.915384319	-0.9176035061	 0.128404
H	-0.896752586	 1.8753144451	 0.8527916293	 0.139442
H	 0.7717169964	-1.1667306048	-1.750872379	 0.139518
H	 1.4468217599	 0.4857800804	-1.7707543294	 0.135251
H	 3.2298130269	-1.1576399865	 1.2717895918	 0.228325
H	-2.0063033798	-0.456585816	-0.8015552216	 0.095355
H	-1.9451983885	-2.8286457716	 0.0891383868	 0.120651
H	-0.3074784633	-2.4931490124	 0.8395110232	 0.127749
H	-1.2258647997	-0.7315552556	 2.0034995757	 0.24276
73.4995	89.54	198.1929	234.6931	240.3064	311.5946	355.9371	418.8109	481.5476	508.9497	547.309	621.9458	778.245	833.4491	862.8752	870.7618	881.3272	915.7826	952.9899	969.2079	974.6389	1003.4972	1013.6941	1084.8539	1102.4191	1130.6988	1152.5282	1198.8358	1200.7481	1239.1895	1266.467	1279.9016	1294.6273	1310.24	1412.2354	1423.2528	1462.0978	1486.6443	1491.9182	1505.2858	1826.8685	3041.0879	3086.1936	3111.9656	3117.023	3121.1869	3123.0765	3142.0429	3207.9748	3475.9662	3481.3149
CC1(CC(=N)O1)C1CN1	C[C@]1(C[C]([NH])O1)[C@H]1CN1	
InChI=1S/C6H10N2O/c1-6(4-3-8-4)2-5(7)9-6/h4,7-8H,2-3H2,1H3	InChI=1S/C6H10N2O/c1-6(4-3-8-4)2-5(7)9-6/h4,7-8H,2-3H2,1H3/t4-,6+/m1/s1
