18
gdb 74088	2.60766	1.56121	1.13687	5.9714	80.72	-0.2121	-0.016	0.1961	1098.1015	0.148248	-401.984732	-401.976345	-401.9754	-402.017096	32.953	
C	-0.033584691	 1.5210296058	-0.0171143361	-0.500813
C	 0.0538916232	 0.0125168405	-0.0065641162	 0.259804
C	-0.8121917368	-0.8168851952	 0.9231844059	-0.31456
C	 0.6940561987	-0.7853753628	 1.0985251662	-0.199601
C	 1.4667875193	-1.9195226882	 0.4345644023	 0.411109
O	 2.1657631146	-2.7222418023	 1.0195149364	-0.371235
C	 1.2017341311	-1.8193464569	-0.9999908479	-0.357673
C	 0.4359097489	-0.7267439386	-1.2638124805	 0.330693
N	-0.0442329169	-0.3055915894	-2.4641018011	-0.589832
H	 0.9001580941	 1.9754610294	-0.3662696357	 0.129005
H	-0.84912898	 1.8837192043	-0.6559484151	 0.114612
H	-0.2309829263	 1.8989258658	 0.989862783	 0.131198
H	-1.4038017824	-0.2785180553	 1.6583365247	 0.114539
H	-1.2722820214	-1.7206089063	 0.5387641603	 0.127117
H	 1.109554331	-0.3203962154	 1.9840582287	 0.101537
H	 1.5586564562	-2.543008805	-1.7206227024	 0.089043
H	 0.3325489295	-0.7054083969	-3.307683474	 0.264506
H	-0.398088992	 0.6320375464	-2.5478935284	 0.260552
139.4771	161.673	218.2308	260.8998	290.5603	311.8501	332.308	392.9032	472.8065	500.0909	565.6937	596.2204	671.6283	703.0704	742.3242	806.7705	828.8934	868.7586	886.89	965.2237	982.7194	1033.0004	1064.7051	1074.6769	1082.4081	1118.6968	1179.2281	1221.021	1261.86	1290.6617	1369.8237	1417.9483	1420.8844	1483.5823	1492.0707	1501.039	1627.2838	1672.7915	1793.1223	3017.7459	3076.9509	3109.0992	3120.2555	3192.6934	3213.4661	3218.8143	3604.3072	3716.3608
CC12CC1C(=O)C=C2N	C[C@]12C[C@H]1C(=O)C=C2N	
InChI=1S/C7H9NO/c1-7-3-4(7)5(9)2-6(7)8/h2,4H,3,8H2,1H3	InChI=1S/C7H9NO/c1-7-3-4(7)5(9)2-6(7)8/h2,4H,3,8H2,1H3/t4-,7-/m0/s1
