21
gdb 86221	2.49732	1.22297	0.88002	4.8835	83.25	-0.235	0.0329	0.2679	1357.9643	0.183364	-383.298544	-383.289058	-383.288113	-383.33324	35.334	
C	-0.0258774367	 1.5279894137	 0.0611879664	-0.416788
C	-0.0425813881	 0.0084904892	-0.0805898744	 0.078263
C	 0.8047769833	-0.5299012401	-1.2478851821	-0.244681
C	 1.277274507	-1.906567608	-0.7602523383	 0.034965
C	 2.461644241	-2.507742161	-1.5088315659	-0.420304
C	 1.559301464	-1.6002668412	 0.7330009238	-0.125393
N	 0.4880455078	-0.6807497936	 1.1210999664	-0.319177
C	 1.5741827924	-2.8108250111	 1.5685078056	 0.293759
N	 1.6133777506	-3.7678942332	 2.2152338278	-0.333828
H	 0.9986227627	 1.9002016607	 0.1791318863	 0.113053
H	-0.4605654234	 2.0044536875	-0.8232840896	 0.123812
H	-0.6106988956	 1.8480889385	 0.9301833245	 0.124338
H	-1.085817943	-0.3083988986	-0.2230221455	 0.082635
H	 0.2473454481	-0.5816760678	-2.1869983651	 0.105713
H	 1.6753668413	 0.1192971681	-1.4137473818	 0.095481
H	 0.4321048866	-2.6043469778	-0.7965091132	 0.103002
H	 3.3203490045	-1.8265195768	-1.50186149	 0.116439
H	 2.7755922375	-3.4543346719	-1.0579095311	 0.138729
H	 2.2012135178	-2.7061256434	-2.552880159	 0.123071
H	 2.5650445846	-1.1528485218	 0.8085302203	 0.101456
H	 0.7818455975	-0.0352536513	 1.8420336048	 0.225455
40.0117	118.7027	132.2044	219.9899	239.921	247.1986	272.4558	354.1128	406.2104	431.9256	492.2568	530.5269	540.5196	580.5062	744.3144	833.2688	869.9637	903.3305	928.9826	951.9614	999.6405	1009.262	1060.9163	1087.0415	1113.5226	1152.4164	1168.0386	1186.1828	1215.9884	1276.5085	1295.9924	1340.1218	1357.4299	1373.0602	1379.502	1384.2341	1408.5775	1415.9679	1452.595	1490.8727	1494.3706	1496.8459	1500.645	1502.1653	2356.2821	2949.1806	2986.2646	3019.0476	3026.4406	3031.2058	3043.0492	3092.7252	3097.1783	3101.92	3104.5484	3109.8602	3569.39
CC1CC(C)C(N1)C#N	C[C@H]1C[C@@H](C)[C@@H](N1)C#N	
InChI=1S/C7H12N2/c1-5-3-6(2)9-7(5)4-8/h5-7,9H,3H2,1-2H3	InChI=1S/C7H12N2/c1-5-3-6(2)9-7(5)4-8/h5-7,9H,3H2,1-2H3/t5-,6+,7+/m1/s1
