23
gdb 93819	2.35893	1.32218	0.99697	2.0722	88.27	-0.2382	0.0165	0.2547	1304.8413	0.206265	-388.318025	-388.308482	-388.307538	-388.351886	37.177	
C	-0.0409355558	 1.5696655935	-0.0196555445	-0.40573
C	 0.0514528717	 0.034456989	 0.0221917236	-0.054459
C	 0.6941929514	-0.4972553705	-1.2692842515	-0.207407
C	 0.9963491913	-1.9922602183	-1.1795410343	-0.233234
C	 1.9807302787	-2.2775146481	-0.0385300214	 0.108102
O	 3.3376981265	-1.9995387085	-0.4177238677	-0.442664
C	 1.6098562983	-1.526625327	 1.2116011016	-0.212072
C	 0.7643954789	-0.489213628	 1.2627144684	 0.32998
C	 0.4396719177	 0.1737334848	 2.5777080093	-0.480335
H	 0.9562633674	 2.0243788275	-0.0048570721	 0.113738
H	-0.5383759406	 1.8903544748	-0.9406650667	 0.114032
H	-0.6087332344	 1.9758730142	 0.821249448	 0.115726
H	-0.9821589665	-0.3483909077	 0.0673488242	 0.082509
H	 0.0399208367	-0.279758459	-2.1206642144	 0.091378
H	 1.6293893448	 0.050060586	-1.4552992772	 0.085759
H	 0.066639918	-2.5468557062	-0.9952573726	 0.090462
H	 1.4237100506	-2.3683141303	-2.1140415298	 0.099679
H	 1.9805607335	-3.353944002	 0.1714776707	 0.079802
H	 3.4764552774	-1.0547520718	-0.2964409435	 0.274246
H	 2.0983560159	-1.8592368968	 2.1255681969	 0.079725
H	 0.9150486934	-0.3489257701	 3.4114548429	 0.120309
H	 0.7682322184	 1.2190637723	 2.6015284666	 0.1278
H	-0.6433503233	 0.1845066421	 2.7569413435	 0.122652
70.3216	144.2574	208.936	213.4684	233.9222	289.0717	318.8607	329.2522	352.7338	402.7748	432.0074	485.7651	511.8439	601.0715	704.5535	722.6709	827.3345	861.1014	885.5485	936.0838	944.1596	995.3265	1008.2297	1039.1865	1055.497	1082.222	1089.7828	1127.606	1143.2054	1165.2375	1212.2013	1245.2454	1268.3229	1316.1178	1329.258	1355.5852	1370.7429	1384.522	1388.9633	1408.5498	1414.9141	1420.0275	1475.6315	1480.3885	1487.0255	1494.1583	1501.8231	1507.8383	1716.3265	2960.1398	3008.5498	3019.7569	3020.2252	3032.614	3036.2659	3062.5167	3071.1734	3084.1855	3096.9494	3112.6367	3116.8024	3141.9937	3816.2916
CC1CCC(O)C=C1C	C[C@H]1CC[C@@H](O)C=C1C	
InChI=1S/C8H14O/c1-6-3-4-8(9)5-7(6)2/h5-6,8-9H,3-4H2,1-2H3	InChI=1S/C8H14O/c1-6-3-4-8(9)5-7(6)2/h5-6,8-9H,3-4H2,1-2H3/t6-,8+/m0/s1
