15
gdb 82705	2.9992	1.55298	1.23514	1.9513	65.65	-0.2526	-0.0341	0.2186	986.6603	0.111694	-457.700398	-457.693017	-457.692073	-457.732509	27.943	
O	 0.3881323869	 1.3559040077	 0.0812539824	-0.437554
C	 0.0839964955	-0.000468447	 0.010265306	 0.09
C	 0.1694206963	-0.8310390723	 1.3237174597	 0.000306
O	-0.6969711921	-0.0572795294	 2.2172649664	-0.300377
C	-1.7871284238	-0.5678909357	 1.4585400712	 0.068341
C	-1.050876932	-1.6852492976	 0.8503527917	-0.176059
C	-1.3760859457	-0.4696794324	-0.0491850049	 0.150404
C	-2.3996104131	-0.3977393754	-1.0965877167	 0.018715
O	-3.4249766875	-1.0434678258	-1.0781848231	-0.276055
H	 0.0007896474	 1.669344255	 0.9102191156	 0.290582
H	 0.6791290327	-0.4478037681	-0.7898409737	 0.106337
H	 1.0999893697	-1.1516057581	 1.7843548741	 0.103544
H	-2.8061526074	-0.4385844762	 1.7944926092	 0.143609
H	-1.2534398446	-2.7329013268	 0.6881998276	 0.131555
H	-2.1778163224	 0.3115061921	-1.9234597056	 0.086652
93.9188	141.5058	201.7779	231.1186	303.4226	459.6607	506.309	586.5835	642.3646	700.5506	719.3922	781.5482	816.4028	869.566	911.6755	933.08	944.0119	963.0915	994.417	1042.0073	1058.3153	1119.876	1132.9244	1169.4158	1195.0717	1221.1249	1265.9319	1283.9072	1307.3844	1391.7812	1430.3284	1438.9305	1784.6517	2895.2196	3095.2525	3164.5691	3229.8797	3244.1931	3756.9106
OC1C2OC3C2C13C=O	O[C@H]1[C@H]2O[C@@H]3[C@H]2[C@]13C=O	
InChI=1S/C6H6O3/c7-1-6-2-3(4(6)8)9-5(2)6/h1-5,8H	InChI=1S/C6H6O3/c7-1-6-2-3(4(6)8)9-5(2)6/h1-5,8H/t2-,3-,4-,5+,6+/m0/s1
