17
gdb 125522	4.87901	0.83362	0.75385	2.9362	71.43	-0.2755	-0.0183	0.2572	1498.1378	0.135909	-451.314982	-451.305679	-451.304735	-451.351145	31.273	
C	 0.0582261836	 1.4360075679	-0.0216996479	-0.478742
C	 0.020515107	-0.0529746264	-0.0109937431	 0.388106
N	 0.0881365494	-0.8089351349	-1.1037301513	-0.299159
N	 0.0065942143	-2.0341875236	-0.5920333224	 0.134389
C	 0.0746970678	-3.2408729996	-1.3948182852	-0.140315
C	 1.4878419106	-3.4879580233	-1.9236951555	-0.079153
O	 1.4117989465	-4.6731376746	-2.6916311256	-0.412682
N	-0.0991089657	-2.0534348538	 0.7302685166	-0.126726
N	-0.0943313634	-0.8032108438	 1.1151941031	-0.25836
H	 0.879805524	 1.8055516081	 0.5986568646	 0.148737
H	 0.1903302051	 1.8009122812	-1.0412948657	 0.144763
H	-0.8698031286	 1.8494037992	 0.3844234125	 0.149778
H	-0.2420210223	-4.0649510501	-0.7545460829	 0.158758
H	-0.6225064369	-3.145979671	-2.2301831835	 0.148882
H	 1.8053582151	-2.6228451545	-2.5229335841	 0.116739
H	 2.1801239135	-3.5867825172	-1.0739764707	 0.108167
H	 2.2817497	-4.8553671635	-3.057720249	 0.296819
39.726	43.8844	83.0777	93.0535	219.9321	250.4546	281.284	336.1801	391.001	426.2814	673.3022	714.3348	736.5055	806.2429	822.759	1000.6081	1013.4769	1052.9989	1071.2212	1072.4982	1095.0179	1104.1531	1198.2844	1247.7931	1254.1416	1288.5197	1342.4024	1361.2187	1402.9019	1406.9726	1429.222	1462.6581	1478.9194	1480.248	1485.8107	1530.5592	1547.2833	2988.5651	3029.4599	3052.9762	3088.0204	3111.6072	3148.4549	3152.7541	3840.5113
CC1=NN(CCO)N=N1	Cc1nn(CCO)nn1	
InChI=1S/C4H8N4O/c1-4-5-7-8(6-4)2-3-9/h9H,2-3H2,1H3	InChI=1S/C4H8N4O/c1-4-5-7-8(6-4)2-3-9/h9H,2-3H2,1H3
