19
gdb 38962	2.89029	1.78754	1.49226	1.9814	73.17	-0.2336	0.0794	0.313	944.8674	0.162458	-423.017028	-423.010177	-423.009233	-423.048363	27.904	
C	 0.2658329794	 1.6550910059	 0.3084820168	-0.330704
C	 1.3473345234	 0.6910345767	-0.0937969864	 0.106857
O	 2.1809067751	 0.1837973463	 0.9154400292	-0.272514
C	 1.4579335289	-0.6952972568	 1.7778689553	 0.096739
C	 1.3483326519	-0.1517394162	 3.2099276792	-0.104628
O	 0.1032512185	 0.5292850234	 3.2817349068	-0.240689
C	-0.8127123245	-0.259275154	 2.5313812806	-0.103427
C	-0.0283623562	-0.7428725871	 1.2930025792	-0.076106
C	-0.0495690504	 0.182424238	 0.081866238	-0.082596
H	 0.272596677	 2.0301770499	 1.3252748343	 0.141351
H	-0.091023095	 2.3534536388	-0.4415900667	 0.108585
H	 1.848164602	 0.7708472439	-1.0525137938	 0.096186
H	 1.9572365174	-1.6705825676	 1.7594411848	 0.081363
H	 1.3714188674	-0.9861803112	 3.9306161877	 0.085236
H	 2.1480828523	 0.5520316047	 3.4480549443	 0.122505
H	-1.1613650251	-1.1162760243	 3.1311321532	 0.088052
H	-1.671561287	 0.3679552031	 2.2822547429	 0.116148
H	-0.3307968205	-1.7508076821	 1.0001262262	 0.078245
H	-0.6650686444	-0.0972694513	-0.7648511417	 0.089394
84.5775	200.3728	267.0971	356.4805	400.0702	468.9594	587.0302	677.0955	732.7185	747.4433	794.9181	814.8816	844.9761	884.064	907.2887	947.889	971.4398	981.9425	1013.8944	1026.7961	1060.5943	1076.4853	1092.8141	1099.3504	1117.3186	1122.8283	1166.9025	1204.6288	1212.4191	1237.5419	1286.9296	1287.2935	1323.7536	1334.0288	1352.9515	1370.3547	1391.7339	1405.2076	1471.7864	1491.3894	1509.5817	2963.6098	2969.9278	3040.5673	3083.6217	3103.7783	3117.5319	3133.019	3166.1586	3177.8571	3228.8455
C1C2OC3COCC3C12	C1[C@H]2O[C@H]3COC[C@H]3[C@@H]12	
InChI=1S/C7H10O2/c1-4-5-2-8-3-7(5)9-6(1)4/h4-7H,1-3H2	InChI=1S/C7H10O2/c1-4-5-2-8-3-7(5)9-6(1)4/h4-7H,1-3H2/t4-,5+,6-,7+/m1/s1
