14
gdb 129653	2.38857	1.92697	1.07181	7.5802	71.	-0.2089	-0.0492	0.1597	1026.8764	0.10277	-466.179502	-466.171551	-466.170607	-466.211705	30.057	
N	 0.0182618708	 1.4269810279	 0.1165419434	-0.586255
C	-0.0317979448	 0.0438478891	 0.0317601858	 0.392041
C	-1.1913824015	-0.6739819064	-0.0224623076	 0.087385
N	-2.4497345263	-0.0585815878	-0.0724802656	-0.612641
C	-1.1093728587	-2.112608038	-0.1471850331	 0.389104
O	-2.0994792658	-2.8132552993	-0.2985943663	-0.387947
N	 0.1871732018	-2.7041567013	-0.0867690257	-0.257619
N	 1.2396665238	-2.0102668613	 0.0245497793	-0.045332
N	 1.1410458552	-0.6600578135	 0.0571187026	-0.304328
H	 0.8411181391	 1.8510200571	-0.2928590686	 0.256975
H	-0.8271610805	 1.8436755352	-0.2584442286	 0.273789
H	-2.6637141704	 0.4923514225	 0.7523566378	 0.250261
H	-3.1467732407	-0.7919458596	-0.181550669	 0.267246
H	 2.031026558	-0.2041726546	 0.1878045156	 0.27732
115.0621	188.9476	224.946	250.815	296.1712	340.7074	382.0455	464.8674	509.8707	541.5171	574.0773	601.3642	630.9267	696.6618	741.8301	790.7102	855.1136	926.0589	1004.5166	1032.8474	1132.7386	1181.9621	1284.6377	1347.282	1378.7536	1485.5013	1573.1702	1634.0357	1650.9785	1701.0041	1745.8979	3482.1766	3519.6435	3570.435	3620.2293	3633.4138
NC1=C(N)C(=O)N=NN1	Nc1c(N)c(=O)nn[nH]1	
InChI=1S/C3H5N5O/c4-1-2(5)6-8-7-3(1)9/h(H2,4,8)(H3,5,6,7,9)	InChI=1S/C3H5N5O/c4-1-2(5)6-8-7-3(1)9/h(H2,4,8)(H3,5,6,7,9)
