23
gdb 100951	2.20706	1.04185	0.79462	2.0184	78.41	-0.2525	0.0699	0.3224	1517.9797	0.203116	-462.541966	-462.530542	-462.529598	-462.579449	40.526	
C	 0.0722374627	 1.2848310022	-0.083530595	-0.243058
O	-0.0316427412	-0.1233608348	-0.0735167099	-0.257513
C	-1.3728826232	-0.6289568523	-0.0295900545	 0.072577
C	-1.8668268074	-0.7409952783	-1.4776654873	-0.075416
O	-1.0409870471	-1.6064472124	-2.2333782973	-0.42197
C	-1.3204758338	-1.964181295	 0.7351071372	 0.003967
C	-0.7390395687	-1.7742761707	 2.1413282872	-0.395132
C	-2.7005066544	-2.6418866741	 0.8041523091	-0.077714
O	-2.6750067853	-3.8665219658	 1.5236047236	-0.41801
H	 1.136962577	 1.5280099313	-0.1256942414	 0.130219
H	-0.4238823375	 1.7409077583	-0.9522769969	 0.110569
H	-0.3563005348	 1.7244056284	 0.8290519896	 0.113197
H	-2.0159636926	 0.0779325306	 0.5204566325	 0.064581
H	-2.884030126	-1.1403282997	-1.5223729642	 0.112214
H	-1.9003530414	 0.2666702796	-1.9231209145	 0.084417
H	-0.1365007185	-1.3274915331	-2.0415767107	 0.287488
H	-0.6589373199	-2.6268277874	 0.1603584891	 0.07673
H	-1.3483496994	-1.0699071161	 2.7220604185	 0.102583
H	-0.7356464056	-2.7249230848	 2.6784404327	 0.123009
H	 0.2784641988	-1.3832711243	 2.0934880167	 0.122157
H	-3.4065770678	-2.0002125422	 1.3461274403	 0.104664
H	-3.1057950543	-2.8005868834	-0.2042040017	 0.097518
H	-2.1348782598	-4.4860040859	 1.022089977	 0.282924
29.8377	81.8175	91.9062	115.6998	166.2365	208.1928	226.6103	248.0128	297.3	306.1144	334.4305	358.4874	397.6183	437.3349	489.0263	548.3234	683.571	849.4593	857.6496	908.2626	916.0981	975.5863	1031.0554	1063.523	1081.6713	1108.9722	1129.8317	1142.0301	1161.0085	1185.2093	1206.0992	1227.2625	1243.3284	1289.168	1337.7063	1362.9857	1368.041	1390.1978	1404.3784	1413.3486	1423.4083	1431.3539	1481.3314	1488.4023	1496.6746	1503.9123	1507.0185	1509.2233	1516.4839	2965.2445	2975.3598	2989.221	3006.5831	3017.749	3032.6639	3037.0031	3058.9186	3088.0484	3110.3103	3112.9961	3144.5709	3774.6393	3812.9845
COC(CO)C(C)CO	CO[C@@H](CO)[C@@H](C)CO	
InChI=1S/C6H14O3/c1-5(3-7)6(4-8)9-2/h5-8H,3-4H2,1-2H3	InChI=1S/C6H14O3/c1-5(3-7)6(4-8)9-2/h5-8H,3-4H2,1-2H3/t5-,6-/m0/s1
