17
gdb 126889	3.96527	1.10515	0.92882	2.7027	82.81	-0.2313	-0.0732	0.158	1272.3413	0.135947	-417.988208	-417.979911	-417.978967	-418.021798	30.443	
C	 0.0038661659	 1.378308711	-0.167552938	-0.370691
C	-0.0087624784	-0.1301303698	 0.1143346718	-0.136518
N	-1.363750339	-0.6679977525	 0.1039427769	-0.313176
C	-1.8968399537	-1.0223355965	-0.9898501594	 0.424535
O	-1.2074290141	-0.9006581835	-2.2002496979	-0.299687
N	-1.7170695846	-1.3346437691	-3.4224464341	-0.058434
C	-2.9034340402	-1.8304570152	-3.4132151473	 0.027708
C	-3.737331093	-1.9698974306	-2.2429680883	-0.117445
C	-3.2372118466	-1.5704676872	-1.0628478193	-0.133996
H	 1.0191815008	 1.7751237524	-0.0687651623	 0.112285
H	-0.3483161115	 1.5860711828	-1.1817280674	 0.128236
H	-0.643880823	 1.9067120155	 0.5381018469	 0.122201
H	 0.637243022	-0.6419041062	-0.6107593851	 0.10996
H	 0.4023783878	-0.3130231167	 1.1126647587	 0.099762
H	-3.2512817773	-2.1492787433	-4.3911730687	 0.139761
H	-4.7307553888	-2.3910401584	-2.341434987	 0.125397
H	-3.775550296	-1.6377129428	-0.1257524194	 0.140104
58.2736	88.0387	152.3834	198.3134	276.8303	309.0271	401.3432	484.0645	563.5983	587.4085	606.9176	711.4035	753.2354	817.6216	828.2333	895.9004	910.9971	936.581	987.7861	1015.3653	1022.3329	1050.8802	1116.2472	1134.0065	1180.1115	1235.3206	1307.0446	1344.9623	1368.769	1399.7239	1424.9533	1490.6738	1498.1654	1515.684	1616.7292	1683.53	1732.18	3017.1192	3040.506	3063.3319	3112.5254	3122.5158	3183.5564	3203.6521	3225.8581
CCN=C1ON=CC=C1	CCN=c1onccc1	
InChI=1S/C6H8N2O/c1-2-7-6-4-3-5-8-9-6/h3-5H,2H2,1H3	InChI=1S/C6H8N2O/c1-2-7-6-4-3-5-8-9-6/h3-5H,2H2,1H3
