15
gdb 52566	3.87313	0.67818	0.58129	2.3015	80.15	-0.2693	-0.0358	0.2335	1842.6535	0.108426	-420.590576	-420.580381	-420.579437	-420.62897	33.68	
C	 0.1032052762	 1.4262701648	 0.0085857405	-0.50965
C	 0.077940836	-0.025595164	 0.0010661828	 0.254337
C	 0.0580211839	-1.2300009243	-0.0051975708	-0.077657
C	-0.0428120889	-2.6661878585	-0.0120246507	 0.272401
O	-1.0765673674	-3.289931727	-0.0056342103	-0.360835
O	 1.1823514619	-3.2356562586	-0.0266818832	-0.228441
C	 1.1633995135	-4.6790506129	-0.0343083333	-0.237016
C	 2.5326392765	-5.1627179688	-0.0499088547	 0.28986
C	 3.6510838224	-5.5983068641	-0.0628860219	-0.411908
H	 1.1294934994	 1.8070537022	 0.0008452093	 0.162319
H	-0.4161094833	 1.8270462523	-0.8685287447	 0.164886
H	-0.3992606761	 1.8175811664	 0.8996763765	 0.164886
H	 0.624160182	-5.0373623406	 0.849317011	 0.155574
H	 0.6074530409	-5.0278377336	-0.91136525	 0.155576
H	 4.642147573	-5.9798624133	-0.0744690007	 0.205668
11.0436	41.8844	65.655	98.4707	155.9709	208.3858	273.5063	321.5158	329.2506	398.6882	437.0198	508.2162	610.1576	618.3853	687.0225	770.8695	839.3965	979.0851	1005.0088	1012.9331	1046.6025	1053.7282	1097.3827	1247.636	1274.077	1395.7463	1409.8718	1469.7602	1472.4648	1486.268	1785.7904	2252.4743	2363.013	3033.9543	3045.0979	3079.5678	3098.3256	3102.7012	3506.7753
CC#CC(=O)OCC#C	CC#CC(=O)OCC#C	
InChI=1S/C7H6O2/c1-3-5-7(8)9-6-4-2/h2H,6H2,1H3	InChI=1S/C7H6O2/c1-3-5-7(8)9-6-4-2/h2H,6H2,1H3
