16
gdb 65854	2.57051	1.27734	1.17513	2.8572	68.53	-0.2575	-0.0372	0.2203	1105.3563	0.123338	-437.927087	-437.918676	-437.917731	-437.960334	31.451	
O	-0.0141329348	 1.3696354433	 0.1569295726	-0.454116
C	 0.0282132327	-0.0361319179	 0.009090851	 0.243637
C	-1.4287405594	-0.5557665285	-0.0979309589	-0.252545
C	-1.3155614364	-1.9172746425	-0.7927011755	-0.333695
C	-0.078450705	-1.8030293809	-1.6908498602	 0.41649
O	 0.2448953192	-2.5695840151	-2.5561557813	-0.298976
C	 0.6831962058	-0.5264640646	-1.3031970301	-0.384133
C	 0.7063111356	-0.6467466046	 1.174939437	 0.235356
N	 1.2551835998	-1.1082776735	 2.081520604	-0.328473
H	 0.882063455	 1.6967535726	 0.2958963929	 0.296158
H	-1.9218818492	-0.5866117468	 0.8742186095	 0.135062
H	-1.9616578597	 0.1649923451	-0.7259840864	 0.131146
H	-1.123845686	-2.7221135532	-0.0716610272	 0.155377
H	-2.1948769754	-2.2072761886	-1.3712094728	 0.142121
H	 0.4913860098	 0.2335014612	-2.0705768542	 0.15028
H	 1.759979798	-0.6971261458	-1.2523318104	 0.146312
64.0226	120.5675	190.6186	213.3739	302.0062	337.8926	397.2797	450.062	460.4711	491.1598	559.9636	617.1766	638.8272	723.896	737.3157	806.4824	888.4815	964.4663	993.7388	1000.8893	1061.7687	1116.4774	1145.5399	1174.56	1215.4435	1247.8817	1267.5614	1305.3661	1333.0692	1370.8128	1442.5518	1451.9044	1496.3877	1858.816	2349.1782	3044.5005	3049.3949	3067.4905	3118.0043	3126.2942	3133.1417	3804.0841
OC1(CCC(=O)C1)C#N	O[C@]1(CCC(=O)C1)C#N	
InChI=1S/C6H7NO2/c7-4-6(9)2-1-5(8)3-6/h9H,1-3H2	InChI=1S/C6H7NO2/c7-4-6(9)2-1-5(8)3-6/h9H,1-3H2/t6-/m0/s1
