15
gdb 27035	2.36409	1.4629	0.90881	5.0695	74.9	-0.2149	-0.0525	0.1623	1201.3714	0.11319	-454.033201	-454.024893	-454.023949	-454.066244	30.247	
C	 0.0738018384	 1.5412346189	 0.0392112888	-0.504624
C	-0.0231182872	 0.0558373627	 0.0310883667	 0.266403
C	-1.1076701022	-0.7765354758	-0.0587238929	 0.155906
N	-0.6291257198	-2.0879876845	-0.0202283829	-0.410245
C	 0.7425823445	-2.1242569059	 0.0938948214	 0.456453
O	 1.4992063676	-3.0660712739	 0.1568783305	-0.41227
N	 1.0834497262	-0.7546407107	 0.1220711999	-0.392021
C	-2.5153925002	-0.4925839574	-0.1739539623	 0.071728
O	-3.3674999214	-1.3601467168	-0.2437205024	-0.314298
H	 0.6839658545	 1.900953711	-0.7974929168	 0.149655
H	-0.91330664	 1.9979561582	-0.04147904	 0.154491
H	 0.539890953	 1.9007612886	 0.9640154946	 0.149606
H	-1.2214623605	-2.8997177015	-0.0664249757	 0.28451
H	 2.0406584262	-0.4543233137	 0.2017886096	 0.2733
H	-2.7794827992	 0.5845484607	-0.1952836787	 0.071406
121.0695	141.5596	167.1601	190.2624	232.6321	275.6241	385.5356	462.1798	489.105	547.876	571.6355	616.0581	652.6613	702.5134	757.4175	872.0683	981.2478	1001.6441	1007.1353	1059.626	1116.3056	1229.3032	1280.771	1308.96	1409.129	1425.5168	1432.0847	1468.1053	1475.07	1493.523	1668.1775	1751.4046	1863.2212	2916.278	3031.3809	3080.8193	3144.4473	3671.2889	3683.6974
CC1=C(NC(=O)N1)C=O	Cc1c([nH]c(=O)[nH]1)C=O	
InChI=1S/C5H6N2O2/c1-3-4(2-8)7-5(9)6-3/h2H,1H3,(H2,6,7,9)	InChI=1S/C5H6N2O2/c1-3-4(2-8)7-5(9)6-3/h2H,1H3,(H2,6,7,9)
