21
gdb 115681	2.31595	1.21153	0.97564	3.1254	79.1	-0.2468	-0.022	0.2248	1331.0188	0.180341	-424.233514	-424.223402	-424.222458	-424.269738	35.708	
C	-0.0927094803	 1.4711175992	 0.1990162804	-0.38882
C	-0.0191824099	-0.0578134951	 0.1341657295	-0.199985
C	-1.4045692088	-0.6834019388	 0.1634269726	 0.154667
O	-2.2057337886	-0.2957298138	-0.9720416496	-0.287443
C	-2.401064858	-1.666591362	-1.3769893823	-0.084209
C	-1.5812052157	-2.2045469419	-0.1920928476	-0.189094
C	-0.3173232138	-2.9760487078	-0.528691143	 0.381337
C	 0.3105114275	-3.7629818977	 0.6062528483	-0.482886
O	 0.1676018287	-2.9530710454	-1.6379743576	-0.299725
H	 0.9052012433	 1.9150789105	 0.1421363431	 0.113847
H	-0.6881528758	 1.8567399125	-0.6328245944	 0.142295
H	-0.5579385579	 1.8083853823	 1.1320753319	 0.111478
H	 0.495699262	-0.3708095682	-0.7802054088	 0.124418
H	 0.5611685145	-0.444531771	 0.9831068373	 0.090904
H	-1.9137026018	-0.4181014198	 1.1015671251	 0.075464
H	-3.4609471418	-1.9451715947	-1.3815490472	 0.09928
H	-1.9517287465	-1.8749664056	-2.352878079	 0.127011
H	-2.1583236207	-2.7400770646	 0.5648320307	 0.084055
H	-0.3582732317	-4.5799132733	 0.9027994753	 0.142937
H	 1.2701848738	-4.1746376536	 0.2920628654	 0.144396
H	 0.4444480713	-3.1293781511	 1.4901650398	 0.140072
38.6007	70.8377	108.7413	120.3603	142.0991	214.7129	235.1117	271.101	362.1049	410.176	450.8812	584.192	597.4195	733.8224	753.7878	823.0423	876.9634	933.1717	946.3141	962.8581	1007.3873	1019.1662	1034.1905	1083.0023	1094.8766	1118.1077	1155.8804	1178.1395	1187.3051	1218.0784	1273.5132	1297.5337	1334.3462	1362.8659	1370.6794	1386.2731	1405.8684	1412.667	1461.8883	1474.5399	1479.7074	1498.7006	1509.3655	1517.4901	1803.7195	2990.8153	3018.7035	3029.9996	3033.4035	3037.2011	3077.8954	3080.9004	3092.3717	3094.5811	3105.7215	3123.8783	3153.3872
CCC1OCC1C(C)=O	CC[C@H]1OC[C@H]1C(=O)C	
InChI=1S/C7H12O2/c1-3-7-6(4-9-7)5(2)8/h6-7H,3-4H2,1-2H3	InChI=1S/C7H12O2/c1-3-7-6(4-9-7)5(2)8/h6-7H,3-4H2,1-2H3/t6-,7+/m0/s1
