15
gdb 33595	3.916	1.52929	1.38112	5.4487	73.56	-0.2429	0.0166	0.2595	924.8613	0.115239	-379.591433	-379.585283	-379.584339	-379.621948	25.211	
N	 0.0609260873	-1.0490999977	-0.0507500146	-0.356618
C	 0.0059803901	 0.1075158445	-0.031393339	 0.136435
C	-0.0577308997	 1.5239275622	 0.0275394365	 0.313878
C	 0.1310701707	 2.4474264512	-1.1941340212	-0.099335
C	 1.0718093543	 2.5489503344	-0.0257888481	-0.169902
C	 0.069258601	 3.5596670139	 0.6086089476	-0.06682
C	-0.7633235115	 3.6207662001	-0.7254161433	-0.045381
N	-1.9720799991	 2.9894249842	-0.1079038136	-0.316334
C	-0.9933425598	 2.4317182225	 0.8721480782	-0.123575
H	 0.2922151923	 2.0462912019	-2.1846576776	 0.12056
H	 2.1372754287	 2.3921078932	 0.0525345407	 0.118721
H	 0.2814556093	 4.3958567182	 1.2696924511	 0.087105
H	-0.89250572	 4.4893080253	-1.3686804749	 0.087212
H	-2.506414659	 3.721058941	 0.3629300603	 0.220202
H	-1.3474978545	 2.0803379049	 1.8390097779	 0.093852
144.1036	164.1865	445.5182	497.773	518.6679	555.3861	614.2192	743.1626	758.0891	798.6863	820.9033	831.5856	854.7818	891.1834	900.605	920.7819	933.292	965.4916	994.7455	1022.5462	1063.5955	1085.8848	1127.6401	1138.9653	1165.0219	1178.4124	1197.851	1249.6459	1262.3441	1310.2435	1342.219	1390.9113	2344.8703	3136.4317	3145.4965	3157.1252	3221.6467	3235.5696	3454.5354
N#CC12C3C1C1C3NC21	N#C[C@]12[C@@H]3[C@H]1[C@H]1[C@@H]3N[C@@H]21	
InChI=1S/C7H6N2/c8-1-7-3-2-5(4(3)7)9-6(2)7/h2-6,9H	InChI=1S/C7H6N2/c8-1-7-3-2-5(4(3)7)9-6(2)7/h2-6,9H/t2-,3+,4+,5-,6+,7+/m0/s1
