21
gdb 73257	2.508	1.67171	1.28487	1.9287	83.17	-0.2376	0.0155	0.2532	1080.0442	0.18411	-387.094618	-387.086507	-387.085563	-387.127031	32.341	
C	 0.163792823	 1.483425219	-0.0810660697	-0.432657
C	-0.0140905391	-0.0292033485	 0.0362619468	 0.409135
O	-1.3376251583	-0.3297826882	 0.587507849	-0.331775
C	-0.7599092194	-0.7362246625	 1.8436924104	-0.095058
C	 0.6726914416	-0.6742590293	 1.2741915004	-0.094638
C	 1.350140906	-2.0201440794	 0.9999862456	-0.225534
C	 2.1475948572	-1.9964187667	-0.3146603664	-0.264141
C	 1.2577454079	-1.553492781	-1.4510326969	-0.063306
C	 0.2436879742	-0.7074437299	-1.274177804	-0.106789
H	 1.1795867476	 1.7316294312	-0.4065005168	 0.116632
H	-0.5406968647	 1.889914372	-0.8138514351	 0.122053
H	-0.0256094943	 1.9705137809	 0.8807039311	 0.114957
H	-0.9763882132	-0.0174669037	 2.6453917473	 0.093003
H	-1.1095301298	-1.7281444795	 2.1552101002	 0.098506
H	 1.3523985078	 0.0042133826	 1.7968195405	 0.068115
H	 1.992973221	-2.3012522975	 1.841248834	 0.093775
H	 0.5837844006	-2.7988609416	 0.9104764921	 0.106699
H	 3.0192563763	-1.33179909	-0.2233904257	 0.108388
H	 2.5540549897	-2.9919373289	-0.5242003705	 0.102791
H	 1.4492918746	-1.9710067357	-2.4364088061	 0.089691
H	-0.4099130487	-0.4309544133	-2.0985164661	 0.090153
78.3739	172.6434	234.5591	251.5234	298.2064	344.6551	398.5179	445.5318	494.2495	510.5531	632.5147	726.9755	749.1387	787.1809	848.9695	887.0546	909.2642	947.6611	964.7056	990.893	1003.6358	1011.9846	1018.586	1088.5603	1091.9005	1119.0026	1143.4269	1162.4303	1175.0804	1226.6726	1250.9013	1267.1828	1292.1738	1334.6938	1354.9088	1367.4694	1389.0682	1397.1545	1418.1116	1481.8718	1482.9637	1488.3397	1493.2247	1528.2575	1713.2424	3001.9048	3003.5511	3030.2592	3031.3021	3047.4816	3059.3464	3061.7654	3081.6668	3106.2195	3106.8898	3143.7292	3166.6873
CC12OCC1CCC=C2	C[C@]12OC[C@H]1CCC=C2	
InChI=1S/C8H12O/c1-8-5-3-2-4-7(8)6-9-8/h3,5,7H,2,4,6H2,1H3	InChI=1S/C8H12O/c1-8-5-3-2-4-7(8)6-9-8/h3,5,7H,2,4,6H2,1H3/t7-,8-/m1/s1
