18
gdb 127333	5.45953	0.98208	0.89577	2.5782	80.36	-0.2331	0.0156	0.2487	1334.6128	0.149806	-398.14979	-398.141558	-398.140613	-398.183303	30.014	
C	-0.2550499853	 1.3727658935	 0.0761736584	-0.319371
N	-0.0043128472	-0.0486665098	 0.0038913427	 0.058192
C	 0.4164140206	-0.7965073802	-1.0332933862	 0.001545
N	 0.5199726739	-2.0633288502	-0.6825462745	-0.332938
C	 0.1376209227	-2.046287434	 0.630933822	 0.372146
N	-0.1895554349	-0.8436325523	 1.0898522807	-0.332072
C	 0.0887002247	-3.2503300184	 1.4741274855	-0.09359
C	-0.3083462568	-4.5779807525	 0.8587522352	-0.261647
C	 1.1148425397	-4.3477699946	 1.2700533774	-0.261646
H	-0.0458976832	 1.8168355707	-0.8988425933	 0.141551
H	-1.2985680455	 1.5596511353	 0.3426547562	 0.154135
H	 0.389956458	 1.8328413821	 0.8292862956	 0.154108
H	 0.6302993361	-0.379692101	-2.0067047127	 0.137383
H	-0.2363281641	-3.0539890637	 2.4888983045	 0.096818
H	-0.9243354042	-5.241630681	 1.455260102	 0.110743
H	-0.5296166377	-4.5715893242	-0.2021078567	 0.13195
H	 1.8430744348	-4.1877901354	 0.4835990989	 0.13195
H	 1.4918343283	-4.850798364	 2.1535323545	 0.110743
60.204	102.8294	145.6091	166.4079	226.9275	309.5351	422.6253	452.2868	640.0193	644.156	726.3893	773.392	794.9852	830.8613	852.6784	918.6965	918.7551	1021.3666	1041.9689	1062.5943	1073.1599	1082.4935	1086.9534	1133.0698	1154.0428	1205.8571	1218.4859	1232.8428	1318.9895	1339.8825	1364.6017	1451.7236	1458.8622	1459.359	1472.5587	1491.7299	1509.0361	1530.3485	1576.7257	3050.8439	3119.6314	3137.0491	3139.9717	3143.8681	3183.6759	3223.0989	3237.6721	3248.5016
CN1C=NC(=N1)C1CC1	Cn1cnc(n1)C1CC1	
InChI=1S/C6H9N3/c1-9-4-7-6(8-9)5-2-3-5/h4-5H,2-3H2,1H3	InChI=1S/C6H9N3/c1-9-4-7-6(8-9)5-2-3-5/h4-5H,2-3H2,1H3
