15
gdb 18945	6.52731	1.51781	1.45407	4.2069	69.73	-0.3038	0.0278	0.3316	862.8777	0.120594	-325.464163	-325.458109	-325.457165	-325.494337	23.775	
N	-0.087122274	-1.2233538786	-0.1016485202	-0.332637
C	-0.0743626642	-0.0673184639	-0.0693403857	 0.26331
C	-0.0504738081	 1.3869914202	-0.0211444397	-0.182357
C	 0.0131106375	 2.0705016167	 1.3697436969	-0.034332
C	 1.5462091759	 1.7868044997	 1.5360596524	-0.041014
C	 1.8516555333	 3.2633065078	 1.8580181815	-0.26692
C	 0.7459593801	 3.3259484917	 0.7855011041	-0.052443
C	 1.3297375779	 2.0938133844	 0.0137518935	-0.03433
H	-0.7805598919	 1.8021687677	-0.722898798	 0.114744
H	-0.7430273597	 2.0579647692	 2.1543912403	 0.091263
H	 1.9868348105	 0.8797254967	 1.948299874	 0.098123
H	 1.5854686253	 3.6140417555	 2.8596367504	 0.10204
H	 2.8387819786	 3.6362281917	 1.5688435446	 0.10204
H	 0.2632864158	 4.1924898607	 0.331737052	 0.081249
H	 2.0917605729	 2.1081582504	-0.7651505262	 0.091263
129.7688	167.6615	375.8782	395.226	522.5871	558.9942	738.909	782.4199	851.4434	851.5048	861.0695	903.6505	907.626	927.6622	971.0702	997.6479	1026.3966	1028.4325	1063.1352	1119.1478	1122.0277	1148.3581	1160.9258	1177.084	1187.928	1216.4041	1243.5532	1272.0337	1309.6341	1360.993	1510.6378	2350.7716	3046.1487	3066.2985	3104.467	3105.2963	3119.222	3120.1972	3132.2857
N#CC1C2C3CC2C13	N#C[C@H]1[C@H]2[C@@H]3C[C@H]2[C@H]13	
InChI=1S/C7H7N/c8-2-5-6-3-1-4(6)7(3)5/h3-7H,1H2	InChI=1S/C7H7N/c8-2-5-6-3-1-4(6)7(3)5/h3-7H,1H2/t3-,4+,5-,6-,7+
