15
gdb 68518	2.66448	1.87284	1.46573	0.877	63.87	-0.249	-0.0165	0.2324	895.1668	0.112491	-457.724714	-457.717717	-457.716772	-457.755952	27.822	
O	-0.0875331924	 1.4113444025	 0.0955398155	-0.482254
C	 0.0230903486	 0.0385415784	 0.0582709211	 0.271086
C	 0.9089845932	-0.8401365515	 1.016573981	-0.299007
C	 0.7179603804	-1.9547118307	-0.0619057743	-0.210883
C	-0.8126788934	-2.1431145194	-0.0648647109	 0.035888
O	-1.4994929392	-1.6746975964	 1.1007144457	-0.244497
C	-1.2952456407	-0.7546279864	 0.0246625104	-0.00346
C	 0.8006438042	-0.7470994724	-1.0491709303	 0.355409
O	 1.3710678861	-0.4585734847	-2.0546802953	-0.317286
H	 0.6796686875	 1.789852591	-0.3501044779	 0.297253
H	 1.9392817082	-0.4860601992	 1.0724933178	 0.115155
H	 0.4870974159	-1.0455068514	 1.99719826	 0.145503
H	 1.3700660008	-2.8194646717	-0.1362131111	 0.097334
H	-1.2936037451	-2.9334104362	-0.6290306196	 0.118917
H	-2.1744803141	-0.348827612	-0.461785142	 0.120842
130.1598	177.0663	302.8427	324.143	357.724	438.764	532.4285	556.5509	603.3475	703.0088	724.1732	794.9997	809.2125	839.9162	856.8109	901.3744	938.555	952.1547	1002.3198	1017.5698	1053.4197	1093.564	1101.2035	1144.8267	1185.239	1230.6151	1244.3295	1271.9384	1306.7051	1375.7722	1407.3719	1476.0284	1898.5963	3096.6594	3171.3036	3182.2689	3186.8832	3196.9881	3791.1261
OC12CC(C3OC13)C2=O	O[C@@]12C[C@@H]([C@H]3O[C@@H]13)C2=O	
InChI=1S/C6H6O3/c7-4-2-1-6(4,8)5-3(2)9-5/h2-3,5,8H,1H2	InChI=1S/C6H6O3/c7-4-2-1-6(4,8)5-3(2)9-5/h2-3,5,8H,1H2/t2-,3+,5+,6+/m0/s1
