18
gdb 94643	3.3039	1.03359	0.85634	1.8905	72.16	-0.2638	0.0013	0.2651	1327.6702	0.146881	-439.067384	-439.058352	-439.057408	-439.102219	32.759	
O	 0.8110793571	 0.1510687841	-0.7674115256	-0.432412
C	 0.0259846763	-0.3987734427	 0.2459588946	 0.15324
C	-0.4490383157	 0.4610581769	 1.4536894398	-0.259604
C	-1.8075744189	-0.2921126869	 1.3861468508	-0.255851
C	-1.4667166223	-0.7085922688	-0.0695120627	 0.069314
O	-1.8810659573	 0.2505723109	-1.0446655463	-0.259455
C	-3.1154593456	 0.0027693061	-1.6607776236	-0.199492
C	-4.2845806688	 0.2808803356	-0.8005932698	 0.263111
N	-5.204016686	 0.4988569204	-0.135945907	-0.304487
H	 0.2370576997	 0.7465035186	-1.2649226634	 0.288876
H	 0.5307607874	-1.3055630552	 0.5931872953	 0.094874
H	 0.13087873	 0.4044195194	 2.3765657559	 0.103434
H	-0.5581124092	 1.508907986	 1.1620237708	 0.111411
H	-1.8391787036	-1.1644397713	 2.044492278	 0.111365
H	-2.7186618208	 0.2889876089	 1.5268021322	 0.135196
H	-1.7353075962	-1.716493743	-0.4099512505	 0.071193
H	-3.1729822818	 0.6569048247	-2.5365742307	 0.162727
H	-3.1892153844	-1.0373956538	-2.0123257376	 0.14656
33.9255	81.9016	136.4848	173.0439	231.4541	317.166	364.3791	381.4367	402.2264	424.7302	544.603	635.4019	682.0696	737.858	832.4165	900.914	905.0196	919.0408	961.9839	1014.9603	1034.4243	1085.394	1113.4914	1133.6675	1162.2635	1187.1895	1231.7617	1255.6848	1270.8588	1277.2194	1303.2858	1342.6858	1375.1022	1404.6935	1443.3808	1466.6597	1474.5263	1491.71	2358.0509	3001.382	3022.8967	3066.3728	3070.6296	3076.7088	3085.0493	3126.6368	3145.5543	3785.1464
OC1CCC1OCC#N	O[C@H]1CC[C@H]1OCC#N	
InChI=1S/C6H9NO2/c7-3-4-9-6-2-1-5(6)8/h5-6,8H,1-2,4H2	InChI=1S/C6H9NO2/c7-3-4-9-6-2-1-5(6)8/h5-6,8H,1-2,4H2/t5-,6+/m0/s1
