23
gdb 120339	3.85303	0.89406	0.8026	0.2241	91.13	-0.2241	0.0219	0.246	1539.551	0.206889	-351.158871	-351.149904	-351.14896	-351.192887	34.759	
C	-0.1898031531	 1.6260799945	 0.0051977747	-0.38039
C	-0.015410831	 0.10518664	-0.032977491	-0.168026
C	 0.7154298753	-0.4421291215	 1.1989774918	-0.167508
C	 0.8447693822	-1.9773112808	 1.2292997481	-0.042302
C	 1.7229168046	-2.5815868683	 0.1443908542	-0.086932
C	 2.6230212715	-3.4380424347	 0.6332516805	-0.083356
C	 2.5653637955	-3.5114347607	 2.1224064357	-0.080267
C	 2.9113482144	-2.2156284957	 2.8319174419	-0.278652
C	 1.4710462533	-2.534140495	 2.5146894852	-0.05768
H	 0.7796343899	 2.134674879	 0.0517642708	 0.113779
H	-0.7146677995	 1.9915543158	-0.8831171818	 0.109814
H	-0.7661633917	 1.936604037	 0.8839918206	 0.112829
H	-1.0003923243	-0.3743865359	-0.1123452609	 0.092612
H	 0.5310950482	-0.1730061429	-0.9427183946	 0.097069
H	 1.7134387145	 0.0093445832	 1.2637560158	 0.092857
H	 0.1769968981	-0.123323333	 2.1017297546	 0.090463
H	-0.1739249124	-2.3856557175	 1.1299983664	 0.074497
H	 1.6165293392	-2.3222862119	-0.9028301885	 0.090673
H	 3.3442250486	-3.9947883928	 0.0448225401	 0.090817
H	 2.7223623127	-4.4539668456	 2.635281262	 0.082668
H	 3.2017871982	-2.2765011791	 3.8759614054	 0.105823
H	 3.432943311	-1.4546551853	 2.2612708554	 0.110811
H	 0.8147849148	-2.7464098686	 3.3508444535	 0.080403
78.8046	85.1956	123.4748	194.902	248.5559	287.1975	321.5038	399.2103	442.2162	581.3915	681.636	739.6352	748.0266	778.3362	787.938	811.5029	856.5333	894.7603	916.0954	935.8423	946.6235	984.345	1013.1524	1040.1529	1044.1124	1068.2532	1081.7819	1083.9212	1101.6568	1130.0231	1132.6706	1153.3021	1199.4499	1252.4964	1277.1695	1303.474	1319.8127	1334.3564	1349.3046	1369.8699	1389.5918	1395.5336	1413.277	1476.0566	1481.8354	1493.6172	1499.8481	1510.214	1666.4158	2968.5255	3011.1399	3017.8929	3028.6079	3041.145	3062.9282	3095.543	3100.1511	3123.9779	3163.8835	3173.0863	3182.219	3207.2459	3212.5251
CCCC1C=CC2CC12	CCC[C@H]1C=C[C@H]2C[C@@H]12	
InChI=1S/C9H14/c1-2-3-7-4-5-8-6-9(7)8/h4-5,7-9H,2-3,6H2,1H3	InChI=1S/C9H14/c1-2-3-7-4-5-8-6-9(7)8/h4-5,7-9H,2-3,6H2,1H3/t7-,8-,9-/m0/s1
