21
gdb 94570	3.02991	1.2068	1.06603	3.1205	78.18	-0.2378	0.0742	0.312	1228.972	0.182536	-424.18825	-424.179298	-424.178354	-424.22277	32.722	
C	-0.3208972356	 1.499300673	-0.0951814548	-0.415471
C	 0.1197155655	 0.0476101207	-0.0687761826	 0.148548
O	 1.3848542447	-0.1605075799	-0.741650098	-0.289928
C	 1.9722806925	-0.7783786641	 0.4178023608	-0.081951
C	 0.6848640215	-0.5725600294	 1.2444636406	-0.090881
C	 0.7755520898	 0.2815098425	 2.4923583585	 0.13121
C	 1.6389568301	-0.2370562387	 3.6676630349	-0.296761
C	 2.3421376477	 1.1293122458	 3.5642185901	-0.061284
O	 1.6221022987	 1.4521738869	 2.35567435	-0.28159
H	 0.4110608021	 2.1438169461	 0.3951951236	 0.152805
H	-0.4387346683	 1.8233547813	-1.1342621889	 0.121094
H	-1.2894697998	 1.6167997195	 0.4044134121	 0.106706
H	-0.6567396192	-0.5831681711	-0.5257293619	 0.06818
H	 2.2551281234	-1.8219197358	 0.2307016617	 0.091279
H	 2.8469879637	-0.2216848033	 0.7732941569	 0.106097
H	 0.1815239099	-1.5045955713	 1.5214685223	 0.079081
H	-0.234870598	 0.5811891441	 2.8083581561	 0.075782
H	 1.1168733441	-0.4573410744	 4.5995888852	 0.111386
H	 2.2750749038	-1.084140828	 3.4006884186	 0.113884
H	 2.1057428978	 1.8297250156	 4.3757352144	 0.103046
H	 3.4259605255	 1.1212916407	 3.4051529503	 0.108769
62.4438	80.7259	95.6516	159.0401	234.9289	251.3196	278.8536	395.7171	458.0374	584.6335	697.1009	755.7765	797.1519	851.152	881.3007	911.3787	922.0518	949.7347	978.2233	1001.9742	1027.4209	1038.7285	1081.9281	1096.8936	1122.2622	1148.18	1161.8957	1172.7568	1174.3506	1215.0148	1239.0448	1261.2196	1275.5969	1294.0019	1342.0793	1359.0749	1377.7662	1388.7984	1394.1903	1411.0687	1487.4943	1489.3072	1501.382	1516.5911	1529.7035	2987.3531	2987.69	3012.8876	3015.4988	3035.7028	3053.1355	3062.6138	3065.3966	3075.5926	3099.1648	3132.9795	3142.2841
CC1OCC1C1CCO1	C[C@H]1OC[C@H]1[C@H]1CCO1	
InChI=1S/C7H12O2/c1-5-6(4-9-5)7-2-3-8-7/h5-7H,2-4H2,1H3	InChI=1S/C7H12O2/c1-5-6(4-9-5)7-2-3-8-7/h5-7H,2-4H2,1H3/t5-,6-,7-/m1/s1
