16
gdb 69390	3.3207	1.32763	1.04604	3.7445	73.39	-0.2436	-0.0197	0.224	1119.8966	0.124656	-434.051144	-434.042839	-434.041895	-434.084161	30.809	
N	-0.0411412155	 1.4447760669	-0.2700324099	-0.592525
C	-0.0336546056	 0.0563748426	-0.0033663507	 0.23836
C	-0.3809811059	-0.9443098982	-1.0992157808	-0.320049
C	-1.2196313793	-0.9144463381	 0.1406991184	-0.064008
N	-0.5043816505	-1.5803828242	 1.2328631183	-0.097251
C	-0.6184183212	-2.816703249	 1.8010298176	 0.129288
O	 0.1749437113	-3.2716015865	 2.5963793156	-0.310902
C	 0.6050951088	-0.6765203825	 1.1605822885	 0.327276
N	 1.6507000025	-0.5033753769	 1.8337704759	-0.549446
H	-0.02057621	 1.9784617212	 0.5933928233	 0.246853
H	 0.7764124371	 1.7132355914	-0.8086882876	 0.248094
H	-0.8242339982	-0.4706045278	-1.9698606879	 0.138559
H	 0.2592119994	-1.7966347156	-1.304530214	 0.131594
H	-2.2771935281	-0.7000300003	 0.2025963594	 0.132684
H	-1.5367651487	-3.3452590485	 1.4781830461	 0.088489
H	 1.7261914338	-1.2065145948	 2.5709089476	 0.252984
73.9864	152.9381	163.1342	241.1186	268.1078	270.0806	335.5453	451.2808	480.7753	529.6665	661.1004	685.5009	738.7331	806.6387	867.4378	875.7815	900.6579	934.1722	946.9694	982.0832	1029.3185	1059.7871	1088.6682	1142.6084	1188.2048	1238.8208	1256.0752	1297.3421	1393.7019	1415.7958	1434.6655	1486.6485	1668.0278	1758.3635	1824.2345	2943.217	3123.6973	3216.8646	3224.8641	3483.7236	3502.0435	3575.1579
NC12CC1N(C=O)C2=N	N[C@]12C[C@H]1N(C=O)[C]2[NH]	
InChI=1S/C5H7N3O/c6-4-5(7)1-3(5)8(4)2-9/h2-3,6H,1,7H2	InChI=1S/C5H7N3O/c6-4-5(7)1-3(5)8(4)2-9/h2-3,6H,1,7H2/t3-,5-/m1/s1
