15
gdb 62435	3.83287	1.28118	1.23026	3.4643	69.71	-0.263	-0.0157	0.2473	1022.3674	0.113376	-416.814694	-416.80704	-416.806096	-416.846984	28.274	
C	-0.059076431	 1.5652138611	 0.0052709053	-0.467538
C	 0.0342337113	 0.0503707397	 0.0464688359	 0.065437
C	-1.1277774976	-0.6405684353	-0.4503067306	 0.251386
N	-2.0592579098	-1.1986392249	-0.8508379457	-0.336395
C	 1.3283153995	-0.7099547021	-0.2290544509	 0.036894
O	 2.522378214	 0.0426835632	-0.126978623	-0.203053
C	 2.6023072608	 0.4051346759	 1.1825521948	 0.08923
N	 1.6899982733	 0.0170169992	 1.9804306267	-0.248667
C	 0.7612941635	-0.7299340062	 1.1718971236	-0.065058
H	 0.7810271162	 2.0307827558	 0.5211887365	 0.14589
H	-0.0700559444	 1.9196451326	-1.0290000585	 0.14406
H	-0.9787096296	 1.8963249606	 0.4942292919	 0.148386
H	 1.3805313334	-1.5137145241	-0.950847317	 0.144095
H	 3.4642221437	 1.0091816224	 1.4361406476	 0.160005
H	 0.2510971764	-1.5627452579	 1.6375756432	 0.135328
108.2496	137.9481	155.425	231.1533	262.0991	393.4329	468.9732	534.43	567.827	587.2949	707.4922	750.4782	854.1466	883.4978	897.7786	947.1373	975.0121	1019.5032	1044.8968	1062.674	1077.224	1106.251	1123.1933	1212.7783	1279.2433	1282.564	1329.0324	1368.9548	1422.5478	1484.0848	1497.6908	1660.0313	2345.9179	3057.2727	3124.5587	3148.8209	3203.579	3212.7443	3240.3018
CC1(C#N)C2OC=NC12	C[C@@]1(C#N)[C@H]2OC=N[C@@H]12	
InChI=1S/C6H6N2O/c1-6(2-7)4-5(6)9-3-8-4/h3-5H,1H3	InChI=1S/C6H6N2O/c1-6(2-7)4-5(6)9-3-8-4/h3-5H,1H3/t4-,5+,6+/m1/s1
