17
gdb 99246	5.01821	0.7108	0.63135	2.6978	67.07	-0.2503	0.0167	0.267	1708.8326	0.134189	-492.357698	-492.347121	-492.346176	-492.395667	35.	
C	 0.0879180837	 1.2967589323	-0.184523136	-0.230413
O	-0.0343984091	-0.116031055	-0.0150889758	-0.265541
C	-1.3120611301	-0.566288427	 0.0562896707	 0.53432
O	-2.2968744165	 0.1384219865	-0.0184107312	-0.42697
N	-1.3271726023	-1.911099289	 0.2356454671	-0.377095
C	-2.5587588559	-2.6494279601	 0.1919328125	-0.241861
C	-2.234236838	-4.1228159703	-0.0647777855	 0.405094
N	-3.3180096593	-4.9392771469	-0.1211622373	-0.523419
O	-1.0920044312	-4.5218590587	-0.1952893317	-0.358659
H	 1.1592509649	 1.4986229952	-0.2136359246	 0.128601
H	-0.3843233129	 1.6219692125	-1.1154747039	 0.135508
H	-0.3766930887	 1.8320325464	 0.6478310509	 0.136528
H	-0.483217158	-2.4575476816	 0.1339847495	 0.268279
H	-3.1209274588	-2.5660126265	 1.1331044164	 0.134232
H	-3.217845408	-2.2651215409	-0.5970765244	 0.144377
H	-4.2580832712	-4.5931282438	-0.0404222125	 0.267915
H	-3.1736671285	-5.9189107931	-0.3011749243	 0.269104
19.4525	56.4553	87.64	103.3614	128.966	157.7314	174.8188	262.8765	305.7792	368.0085	493.6698	542.178	559.2542	616.9504	641.5818	725.5497	785.5377	845.7857	982.2345	1020.8074	1071.3821	1105.6615	1183.3337	1206.2603	1216.0475	1238.3427	1244.0167	1314.5383	1408.5901	1465.1731	1480.6161	1500.1351	1507.4386	1535.9664	1622.4327	1796.5766	1811.6371	3006.3155	3043.1357	3047.2793	3119.1994	3151.1027	3601.2703	3606.5495	3740.5165
COC(=O)NCC(N)=O	COC(=O)NCC(=O)N	
InChI=1S/C4H8N2O3/c1-9-4(8)6-2-3(5)7/h2H2,1H3,(H2,5,7)(H,6,8)	InChI=1S/C4H8N2O3/c1-9-4(8)6-2-3(5)7/h2H2,1H3,(H2,5,7)(H,6,8)
