19
gdb 58075	1.81951	1.45746	1.26811	0.948	82.93	-0.2555	0.0267	0.2821	1167.748	0.154333	-385.821935	-385.811338	-385.810394	-385.85662	39.842	
C	 0.0708386467	 1.5626333073	-0.016045982	-0.42062
C	 0.0003622493	 0.0398969359	 0.0567094462	 0.12479
O	 0.6810434876	-0.4611634449	 1.1913140178	-0.433417
C	-1.4747429491	-0.5274238097	 0.021251987	-0.148932
C	-1.4187792252	-2.0789882315	-0.0087857378	-0.410209
C	-2.1699902058	-0.0869440288	 1.2402692542	 0.335077
C	-2.6825932034	 0.2568055633	 2.2723970607	-0.481229
C	-2.1760648815	-0.0430341099	-1.1733684116	 0.333896
C	-2.7276372034	 0.3194204189	-2.1775610374	-0.458662
H	 1.1167336635	 1.8769700949	 0.0257057961	 0.123631
H	-0.3763081347	 1.9368312587	-0.9398005226	 0.134223
H	-0.4615115482	 2.0141059194	 0.8281506801	 0.122238
H	 0.5138523436	-0.3970149461	-0.8063315915	 0.099035
H	 0.2406875752	-0.0976236327	 1.9703917648	 0.283395
H	-0.8330729772	-2.4355641273	 0.8393667651	 0.1409
H	-2.425692397	-2.4978013692	 0.0377366715	 0.130191
H	-0.9441436938	-2.4093560476	-0.9366519384	 0.12467
H	-3.1684523572	 0.5622054354	 3.1664236041	 0.202983
H	-3.2242197393	 0.648897694	-3.0567031866	 0.19804
88.0095	123.1852	143.7221	162.871	227.9853	240.6571	245.5569	269.6105	356.8597	376.2708	403.834	464.6548	483.2609	508.0411	559.5036	614.0425	631.9934	634.9091	649.7406	658.8164	672.6413	868.5381	929.5738	945.9381	1022.5794	1069.5468	1100.6794	1128.2674	1180.6546	1198.1217	1309.0049	1346.9846	1397.3161	1405.3061	1425.4119	1488.1999	1491.2107	1492.5585	1497.6307	2226.7423	2235.8374	3043.7579	3054.7931	3060.0653	3117.0162	3133.5551	3135.2521	3155.4087	3498.004	3500.9916	3769.1004
CC(O)C(C)(C#C)C#C	C[C@@H](O)C(C)(C#C)C#C	
InChI=1S/C8H10O/c1-5-8(4,6-2)7(3)9/h1-2,7,9H,3-4H3	InChI=1S/C8H10O/c1-5-8(4,6-2)7(3)9/h1-2,7,9H,3-4H3/t7-/m1/s1
