14
gdb 28533	3.24174	1.43789	0.99719	3.3365	68.73	-0.2041	-0.0215	0.1826	1092.0948	0.103471	-470.080118	-470.072619	-470.071675	-470.111815	29.154	
N	-0.0193919384	 1.445431353	-0.0799952653	-0.602293
C	-0.0322764713	 0.0461810174	-0.0307098297	 0.168602
C	-1.1795835102	-0.7307739299	 0.0576882963	-0.050131
N	-1.1838833461	-2.07114179	 0.0366737685	-0.303253
C	 0.0005732872	-2.6419235882	-0.0757462911	 0.437
O	 0.0185950667	-3.9879686054	-0.1049180223	-0.399212
N	 1.1848468968	-2.0192768505	-0.1599683395	-0.445219
C	 1.1551998826	-0.698798729	-0.1363871529	 0.397829
O	 2.320733758	-0.0242754257	-0.2094972039	-0.422835
H	 0.859789322	 1.8418954212	 0.2232797765	 0.258972
H	-0.7946401253	 1.8753703733	 0.4062755315	 0.248586
H	-2.1513693475	-0.2490440469	 0.1515560374	 0.108235
H	 0.9443756176	-4.2478838012	-0.1895669299	 0.300879
H	 3.0230795878	-0.6868723984	-0.2635367057	 0.302839
130.9217	240.9397	246.8581	291.8796	359.7599	379.2443	449.8055	498.4665	506.0983	539.1613	570.0049	597.4539	679.2919	734.1612	784.6786	808.0715	817.5948	955.6508	1011.7169	1109.912	1184.136	1223.7678	1296.5868	1331.5902	1370.4075	1426.9339	1478.1162	1525.0643	1625.7015	1649.1735	1681.4542	3143.9698	3547.7283	3645.2772	3772.7039	3804.0363
NC1=CN=C(O)N=C1O	Nc1cnc(O)nc1O	
InChI=1S/C4H5N3O2/c5-2-1-6-4(9)7-3(2)8/h1H,5H2,(H2,6,7,8,9)	InChI=1S/C4H5N3O2/c5-2-1-6-4(9)7-3(2)8/h1H,5H2,(H2,6,7,8,9)
