18
gdb 30772	2.97713	1.34708	0.96058	1.4098	75.93	-0.1772	0.0529	0.2301	1210.7691	0.148236	-439.115203	-439.106179	-439.105235	-439.149228	33.248	
C	 0.3301645121	 1.329114669	 0.1351259964	-0.34173
N	 0.023439646	-0.0752555324	-0.0362327367	-0.05387
C	-0.447730396	-0.6829765638	-1.1915043532	-0.109998
C	-0.6277296082	-2.0172415731	-0.9332393639	-0.283899
C	-0.2728217798	-2.2511562069	 0.4319627802	 0.093985
C	-0.295719143	-3.499314403	 1.2537462749	-0.199636
O	 0.7856026085	-3.5147370339	 2.2133111589	-0.422753
C	 0.1160971078	-1.0265405639	 0.9374451445	 0.319441
O	 0.5633900846	-0.6916808141	 2.1700346915	-0.450214
H	 0.7975916645	 1.7182304602	-0.772966733	 0.134911
H	-0.569222689	 1.9182525269	 0.3488716963	 0.136148
H	 1.0243669697	 1.4420954465	 0.9691155476	 0.157629
H	-0.6012908911	-0.1013069638	-2.0855492295	 0.111492
H	-0.9779506992	-2.7556185318	-1.6392358776	 0.090991
H	-1.196051486	-3.5813549018	 1.8751045974	 0.120745
H	-0.2615882727	-4.3951265895	 0.6187682334	 0.106255
H	 1.6040303205	-3.5156645381	 1.7027686115	 0.286803
H	 0.7375066712	-1.5418035965	 2.6112721212	 0.3037
66.1342	97.7312	132.0475	197.3667	238.3023	293.5774	294.4736	384.8667	452.4718	503.4476	602.4009	616.4442	632.2944	691.8411	704.7349	750.8085	780.9254	786.4164	963.9651	999.9273	1022.1818	1070.3576	1109.3709	1151.4792	1172.7252	1234.455	1250.5649	1324.4476	1363.3738	1379.2673	1395.9428	1424.9494	1453.334	1491.2808	1508.0409	1510.8878	1532.0418	1583.9237	1625.3815	3008.1185	3032.4186	3044.3844	3099.8629	3146.9601	3237.7985	3270.9539	3642.1571	3791.3576
CN1C=CC(CO)=C1O	Cn1ccc(CO)c1O	
InChI=1S/C6H9NO2/c1-7-3-2-5(4-8)6(7)9/h2-3,8-9H,4H2,1H3	InChI=1S/C6H9NO2/c1-7-3-2-5(4-8)6(7)9/h2-3,8-9H,4H2,1H3
