15
gdb 26872	3.11377	1.45076	0.99595	7.4673	74.14	-0.2227	-0.0464	0.1762	1123.6777	0.112231	-454.018492	-454.010003	-454.009058	-454.051547	31.044	
C	 0.0045549368	 1.5586676009	 0.0222262601	-0.526768
C	 0.0088338292	 0.0550248922	 0.0061995994	 0.113218
C	-1.1589889249	-0.6927624533	 0.0258573244	 0.428911
N	-2.4044962618	-0.1752518715	 0.0784147831	-0.563213
O	-1.1370811802	-2.0111334137	 0.015300899	-0.258593
C	 0.1405148802	-2.76908405	-0.0093560376	 0.438157
O	-0.0059268223	-3.9518200852	-0.0078499901	-0.332171
N	 1.27080753	-2.0293570889	-0.0327905583	-0.361292
C	 1.1791163176	-0.7152652956	-0.0246077507	-0.011602
H	 1.0295999992	 1.9385102253	 0.0066841688	 0.140909
H	-0.5079335984	 1.9878201496	-0.8494594055	 0.125457
H	-0.477387734	 1.9662537589	 0.9202533659	 0.131231
H	-2.5488124594	 0.8088906462	-0.0612379323	 0.278603
H	-3.1870369306	-0.798951001	-0.029526113	 0.281739
H	 2.1329423886	-0.1844915637	-0.0446427932	 0.115413
87.7285	146.9516	179.1786	211.1637	269.2145	272.3695	328.6913	437.9403	483.6587	496.7548	504.5935	587.6398	671.8664	743.9898	751.7729	788.373	853.045	976.1737	1004.4101	1027.8782	1072.9324	1100.1192	1238.1327	1351.5101	1407.1469	1419.0922	1458.1806	1485.4811	1497.2101	1552.4205	1640.8039	1674.0151	1900.2392	3006.1935	3050.6701	3108.9977	3113.2229	3616.9029	3747.2577
CC1=C(N)OC(=O)N=C1	Cc1c(N)oc(=O)nc1	
InChI=1S/C5H6N2O2/c1-3-2-7-5(8)9-4(3)6/h2H,6H2,1H3	InChI=1S/C5H6N2O2/c1-3-2-7-5(8)9-4(3)6/h2H,6H2,1H3
