14
gdb 42278	3.51732	1.19747	1.09388	3.9251	67.11	-0.2685	-0.0917	0.1768	1096.4393	0.09963	-436.646362	-436.638561	-436.637616	-436.679603	27.994	
O	 0.143411497	-0.0564508276	 0.2782751838	-0.263233
C	 0.0152848685	 1.1230851456	 0.0851384169	 0.29784
C	 1.1904379802	 1.9943914808	-0.1582420915	 0.215269
N	 2.0881569187	 2.6973538005	-0.3510398971	-0.294298
C	-1.2884836613	 1.8908050029	 0.1196475305	 0.00865
O	-2.4598690508	 1.0690423775	 0.1909856238	-0.277383
C	-2.8703410648	 1.7312379441	 1.3975249268	 0.113777
C	-1.8932371286	 1.4876911064	 2.4959053328	-0.299204
C	-1.6096567057	 2.5664018644	 1.4658442457	-0.151034
H	-1.3363569313	 2.5868795424	-0.7277176627	 0.123691
H	-3.918851419	 1.9800885918	 1.4997740686	 0.121764
H	-2.1738843415	 1.8802402998	 3.4680672062	 0.130629
H	-1.3263721784	 0.5617039966	 2.5116538733	 0.148146
H	-1.450939313	 3.6085214048	 1.7009116029	 0.125387
47.4495	126.436	130.8001	227.0266	282.8821	369.986	446.21	480.9308	589.1966	702.2114	743.4881	775.7327	813.6944	886.791	939.5268	965.5542	1001.4217	1007.2665	1047.8107	1054.1987	1058.7834	1094.7317	1131.1733	1191.5611	1229.737	1261.5594	1347.0482	1363.5613	1471.2798	1804.8462	2335.4031	3031.7395	3126.7658	3200.3274	3218.0484	3227.3374
O=C(C#N)C1OC2CC12	O=C(C#N)[C@H]1O[C@H]2C[C@@H]12	
InChI=1S/C6H5NO2/c7-2-4(8)6-3-1-5(3)9-6/h3,5-6H,1H2	InChI=1S/C6H5NO2/c7-2-4(8)6-3-1-5(3)9-6/h3,5-6H,1H2/t3-,5+,6+/m1/s1
