23
gdb 64196	2.33932	1.43722	1.34288	1.6337	84.82	-0.2358	0.0717	0.3075	1150.9535	0.204909	-388.2741	-388.26478	-388.263836	-388.308776	36.185	
C	-0.2841544079	 1.4727875195	 0.266020119	-0.451702
C	-0.047434631	-0.0189475728	 0.0403616793	 0.194287
C	-1.3525867556	-0.7324217751	-0.3056639774	-0.451764
C	 1.1225145428	-0.3358268891	-0.9230542201	-0.111791
O	 1.8798346655	-0.9723030147	 0.1207869687	-0.318528
C	 0.8602599885	-0.73437965	 1.104527022	 0.431528
C	 1.2850835528	-0.0483661488	 2.4279791806	-0.287175
C	 0.3861680345	-1.0492811619	 3.2009715039	-0.215199
C	 0.3666345029	-1.9464081707	 1.9351969867	-0.287184
H	 0.6485312218	 2.0047454436	 0.4750076429	 0.121771
H	-0.7322499816	 1.925701785	-0.6258189837	 0.112817
H	-0.9686371988	 1.6488057879	 1.1035742727	 0.115023
H	-1.8042190788	-0.2864464562	-1.1992155084	 0.112824
H	-1.1924843808	-1.7949930559	-0.5102665006	 0.121753
H	-2.0827854434	-0.6510558503	 0.5074716552	 0.11503
H	 0.8871458962	-1.0286905457	-1.7414821865	 0.092454
H	 1.6447570611	 0.5368518201	-1.336534416	 0.09247
H	 2.348741865	-0.2365113957	 2.6012742172	 0.112147
H	 1.0942470275	 1.0201542558	 2.5479765939	 0.09464
H	 0.7936127469	-1.4839334362	 4.1157003119	 0.099826
H	-0.5988399628	-0.6311224158	 3.4262283757	 0.1
H	-0.5732176009	-2.4257727019	 1.6533455701	 0.094635
H	 1.154030576	-2.7054698909	 1.9602765132	 0.112139
19.6419	102.8106	224.9727	247.1472	260.9486	280.4248	321.709	343.6125	367.792	450.7359	476.6778	499.9679	643.7012	691.4869	773.946	842.4674	873.0333	904.2088	932.5212	936.1899	960.0208	970.5035	988.0822	1006.8514	1030.6981	1038.31	1079.8306	1150.6055	1161.4807	1166.2534	1198.529	1209.3166	1244.5001	1256.7597	1262.6849	1271.5622	1282.0666	1306.3321	1363.785	1402.4814	1422.5024	1464.8363	1481.7996	1487.9199	1488.5209	1500.1459	1508.0299	1508.9167	1530.0086	3000.5963	3022.8293	3028.4354	3042.6811	3058.4315	3059.9785	3064.4073	3084.9308	3090.6035	3103.3106	3103.6995	3106.9539	3115.8632	3124.5863
CC1(C)COC11CCC1	CC1(C)COC21CCC2	
InChI=1S/C8H14O/c1-7(2)6-9-8(7)4-3-5-8/h3-6H2,1-2H3	InChI=1S/C8H14O/c1-7(2)6-9-8(7)4-3-5-8/h3-6H2,1-2H3
