15
gdb 36219	3.98523	1.11304	1.03642	3.8424	69.26	-0.2593	-0.0086	0.2507	1156.2074	0.113723	-416.816974	-416.809534	-416.80859	-416.849807	27.577	
N	-0.5488742141	-0.2554723577	-1.3183166404	-0.297957
C	-0.1537089929	 0.3520951517	-0.4194782041	 0.265577
C	 0.3455173818	 1.1163569511	 0.7252433496	-0.419481
C	 1.6151343175	 1.856396435	 0.415608152	 0.401059
N	 2.7502936058	 1.6430377944	 0.9499214861	-0.296162
C	 3.6665686113	 2.5646177992	 0.3181778198	-0.022424
C	 3.8443800976	 2.3915503985	-1.1777123208	-0.317498
C	 2.8219730285	 3.3596484054	-0.6673994059	 0.058729
O	 1.5033276996	 2.8516293653	-0.5061152411	-0.237542
H	-0.4279678617	 1.8301863758	 1.0317718798	 0.175866
H	 0.5429428602	 0.4409141503	 1.5605436779	 0.187087
H	 4.4652841902	 2.9610894274	 0.9319311231	 0.111254
H	 4.7341157483	 2.8315659498	-1.6140170879	 0.129875
H	 3.5117908341	 1.4642636817	-1.6322836054	 0.140264
H	 2.8435158438	 4.4226776621	-0.8653596628	 0.121354
48.6102	90.0121	223.0333	317.1167	376.6191	383.0704	454.4406	477.3543	651.709	745.656	756.748	783.5192	807.6749	908.4443	931.7249	941.2017	960.3257	991.5248	1031.1957	1055.5177	1083.2452	1121.6223	1130.2772	1185.3348	1213.0661	1267.3249	1318.262	1355.0356	1376.1318	1445.2172	1461.8961	1710.3331	2371.6199	3053.1132	3124.0569	3134.7791	3193.4512	3208.629	3229.9059
N#CCC1=NC2CC2O1	N#CCC1=N[C@H]2C[C@H]2O1	
InChI=1S/C6H6N2O/c7-2-1-6-8-4-3-5(4)9-6/h4-5H,1,3H2	InChI=1S/C6H6N2O/c7-2-1-6-8-4-3-5(4)9-6/h4-5H,1,3H2/t4-,5+/m0/s1
