17
gdb 53734	3.75172	0.7303	0.65234	2.3265	82.04	-0.2606	-0.0553	0.2053	1714.8851	0.131848	-421.796922	-421.786889	-421.785945	-421.833684	34.47	
C	 0.7417291504	 0.2599317277	 0.8823914523	-0.477808
C	-0.2707666876	 0.4474962182	-0.228293963	 0.240155
O	-0.134851006	 1.2570225949	-1.1208248453	-0.274725
C	-1.4366579818	-0.4152064434	-0.1599098082	 0.09944
C	-2.401775578	-1.1389173046	-0.0972820761	 0.022427
C	-3.5845094759	-1.963822423	-0.0593056391	 0.205473
C	-4.846321032	-1.3439306001	-0.6220990208	-0.468007
C	-3.4111661191	-3.4345812946	-0.0412850685	-0.205389
O	-3.7561490339	-2.735616616	 1.1463026734	-0.25083
H	 1.5731845468	 0.9513461518	 0.738517526	 0.144198
H	 0.2695881553	 0.4357078203	 1.8549811312	 0.150657
H	 1.107448027	-0.772533817	 0.8877896522	 0.147331
H	-4.7043479101	-1.0723679311	-1.6720291485	 0.141117
H	-5.6756534515	-2.0505862896	-0.5422773331	 0.132879
H	-5.1046901308	-0.4372792343	-0.0678269083	 0.143477
H	-4.1969401864	-4.0519401853	-0.4755057759	 0.12334
H	-2.4091717966	-3.8584334039	-0.0660258783	 0.126264
23.8266	69.8097	92.0669	118.9203	180.9346	195.5208	263.8388	287.6825	363.257	416.5223	538.1582	551.1382	560.008	609.0882	640.6502	770.0741	833.0327	921.217	937.5386	991.7657	1035.2786	1042.822	1097.8276	1137.7153	1168.1806	1205.7714	1291.7658	1361.2915	1382.5769	1412.0281	1459.9385	1468.0642	1478.1976	1493.3981	1519.6113	1767.8133	2323.6187	3040.1191	3048.2526	3084.6348	3104.3426	3121.345	3133.8334	3152.7164	3178.3996
CC(=O)C#CC1(C)CO1	CC(=O)C#C[C@@]1(C)CO1	
InChI=1S/C7H8O2/c1-6(8)3-4-7(2)5-9-7/h5H2,1-2H3	InChI=1S/C7H8O2/c1-6(8)3-4-7(2)5-9-7/h5H2,1-2H3/t7-/m0/s1
