15
gdb 131506	4.5572	1.21651	0.99278	4.5287	67.9	-0.2499	-0.0386	0.2113	1112.2844	0.113043	-453.92173	-453.914235	-453.913291	-453.953923	28.059	
O	 0.3355173892	 1.0983710428	-0.6079566044	-0.419726
C	-0.0198652972	-0.082397429	 0.0769466479	 0.125238
C	 0.5326675778	-0.1525376414	 1.5526026429	-0.391516
C	-0.6293563384	-0.770183246	 2.2540584481	 0.383041
C	-1.7602926527	-0.7821427631	 1.5003131188	 0.224298
C	-1.5808150124	-0.1735567913	 0.1488674072	-0.356856
N	-2.7436804927	-1.3365009536	 2.269908358	-0.183757
N	-2.326566479	-1.6624597175	 3.395048074	-0.040519
O	-0.8330273464	-1.2793644903	 3.4382339004	-0.257898
H	 1.2726770704	 1.0603208029	-0.8235107205	 0.290221
H	 0.3493707259	-0.9678360156	-0.4595332141	 0.090205
H	 1.4608111063	-0.725465245	 1.6340735707	 0.128761
H	 0.7265393658	 0.8615431871	 1.9226474958	 0.14311
H	-2.0013053203	 0.8363556396	 0.0795591294	 0.137515
H	-1.9875224463	-0.7604044994	-0.6782678542	 0.127882
67.1071	231.4542	248.2287	254.0818	285.9452	323.8094	448.6483	485.1679	518.0055	654.4555	693.8488	717.0293	785.0071	819.7153	928.6923	976.6952	997.4928	1018.319	1101.336	1140.6453	1183.0179	1189.4569	1241.2484	1257.5138	1278.0095	1344.6408	1373.4219	1427.4748	1464.789	1477.0827	1486.5903	1499.1769	1605.3066	2997.8642	3040.4088	3045.994	3092.3396	3099.0824	3821.1296
OC1CC2=C(C1)N=NO2	O[C@H]1Cc2c(C1)nno2	
InChI=1S/C5H6N2O2/c8-3-1-4-5(2-3)9-7-6-4/h3,8H,1-2H2	InChI=1S/C5H6N2O2/c8-3-1-4-5(2-3)9-7-6-4/h3,8H,1-2H2/t3-/m1/s1
