12
gdb 129174	5.45662	1.37388	1.09801	4.4579	64.14	-0.2149	-0.0131	0.2018	981.6592	0.080241	-464.964597	-464.958011	-464.957067	-464.995601	24.99	
N	-0.0624360538	 1.2766322179	-0.0191958016	-0.575483
C	-0.009452997	 0.0206468704	 0.0128369529	 0.454356
N	-1.139113106	-0.825113768	 0.053086794	-0.477221
C	-0.6713251508	-2.1170174977	-0.0296493118	 0.437566
C	 0.6899734135	-2.076233809	-0.0203890861	 0.354767
O	 1.1374031211	-0.777314417	 0.0179478196	-0.24666
N	 1.2214565549	-3.3003703339	-0.0085307656	-0.283676
N	 0.2193391634	-4.1527725509	-0.0179137783	-0.137935
N	-0.9604027015	-3.4247992948	-0.0122568643	-0.346011
H	 0.8652429271	 1.6902912106	-0.0476271751	 0.24418
H	-2.0498366311	-0.4618078196	-0.1689613777	 0.287062
H	-1.8361902498	-3.919350998	-0.036307126	 0.289055
125.2357	178.7464	333.6939	351.2195	366.407	487.1754	564.242	596.0099	675.1097	707.247	741.2342	769.1722	782.9156	862.9279	902.1258	929.1977	1014.5009	1026.7817	1167.8211	1203.6896	1305.9891	1323.7867	1369.1865	1477.0223	1589.6876	1653.225	1803.2795	3553.1108	3678.1246	3683.0139
N=C1NC2=C(O1)N=NN2	[NH][C@@H]1N[C@H]2C(=N[N]N2)O1	
InChI=1S/C3H3N5O/c4-3-5-1-2(9-3)7-8-6-1/h(H3,4,5,6,7,8)	InChI=1S/C3H5N5O/c4-3-5-1-2(9-3)7-8-6-1/h1,3-5H,(H,6,7)/t1-,3-/m1/s1
