18
gdb 62299	3.34358	1.47344	1.18018	4.1172	80.4	-0.2984	0.0312	0.3296	1063.1649	0.148118	-364.755891	-364.748306	-364.747362	-364.787683	29.974	
C	-0.1488334866	 1.5836051367	-0.0264564992	-0.467387
C	-0.0445709048	 0.0583410319	-0.0060135786	 0.150735
C	-1.3310118924	-0.5571755307	-0.3349655315	 0.22992
N	-2.3506358437	-1.0371393724	-0.595661579	-0.348431
C	 1.1902892108	-0.6193225332	-0.6696215096	-0.065721
C	 2.1257988329	-0.2822563482	 0.5435189832	-0.062496
C	 2.610114834	-1.7405172494	 0.660693282	-0.281428
C	 1.1221976651	-1.8624360595	 0.2825533243	-0.043794
C	 0.7256154213	-0.6265419576	 1.1611321738	-0.065721
H	 0.8141303023	 2.0376652886	 0.2197277895	 0.126165
H	-0.4546730024	 1.9402641394	-1.0145274544	 0.136717
H	-0.8895043294	 1.933502072	 0.6988065994	 0.136717
H	 1.4610617586	-0.620678172	-1.7262412319	 0.085233
H	 2.6900564128	 0.6383932591	 0.6903670553	 0.082011
H	 3.3370693669	-2.0777288992	-0.0843125969	 0.100992
H	 2.8944088924	-2.0846070528	 1.6596868137	 0.100992
H	 0.5138269634	-2.7522129705	 0.1246305992	 0.100265
H	 0.4597141789	-0.6362416023	 2.2189447605	 0.085232
137.7224	161.9536	208.3724	254.0359	266.512	407.668	462.4144	522.6435	570.3479	631.1433	756.1359	812.4275	844.1256	853.7127	880.18	882.6116	917.9169	928.3283	969.8308	1000.1504	1028.5548	1068.0467	1081.0856	1123.96	1143.4101	1146.7506	1158.5014	1175.0519	1182.4145	1205.3637	1224.221	1249.8801	1295.3178	1315.8426	1414.3244	1488.0255	1496.3523	1512.6829	2345.0878	3044.8081	3045.4819	3103.263	3104.6389	3108.3311	3112.6929	3116.9341	3127.0985	3129.9206
CC1(C#N)C2C3CC2C13	C[C@@]1(C#N)[C@H]2[C@@H]3C[C@H]2[C@H]13	
InChI=1S/C8H9N/c1-8(3-9)6-4-2-5(6)7(4)8/h4-7H,2H2,1H3	InChI=1S/C8H9N/c1-8(3-9)6-4-2-5(6)7(4)8/h4-7H,2H2,1H3/t4-,5+,6-,7+,8-
