16
gdb 27815	2.05836	1.88714	0.99662	4.0077	76.82	-0.2508	-0.0613	0.1895	1160.6826	0.123602	-434.12297	-434.114422	-434.113478	-434.156587	30.724	
C	 0.0450698147	 1.4590708807	-0.0524444309	-0.473439
C	-0.0598864659	-0.02962953	-0.0185002545	 0.41805
N	-1.1842093373	-0.648382118	-0.082359825	-0.348062
C	-1.0973504512	-2.041315594	-0.037362481	 0.339087
C	-2.4118259105	-2.7505140511	-0.1124801664	-0.457884
N	-0.0072072744	-2.7288382399	 0.0603749717	-0.284415
C	 1.1914116907	-2.0585843045	 0.1283184289	 0.418367
N	 2.3148740678	-2.6230179964	 0.2252272723	-0.516289
O	 1.1339494864	-0.6307104483	 0.0843998279	-0.24333
H	 0.6637647771	 1.7703590097	-0.9000304201	 0.1583
H	-0.9493540829	 1.8945546803	-0.1361546327	 0.159337
H	 0.5373154634	 1.819330094	 0.8564052624	 0.158295
H	-2.9278718528	-2.472099092	-1.0376327582	 0.147641
H	-2.2685533216	-3.8294871634	-0.0721429178	 0.148737
H	-3.0540704679	-2.4234517704	 0.7123149793	 0.147641
H	 3.0618803046	-1.9306232565	 0.2599328839	 0.227965
82.6885	112.6685	138.4358	178.899	192.1343	281.1646	331.0815	525.4908	536.9429	558.7231	565.5994	637.5864	657.9854	778.2178	818.8813	856.8254	941.1679	958.4729	1002.2689	1051.4286	1057.4024	1069.8606	1111.0257	1209.0335	1330.754	1342.4861	1407.7145	1411.7646	1462.636	1464.3793	1471.2022	1473.4019	1613.0046	1692.8017	1769.0555	3045.0096	3052.2203	3100.4116	3111.8575	3168.0418	3173.9759	3510.272
CC1=NC(C)=NC(=N)O1	CC1=N[C@@H](C)N=C([NH])O1	
InChI=1S/C5H7N3O/c1-3-7-4(2)9-5(6)8-3/h6H,1-2H3	InChI=1S/C5H8N3O/c1-3-7-4(2)9-5(6)8-3/h3,6H,1-2H3/t3-/m1/s1
