20
gdb 120155	3.2869	1.02484	0.94074	4.1709	75.86	-0.2405	0.0604	0.3009	1317.7773	0.170682	-440.222065	-440.213135	-440.21219	-440.256213	33.847	
O	 0.2175066446	 1.2595144869	-0.463042781	-0.42449
C	 0.0893165209	-0.0702091488	-0.0040868841	-0.04632
C	-1.3653853073	-0.4134122071	 0.3147272983	-0.151009
N	-2.1572232804	-0.1415173069	-0.8870382121	-0.089152
C	-2.548861592	-1.1338472563	-1.8608709035	-0.045161
C	-2.9553147783	-2.4704149435	-1.2177117198	-0.30581
C	-4.0540986574	-1.6919277645	-0.4099192893	 0.106052
O	-4.0383203807	-1.707909901	 0.9991740017	-0.426066
C	-3.5713499963	-0.3766814392	-1.0326034941	-0.06646
H	-0.535411472	 1.387532382	-1.056117461	 0.281915
H	 0.4783652577	-0.7893612597	-0.7464708472	 0.077106
H	 0.7023614656	-0.1701555088	 0.8984266787	 0.10057
H	-1.4502055775	-1.441474575	 0.6846715442	 0.097007
H	-1.7368719136	 0.2503567864	 1.1014686513	 0.118194
H	-2.2733666638	-0.9875774178	-2.8991235875	 0.099002
H	-3.3834554024	-3.1774874121	-1.9316642036	 0.106382
H	-2.1876776253	-2.9800720082	-0.6292273838	 0.106906
H	-5.0511299452	-1.9424457598	-0.7975270892	 0.080129
H	-4.3775393357	-2.5577688746	 1.2979114887	 0.28684
H	-4.2103342109	 0.459824008	-1.2950903868	 0.094364
46.4482	118.1726	139.3989	198.0694	254.4662	281.2434	333.2976	420.6119	467.2311	491.2504	525.1647	627.4612	704.672	751.0535	830.7294	860.3093	879.7773	900.1095	931.4671	978.4942	997.6054	1031.4516	1040.9212	1073.7574	1094.4616	1110.2251	1137.43	1178.6272	1193.9688	1225.1431	1232.0934	1254.9194	1275.1702	1285.5162	1314.8009	1369.6352	1378.5868	1398.948	1423.8494	1445.7762	1470.2656	1494.3656	1510.3329	2949.2475	3005.7294	3040.9355	3063.0405	3066.4305	3093.3832	3116.822	3165.6059	3179.7688	3746.7919	3815.591
OCCN1C2CC(O)C12	OCCN1[C@H]2C[C@@H](O)[C@@H]12	
InChI=1S/C6H11NO2/c8-2-1-7-4-3-5(9)6(4)7/h4-6,8-9H,1-3H2	InChI=1S/C6H11NO2/c8-2-1-7-4-3-5(9)6(4)7/h4-6,8-9H,1-3H2/t4-,5+,6-,7?/m0/s1
