19
gdb 68615	2.46305	1.63717	1.36331	1.4993	81.46	-0.2354	0.0411	0.2765	1040.8911	0.158861	-385.84404	-385.835884	-385.834939	-385.876255	32.613	
C	 0.0104405174	 1.4994847138	 0.094999484	-0.493474
C	-0.0285395822	 0.005863892	-0.0476172898	 0.439043
C	 0.3117245718	-0.7924702558	-1.3349750766	-0.281016
C	-0.3549659138	-1.9412534578	-0.5217209778	-0.08934
C	 0.6129600585	-2.0286043325	 0.6614307782	-0.083474
O	 0.8005567885	-0.6233638809	 0.9426738718	-0.304711
C	-1.3535969682	-0.8460845384	 0.0079409707	-0.244853
C	-2.0501940825	-1.0161639226	 1.2618729101	 0.324421
C	-2.6287075281	-1.1538065644	 2.307728202	-0.441465
H	 1.0368569218	 1.8647348002	-0.0072407909	 0.130177
H	-0.6084034948	 1.9767551452	-0.6697558319	 0.116968
H	-0.3610584878	 1.7935805246	 1.0811258689	 0.139072
H	-0.2708450359	-0.488294625	-2.2062357002	 0.100796
H	 1.370861155	-0.8894585536	-1.5831607425	 0.101058
H	-0.7047079438	-2.8691709725	-0.9709967355	 0.07897
H	 0.1886692727	-2.530425215	 1.5370355501	 0.114415
H	 1.5703698737	-2.4938077671	 0.4002076307	 0.099304
H	-2.0400776261	-0.5419132194	-0.7865951272	 0.101957
H	-3.1374965961	-1.2721728307	 3.232074646	 0.192153
122.0947	141.103	208.5936	266.9172	303.3245	363.5479	385.507	475.2679	497.3675	592.8617	621.2102	621.9249	634.6729	743.8771	787.9961	840.0644	863.7651	893.6001	910.5062	955.2214	967.1274	1004.858	1018.7665	1071.1673	1096.0966	1111.2477	1131.1301	1184.3842	1188.7186	1201.166	1241.1765	1281.5717	1320.456	1360.4433	1370.805	1417.9785	1480.3831	1491.356	1493.6435	1523.0617	2230.6616	3032.33	3043.0879	3069.5366	3077.4715	3080.1792	3115.2514	3121.3889	3134.8002	3138.0051	3504.1355
CC12CC(CO1)C2C#C	C[C@@]12C[C@@H](CO1)[C@H]2C#C	
InChI=1S/C8H10O/c1-3-7-6-4-8(7,2)9-5-6/h1,6-7H,4-5H2,2H3	InChI=1S/C8H10O/c1-3-7-6-4-8(7,2)9-5-6/h1,6-7H,4-5H2,2H3/t6-,7+,8-/m0/s1
