16
gdb 126776	3.16087	1.16766	0.92713	1.9395	69.18	-0.2084	0.0061	0.2145	1254.7876	0.12447	-471.209863	-471.201085	-471.200141	-471.243941	31.784	
C	 0.0545990538	 1.527958398	-0.1166273468	-0.377398
C	 0.0710585995	-0.0020012291	-0.1212523817	-0.12518
N	 0.7339041183	-0.5598041548	-1.2841822031	 0.123584
N	 0.0975942919	-0.7470035358	-2.4456275637	-0.327293
C	 1.0628425797	-1.0895353118	-3.2878320953	 0.304628
O	 0.8649925445	-1.4032604937	-4.5828084143	-0.425951
C	 2.2888774822	-1.0785609784	-2.5942878787	 0.304627
O	 3.5048886841	-1.3796341845	-3.0894687663	-0.425951
N	 2.0596003653	-0.7293835126	-1.3357777082	-0.327291
H	 1.073702976	 1.9240934679	-0.1209375964	 0.136554
H	-0.4720918929	 1.9101051757	-0.9953050439	 0.136556
H	-0.455570832	 1.8946102777	 0.7794364096	 0.120858
H	 0.5983477553	-0.3894201887	 0.7539063927	 0.133385
H	-0.9452674648	-0.4033847031	-0.1192095278	 0.133383
H	-0.0799188785	-1.3188207527	-4.7589965081	 0.307743
H	 4.1414392175	-1.2810116841	-2.371062948	 0.307743
47.0993	79.1152	207.8992	273.0608	281.2847	313.2414	317.8355	336.0389	358.339	432.7335	559.8026	631.341	644.4147	667.8867	736.6493	797.4661	847.3749	958.9342	1020.0403	1100.7729	1107.0164	1198.6226	1203.6914	1266.0355	1372.216	1375.5841	1392.0564	1406.6524	1425.1248	1458.887	1471.6204	1488.4033	1505.1264	1597.3181	1655.9965	3044.7366	3072.2573	3114.4846	3119.6693	3137.8284	3805.1805	3806.2764
CCN1N=C(O)C(O)=N1	CCn1nc(O)c(O)n1	
InChI=1S/C4H7N3O2/c1-2-7-5-3(8)4(9)6-7/h2H2,1H3,(H,5,8)(H,6,9)	InChI=1S/C4H7N3O2/c1-2-7-5-3(8)4(9)6-7/h2H2,1H3,(H,5,8)(H,6,9)
