18
gdb 36046	2.52134	1.25179	0.99632	2.3518	75.38	-0.2844	0.0263	0.3107	1226.3819	0.146935	-401.930092	-401.92138	-401.920436	-401.964157	32.165	
N	-0.540004547	-0.0160702819	 1.7756378124	-0.311536
C	-0.2239029334	 0.378234648	 0.7364860704	 0.265274
C	 0.1982930693	 0.8912208747	-0.5651973294	-0.405303
C	 1.4176402473	 1.811148546	-0.4631135554	 0.386722
C	 2.7565363301	 1.2214753177	-0.599496824	-0.217557
O	 2.1349073134	 1.9186161774	-1.6910527031	-0.275826
C	 1.1972412232	 3.0890493656	 0.2911898407	-0.076574
C	 2.0620011959	 4.2902633638	 0.0255983205	-0.275505
C	 0.6251461359	 4.2866041452	-0.4319814182	-0.266867
H	 0.4296115352	 0.0520709903	-1.22807834	 0.159422
H	-0.6350250791	 1.443048577	-1.0151190994	 0.161392
H	 3.6062086034	 1.7310853624	-0.1510466613	 0.127271
H	 2.8705751062	 0.1480192434	-0.7406721944	 0.122315
H	 0.8640428972	 2.9344687588	 1.3133285657	 0.114064
H	 2.3388238893	 4.9126895124	 0.8685981438	 0.117018
H	 2.8187435303	 4.1952988869	-0.7445366047	 0.131028
H	 0.4511157067	 4.1904640966	-1.4983260559	 0.125189
H	-0.0937351739	 4.9058390356	 0.0919042623	 0.119473
54.0423	91.9449	128.1613	204.0906	237.0754	338.2387	365.1416	395.3895	442.4425	482.681	603.6424	682.6438	794.5559	830.9651	854.9607	873.9043	903.1377	946.2616	957.4409	960.092	1021.7735	1064.2756	1094.2841	1104.7724	1127.6227	1137.8421	1168.1303	1185.548	1204.2861	1226.3453	1241.0963	1318.4925	1389.6317	1431.6542	1459.4587	1460.9756	1500.1507	1527.9423	2362.8898	3049.9282	3094.8712	3097.9559	3137.3068	3142.9487	3155.3762	3187.4801	3220.9162	3236.1553
N#CCC1(CO1)C1CC1	N#CC[C@]1(CO1)C1CC1	
InChI=1S/C7H9NO/c8-4-3-7(5-9-7)6-1-2-6/h6H,1-3,5H2	InChI=1S/C7H9NO/c8-4-3-7(5-9-7)6-1-2-6/h6H,1-3,5H2/t7-/m0/s1
