15
gdb 52017	2.75901	0.87126	0.68673	2.6907	74.45	-0.261	-0.0316	0.2294	1548.1725	0.10664	-420.533662	-420.523665	-420.522721	-420.569953	34.203	
O	-0.1931798176	 0.2930249825	 0.6665567437	-0.2372
C	 0.1120944129	 1.0874694921	-0.1816745716	 0.141673
C	 1.2947579014	 2.0315397055	-0.0538171271	-0.14952
O	 1.4423042777	 2.70313321	-1.2865375862	-0.247257
C	 2.5165876844	 3.6378272783	-1.3103251072	-0.218389
C	 2.6955942061	 4.0921707668	-2.6900679708	 0.306971
C	 2.8727331761	 4.4636398707	-3.8168616071	-0.393204
C	 2.2897521187	 4.7697082904	-0.3961459108	 0.339043
C	 2.1010416387	 5.6724710036	 0.3730749902	-0.45961
H	-0.4530925334	 1.2030292177	-1.1318581244	 0.103069
H	 1.1000753015	 2.7323502081	 0.7727002666	 0.140004
H	 2.193645412	 1.4512044206	 0.2096304723	 0.125646
H	 3.4422921031	 3.1261886792	-0.9917843625	 0.130104
H	 3.0205832823	 4.7947951521	-4.8154001075	 0.207119
H	 1.9357029262	 6.4806175226	 1.0428933823	 0.211552
51.7417	62.3234	104.5199	110.9696	126.0393	219.7188	239.7531	332.6638	357.7506	450.3375	552.2413	556.5603	638.4308	643.6431	653.2991	683.0654	689.827	746.2002	894.9415	1002.785	1032.725	1078.3407	1114.6346	1134.776	1236.2097	1316.5907	1326.8701	1369.5487	1412.656	1481.0124	1845.2374	2237.2792	2253.4769	2907.5617	2944.6548	2980.0845	3018.6858	3499.5282	3502.8772
O=CCOC(C#C)C#C	O=CCOC(C#C)C#C	
InChI=1S/C7H6O2/c1-3-7(4-2)9-6-5-8/h1-2,5,7H,6H2	InChI=1S/C7H6O2/c1-3-7(4-2)9-6-5-8/h1-2,5,7H,6H2
