22
gdb 108044	3.57771	1.31485	1.18865	1.608	84.81	-0.2021	0.0748	0.2769	1151.3802	0.195798	-367.157047	-367.149051	-367.148107	-367.189426	32.187	
C	-0.0886453066	 1.5515538156	 0.0345433081	-0.381345
C	-0.0114544404	 0.0191022898	 0.0143512873	-0.299726
C	 0.7123706694	-0.5185895396	-1.2019284198	 0.372986
C	 0.0323572674	-0.3892274788	-2.5989810893	-0.284795
C	 0.5708276924	-1.7845966828	-3.0103515821	-0.046735
C	 2.0815284599	-1.7693913378	-3.3123767162	-0.170211
N	 2.4413645967	-1.7321743561	-1.8531049999	-0.146719
C	 2.2464787119	-0.3432526289	-1.3144462598	-0.221581
C	 0.9805040403	-2.0295159427	-1.5232229077	-0.067779
H	 0.910977238	 1.9995848326	 0.037901337	 0.119749
H	-0.6197861635	 1.9340984612	-0.8436576142	 0.119247
H	-0.6157650511	 1.9095546458	 0.9239769638	 0.113679
H	 0.4961216289	-0.3344408794	 0.9218902527	 0.095255
H	-1.0267002125	-0.398628606	 0.0475480842	 0.091885
H	-1.0576101206	-0.4106950121	-2.4931059865	 0.097894
H	 0.3048376425	 0.4659193175	-3.2268892934	 0.089682
H	-0.0780651332	-2.4298339317	-3.6038832523	 0.065551
H	 2.4338042846	-2.7104741524	-3.7478200026	 0.103976
H	 2.4805581411	-0.9388730078	-3.9069175564	 0.093529
H	 2.6310221608	 0.4564631154	-1.9583013565	 0.092873
H	 2.7289160483	-0.2614607259	-0.3332828986	 0.099034
H	 0.7322903258	-2.8875878157	-0.8979623477	 0.063549
81.7966	146.7686	203.8648	281.5098	295.109	363.2511	384.9543	447.447	592.4888	621.9644	726.1234	783.4986	808.4332	813.0661	873.9945	894.33	907.5184	937.111	944.9862	970.5275	974.7356	989.2893	1020.3458	1041.0734	1068.7647	1106.7017	1151.5999	1155.9765	1179.3172	1198.9574	1207.0439	1212.6722	1233.9326	1244.5852	1265.274	1300.2285	1318.8722	1324.9435	1345.2118	1371.5634	1405.7923	1479.05	1483.6265	1492.6388	1499.3608	1504.8474	1509.5046	3008.2223	3016.0296	3024.8398	3031.2702	3033.2561	3040.3861	3065.257	3073.4039	3081.9818	3093.361	3098.7274	3104.9998	3109.0097
CCC12CC3CN(C1)C23	CC[C@@]12C[C@H]3CN(C1)[C@@H]23	
InChI=1S/C8H13N/c1-2-8-3-6-4-9(5-8)7(6)8/h6-7H,2-5H2,1H3	InChI=1S/C8H13N/c1-2-8-3-6-4-9(5-8)7(6)8/h6-7H,2-5H2,1H3/t6-,7+,8+/m0/s1
