15
gdb 125747	1.9667	1.90127	0.97847	1.633	74.8	-0.2705	-0.0404	0.2301	1150.0415	0.111835	-416.841729	-416.833019	-416.832075	-416.875646	30.382	
C	-0.0305805442	 1.4813030361	 0.0380630366	-0.50082
C	-0.0680325195	-0.0099411281	 0.0528993764	 0.328636
N	-0.2553031586	-0.6938019075	-1.0447157504	-0.195788
O	-0.2334187886	-2.0462372926	-0.6668576052	-0.207812
C	-0.0335199896	-2.1458725916	 0.6477714796	 0.372219
C	 0.0224904659	-3.5026954309	 1.2465309318	-0.499881
C	 0.0821101099	-0.887836726	 1.1801165877	-0.106118
C	 0.2996429272	-0.5407722171	 2.5320510489	 0.19477
N	 0.4778629533	-0.2475061655	 3.6386499309	-0.346375
H	 0.9286584087	 1.8475591671	 0.4168835523	 0.154361
H	-0.1750216942	 1.8479856104	-0.9792171476	 0.158068
H	-0.8143373706	 1.8939625201	 0.6809283771	 0.154384
H	 0.832075662	-4.0879404428	 0.7992176685	 0.164257
H	 0.1901967955	-3.4300742275	 2.3222160818	 0.165843
H	-0.9134995672	-4.041401404	 1.0682930116	 0.164256
80.5958	113.1874	122.9803	145.0028	208.9973	248.2669	343.664	381.8854	535.3863	538.8258	576.2884	633.4893	640.8124	725.3888	776.1427	905.8171	1013.4563	1032.3436	1056.1049	1061.4548	1069.2135	1240.0337	1311.7554	1404.2914	1416.8278	1449.4292	1471.6201	1473.887	1478.2863	1478.4029	1554.4931	1644.8552	2346.4004	3048.1405	3048.8298	3107.618	3108.1728	3148.2484	3149.4791
CC1=NOC(C)=C1C#N	Cc1noc(C)c1C#N	
InChI=1S/C6H6N2O/c1-4-6(3-7)5(2)9-8-4/h1-2H3	InChI=1S/C6H6N2O/c1-4-6(3-7)5(2)9-8-4/h1-2H3
