21
gdb 65269	3.30371	1.08285	1.04432	1.0286	77.39	-0.252	0.0705	0.3225	1254.6038	0.182808	-424.210577	-424.201658	-424.200714	-424.245288	33.275	
C	-0.1262475609	 1.5113876843	-0.400489509	-0.470336
C	-0.0181334087	 0.0198006796	-0.1568765635	 0.402563
C	 1.2609413711	-0.6525150848	-0.444025076	-0.232198
O	 0.8939735989	-0.3320787037	 0.898878879	-0.281177
C	-1.288424626	-0.8186238287	-0.165541632	-0.04869
C	-2.4064559141	-0.3328527937	 0.8030980845	-0.250406
C	-3.5518625326	 0.0585442054	-0.1426742205	-0.078486
O	-3.404570437	-0.7898554519	-1.271056703	-0.241126
C	-2.0145978166	-0.8585568046	-1.5403246031	-0.106286
H	 0.8594142647	 1.9738121328	-0.3114678822	 0.130382
H	-0.5214219431	 1.7310470968	-1.3969419599	 0.125752
H	-0.7857060482	 1.9859666717	 0.3330383131	 0.128293
H	 1.2739286546	-1.7153773712	-0.6842601705	 0.10878
H	 2.0929437022	-0.0794377018	-0.8520109956	 0.109919
H	-0.9886978262	-1.8300905254	 0.1182183408	 0.085867
H	-2.7174099717	-1.1542438631	 1.4527457378	 0.112726
H	-2.086601455	 0.4897828417	 1.4466576236	 0.109789
H	-4.5492425943	-0.1051597502	 0.272949774	 0.109614
H	-3.4715457422	 1.1178273239	-0.4402396302	 0.086163
H	-1.7041880394	-0.0124017797	-2.1740247926	 0.089092
H	-1.8266378953	-1.7807102476	-2.0961475849	 0.109762
37.3172	50.7025	178.5494	201.2973	269.0599	279.0021	327.0074	375.7365	434.902	498.4485	621.6949	655.5261	738.5691	817.5905	862.907	883.8565	921.6886	937.0457	962.4544	983.9238	1008.4287	1030.4773	1058.348	1099.3997	1112.9975	1124.8543	1136.3133	1165.9484	1203.0239	1230.3635	1262.7022	1288.3625	1302.2728	1312.0272	1325.8569	1363.6776	1393.6499	1411.8214	1430.7954	1477.9551	1495.7977	1500.243	1511.837	1524.9006	1532.2149	2960.7314	2977.5572	3043.8812	3066.0032	3075.4057	3076.878	3092.2768	3096.475	3107.2335	3117.6245	3126.8218	3161.1045
CC1(CO1)C1CCOC1	C[C@]1(CO1)[C@H]1CCOC1	
InChI=1S/C7H12O2/c1-7(5-9-7)6-2-3-8-4-6/h6H,2-5H2,1H3	InChI=1S/C7H12O2/c1-7(5-9-7)6-2-3-8-4-6/h6H,2-5H2,1H3/t6-,7-/m0/s1
