21
gdb 107181	3.1924	1.1849	1.02219	2.6228	83.8	-0.1906	0.0714	0.262	1279.2323	0.181169	-383.158133	-383.149228	-383.148284	-383.191481	34.655	
C	 0.196366992	 1.5499772363	-0.0628163622	-0.379136
C	-0.010942547	 0.0288450047	-0.0805973954	-0.303545
C	-1.4493789691	-0.3878249765	 0.0058057735	 0.329459
N	-1.9389179468	-1.7092464529	-0.4541838608	-0.360119
C	-2.5283260749	-0.4607998989	-1.01080586	-0.154526
C	-3.5558841651	 0.1080278422	 0.0167033889	-0.034039
C	-2.4898741191	 0.1695903618	 1.0481472078	-0.094396
N	-3.6129051856	-0.7715023907	 1.1959630543	-0.072015
C	-4.5910097133	-0.3243696543	 2.1840274897	-0.319725
H	 1.2588034213	 1.7978523658	-0.1447901743	 0.115322
H	-0.328770913	 2.0283145677	-0.8956326483	 0.119444
H	-0.1750504065	 1.9953217631	 0.8654428857	 0.12125
H	 0.4163180164	-0.3863996357	-1.002937505	 0.095256
H	 0.5481423711	-0.4278311682	 0.7478368552	 0.109407
H	-1.2629462151	-2.0296221297	-1.1502607201	 0.219818
H	-2.5113633056	-0.2502524182	-2.0729702379	 0.090595
H	-4.3511017203	 0.809466849	-0.2022289468	 0.089494
H	-2.2938035784	 0.9267794542	 1.7972457478	 0.087727
H	-4.7100881905	 0.7722562893	 2.2429754104	 0.090583
H	-5.5649225094	-0.7607059043	 1.9410152851	 0.124777
H	-4.289383921	-0.6883010747	 3.1712847425	 0.124368
81.0593	137.7763	172.2111	235.135	243.8503	263.9122	318.3144	393.0396	419.4181	480.0757	535.903	650.7373	759.8485	772.2545	799.3953	831.0169	845.6553	869.4858	887.4855	926.0253	940.9449	957.3443	1002.7565	1028.0437	1080.7075	1106.6535	1111.854	1127.887	1139.4693	1158.9439	1215.4231	1217.2679	1263.8813	1313.8725	1329.1831	1338.3671	1362.4774	1410.2829	1435.2229	1453.1068	1478.5383	1491.0118	1498.6769	1500.2233	1506.8212	2943.3714	3008.0295	3038.3096	3041.4782	3064.43	3103.8758	3107.8847	3109.6109	3182.1041	3188.3496	3198.7756	3446.2365
CCC12NC1C1C2N1C	CC[C@]12N[C@H]1[C@@H]1[C@H]2N1C	
InChI=1S/C7H12N2/c1-3-7-5(8-7)4-6(7)9(4)2/h4-6,8H,3H2,1-2H3	InChI=1S/C7H12N2/c1-3-7-5(8-7)4-6(7)9(4)2/h4-6,8H,3H2,1-2H3/t4-,5+,6-,7+,9?/m1/s1
