26
gdb 9419	5.36778	0.68248	0.64009	0.0608	89.83	-0.2945	0.0855	0.3799	1899.8713	0.24487	-315.49305	-315.481905	-315.480961	-315.529855	39.816	
C	 0.1330968652	 1.5685690448	 0.0933090242	-0.380008
C	 0.039577937	 0.0407278167	 0.062688334	-0.160474
C	-1.399905222	-0.4753292587	-0.0497655265	-0.172553
C	-1.4885601877	-2.0059318442	-0.0789895499	-0.176798
C	-2.9155792097	-2.5874239013	-0.0743154798	 0.044273
C	-3.6932042303	-2.2091133643	-1.3437190607	-0.389408
C	-2.8623678066	-4.1141628005	 0.1309706441	-0.164454
C	-4.2182413545	-4.7853068196	 0.3731097586	-0.391333
H	 1.1711435407	 1.9052401465	 0.1790332755	 0.109415
H	-0.2851824795	 2.0097393302	-0.8184343297	 0.112243
H	-0.4220189461	 1.9821292356	 0.9428261685	 0.112194
H	 0.6290313974	-0.3458117027	-0.7794639541	 0.093049
H	 0.5018839915	-0.3732396874	 0.968779735	 0.092575
H	-1.9870156241	-0.0936102463	 0.7978638189	 0.088629
H	-1.8587585383	-0.0503668282	-0.9514160607	 0.09448
H	-0.9506685255	-2.3845708449	-0.9607153175	 0.087118
H	-0.9496799575	-2.4012171365	 0.793114272	 0.085571
H	-3.4461928982	-2.1569473932	 0.7892785326	 0.064309
H	-4.7150032086	-2.5986095798	-1.3241865078	 0.112163
H	-3.7642361789	-1.1248925623	-1.4680597169	 0.113572
H	-3.1994801417	-2.6148085871	-2.2357260326	 0.108193
H	-2.3756736095	-4.5744391147	-0.7405196553	 0.089721
H	-2.208191207	-4.3253876631	 0.9867461696	 0.088869
H	-4.0931142981	-5.8525361242	 0.5823334348	 0.110157
H	-4.732318525	-4.3381645237	 1.2317915635	 0.11147
H	-4.8828444933	-4.6994035713	-0.4919228197	 0.117028
51.7321	64.6995	94.7664	113.8904	134.0203	207.3987	240.3075	248.2923	257.5779	293.7107	327.7155	412.2206	455.8045	503.3753	733.7417	772.8851	784.2462	829.3072	904.406	910.7688	915.5643	973.453	1002.2177	1016.482	1049.4658	1053.033	1073.9957	1097.1756	1166.1719	1177.5311	1202.2075	1246.6334	1272.3311	1299.1141	1317.3879	1325.5884	1333.4215	1372.0119	1380.9722	1385.9559	1398.9946	1411.5575	1413.9664	1415.647	1476.3651	1485.3973	1487.5004	1496.456	1499.0838	1499.3534	1500.0861	1507.9706	1512.0756	1513.9586	2981.4368	2995.6753	3004.7873	3009.6909	3015.9847	3025.481	3028.3841	3028.9306	3031.4318	3036.2035	3043.8954	3061.5377	3094.3564	3095.489	3096.3637	3099.4621	3103.9049	3112.6599
CCCCC(C)CC	CCCC[C@@H](C)CC	
InChI=1S/C8H18/c1-4-6-7-8(3)5-2/h8H,4-7H2,1-3H3	InChI=1S/C8H18/c1-4-6-7-8(3)5-2/h8H,4-7H2,1-3H3/t8-/m0/s1
