16
gdb 12208	2.71381	1.89602	1.67188	5.2055	64.97	-0.2427	0.0322	0.2749	862.8194	0.131133	-379.913393	-379.905327	-379.904383	-379.945699	29.793	
N	 0.4052066323	 1.093293691	-0.6591116195	-0.509678
C	 0.0692753468	-0.1684029637	-0.065719548	 0.041279
C	 0.1501820449	-0.4021255473	 1.4810214966	 0.09567
O	 0.0048682141	 0.8571242486	 2.1035943133	-0.428137
C	-1.172779765	-1.2045878124	 1.3923839295	-0.268262
C	-1.4542763537	-0.5612432549	-0.0064724687	-0.177905
C	-2.3637401709	 0.5719199768	 0.0407225797	 0.292023
N	-3.0975075806	 1.4648877635	 0.0818901232	-0.339394
H	 0.0881549662	 1.8476532842	-0.0566579656	 0.256425
H	 1.4105757102	 1.1891738962	-0.7567081235	 0.232867
H	 0.6019556696	-0.9694387788	-0.5858382992	 0.090966
H	 1.0296034961	-0.9382938885	 1.8622821045	 0.065192
H	-0.2833449039	 0.724751995	 3.0121697961	 0.291903
H	-1.0046896583	-2.280484423	 1.3046977091	 0.114941
H	-1.9117949756	-1.0161918396	 2.1731877377	 0.120192
H	-1.7872867922	-1.2434361371	-0.791778755	 0.121917
81.8138	138.368	217.0804	243.1939	264.594	291.6025	375.4603	396.0065	505.6299	553.9575	628.2006	732.1035	783.25	826.1795	868.1581	891.653	930.7077	1016.0428	1031.6306	1086.9692	1106.8951	1163.4259	1184.6252	1198.4969	1243.8096	1256.2492	1275.6964	1325.2175	1346.2154	1398.7445	1423.5983	1473.1536	1666.0321	2352.2326	3006.9704	3070.8195	3074.5892	3091.0405	3132.8656	3502.3238	3582.2967	3823.0377
NC1C(O)CC1C#N	N[C@H]1[C@@H](O)C[C@H]1C#N	
InChI=1S/C5H8N2O/c6-2-3-1-4(8)5(3)7/h3-5,8H,1,7H2	InChI=1S/C5H8N2O/c6-2-3-1-4(8)5(3)7/h3-5,8H,1,7H2/t3-,4-,5+/m0/s1
