16
gdb 27369	1.95183	1.85911	0.95936	8.3106	76.	-0.2181	-0.0094	0.2087	1175.3008	0.125597	-434.137809	-434.129359	-434.128415	-434.170884	31.588	
C	-0.0186503156	 1.4920939507	 0.0616813893	-0.488388
C	-0.0057025629	-0.0089926406	-0.0387479813	 0.387211
N	-0.0536029481	-0.5972620944	-1.1779875632	-0.341279
C	-0.0227239582	-2.0203698848	-1.2440864119	 0.373081
O	-0.0625975241	-2.5828070012	-2.3215014693	-0.374241
C	 0.0416682819	-2.7323913295	 0.0280917311	-0.310056
C	 0.0929577989	-2.0573851409	 1.2004603732	 0.413436
N	 0.2403146823	-2.6101127789	 2.4672775535	-0.590348
N	 0.056082706	-0.6783780712	 1.168762785	-0.387294
H	 0.8862636586	 1.8615212148	 0.558284816	 0.136479
H	-0.0679305708	 1.9089124657	-0.9428330459	 0.169759
H	-0.8816965182	 1.8408481187	 0.6400244917	 0.137386
H	 0.037916914	-3.8148953023	 0.0092808121	 0.097989
H	 0.1645605709	-3.6180085512	 2.4652680003	 0.26551
H	-0.3637281898	-2.2087626923	 3.1743264661	 0.252804
H	 0.234606075	-0.1627028425	 2.0162756735	 0.25795
98.2839	123.4874	172.4194	222.4899	289.1746	296.6143	354.3195	463.7478	505.7445	523.3822	585.1666	594.8863	618.9427	635.6908	730.3678	774.5697	853.7669	903.2037	968.5539	1012.778	1059.3686	1080.1952	1133.721	1175.4422	1249.6335	1304.9254	1397.7584	1413.6522	1471.2041	1484.8562	1515.2867	1641.7846	1664.5597	1721.6903	1772.8936	3034.2742	3089.856	3171.3397	3211.3802	3538.0425	3630.5306	3640.9302
CC1=NC(=O)C=C(N)N1	Cc1nc(=O)cc(N)[nH]1	
InChI=1S/C5H7N3O/c1-3-7-4(6)2-5(9)8-3/h2H,1H3,(H3,6,7,8,9)	InChI=1S/C5H7N3O/c1-3-7-4(6)2-5(9)8-3/h2H,1H3,(H3,6,7,8,9)
