21
gdb 39076	2.47674	1.68272	1.15825	0.1801	88.57	-0.2316	0.0162	0.2478	1118.6366	0.184927	-349.944842	-349.936953	-349.936009	-349.976851	32.126	
C	-0.0758689784	 1.5991427772	 0.2032474284	-0.325634
C	 1.2671284034	 0.93125403	 0.0272382478	 0.009284
C	 2.2237735496	 0.8813409044	 1.2076623444	-0.261637
C	 3.2145506026	-0.2623753606	 1.2394700264	-0.048284
C	 3.0108023931	-1.5611693745	 1.0057975392	-0.046575
C	 1.7215009102	-2.2586187976	 0.6061816342	-0.301389
C	 0.5014722171	-1.8809411694	 1.4202667415	-0.042954
C	-0.277484383	-0.8332240261	 1.1529990921	-0.084676
C	-0.0024429556	 0.1024139687	 0.0233756316	-0.051019
H	-0.3146516563	 1.9742650065	 1.1945722798	 0.10809
H	-0.4781657181	 2.1981987144	-0.6062605001	 0.106964
H	 1.752484779	 1.0628892663	-0.9360345123	 0.080192
H	 2.7839160116	 1.8239246384	 1.2327642278	 0.097342
H	 1.6339492962	 0.8658638144	 2.1339630537	 0.113842
H	 4.2271116416	 0.0249520717	 1.5179616983	 0.080421
H	 3.8740236243	-2.2178793651	 1.0966815523	 0.082014
H	 1.5234970433	-2.0659149407	-0.4559229405	 0.119744
H	 1.8781943817	-3.3391287087	 0.687915595	 0.098712
H	 0.2702960475	-2.5164297732	 2.2718657848	 0.088292
H	-1.147311151	-0.6344373942	 1.7761005901	 0.084351
H	-0.3165138188	-0.2590568818	-0.9548266445	 0.09292
117.7814	173.569	227.9008	260.54	288.5411	381.0757	393.8867	508.4367	556.2334	627.7285	662.9768	712.9761	758.2161	808.7076	819.592	843.9067	880.1412	918.0865	944.0935	989.3235	997.9036	1002.7426	1021.4401	1039.0143	1067.638	1070.0212	1118.4051	1131.5285	1150.8623	1213.7454	1221.5198	1255.1623	1262.1308	1281.6001	1333.521	1346.2536	1365.7074	1407.5156	1413.6907	1429.0826	1469.2417	1480.4883	1490.4896	1709.587	1719.5312	3015.7357	3022.39	3048.3858	3065.9067	3105.586	3121.8321	3123.974	3134.5852	3142.1827	3150.0681	3162.5901	3207.7757
C1C2CC=CCC=CC12	C1[C@H]2CC=CCC=C[C@@H]12	
InChI=1S/C9H12/c1-2-4-6-9-7-8(9)5-3-1/h1,3-4,6,8-9H,2,5,7H2/b3-1-,6-4-	InChI=1S/C9H12/c1-2-4-6-9-7-8(9)5-3-1/h1,3-4,6,8-9H,2,5,7H2/b3-1-,6-4-/t8-,9+/m1/s1
