15
gdb 15846	2.59672	2.07431	1.32842	5.1476	66.17	-0.2674	-0.0454	0.222	919.1758	0.117742	-362.687475	-362.67964	-362.678696	-362.720081	28.189	
C	-0.3087128886	 1.5000612096	-0.0074119979	-0.400524
C	 0.0160377459	 0.0117926915	-0.031663928	-0.013794
C	 1.2618294375	-0.3579492261	-0.8988300101	-0.352265
C	 2.0658283865	-0.5535517863	 0.388803056	 0.401753
O	 3.2211115062	-0.6239842606	 0.6633047576	-0.262078
C	 0.7603260304	-0.5276205524	 1.2519434767	-0.27926
C	 0.741268533	 0.2436198124	 2.4761892576	 0.292918
N	 0.7276113951	 0.8856409152	 3.4379008054	-0.325543
H	 0.5785687463	 2.1004236629	 0.2214818538	 0.135447
H	-0.6883179129	 1.8194489839	-0.9827498151	 0.125447
H	-1.0657777472	 1.7293877436	 0.7476043995	 0.14262
H	-0.8763401607	-0.5712408155	-0.2646984301	 0.096183
H	 1.1592331437	-1.295375477	-1.4549097008	 0.14234
H	 1.6432000509	 0.4095949342	-1.5769613549	 0.143955
H	 0.471727794	-1.5633332154	 1.4655776803	 0.152801
58.1732	127.6281	153.9313	239.1045	331.0111	359.8804	403.1629	422.2538	536.68	593.7206	693.1235	715.489	808.9294	882.5685	888.433	999.6565	1021.6778	1056.9399	1087.6356	1092.4283	1134.1454	1212.7841	1222.8793	1270.3752	1301.1924	1363.6174	1419.451	1439.911	1492.7735	1496.9675	1912.0527	2353.1542	3037.9221	3053.5398	3060.5682	3090.6709	3110.4979	3117.4615	3120.5268
CC1CC(=O)C1C#N	C[C@H]1CC(=O)[C@H]1C#N	
InChI=1S/C6H7NO/c1-4-2-6(8)5(4)3-7/h4-5H,2H2,1H3	InChI=1S/C6H7NO/c1-4-2-6(8)5(4)3-7/h4-5H,2H2,1H3/t4-,5-/m0/s1
