20
gdb 121297	4.39598	0.86775	0.75957	2.5079	76.79	-0.2431	0.0251	0.2682	1517.228	0.171422	-440.289961	-440.280821	-440.279877	-440.324937	32.814	
C	 0.0054660321	 1.5290986491	 0.1037731348	-0.384486
C	 0.0741422563	 0.0175154635	-0.0298404909	-0.044315
O	 0.6602322239	-0.5054419798	 1.1526174799	-0.253012
C	 0.7330075072	-1.9143824856	 1.2177232715	 0.075557
C	 1.9866223762	-2.4422487974	 0.5127279016	-0.094876
O	 2.1185525649	-3.8584518398	 0.6929873406	-0.22314
C	 1.7763447221	-4.3194587478	 1.9230456991	 0.134
N	 1.2164946863	-3.7160491366	 2.8809928448	-0.27333
C	 0.8042298441	-2.3281677725	 2.6871261512	-0.174462
H	 1.0075872444	 1.9502029103	 0.2239609383	 0.128274
H	-0.4519043638	 1.9693293532	-0.7872262908	 0.117196
H	-0.5904858046	 1.8088870681	 0.9769137126	 0.1297
H	-0.9339537828	-0.4065093931	-0.1652904109	 0.093366
H	 0.6638216731	-0.2594708414	-0.9176568156	 0.090527
H	-0.154942582	-2.3692564947	 0.7509348754	 0.079507
H	 1.9621329542	-2.2778873614	-0.5664631331	 0.11648
H	 2.8700668569	-1.9383004128	 0.9248088255	 0.119488
H	 2.0556805119	-5.3677160371	 2.0110776072	 0.124723
H	 1.5046182897	-1.6623337886	 3.2074568575	 0.123714
H	-0.1694658	-2.1869943755	 3.1671990912	 0.11509
45.6646	76.06	107.9432	164.9466	226.1045	250.2507	321.4259	354.9124	458.6055	483.949	508.0941	567.998	801.0497	819.0825	889.9757	902.1806	932.5446	961.3061	981.7955	999.4744	1058.9797	1122.8488	1127.8266	1149.3963	1161.9446	1173.2758	1187.1767	1223.6667	1284.1319	1298.1944	1328.1967	1345.9744	1371.9345	1397.4734	1404.7011	1415.5249	1441.5451	1482.8155	1485.8109	1499.5105	1512.2178	1529.122	1740.098	2967.721	2982.0911	2997.7175	3029.0065	3036.537	3045.9886	3073.2568	3111.2734	3120.819	3123.6363	3161.7888
CCOC1COC=NC1	CCO[C@H]1COC=NC1	
InChI=1S/C6H11NO2/c1-2-9-6-3-7-5-8-4-6/h5-6H,2-4H2,1H3	InChI=1S/C6H11NO2/c1-2-9-6-3-7-5-8-4-6/h5-6H,2-4H2,1H3/t6-/m1/s1
