19
gdb 83957	2.33215	1.66904	1.45152	2.3746	69.64	-0.2423	0.0622	0.3045	1000.4303	0.161192	-460.13793	-460.130197	-460.129252	-460.169583	31.366	
O	 0.0826076315	 1.4065748791	 0.046775859	-0.446174
C	-0.0003793759	 0.0126762108	-0.0016402742	 0.159423
C	-1.4032685394	-0.6968048497	-0.0754879739	-0.089934
C	-2.319958457	 0.1509568186	-0.9695076011	-0.247762
C	-1.7153029436	 0.2400574093	-2.386994185	-0.08402
O	-0.2786394786	 0.1967550884	-2.3834838555	-0.297536
C	 0.2679774141	-0.6577717996	-1.3760884399	 0.020558
C	-0.7101596935	-1.7858857564	-0.9313965147	 0.095187
O	-0.0894350412	-2.732099054	-0.0830897477	-0.442054
H	 0.018682395	 1.7048879547	-0.871320431	 0.28711
H	 0.6105354301	-0.4090488308	 0.7964308231	 0.098964
H	-1.8805148589	-1.0149998536	 0.8528631495	 0.076015
H	-3.3229263007	-0.2836485875	-1.0357780367	 0.10228
H	-2.4169832007	 1.1453790953	-0.5232215215	 0.120707
H	-2.0917510082	-0.582184007	-3.0090328225	 0.108033
H	-1.9852352091	 1.1743178836	-2.886903811	 0.112818
H	 1.2840269751	-0.9135421405	-1.6889449922	 0.072932
H	-1.3028436786	-2.2782090208	-1.7122113876	 0.068472
H	 0.5094933195	-3.26542209	-0.6163789872	 0.284982
182.981	223.3849	250.7964	279.5406	299.468	316.4368	387.5265	459.4486	502.8949	556.5308	601.6926	635.6659	777.1622	814.4912	845.4101	891.4437	928.2438	950.3583	968.7548	1021.0634	1052.0638	1066.0953	1074.3247	1136.0461	1150.1636	1157.5245	1198.2251	1220.6233	1239.3616	1254.9215	1276.835	1302.952	1309.4344	1329.1196	1349.0564	1363.5518	1406.063	1428.352	1433.7726	1486.9487	1525.4499	3009.3593	3028.852	3046.5245	3074.1023	3081.2511	3096.5144	3098.18	3118.4489	3739.7813	3807.8663
OC1C2CCOC1C2O	O[C@H]1[C@H]2CCO[C@@H]1[C@H]2O	
InChI=1S/C6H10O3/c7-4-3-1-2-9-6(4)5(3)8/h3-8H,1-2H2	InChI=1S/C6H10O3/c7-4-3-1-2-9-6(4)5(3)8/h3-8H,1-2H2/t3-,4-,5-,6+/m0/s1
