17
gdb 32940	6.08798	0.83583	0.74472	1.2917	72.63	-0.2124	0.028	0.2404	1515.0328	0.136143	-455.174742	-455.16582	-455.164876	-455.209002	31.888	
C	 0.115024993	 1.4974005163	-0.1419666877	-0.391994
C	 0.0160192103	-0.0109120303	-0.0325505676	-0.040269
O	 0.7084126174	-0.5724966906	-1.1657006979	-0.260832
C	 0.7145173742	-1.8952123804	-1.2206009347	 0.49685
N	 0.1873966171	-2.7502937512	-0.4016347445	-0.38822
C	 0.5173778838	-3.979499109	-0.9744456431	-0.124487
C	 1.2264862961	-3.8006554901	-2.1082006559	 0.267836
N	 1.7859612958	-4.6655454441	-3.0370701578	-0.602466
O	 1.3611010903	-2.4075888903	-2.2779748147	-0.21918
H	 1.1593123657	 1.8215687828	-0.131430836	 0.13248
H	-0.3476305762	 1.8526813426	-1.0668737324	 0.132473
H	-0.4002557269	 1.962218627	 0.7035970534	 0.124738
H	 0.4778581631	-0.3895172071	 0.8852532667	 0.126418
H	-1.0221636001	-0.358703678	-0.0465732566	 0.126458
H	 0.219773269	-4.9145197488	-0.5274507155	 0.122705
H	 2.7952785383	-4.578067942	-3.1006416519	 0.248748
H	 1.397534649	-4.5508777668	-3.9678772836	 0.248743
57.8655	89.7062	143.2614	175.3343	219.8647	256.4419	336.9606	350.4091	382.5476	524.6013	620.0426	698.3834	756.0337	765.2196	772.6205	810.8754	868.7888	901.6079	955.5812	1018.8126	1083.9388	1128.4482	1166.1823	1184.5926	1201.8862	1216.4013	1284.816	1292.7774	1376.8724	1411.2192	1443.1338	1484.2817	1497.8476	1521.1404	1634.0572	1655.7337	1713.2141	3047.076	3048.2029	3086.3426	3123.5437	3127.906	3268.5875	3495.5761	3561.1415
CCOC1=NC=C(N)O1	CCOc1ncc(N)o1	
InChI=1S/C5H8N2O2/c1-2-8-5-7-3-4(6)9-5/h3H,2,6H2,1H3	InChI=1S/C5H8N2O2/c1-2-8-5-7-3-4(6)9-5/h3H,2,6H2,1H3
