17
gdb 10324	2.21246	1.8013	1.20581	2.1347	66.49	-0.2314	-0.0452	0.1861	1048.6978	0.138813	-401.014914	-401.005536	-401.004592	-401.049698	32.073	
C	-0.0299349881	 1.5097897122	-1.1198098156	-0.321633
N	 0.137848623	 0.2471385514	-0.4150118667	-0.295991
C	 1.1884929006	-0.5999816249	-0.9111509064	-0.152524
C	 1.9263423334	-1.2924677979	 0.2345611989	 0.149108
O	 1.7345259715	-1.0261344972	 1.3926773531	-0.248331
C	 0.7516358868	-1.7085403459	-1.9013488647	 0.361398
C	-0.7272963135	-1.9762820433	-2.0396134098	-0.464582
O	 1.6031410999	-2.3334140736	-2.4893436288	-0.300908
H	 0.8911264623	 2.1156468756	-1.1793473271	 0.104336
H	-0.3717097406	 1.3302149761	-2.1457044941	 0.121612
H	-0.7982077654	 2.1041705184	-0.6180611112	 0.128352
H	 0.2847599844	 0.3905094564	 0.5794646237	 0.239855
H	 1.9891648472	-0.0550385066	-1.4486478053	 0.114744
H	 2.6568751305	-2.0563693096	-0.0926748893	 0.123436
H	-1.2340175154	-1.1007139522	-2.458476973	 0.149371
H	-0.8800870181	-2.8408971857	-2.6863817573	 0.138672
H	-1.1756756283	-2.1385108931	-1.0547721761	 0.153086
51.7442	83.432	127.9195	138.7955	189.2336	212.5392	253.1977	316.6646	358.9681	498.4324	503.4421	583.4399	701.3194	759.4842	771.8736	882.5933	951.3157	993.2429	1050.4189	1084.914	1146.9311	1169.0795	1181.5817	1233.335	1255.4514	1322.4869	1383.1618	1394.4527	1445.7068	1461.7687	1466.0936	1485.1483	1497.9206	1518.522	1794.7519	1828.8574	2919.2753	2954.1217	2965.6721	3048.455	3053.0428	3109.5428	3110.1578	3158.2932	3515.2516
CNC(C=O)C(C)=O	CN[C@@H](C=O)C(=O)C	
InChI=1S/C5H9NO2/c1-4(8)5(3-7)6-2/h3,5-6H,1-2H3	InChI=1S/C5H9NO2/c1-4(8)5(3-7)6-2/h3,5-6H,1-2H3/t5-/m0/s1
