22
gdb 13500	3.00175	1.54994	1.15578	1.7994	77.55	-0.2394	0.074	0.3134	1124.1048	0.199071	-350.197491	-350.188124	-350.18718	-350.231473	34.554	
C	-0.6947936746	 1.4894428336	 0.6561534394	-0.390322
C	-0.2680508583	 0.0766761787	 0.2275405586	 0.013621
C	 0.4537573852	 0.1223566549	-1.1270841077	-0.395159
C	 0.6049577513	-0.5634612424	 1.3071779449	-0.014393
C	 0.006264763	-0.7969113092	 2.7103075003	-0.101294
O	 0.4409801375	-2.1690543088	 2.7231119229	-0.292019
C	 0.8830358345	-2.0996178679	 1.3435545062	 0.129142
C	 0.0824960683	-3.0462983497	 0.4651108386	-0.402883
H	 0.1789431436	 2.1390777231	 0.7868875893	 0.112774
H	-1.3396249453	 1.9498361548	-0.0994601503	 0.112167
H	-1.2463494468	 1.4778405389	 1.6017957135	 0.116016
H	-1.1792363361	-0.5260800415	 0.1130667556	 0.073142
H	 1.3594628022	 0.7374089159	-1.0628661791	 0.112803
H	 0.7522346245	-0.8733745396	-1.467569939	 0.116677
H	-0.1885815587	 0.5595619558	-1.8985442818	 0.112345
H	 1.5466197227	-0.0067350337	 1.3700289773	 0.072781
H	 0.4373676608	-0.2182008164	 3.5355894655	 0.0994
H	-1.0896023384	-0.7164120018	 2.7608044312	 0.091226
H	 1.9495913675	-2.3522289672	 1.2736574768	 0.072829
H	-0.98504773	-2.8091112579	 0.4781559986	 0.119548
H	 0.4343206374	-3.0271695349	-0.5713736519	 0.115244
H	 0.2026458099	-4.0667676347	 0.8426460811	 0.126355
56.8247	105.9571	164.6823	216.6012	231.1217	241.8937	255.2327	319.1284	353.502	417.0444	450.0506	510.0456	735.1431	773.6125	881.9074	883.0541	929.5532	938.8962	963.607	977.6682	1016.2929	1039.6721	1054.431	1091.9926	1132.6289	1156.2412	1165.7989	1188.9155	1217.6863	1269.6435	1285.1366	1312.6552	1348.739	1361.0296	1385.2085	1398.8771	1403.874	1408.9034	1423.6474	1482.8688	1488.3441	1490.7542	1496.3614	1505.3126	1510.9731	1527.5896	2990.0388	3004.8855	3012.8337	3025.1199	3029.1212	3037.673	3038.7484	3055.5624	3089.6807	3096.0186	3100.6844	3104.791	3110.1621	3117.5611
CC(C)C1COC1C	CC(C)[C@H]1CO[C@H]1C	
InChI=1S/C7H14O/c1-5(2)7-4-8-6(7)3/h5-7H,4H2,1-3H3	InChI=1S/C7H14O/c1-5(2)7-4-8-6(7)3/h5-7H,4H2,1-3H3/t6-,7+/m0/s1
