21
gdb 117990	2.19697	1.05044	0.93746	4.4607	79.64	-0.2411	0.024	0.2651	1394.3087	0.181026	-420.398762	-420.388198	-420.387254	-420.434811	37.871	
C	 0.4517215439	 1.20078006	-0.6135499032	-0.401902
C	 0.3525139807	-0.2495856257	-0.0879941819	-0.119905
C	 1.1699418376	-1.1429945149	-0.9307039131	 0.290051
N	 1.8183672113	-1.8252787577	-1.6006936983	-0.323408
N	 0.7020670451	-0.4597618823	 1.3223981255	-0.074493
C	 2.0310087399	 0.0217234298	 1.6880385122	-0.346781
C	-0.3585223586	-0.0671280265	 2.2572845289	-0.175616
C	-1.4300336233	-1.158099411	 2.3471741663	-0.051905
O	-0.8572470619	-2.4022395401	 2.6766269752	-0.416048
H	 1.482675278	 1.5602705369	-0.5993079011	 0.142297
H	 0.0889137314	 1.2505540316	-1.6433531066	 0.142276
H	-0.161424661	 1.8667644164	-0.0009351534	 0.131245
H	-0.684607021	-0.5816613696	-0.2087398888	 0.13317
H	 2.1168984821	 1.1201013413	 1.7145653839	 0.107675
H	 2.2875974549	-0.3616149826	 2.6789981856	 0.134819
H	 2.7683386676	-0.3644325233	 0.9781678032	 0.146222
H	 0.1046886506	 0.0333774297	 3.2429898393	 0.11673
H	-0.8152691073	 0.9072480982	 2.0141631573	 0.088684
H	-2.1451753668	-0.8994378257	 3.1356937507	 0.109463
H	-2.0045973627	-1.2152551869	 1.4056161036	 0.084215
H	-0.0559954907	-2.4612239678	 2.1375676046	 0.283211
52.0564	63.568	127.006	165.3464	196.9767	215.6318	240.9862	264.1479	280.8693	377.9558	388.9127	445.5245	495.6065	539.8421	572.1884	595.1369	761.1101	835.0239	883.1011	922.5623	985.5193	1044.9498	1069.1814	1081.9129	1106.6488	1125.3794	1157.5735	1195.5711	1216.6122	1252.5195	1308.5584	1330.5489	1374.8149	1385.1877	1397.1445	1401.8708	1439.6861	1456.4234	1485.6332	1488.0055	1494.8136	1499.5488	1514.5191	1516.0735	2359.7674	2944.0544	2964.0737	2974.2582	3054.7393	3055.7545	3066.3611	3077.051	3087.2956	3118.8711	3129.37	3140.2013	3737.3397
CC(C#N)N(C)CCO	C[C@@H](C#N)N(C)CCO	
InChI=1S/C6H12N2O/c1-6(5-7)8(2)3-4-9/h6,9H,3-4H2,1-2H3	InChI=1S/C6H12N2O/c1-6(5-7)8(2)3-4-9/h6,9H,3-4H2,1-2H3/t6-/m0/s1
