19
gdb 73641	2.41701	1.61189	1.38824	2.9528	74.87	-0.2364	-0.0221	0.2143	1032.505	0.159233	-423.045004	-423.036731	-423.035787	-423.078064	31.442	
C	-0.2411221946	 1.4790203358	 0.0492880452	-0.47693
C	 0.0329005431	-0.0164196313	-0.0071653571	 0.174492
C	-1.2404851547	-0.8894290423	-0.1170363219	-0.131006
O	-0.9422299693	-2.1259983752	 0.5112866964	-0.251022
C	-0.1223671206	-1.8188031921	 1.6340154716	-0.098972
C	 0.8444176634	-0.7471588493	 1.1337872628	-0.0861
C	 1.8942041606	-1.2417690412	 0.0913230488	-0.362156
C	 1.1406739647	-0.4522609038	-0.9858498603	 0.385427
O	 1.3505790187	-0.1986691606	-2.1371622831	-0.305061
H	 0.6808678005	 2.0506810122	 0.1924548185	 0.123677
H	-0.6956867935	 1.8196521002	-0.8868097268	 0.139464
H	-0.924762155	 1.7231443056	 0.869521628	 0.11925
H	-2.0711515975	-0.3780059212	 0.3982305124	 0.090687
H	-1.5429254672	-1.0949390742	-1.1473159025	 0.126993
H	-0.7315400044	-1.4331723727	 2.4683811956	 0.090894
H	 0.3616905863	-2.745095166	 1.9557656971	 0.113587
H	 1.2457807964	-0.1113709073	 1.9234226831	 0.079097
H	 2.9273458015	-0.9183798863	 0.2460397959	 0.12975
H	 1.8882958318	-2.3225079002	-0.0850010637	 0.137928
53.2104	171.5534	177.8231	219.0165	269.5042	285.9855	364.7019	478.9701	495.5483	574.8149	630.6476	711.8716	732.8067	790.3014	855.7137	897.9254	943.7345	952.9333	989.6122	1017.7121	1048.0965	1058.9192	1093.7956	1138.836	1157.8546	1167.6673	1198.6849	1217.1871	1232.0111	1267.3356	1284.2078	1321.5616	1354.5136	1392.5	1410.2086	1429.549	1488.4381	1492.3034	1502.9436	1515.5251	1884.7514	2959.1634	2969.5632	3031.1067	3053.2423	3089.9202	3094.6473	3100.799	3103.9148	3105.6339	3115.9551
CC12COCC1CC2=O	C[C@]12COC[C@H]1CC2=O	
InChI=1S/C7H10O2/c1-7-4-9-3-5(7)2-6(7)8/h5H,2-4H2,1H3	InChI=1S/C7H10O2/c1-7-4-9-3-5(7)2-6(7)8/h5H,2-4H2,1H3/t5-,7+/m1/s1
