20
gdb 97421	3.99498	0.78757	0.70528	2.7652	80.48	-0.2528	0.0197	0.2725	1646.0168	0.168596	-440.259788	-440.249861	-440.248917	-440.296124	34.666	
C	-0.1795810659	 1.344599482	-0.1063019181	-0.315862
N	 0.1415113062	-0.0495561375	 0.1155511977	-0.205877
C	 0.7120740144	-0.6680436853	-0.8161504817	 0.125478
O	 1.0749432629	-1.9621219831	-0.6635054083	-0.203901
C	 1.5677470327	-2.6414603706	-1.8009516507	 0.051127
C	 2.4482715219	-3.8472841689	-1.4474474665	-0.098839
O	 1.5691280703	-4.7507146413	-2.1444094872	-0.289899
C	 0.6261111304	-3.6929157817	-2.455604357	 0.120391
C	-0.7329616733	-3.9098826127	-1.8231476116	-0.396952
H	 0.107675489	 1.719325818	-1.1026326977	 0.096176
H	-1.2571400356	 1.4974500961	 0.0214235696	 0.129889
H	 0.3202761528	 1.9612775137	 0.6492489626	 0.130663
H	 0.9776366322	-0.2366029154	-1.7947959502	 0.075655
H	 2.0113088697	-1.9310973644	-2.5057153094	 0.092134
H	 3.4622185403	-3.847115536	-1.8633620289	 0.106577
H	 2.493113893	-4.0482581814	-0.3706052143	 0.120686
H	 0.5339457155	-3.5760013862	-3.5438483528	 0.076274
H	-0.6568865978	-3.9573916256	-0.7347451898	 0.139476
H	-1.4155644997	-3.0947192523	-2.086137307	 0.11863
H	-1.160542709	-4.8474509272	-2.1905927587	 0.128176
31.6713	59.2113	91.4131	167.7997	198.9627	217.2503	239.3213	309.2067	333.53	387.1007	410.1434	510.5031	622.4114	765.0069	838.2972	881.7221	919.515	980.767	1009.7054	1021.6439	1053.6528	1073.1972	1103.0806	1138.0569	1142.0372	1150.5318	1160.1495	1189.449	1244.3133	1254.7565	1289.3751	1349.5749	1376.5709	1386.8623	1407.5227	1429.4726	1451.2381	1480.4397	1486.0787	1489.5795	1505.757	1517.815	1781.4011	2966.5833	2985.2083	3009.5154	3025.3444	3042.9447	3055.2561	3060.006	3076.45	3079.9271	3111.1689	3136.7452
CN=COC1COC1C	CN=CO[C@H]1CO[C@H]1C	
InChI=1S/C6H11NO2/c1-5-6(3-8-5)9-4-7-2/h4-6H,3H2,1-2H3	InChI=1S/C6H11NO2/c1-5-6(3-8-5)9-4-7-2/h4-6H,3H2,1-2H3/t5-,6-/m0/s1
