21
gdb 116484	2.49846	1.37208	1.10001	1.9932	81.13	-0.239	0.0038	0.2429	1209.8681	0.183118	-424.209273	-424.200289	-424.199344	-424.24348	33.488	
C	-0.3058714935	 1.6029238609	-0.0684840922	-0.232224
O	-0.1463353037	 0.2453207243	-0.4084130349	-0.238063
C	-1.2476785766	-0.5833910495	-0.0528588597	 0.086522
C	-1.0080773413	-1.9360808631	-0.7314340852	-0.097567
O	 0.1788744502	-2.6004904203	-0.3652120819	-0.232281
C	 0.1659265571	-3.223820488	 0.9016986707	-0.064365
C	 0.3770418111	-2.2601466635	 2.0736018332	-0.254353
C	-0.7735267008	-1.3222360466	 2.3453079784	-0.050467
C	-1.4799368885	-0.6329281583	 1.4483368609	-0.09603
H	 0.561587473	 2.1359939152	-0.4657202466	 0.126074
H	-1.2183404857	 2.030958364	-0.5155064874	 0.096588
H	-0.3486230919	 1.7585933045	 1.0187632046	 0.107504
H	-2.165140872	-0.1761613903	-0.5159395815	 0.058701
H	-1.8887089236	-2.574979777	-0.5532971997	 0.083383
H	-0.9211007018	-1.7549525224	-1.8073704393	 0.110283
H	-0.7733195001	-3.783673081	 1.0442410476	 0.085023
H	 0.9885558301	-3.9469169553	 0.8808229041	 0.102935
H	 0.5736221099	-2.859438092	 2.9703896921	 0.097856
H	 1.290196194	-1.6818322582	 1.8791331546	 0.132411
H	-1.0403176869	-1.1972925716	 3.3932959998	 0.090772
H	-2.280074329	 0.0041972583	 1.8185426023	 0.087297
43.6994	107.9913	145.1596	211.8927	245.6059	272.2737	339.0494	369.0813	389.3914	464.6367	567.2968	609.6354	750.7231	764.8624	779.9223	852.1932	893.6231	953.3449	969.2723	1007.2264	1048.3042	1051.0622	1080.945	1109.0118	1137.1524	1174.9241	1182.7639	1216.7093	1232.9934	1258.0248	1309.7841	1337.7019	1361.7876	1369.1099	1385.0514	1391.0481	1428.7049	1433.3496	1462.0493	1473.5796	1478.1341	1486.6153	1494.8827	1512.3201	1721.6414	2932.9754	2968.5692	2968.8394	2977.2279	3021.9881	3027.6448	3063.7823	3066.4808	3080.6763	3111.1463	3130.0489	3155.5515
COC1COCCC=C1	CO[C@H]1COCCC=C1	
InChI=1S/C7H12O2/c1-8-7-4-2-3-5-9-6-7/h2,4,7H,3,5-6H2,1H3	InChI=1S/C7H12O2/c1-8-7-4-2-3-5-9-6-7/h2,4,7H,3,5-6H2,1H3/t7-/m1/s1
