16
gdb 77780	2.58856	1.36315	1.06268	2.9609	75.9	-0.2651	-0.0421	0.223	1135.527	0.123741	-400.757893	-400.749713	-400.748769	-400.790719	30.598	
C	-0.0056689361	 1.5636053446	 0.0261593342	-0.424913
C	 0.089543774	 0.0536448441	 0.0806879064	-0.06088
C	 1.3357293064	-0.7555643639	-0.2353543137	-0.234571
C	 2.5567039329	-0.0880788227	 0.3423155607	 0.428728
O	 3.6395803536	 0.1617664736	-0.0978572272	-0.300079
C	 1.958436202	-0.0254023506	 1.7708165473	-0.422535
C	 0.7098945666	-0.7328762298	 1.2046625146	 0.184638
C	 0.0327624722	-1.8042813795	 1.8576977962	 0.197775
N	-0.519148631	-2.6672305493	 2.3967694256	-0.339276
H	 0.8928525666	 2.061269102	 0.3968915247	 0.137314
H	-0.1573093396	 1.887539247	-1.008088603	 0.140304
H	-0.8577002763	 1.9145732117	 0.6167224002	 0.137953
H	-0.7925261483	-0.4452158887	-0.315036711	 0.126306
H	 1.3237336286	-1.5481191348	-0.9733874753	 0.134465
H	 2.5380558332	-0.6651448939	 2.4415346048	 0.157713
H	 1.8144704353	 0.9508680902	 2.2384230256	 0.137058
94.9188	148.6805	164.5233	192.7685	276.4832	346.5317	436.4524	460.4292	510.8694	554.2791	580.7027	603.1308	664.2482	734.0064	829.4845	899.2318	942.2687	966.7009	1014.6494	1031.6422	1092.3159	1103.1191	1116.4381	1130.4301	1210.9578	1234.9322	1247.2446	1321.3399	1420.2927	1441.9997	1465.2138	1494.8262	1504.7868	1895.7307	2348.7135	3046.7304	3073.5097	3109.9355	3126.335	3129.9216	3146.0808	3203.014
CC1C2C(=O)CC12C#N	C[C@H]1[C@H]2C(=O)C[C@@]12C#N	
InChI=1S/C7H7NO/c1-4-6-5(9)2-7(4,6)3-8/h4,6H,2H2,1H3	InChI=1S/C7H7NO/c1-4-6-5(9)2-7(4,6)3-8/h4,6H,2H2,1H3/t4-,6-,7+/m0/s1
