20
gdb 104137	3.57691	1.07423	1.03221	3.5737	76.6	-0.2565	0.0296	0.286	1254.763	0.170057	-440.299209	-440.289928	-440.288984	-440.3333	34.524	
C	-0.2042931625	 1.469162227	-0.0400898259	-0.25618
O	-0.1369108846	 0.0578100632	-0.0479815766	-0.290295
C	 0.6638311031	-0.5359172969	-1.0577029943	 0.372335
C	 0.1852110535	-0.1929168759	-2.4729948152	-0.444947
C	 2.1748013624	-0.2297781326	-0.8746674927	-0.130521
O	 2.8675320419	-1.408582881	-1.3029988871	-0.2388
C	 2.0323297057	-2.4961220629	-1.263131825	 0.41495
N	 2.3779801436	-3.6711549802	-1.5637879156	-0.544732
C	 0.6601714903	-2.0534987066	-0.8180924535	-0.34898
H	 0.7886529105	 1.9368551282	 0.0322334766	 0.10872
H	-0.7154180246	 1.8732777709	-0.9240364573	 0.114635
H	-0.778934868	 1.7458466403	 0.8468833951	 0.134781
H	 0.3058019601	 0.869862313	-2.7011951306	 0.118632
H	 0.7631138691	-0.7558204284	-3.2123241898	 0.13764
H	-0.8700745997	-0.4570578318	-2.5877739724	 0.129781
H	 2.541328802	 0.605609041	-1.4760893877	 0.113691
H	 2.3884662662	-0.0366349125	 0.1840695911	 0.11441
H	 3.3678808323	-3.6981015179	-1.8158000356	 0.220731
H	 0.5400237799	-2.2380779925	 0.2545914683	 0.140074
H	-0.1257506514	-2.5927466744	-1.3470681417	 0.134075
76.9821	94.2309	149.2179	179.2476	220.4147	284.1238	340.1327	347.7664	380.155	429.2349	504.0842	524.5187	607.5993	671.1837	791.0875	857.9128	895.5944	912.6467	926.5004	949.8519	986.1534	1021.2951	1089.8413	1101.1619	1117.9771	1175.9613	1180.2145	1207.1324	1222.7879	1248.3156	1272.3247	1297.1241	1318.1981	1392.293	1407.4388	1467.3213	1476.9695	1486.9023	1491.5975	1505.7265	1510.3619	1519.3513	1783.7584	2990.1713	3027.0267	3040.4123	3047.1447	3063.8479	3099.9121	3113.1487	3117.4345	3119.938	3136.0378	3468.6757
COC1(C)COC(=N)C1	CO[C@@]1(C)CO[C]([NH])C1	
InChI=1S/C6H11NO2/c1-6(8-2)3-5(7)9-4-6/h7H,3-4H2,1-2H3	InChI=1S/C6H11NO2/c1-6(8-2)3-5(7)9-4-6/h7H,3-4H2,1-2H3/t6-/m1/s1
