17
gdb 34764	2.11839	1.79394	1.19389	1.2059	83.05	-0.2399	0.0399	0.2798	1068.596	0.134406	-347.451707	-347.443347	-347.442403	-347.484453	32.565	
C	-0.3498521002	-1.170391543	 0.1300182082	-0.447856
C	-0.1538520822	 0.0155778726	 0.0897519353	 0.333935
C	 0.018816869	 1.4405826486	 0.0564395718	-0.20051
C	 0.4948162814	 2.25583802	 1.2416247428	-0.07399
C	 1.5496296078	 1.4746242747	 2.0328426419	-0.26421
C	 2.4790456105	 1.4931466704	 0.7576119577	-0.181724
C	 3.0814751214	 0.2700783093	 0.2601978698	 0.33788
C	 3.6242034186	-0.7240769749	-0.1433304787	-0.460392
C	 1.3412214237	 2.1793497266	-0.0232588389	-0.084216
H	-0.4952827619	-2.2216915108	 0.1531902002	 0.193903
H	-0.7497543682	 1.9576822057	-0.514573237	 0.115894
H	-0.0961967338	 3.0800867314	 1.6211719431	 0.096015
H	 1.9842875812	 2.0287824479	 2.8657471883	 0.109941
H	 1.2382161558	 0.485360181	 2.3738037751	 0.125061
H	 3.270585671	 2.2309773917	 0.9250981455	 0.110555
H	 4.0779825811	-1.6125574902	-0.5062797514	 0.192353
H	 1.4985386351	 2.920718699	-0.7977476237	 0.097361
96.7899	121.3621	159.3344	205.1257	306.6317	354.0768	487.6586	494.5636	545.0458	594.6528	603.8082	616.6027	636.0503	653.8092	722.0829	766.5777	791.7892	821.615	915.8481	961.3895	978.0637	1004.5346	1015.0395	1061.1416	1076.4237	1093.2976	1149.6375	1176.949	1219.098	1254.9742	1290.0132	1334.5146	1345.6501	1417.3165	1486.0683	2233.7245	2235.9712	3048.2253	3077.8691	3129.8357	3135.5619	3177.0554	3191.8165	3504.7203	3505.2654
C#CC1C2CC(C#C)C12	C#C[C@H]1[C@H]2C[C@@H](C#C)[C@@H]12	
InChI=1S/C9H8/c1-3-6-5-8-7(4-2)9(6)8/h1-2,6-9H,5H2	InChI=1S/C9H8/c1-3-6-5-8-7(4-2)9(6)8/h1-2,6-9H,5H2/t6-,7+,8-,9+/m1/s1
