18
gdb 44936	2.5498	1.82515	1.5348	1.9346	75.27	-0.2193	-0.0173	0.202	940.1334	0.151162	-401.976938	-401.970068	-401.969124	-402.008078	28.236	
O	-0.0303647428	 0.0151338618	 0.1372303086	-0.320053
C	-0.0485333081	 1.2146743633	 0.054053765	 0.418537
C	-1.2912069603	 2.1196652766	-0.0355121702	-0.332198
C	-0.6534275948	 3.5197392009	 0.1535917588	-0.071471
N	 0.6579680078	 3.4220689056	-0.5365052966	-0.294261
C	 1.1809946663	 2.153560012	 0.0007680493	-0.135335
C	 1.7014107302	 2.4235644582	 1.4271461195	-0.237828
C	 0.7062944483	 3.2530389318	 2.2013140065	-0.058134
C	-0.3800127268	 3.7646131572	 1.6242655104	-0.034301
H	-1.7447831157	 2.0171239562	-1.0300125939	 0.118748
H	-2.0375580484	 1.8286268651	 0.7070001144	 0.130126
H	-1.2476357526	 4.3271838978	-0.2783094312	 0.078688
H	 0.4914930556	 3.3142842167	-1.5346844524	 0.218126
H	 1.9663756152	 1.7291679715	-0.6277658642	 0.091964
H	 1.890565255	 1.4715255548	 1.9379097713	 0.124019
H	 2.6648598112	 2.9462868197	 1.3675642897	 0.118773
H	 0.9089369258	 3.4233216096	 3.2553360217	 0.092575
H	-1.1099092859	 4.3333413911	 2.1918640733	 0.092025
99.69	232.9073	273.7895	421.7148	431.5196	474.7642	511.9431	563.9698	628.3231	671.9787	738.1456	783.9461	826.1229	857.122	858.5842	921.1097	959.2514	965.1297	981.1182	992.0419	1019.607	1049.7321	1081.4855	1134.9542	1147.7297	1170.0676	1194.8755	1227.3729	1256.7153	1277.0776	1309.3441	1354.3825	1376.5482	1396.5531	1442.4885	1457.1271	1465.6972	1714.1965	1850.1397	3022.2768	3031.2131	3059.151	3092.2826	3097.2572	3110.815	3157.3622	3183.1636	3479.7986
O=C1CC2NC1CC=C2	O=C1C[C@@H]2N[C@H]1CC=C2	
InChI=1S/C7H9NO/c9-7-4-5-2-1-3-6(7)8-5/h1-2,5-6,8H,3-4H2	InChI=1S/C7H9NO/c9-7-4-5-2-1-3-6(7)8-5/h1-2,5-6,8H,3-4H2/t5-,6+/m1/s1
