14
gdb 128936	7.47746	0.73879	0.67604	1.1495	68.82	-0.2356	-0.02	0.2155	1512.313	0.101915	-432.849516	-432.841651	-432.840707	-432.883029	27.845	
N	-0.0535570868	-1.1464404823	-0.0550840096	-0.28329
C	-0.0141044223	 0.0067407274	-0.0165560354	 0.256559
C	 0.0402224574	 1.4670825894	 0.0597373497	-0.276998
N	 1.3983760143	 1.9465563867	-0.1412068357	-0.413149
C	 1.5823676208	 3.3251081723	-0.039488118	 0.191983
C	 0.6690236963	 4.3377363828	-0.0050777829	 0.000936
O	 1.3044971464	 5.5299370535	 0.0260446536	-0.170542
N	 2.6675621086	 5.3181286836	 0.0271643196	-0.116562
C	 2.8288143534	 4.0201674157	-0.0176108945	-0.046998
H	-0.6007749431	 1.8806104606	-0.7294519993	 0.169462
H	-0.3974216666	 1.7833845715	 1.022691866	 0.150046
H	 2.0820178212	 1.4101829883	 0.3759660756	 0.256907
H	-0.4074009029	 4.3785961257	-0.0072185979	 0.145519
H	 3.8272539233	 3.6060837748	-0.0329041313	 0.136127
54.7814	96.6329	108.7397	221.8883	326.5927	394.5664	404.637	503.3639	593.4686	620.7589	671.4796	767.3311	774.5362	888.1726	928.0146	937.5051	962.0173	1010.9484	1039.4334	1117.0921	1137.8704	1218.1481	1243.7436	1311.7111	1339.6584	1412.2261	1483.9668	1497.7111	1516.8299	1675.1101	2374.4086	2957.1991	3042.7337	3243.0874	3280.4852	3578.4672
N#CCNC1=CON=C1	N#CCNc1conc1	
InChI=1S/C5H5N3O/c6-1-2-7-5-3-8-9-4-5/h3-4,7H,2H2	InChI=1S/C5H5N3O/c6-1-2-7-5-3-8-9-4-5/h3-4,7H,2H2
