21
gdb 101800	3.33084	0.74569	0.74297	2.4814	76.86	-0.2566	0.0199	0.2765	1684.0277	0.178487	-461.394216	-461.382938	-461.381994	-461.432899	38.008	
C	 0.0908389591	 1.2952656886	-0.0490734678	-0.233838
O	 0.0070092128	-0.0918480255	 0.176982646	-0.245998
C	-1.2854991653	-0.6485854989	-0.0028777001	 0.121677
C	-1.6876556236	-0.7474054924	-1.4778075188	-0.40362
C	-1.2855016187	-1.9989912068	 0.6982340909	-0.072165
O	-0.4295507124	-2.8962512751	-0.0261733827	-0.23775
C	-0.3598376191	-4.1556402226	 0.4532828461	 0.436311
C	 0.587683434	-4.9887451666	-0.3761428097	-0.478808
O	-0.9772018997	-4.5385708398	 1.4147751659	-0.351846
H	 1.0972628713	 1.6066512751	 0.2417034779	 0.129069
H	-0.0636735678	 1.5664633377	-1.1035776409	 0.10779
H	-0.6401995148	 1.8512565147	 0.5598263888	 0.102034
H	-2.0253923296	-0.0263221818	 0.5317287186	 0.066324
H	-0.9676815724	-1.3617528635	-2.0224846659	 0.138472
H	-2.6786012049	-1.2029199384	-1.5725025376	 0.116174
H	-1.7323722727	 0.240228202	-1.9435283572	 0.117109
H	-0.9152864816	-1.8932383873	 1.7215766763	 0.125559
H	-2.2976129165	-2.4135164932	 0.7392218708	 0.116969
H	 1.5927793692	-4.5591163235	-0.3360822799	 0.15272
H	 0.6041626104	-6.0084416621	 0.0064513821	 0.146823
H	 0.275113072	-4.9858227305	-1.4240346929	 0.146996
26.8839	47.0211	65.668	74.047	136.9128	181.1145	201.7397	231.6739	238.5885	314.755	360.685	407.6656	458.3542	606.6236	617.2833	653.8612	813.435	903.3345	917.9608	931.2964	993.2588	1039.9018	1064.5033	1098.551	1117.0985	1143.5209	1173.737	1182.6632	1226.53	1270.1813	1280.4241	1371.6465	1380.5632	1387.8127	1398.387	1417.027	1469.7817	1475.6877	1477.719	1482.4675	1492.7654	1498.002	1505.2653	1513.1863	1824.3375	2946.458	2973.4697	3023.9897	3048.6766	3057.2287	3058.1188	3107.3544	3111.2311	3115.5742	3122.2799	3139.5002	3169.1511
COC(C)COC(C)=O	CO[C@@H](C)COC(=O)C	
InChI=1S/C6H12O3/c1-5(8-3)4-9-6(2)7/h5H,4H2,1-3H3	InChI=1S/C6H12O3/c1-5(8-3)4-9-6(2)7/h5H,4H2,1-3H3/t5-/m0/s1
