23
gdb 101006	2.59049	1.13725	1.06368	1.3931	81.89	-0.2405	0.0781	0.3185	1317.5713	0.203081	-425.407255	-425.396693	-425.395749	-425.44296	38.387	
C	 0.1763759109	 1.3172646805	 0.3904375595	-0.232591
O	-0.0284768058	-0.0407821125	 0.0788782289	-0.255468
C	 0.6038459416	-0.4843740774	-1.1142728613	 0.111548
C	 2.127035418	-0.5694157301	-0.9993738814	-0.427365
C	-0.0489324951	-1.8334855121	-1.4620780759	 0.429456
C	 0.1621863743	-2.9000717908	-0.400130451	-0.44828
C	-1.4909701215	-1.6962360687	-2.0121858001	-0.32991
C	-0.8757621948	-2.1267262454	-3.356427709	-0.071458
O	 0.4336125331	-2.2725056092	-2.7664218155	-0.33107
H	 1.2194746409	 1.5364137611	 0.6595142183	 0.109461
H	-0.1080970544	 1.9734378202	-0.4474279021	 0.101635
H	-0.4585272149	 1.5498732137	 1.2493205266	 0.125879
H	 0.3560501484	 0.2120276912	-1.9340742051	 0.05737
H	 2.5271943198	-1.0718774219	-1.8839204494	 0.142153
H	 2.5784651181	 0.4249920861	-0.9426074083	 0.111354
H	 2.4233396111	-1.1289281618	-0.1075918995	 0.122081
H	-0.2122975032	-2.5474251507	 0.5646911656	 0.134957
H	-0.365467238	-3.8177236927	-0.6748200756	 0.110655
H	 1.2238232984	-3.1414979574	-0.2952914773	 0.122333
H	-2.2098521476	-2.3970177163	-1.5848537299	 0.106378
H	-1.906420038	-0.6886389111	-1.9711402266	 0.110252
H	-1.2410880261	-3.0729740866	-3.7729357247	 0.101419
H	-0.8847913853	-1.3687616579	-4.1496507863	 0.09921
68.0175	83.5294	88.9174	171.2178	194.3567	215.8776	245.2357	260.8783	312.8372	336.4768	341.7124	462.5369	476.3775	497.5633	704.5302	783.7834	835.4619	873.7656	889.3027	926.2105	972.5579	993.5264	1023.7571	1055.2231	1061.0944	1107.1378	1137.7284	1155.4014	1163.0685	1182.2546	1204.625	1211.7255	1228.7935	1262.9283	1300.8317	1350.4977	1368.5049	1378.4175	1396.8308	1406.1409	1476.4041	1483.6445	1484.9508	1489.2333	1494.0045	1501.3167	1507.711	1513.2889	1531.7351	2948.8337	2976.7787	3014.7686	3028.7081	3043.7591	3048.0288	3052.7987	3082.6789	3108.5701	3112.5427	3117.5296	3127.8162	3130.2135	3137.1646
COC(C)C1(C)CCO1	CO[C@@H](C)[C@@]1(C)CCO1	
InChI=1S/C7H14O2/c1-6(8-3)7(2)4-5-9-7/h6H,4-5H2,1-3H3	InChI=1S/C7H14O2/c1-6(8-3)7(2)4-5-9-7/h6H,4-5H2,1-3H3/t6-,7+/m0/s1
