19
gdb 79358	2.78032	1.75518	1.57502	1.5289	73.15	-0.2233	0.072	0.2954	932.9189	0.162541	-423.023254	-423.016222	-423.015278	-423.054428	28.917	
O	-0.0629042962	 1.3997537933	 0.0340175565	-0.448094
C	-0.0228438963	-0.0215632517	-0.0227911961	 0.137865
C	-1.4411399589	-0.5160272977	-0.1981812958	-0.101998
C	-1.6859174366	-0.6455833124	-1.7086721277	-0.097192
C	-0.388468789	-0.2540866406	-2.402816713	-0.215315
C	 0.6546702759	-0.5584346468	-1.3051939722	-0.12242
C	 0.815362359	-2.0751768645	-1.1668916348	-0.064884
O	-0.440168219	-2.726604205	-0.9757429223	-0.277014
C	-1.5454165526	-1.8703287298	-0.8515334574	 0.116986
H	 0.8369555064	 1.7149273505	 0.1679459905	 0.278138
H	 0.4570429418	-0.4273040981	 0.8812304134	 0.062469
H	-2.2040464551	-0.1735781583	 0.4910614038	 0.087801
H	-2.6414559791	-0.3958421319	-2.1554781003	 0.081137
H	-0.2006243331	-0.8248447415	-3.3187009348	 0.096366
H	-0.391790201	 0.8108005104	-2.6512957025	 0.110391
H	 1.6318481577	-0.0998915644	-1.4850865693	 0.061136
H	 1.2800130596	-2.4930902963	-2.0696291926	 0.100142
H	 1.4668756903	-2.3172717313	-0.3136097643	 0.091939
H	-2.4299739436	-2.4609324741	-0.6421002711	 0.102545
121.0682	216.8527	295.35	318.0406	364.9153	405.5973	531.51	565.0875	653.1982	727.9785	757.8446	798.8451	828.287	847.7132	903.3848	915.0873	928.9599	988.1764	1010.9617	1032.0875	1046.3684	1068.154	1092.6643	1099.5251	1112.5585	1120.6844	1175.8227	1202.2482	1218.0159	1235.2045	1272.1752	1293.0583	1324.7376	1331.0644	1344.6327	1358.1968	1409.4349	1433.5585	1440.5562	1490.2402	1521.4467	2978.9452	2988.1261	3027.9619	3044.9752	3066.7944	3094.4691	3170.4431	3175.395	3187.2662	3811.6997
OC1C2C3CC1COC23	O[C@H]1[C@H]2[C@H]3C[C@@H]1CO[C@@H]23	
InChI=1S/C7H10O2/c8-6-3-1-4-5(6)7(4)9-2-3/h3-8H,1-2H2	InChI=1S/C7H10O2/c8-6-3-1-4-5(6)7(4)9-2-3/h3-8H,1-2H2/t3-,4-,5-,6-,7-/m1/s1
