19
gdb 96320	2.2509	1.6185	0.99522	1.198	74.35	-0.2255	0.0402	0.2658	1194.3978	0.160614	-456.360097	-456.351425	-456.350481	-456.393277	33.173	
C	 0.160272588	 1.5443266443	 0.0261116463	-0.389514
C	 0.0216130299	 0.0183704169	 0.0138433139	 0.046217
C	 0.5400696515	-0.5428503462	-1.3152728194	-0.085482
O	 0.1803336303	-1.9051355508	-1.519869705	-0.220566
C	 0.8457833253	-2.7929100137	-0.6972937161	 0.007979
O	 0.389453998	-2.8103325218	 0.6554272738	-0.263861
C	 0.7584144102	-1.7492599527	 1.4486645215	 0.418636
N	 1.2620350679	-2.220145376	 2.6410253599	-0.542444
N	 0.6835392979	-0.508903348	 1.1993965575	-0.333845
H	 1.2114269356	 1.8358709852	-0.0732614177	 0.11654
H	-0.4086252967	 2.0039941724	-0.788560277	 0.103679
H	-0.204122157	 1.941996628	 0.9760278821	 0.122121
H	-1.0490185409	-0.2374215357	 0.0561434904	 0.086332
H	 0.0953736888	 0.0038114341	-2.1516121236	 0.107715
H	 1.6349810448	-0.4301414746	-1.3647445194	 0.09367
H	 0.6374862279	-3.7967027713	-1.0713283035	 0.120664
H	 1.9293097117	-2.5926224588	-0.6928182031	 0.094763
H	 1.0463873125	-3.1806916298	 2.8520604269	 0.257151
H	 1.2045814845	-1.5739077516	 3.4117685225	 0.260245
81.6686	151.0725	189.9037	224.1015	270.5957	333.7966	385.7263	396.0481	421.3795	453.8572	508.9173	542.5665	586.1956	696.4812	760.9381	812.927	871.8016	930.0811	939.812	991.466	1028.0695	1078.7962	1127.6534	1142.901	1160.3166	1196.9138	1223.3792	1281.7793	1315.9463	1333.8313	1344.4617	1374.2153	1398.2007	1411.3298	1456.9369	1480.7634	1487.5837	1498.5343	1502.0425	1613.8975	1763.7017	2972.5407	2977.7806	2988.0799	3036.2699	3089.3882	3105.3787	3120.6866	3124.5861	3597.3566	3718.6984
CC1COCOC(N)=N1	C[C@H]1COCOC(=N1)N	
InChI=1S/C5H10N2O2/c1-4-2-8-3-9-5(6)7-4/h4H,2-3H2,1H3,(H2,6,7)	InChI=1S/C5H10N2O2/c1-4-2-8-3-9-5(6)7-4/h4H,2-3H2,1H3,(H2,6,7)/t4-/m0/s1
