15
gdb 54566	3.22436	1.60727	1.22275	3.5766	65.8	-0.2347	0.0111	0.2458	981.633	0.112251	-453.851527	-453.843937	-453.842993	-453.88458	28.677	
N	-0.1538160317	 1.2708125833	-0.3101376991	-0.538933
C	-0.0076181862	 0.0081665417	 0.1704482721	 0.250107
O	 1.0309702875	-0.4697791995	 0.5761041878	-0.35026
C	-1.2988083474	-0.7657225008	 0.1506232851	 0.430803
O	-2.5139998182	-0.1268372276	-0.3542894916	-0.370102
C	-2.9587459665	-1.4633741681	 0.0186888111	 0.051005
C	-1.6411004789	-2.1751999356	-0.4359665692	-0.110705
N	-1.3860357763	-2.8545564679	 0.8727877332	-0.323863
C	-2.0329259853	-1.5668734978	 1.276336193	-0.110788
H	 0.6497374203	 1.8759640087	-0.3417057945	 0.26512
H	-1.0493255594	 1.5993801897	-0.6305106849	 0.28066
H	-4.0066918737	-1.7278555461	-0.1270547446	 0.103863
H	-1.3681429467	-2.588000533	-1.4067549582	 0.104228
H	-2.0432496123	-3.6290078399	 0.9975834278	 0.214655
H	-2.2181426054	-1.2684193172	 2.3078273121	 0.10421
25.8038	165.3605	191.5524	249.3306	345.0871	428.6416	520.9057	530.4042	592.0476	652.2816	708.2805	767.7358	773.2577	818.9102	870.962	892.3401	918.3212	923.7999	1014.7904	1058.2528	1080.043	1097.8707	1118.0492	1129.4003	1154.5898	1203.1545	1215.3512	1249.6628	1296.6415	1330.0771	1413.7378	1608.5626	1809.1684	3113.1098	3128.9008	3136.2375	3405.272	3597.2133	3737.4456
NC(=O)C12OC3C1NC23	NC(=O)[C@@]12O[C@H]3[C@@H]1N[C@@H]23	
InChI=1S/C5H6N2O2/c6-4(8)5-2-1(9-5)3(5)7-2/h1-3,7H,(H2,6,8)	InChI=1S/C5H6N2O2/c6-4(8)5-2-1(9-5)3(5)7-2/h1-3,7H,(H2,6,8)/t1-,2-,3+,5+
