20
gdb 78754	3.07498	1.61041	1.27795	2.1163	79.	-0.2013	0.0888	0.2901	1058.8033	0.171167	-403.095034	-403.087141	-403.086197	-403.126835	31.736	
C	-0.1365851425	 1.3953144375	 0.0381681076	-0.321473
N	 0.0074040363	-0.0516147822	-0.0348036707	-0.099966
C	 0.7636345704	-0.4650162811	-1.2329044639	-0.083556
C	 2.0544361328	-0.7317147753	-0.4618664861	-0.192274
C	 1.1659841603	-0.5510506404	 0.8019317789	-0.053695
C	 0.8278637692	-1.9766810711	 1.213259681	-0.075148
O	 0.6711298304	-2.6672947329	-0.031631196	-0.305287
C	 1.2809677264	-1.880412436	-1.0368405516	 0.45609
C	 1.7497640129	-2.6843924991	-2.2141866792	-0.480718
H	 0.8097834443	 1.946360436	-0.1200534325	 0.089862
H	-0.8525284775	 1.7280758584	-0.7208015219	 0.119028
H	-0.5358204641	 1.670743658	 1.0197743729	 0.116637
H	 0.5847982485	-0.0130239174	-2.2036821176	 0.086478
H	 3.100540457	-0.4955424219	-0.6156575798	 0.088049
H	 1.47892353	 0.1228374115	 1.5994916389	 0.07646
H	 1.6340859615	-2.4338931243	 1.807791299	 0.086451
H	-0.1135274786	-2.0343038966	 1.7665438783	 0.113886
H	 0.9140365909	-3.2341216921	-2.6580240008	 0.134132
H	 2.1779831686	-2.0340508445	-2.9825304401	 0.11901
H	 2.5108071732	-3.4090786464	-1.9084015265	 0.126034
164.7414	208.587	214.9936	261.2455	272.6184	315.1098	361.1769	406.3824	547.5787	600.4562	700.0696	746.5939	761.8356	838.6613	842.3802	851.1636	909.1922	925.5335	961.8084	978.9465	1018.5142	1043.2596	1054.347	1078.0949	1111.9806	1136.0332	1160.5758	1179.9119	1189.4142	1212.1144	1222.2551	1238.0439	1285.7666	1318.3587	1376.1265	1409.2333	1429.5252	1454.1276	1478.9552	1488.8834	1499.8777	1501.4783	1504.3421	2927.9153	2984.3315	3038.9709	3057.6784	3091.7012	3098.2207	3106.9537	3115.5293	3118.5557	3157.3742	3176.0361
CN1C2C3C1COC23C	CN1[C@H]2[C@H]3[C@@H]1CO[C@@]23C	
InChI=1S/C7H11NO/c1-7-5-4(3-9-7)8(2)6(5)7/h4-6H,3H2,1-2H3	InChI=1S/C7H11NO/c1-7-5-4(3-9-7)8(2)6(5)7/h4-6H,3H2,1-2H3/t4-,5+,6-,7+/m0/s1
