23
gdb 100737	2.76475	0.97792	0.8517	1.5499	82.79	-0.2413	-0.0115	0.2298	1493.9437	0.201259	-425.446445	-425.434769	-425.433825	-425.484044	40.805	
C	 0.0591990027	 1.3779404114	 0.1107763183	-0.237653
O	-0.0617136959	-0.0141823613	-0.0636497305	-0.253906
C	 0.6666993029	-0.5426554592	-1.1670215105	 0.153354
C	 2.1556918863	-0.6773553385	-0.8351943718	-0.421857
C	 0.0186484528	-1.8960144227	-1.5083084961	-0.097946
C	-1.4973514345	-1.7563983261	-1.760899437	-0.407141
C	 0.6480358409	-2.51913798	-2.7560469797	 0.392767
C	 0.747513937	-4.0330085972	-2.7822708894	-0.481606
O	 1.0235542906	-1.8390349877	-3.685484181	-0.317844
H	 1.0780440813	 1.6848012136	 0.3887293003	 0.106909
H	-0.2285187832	 1.9278202582	-0.7988103348	 0.105756
H	-0.6174819926	 1.6600767137	 0.9216408167	 0.124917
H	 0.5483219812	 0.1187117762	-2.0384586892	 0.084354
H	 2.7090247958	-1.0616025562	-1.6956981805	 0.134242
H	 2.5912333172	 0.2904956443	-0.5718294242	 0.116821
H	 2.2971449759	-1.354484532	 0.0139269762	 0.115239
H	 0.1653243611	-2.5740186613	-0.6577738531	 0.079783
H	-1.961416395	-2.7268351125	-1.9627511228	 0.111201
H	-1.9752114822	-1.3162317219	-0.8850226457	 0.141586
H	-1.6810211721	-1.107201426	-2.623039475	 0.128955
H	-0.196950544	-4.4969751471	-2.4794669261	 0.137902
H	 1.0337495419	-4.3748272622	-3.777695281	 0.140531
H	 1.5038909718	-4.3559508852	-2.0564297532	 0.143636
46.6457	57.697	75.546	137.1327	160.4214	196.1313	207.4029	221.5735	242.4082	274.5919	311.9767	328.2662	393.9369	480.1981	504.6384	596.6898	606.3368	796.096	833.1647	897.7823	952.5054	978.6146	990.8187	1021.258	1086.8565	1100.7419	1128.408	1137.4847	1173.4932	1182.6125	1198.7173	1232.1389	1312.2286	1326.1874	1368.9434	1379.48	1391.3484	1399.3483	1402.3702	1461.5173	1474.418	1478.6628	1485.7932	1491.3976	1492.2109	1505.4464	1508.3318	1513.0614	1802.0384	2978.2039	2997.5669	3026.5586	3029.1124	3035.4961	3042.0409	3042.6595	3096.0541	3107.0428	3107.9189	3111.5196	3126.8672	3145.3865	3151.0279
COC(C)C(C)C(C)=O	CO[C@@H](C)[C@@H](C)C(=O)C	
InChI=1S/C7H14O2/c1-5(6(2)8)7(3)9-4/h5,7H,1-4H3	InChI=1S/C7H14O2/c1-5(6(2)8)7(3)9-4/h5,7H,1-4H3/t5-,7-/m0/s1
