19
gdb 82029	2.6032	1.41138	1.22925	2.4382	76.24	-0.2617	-0.0353	0.2264	1103.5103	0.157787	-423.011223	-423.002472	-423.001528	-423.044435	33.446	
C	-0.139465278	 1.5480065506	 0.0028580514	-0.397903
C	 0.0502555796	 0.0391960061	-0.041338148	-0.075535
C	 0.7205084463	-0.6190549923	-1.2510885435	-0.048292
C	 2.1510166443	-0.1868512371	-1.3787840046	-0.294099
C	 1.8061261741	-1.2358925572	-0.3606820203	-0.100115
C	 1.2013919401	-0.5759350957	 0.8872440699	 0.315867
O	 2.0072197436	 0.3228747022	 1.5821935045	-0.477374
C	 0.6065489771	-1.5807714127	 1.8388881661	 0.105827
O	 0.8028919604	-1.5322891977	 3.0305419938	-0.284834
H	 0.795428199	 2.0813408054	-0.1813848482	 0.1313
H	-0.8700749001	 1.8609425151	-0.7509267078	 0.113687
H	-0.5079134694	 1.8633373023	 0.9839414057	 0.121467
H	-0.9036711033	-0.4547825796	 0.1766924842	 0.074153
H	 0.1881605475	-1.0868361949	-2.0698496738	 0.088537
H	 2.6704761485	-0.5656478302	-2.2530325171	 0.115548
H	 2.4779582169	 0.7970492459	-1.0590496675	 0.131139
H	 2.2423867087	-2.2274908314	-0.3892104288	 0.090419
H	 1.9261503638	 0.0820025874	 2.5194723131	 0.290429
H	-0.0342290491	-2.3632233064	 1.3838919609	 0.099779
91.8105	122.8732	168.805	216.4026	251.4067	310.3276	324.0848	408.0398	420.4742	502.0692	548.0021	567.432	700.3583	786.9549	816.5404	828.087	888.895	920.9087	943.5454	994.4008	1012.2197	1019.0267	1058.7213	1075.1243	1085.9768	1094.8954	1106.6858	1141.0379	1189.8367	1237.8562	1282.7022	1295.4013	1349.7661	1362.5609	1389.6	1410.8176	1434.3489	1484.4543	1489.9844	1500.5992	1803.5033	2930.4474	3031.9365	3040.8119	3103.2789	3128.4863	3132.5307	3174.9154	3190.1609	3214.2711	3677.1144
CC1C2CC2C1(O)C=O	C[C@H]1[C@H]2C[C@H]2[C@]1(O)C=O	
InChI=1S/C7H10O2/c1-4-5-2-6(5)7(4,9)3-8/h3-6,9H,2H2,1H3	InChI=1S/C7H10O2/c1-4-5-2-6(5)7(4,9)3-8/h3-6,9H,2H2,1H3/t4-,5+,6+,7-/m0/s1
