16
gdb 80193	2.35812	1.79463	1.46208	5.4983	63.94	-0.2358	0.0174	0.2532	940.5338	0.125422	-475.032748	-475.024941	-475.023997	-475.064872	30.32	
O	-0.2011984583	 1.4563444268	 0.1035088503	-0.41867
C	-0.0754851112	 0.0633749339	 0.0628392491	 0.073243
C	-0.5020263394	-0.7855155938	 1.2512446324	-0.087989
N	-1.2384941784	-0.1286929446	 2.2901470429	-0.298124
C	-2.3706559158	 0.5157091855	 1.8370033372	 0.339387
O	-3.0182825779	 1.3276105704	 2.4513134401	-0.357889
C	-2.6356911321	 0.0252361084	 0.3842333957	 0.031715
O	-3.0248076166	 1.0628378366	-0.4771596309	-0.424183
C	-1.3591083263	-0.7200344253	 0.0016521757	-0.133365
H	 0.4534088842	 1.8182971442	 0.7103134578	 0.297694
H	 0.7568055645	-0.308080731	-0.5335144119	 0.103326
H	 0.0598744168	-1.6694659239	 1.5306556881	 0.108117
H	-0.792930875	 0.2123322313	 3.1291509063	 0.248199
H	-3.477095747	-0.6760012698	 0.4136312207	 0.115413
H	-2.3187731614	 1.7207879525	-0.4531927549	 0.297728
H	-1.426174766	-1.5570802012	-0.6812750586	 0.105398
92.5871	175.3661	236.072	275.9994	289.8493	363.2736	450.0993	471.7542	525.3501	567.7681	620.071	682.7768	726.0145	754.1781	777.1412	822.4325	868.3728	950.544	1033.01	1051.9914	1054.361	1100.4675	1125.9958	1131.7994	1212.9365	1242.7115	1260.703	1295.7934	1298.271	1341.1929	1374.2872	1397.5894	1444.3256	1452.2589	1845.8695	3055.2541	3113.1321	3172.7492	3194.5594	3612.8143	3786.2169	3806.0637
OC1C2NC(=O)C(O)C12	O[C@H]1[C@H]2NC(=O)[C@@H](O)[C@@H]12	
InChI=1S/C5H7NO3/c7-3-1-2(3)6-5(9)4(1)8/h1-4,7-8H,(H,6,9)	InChI=1S/C5H7NO3/c7-3-1-2(3)6-5(9)4(1)8/h1-4,7-8H,(H,6,9)/t1-,2+,3-,4+/m1/s1
