20
gdb 86809	4.53026	0.82164	0.76034	2.3081	76.15	-0.2641	0.0581	0.3222	1544.9332	0.170464	-440.328074	-440.318501	-440.317557	-440.363448	35.15	
C	-0.3374950519	 1.3924087863	-0.0360431444	-0.390756
C	 0.0105340275	-0.0926120373	 0.0176213794	 0.016887
C	 1.1821926041	-0.5202341304	-0.9223092349	-0.27353
C	 2.1238381731	-0.4734652083	 0.29356931	 0.18288
C	 0.8983653645	-0.5063732422	 1.2333241244	-0.254862
O	 3.0332712342	-1.574795009	 0.349454824	-0.27098
C	 3.9967254727	-1.4865305785	 1.3011702551	 0.483854
N	 4.7598369794	-2.6215913868	 1.294156096	-0.564143
O	 4.1382446582	-0.5560287489	 2.0600456447	-0.401256
H	 0.5527875381	 2.020766192	 0.0808254754	 0.117873
H	-0.8045737552	 1.6540554973	-0.9919150524	 0.113362
H	-1.036578104	 1.6604717707	 0.7635020213	 0.116085
H	-0.9002749937	-0.6852739706	-0.1011206012	 0.071455
H	 1.0666685779	-1.5476888797	-1.2769736439	 0.107351
H	 1.4190202409	 0.1266979151	-1.7710569153	 0.097803
H	 2.6904128998	 0.4544515037	 0.3816718201	 0.103735
H	 0.9191665352	 0.1551219378	 2.1019200138	 0.109625
H	 0.6934184925	-1.5283023064	 1.5635387997	 0.104577
H	 4.7170984715	-3.2269939356	 0.492079113	 0.262823
H	 5.6248942653	-2.574794779	 1.8043175752	 0.267217
42.1704	63.5452	89.9811	183.9944	247.6122	296.1851	303.8934	349.9486	400.3587	418.3419	473.8801	516.4822	619.5805	721.4539	785.6302	800.882	823.3532	888.3606	902.3404	926.265	970.3872	980.1401	1053.527	1070.5283	1112.1249	1134.1556	1135.5001	1176.9699	1213.0674	1243.3448	1267.3524	1275.1917	1293.5965	1347.3559	1368.9629	1412.5147	1414.3615	1469.8854	1494.2015	1497.7055	1500.5618	1610.6079	1830.3313	3025.3602	3056.1974	3059.5309	3069.1004	3094.0315	3095.2465	3098.4052	3117.5014	3126.1608	3613.5771	3743.3372
CC1CC(C1)OC(N)=O	C[C@H]1C[C@@H](C1)OC(=O)N	
InChI=1S/C6H11NO2/c1-4-2-5(3-4)9-6(7)8/h4-5H,2-3H2,1H3,(H2,7,8)	InChI=1S/C6H11NO2/c1-4-2-5(3-4)9-6(7)8/h4-5H,2-3H2,1H3,(H2,7,8)/t4-,5-
