15
gdb 29416	4.65821	0.95374	0.79261	2.5699	72.68	-0.1858	0.0075	0.1933	1363.3516	0.114	-450.157181	-450.148688	-450.147744	-450.190922	30.711	
N	 0.0120365355	 1.393889879	 0.1580155849	-0.595277
C	-0.0323823026	 0.0038318287	 0.0468481038	 0.295475
C	-1.110992221	-0.8409817924	 0.0373609604	-0.190786
N	-0.555261366	-2.1261334045	-0.0121881372	-0.336095
C	 0.7804476255	-1.9630972863	-0.0304994487	 0.50694
O	 1.5609366923	-3.0671162046	-0.0867986129	-0.228172
C	 2.9163633827	-2.8947195569	-0.005430935	 0.110446
N	 3.6459252722	-3.9162550944	-0.0907638597	-0.432764
N	 1.1521645405	-0.7091236292	-0.0001297467	-0.404756
H	 0.878544383	 1.7612789386	-0.2127834063	 0.249352
H	-0.7790821678	 1.8587757514	-0.2659756286	 0.2435
H	-2.1736416756	-0.6795191667	 0.0666612809	 0.121589
H	-1.0413256121	-3.0058835825	-0.0306409174	 0.273438
H	 3.2002220681	-1.8500878182	 0.1293724788	 0.149537
H	 4.6241405952	-3.645412892	-0.0084671463	 0.237575
58.1218	96.4587	153.0456	214.1959	251.02	319.3819	370.1321	451.4844	459.4368	529.5472	600.1052	655.782	686.2552	717.2605	767.1689	828.0294	836.1946	1000.6379	1038.1634	1061.3176	1070.758	1086.85	1134.0416	1264.5398	1283.3098	1326.4303	1394.9256	1415.5767	1538.2691	1586.389	1625.9487	1658.1561	1747.5456	3131.7487	3291.7427	3516.8085	3547.8465	3644.7278	3680.7226
NC1=CNC(OC=N)=N1	Nc1c[nH]c(O[CH][NH])n1	
InChI=1S/C4H6N4O/c5-2-9-4-7-1-3(6)8-4/h1-2,5H,6H2,(H,7,8)	InChI=1S/C4H6N4O/c5-2-9-4-7-1-3(6)8-4/h1-2,5H,6H2,(H,7,8)
