17
gdb 87323	1.86697	1.68478	1.05643	5.2352	73.75	-0.2565	-0.0403	0.2162	1156.0436	0.133746	-417.99736	-417.988059	-417.987115	-418.031826	33.051	
C	-0.305783021	 1.4259201038	 0.2810952795	-0.329532
N	-0.0016155297	 0.001337574	 0.2005168977	-0.103005
C	 1.330247154	-0.4103278485	-0.166760149	-0.288239
C	 0.820302776	-0.6317209171	 1.236331678	 0.209061
C	 1.4588589215	 0.1286575362	 2.3957087038	-0.436528
C	 0.4734480903	 0.628759588	 3.3564810902	 0.28203
N	-0.3101943964	 1.0397884445	 4.0991232826	-0.31163
C	 0.3673108203	-2.0195351411	 1.5787077348	 0.145558
O	 0.662107115	-2.589846038	 2.5977645963	-0.258761
H	 0.5506164512	 2.0556992322	 0.5651149264	 0.107761
H	-0.653961918	 1.7528873656	-0.7026201625	 0.138476
H	-1.1093266226	 1.5832781296	 1.0041643101	 0.159989
H	 1.4103146206	-1.2403049235	-0.8647988602	 0.132736
H	 2.1061345158	 0.3489600198	-0.2688936519	 0.122358
H	 2.1270205363	-0.5631279523	 2.9186413304	 0.180345
H	 2.0605368143	 0.9692132459	 2.0421774692	 0.152228
H	-0.2618828176	-2.4835478693	 0.7900829344	 0.097152
58.1226	106.1288	118.3022	197.5087	222.4102	262.4561	277.0796	363.0823	383.8831	414.7425	428.0245	515.9453	590.7182	742.6656	801.0672	888.9669	916.7391	960.7413	966.303	1035.5961	1066.999	1119.5211	1128.2622	1149.8189	1198.8141	1234.5548	1296.6854	1335.4729	1358.9512	1415.6573	1444.392	1455.7283	1488.7173	1499.8078	1510.777	1822.8752	2364.2838	2920.86	2991.3213	3067.5106	3081.0984	3087.6053	3115.1764	3130.6831	3171.4426
CN1CC1(CC#N)C=O	CN1C[C@]1(CC#N)C=O	
InChI=1S/C6H8N2O/c1-8-4-6(8,5-9)2-3-7/h5H,2,4H2,1H3	InChI=1S/C6H8N2O/c1-8-4-6(8,5-9)2-3-7/h5H,2,4H2,1H3/t6-,8?/m1/s1
