19
gdb 125381	2.95745	1.01527	0.80716	2.6063	77.96	-0.2311	0.0257	0.2568	1420.0979	0.160053	-419.231867	-419.222406	-419.221462	-419.267116	33.816	
C	-0.0629772928	 1.5671232649	-0.0395956575	-0.515855
C	-0.0147390643	 0.0698972488	-0.0093521677	 0.148898
C	-0.034929049	-0.7969708196	-1.0823577508	-0.112031
N	 0.0203037571	-2.0516295103	-0.5726423787	-0.190745
N	 0.0707665215	-2.0700977067	 0.7716218514	-0.290998
C	 0.0506062045	-0.7847686729	 1.126387889	 0.259918
C	 0.1349506867	-0.3971626159	 2.5712063048	-0.317246
C	 1.5839623778	-0.1744203624	 3.0381398739	-0.05507
O	 1.6643970173	 0.2494935704	 4.3885210656	-0.417219
H	 0.8569751709	 2.0175584375	 0.3507377556	 0.131717
H	-0.2000256334	 1.9359884207	-1.059966879	 0.121883
H	-0.8898166247	 1.9575093667	 0.5648710392	 0.130858
H	-0.0890665794	-0.615442291	-2.1447812948	 0.128791
H	 0.0093950413	-2.92342341	-1.0730177322	 0.271765
H	-0.4332016725	 0.5206085883	 2.7583435357	 0.106772
H	-0.3151312482	-1.1921294655	 3.1773393869	 0.105564
H	 2.165596249	-1.0916613194	 2.8620483621	 0.099948
H	 2.0497928297	 0.6224204222	 2.4486478886	 0.111732
H	 1.3224755386	-0.4624284358	 4.938847298	 0.281317
49.999	86.9292	97.58	120.7619	238.7921	254.9652	305.3296	359.6822	375.7812	418.4083	486.1017	647.7374	665.1357	720.6712	776.7178	785.1943	805.6056	947.5357	1005.9005	1011.3294	1037.3537	1066.7376	1074.0053	1087.559	1134.2825	1185.5229	1229.6395	1294.0241	1316.437	1323.2922	1390.745	1402.6238	1416.1642	1423.5348	1468.4644	1483.5626	1484.9364	1493.0924	1510.8829	1516.0673	1610.918	2995.5765	3026.8433	3034.8814	3067.6654	3074.9376	3090.36	3106.9333	3253.9523	3680.1534	3813.6373
CC1=CNN=C1CCO	Cc1c[nH]nc1CCO	
InChI=1S/C6H10N2O/c1-5-4-7-8-6(5)2-3-9/h4,9H,2-3H2,1H3,(H,7,8)	InChI=1S/C6H10N2O/c1-5-4-7-8-6(5)2-3-9/h4,9H,2-3H2,1H3,(H,7,8)
