20
gdb 22208	2.61492	0.85503	0.72464	0.7388	87.67	-0.2401	0.0143	0.2544	1644.7726	0.166568	-403.094393	-403.082905	-403.08196	-403.133165	39.316	
C	 0.0320576093	 1.4685548565	 0.0088148742	-0.496204
C	 0.0339431234	 0.0124762745	-0.0135578956	 0.00514
C	 0.0337737742	-1.1918329137	-0.0285256584	 0.114107
C	 0.0152824304	-2.6589472728	-0.0591815732	-0.21937
C	-1.4111250337	-3.2082034815	 0.1179684403	-0.381124
C	 0.7215793582	-3.1614043337	-1.3142193706	 0.369291
C	 2.1559282898	-2.7719142762	-1.5464501631	-0.467579
N	 0.0487434544	-3.9110083062	-2.0969398636	-0.167159
O	 0.8128656527	-4.3213819116	-3.2029145706	-0.40364
H	 0.6687432137	 1.8574336274	 0.8112423969	 0.146486
H	 0.401370529	 1.8812596003	-0.9365519016	 0.148284
H	-0.9781364016	 1.8617420306	 0.1679776732	 0.148783
H	 0.6218694866	-3.011755524	 0.7907707342	 0.111488
H	-1.4002813763	-4.3000984586	 0.1358916624	 0.122339
H	-1.8336425891	-2.8365527812	 1.0547600924	 0.112816
H	-2.0518756588	-2.8900209277	-0.7064841847	 0.134924
H	 2.7920760938	-3.6634229025	-1.5557326698	 0.141785
H	 2.2678939301	-2.2992168011	-2.5267153468	 0.1485
H	 2.5077220376	-2.0823566086	-0.7780225087	 0.126592
H	 0.182292446	-4.85889433	-3.693373677	 0.304542
19.3413	46.3471	62.5861	88.1153	143.1057	221.6521	221.8393	254.4017	289.7299	311.9838	334.8014	399.8273	418.139	446.2975	532.659	550.3146	667.2172	729.9758	807.8464	960.5247	991.1972	1015.0064	1045.5547	1052.2278	1054.1991	1081.2361	1099.1742	1183.1164	1227.0952	1312.4058	1325.2662	1392.5703	1401.2821	1408.3859	1415.0148	1471.4273	1478.6425	1479.0262	1483.5508	1486.5505	1494.4165	1732.7107	2367.7246	2971.157	3026.0659	3044.7229	3055.7095	3086.3142	3087.0193	3102.4145	3131.5045	3140.8784	3143.7238	3820.8242
CC#CC(C)C(C)=NO	CC#C[C@@H](C)C(=NO)C	
InChI=1S/C7H11NO/c1-4-5-6(2)7(3)8-9/h6,9H,1-3H3	InChI=1S/C7H11NO/c1-4-5-6(2)7(3)8-9/h6,9H,1-3H3/t6-/m1/s1
