18
gdb 101265	3.28597	0.92475	0.80719	2.7642	72.67	-0.278	-0.0078	0.2702	1410.6747	0.145644	-439.06436	-439.054619	-439.053674	-439.10021	34.444	
C	-0.107841019	 1.5374146817	-0.1408205737	-0.431208
C	-0.022551318	 0.0073924193	-0.0944383247	-0.043129
C	 0.8039855684	-0.5422776913	-1.2784798774	-0.072448
O	 0.2394176263	-0.2401996085	-2.5389156582	-0.42021
C	 0.5739216869	-0.5427913001	 1.1921741226	 0.067528
O	 1.3599104363	 0.3104369896	 2.0283340445	-0.22393
C	 0.1496635178	-0.2151365921	 2.5729450435	-0.110783
C	-0.9184967459	 0.7118534803	 2.8781044483	 0.309722
N	-1.7908667317	 1.4134941646	 3.1664282566	-0.33033
H	 0.8838074692	 1.9874366448	-0.0352001527	 0.130196
H	-0.5389853443	 1.8494702565	-1.0965809041	 0.112352
H	-0.74635268	 1.9434608675	 0.6448646553	 0.15643
H	-1.0326849092	-0.4126124675	-0.1948002938	 0.106314
H	 1.8417649709	-0.1796932649	-1.2017017945	 0.101085
H	 0.8378418283	-1.6362744587	-1.2231614278	 0.111031
H	 0.4099694793	 0.685895632	-2.7328906887	 0.28995
H	 0.9975942508	-1.5455613681	 1.0947057945	 0.105536
H	 0.2868269939	-0.9712900053	 3.3451911004	 0.141894
20.6692	103.2307	118.6873	194.1969	218.8619	223.4066	262.0168	313.0627	325.5577	362.0764	447.3183	553.3454	586.411	646.5407	784.9281	842.52	865.1974	913.1802	956.8811	968.3288	1064.641	1080.1667	1095.1696	1121.013	1148.4534	1160.5567	1237.6001	1286.7461	1307.2002	1363.1876	1385.2561	1399.3926	1412.9486	1423.5493	1453.1699	1495.6314	1500.6887	1516.7681	2357.9243	2978.4782	3023.6093	3049.6534	3062.7351	3080.5523	3116.0977	3121.8083	3144.7937	3835.921
CC(CO)C1OC1C#N	C[C@@H](CO)[C@H]1O[C@H]1C#N	
InChI=1S/C6H9NO2/c1-4(3-8)6-5(2-7)9-6/h4-6,8H,3H2,1H3	InChI=1S/C6H9NO2/c1-4(3-8)6-5(2-7)9-6/h4-6,8H,3H2,1H3/t4-,5-,6+/m0/s1
