17
gdb 128831	3.2533	1.10187	0.86222	4.4693	71.03	-0.2758	-0.0359	0.2399	1324.7411	0.134392	-455.101126	-455.092049	-455.091105	-455.135884	31.349	
C	-0.0371982404	 1.3909112355	 0.253159418	-0.226484
O	-0.0199516552	-0.0167966063	 0.3509475356	-0.236766
C	-1.0884881963	-0.621287792	-0.3472083915	-0.183236
C	-1.0006686592	-2.0995958631	-0.1508791399	 0.274093
N	-1.0344001621	-2.936615774	-1.1501144283	-0.14912
O	-0.9483713754	-4.1810479181	-0.5984246395	-0.157766
N	-0.848677287	-4.1113524251	 0.7664454077	-0.135489
C	-0.8819318275	-2.8416249101	 1.0688623911	 0.271009
C	-0.7993163391	-2.3415510373	 2.4715929296	-0.501048
H	 0.817210498	 1.7645788707	 0.8211492874	 0.135996
H	 0.0535527219	 1.7252690392	-0.7913006019	 0.115118
H	-0.9617331003	 1.8164619591	 0.67350615	 0.109382
H	-2.0546270783	-0.247300577	 0.0349327862	 0.106907
H	-1.0509122631	-0.3950580894	-1.4227461601	 0.125651
H	 0.005824252	-1.609008455	 2.5644193196	 0.160233
H	-1.7302510153	-1.8414638552	 2.7607405761	 0.13964
H	-0.6242254527	-3.1712252621	 3.1581487601	 0.151878
61.0776	87.8556	122.4326	126.3493	223.207	250.8202	270.6353	339.6897	385.3613	431.1553	644.8638	670.8806	716.7514	782.8994	916.1343	940.6091	983.0039	1001.9381	1042.6368	1071.9999	1077.7626	1151.0626	1183.3871	1224.0609	1244.4534	1254.5787	1408.6322	1411.7559	1433.257	1476.4385	1479.6308	1485.5436	1488.7468	1500.3152	1519.8061	1535.1028	1633.7003	2951.8866	2978.3518	3018.3969	3027.0177	3047.3152	3112.5472	3125.6146	3151.5639
COCC1=NON=C1C	COCc1nonc1C	
InChI=1S/C5H8N2O2/c1-4-5(3-8-2)7-9-6-4/h3H2,1-2H3	InChI=1S/C5H8N2O2/c1-4-5(3-8-2)7-9-6-4/h3H2,1-2H3
