22
gdb 99636	1.83906	1.49817	0.91127	1.1966	88.72	-0.2266	0.049	0.2756	1361.9109	0.191325	-367.149705	-367.139271	-367.138327	-367.185009	38.726	
C	-2.3166555607	 3.3127488965	-0.1780459344	-0.395707
C	-1.4970299193	 2.0840374735	-0.5767690963	-0.163332
C	-2.2693077671	 0.748493133	-0.4755970795	-0.170122
C	-1.4389532931	-0.3454100228	-0.9867898196	 0.355789
C	-0.7392535181	-1.2215156996	-1.4197288682	-0.444301
N	-2.6331116093	 0.4881873615	 0.9242415019	-0.083278
C	-3.9689698016	 0.8822650834	 1.371318189	-0.252474
C	-3.6099147463	-0.5575919126	 1.2504718553	 0.035182
C	-4.2705532358	-1.4450504888	 0.217236733	-0.41663
H	-1.7347391784	 4.2260344022	-0.3356881798	 0.113234
H	-3.2311713587	 3.3970667036	-0.7765253112	 0.108575
H	-2.6035930716	 3.2789767368	 0.8758682162	 0.132996
H	-1.1498930374	 2.1864646724	-1.6108648104	 0.10306
H	-0.6060992226	 2.0020155339	 0.0538877576	 0.116305
H	-3.1615595369	 0.8295425689	-1.1222598663	 0.083339
H	-0.1270101758	-2.0008257961	-1.8011005609	 0.193333
H	-4.0219300076	 1.378351719	 2.3371273981	 0.112639
H	-4.6582877216	 1.2762420893	 0.6244192426	 0.105815
H	-3.3434464197	-1.0841135825	 2.1660055759	 0.09044
H	-4.6063251193	-0.8867300489	-0.6603731803	 0.118961
H	-3.5891848035	-2.2304501274	-0.1221117033	 0.137292
H	-5.1502479354	-1.9262499852	 0.6579734806	 0.118884
64.2562	102.2077	130.5929	157.5422	186.4793	204.6024	246.8074	291.429	308.5481	393.4859	414.4504	474.9572	520.0539	573.3563	621.8594	652.3597	719.6787	786.2585	829.2778	886.3504	910.1658	958.0038	983.3274	1024.6418	1049.5611	1063.6561	1114.4012	1118.7001	1124.826	1146.8669	1173.0292	1192.604	1285.6978	1312.7275	1327.3736	1351.3855	1379.9925	1404.0116	1410.1048	1419.8557	1478.0805	1493.0907	1495.8725	1496.3993	1506.6607	1511.3805	2236.1697	2928.1634	3033.7452	3041.3269	3044.7848	3083.2991	3084.644	3100.6866	3101.31	3108.0368	3123.4666	3125.695	3169.9485	3503.7467
CCC(C#C)N1CC1C	CC[C@@H](C#C)N1C[C@H]1C	
InChI=1S/C8H13N/c1-4-8(5-2)9-6-7(9)3/h1,7-8H,5-6H2,2-3H3	InChI=1S/C8H13N/c1-4-8(5-2)9-6-7(9)3/h1,7-8H,5-6H2,2-3H3/t7-,8-,9?/m1/s1
