13
gdb 45000	3.68035	1.33343	1.11332	4.8576	65.13	-0.2696	0.0014	0.271	1039.9417	0.088049	-456.551642	-456.544457	-456.543513	-456.583395	27.418	
O	 0.0096329113	 0.0212689608	 0.0458155896	-0.352842
C	-0.0186147274	 1.2059946104	 0.0212593922	 0.480857
O	-1.1583759344	 1.9619830166	 0.0460520652	-0.237785
C	-0.8239298317	 3.3267246383	 0.0459703725	 0.025399
C	-0.0470424416	 3.8337394867	 1.22646948	-0.363209
C	 0.6843257463	 3.3779425065	-0.0261351775	 0.200285
O	 1.0815103084	 2.014115564	-0.010016017	-0.267572
C	 1.4704058009	 4.2395183907	-0.8451876894	 0.239226
C	 2.125235081	 4.9849600321	-1.5225893789	-0.378374
H	-1.493360989	 3.9413135561	-0.539974141	 0.146166
H	-0.070687247	 4.9029799814	 1.400822185	 0.149582
H	 0.0320531881	 3.2070490192	 2.1082564744	 0.150662
H	 2.707669185	 5.6367648473	-2.1265049252	 0.207604
113.1463	151.5876	186.2781	328.5137	447.3801	458.5987	481.2442	549.0635	599.516	615.1491	706.1446	718.8012	767.0654	788.2077	861.8895	880.6487	930.2299	981.2412	1020.8339	1032.7642	1077.27	1132.6686	1157.6291	1232.8518	1289.6727	1394.1062	1457.2152	1940.2253	2248.3511	3140.9943	3217.8606	3242.7056	3499.32
O=C1OC2CC2(O1)C#C	O=C1O[C@H]2C[C@]2(O1)C#C	
InChI=1S/C6H4O3/c1-2-6-3-4(6)8-5(7)9-6/h1,4H,3H2	InChI=1S/C6H4O3/c1-2-6-3-4(6)8-5(7)9-6/h1,4H,3H2/t4-,6+/m0/s1
