23
gdb 119749	2.71644	1.00297	0.77594	1.0582	91.2	-0.2219	0.0289	0.2508	1563.2046	0.205064	-388.304822	-388.29464	-388.293695	-388.34052	36.703	
C	 0.4258891819	 1.234331669	-2.5966813139	-0.218327
O	 0.6882209858	-0.1071322475	-2.2688642322	-0.232414
C	-0.2553683074	-0.6397172755	-1.3518506311	-0.188913
C	 0.0387901417	-2.0884587821	-1.13273856	 0.24679
C	 0.18722424	-2.7318966141	 0.0330497036	 0.211428
C	 0.1303152886	-2.183664496	 1.4249151017	-0.500827
C	 0.3813574127	-4.2198564452	-0.1861983755	-0.284951
C	 0.6829622255	-4.3335323227	-1.6980402145	-0.209867
C	 0.1181938432	-3.0331193487	-2.3153988789	-0.292781
H	-0.5663496218	 1.3573702332	-3.0610605389	 0.100363
H	 0.469343537	 1.8905284508	-1.7120620062	 0.100411
H	 1.1906150931	 1.5541742986	-3.3089539136	 0.125153
H	-0.2307435492	-0.0722824633	-0.4084360348	 0.08724
H	-1.274044496	-0.5202533099	-1.768345228	 0.085238
H	-0.7090497596	-2.6186251278	 1.9838260672	 0.12415
H	 1.0389714445	-2.4446670129	 1.9823361554	 0.124438
H	 0.019378902	-1.0970427543	 1.4512857583	 0.122494
H	 1.182604328	-4.6335477638	 0.4386155508	 0.096036
H	-0.5322816058	-4.7657613484	 0.0942483043	 0.098713
H	 1.7664872326	-4.3665024963	-1.8501016086	 0.104539
H	 0.266250965	-5.2373635388	-2.1498736393	 0.092395
H	-0.8826963787	-3.1854763444	-2.7478486991	 0.092854
H	 0.7431897768	-2.63443551	-3.1197048464	 0.115837
64.1317	82.2128	110.7431	144.6538	168.8529	208.6673	227.1503	280.4724	329.5878	349.1223	422.3126	544.9351	591.9573	632.9975	756.603	850.9874	884.4448	916.5296	923.4843	969.2957	986.2444	1017.4615	1032.2559	1087.3938	1098.7659	1145.2641	1155.7186	1181.0325	1195.2894	1213.7432	1224.7543	1231.1875	1264.2794	1274.9833	1324.9695	1328.2075	1359.3405	1409.8321	1419.6656	1477.9236	1479.2264	1483.7931	1484.7625	1486.7449	1491.6699	1501.022	1508.771	1518.9931	1742.7007	2918.1205	2962.3216	2990.0101	2990.5884	2992.9275	3003.6351	3015.5095	3037.3753	3054.5695	3057.8477	3079.6808	3099.5241	3110.931	3114.656
COCC1=C(C)CCC1	COCC1=C(C)CCC1	
InChI=1S/C8H14O/c1-7-4-3-5-8(7)6-9-2/h3-6H2,1-2H3	InChI=1S/C8H14O/c1-7-4-3-5-8(7)6-9-2/h3-6H2,1-2H3
