18
gdb 55900	3.83537	0.77734	0.71752	2.194	75.71	-0.2456	-0.0415	0.2041	1567.346	0.144008	-439.074656	-439.06493	-439.063986	-439.110783	33.798	
C	 0.7749972047	 0.4863427776	-0.420405736	-0.462433
C	-0.3524516473	 0.4603313501	 0.5874395111	 0.374929
O	-0.353266868	 1.1323542545	 1.5912450426	-0.28767
C	-1.563470144	-0.4331816338	 0.2770145554	-0.263171
N	-1.1918914961	-1.6079133403	-0.5047400932	-0.082498
C	-1.0744232896	-2.8796229536	 0.1633513528	-0.254942
C	-2.1807276331	-2.6451279639	-0.83285079	-0.085863
C	-3.57755261	-2.6037536963	-0.3227260548	 0.157427
O	-4.5167603	-3.0485172187	-0.9344070606	-0.258962
H	 1.4944452327	 1.2563939405	-0.1403681583	 0.138617
H	 1.2665854643	-0.4909696414	-0.4577390165	 0.149779
H	 0.3877947194	 0.6688151986	-1.4281367938	 0.142918
H	-2.0559802946	-0.6460614162	 1.2348481618	 0.124078
H	-2.2540212995	 0.1759620901	-0.3224132068	 0.141633
H	-0.2393128024	-3.5127587872	-0.1229786647	 0.13741
H	-1.3585560205	-2.9363854592	 1.2144901927	 0.128961
H	-2.0924868986	-3.057184832	-1.8346538169	 0.119335
H	-3.7080448974	-2.1433604087	 0.6810743152	 0.080451
40.4639	59.6889	97.8812	123.5678	149.4212	227.6032	278.3425	382.9906	414.6074	418.3056	498.5482	518.635	561.6669	773.8636	797.3167	865.0197	869.2353	920.3017	1001.5455	1013.6422	1034.1667	1074.2397	1097.6798	1117.7733	1146.5892	1181.348	1227.9462	1269.2777	1309.8453	1344.5516	1351.4865	1384.5435	1444.1146	1451.7881	1460.1878	1468.7974	1506.3556	1816.3165	1819.6653	2889.7538	3007.9151	3047.228	3055.985	3088.1649	3108.561	3153.1948	3157.5846	3184.7128
CC(=O)CN1CC1C=O	CC(=O)CN1C[C@H]1C=O	
InChI=1S/C6H9NO2/c1-5(9)2-7-3-6(7)4-8/h4,6H,2-3H2,1H3	InChI=1S/C6H9NO2/c1-5(9)2-7-3-6(7)4-8/h4,6H,2-3H2,1H3/t6-,7?/m0/s1
