23
gdb 117769	2.16415	1.03094	0.95343	0.8928	88.21	-0.2559	0.0414	0.2973	1458.5837	0.201413	-388.25406	-388.242602	-388.241658	-388.290454	41.658	
C	-0.0574429316	 1.6279407126	-0.0608375911	-0.388133
C	-0.013414529	 0.0977288838	-0.0069952502	-0.181117
C	 0.8118401326	-0.498783822	-1.1532078036	-0.195811
C	 0.7617905168	-2.0472137886	-1.2536415104	 0.144515
C	 1.3327351577	-2.7258237587	 0.0014216922	-0.414221
O	-0.5840202092	-2.5312977127	-1.3341535345	-0.262801
C	-1.3252403893	-2.1758803955	-2.4845352665	-0.247434
C	 1.5442527239	-2.4702667125	-2.4304270495	 0.34173
C	 2.192305325	-2.8036816921	-3.3869608748	-0.480425
H	 0.9485897295	 2.0578052924	 0.0012250812	 0.11409
H	-0.507771024	 1.9793368226	-0.9959479433	 0.113393
H	-0.6456509911	 2.0372964363	 0.7663222508	 0.112629
H	 0.4034509657	-0.2165372451	 0.9565536235	 0.099577
H	-1.0301526233	-0.308109043	-0.0461420034	 0.112567
H	 0.472021439	-0.0773879076	-2.1063465278	 0.10221
H	 1.8635531605	-0.2038098905	-1.0582443545	 0.104598
H	 0.713231858	-2.4842029656	 0.8675433015	 0.127017
H	 1.330287012	-3.8092181579	-0.133516971	 0.131258
H	 2.3575519176	-2.3944217316	 0.1858488258	 0.119955
H	-0.8062232647	-2.4604339855	-3.4087042666	 0.120463
H	-2.2679625844	-2.7249950386	-2.4221283371	 0.125931
H	-1.551666744	-1.1011318585	-2.5244092051	 0.104748
H	 2.7652159121	-3.105454832	-4.2290077257	 0.195261
72.2365	93.6493	114.1966	118.356	166.9872	211.9247	231.879	239.3013	259.9862	285.3246	328.4952	363.1017	435.1232	454.372	570.4675	593.3526	623.4797	665.2722	731.7651	746.884	849.0234	895.0063	902.629	946.0629	1021.9477	1047.7815	1098.8827	1115.2157	1173.8998	1182.1041	1183.6826	1194.3362	1240.3296	1274.5507	1320.3494	1333.1759	1389.804	1402.4745	1413.4831	1470.1239	1475.7685	1483.3748	1492.9647	1495.2018	1499.2982	1502.8178	1508.6896	1516.0452	2225.2824	2997.0965	3028.2549	3033.9604	3042.4344	3056.0325	3057.0961	3061.9483	3078.3176	3100.392	3102.0984	3114.8255	3137.3422	3140.53	3499.1716
CCCC(C)(OC)C#C	CCC[C@@](C)(OC)C#C	
InChI=1S/C8H14O/c1-5-7-8(3,6-2)9-4/h2H,5,7H2,1,3-4H3	InChI=1S/C8H14O/c1-5-7-8(3,6-2)9-4/h2H,5,7H2,1,3-4H3/t8-/m0/s1
