16
gdb 46013	4.43069	0.99885	0.85057	2.2612	77.69	-0.2582	-0.05	0.2083	1284.8024	0.125165	-400.804322	-400.796329	-400.795384	-400.837412	29.508	
O	-0.0185766089	-0.0760137091	-0.1817011755	-0.298541
C	-0.0277825171	 1.1131358933	 0.0212197542	 0.387584
C	-1.3024452584	 1.9267882667	 0.1544414925	-0.313254
C	-1.2919516952	 2.7991119151	 1.4226674323	-0.311811
C	 0.0164562178	 3.5524119645	 1.5667140328	 0.152596
C	 1.1538063142	 3.1558618422	 0.9767107727	-0.119252
C	 1.2667969726	 1.9160761427	 0.139329559	-0.362496
C	 0.0031084726	 4.7247332846	 2.384985041	 0.21843
N	-0.0460127946	 5.6690934548	 3.0539656457	-0.329305
H	-1.3656320661	 2.5847266486	-0.7233402885	 0.131909
H	-2.1592682849	 1.2506309223	 0.1351870578	 0.132438
H	-2.1259567872	 3.5067445259	 1.396577973	 0.13782
H	-1.4513088483	 2.1774007843	 2.3131796562	 0.143407
H	 2.0585694871	 3.739667734	 1.118310595	 0.125164
H	 2.0500567402	 1.2518195071	 0.5228764005	 0.153226
H	 1.5895769162	 2.1837027731	-0.8788653286	 0.152085
57.3217	138.9429	163.6471	188.0981	361.9867	369.8092	430.6517	472.3286	523.1007	575.3415	590.9632	682.7893	735.5478	766.1415	832.1083	924.9677	951.6091	983.8407	1035.323	1052.4229	1138.9891	1147.5023	1202.7613	1214.7484	1254.8095	1313.5677	1334.6086	1356.5197	1385.5885	1431.9527	1465.6323	1487.0689	1700.1531	1829.5853	2337.124	3003.5545	3022.669	3033.1978	3064.1228	3083.0266	3119.7082	3177.4175
O=C1CCC(=CC1)C#N	O=C1CCC(=CC1)C#N	
InChI=1S/C7H7NO/c8-5-6-1-3-7(9)4-2-6/h1H,2-4H2	InChI=1S/C7H7NO/c8-5-6-1-3-7(9)4-2-6/h1H,2-4H2
