18
gdb 46115	3.51375	0.92378	0.76252	4.5568	76.17	-0.2491	-0.0258	0.2233	1432.3827	0.147942	-402.004319	-401.995766	-401.994822	-402.038368	31.453	
O	-0.0356983141	 0.0134630343	-0.3129725125	-0.303629
C	-0.0388592757	 1.1915270048	-0.0751741124	 0.403111
C	-1.2843857848	 2.0652185066	 0.1294855669	-0.325733
C	-0.7486527097	 3.3928885028	 0.682762477	-0.238986
C	 0.6617723602	 3.52035413	 0.0601121424	 0.015398
C	 1.5402711078	 4.5551007511	 0.7834010806	-0.363304
C	 2.8551220778	 4.716965514	 0.1645428762	 0.26584
N	 3.8881758542	 4.8316818171	-0.3402980543	-0.305825
C	 1.2018425621	 2.0813467547	 0.0797213203	-0.32777
H	-1.751191597	 2.2037077234	-0.854494459	 0.137617
H	-2.0179469135	 1.5602758193	 0.7617529902	 0.134771
H	-1.3855459245	 4.2505323532	 0.450983682	 0.111921
H	-0.6618133028	 3.3370984742	 1.7756007913	 0.108149
H	 0.5524427386	 3.8386240219	-0.9840751372	 0.103035
H	 1.0410959633	 5.5313824187	 0.7953825892	 0.152973
H	 1.6816505859	 4.2601292051	 1.8305842832	 0.150308
H	 1.6501383263	 1.8470553139	 1.0560877049	 0.132843
H	 1.953974516	 1.8561128348	-0.6787778489	 0.14928
67.8877	84.1439	110.0489	177.8921	282.7141	387.4901	396.9202	434.9333	482.2097	495.0326	570.8433	614.4314	730.4087	810.8645	855.8003	879.3469	929.3081	944.5837	967.1042	996.1145	1059.3955	1102.3827	1143.7786	1164.471	1172.2059	1224.5458	1257.6149	1271.3215	1293.2128	1305.7462	1341.9954	1359.896	1386.8076	1448.8674	1451.7549	1464.9727	1499.2403	1853.6075	2362.9537	3019.37	3025.2578	3031.0511	3037.2419	3041.5942	3074.0378	3095.335	3113.0774	3119.148
O=C1CCC(CC#N)C1	O=C1CC[C@@H](CC#N)C1	
InChI=1S/C7H9NO/c8-4-3-6-1-2-7(9)5-6/h6H,1-3,5H2	InChI=1S/C7H9NO/c8-4-3-6-1-2-7(9)5-6/h6H,1-3,5H2/t6-/m0/s1
