17
gdb 30035	3.22576	1.70548	1.18548	3.1813	80.39	-0.2123	-0.0133	0.1991	1024.9575	0.139004	-380.918411	-380.911294	-380.91035	-380.949854	28.068	
C	-0.0789058743	 1.5705279038	 0.0323968235	-0.386694
C	 0.024938896	 0.0353439702	 0.0158521885	-0.198606
C	 0.8489883445	-0.5277609681	-1.1365108789	-0.125879
C	 1.8626684892	-1.2692380455	-0.6717518138	-0.048767
N	 1.823246387	-1.2844805261	 0.7354484962	 0.004301
C	 2.4883327064	-1.7753276983	 1.8356990887	-0.160971
C	 1.7822513786	-1.2823654052	 2.9085199847	-0.09555
N	 0.7098029431	-0.5069919745	 2.5015908288	-0.368356
C	 0.769932951	-0.5357256688	 1.1937437869	 0.391559
H	 0.9150878274	 2.0261556222	 0.0421753563	 0.126515
H	-0.617213208	 1.9327598869	-0.8486551741	 0.114774
H	-0.6145827357	 1.8987946848	 0.9268776011	 0.1426
H	-0.9919497842	-0.3799886786	-0.0225872284	 0.118093
H	 0.6335977151	-0.3412064764	-2.1784115149	 0.113443
H	 2.632451789	-1.8089727657	-1.2031330207	 0.137787
H	 3.3605668113	-2.4022473752	 1.7619121596	 0.128945
H	 1.9866253936	-1.4439295956	 3.9562157466	 0.106807
132.5111	149.1336	239.1376	277.7934	358.2382	483.0426	552.0632	630.4577	674.0643	697.2457	705.4907	720.2892	774.915	818.5064	841.0126	903.7722	919.2301	937.6156	1026.4579	1074.7686	1079.2253	1097.4163	1101.1112	1148.7005	1198.6229	1254.71	1286.1987	1305.6631	1313.4931	1400.5795	1417.9237	1447.7104	1494.1808	1495.8842	1500.0093	1582.9732	1647.8242	3013.6634	3042.6815	3116.506	3126.2024	3236.8021	3247.8221	3259.5441	3284.4973
CC1C=CN2C=CN=C12	C[C@H]1C=Cn2ccnc12	
InChI=1S/C7H8N2/c1-6-2-4-9-5-3-8-7(6)9/h2-6H,1H3	InChI=1S/C7H8N2/c1-6-2-4-9-5-3-8-7(6)9/h2-6H,1H3/t6-/m0/s1
