16
gdb 67546	2.5278	1.77035	1.47567	2.2798	67.99	-0.2326	-0.0372	0.1954	935.1517	0.123216	-437.815536	-437.808017	-437.807073	-437.847278	29.584	
O	-0.0693918959	 1.4011236292	 0.0977451411	-0.472215
C	 0.0185802792	 0.0260935879	-0.0134968004	 0.31456
C	 1.2226278857	-0.6738597606	 0.6667756992	-0.115043
C	 1.2063924619	-2.1458266995	 0.6022665741	-0.255555
N	 1.6207551259	-1.3978108022	-0.6018609148	-0.137935
C	 0.3898102166	-0.8125368247	-1.2862636696	-0.071117
C	-0.9670815217	-1.5582481195	-1.21935488	-0.37378
C	-1.3286137753	-0.7429722287	 0.0491332859	 0.358811
O	-2.2906822728	-0.6788883132	 0.7522422715	-0.28464
H	 0.8188166725	 1.7755009352	 0.0665000074	 0.291106
H	 1.9415625546	-0.116891698	 1.2641444908	 0.101529
H	 2.0400624225	-2.6692785048	 1.0617372975	 0.131534
H	 0.2755684136	-2.7025727123	 0.6254645294	 0.130555
H	 0.661546152	-0.3588145172	-2.2370769015	 0.098354
H	-1.6208765884	-1.2664608593	-2.0488132053	 0.144962
H	-0.9824712904	-2.6477066623	-1.1410631751	 0.138873
99.2114	206.3578	258.9621	277.7188	319.4603	365.0393	470.468	480.5699	537.0794	613.7094	670.5509	737.8079	740.777	781.2188	886.3071	903.5672	957.9593	980.3605	1012.4431	1031.3616	1045.4894	1076.5991	1109.8328	1120.1209	1132.3304	1151.9044	1205.9012	1219.2579	1270.6598	1294.8575	1318.7635	1405.2109	1428.9563	1518.701	1897.3724	3055.5886	3113.91	3123.6909	3131.612	3138.842	3206.0336	3789.0776
OC12C3CN3C1CC2=O	O[C@]12[C@H]3CN3[C@H]1CC2=O	
InChI=1S/C6H7NO2/c8-5-1-3-6(5,9)4-2-7(3)4/h3-4,9H,1-2H2	InChI=1S/C6H7NO2/c8-5-1-3-6(5,9)4-2-7(3)4/h3-4,9H,1-2H2/t3-,4+,6-,7?/m0/s1
