22
gdb 78777	2.58883	1.69389	1.30647	1.6938	84.96	-0.2329	0.0816	0.3145	1085.2667	0.193433	-367.148115	-367.139184	-367.138239	-367.181402	35.036	
C	-0.2451776793	 1.5739133767	 0.0160554059	-0.431312
C	 0.0234454714	 0.0828876771	-0.1206289187	 0.091809
C	 0.6145049371	-0.6426547563	-1.3492534266	-0.149206
C	 1.1881900366	-1.6441094891	-0.2668847772	-0.051221
C	 2.3160844773	-0.7023851869	-0.1353735729	-0.080844
N	 1.0844152903	-0.5560592188	 0.7394907231	-0.181411
C	 2.0891573371	-0.1415780786	-1.5461163671	 0.329365
C	 2.7824624355	-1.037107192	-2.5865505784	-0.431403
C	 2.418601686	 1.3214868532	-1.8617859174	-0.475954
H	 0.647965858	 2.1917396281	-0.0570143277	 0.123713
H	-0.9527614661	 1.9032342942	-0.753320722	 0.114479
H	-0.7012693187	 1.7683293387	 0.992308542	 0.124044
H	-0.9016480661	-0.4413435744	 0.1507504713	 0.081935
H	 0.010257366	-0.8819182037	-2.2252499111	 0.062124
H	 1.0525093633	-2.695410741	-0.0508164934	 0.093658
H	 3.2500865766	-0.8274751484	 0.3991706319	 0.089341
H	 2.5206407898	-2.0915645058	-2.4586712274	 0.116523
H	 2.4959890547	-0.7372074481	-3.6011103079	 0.111916
H	 3.8724458523	-0.9489397096	-2.5148245185	 0.111977
H	 2.2789562085	 1.9868257802	-1.0108424937	 0.124846
H	 3.4666530827	 1.4102526426	-2.169578163	 0.111067
H	 1.807001977	 1.694994642	-2.6910376212	 0.114554
64.0543	140.4821	161.6392	250.7984	260.0064	286.9535	331.0277	354.6731	385.8997	545.4821	581.3549	627.2544	688.4388	747.0812	790.3117	833.2901	857.7943	889.286	906.3997	928.8784	947.7672	977.177	996.6634	1019.8431	1039.6225	1058.2298	1099.3379	1127.7194	1139.6614	1165.0736	1188.6432	1196.0104	1214.9348	1248.6807	1278.9294	1295.4267	1348.4216	1396.7705	1406.5972	1421.8188	1427.0489	1476.9966	1483.7613	1490.3365	1496.9782	1504.0678	1523.0015	3019.6331	3024.0867	3034.1221	3042.7822	3083.8956	3087.8564	3098.5078	3105.2068	3107.3482	3142.1915	3168.8518	3186.6511	3205.5497
CC1C2C3C(N13)C2(C)C	C[C@H]1[C@@H]2[C@H]3[C@H](N13)C2(C)C	
InChI=1S/C8H13N/c1-4-5-6-7(9(4)6)8(5,2)3/h4-7H,1-3H3	InChI=1S/C8H13N/c1-4-5-6-7(9(4)6)8(5,2)3/h4-7H,1-3H3/t4-,5+,6-,7-,9?/m0/s1
