23
gdb 108643	2.12541	1.47827	1.0034	0.1412	93.01	-0.2083	0.0317	0.24	1306.9003	0.206014	-351.171573	-351.162204	-351.16126	-351.205689	35.974	
C	 0.0107134393	 1.6071084091	 0.2998528373	-0.369789
C	-0.0235782395	 0.0995768761	-0.0125609492	-0.299808
C	-1.4156748934	-0.4627123094	-0.0656630155	 0.241581
C	-2.0864119157	-0.9313499138	-1.132484375	 0.18986
C	-1.6179928616	-1.0584305631	-2.5491247464	-0.495236
C	-3.4882931404	-1.3873254708	-0.7570561059	-0.306859
C	-3.5419847884	-1.2325745186	 0.7588044028	-0.037252
C	-2.5618877049	-2.0222713821	 1.587837103	-0.280883
C	-2.233854668	-0.5970389358	 1.1843186669	-0.11955
H	 1.041665735	 1.9711712563	 0.3524643579	 0.110076
H	-0.5133117008	 2.1772796676	-0.473631094	 0.118263
H	-0.4692927244	 1.8293108553	 1.2582668261	 0.118278
H	 0.4962278452	-0.0808270181	-0.9590692946	 0.098225
H	 0.5487015227	-0.4332234419	 0.7595364287	 0.102728
H	-1.6361377224	-2.1046710824	-2.8819520488	 0.121331
H	-2.2785762038	-0.507364026	-3.2318737978	 0.12067
H	-0.6025511878	-0.6813537864	-2.6926860232	 0.12123
H	-4.2480941675	-0.7650741926	-1.252414788	 0.098355
H	-3.683336575	-2.4184605516	-1.0835085663	 0.100484
H	-4.4774990668	-0.9437440258	 1.2230976371	 0.080155
H	-2.8310294177	-2.2049328902	 2.6234695389	 0.103463
H	-1.9993482628	-2.8230820308	 1.1171732667	 0.105488
H	-2.1807165414	 0.1639159349	 1.9558962894	 0.079188
62.1422	131.7221	157.7829	171.3516	207.4304	265.9277	299.869	357.961	398.4792	405.9807	571.0595	621.5903	651.3905	733.0624	784.2411	809.0099	818.0044	887.8613	905.9521	953.0067	972.2372	976.9317	1005.9546	1041.6867	1060.7794	1069.3055	1089.9665	1097.4972	1101.278	1144.2115	1185.0902	1191.1504	1212.4862	1233.9615	1292.8124	1324.6904	1350.2805	1366.1145	1381.4089	1407.6488	1414.6091	1473.3104	1477.9382	1479.5361	1484.7767	1493.8408	1498.1031	1507.4934	1719.344	2996.5684	3010.634	3012.7974	3023.7075	3035.3946	3051.6539	3066.6075	3104.8787	3108.6656	3113.4225	3116.6488	3158.663	3176.1241	3205.7777
CCC1=C(C)CC2CC12	CCC1=C(C)C[C@H]2C[C@@H]12	
InChI=1S/C9H14/c1-3-8-6(2)4-7-5-9(7)8/h7,9H,3-5H2,1-2H3	InChI=1S/C9H14/c1-3-8-6(2)4-7-5-9(7)8/h7,9H,3-5H2,1-2H3/t7-,9+/m0/s1
