18
gdb 49653	2.91274	1.4223	1.26179	3.2549	76.16	-0.2316	-0.0348	0.1968	1051.9718	0.148895	-401.90596	-401.898565	-401.897621	-401.938082	29.057	
O	-0.8145647248	 1.4810276902	-1.236909716	-0.266808
C	-0.1390790029	 1.2616303091	-0.2594197672	 0.125203
C	 1.1190515248	 2.0104530012	 0.018578029	-0.102525
C	 1.4386716519	 2.9105312329	 1.1902964432	-0.0503
C	 0.6934000165	 2.9467692091	 2.4995935145	-0.0348
C	-0.4947206603	 2.0552646217	 2.7595593797	-0.308206
C	 0.8857672986	 1.5796754897	 3.1316094087	-0.03752
C	 1.735245555	 0.7612129301	 2.1526063017	-0.199246
N	 2.1458802847	 1.6362747499	 1.0183602877	-0.118517
H	-0.4007483322	 0.4336795951	 0.4299790695	 0.088807
H	 1.5608077298	 2.331062862	-0.9240111527	 0.121008
H	 2.0016616058	 3.8082952495	 0.9461992935	 0.10427
H	 0.7909778288	 3.860120672	 3.0740707327	 0.096672
H	-1.1376077662	 2.3446372581	 3.585087094	 0.119955
H	-1.0381016462	 1.6172819659	 1.9340713002	 0.12451
H	 1.1166168972	 1.480787399	 4.1866782893	 0.096467
H	 2.6583200615	 0.4521186809	 2.6522449179	 0.122226
H	 1.248961478	-0.1524173364	 1.7974334342	 0.118804
74.9175	133.9131	254.5163	290.3193	335.1879	405.9481	508.5023	575.8497	670.6796	685.471	709.703	776.8543	813.9491	851.8177	880.1497	893.9908	951.7483	981.4086	1004.8276	1042.6893	1056.2832	1066.7612	1085.4262	1104.613	1118.8192	1127.4351	1164.9809	1202.2247	1231.1301	1284.8613	1328.6025	1334.5155	1347.2342	1373.2472	1403.7527	1438.8095	1496.7998	1512.0442	1796.8247	2914.5103	3053.0237	3085.3981	3118.244	3135.0009	3143.8356	3166.8507	3184.3824	3239.3634
O=CC1C2C3CC3CN12	O=C[C@H]1[C@H]2[C@H]3C[C@H]3CN12	
InChI=1S/C7H9NO/c9-3-6-7-5-1-4(5)2-8(6)7/h3-7H,1-2H2	InChI=1S/C7H9NO/c9-3-6-7-5-1-4(5)2-8(6)7/h3-7H,1-2H2/t4-,5-,6-,7+,8?/m0/s1
