14
gdb 81882	3.11096	1.33582	1.02774	2.1997	64.56	-0.2464	-0.0616	0.1849	1093.9641	0.099519	-473.789123	-473.781094	-473.78015	-473.822076	29.014	
O	-0.0863302524	 1.5030301949	 0.1152124069	-0.419645
C	 0.0556103223	 0.1247064477	 0.0022434344	 0.036114
C	-1.2276225233	-0.7330892652	 0.0639446707	-0.118184
N	-2.0327583546	-0.2923341733	-1.0479477229	-0.370098
C	-0.9700551951	-1.3183874934	-1.3321382718	 0.107842
C	-1.373833025	-2.6608710314	-1.7873503061	 0.052967
O	-2.5153017277	-3.0582559235	-1.7102472029	-0.273732
C	 0.3296679675	-0.5447545615	-1.4009337587	 0.330585
O	 1.2692287246	-0.5771180398	-2.1371950114	-0.291327
H	-0.8136979724	 1.7553272708	-0.4691249035	 0.302019
H	 0.8239263852	-0.1974983935	 0.7120409078	 0.126035
H	-1.6382626158	-1.2813194886	 0.9028928283	 0.135986
H	-2.9087568215	-0.8212342957	-1.0591363963	 0.26777
H	-0.5590336718	-3.2905908075	-2.1934518944	 0.113668
90.0913	127.4432	150.8014	220.5178	276.478	303.8012	355.7943	475.8323	556.5864	569.0324	662.7909	729.683	788.6206	801.593	857.2988	913.9377	956.3553	1004.9462	1029.7588	1085.0289	1108.6622	1155.7352	1202.6731	1259.672	1289.9385	1344.2242	1376.6885	1429.9479	1434.3127	1780.462	1895.4086	2952.9309	3080.694	3204.3862	3442.5867	3769.0747
OC1C2NC2(C=O)C1=O	O[C@H]1[C@H]2N[C@@]2(C=O)C1=O	
InChI=1S/C5H5NO3/c7-1-5-3(6-5)2(8)4(5)9/h1-3,6,8H	InChI=1S/C5H5NO3/c7-1-5-3(6-5)2(8)4(5)9/h1-3,6,8H/t2-,3+,5+/m0/s1
