21
gdb 26655	2.22456	1.52524	0.92464	1.3796	89.03	-0.1776	0.0539	0.2315	1312.6062	0.181391	-383.321921	-383.310977	-383.310032	-383.358453	38.544	
C	-0.045930991	 1.4872539286	 0.1173553651	-0.507454
C	-0.0070131977	 0.0009667126	-0.0244513266	 0.208361
C	 0.0747404468	-0.8151451506	-1.1330868428	 0.165602
C	 0.1586491103	-0.4073126567	-2.5722399885	-0.516157
C	 0.0589289831	-2.1712873886	-0.6582004127	 0.026656
N	 0.1225671405	-3.3760660367	-1.4245986914	-0.608911
C	-0.0323046699	-2.1449317617	 0.7157605041	 0.305041
C	-0.0860430599	-3.2667699505	 1.694744922	-0.511107
N	-0.0645696677	-0.819528521	 1.0839341346	-0.372784
H	 0.087254609	 1.9674485841	-0.8545364593	 0.133262
H	-1.0006045266	 1.843113032	 0.5274502401	 0.122708
H	 0.7485778148	 1.8599107115	 0.7770147178	 0.120258
H	 0.9987718305	-0.8962175906	-3.0811988155	 0.112871
H	-0.7464565928	-0.6753333671	-3.133829437	 0.115835
H	 0.2952092645	 0.6721182143	-2.6826999205	 0.11752
H	-0.4881883948	-3.3206004762	-2.2341338134	 0.228679
H	 1.0586678459	-3.5327489439	-1.7891073131	 0.229807
H	 0.804033641	-3.3126407427	 2.3363174936	 0.116266
H	-0.9596514524	-3.1993161584	 2.3557460634	 0.114701
H	-0.1497622695	-4.2056288854	 1.1401355582	 0.152147
H	-0.129631214	-0.4915550932	 2.0319026819	 0.246699
42.9142	70.9827	95.1072	142.841	169.3137	183.0447	250.0341	256.2307	281.8123	294.1684	326.0714	438.9997	520.7469	574.1077	594.1511	648.6239	684.599	733.5878	825.7675	868.3789	968.276	1004.5737	1051.0149	1052.4846	1062.3786	1067.3986	1152.0026	1214.983	1225.9415	1245.9303	1333.2571	1403.3951	1409.655	1424.3051	1448.5141	1475.5838	1478.6718	1482.841	1488.0037	1494.1847	1497.1683	1507.9399	1589.7706	1639.0058	1684.2901	3007.0046	3008.4549	3010.3991	3048.0413	3050.2645	3051.0781	3102.0493	3120.1629	3127.593	3476.8219	3543.2954	3673.0294
CC1=C(C)C(N)=C(C)N1	Cc1c(C)c(N)c(C)[nH]1	
InChI=1S/C7H12N2/c1-4-5(2)9-6(3)7(4)8/h9H,8H2,1-3H3	InChI=1S/C7H12N2/c1-4-5(2)9-6(3)7(4)8/h9H,8H2,1-3H3
