20
gdb 113510	3.3346	1.02423	0.90702	3.7448	82.58	-0.2281	-0.0257	0.2023	1372.4502	0.16924	-403.128531	-403.119308	-403.118364	-403.162985	34.044	
C	 0.4612447047	 1.5585616451	 0.1783934954	-0.378625
C	-0.16617263	 0.2014760647	-0.1282005337	-0.117472
N	 0.5396479776	-0.4440788873	-1.234957046	-0.11993
C	 1.6661210232	-1.2923520395	-0.8970906414	-0.304414
C	 0.3774616367	-1.8839265439	-1.3786831963	 0.248234
C	-0.5514415576	-2.8729626715	-0.6385842886	-0.332502
C	-0.690703013	-3.6989437307	-1.9565272395	-0.34769
C	 0.1444957129	-2.6199340874	-2.6836780126	 0.345663
O	 0.4802372515	-2.4440260803	-3.8181230165	-0.299801
H	 1.5007834158	 1.4451635077	 0.5024386163	 0.120316
H	 0.4514843026	 2.1945528872	-0.7107456885	 0.13394
H	-0.0896133629	 2.0640085051	 0.9773019779	 0.114679
H	-0.1721959145	-0.4245271951	 0.7807823332	 0.086467
H	-1.2102384581	 0.3329708041	-0.4349514449	 0.108512
H	 2.5191647251	-1.2462224826	-1.568828841	 0.132962
H	 1.9026110493	-1.4493485501	 0.15607474	 0.112181
H	-0.1031108916	-3.4062281119	 0.2012625211	 0.113254
H	-1.4921710964	-2.4252695711	-0.3089482614	 0.116681
H	-0.2037664099	-4.6780892708	-1.9433826028	 0.13392
H	-1.7045930355	-3.8208749518	-2.3460648107	 0.133622
69.5807	86.2686	134.5573	139.0517	231.8537	250.5115	294.7313	370.7668	423.1888	519.4298	540.5161	638.2516	714.1634	735.8503	775.4567	814.3664	878.5743	896.1085	927.8197	972.7983	1024.9487	1042.4318	1065.9255	1078.9379	1104.0142	1112.0575	1145.2678	1172.7579	1199.7027	1214.9859	1235.0028	1251.0817	1308.0872	1380.1135	1393.1447	1412.8037	1440.7473	1486.0378	1488.8496	1489.5492	1499.9431	1515.1956	1890.677	2953.4795	3041.3633	3053.4406	3065.4941	3072.6468	3079.6845	3110.8173	3112.9615	3124.0235	3128.7143	3179.2029
CCN1CC11CCC1=O	CCN1C[C@]21CCC2=O	
InChI=1S/C7H11NO/c1-2-8-5-7(8)4-3-6(7)9/h2-5H2,1H3	InChI=1S/C7H11NO/c1-2-8-5-7(8)4-3-6(7)9/h2-5H2,1H3/t7-,8?/m1/s1
