17
gdb 61040	2.69151	1.214	0.97649	5.6935	71.29	-0.2491	0.0104	0.2596	1223.1209	0.135615	-455.180007	-455.170862	-455.169918	-455.214949	31.859	
C	 0.2758283137	 1.388497855	-0.0245769577	-0.351581
N	-0.1279922164	-0.0056279226	 0.0835912289	-0.062389
C	-0.4007459197	-0.5356204555	 1.3205811276	 0.147189
O	-0.3170622167	 0.0759126451	 2.3639342795	-0.340887
C	-0.1619795123	-0.7809520421	-1.121742636	-0.110908
C	 1.1514005704	-1.4728879591	-1.6375124114	-0.176229
N	 0.4065251518	-2.7321032274	-1.6102043473	-0.314482
C	-0.7579182912	-2.2301300806	-1.0936461464	 0.397408
O	-1.8061740627	-2.7265159355	-0.7859369527	-0.352273
H	 1.3055183812	 1.4782965555	-0.3915416589	 0.124787
H	-0.3867038816	 1.9259398126	-0.712960476	 0.128177
H	 0.2108490539	 1.8301436032	 0.9694079649	 0.174536
H	-0.7258319497	-1.5868985067	 1.26415553	 0.112366
H	-0.6379062439	-0.1974477078	-1.9178736537	 0.118213
H	 1.4893149815	-1.1688641838	-2.6327350336	 0.119264
H	 1.9810356781	-1.426974616	-0.925596465	 0.125042
H	 0.6484098934	-3.6664958444	-1.9040473522	 0.261768
40.6221	95.0415	131.6642	148.5801	167.5525	307.1633	317.092	328.9357	362.4626	457.8484	538.9663	603.6049	734.2027	769.3557	846.6645	911.5536	956.3887	1002.227	1024.5222	1061.0612	1116.3672	1158.1877	1163.1123	1171.9547	1185.9929	1261.9305	1297.1979	1342.8424	1395.2393	1420.0855	1446.3447	1451.6544	1499.1462	1517.2522	1524.9075	1791.1624	1897.5507	3013.8519	3020.6512	3044.6699	3049.1637	3072.6256	3099.145	3161.3737	3620.3594
CN(C=O)C1CNC1=O	CN(C=O)[C@H]1CNC1=O	
InChI=1S/C5H8N2O2/c1-7(3-8)4-2-6-5(4)9/h3-4H,2H2,1H3,(H,6,9)	InChI=1S/C5H8N2O2/c1-7(3-8)4-2-6-5(4)9/h3-4H,2H2,1H3,(H,6,9)/t4-/m0/s1
