25
gdb 58773	2.37231	1.23769	1.15673	0.3029	93.04	-0.2354	0.0795	0.3148	1299.4936	0.227827	-352.346577	-352.336412	-352.335468	-352.381112	39.269	
C	 0.0571081845	 1.4469022859	-0.2446480716	-0.385123
C	 0.0375437162	-0.0497894531	 0.1096391765	-0.08032
C	 0.8140955013	-0.3184290569	 1.4086643121	-0.395562
C	-1.3799428152	-0.5741253575	 0.165019905	 0.368709
C	-2.1303403981	-0.9940790294	-1.075461352	-0.388117
C	-1.9317989931	-2.005040033	 0.0254825377	 0.296974
C	-1.2370369384	-3.3205138705	-0.1858284487	-0.497172
C	-2.9620537526	-1.7289557294	 1.1286633727	-0.275269
C	-2.4137906599	-0.2711470487	 1.2647412129	-0.294088
H	 1.0835195184	 1.8204597788	-0.3249898554	 0.105736
H	-0.4498893547	 1.6348831068	-1.1960815594	 0.114206
H	-0.450792262	 2.0367920666	 0.5270337326	 0.114327
H	 0.5495012188	-0.5905237221	-0.6991794314	 0.066677
H	 0.3823329674	 0.230453007	 2.2529319072	 0.114077
H	 0.8091467445	-1.3830134211	 1.6631444511	 0.112433
H	 1.8569454757	 0.0012941408	 1.3113956469	 0.107886
H	-3.1196157818	-0.5936411808	-1.2931211163	 0.094385
H	-1.513314432	-1.1467108828	-1.9569457568	 0.100443
H	-0.4049020071	-3.2267466665	-0.8916450094	 0.114982
H	-0.8358156338	-3.7190301491	 0.7536281629	 0.112356
H	-1.9263389552	-4.071153271	-0.5930132211	 0.117268
H	-4.0147468134	-1.8385973151	 0.8444401104	 0.089174
H	-2.7851924906	-2.3205115119	 2.0313348106	 0.095928
H	-1.9695878625	-0.0892949664	 2.2458582941	 0.099737
H	-3.1164921964	 0.5409380493	 1.0484286094	 0.090352
63.9292	121.3796	171.4007	211.4139	217.8357	240.1197	257.8505	271.6586	327.4273	343.8556	434.0315	473.6802	515.3073	570.0386	686.3662	733.191	789.1475	848.0507	878.9393	920.5417	926.7325	940.1851	962.0812	965.6233	990.459	1019.3683	1049.3521	1060.1036	1091.5255	1132.2823	1148.4974	1166.3516	1198.3819	1222.8828	1240.3035	1242.4717	1272.6631	1336.3865	1341.283	1347.9216	1395.3053	1405.6588	1416.8931	1427.9517	1481.045	1484.2306	1486.2175	1488.7631	1493.191	1499.5214	1503.6729	1511.8921	1519.1884	2999.3335	3015.0795	3026.4297	3030.9809	3032.4866	3043.0561	3070.2118	3083.182	3087.6825	3090.7714	3091.021	3097.1068	3102.1075	3104.1015	3107.3705	3179.1894
CC(C)C12CC1(C)CC2	CC(C)[C@@]12C[C@]1(C)CC2	
InChI=1S/C9H16/c1-7(2)9-5-4-8(9,3)6-9/h7H,4-6H2,1-3H3	InChI=1S/C9H16/c1-7(2)9-5-4-8(9,3)6-9/h7H,4-6H2,1-3H3/t8-,9+/m0/s1
