13
gdb 5278	4.9869	1.67654	1.26445	2.6247	62.83	-0.2605	-0.066	0.1945	898.278	0.095573	-398.650504	-398.643459	-398.642515	-398.682446	24.619	
C	-0.0164151156	 1.4838810101	 0.0040936596	-0.478442
C	-0.0248487768	-0.0284025149	 0.0237512753	 0.301641
O	-0.0460891995	-0.6906455036	 1.0365548462	-0.296294
C	-0.0015685217	-0.681444141	-1.3100222273	 0.302859
N	 0.0222031612	-0.1105682826	-2.4814044674	-0.290283
C	 0.0363162523	-1.156830509	-3.3800722295	-0.114863
C	 0.0199208613	-2.3276482956	-2.6881927703	-0.02587
O	-0.0042933255	-2.0381449795	-1.3659068584	-0.144286
H	 0.8788697367	 1.8515426788	-0.5069096374	 0.154191
H	-0.8739947089	 1.8623125944	-0.5604668822	 0.154195
H	-0.0444373321	 1.8518805859	 1.02989612	 0.141807
H	 0.0568794637	-0.9987882217	-4.446396831	 0.13559
H	 0.0220618948	-3.3701037015	-2.9573528774	 0.159755
70.7138	114.2646	184.9645	192.4235	370.1016	508.9272	559.5241	632.7375	638.3963	744.8047	798.0323	875.7021	931.8692	952.0886	959.8483	1045.0791	1120.4526	1136.8931	1151.6311	1171.8953	1301.0742	1382.4427	1407.7374	1457.8116	1466.9156	1510.5341	1576.6768	1794.025	3050.8977	3114.8411	3161.3845	3267.4052	3299.6172
CC(=O)C1=NC=CO1	CC(=O)c1ncco1	
InChI=1S/C5H5NO2/c1-4(7)5-6-2-3-8-5/h2-3H,1H3	InChI=1S/C5H5NO2/c1-4(7)5-6-2-3-8-5/h2-3H,1H3
