16
gdb 107906	3.62856	1.21486	1.14117	3.6158	68.46	-0.2476	-0.0051	0.2425	1090.6706	0.124255	-437.823974	-437.816337	-437.815393	-437.856416	28.96	
O	 0.084638986	 1.3465751352	-0.1856174594	-0.406917
C	-0.0266080215	-0.0341046473	 0.11554955	-0.189988
C	-1.4477813998	-0.512951019	 0.1081967189	 0.292738
C	-2.5933920337	-0.1677708761	 1.0603847776	-0.234525
N	-3.3536154035	-1.3711001127	 0.5100200339	-0.223668
C	-2.0081909692	-1.8785072342	-0.0322660738	-0.087191
C	-2.1622032265	-0.9443204211	-1.2232607655	-0.287339
C	-3.6109219737	-0.8832641216	-0.8799490152	 0.443956
O	-4.6409184391	-0.6562442871	-1.4270196866	-0.310046
H	-0.2927243128	 1.4896115335	-1.0601849518	 0.287991
H	 0.5817957156	-0.655335825	-0.5614668737	 0.096895
H	 0.3912245594	-0.1505086328	 1.1218438614	 0.125116
H	-2.3315811498	-0.3388392516	 2.1076961357	 0.122467
H	-3.1212578969	 0.7847909188	 0.9527164271	 0.126706
H	-1.6471913662	-2.8941988435	 0.0241469049	 0.126809
H	-1.6502574382	-0.9510767055	-2.1768998734	 0.116996
91.8962	109.9813	185.0762	262.8923	325.6522	382.3996	457.3741	500.5386	598.0629	699.5037	727.5113	784.7265	827.1951	842.3686	898.1188	906.3473	930.9258	946.6498	970.3969	1024.3073	1061.1428	1077.5996	1089.1348	1122.0605	1157.1219	1183.5498	1206.5384	1270.1681	1295.4132	1366.58	1405.1774	1436.1693	1496.266	1511.2256	1927.598	2976.284	3052.4609	3066.9479	3113.9137	3204.2707	3239.5221	3810.4135
OCC12CN3C1C2C3=O	OC[C@]12CN3[C@H]1[C@H]2C3=O	
InChI=1S/C6H7NO2/c8-2-6-1-7-4(6)3(6)5(7)9/h3-4,8H,1-2H2	InChI=1S/C6H7NO2/c8-2-6-1-7-4(6)3(6)5(7)9/h3-4,8H,1-2H2/t3-,4-,6-/m0/s1
