14
gdb 25847	3.98936	1.24637	0.96068	3.4121	70.36	-0.2611	-0.0606	0.2006	1132.6559	0.103906	-432.949853	-432.942485	-432.941541	-432.982172	27.238	
N	-0.0066571015	 1.3541359039	 0.0598327341	-0.541893
C	 0.0326047381	-0.0005190892	-0.1381292806	 0.343704
O	 1.0631881579	-0.5963703236	-0.3884698332	-0.348548
C	-1.2833224908	-0.7152032835	-0.0596207278	 0.093562
C	-2.5376413087	-0.1158730909	-0.1585382509	-0.050464
N	-3.6755995155	-0.8090791881	-0.0906490363	-0.252838
C	-3.544167696	-2.1260723684	 0.0742005918	 0.086387
N	-2.4055856958	-2.8194228326	 0.1608269805	-0.255047
C	-1.2842693419	-2.1049631499	 0.0869031328	-0.002131
H	 0.887455254	 1.8172331932	 0.1141620873	 0.267745
H	-0.7747874648	 1.7863560278	 0.5446627236	 0.262961
H	-2.6416242364	 0.9550649297	-0.322709143	 0.116308
H	-4.4658472786	-2.6991617083	 0.1394912112	 0.129165
H	-0.33817317	-2.6353930199	 0.1433356005	 0.151089
61.9899	154.3409	205.6932	363.9495	371.2515	380.603	410.9789	494.3621	562.8554	635.1312	642.4312	747.7111	773.9793	797.9899	958.0256	1011.684	1036.3661	1053.8112	1090.5467	1120.8443	1188.411	1215.8856	1247.3587	1366.8292	1369.3616	1451.7521	1460.7278	1592.2319	1621.1427	1624.0769	1785.4984	3144.7133	3169.5948	3185.8149	3591.8005	3719.7128
NC(=O)C1=CN=CN=C1	NC(=O)c1cncnc1	
InChI=1S/C5H5N3O/c6-5(9)4-1-7-3-8-2-4/h1-3H,(H2,6,9)	InChI=1S/C5H5N3O/c6-5(9)4-1-7-3-8-2-4/h1-3H,(H2,6,9)
