16
gdb 42264	2.98223	1.40947	1.05917	5.8357	76.27	-0.2446	-0.0395	0.205	1108.3763	0.125134	-396.89529	-396.887403	-396.886459	-396.928271	29.281	
N	-0.0085680639	 1.2524719534	 0.3300281733	-0.508942
C	 0.1248425874	 0.0182905667	 0.0240431499	 0.234017
C	-1.0657105317	-0.8216693543	 0.0345142314	 0.309139
N	-1.9873709713	-1.5183023673	 0.0411429045	-0.330755
N	 1.2506833185	-0.6552885748	-0.3861882412	-0.092661
C	 2.6503747124	-0.2658594502	-0.1013818621	-0.208344
C	 2.9935288147	-1.7529167594	 0.0669488193	-0.082063
C	 2.1131626308	-2.3755885684	 1.1223884787	-0.281501
C	 1.5387420733	-2.0817472103	-0.2340141447	-0.019886
H	 0.8885833313	 1.7392573162	 0.2847392913	 0.225253
H	 3.1252625592	 0.2137782756	-0.9622774457	 0.132246
H	 2.7730208273	 0.3673907969	 0.7860434013	 0.121208
H	 3.8839493506	-2.2278088571	-0.3182541174	 0.114518
H	 2.3075799182	-3.4249993171	 1.3188857734	 0.132134
H	 1.7923820315	-1.802702376	 1.9884529332	 0.127031
H	 1.0930568415	-2.8132694137	-0.8951438751	 0.128607
72.5698	97.6159	138.5498	261.0564	311.7731	358.4931	454.0294	501.1137	520.1661	674.236	721.6158	779.4954	783.8347	828.8684	855.1438	926.265	939.1569	966.0344	990.6672	1037.1021	1061.317	1080.3015	1106.311	1147.3004	1167.7097	1189.6644	1240.8329	1272.0787	1309.1446	1362.7963	1406.6213	1478.0373	1508.0534	1675.2516	2362.0217	3027.3708	3086.6404	3119.2448	3202.451	3211.6807	3227.2122	3467.7921
N=C(C#N)N1CC2CC12	[NH][C](C#N)N1C[C@H]2C[C@@H]12	
InChI=1S/C6H7N3/c7-2-6(8)9-3-4-1-5(4)9/h4-5,8H,1,3H2	InChI=1S/C6H7N3/c7-2-6(8)9-3-4-1-5(4)9/h4-5,8H,1,3H2/t4-,5-/m1/s1
