17
gdb 102956	3.32573	0.86027	0.71643	3.7453	71.14	-0.273	0.005	0.278	1523.5074	0.134449	-455.141864	-455.131901	-455.130957	-455.178258	33.806	
O	-0.1522677577	 1.4600952873	 0.1525378823	-0.41069
C	 0.0112213995	 0.0688768346	 0.0390704479	-0.071257
C	-1.3314054136	-0.6727045807	-0.1884381962	-0.160593
C	-1.1199082914	-2.1901377498	-0.361984363	-0.103826
O	-2.2877733527	-2.8317808479	-0.8376259429	-0.181845
C	-3.0905403411	-3.4396918536	 0.0715797644	 0.131258
N	-4.1666395552	-3.9687358595	-0.3095059255	-0.434196
C	-2.2353095626	-0.3850366749	 0.9270877342	 0.263582
N	-2.8999088006	-0.1415179308	 1.8415522904	-0.324919
H	-0.6326569433	 1.6455901114	 0.967767956	 0.301862
H	 0.6466443983	-0.098865828	-0.8358721805	 0.128697
H	 0.5213894969	-0.3621059746	 0.9138823454	 0.109208
H	-1.7881553662	-0.2831258353	-1.1047705674	 0.1559
H	-0.3467766665	-2.3500425411	-1.1191328438	 0.134644
H	-0.7769660632	-2.6388906367	 0.5788190444	 0.124007
H	-2.6905269613	-3.4123712561	 1.0935429407	 0.101095
H	-4.6478024893	-4.3918497141	 0.4810689436	 0.237073
46.379	54.2858	96.9934	129.2867	161.4004	176.5563	240.598	334.9481	366.2625	381.2849	422.7729	555.741	616.9218	651.8882	790.1935	817.7104	913.0848	972.5657	1038.2718	1042.5929	1074.6613	1086.7016	1106.7384	1151.0257	1203.1901	1237.1989	1266.7517	1325.0272	1376.2821	1391.6585	1402.2934	1419.99	1429.5732	1496.6007	1505.9978	1750.9545	2351.0104	2991.9846	3025.905	3038.1934	3067.4684	3085.9006	3097.269	3525.2818	3798.911
OCC(COC=N)C#N	OC[C@@H](CO[CH][NH])C#N	
InChI=1S/C5H8N2O2/c6-1-5(2-8)3-9-4-7/h4-5,7-8H,2-3H2	InChI=1S/C5H8N2O2/c6-1-5(2-8)3-9-4-7/h4-5,7-8H,2-3H2/t5-/m0/s1
