23
gdb 66378	2.52908	1.19598	1.1696	2.8006	85.15	-0.2412	-0.0187	0.2224	1241.6563	0.206483	-388.329474	-388.32024	-388.319296	-388.36346	35.743	
C	 0.0402423098	 1.5502516057	 0.0098459368	-0.422814
C	-0.0511320283	 0.020337404	 0.0024757463	 0.160795
C	 0.6272753702	-0.550957895	-1.2768199428	-0.217957
C	 0.8133104381	-2.0761338965	-1.2815849243	-0.210701
C	 1.5535704195	-2.5555710925	-0.0264127145	-0.177624
C	 0.8370637277	-2.0896519068	 1.2475090236	-0.210699
C	 0.6512880409	-0.5645525714	 1.2625586866	-0.217899
C	-1.5174156359	-0.3939836514	 0.0142496543	 0.150522
O	-2.4493846844	 0.3712548545	 0.0281093985	-0.259919
H	 1.0877312958	 1.8677131666	 0.0017900094	 0.104336
H	-0.4588176215	 1.9784788187	-0.8636547922	 0.122578
H	-0.4424393011	 1.9690344642	 0.897011898	 0.122626
H	 0.0660475147	-0.2299601157	-2.1626665449	 0.102027
H	 1.6154309971	-0.0774448818	-1.3539962484	 0.099644
H	-0.1590019341	-2.580625198	-1.3463024912	 0.099905
H	 1.3647669831	-2.3667090318	-2.182875791	 0.096566
H	 1.6492142396	-3.6468405718	-0.0331523537	 0.092878
H	 2.5757893282	-2.1515999822	-0.0338495968	 0.093225
H	-0.1339480646	-2.5948379619	 1.3250566877	 0.099897
H	 1.4053042377	-2.3898803152	 2.1351094583	 0.096565
H	 1.6408323464	-0.0918988817	 1.3260356038	 0.099636
H	 0.1069916803	-0.2529981412	 2.1622280577	 0.102046
H	-1.7042013792	-1.4905404686	 0.009175629	 0.074365
44.5164	127.0687	220.705	231.5515	261.402	266.1546	322.6051	366.0428	366.3543	414.5517	452.5831	530.2592	599.223	744.3582	784.4209	825.5863	854.0427	864.3545	907.1553	936.3993	972.1335	989.4372	1025.1468	1037.3219	1056.3948	1088.8053	1119.1905	1156.3048	1156.4939	1212.9675	1242.3433	1293.9169	1300.9287	1319.1495	1347.081	1371.2904	1381.5626	1387.9314	1388.5725	1409.8809	1437.8113	1478.3788	1483.368	1490.2527	1492.0684	1492.9298	1497.6861	1511.3772	1819.433	2883.9209	3009.6926	3010.9325	3014.0657	3025.1692	3026.2461	3041.2046	3055.0689	3056.0873	3063.8139	3065.1244	3072.9076	3112.6935	3119.1577
CC1(CCCCC1)C=O	CC1(CCCCC1)C=O	
InChI=1S/C8H14O/c1-8(7-9)5-3-2-4-6-8/h7H,2-6H2,1H3	InChI=1S/C8H14O/c1-8(7-9)5-3-2-4-6-8/h7H,2-6H2,1H3
