21
gdb 86048	3.52467	0.94051	0.92153	2.5466	79.23	-0.2508	-0.0337	0.2172	1391.2654	0.18012	-424.234981	-424.225419	-424.224475	-424.269442	36.046	
C	-0.0474444002	 1.5662916772	 0.111241424	-0.41026
C	 0.0309418285	 0.0517848541	 0.01057863	 0.058552
C	 1.1206216039	-0.5826259944	-0.9009703288	-0.269495
C	 1.349583693	-1.6738254604	 0.1732997562	 0.426667
O	 0.5672331259	-2.8022993632	-0.174986073	-0.497805
C	 2.7897232572	-2.0903737192	 0.4743151003	-0.369976
C	 2.9196096033	-3.0926542664	 1.5955047776	 0.164788
O	 1.9942647208	-3.6844015101	 2.1025409495	-0.257425
C	 0.6267051407	-0.7492025755	 1.2035526467	-0.281701
H	 0.9274370286	 1.9960317815	 0.3712321159	 0.105134
H	-0.3642435824	 2.0129125717	-0.8380681434	 0.114429
H	-0.7633450889	 1.8785983576	 0.879927195	 0.114576
H	-0.9474469098	-0.3594802808	-0.2529981702	 0.085496
H	 0.8217748261	-0.9548015172	-1.8832064429	 0.107717
H	 1.9905886752	 0.0738201951	-1.0097495229	 0.086284
H	 0.5754467807	-3.3767235627	 0.6034757107	 0.287706
H	 3.2434741741	-2.5530705313	-0.4162592417	 0.138257
H	 3.4234257667	-1.2262557304	 0.7148655816	 0.117121
H	 3.959185397	-3.2799444365	 1.9449886959	 0.092352
H	 1.3332570198	-0.1438073823	 1.7828813878	 0.083725
H	-0.0638755702	-1.243353267	 1.8902753418	 0.103859
72.0971	82.5698	144.8867	192.3929	230.6659	280.7781	298.4518	337.649	349.8436	439.7152	461.0984	541.4046	580.686	688.7923	724.499	805.461	837.633	881.6938	895.359	903.2521	938.1811	961.79	988.8339	1041.3191	1050.2008	1093.5737	1142.4069	1159.9968	1211.2377	1228.466	1234.6696	1286.5484	1291.8023	1298.3708	1331.838	1367.8132	1407.7157	1412.7924	1424.1591	1437.2532	1460.7221	1486.553	1496.2486	1496.4356	1807.2473	2888.3066	3004.4249	3019.6302	3038.5083	3045.7439	3050.9277	3062.7971	3088.3317	3089.6629	3111.1618	3117.1642	3741.7534
CC1CC(O)(CC=O)C1	C[C@H]1C[C@@](O)(CC=O)C1	
InChI=1S/C7H12O2/c1-6-4-7(9,5-6)2-3-8/h3,6,9H,2,4-5H2,1H3	InChI=1S/C7H12O2/c1-6-4-7(9,5-6)2-3-8/h3,6,9H,2,4-5H2,1H3/t6-,7-
