18
gdb 19426	3.89233	1.91822	1.60879	1.8271	71.01	-0.255	0.0936	0.3486	855.7473	0.15547	-347.78719	-347.780484	-347.779539	-347.817803	27.083	
C	-0.0591407128	 1.4944299863	-0.0001292564	-0.319833
C	 1.2744764786	 0.7890307007	-0.0586589555	-0.318007
C	-0.0072557116	-0.0077126281	 0.0171673046	 0.378697
C	-0.3841837644	-0.8341776064	 1.2512247342	-0.305019
C	-0.3261253135	-2.3110277886	 0.7799365517	-0.243548
C	-0.6015306763	-2.2292090288	-0.7106933752	 0.048916
O	-1.7277433658	-1.4049371406	-1.0456753238	-0.269164
C	-0.4072122228	-0.8453627304	-1.1602638519	-0.028047
H	-0.3292674934	 1.9997357265	 0.9215006659	 0.11327
H	-0.4188734475	 1.9875687176	-0.8972105085	 0.11509
H	 1.8206681361	 0.8034825427	-0.9969498347	 0.110571
H	 1.9075243809	 0.8127636957	 0.8223285472	 0.111883
H	 0.2719679519	-0.6392103564	 2.1036161475	 0.096515
H	-1.4050579689	-0.5885434199	 1.5562187617	 0.119321
H	 0.6728760677	-2.7391247317	 0.9281152437	 0.103413
H	-1.0398819202	-2.9490664408	 1.3096921777	 0.108077
H	-0.4448088503	-3.0898047573	-1.3565978561	 0.089873
H	-0.0960623678	-0.5775485705	-2.1675690519	 0.087993
124.3113	221.647	285.4331	325.8985	369.3226	476.0996	542.2808	671.9338	764.1323	778.4868	823.7113	840.0136	867.0773	903.6661	914.2292	940.1426	961.0149	976.8999	999.2124	1033.627	1060.5485	1075.5191	1086.088	1114.8554	1183.2021	1189.3789	1212.3082	1253.8894	1284.9097	1299.5826	1318.8051	1332.903	1386.6144	1439.5756	1467.9392	1481.0048	1493.3861	1505.9541	3037.3853	3059.763	3085.0558	3104.9443	3122.82	3128.1933	3134.6139	3147.926	3200.9342	3216.0903
C1CC11CCC2OC12	C1CC21CC[C@H]1O[C@@H]21	
InChI=1S/C7H10O/c1-2-7(3-4-7)6-5(1)8-6/h5-6H,1-4H2	InChI=1S/C7H10O/c1-2-7(3-4-7)6-5(1)8-6/h5-6H,1-4H2/t5-,6-/m1/s1
