15
gdb 5698	4.77607	2.07447	1.47791	2.9135	67.35	-0.1757	0.043	0.2187	812.2066	0.122238	-362.683894	-362.677562	-362.676618	-362.714264	24.551	
C	 0.0658538916	 1.3594921017	-0.1828283227	-0.079657
C	 1.49778136	 1.8705709246	 0.2038570658	-0.372719
C	 2.0914689217	 0.5539902865	 0.5855728277	 0.200019
C	 1.1200041625	-0.3949762468	 0.7109870752	 0.378095
O	-0.1378651544	 0.0466765942	 0.400399202	-0.291712
C	 1.6835723033	-1.5907177202	 1.2122583486	-0.323946
C	 3.0291264568	-1.3051075967	 1.3869649369	-0.066524
N	 3.270146017	 0.001280199	 1.0235388697	-0.363735
H	-0.7356670092	 2.0103194444	 0.172688692	 0.114748
H	-0.0125366114	 1.2613932456	-1.2723409511	 0.110638
H	 1.966517049	 2.3771806863	-0.6470440074	 0.109455
H	 1.4687465661	 2.5891128365	 1.0356429598	 0.111191
H	 1.1995981476	-2.530734945	 1.4214167705	 0.099381
H	 3.8349465561	-1.9403036007	 1.7181637057	 0.115589
H	 4.1758929532	 0.4345676205	 1.0106466671	 0.259176
134.5013	169.5012	300.6633	403.6963	436.6516	608.2756	623.1927	672.4458	691.2149	721.556	762.2696	797.9566	853.0952	927.9275	934.5554	991.5885	1063.5015	1079.9193	1087.6063	1156.7798	1191.6937	1231.8766	1262.5517	1297.192	1350.2	1389.0202	1454.206	1476.4015	1495.3534	1515.6033	1543.7606	1635.7971	2992.4668	3026.2122	3051.5086	3108.4678	3255.011	3272.4602	3689.5999
C1CC2=C(O1)C=CN2	C1Cc2c(O1)cc[nH]2	
InChI=1S/C6H7NO/c1-3-7-5-2-4-8-6(1)5/h1,3,7H,2,4H2	InChI=1S/C6H7NO/c1-3-7-5-2-4-8-6(1)5/h1,3,7H,2,4H2
