13
gdb 27720	2.9936	1.3167	0.91547	6.5791	71.25	-0.2061	-0.0068	0.1993	1163.6912	0.091418	-448.987586	-448.979578	-448.978634	-449.020012	29.706	
N	 0.0007739224	 1.3129963364	 0.1423217704	-0.594402
C	-0.0123225257	-0.0578406976	 0.0192392397	 0.434501
N	-1.1128812954	-0.7939261332	-0.0568862556	-0.395913
C	-0.6790061683	-2.0827848047	-0.0718824144	 0.285927
O	-1.5292222365	-3.1116442229	-0.1484465946	-0.412296
C	 0.6985068676	-2.1647289967	-0.0181208798	 0.109243
N	 1.1071104771	-0.8124778747	 0.0346882493	-0.379652
C	 1.592209335	-3.2406745809	-0.0333278893	 0.1968
N	 2.3551949819	-4.1166812457	-0.0413595161	-0.366677
H	 0.7513724601	 1.7901615372	-0.3368876943	 0.26123
H	-0.9018643693	 1.7176911086	-0.0631714211	 0.273788
H	-2.4195127975	-2.7389015108	-0.1772338005	 0.309476
H	 2.0508209586	-0.4995948849	 0.1878717464	 0.277975
128.0986	136.5137	237.0132	271.3541	310.3849	323.721	406.5558	418.4025	441.5079	537.4169	551.8872	606.3367	635.6318	675.4646	725.603	753.5818	836.7662	1059.1495	1101.6137	1161.6472	1233.3664	1268.3385	1371.0883	1456.0452	1520.7654	1605.8835	1661.9265	1672.9273	2319.5819	3563.91	3665.8707	3670.4015	3799.0061
NC1=NC(O)=C(N1)C#N	Nc1nc(O)c([nH]1)C#N	
InChI=1S/C4H4N4O/c5-1-2-3(9)8-4(6)7-2/h9H,(H3,6,7,8)	InChI=1S/C4H4N4O/c5-1-2-3(9)8-4(6)7-2/h9H,(H3,6,7,8)
