17
gdb 44579	3.01905	1.63707	1.46379	4.9675	70.91	-0.2381	0.0317	0.2698	941.1198	0.139375	-418.011901	-418.005085	-418.004141	-418.043124	27.498	
O	-0.1333122076	 0.0091939512	 0.1001937979	-0.357496
C	-0.0738220448	 1.2053526119	 0.0395117252	 0.420499
N	-1.0394893132	 2.1900803675	-0.0960997399	-0.314002
C	-0.111985907	 3.3041289444	 0.1600445525	 0.005317
C	-0.0352542715	 3.842253584	 1.5851897719	-0.063887
N	-0.157817583	 2.7748492793	 2.5971543899	-0.325719
C	 1.1761704143	 3.2927755517	 2.2597376472	-0.023363
C	 1.9478788739	 2.3890721721	 1.3069417843	-0.238847
C	 1.0586618245	 2.2672075643	 0.0568619401	-0.17842
H	-2.0102812219	 2.117738336	 0.1772907641	 0.244166
H	-0.1643072048	 4.1034422347	-0.5829877174	 0.080669
H	-0.4161538872	 4.8331479031	 1.8100713781	 0.086551
H	-0.4730086913	 3.170055853	 3.4789413323	 0.235633
H	 1.7176136743	 3.8646778667	 3.0077187006	 0.089217
H	 2.9056528184	 2.8550568722	 1.0526702912	 0.103664
H	 2.1598112439	 1.4114124178	 1.7508183606	 0.132658
H	 1.6199568829	 2.2797572802	-0.8788001386	 0.103363
100.4219	191.4731	269.611	374.7787	425.0328	487.5266	553.1198	646.2507	657.9585	707.0115	767.6458	816.1545	843.8382	854.9754	876.9102	910.7214	944.0986	980.1811	1002.8868	1027.8982	1071.062	1086.0288	1117.0135	1153.1843	1171.1013	1173.4352	1214.9553	1236.1972	1265.0991	1285.42	1330.2162	1348.2672	1364.7778	1377.8778	1427.0696	1479.3674	1897.9481	3048.5025	3080.2307	3092.3667	3106.0623	3150.5209	3165.5209	3509.4598	3588.2088
O=C1NC2C3NC3CC12	O=C1N[C@H]2[C@H]3N[C@H]3C[C@@H]12	
InChI=1S/C6H8N2O/c9-6-2-1-3-5(7-3)4(2)8-6/h2-5,7H,1H2,(H,8,9)	InChI=1S/C6H8N2O/c9-6-2-1-3-5(7-3)4(2)8-6/h2-5,7H,1H2,(H,8,9)/t2-,3+,4-,5+/m1/s1
