18
gdb 33362	6.0777	0.64539	0.60447	5.7493	91.79	-0.2769	-0.034	0.243	1789.9467	0.149406	-364.823886	-364.815087	-364.814143	-364.859559	31.311	
N	-0.3326453718	-3.7839502226	-0.7480057235	-0.341068
C	-0.2292190088	-2.6532179314	-0.5002612636	 0.19386
C	-0.1074911036	-1.3257345305	-0.2090437346	 0.098216
C	 0.0000352164	-0.1490393068	 0.0492972223	 0.048995
C	 0.1393234762	 1.2567896584	 0.371667281	-0.182041
C	-0.318484778	 1.6379637388	 1.8015531036	-0.200952
C	 0.2554785273	 3.0544792271	 1.9874420121	-0.215652
C	 1.566820636	 3.0939746212	 1.1491029038	-0.21292
C	 1.6009060135	 1.7776178748	 0.3326054932	-0.205575
H	-0.4593538671	 1.8336055827	-0.3474430751	 0.11855
H	-1.4029668151	 1.586175302	 1.9228926037	 0.113762
H	 0.1288198406	 0.9368246437	 2.5144644003	 0.116735
H	-0.456605178	 3.7948491352	 1.6087818271	 0.107481
H	 0.4236290882	 3.2892503199	 3.0412335755	 0.10765
H	 1.575211165	 3.9647286256	 0.4878903736	 0.10894
H	 2.4524217671	 3.1757707098	 1.7841579497	 0.110884
H	 2.248704185	 1.038541153	 0.8139978434	 0.118494
H	 1.963024417	 1.9096376792	-0.6893380124	 0.114642
18.2758	74.4721	76.2476	178.8963	217.469	284.6376	409.5309	496.3631	503.9404	579.2947	586.23	624.9634	753.3378	802.299	831.685	886.1101	895.2883	955.052	969.0867	984.0413	1051.8782	1070.703	1183.1061	1185.6772	1200.2989	1226.0441	1262.1813	1290.6649	1310.3894	1318.4919	1330.6283	1341.9137	1375.1736	1487.3255	1495.3978	1497.5899	1518.5953	2261.3514	2396.0141	3007.889	3048.3093	3051.3947	3057.8749	3065.5125	3087.9889	3103.3975	3109.8669	3118.7335
N#CC#CC1CCCC1	N#CC#CC1CCCC1	
InChI=1S/C8H9N/c9-7-3-6-8-4-1-2-5-8/h8H,1-2,4-5H2	InChI=1S/C8H9N/c9-7-3-6-8-4-1-2-5-8/h8H,1-2,4-5H2
