23
gdb 97644	2.25044	0.73303	0.58111	1.5049	92.12	-0.2422	0.0578	0.3	1999.0916	0.203043	-388.272182	-388.260374	-388.25943	-388.311418	40.844	
C	 0.679825319	 1.8864389113	 0.1002451059	-0.362411
C	 0.4081471006	 0.3722131566	 0.0381921508	-0.314686
C	 0.9243274989	-0.2536330878	-1.1758242936	 0.075072
C	 1.3700998219	-0.745273272	-2.1822364016	 0.044929
C	 1.8731800485	-1.3575417227	-3.4116045924	-0.137687
C	 1.9253129658	-2.8999443439	-3.3180276604	-0.163929
C	 2.907671737	-3.4126406692	-2.2644887404	-0.387435
C	 1.0276044349	-0.894693369	-4.6100095819	-0.087164
O	 1.6528165567	-1.3704866094	-5.7923169324	-0.420039
H	 1.7535555781	 2.0897074158	 0.0649078274	 0.127739
H	 0.2125515888	 2.3997978256	-0.7446320863	 0.12544
H	 0.2782937379	 2.3097383848	 1.0259484851	 0.112429
H	 0.8529625621	-0.1144907766	 0.9158573063	 0.127457
H	-0.6721752539	 0.1917705066	 0.112145302	 0.125567
H	 2.895597799	-0.9961613025	-3.5956193596	 0.105423
H	 0.9154216408	-3.2680766482	-3.0978008412	 0.093689
H	 2.1964371234	-3.2789864826	-4.3075957586	 0.115321
H	 2.9079333983	-4.506455072	-2.2282376185	 0.108869
H	 3.9304620409	-3.0876877181	-2.4866033264	 0.112019
H	 2.6483097218	-3.0404351913	-1.2686474866	 0.124501
H	 0.0051835449	-1.2896825631	-4.5048373659	 0.092181
H	 0.9636814276	 0.2030536925	-4.6045248757	 0.094054
H	 1.0948041271	-1.1430921048	-6.5411662659	 0.288659
12.4449	68.9685	89.7834	99.6044	146.0813	167.996	206.3531	210.122	245.2278	261.053	301.8326	352.7915	435.4862	493.7649	504.7505	556.8501	717.1872	785.7969	820.6107	835.3412	959.6161	981.7176	1014.732	1047.4071	1075.6315	1079.1922	1104.3879	1110.0564	1144.8113	1181.6742	1230.1248	1253.769	1281.2052	1286.7723	1322.1429	1349.4992	1359.6375	1368.8603	1407.9745	1410.5442	1447.9371	1476.458	1491.2043	1494.4946	1497.1814	1505.5708	1508.5256	1519.6188	2360.3024	2978.447	2998.9187	3017.6849	3019.1035	3031.5481	3034.6035	3043.1917	3043.9563	3086.3157	3100.153	3113.0172	3116.0648	3122.6801	3836.9096
CCC#CC(CC)CO	CCC#C[C@@H](CC)CO	
InChI=1S/C8H14O/c1-3-5-6-8(4-2)7-9/h8-9H,3-4,7H2,1-2H3	InChI=1S/C8H14O/c1-3-5-6-8(4-2)7-9/h8-9H,3-4,7H2,1-2H3/t8-/m1/s1
