19
gdb 39881	3.90073	1.53314	1.4149	2.6925	79.13	-0.2258	0.0774	0.3032	974.4804	0.162761	-381.97948	-381.972979	-381.972034	-382.010044	27.704	
C	 0.005050156	 1.5606216108	 0.0158690503	-0.341184
N	 1.235544469	 0.7284381393	 0.0329931805	-0.389065
C	-0.0669907805	 0.0902753006	 0.0170441156	 0.450846
C	-0.533806533	-0.9620383258	 1.0215994253	-0.091844
C	-2.067961452	-0.8690820826	 0.8403343966	-0.225614
C	-2.030990719	-1.3712401104	-0.6219327888	-0.065611
C	-1.3991611413	-2.7572084446	-0.4005118809	-0.162887
N	-0.1319678672	-2.0391534347	-0.0268184064	-0.154079
C	-0.5561168685	-0.9222455825	-0.9927837229	-0.10778
H	-0.1708047657	 2.1246819899	 0.9281812839	 0.120511
H	-0.2587144611	 2.0868435317	-0.8987464074	 0.11161
H	 1.6608808396	 0.7022575033	-0.8911578626	 0.232243
H	-0.1004056579	-1.0581515341	 2.0147992688	 0.085734
H	-2.6465287845	-1.5290855789	 1.4921169853	 0.096771
H	-2.4339449386	 0.1538731728	 0.959744588	 0.101109
H	-2.8994821554	-1.194300198	-1.2580334032	 0.062839
H	-1.8292386072	-3.4173014324	 0.3600703856	 0.097489
H	-1.2145040857	-3.3217050541	-1.3191619093	 0.105751
H	-0.223052087	-0.9770975803	-2.0310439685	 0.073161
159.8905	236.1297	289.8492	428.5866	466.7344	484.4617	582.0324	691.7607	733.29	804.7497	838.7887	852.8269	871.363	911.065	916.74	924.3587	947.2024	959.2976	967.018	985.931	997.1452	1015.3877	1049.053	1071.6706	1111.0821	1126.4145	1144.3259	1160.7215	1192.6202	1223.0596	1234.3156	1246.0741	1254.5821	1265.2329	1277.4342	1298.4754	1306.2231	1452.2149	1495.972	1516.5707	1525.2174	3041.7691	3059.3078	3094.4735	3099.0279	3100.965	3104.4669	3108.7845	3145.3222	3184.2577	3489.6309
C1NC11C2CC3CN2C13	C1N[C@]21[C@H]1C[C@@H]3CN1[C@H]23	
InChI=1S/C7H10N2/c1-4-2-9-5(1)7(3-8-7)6(4)9/h4-6,8H,1-3H2	InChI=1S/C7H10N2/c1-4-2-9-5(1)7(3-8-7)6(4)9/h4-6,8H,1-3H2/t4-,5-,6+,7-/m1/s1
