19
gdb 13385	5.49952	1.07034	0.97729	1.8693	71.77	-0.2453	0.0262	0.2715	1240.4698	0.166488	-365.087734	-365.079496	-365.078552	-365.121224	29.554	
C	-0.0126238518	 1.5332207102	-0.1219424766	-0.382339
C	-0.0039331027	 0.0091107302	 0.020725338	-0.169635
C	-1.4096812905	-0.5995648698	-0.0023799782	-0.181348
C	-1.4307312493	-2.1169819892	 0.1301747924	 0.091639
C	-2.8407368636	-2.7635911671	 0.0351942915	-0.20193
N	-2.7986506883	-3.6218414302	-1.1624088747	-0.263043
C	-1.6227936779	-3.5102813437	-1.6183893553	 0.121034
O	-0.7195251695	-2.7194198527	-0.9940729166	-0.231369
H	 1.0029682175	 1.9400221163	-0.1005330626	 0.114507
H	-0.4739966877	 1.8399556815	-1.0672039841	 0.116279
H	-0.5780263164	 2.0059440014	 0.6891128015	 0.112989
H	 0.5882568611	-0.4384111347	-0.7849155839	 0.116156
H	 0.4938464418	-0.2699934657	 0.9590779935	 0.094249
H	-2.010243491	-0.1854127579	 0.8194400997	 0.099841
H	-1.9251287123	-0.324606957	-0.9325760709	 0.104687
H	-0.8943957211	-2.4254930375	 1.034326408	 0.089672
H	-3.087710205	-3.3673082726	 0.9143662836	 0.116529
H	-3.6293645953	-2.0102384544	-0.0754768671	 0.113617
H	-1.2420616077	-4.0119672369	-2.5016383781	 0.138467
60.1169	96.2168	113.2249	168.3827	248.3682	317.6486	372.8582	449.4423	540.095	729.5617	751.2076	820.2359	874.9073	886.7283	912.6722	959.1722	967.6126	980.0501	1027.698	1048.8274	1080.2708	1130.1496	1131.9962	1155.8703	1222.7981	1268.7158	1290.4816	1313.8456	1324.3723	1330.4887	1355.6592	1385.0014	1407.2361	1415.4086	1472.9459	1493.3994	1500.4806	1503.9119	1509.9828	1711.2601	3009.6717	3021.3247	3029.7781	3035.5876	3038.7537	3053.2981	3071.6187	3076.0387	3098.4198	3104.1325	3212.0446
CCCC1CN=CO1	CCC[C@H]1CN=CO1	
InChI=1S/C6H11NO/c1-2-3-6-4-7-5-8-6/h5-6H,2-4H2,1H3	InChI=1S/C6H11NO/c1-2-3-6-4-7-5-8-6/h5-6H,2-4H2,1H3/t6-/m0/s1
