21
gdb 78055	2.8534	1.15205	1.06675	0.6146	78.78	-0.2372	0.0667	0.3039	1253.2279	0.18032	-424.190687	-424.181101	-424.180157	-424.224202	37.31	
C	-0.0993454406	 1.5093050182	 0.0411574302	-0.405852
C	-0.0121327415	-0.0120355237	-0.012684456	-0.050455
C	 0.747442107	-0.5542016021	-1.236004711	-0.093787
C	 1.825507046	-1.1666847923	-0.3168978677	-0.186512
C	 1.0898674579	-0.646354022	 0.9253444152	 0.120608
O	 1.8237500376	 0.2493106551	 1.7302077357	-0.429668
C	 0.9455234535	-2.0367100529	-1.1892045529	 0.395709
C	-0.0602061533	-3.0436283022	-0.6762147316	-0.463645
O	 1.5981432147	-2.4661013271	-2.3641424352	-0.473046
H	 0.8638857181	 1.9843231795	-0.1775967899	 0.100072
H	-0.8120675708	 1.8745428899	-0.7053525112	 0.117121
H	-0.4266491466	 1.852289988	 1.026415025	 0.127355
H	-1.0159342654	-0.4301909166	 0.1271683822	 0.066961
H	 0.8744858667	-0.0300909848	-2.1768417301	 0.089647
H	 2.903941703	-1.1924155155	-0.4340650041	 0.082634
H	 0.7254111001	-1.4086383428	 1.6213534171	 0.080777
H	 2.260045665	 0.8845074582	 1.152442096	 0.279671
H	-0.6068885906	-2.6869869398	 0.1991882793	 0.126782
H	-0.7844485685	-3.2789286658	-1.4623712761	 0.127319
H	 0.4428745597	-3.976033487	-0.3910163284	 0.107753
H	 2.1376108481	-3.2314269745	-2.1360887367	 0.280557
109.4148	180.0214	207.6918	216.6298	254.9562	258.6256	291.353	310.5048	324.2205	356.8989	437.9631	478.2555	483.1105	552.1958	690.0977	773.0754	804.5348	851.584	895.2724	923.333	961.6556	978.3301	1006.3011	1022.381	1049.7968	1083.3302	1096.737	1101.3093	1124.8418	1183.7946	1204.8611	1241.8224	1270.851	1274.9135	1286.5379	1312.5028	1364.219	1407.5877	1414.4285	1434.0444	1438.2807	1489.248	1490.3315	1502.8591	1503.3253	3026.5033	3029.0926	3030.8526	3055.2401	3090.9143	3091.7576	3115.4832	3126.7837	3163.8329	3175.6923	3793.268	3807.761
CC1C2C(C1O)C2(C)O	C[C@H]1[C@H]2[C@@H]([C@H]1O)[C@]2(C)O	
InChI=1S/C7H12O2/c1-3-4-5(6(3)8)7(4,2)9/h3-6,8-9H,1-2H3	InChI=1S/C7H12O2/c1-3-4-5(6(3)8)7(4,2)9/h3-6,8-9H,1-2H3/t3-,4-,5-,6-,7+/m0/s1
