19
gdb 64007	2.67334	1.59418	1.29508	2.2494	76.75	-0.2382	0.0035	0.2418	1042.814	0.158504	-422.990757	-422.982441	-422.981497	-423.023072	32.747	
C	-0.0083668714	 1.5354186692	 0.0199988173	-0.423388
C	-0.0123442011	 0.007326083	-0.008663204	 0.331539
O	-1.3376567529	-0.4978952725	-0.0871661871	-0.481285
C	 0.9290115842	-0.5506473487	-1.154425755	-0.30246
C	 2.291407015	-0.6444349079	-0.4760372521	-0.212144
C	 2.0956988058	-0.7504130227	 0.8335709062	 0.195152
C	 2.4966193153	-0.2469937575	 2.196304416	-0.158577
O	 1.1174030797	 0.2048421387	 2.384667164	-0.309348
C	 0.6712994431	-0.600963755	 1.2378676969	 0.089957
H	 1.007885654	 1.9279570064	 0.1045561607	 0.125828
H	-0.4478778604	 1.92944363	-0.9044616444	 0.098847
H	-0.5885945664	 1.9002172204	 0.8706196713	 0.136242
H	-1.788634067	-0.0471701671	-0.8084475076	 0.276263
H	 0.5427219751	-1.5192240545	-1.4950104915	 0.115134
H	 0.9493870593	 0.1139090901	-2.026318595	 0.097324
H	 3.2326653638	-0.5141364835	-0.9971150224	 0.099836
H	 2.760520289	-1.0111685828	 2.9387522129	 0.11106
H	 3.2223278113	 0.5722456588	 2.2375489461	 0.119302
H	 0.1143817036	-1.4784659743	 1.5885388974	 0.090717
114.6942	204.8254	236.0978	254.6863	272.4919	302.4944	323.7749	369.4481	431.8087	509.0192	577.6571	645.5261	744.9017	786.0457	836.0157	891.8552	905.1886	924.6989	947.8749	954.2294	977.3111	1003.3971	1025.789	1090.3112	1121.8788	1126.3968	1139.7024	1165.3265	1212.317	1239.2531	1268.9704	1294.7277	1338.282	1344.5328	1379.1017	1404.9435	1478.9823	1489.2084	1491.9768	1509.5467	1745.0005	3014.9765	3024.5074	3030.7702	3035.0628	3063.866	3072.4638	3106.7814	3134.9058	3198.574	3812.996
CC1(O)CC=C2COC12	C[C@@]1(O)C[CH][C]2CO[C@@H]12	
InChI=1S/C7H10O2/c1-7(8)3-2-5-4-9-6(5)7/h2,6,8H,3-4H2,1H3	InChI=1S/C7H10O2/c1-7(8)3-2-5-4-9-6(5)7/h2,6,8H,3-4H2,1H3/t6-,7-/m1/s1
