19
gdb 104682	2.72359	1.39376	1.09442	1.9686	70.71	-0.2399	0.0508	0.2907	1133.4492	0.158779	-460.067638	-460.05908	-460.058135	-460.101084	32.958	
O	 0.6057486044	 0.0801289541	 1.4381997174	-0.424883
C	 0.1228120902	-0.0845967599	 0.1190933891	-0.15428
C	-1.3261166431	-0.6228838531	 0.0615364782	 0.296097
C	-2.1392473801	-0.1307623038	 1.2612009407	-0.16919
O	-1.9365950317	 1.2650201494	 1.5203021506	-0.431199
C	-2.0703651791	-0.6482747378	-1.3212814297	-0.006896
C	-1.1545936703	-1.791709733	-1.8153281431	-0.237191
C	-1.6242976239	-2.0972112874	-0.3721879566	 0.003129
O	-2.9897367678	-1.6769199219	-0.785069538	-0.313625
H	 0.0816748654	 0.7965432379	 1.8199909128	 0.296193
H	 0.1663118797	 0.8654877971	-0.4369523659	 0.086819
H	 0.819744957	-0.7688975177	-0.3694663313	 0.11033
H	-3.1974363179	-0.3641393452	 1.1255078768	 0.124827
H	-1.7856641566	-0.6372106903	 2.1629857735	 0.125227
H	-2.3353544901	 1.7661643008	 0.802099631	 0.28838
H	-2.5146378866	 0.1728332256	-1.8883794475	 0.087882
H	-1.6098117298	-2.4295374462	-2.5730600225	 0.112709
H	-0.1007455025	-1.5924895822	-2.0113823665	 0.106755
H	-1.5400385072	-3.0183378865	 0.2060240708	 0.098916
50.6403	133.7895	179.4853	264.2346	273.37	305.1511	344.4213	412.8338	439.244	540.1982	629.9616	643.4614	718.2289	751.1248	787.0732	854.8697	875.3279	910.2903	937.7434	1009.4481	1017.279	1041.9489	1056.211	1076.7938	1102.9481	1126.6017	1153.6406	1168.4365	1200.496	1212.6711	1230.8834	1249.4548	1280.0015	1302.2604	1363.3021	1403.6293	1417.2772	1443.9156	1495.6729	1499.6968	1508.1513	2971.6525	3068.5957	3078.8384	3091.4919	3099.7074	3113.644	3118.6609	3158.9159	3760.8058	3821.2701
OCC1(CO)C2CC1O2	OCC1(CO)[C@H]2C[C@@H]1O2	
InChI=1S/C6H10O3/c7-2-6(3-8)4-1-5(6)9-4/h4-5,7-8H,1-3H2	InChI=1S/C6H10O3/c7-2-6(3-8)4-1-5(6)9-4/h4-5,7-8H,1-3H2/t4-,5+
