17
gdb 61504	3.7237	0.83021	0.76292	1.415	71.7	-0.2585	-0.0046	0.2539	1467.4771	0.134055	-455.16826	-455.158186	-455.157242	-455.204514	34.272	
C	-0.0798728642	 1.4047855872	 0.0541036084	-0.356038
N	 0.0859408171	-0.0385692924	-0.0078547475	-0.022786
C	 0.0718891469	-0.8004098156	 1.2144694676	-0.209851
C	-1.3643361924	-1.0308686522	 1.7577729943	-0.017102
O	-2.1883255107	-1.7093594811	 0.8361102897	-0.397609
C	-1.2973059333	-1.7275889196	 3.0564270843	 0.253966
N	-1.2132111661	-2.3058727571	 4.053375573	-0.304917
C	 0.1418445377	-0.6637420643	-1.225140628	 0.163547
O	 0.0873557755	-0.1115478591	-2.3001427321	-0.330368
H	 0.6807930695	 1.84869538	 0.7057712461	 0.130178
H	 0.0307228437	 1.7917202421	-0.958716766	 0.177293
H	-1.071037294	 1.6866568257	 0.4296223353	 0.131599
H	 0.5339261599	-1.7778690227	 1.0364149257	 0.131761
H	 0.6694030145	-0.2941263987	 1.9817714938	 0.13476
H	-1.8457201968	-0.0604473229	 1.9187556841	 0.149267
H	-1.881890412	-2.6204339244	 0.7555029168	 0.299118
H	 0.2667033547	-1.758742735	-1.1154520956	 0.067182
41.3691	63.484	95.7913	128.5481	163.2091	242.0205	279.6501	319.0015	322.8892	351.5063	414.2735	445.1322	531.3987	587.9103	712.4291	861.6317	883.9793	943.0512	1021.58	1034.0423	1091.3024	1107.4213	1156.8524	1196.2725	1280.1896	1291.1577	1323.3844	1386.2226	1419.8178	1427.3333	1440.6361	1443.9976	1475.069	1498.4617	1518.2478	1806.5222	2354.5724	2937.8767	3021.7076	3034.7842	3066.0839	3076.8902	3087.6687	3159.6849	3798.4227
CN(CC(O)C#N)C=O	CN(C[C@@H](O)C#N)C=O	
InChI=1S/C5H8N2O2/c1-7(4-8)3-5(9)2-6/h4-5,9H,3H2,1H3	InChI=1S/C5H8N2O2/c1-7(4-8)3-5(9)2-6/h4-5,9H,3H2,1H3/t5-/m0/s1
