21
gdb 106208	2.75728	1.6806	1.27013	0.1589	86.45	-0.2168	0.0089	0.2257	1074.4104	0.183641	-349.903749	-349.896052	-349.895108	-349.935718	31.706	
C	-0.2156586507	 1.5190314096	-0.006815761	-0.378116
C	 0.1400348374	 0.0282470311	 0.0684991117	-0.307213
C	 0.7918724019	-0.494777792	-1.1979868572	 0.356328
C	 2.1747064114	 0.0362166517	-1.5787419318	-0.163262
C	 2.4822708799	-0.5997210337	-2.7088730155	-0.120639
C	 1.2750741965	-1.4841919817	-2.9613661899	-0.06012
C	 0.803863562	-2.0374229213	-1.5667761598	-0.0895
C	-0.6655672025	-1.9543457423	-2.0425477551	-0.265447
C	-0.0026766046	-0.6580483476	-2.5631706399	-0.074383
H	 0.6685549227	 2.1325352843	-0.2088394436	 0.117604
H	-0.9380876473	 1.7114417998	-0.8070148229	 0.118308
H	-0.6558923656	 1.8676467259	 0.9324734854	 0.110848
H	 0.8247264163	-0.1428403676	 0.9098812818	 0.096148
H	-0.7646706681	-0.5465346334	 0.2963860598	 0.096545
H	 2.7480255979	 0.762139192	-1.0180085427	 0.09742
H	 3.3706391078	-0.5327514502	-3.3211148802	 0.10074
H	 1.2374731785	-2.1363742188	-3.8348455937	 0.060529
H	 1.2851053311	-2.8342383126	-0.9913925016	 0.062343
H	-0.9692083959	-2.6811164548	-2.8014163502	 0.087186
H	-1.4396413462	-1.8544136284	-1.2785718464	 0.091395
H	-0.4580452726	 0.1457521	-3.1493861772	 0.063286
83.8933	169.9252	202.1055	327.6753	342.3482	413.8117	466.6178	504.606	608.893	680.2319	694.7821	759.8874	781.1616	796.0243	832.3325	890.4026	900.1222	906.9153	908.4673	949.4495	969.6226	987.6869	1031.1575	1051.2906	1067.2814	1080.8394	1084.6612	1110.7347	1133.9432	1180.9824	1182.9455	1201.6893	1221.4789	1239.901	1273.9501	1294.2853	1316.744	1341.5113	1369.3911	1411.6099	1483.3835	1498.076	1505.8073	1524.9876	1640.1156	3019.7567	3034.265	3050.3718	3058.4542	3064.8917	3073.6242	3102.6315	3104.668	3111.0628	3111.3882	3212.4658	3241.6076
CCC12C=CC3C1CC23	CC[C@@]12C=C[C@H]3[C@@H]1C[C@@H]23	
InChI=1S/C9H12/c1-2-9-4-3-6-7(9)5-8(6)9/h3-4,6-8H,2,5H2,1H3	InChI=1S/C9H12/c1-2-9-4-3-6-7(9)5-8(6)9/h3-4,6-8H,2,5H2,1H3/t6-,7-,8+,9+
