21
gdb 116543	2.258	1.23522	0.92225	2.2937	83.58	-0.23	0.0384	0.2684	1374.6144	0.181073	-420.378857	-420.368565	-420.367621	-420.415249	36.07	
C	-0.2078832105	 0.9791302229	-0.2758420043	-0.36472
C	-0.0270372936	-0.5265099246	-0.0523029493	-0.126659
N	 0.7380944787	-1.1381612126	-1.1312107464	-0.316953
C	 1.9962822736	-1.2199021635	-1.026442354	 0.444313
O	 2.6835479326	-0.7165990036	 0.0321773449	-0.254212
C	 4.0587968526	-1.0523398544	 0.2074645782	-0.237608
N	 2.7980387972	-1.87489959	-1.9790226852	-0.146315
C	 3.3447006252	-1.0722078386	-3.0870700333	-0.23604
C	 2.2537745287	-2.0607929432	-3.3121741563	-0.211947
H	 0.7580752879	 1.4918652036	-0.2381471426	 0.117132
H	-0.6598074769	 1.1716970697	-1.2537092355	 0.117013
H	-0.8553130632	 1.4104784258	 0.4946865975	 0.106246
H	 0.4404024014	-0.695864346	 0.9266172643	 0.097688
H	-1.011671523	-1.0076861997	-0.0357254869	 0.092918
H	 4.6891102701	-0.5868776329	-0.5572170897	 0.124409
H	 4.33269863	-0.6565553862	 1.1873224141	 0.131393
H	 4.2131526904	-2.1338767232	 0.1843286028	 0.140245
H	 3.0739034604	-0.0198832315	-3.1184918734	 0.13182
H	 4.3694383546	-1.2988685987	-3.3665467615	 0.12138
H	 2.4833997934	-3.0193457454	-3.7672036938	 0.121381
H	 1.2513221004	-1.680684928	-3.4775173897	 0.148514
41.7034	78.6789	84.0683	117.3318	177.293	202.1496	219.8312	273.2458	279.1134	365.0047	450.0165	575.913	584.7604	730.2074	752.0151	816.7082	826.8081	879.0547	927.6429	954.6009	1038.1868	1064.1095	1090.2183	1112.3856	1124.3282	1139.3327	1170.5338	1175.6085	1181.5472	1185.3255	1197.1807	1247.7648	1307.3629	1356.8509	1372.7981	1398.2908	1477.7552	1486.6579	1489.3635	1492.3811	1497.3067	1502.5705	1511.7649	1515.3914	1745.415	3012.5988	3035.1605	3037.2509	3052.3425	3106.8805	3108.8658	3110.2471	3113.9007	3127.0938	3138.1948	3198.6429	3224.2322
CCN=C(OC)N1CC1	CCN=C(OC)N1CC1	
InChI=1S/C6H12N2O/c1-3-7-6(9-2)8-4-5-8/h3-5H2,1-2H3	InChI=1S/C6H12N2O/c1-3-7-6(9-2)8-4-5-8/h3-5H2,1-2H3
