19
gdb 78640	3.18563	1.54217	1.19168	0.6286	82.83	-0.2102	-0.0301	0.1801	1071.8475	0.158443	-385.787285	-385.77945	-385.778505	-385.818884	32.082	
C	-0.5754383574	 1.3062929241	 0.1629570612	-0.398087
C	 0.1632715278	-0.0267812496	 0.1512445114	-0.032557
C	 1.0032952971	-0.2248334399	-1.1685875262	-0.076563
C	 2.2554372174	 0.3303819278	-0.5339940857	-0.190678
C	 1.5768244831	-0.1172490977	 0.769162037	 0.035298
C	 1.9732073898	-1.3564171142	 1.1361789324	-0.115501
C	 2.7616845251	-1.9998588393	 0.0097691737	-0.323241
C	 2.3593395798	-1.034404572	-1.1281286268	 0.384289
O	 2.8592383096	-1.2448299883	-2.4106560438	-0.476422
H	 0.0905058441	 2.13081584	-0.1099877864	 0.118455
H	-1.4136518722	 1.2963785536	-0.5427983426	 0.112632
H	-0.9797684199	 1.5104348864	 1.1595313569	 0.118424
H	-0.5092271176	-0.841827958	 0.4407162141	 0.07203
H	 0.6284883807	 0.0196621271	-2.1599411934	 0.096168
H	 2.828276158	 1.222328119	-0.7495662738	 0.088607
H	 1.3608162747	-1.9767834255	 1.7856316309	 0.095
H	 3.8593301965	-2.0330345023	 0.0956135293	 0.094578
H	 2.422022927	-3.0329316589	-0.1317509298	 0.113925
H	 3.8198452865	-1.1705895724	-2.3724894584	 0.283643
183.174	225.7135	234.7031	255.4201	295.5373	372.4767	395.4271	411.2071	480.7702	574.3393	647.0061	695.3504	750.8035	807.7045	816.8461	853.4207	865.4201	888.3157	918.6215	957.0583	1005.9517	1026.5706	1040.4484	1063.7495	1077.6292	1114.4187	1138.716	1159.6677	1190.7228	1211.3483	1226.5894	1274.6985	1297.8442	1304.5654	1369.4491	1377.0695	1407.2508	1477.765	1491.7521	1494.014	1578.9682	2976.3688	3030.2217	3043.744	3054.0673	3096.5861	3109.5937	3138.2784	3155.3763	3199.5529	3786.2703
CC1C2C3C1=CCC23O	C[C@H]1[C@H]2[C@H]3[C]1[CH]C[C@@]23O	
InChI=1S/C8H10O/c1-4-5-2-3-8(9)6(4)7(5)8/h2,4,6-7,9H,3H2,1H3	InChI=1S/C8H10O/c1-4-5-2-3-8(9)6(4)7(5)8/h2,4,6-7,9H,3H2,1H3/t4-,6+,7-,8-/m1/s1
