20
gdb 120062	4.3747	0.95973	0.91902	0.7385	78.05	-0.2233	0.0815	0.3048	1327.9935	0.171777	-403.058691	-403.050476	-403.049532	-403.09208	31.571	
O	-0.0076688131	 1.4287626799	 0.0493836365	-0.423491
C	-0.0108431011	 0.0199047098	-0.1351278547	-0.066701
C	-1.421028799	-0.483426464	 0.1530755885	-0.224851
C	-1.5330982435	-1.9955911933	 0.0387079644	 0.062837
C	-2.8686391991	-2.7218609284	 0.0130611695	-0.114417
C	-3.3035440357	-2.7773354555	-1.4678789172	-0.085101
C	-2.2045164368	-2.0859989702	-2.2520196288	-0.180138
N	-1.1867835829	-2.6747227723	-1.2914841354	-0.190689
C	-2.2695277099	-3.7206283408	-0.9287925777	-0.028019
H	 0.8695667543	 1.7565397561	-0.1686162315	 0.284696
H	 0.2790768096	-0.2527973709	-1.1607794721	 0.103407
H	 0.7034743679	-0.4738672558	 0.5437910301	 0.08484
H	-1.6951325067	-0.1926628523	 1.1749980635	 0.106108
H	-2.1268655312	 0.0275849756	-0.5083538104	 0.108624
H	-0.8752039173	-2.4637131211	 0.7804526003	 0.078773
H	-3.5803796597	-2.8967267533	 0.8109911291	 0.087599
H	-4.3296256533	-2.9920740671	-1.7399064957	 0.089761
H	-2.0500992204	-2.5402158549	-3.2343725866	 0.107831
H	-2.1898124635	-0.9963922106	-2.351948465	 0.100626
H	-2.1368122086	-4.7926804909	-0.9216926571	 0.098303
68.3804	93.3511	124.5178	261.4078	274.0655	341.5409	372.4189	489.5591	596.6984	708.8397	753.4269	791.2213	809.6841	810.037	825.4599	861.628	918.7328	947.2422	989.3609	1002.1484	1022.7412	1032.4872	1038.0035	1044.1869	1080.9912	1095.734	1129.353	1142.3488	1170.2201	1187.4115	1218.6836	1230.6646	1256.9491	1282.3551	1300.7193	1308.1476	1326.621	1364.9935	1418.8435	1460.0111	1486.5704	1520.6756	1528.6688	2967.7246	3005.1402	3032.3777	3039.5679	3049.9663	3088.511	3102.0161	3182.9634	3191.3263	3224.5229	3830.2733
OCCC1C2C3CN1C23	OCC[C@H]1[C@H]2[C@H]3CN1[C@@H]23	
InChI=1S/C7H11NO/c9-2-1-5-6-4-3-8(5)7(4)6/h4-7,9H,1-3H2	InChI=1S/C7H11NO/c9-2-1-5-6-4-3-8(5)7(4)6/h4-7,9H,1-3H2/t4-,5+,6-,7-/m1/s1
