19
gdb 65298	2.57753	1.35937	1.13695	0.9756	83.01	-0.2359	0.0347	0.2706	1161.3527	0.156947	-385.825999	-385.816869	-385.815925	-385.859674	35.091	
O	-0.249921429	 1.3432968196	-0.2203236006	-0.44518
C	-0.0574126124	-0.036425257	-0.0501421083	 0.148453
C	-0.315688043	-0.6183195901	 1.3367735546	-0.425035
C	-1.3239337158	-0.8084001577	 0.2457646633	 0.321862
C	-2.7253972366	-0.2007380223	 0.1062788419	-0.290484
C	-3.0780667836	-1.3595653735	-0.8741885158	-0.203135
C	-1.7650694215	-2.092620239	-0.4647388976	-0.297647
C	 0.9608738564	-0.6247424605	-0.8796515751	 0.321465
C	 1.8220413202	-1.0996088483	-1.5735740242	-0.492671
H	 0.5648172075	 1.7881592952	 0.0388476551	 0.287836
H	 0.2807677187	-1.468339169	 1.6523416463	 0.12023
H	-0.5415000431	 0.1096132663	 2.1100704263	 0.11708
H	-3.2952665554	-0.2414100836	 1.039756551	 0.099898
H	-2.7664100263	 0.8162854023	-0.2870257742	 0.121595
H	-4.0113503596	-1.8922935659	-0.6813692059	 0.097351
H	-3.0698941781	-1.0399893105	-1.9187759671	 0.109428
H	-1.1166868732	-2.4443387005	-1.2709077761	 0.112521
H	-1.9373193792	-2.9183044995	 0.2326735454	 0.100424
H	 2.5797959139	-1.5178979361	-2.188687179	 0.196008
75.2117	116.5548	134.3666	223.9173	231.8555	281.7434	341.156	418.199	435.1494	506.8314	551.7064	576.1347	633.3602	671.9414	675.7555	728.2288	781.882	854.9586	882.7476	897.3712	918.4523	937.5403	959.1098	1043.4949	1056.8094	1106.2136	1141.1907	1167.421	1218.8831	1230.733	1252.8815	1253.4608	1268.0879	1288.0074	1317.044	1399.3486	1468.1281	1476.4552	1482.8031	1505.0208	2226.3438	3050.53	3055.5281	3069.2385	3100.9794	3115.4886	3120.5466	3128.944	3214.8888	3501.0586	3798.2539
OC1(CC11CCC1)C#C	O[C@]1(CC21CCC2)C#C	
InChI=1S/C8H10O/c1-2-8(9)6-7(8)4-3-5-7/h1,9H,3-6H2	InChI=1S/C8H10O/c1-2-8(9)6-7(8)4-3-5-7/h1,9H,3-6H2/t8-/m0/s1
