21
gdb 65273	2.95744	1.29442	1.11192	1.163	77.89	-0.2426	0.0772	0.3198	1183.1698	0.183001	-424.216824	-424.208064	-424.20712	-424.250521	33.817	
O	 0.1378621464	 1.3752833492	 0.0911459799	-0.468649
C	 0.0530818179	-0.0156193444	-0.0988265651	 0.388846
C	 0.9240928769	-0.5532283021	-1.1900305719	-0.292824
C	 1.2491119914	-0.8514821068	 0.2637589547	-0.329627
C	-1.3584561109	-0.542171061	 0.1166490034	 0.063891
C	-2.3955930252	 0.0338814964	-0.8806378538	-0.245107
C	-2.7016030685	-1.1574751138	-1.8045383318	-0.216061
C	-2.4774971533	-2.3396177595	-0.8609384768	-0.065287
O	-1.3751080748	-1.9625802826	-0.0425755391	-0.270949
H	 0.0715531438	 1.5470507165	 1.0375387968	 0.280429
H	 0.5445882895	-1.3694888476	-1.792366163	 0.116836
H	 1.5478974609	 0.1650682013	-1.7088649657	 0.117235
H	 2.0941631751	-0.3316133706	 0.7016667304	 0.10685
H	 1.0753267637	-1.8595064954	 0.6202583614	 0.128261
H	-1.6517126714	-0.2977115924	 1.1513657001	 0.057301
H	-3.2999464156	 0.3444763414	-0.3486887303	 0.097777
H	-2.0025666316	 0.9064904694	-1.40441422	 0.124364
H	-3.7109670998	-1.1308208767	-2.2226492458	 0.099934
H	-1.9903399211	-1.1991932421	-2.6351859359	 0.111166
H	-3.3711068479	-2.5225056766	-0.2420523791	 0.088582
H	-2.2156791357	-3.2741300727	-1.3656796682	 0.107031
59.8167	83.898	185.9404	239.2171	263.143	296.8902	343.4923	386.1452	460.6356	500.0365	598.1355	701.2787	721.1288	779.4535	851.1528	889.554	897.2786	924.6936	935.4558	951.5612	967.0464	973.8999	1001.65	1051.8736	1064.3732	1082.4134	1111.8863	1119.041	1193.7136	1196.1445	1199.7467	1260.8148	1263.8683	1276.1291	1310.5816	1321.6096	1341.4385	1379.6369	1390.7078	1401.814	1437.6391	1487.8394	1495.8815	1504.2842	1526.3197	2950.8912	2972.4449	3055.7535	3059.6291	3083.3644	3107.2298	3125.389	3138.7445	3145.8247	3230.0787	3242.9782	3786.6785
OC1(CC1)C1CCCO1	OC1(CC1)[C@H]1CCCO1	
InChI=1S/C7H12O2/c8-7(3-4-7)6-2-1-5-9-6/h6,8H,1-5H2	InChI=1S/C7H12O2/c8-7(3-4-7)6-2-1-5-9-6/h6,8H,1-5H2/t6-/m1/s1
