16
gdb 27191	3.46107	1.60546	1.22676	2.6882	76.72	-0.1815	0.016	0.1976	997.5217	0.127363	-396.892251	-396.885286	-396.884342	-396.923484	27.793	
N	-0.0706585771	 1.3720902363	-0.2139450803	-0.597323
C	-0.0892444186	-0.0102386841	-0.0417965791	 0.210382
C	-1.1295382665	-0.8807143521	 0.204259027	 0.123042
C	-2.5041712346	-1.4402426292	-0.1024841181	-0.203467
C	-2.410638291	-2.2437810545	-1.3915862535	-0.272511
C	-1.8308045228	-2.8126077609	-0.1220100757	-0.020688
N	-0.5571111783	-2.1514825785	 0.2183918885	-0.003649
C	 0.7637180842	-2.0147071514	-0.0633541568	-0.033866
N	 1.086214056	-0.7319926113	-0.1277339251	-0.306588
H	 0.8568126503	 1.7450056478	-0.0574175981	 0.25
H	-0.7532480432	 1.8624611408	 0.3464399421	 0.244609
H	-3.4471073201	-1.1713820856	 0.3531743791	 0.106557
H	-3.3298126292	-2.7184476419	-1.7269517022	 0.119943
H	-1.7493948882	-1.9131306769	-2.1862512451	 0.135882
H	-2.1228247434	-3.7459562109	 0.3392188955	 0.118508
H	 1.4650578825	-2.8339397775	-0.1106012382	 0.129169
118.049	201.7179	254.1767	304.2454	397.0404	481.099	526.6682	649.0951	667.3988	692.2649	712.6693	750.3922	792.1496	796.4142	825.8614	882.8575	927.6452	996.4343	1002.9806	1037.3875	1048.9727	1083.91	1097.8965	1170.3954	1198.4378	1211.8129	1268.5396	1288.9546	1333.6115	1371.062	1400.4048	1466.9375	1472.4722	1627.7429	1656.6469	3115.0779	3204.551	3205.692	3217.2331	3252.2872	3548.8113	3647.7999
NC1=C2C3CC3N2C=N1	Nc1c2[C@H]3C[C@H]3n2cn1	
InChI=1S/C6H7N3/c7-6-5-3-1-4(3)9(5)2-8-6/h2-4H,1,7H2	InChI=1S/C6H7N3/c7-6-5-3-1-4(3)9(5)2-8-6/h2-4H,1,7H2/t3-,4+/m0/s1
