19
gdb 97546	2.7237	0.7751	0.73026	3.6913	82.8	-0.2449	-0.0321	0.2127	1686.7565	0.154236	-423.010675	-422.999434	-422.998489	-423.048393	38.522	
C	-0.0534679889	 1.5617004676	-0.0116885836	-0.366388
C	-0.0805174762	 0.0251892609	-0.1057927747	-0.318083
C	-1.4274029971	-0.5305883781	-0.0334488864	 0.022884
C	-2.5464072523	-0.9770987484	 0.0250538664	 0.062554
C	-3.915732432	-1.4966004188	 0.0952177401	 0.110508
C	-3.9520600092	-3.0244636887	 0.1961263153	-0.407721
O	-4.6464433759	-0.8760306624	 1.1563229091	-0.452671
C	-4.629022832	-1.005150997	-1.1850798182	 0.161268
O	-4.8376397009	-1.6831643024	-2.1520220199	-0.241669
H	 0.9755745436	 1.926757718	-0.075011192	 0.119806
H	-0.63018563	 2.0107209267	-0.8244579352	 0.133414
H	-0.4821454323	 1.9017001891	 0.9348465103	 0.129136
H	 0.3856149249	-0.2956214964	-1.0460770581	 0.139623
H	 0.5327102782	-0.4058101177	 0.6958825948	 0.134164
H	-3.3895492815	-3.3581823796	 1.0717793546	 0.113755
H	-4.9896761231	-3.3540249365	 0.2895124249	 0.130587
H	-3.5195861497	-3.473857207	-0.6999919459	 0.142762
H	-4.0523832665	-0.7902356817	 1.9090257376	 0.288568
H	-4.927783429	 0.0618435324	-1.1147266595	 0.097503
30.1079	64.0452	81.35	116.0787	179.1095	196.64	209.4378	225.2858	261.1681	306.253	348.5242	379.6525	472.9627	484.9247	545.141	601.5554	693.8644	784.6937	839.9942	933.5288	947.8286	1001.0868	1059.8879	1089.058	1102.204	1110.3015	1156.8215	1224.4815	1285.6102	1344.1541	1350.39	1385.182	1404.6393	1411.3068	1471.8177	1481.5767	1484.3844	1495.3453	1504.9747	1844.6396	2348.3137	2920.6306	3023.7642	3047.3054	3052.0537	3053.1865	3121.6248	3126.7802	3132.1747	3144.3276	3821.5842
CCC#CC(C)(O)C=O	CCC#C[C@@](C)(O)C=O	
InChI=1S/C7H10O2/c1-3-4-5-7(2,9)6-8/h6,9H,3H2,1-2H3	InChI=1S/C7H10O2/c1-3-4-5-7(2,9)6-8/h6,9H,3H2,1-2H3/t7-/m1/s1
