20
gdb 121316	3.20272	1.01599	0.83382	4.7569	75.85	-0.2421	0.0585	0.3006	1430.258	0.17194	-440.343352	-440.334004	-440.33306	-440.378962	32.861	
C	 0.0044149971	 1.5179933519	 0.0282522486	-0.378431
C	 0.0866653382	-0.0105142967	 0.0326281302	-0.181575
C	 0.6899200913	-0.5558517242	-1.2694145044	-0.155091
N	 0.7845550475	-2.002449147	-1.3247326777	-0.132554
C	 1.6859935985	-2.7938826188	-0.5143892603	-0.194895
C	 1.3347623863	-4.2090218724	-1.0111028753	-0.090109
O	 0.03039248	-4.0865774207	-1.5885135696	-0.245422
C	-0.2383135571	-2.7659705087	-1.8338665821	 0.487472
O	-1.2236140752	-2.3873689128	-2.4091498767	-0.407979
H	 0.9962917346	 1.9703326455	-0.0839239274	 0.114562
H	-0.6192497485	 1.8777163832	-0.7971432953	 0.125422
H	-0.4278682779	 1.8933811385	 0.960164879	 0.11855
H	 0.6863399445	-0.3440339177	 0.8889281004	 0.095357
H	-0.91313406	-0.4415465237	 0.1582930272	 0.120815
H	 0.0673184428	-0.2576443011	-2.1176129986	 0.142716
H	 1.6915059286	-0.1352412081	-1.4269690832	 0.100339
H	 2.7348196239	-2.5381021531	-0.6993103686	 0.118043
H	 1.4914556169	-2.6749496249	 0.5611797867	 0.113489
H	 2.0335665107	-4.5499906233	-1.7832697466	 0.121784
H	 1.2957078676	-4.9515062461	-0.2120537264	 0.127507
36.1092	77.1057	90.784	148.7335	193.653	235.659	274.7589	309.4203	363.6674	546.9276	676.1844	705.3449	747.8816	768.0953	802.4709	877.5269	893.7896	898.837	974.3005	1038.8452	1056.5225	1080.1329	1119.9892	1137.006	1161.4168	1220.1636	1239.2133	1251.3106	1286.8153	1313.5328	1332.8797	1359.963	1398.7199	1410.9613	1418.3401	1448.0103	1474.8621	1490.7527	1501.0867	1508.1385	1521.5297	1538.5845	1868.24	2996.0362	3022.7601	3028.2893	3032.854	3040.0982	3061.2828	3065.9297	3096.2573	3106.4069	3109.9144	3115.0286
CCCN1CCOC1=O	CCCN1CCOC1=O	
InChI=1S/C6H11NO2/c1-2-3-7-4-5-9-6(7)8/h2-5H2,1H3	InChI=1S/C6H11NO2/c1-2-3-7-4-5-9-6(7)8/h2-5H2,1H3
