18
gdb 71168	2.6547	1.85703	1.47376	2.3682	75.28	-0.2312	0.0582	0.2894	947.5783	0.147902	-401.857909	-401.850596	-401.849652	-401.889142	30.137	
O	 0.0165102981	 1.4510593214	 0.0138310102	-0.468342
C	 0.0757104964	 0.077522942	 0.0732690684	 0.270446
C	-1.202046586	-0.7429046191	-0.1121110982	-0.178884
N	-0.573099794	-1.8633792135	 0.6726065773	-0.154893
C	 0.8887157659	-1.8434402955	 0.2816558852	-0.144742
C	 0.371563305	-0.9067651198	 1.3059563196	-0.141082
C	 1.1016923187	-0.7448642831	-0.7288801972	 0.367064
C	 1.3643540248	-0.7655072552	-2.1982972564	-0.33786
C	 2.4139432112	-0.2354469052	-1.2329251422	-0.368167
H	 0.9121828027	 1.8013182473	 0.0862371853	 0.285916
H	-2.0477296349	-0.3570895569	 0.4618049448	 0.112594
H	-1.5097391942	-0.9915636545	-1.133682085	 0.101297
H	 1.4343862503	-2.7701102045	 0.4037551121	 0.098285
H	 0.5236208237	-0.8008537999	 2.372419775	 0.099459
H	 1.5518777727	-1.7190900407	-2.6811800562	 0.118299
H	 0.8453984984	-0.0418405254	-2.8196590517	 0.119475
H	 2.5919484889	 0.8375550585	-1.2326522067	 0.101353
H	 3.3069318023	-0.8276243259	-1.0609124545	 0.119783
166.1761	204.5217	223.0552	321.9391	358.2976	393.7089	456.0765	533.642	611.3936	655.0729	754.8057	765.1915	781.4203	803.7119	858.8031	897.0139	920.464	954.3072	963.4339	977.9858	989.515	1021.5667	1040.4502	1051.6374	1078.9962	1098.8649	1136.8664	1152.7763	1183.7007	1188.152	1220.7057	1274.527	1297.5199	1323.6788	1392.3453	1414.0043	1458.5114	1506.5952	1510.7245	3043.5554	3108.1532	3115.0815	3123.9706	3191.4476	3192.3105	3205.6827	3211.437	3787.5281
OC12CN3C(C13)C21CC1	O[C@]12CN3[C@H]([C@@H]13)C12CC1	
InChI=1S/C7H9NO/c9-7-3-8-4(5(7)8)6(7)1-2-6/h4-5,9H,1-3H2	InChI=1S/C7H9NO/c9-7-3-8-4(5(7)8)6(7)1-2-6/h4-5,9H,1-3H2/t4-,5+,7-,8?/m1/s1
