14
gdb 20643	3.90945	1.86008	1.27029	3.6041	67.37	-0.2369	-0.0572	0.1797	905.5127	0.109107	-378.770489	-378.763636	-378.762692	-378.801639	25.406	
C	 0.0046887248	 1.5203074819	-0.0040410367	-0.495763
C	-0.0219784049	 0.0167727698	 0.005405072	 0.316692
C	-1.1625274293	-0.7059061017	-0.152185494	-0.314109
C	-1.1460316096	-2.1586683577	-0.1370268288	 0.436634
O	-2.0964056905	-2.9098673404	-0.2670485249	-0.392648
N	 0.1469555012	-2.6715176599	 0.0533813275	-0.262065
N	 1.2911168292	-2.0008224808	 0.2119730052	-0.185023
C	 1.2085390417	-0.7023787188	 0.1886594718	-0.051282
H	 0.6548509149	 1.8936872056	-0.803273928	 0.144895
H	-0.9940874139	 1.9361538213	-0.1512978432	 0.138084
H	 0.4043292956	 1.9090059621	 0.939408276	 0.144893
H	-2.1298719172	-0.2375731419	-0.2953616361	 0.122656
H	 0.2297939315	-3.6796737165	 0.0741806486	 0.27474
H	 2.1461772966	-0.1722012729	 0.3187890706	 0.122297
113.0964	175.0922	198.3357	298.0521	424.8939	474.2285	506.7036	567.2555	603.2618	736.5099	738.662	754.3729	891.0642	921.6704	930.5904	1003.0358	1046.6414	1066.3255	1147.7623	1200.7541	1250.4353	1346.6476	1411.7409	1425.8438	1431.6872	1479.59	1486.0172	1578.4055	1662.2653	1788.9553	3034.3117	3088.6084	3130.1976	3186.1077	3200.1616	3593.0329
CC1=CC(=O)NN=C1	Cc1cc(=O)[nH]nc1	
InChI=1S/C5H6N2O/c1-4-2-5(8)7-6-3-4/h2-3H,1H3,(H,7,8)	InChI=1S/C5H6N2O/c1-4-2-5(8)7-6-3-4/h2-3H,1H3,(H,7,8)
