20
gdb 26206	3.74418	1.10319	0.86984	3.3173	84.74	-0.1744	0.0608	0.2352	1370.8916	0.170934	-399.36871	-399.358846	-399.357901	-399.403523	35.518	
C	 0.4879169586	 0.1922329155	 1.3873830005	-0.329413
N	-0.1785156515	 0.1829236119	 0.0935898132	-0.162583
C	 0.6428618939	 0.5068754393	-1.0541093799	-0.343256
C	-1.1780661816	-0.7587781437	-0.0657710424	 0.495107
N	-1.7914986098	-1.3930569311	 0.9108589702	-0.412574
C	-2.7572155229	-2.1793438226	 0.3015181488	 0.295181
C	-3.6651325674	-3.0475291049	 1.1086008129	-0.486986
C	-2.7120713975	-2.0196082683	-1.0518913701	-0.206353
N	-1.6857125428	-1.1057382856	-1.2869953735	-0.338866
H	 0.9798273874	 1.1591524154	 1.5284663348	 0.11331
H	-0.257965448	 0.0454384983	 2.1676756068	 0.166178
H	 1.2430041242	-0.6044054302	 1.4816046317	 0.108687
H	 1.2558012698	-0.3383424226	-1.4112528181	 0.113067
H	 0.0256121385	 0.8639741216	-1.8864681741	 0.11918
H	 1.3165616948	 1.3241339334	-0.7860592129	 0.133488
H	-4.2582946729	-2.4527445046	 1.8123561001	 0.126929
H	-4.3540439898	-3.6020288413	 0.4652647498	 0.111843
H	-3.0950870283	-3.7702028181	 1.7032553751	 0.126386
H	-3.2782941912	-2.4525163285	-1.8592926825	 0.115393
H	-1.3899549635	-0.7696350438	-2.1853903304	 0.255281
55.5733	125.3352	142.9385	169.5741	176.3985	220.1155	243.4035	318.4213	337.0216	380.9995	414.2256	524.6343	586.7377	646.2057	663.2105	707.3463	742.9859	943.7567	991.0608	1013.167	1047.4266	1065.0768	1084.3101	1102.1607	1129.6626	1172.9223	1214.6916	1270.0744	1278.0102	1325.9199	1377.3697	1416.2216	1442.4101	1468.5088	1473.4506	1474.8537	1489.2554	1493.6553	1500.1644	1504.7292	1515.6347	1622.1913	1631.6096	2958.3827	2980.6082	3029.1973	3052.0571	3079.224	3080.6374	3112.0713	3113.7202	3158.8271	3273.4898	3689.9061
CN(C)C1=NC(C)=CN1	CN(C)c1nc(C)c[nH]1	
InChI=1S/C6H11N3/c1-5-4-7-6(8-5)9(2)3/h4H,1-3H3,(H,7,8)	InChI=1S/C6H11N3/c1-5-4-7-6(8-5)9(2)3/h4H,1-3H3,(H,7,8)
