18
gdb 44373	3.13432	1.64034	1.3805	2.7691	74.27	-0.2237	-0.0162	0.2075	966.2457	0.149573	-401.930467	-401.923498	-401.922553	-401.962006	28.158	
O	-0.0391664052	-0.0806740354	-0.4458703262	-0.313124
C	-0.0584565759	 1.0705779807	-0.0804790914	 0.362874
C	-1.3466339546	 1.857102783	 0.1075544017	-0.314349
C	-1.1860314581	 2.8864100265	 1.2259918745	-0.048019
C	-0.4693885116	 2.3804281803	 2.5265927213	-0.272609
C	 0.7176894193	 3.2988008235	 2.1959625077	-0.038986
C	-0.008100122	 3.8597997371	 0.9994967805	-0.061135
N	 1.2257835722	 3.1198918204	 0.8488007399	-0.08608
C	 1.2570454359	 1.8223242587	 0.17593592	-0.254925
H	-1.5722859942	 2.3654783753	-0.8408030033	 0.126737
H	-2.156785885	 1.1453652653	 0.2923997169	 0.125437
H	-2.1294875356	 3.3905545262	 1.4443760017	 0.08388
H	-0.992816329	 2.6983060161	 3.4308234375	 0.112107
H	-0.2626663233	 1.3074274235	 2.6051431473	 0.109624
H	 1.3592326183	 3.7966590831	 2.9146093563	 0.096822
H	-0.0688253428	 4.8727741693	 0.6156088657	 0.092804
H	 1.9330999545	 1.1457181644	 0.7079781174	 0.13837
H	 1.7040917372	 1.980186152	-0.8154454477	 0.140571
66.3952	193.3548	311.6544	383.1733	429.6646	443.4025	486.9373	555.7196	673.014	720.7703	763.9463	798.8194	831.8671	846.5757	867.9999	903.731	939.6323	988.5654	1003.5978	1038.7114	1064.4664	1072.5703	1085.117	1138.3925	1156.993	1208.9182	1229.9639	1243.1997	1266.5419	1274.0205	1285.6917	1297.2852	1334.8318	1363.099	1389.6907	1444.8361	1451.3765	1489.287	1817.0658	3016.6857	3021.051	3044.2683	3083.6879	3086.7893	3090.7645	3111.2638	3162.4471	3176.9576
O=C1CC2CC3C2N3C1	O=C1C[C@H]2C[C@@H]3[C@H]2N3C1	
InChI=1S/C7H9NO/c9-5-1-4-2-6-7(4)8(6)3-5/h4,6-7H,1-3H2	InChI=1S/C7H9NO/c9-5-1-4-2-6-7(4)8(6)3-5/h4,6-7H,1-3H2/t4-,6+,7-,8?/m0/s1
