18
gdb 100507	3.12819	0.95931	0.82507	2.2444	69.12	-0.2401	-0.0643	0.1758	1403.7472	0.145207	-476.268767	-476.258344	-476.257399	-476.304679	36.635	
C	 0.1307581239	 1.4849427039	 0.0991324861	-0.411086
C	-0.0354445224	-0.04693483	-0.0277701278	-0.066374
C	-1.5048647266	-0.4652294897	-0.0417857353	-0.086316
O	-2.0645938501	-0.0858952635	 1.2063067807	-0.424407
C	 0.6691513163	-0.5330748727	-1.2710593607	 0.284111
O	 0.1024833607	-0.8699897119	-2.2890574081	-0.325684
C	 2.2187516191	-0.5861513119	-1.2067964567	 0.335286
N	 2.7599384011	-0.9683030201	-2.3835264878	-0.517151
O	 2.8325096119	-0.3130862438	-0.1923862533	-0.35191
H	 1.1836638383	 1.7521573292	 0.2027430145	 0.144525
H	-0.2830248887	 1.9955125511	-0.7773849375	 0.117105
H	-0.4133385629	 1.8234887617	 0.9826059894	 0.146851
H	 0.4643674139	-0.5015548298	 0.8347476089	 0.123846
H	-2.0179816333	 0.0225282627	-0.8830980649	 0.099777
H	-1.5797835622	-1.5512908592	-0.2014143177	 0.09352
H	-3.005811431	-0.2797181312	 1.1843757352	 0.289548
H	 2.1445545363	-1.1964576182	-3.1476277278	 0.279043
H	 3.7568635856	-1.0665885864	-2.4712287071	 0.269316
59.7159	66.5438	105.9505	156.1111	206.6486	241.6978	245.1551	259.7393	324.4427	341.1951	354.8719	438.1115	491.336	547.4057	611.1647	666.7595	775.4026	825.69	872.1201	935.5722	1023.6732	1058.3805	1089.3511	1097.2727	1111.4279	1165.0254	1252.9672	1266.0051	1322.331	1334.8738	1374.2073	1398.5312	1460.0613	1500.2262	1503.6363	1519.8855	1585.0507	1786.3945	1803.408	2985.9267	3019.2025	3043.6659	3064.8528	3124.2551	3151.182	3596.2511	3738.2253	3836.7356
CC(CO)C(=O)C(N)=O	C[C@@H](CO)C(=O)C(=O)N	
InChI=1S/C5H9NO3/c1-3(2-7)4(8)5(6)9/h3,7H,2H2,1H3,(H2,6,9)	InChI=1S/C5H9NO3/c1-3(2-7)4(8)5(6)9/h3,7H,2H2,1H3,(H2,6,9)/t3-/m0/s1
