16
gdb 15574	3.51712	1.82351	1.25884	3.5892	69.35	-0.2551	-0.0657	0.1894	936.3154	0.130974	-383.768172	-383.760774	-383.75983	-383.799967	27.525	
O	-0.0426667236	 1.4436066354	 0.0648939024	-0.442049
C	 0.0304053794	 0.0324637766	 0.019357916	 0.041498
C	-1.3870512736	-0.5762400116	-0.0295921509	-0.231256
C	-1.2911697145	-1.7910720772	-0.9886898062	-0.26514
C	-0.0473496404	-1.5042363597	-1.7864472897	-0.152353
C	 0.6714333912	-0.5090333189	-1.2496257581	 0.227458
C	 1.9306204368	 0.0184420621	-1.7634503607	 0.067023
O	 2.5226185824	 0.9503931904	-1.2505842956	-0.290703
H	 0.861058399	 1.7610419502	-0.0678893706	 0.29516
H	 0.5913563752	-0.3454744802	 0.8915545227	 0.075217
H	-1.7734738318	-0.838944596	 0.9568824168	 0.107202
H	-2.0434063153	 0.1879691702	-0.4559973919	 0.126753
H	-1.1739263597	-2.7382374417	-0.4430425984	 0.124687
H	-2.1767435967	-1.9161756572	-1.6212768303	 0.120438
H	 0.2307804577	-2.0620762864	-2.6761607077	 0.112612
H	 2.3317236338	-0.477312516	-2.6733332279	 0.083453
96.3908	134.7787	197.0528	282.9961	311.7115	391.0021	460.214	508.1784	597.5837	627.5892	735.3532	803.1498	842.1339	880.7424	929.0228	967.4557	1015.5368	1038.2899	1052.3813	1111.7859	1159.8191	1201.4256	1243.8945	1279.0266	1297.668	1304.0562	1343.5422	1374.4646	1416.1356	1428.2846	1473.1387	1493.3129	1685.9091	1758.3734	2902.7846	2946.5045	3013.0123	3060.0197	3071.8631	3122.1546	3178.1202	3754.1094
OC1CCC=C1C=O	O[C@H]1CCC=C1C=O	
InChI=1S/C6H8O2/c7-4-5-2-1-3-6(5)8/h2,4,6,8H,1,3H2	InChI=1S/C6H8O2/c7-4-5-2-1-3-6(5)8/h2,4,6,8H,1,3H2/t6-/m0/s1
