25
gdb 110099	1.76154	1.24357	0.92457	1.8924	89.85	-0.2505	0.0628	0.3133	1462.1055	0.226485	-389.484216	-389.472754	-389.47181	-389.521046	41.94	
C	-0.7016130473	 2.3215428086	 2.5544859684	-0.380242
C	-0.1466662034	 1.453192183	 1.4178129111	-0.206809
C	 0.5454514342	 0.1945376111	 1.9087307517	-0.049009
C	-0.1775781703	-1.1142051029	 2.2161978906	-0.09721
C	-1.6736045939	-1.2852087961	 2.0816258134	-0.080702
O	-2.3506695027	-1.0302246538	 3.307766236	-0.423864
C	 0.7816135471	-1.028321596	 1.0428611232	 0.282576
C	 0.2613428026	-1.0793560628	-0.384869961	-0.452429
C	 2.1167790036	-1.7365312641	 1.2014790296	-0.446177
H	 0.0776779189	 2.5697790546	 3.2830624382	 0.11768
H	-1.1131522081	 3.2605630942	 2.1713600554	 0.115846
H	-1.5079320209	 1.8104786189	 3.0926370172	 0.107453
H	-0.9573619061	 1.2125910517	 0.7233818977	 0.099051
H	 0.5749025193	 2.0437093662	 0.8378665507	 0.100195
H	 1.3635977743	 0.4188738906	 2.592209114	 0.074565
H	 0.2024735219	-1.6607780064	 3.0773696551	 0.083032
H	-2.0798555583	-0.65933137	 1.2744588887	 0.082701
H	-1.9148371248	-2.3243542054	 1.8296003252	 0.108868
H	-2.0113204123	-0.1987946352	 3.6542541367	 0.282651
H	-0.7032188231	-0.5856618553	-0.5144268913	 0.11598
H	 0.9717144578	-0.6013519934	-1.0699672284	 0.113861
H	 0.1441532628	-2.1190268847	-0.7123794944	 0.115505
H	 2.0381865336	-2.7952563047	 0.9262606729	 0.113182
H	 2.880631844	-1.2838034198	 0.5575028152	 0.111632
H	 2.477504221	-1.6863680883	 2.2334700644	 0.111663
32.3051	90.2478	134.1656	163.4849	193.8668	199.6864	214.3277	246.7996	280.0141	286.554	294.2439	334.3941	402.6892	469.8174	494.1399	558.8537	691.682	761.7887	827.1338	838.7629	937.379	963.02	969.3711	996.2223	1012.138	1031.9161	1051.6577	1067.2996	1092.0796	1121.3933	1151.4437	1175.2398	1179.7587	1221.4135	1258.8587	1294.7141	1322.2815	1332.3687	1354.5937	1393.0963	1407.8869	1411.5151	1422.741	1432.3174	1459.3697	1478.7883	1484.9457	1492.9863	1499.3922	1500.523	1502.9742	1513.8252	1518.0178	2998.9295	3017.0295	3021.2965	3027.679	3029.2705	3056.1235	3071.0845	3074.9829	3078.9451	3094.0472	3097.6215	3102.8937	3108.8129	3124.1443	3129.5371	3816.6437
CCC1C(CO)C1(C)C	CC[C@H]1[C@@H](CO)C1(C)C	
InChI=1S/C8H16O/c1-4-6-7(5-9)8(6,2)3/h6-7,9H,4-5H2,1-3H3	InChI=1S/C8H16O/c1-4-6-7(5-9)8(6,2)3/h6-7,9H,4-5H2,1-3H3/t6-,7+/m0/s1
