17
gdb 50469	4.39677	0.94577	0.81885	2.5024	69.96	-0.268	-0.045	0.223	1334.31	0.135867	-459.012496	-459.004046	-459.003102	-459.046769	30.088	
O	 0.047650365	-0.114882578	 0.1735767773	-0.235655
C	 0.0396431303	 1.0849939207	 0.1001200581	 0.149384
C	 1.2782907266	 1.9580456538	 0.0399116495	-0.101951
C	 1.276365376	 2.8196546583	-1.2330280585	-0.240408
C	 2.5222020706	 3.7077296506	-1.2384043274	-0.343083
C	 2.8166191772	 4.4256806298	 0.0703126837	 0.411855
O	 3.5146476278	 5.3986066641	 0.1353341314	-0.314375
O	 2.3319728474	 3.8893435675	 1.2203812779	-0.230351
C	 1.3023661518	 2.8920754259	 1.2534097932	-0.074422
H	-0.9199334438	 1.6534949581	 0.059456508	 0.080146
H	 2.1514027139	 1.2976565211	 0.0535604375	 0.109042
H	 1.2538461952	 2.1930947571	-2.1298140312	 0.123927
H	 0.3691717623	 3.4376209395	-1.2524891913	 0.115826
H	 3.4105310367	 3.0972275059	-1.4465623052	 0.14759
H	 2.4835745591	 4.4701184492	-2.0193225193	 0.144457
H	 0.3363189123	 3.4080989578	 1.3457537214	 0.118096
H	 1.4728856717	 2.3330097987	 2.1767530449	 0.139922
52.1166	65.5234	129.3855	169.6344	274.8483	340.4914	376.4358	424.6168	505.6894	559.5744	576.6282	701.5705	759.7456	840.1182	912.5574	934.7223	956.1259	1030.4515	1061.6053	1102.5698	1111.2686	1125.7277	1192.2028	1201.3534	1248.5904	1284.9299	1300.7844	1344.9487	1360.7915	1379.5756	1428.83	1433.3355	1461.5737	1496.616	1514.0379	1838.0896	1850.1657	2850.8221	3010.5579	3025.8946	3039.2737	3066.6732	3084.6967	3099.6316	3114.1034
O=CC1CCC(=O)OC1	O=C[C@H]1CCC(=O)OC1	
InChI=1S/C6H8O3/c7-3-5-1-2-6(8)9-4-5/h3,5H,1-2,4H2	InChI=1S/C6H8O3/c7-3-5-1-2-6(8)9-4-5/h3,5H,1-2,4H2/t5-/m1/s1
