19
gdb 54355	2.092	1.52581	1.18276	3.2894	76.16	-0.2462	-0.0336	0.2125	1144.654	0.156394	-423.045794	-423.036153	-423.035209	-423.081107	34.186	
C	-0.0611707808	 1.608052299	-0.0398201721	-0.491709
C	-0.1500614414	 0.1078201389	 0.1405527008	 0.321822
O	-0.3331925934	-0.4018521195	 1.2220896346	-0.299717
C	 0.0411705333	-0.7559519329	-1.1068579362	 0.116241
C	 1.5111458736	-0.7858120626	-1.6845506031	-0.27424
C	 1.4540249219	-2.3347320899	-1.7199649199	-0.212834
C	 0.1630003867	-2.2969877624	-0.8640693345	-0.270731
C	-0.9542755504	-0.468588773	-2.2061512335	 0.129415
O	-1.8516952236	 0.3345517429	-2.1696810695	-0.263357
H	 0.7918270328	 1.885950384	-0.6678914683	 0.129904
H	-0.9645645819	 1.9468929025	-0.5560901413	 0.176283
H	 0.0155395582	 2.0911110429	 0.9349288447	 0.139014
H	 1.6698048788	-0.2658454753	-2.6330772665	 0.113874
H	 2.2265313774	-0.39893441	-0.954943458	 0.124389
H	 1.2834935837	-2.7211971476	-2.7279545913	 0.110978
H	 2.3101097646	-2.8615483865	-1.2940332467	 0.112284
H	 0.3244898579	-2.4810591948	 0.1985710347	 0.142501
H	-0.6763592054	-2.9101672467	-1.2006431343	 0.111098
H	-0.8010153221	-1.1037189389	-3.1100352494	 0.084785
56.0722	75.2933	89.9362	130.2022	189.3347	216.1324	291.4384	312.9941	388.9075	431.5417	556.2197	590.5747	675.3685	705.4224	784.1527	838.0976	901.9134	915.015	946.2999	956.7626	980.4638	1018.88	1071.931	1089.8069	1100.5849	1183.9282	1223.5999	1230.3683	1251.9403	1275.5429	1278.4625	1311.6081	1378.8907	1434.9979	1469.5837	1471.7135	1475.1274	1484.781	1504.4988	1804.3998	1818.4665	2857.1521	3044.7208	3058.718	3066.478	3074.2722	3104.831	3113.5314	3121.1553	3141.4092	3155.2897
CC(=O)C1(CCC1)C=O	CC(=O)C1(CCC1)C=O	
InChI=1S/C7H10O2/c1-6(9)7(5-8)3-2-4-7/h5H,2-4H2,1H3	InChI=1S/C7H10O2/c1-6(9)7(5-8)3-2-4-7/h5H,2-4H2,1H3
