18
gdb 23604	2.93273	1.06284	0.8166	1.247	76.36	-0.2479	-0.0001	0.2477	1373.1613	0.146184	-439.004656	-438.995797	-438.994853	-439.039249	32.242	
O	-0.2161136868	 1.4555338709	-0.0660867412	-0.390543
N	-0.0084177779	 0.0665754007	 0.0203882802	-0.235779
C	-1.1089015057	-0.5590503336	-0.0059591173	 0.397442
C	-2.5696828703	-0.2067014285	-0.1925653147	-0.321063
C	-2.8316318904	-1.7230149124	-0.458214874	-0.244959
C	-1.3646989768	-2.0583323883	-0.0106215265	-0.095524
C	-0.5161591698	-2.9056419085	-0.9179808832	 0.095732
C	 0.6160261315	-3.6928677086	-0.4186312165	-0.177811
O	-0.6228516132	-4.3228202871	-0.7530716916	-0.242114
H	 0.6846072137	 1.796531547	-0.0499001564	 0.307174
H	-3.0380809538	 0.1753491848	 0.7201427797	 0.127933
H	-2.7866774713	 0.49272832	-1.0036707984	 0.12997
H	-3.6234714362	-2.1912773663	 0.1270965786	 0.113021
H	-2.9983281372	-1.9420813052	-1.5154788007	 0.115446
H	-1.3391301377	-2.4813243518	 0.9999696199	 0.097305
H	-0.4875309638	-2.5798049314	-1.9593276981	 0.091682
H	 1.4510624213	-3.9182217674	-1.080026127	 0.116657
H	 0.8576969644	-3.6689182846	 0.6430574072	 0.115433
56.445	69.1428	109.2914	198.534	227.2836	328.6636	341.2085	397.9441	410.7785	486.6466	595.1279	712.5012	758.3612	795.3152	858.2573	900.0477	919.3506	936.8499	966.7024	987.9483	1033.9354	1069.4753	1106.8268	1145.0843	1156.7966	1166.9127	1192.2856	1209.0156	1224.2786	1247.1007	1265.9047	1293.1395	1301.5242	1402.66	1446.0836	1461.3115	1489.7946	1529.3434	1778.2772	3045.5396	3057.1973	3075.7418	3084.9677	3096.328	3105.4496	3136.6358	3172.3418	3816.9808
ON=C1CCC1C1CO1	ON=C1CC[C@H]1[C@H]1CO1	
InChI=1S/C6H9NO2/c8-7-5-2-1-4(5)6-3-9-6/h4,6,8H,1-3H2	InChI=1S/C6H9NO2/c8-7-5-2-1-4(5)6-3-9-6/h4,6,8H,1-3H2/t4-,6-/m1/s1
