13
gdb 125735	3.27246	1.47383	1.02261	1.8697	64.25	-0.2762	-0.0887	0.1875	1075.6186	0.088861	-489.903197	-489.895716	-489.894772	-489.935281	27.59	
C	-0.202504746	 1.5157698181	 0.0684522914	-0.449961
C	 0.0272118507	 0.0363253083	-0.0006493128	 0.38963
N	 0.0833424912	-0.4724992224	-1.189788704	-0.136027
O	 0.3011185335	-1.8754033864	-1.2566232732	-0.239426
C	 0.4385144997	-2.620534792	-0.155422075	 0.391284
O	 0.6261620838	-3.8152163303	-0.1904697425	-0.360155
C	 0.349278693	-1.8820497916	 1.1328799247	 0.302797
O	 0.4885967067	-2.6379103578	 2.2055238793	-0.359962
N	 0.1532833047	-0.6168336234	 1.2141819398	-0.327311
H	 0.6260269026	 1.9907206417	 0.6028558655	 0.153146
H	-0.2887493191	 1.9401996512	-0.9315600364	 0.153429
H	-1.1148962974	 1.7187785439	 0.6376187923	 0.153134
H	 0.6236112066	-3.5467410895	 1.874038561	 0.329421
106.785	165.7386	199.9819	300.39	333.3911	336.6923	446.6004	492.9761	538.2961	603.5133	650.9189	678.4247	705.7244	803.0871	818.4609	943.8707	1020.594	1056.8239	1064.5775	1230.3428	1253.8427	1370.1915	1413.7952	1458.6952	1468.5533	1472.3764	1599.0059	1716.8212	1804.0563	3051.0123	3112.3003	3162.7453	3624.7351
CC1=NOC(=O)C(O)=N1	Cc1noc(=O)c(O)n1	
InChI=1S/C4H4N2O3/c1-2-5-3(7)4(8)9-6-2/h1H3,(H,5,6,7)	InChI=1S/C4H4N2O3/c1-2-5-3(7)4(8)9-6-2/h1H3,(H,5,6,7)
