17
gdb 55052	2.87287	1.17406	0.90284	6.6323	74.17	-0.2583	-0.006	0.2523	1277.4143	0.134236	-418.022787	-418.013344	-418.0124	-418.058281	32.709	
C	 0.0495270468	 1.2105625801	 0.0523595989	-0.474268
C	-0.0865865993	-0.2983301104	 0.0093378153	 0.367629
O	 0.7863122479	-1.045228396	-0.3715178949	-0.324619
N	-1.2925785663	-0.773674578	 0.5311035314	-0.071897
C	-2.6234791036	-0.5151755056	 0.0161469863	-0.276664
C	-2.044461418	-1.9025731874	 0.0468569221	 0.010761
C	-1.6866331424	-2.604266502	-1.258200574	-0.357291
C	-0.7984696823	-3.7494712048	-1.0587034489	 0.28257
N	-0.140523991	-4.6853118942	-0.9012456998	-0.305393
H	 1.0729315288	 1.4825965698	-0.2040561615	 0.153532
H	-0.6359397104	 1.6777727082	-0.6631457332	 0.137461
H	-0.2056196348	 1.5923970867	 1.0446710726	 0.149952
H	-3.3794552586	-0.2200398688	 0.7390084864	 0.134979
H	-2.7063534659	-0.0322512392	-0.9562687217	 0.128606
H	-2.3882536857	-2.5763823356	 0.8287990431	 0.126599
H	-2.6091230413	-2.9701129107	-1.7252876517	 0.15661
H	-1.2171804239	-1.9078365521	-1.9580231105	 0.161433
50.9241	63.2507	84.8714	146.0867	166.8715	220.3	354.1544	359.9461	387.1924	431.9627	542.0888	597.1246	629.6554	686.5434	827.42	892.3073	951.5762	978.8795	1010.1243	1032.8299	1051.5323	1090.0753	1128.3798	1132.9968	1165.1459	1207.4105	1246.1469	1318.7186	1373.9957	1395.1821	1434.5853	1451.1239	1468.1656	1477.7067	1514.9344	1792.1831	2370.3643	3044.2103	3047.044	3095.5894	3102.9333	3112.4951	3136.7181	3165.5138	3185.3504
CC(=O)N1CC1CC#N	CC(=O)N1C[C@H]1CC#N	
InChI=1S/C6H8N2O/c1-5(9)8-4-6(8)2-3-7/h6H,2,4H2,1H3	InChI=1S/C6H8N2O/c1-5(9)8-4-6(8)2-3-7/h6H,2,4H2,1H3/t6-,8?/m1/s1
