17
gdb 52929	3.37622	0.97666	0.8611	2.8871	85.2	-0.2293	0.0106	0.2399	1396.5041	0.135037	-384.63856	-384.629869	-384.628925	-384.674008	31.284	
C	-0.0171813982	 1.4541277836	 0.0129013356	-0.517983
C	-0.0008147006	-0.0000778909	 0.0162541376	 0.403845
C	 0.0150958469	-1.2053108469	 0.015736606	-0.440512
C	 0.0517192355	-2.6307270904	-0.0095849086	 0.140512
C	 0.5868670963	-3.623396886	 1.0953321148	-0.26119
C	 0.0911563528	-4.5916576276	-0.0292490581	-0.198866
C	-1.1486228545	-3.6457493385	-0.1563115286	-0.261191
C	 0.7705896263	-3.6068100887	-0.9889168767	 0.426785
O	 1.4654847778	-3.5829194435	-1.952863707	-0.316677
H	 0.5788781851	 1.8550784705	-0.8142950865	 0.155022
H	-1.0372268343	 1.8392666144	-0.0948130036	 0.151112
H	 0.3933666438	 1.8578059418	 0.9450610121	 0.151095
H	 1.6550777609	-3.5962893095	 1.3155632894	 0.11993
H	-0.0205303719	-3.6365395781	 2.0030198453	 0.1131
H	 0.1040419174	-5.6777368341	-0.0277206777	 0.101987
H	-1.8179312421	-3.6596879973	 0.7067258008	 0.113101
H	-1.6950806112	-3.6394384588	-1.1005862948	 0.119929
13.4647	83.2133	104.5648	189.6373	250.1764	310.1247	390.3422	462.9225	510.4095	517.3446	586.8454	737.6389	744.4188	784.6279	810.1386	914.0589	927.4254	964.9583	1005.9297	1030.4965	1035.6905	1052.831	1054.2264	1081.0456	1126.2353	1131.696	1186.5014	1197.2483	1234.4926	1365.4318	1414.7645	1475.4955	1476.7668	1494.4887	1530.9465	1921.6527	2364.5421	3026.5277	3067.5278	3068.0019	3088.1597	3088.816	3142.4322	3143.3237	3166.9746	13.4344	83.213	104.5643	189.6372	250.1763	310.1245	390.3421	462.9224	510.4094	517.3446	586.8453	737.6389	744.4187	784.6279	810.1386	914.0589	927.4254	964.9584	1005.9298	1030.4966	1035.6906	1052.8312	1054.2266	1081.0458	1126.2353	1131.6961	1186.5015	1197.2485	1234.4927	1365.4319	1414.7648	1475.4961	1476.7674	1494.4888	1530.9466	1921.6529	2364.5423	3026.5278	3067.5278	3068.0019	3088.1597	3088.816	3142.4322	3143.3237	3166.9746
CC#CC12CC(C1)C2=O	CC#C[C@@]12C[C@@H](C1)C2=O	
InChI=1S/C8H8O/c1-2-3-8-4-6(5-8)7(8)9/h6H,4-5H2,1H3	InChI=1S/C8H8O/c1-2-3-8-4-6(5-8)7(8)9/h6H,4-5H2,1H3/t6-,8+
