18
gdb 78459	3.9631	1.27073	1.18682	2.4607	71.48	-0.2308	0.0778	0.3085	1090.93	0.148311	-439.001975	-438.994698	-438.993753	-439.033257	29.889	
C	-0.0700900268	 1.408280385	-0.0386853026	-0.322001
N	 0.018299637	-0.0471649714	 0.0094540848	-0.100142
C	 1.3758508783	-0.5824816162	-0.191509202	-0.025801
C	 0.7624239234	-0.5748449703	 1.1660555201	-0.025803
C	 0.6356308794	-2.0912940783	 1.3791565008	-0.022727
O	 1.9576018591	-2.5628947034	 0.8998968475	-0.334735
C	 1.4455781749	-2.1013767943	-0.4133207432	-0.022728
C	 0.0573838128	-2.6422413428	 0.0417115209	 0.193514
O	-0.0540123609	-4.0345003634	-0.0007927406	-0.463209
H	 0.8209137534	 1.9214049891	 0.3611096083	 0.102057
H	-0.2102891551	 1.7229649692	-1.0772111014	 0.129531
H	-0.9408803097	 1.7320659814	 0.5393326121	 0.129531
H	 2.1809672981	 0.0811839842	-0.4871551396	 0.099395
H	 1.075449315	 0.0949457657	 1.9594446037	 0.099396
H	 0.3606531794	-2.4836992532	 2.3574859968	 0.083483
H	 1.996394402	-2.504063278	-1.2625370044	 0.083483
H	-0.8488565044	-2.2081749857	-0.3702236166	 0.112507
H	 0.7695992442	-4.3766080875	 0.3732897054	 0.284251
180.7207	218.1035	261.7036	298.2031	358.003	379.4803	411.8084	551.313	560.6273	621.8941	700.6423	809.4896	825.6047	839.039	840.8125	862.7174	935.0135	938.8661	949.3593	970.3762	1040.1891	1054.1679	1099.6199	1131.4797	1139.9256	1150.9686	1178.6519	1216.517	1216.7638	1244.3501	1248.1962	1290.1471	1307.47	1322.2276	1374.9973	1440.399	1455.364	1492.5562	1497.5985	2960.835	3072.1346	3110.7111	3131.8632	3133.7642	3170.2534	3170.2993	3179.6523	3756.1603
CN1C2C1C1OC2C1O	CN1[C@H]2[C@@H]1[C@@H]1O[C@H]2[C@H]1O	
InChI=1S/C6H9NO2/c1-7-2-3(7)6-4(8)5(2)9-6/h2-6,8H,1H3	InChI=1S/C6H9NO2/c1-7-2-3(7)6-4(8)5(2)9-6/h2-6,8H,1H3/t2-,3+,4+,5+,6-,7?
