21
gdb 26176	3.97532	0.91648	0.89387	0.5998	86.86	-0.2071	0.0291	0.2362	1458.4322	0.181636	-387.13942	-387.129704	-387.12876	-387.174242	35.773	
C	-0.0292315319	 1.5472758746	 0.0180710584	-0.383366
C	-0.0005549574	 0.0071809805	 0.0557811314	-0.084647
C	 0.7112881614	-0.5025099203	 1.3237404664	-0.383318
C	-1.3746618803	-0.5697878678	-0.0706050601	 0.410263
C	-1.9739336915	-1.3742286694	-0.9891010181	-0.407651
C	-3.3299186948	-1.5848618669	-0.5519042405	 0.26798
C	-4.3879744396	-2.4001236678	-1.2277149635	-0.499357
C	-3.4405110866	-0.8835195806	 0.606168026	-0.119635
O	-2.2672690475	-0.2611030514	 0.9159890997	-0.196163
H	 0.9855149234	 1.9532104635	 0.0817041509	 0.108602
H	-0.4879291249	 1.910985563	-0.9060431209	 0.116774
H	-0.606937414	 1.9421344384	 0.8593168778	 0.128095
H	 0.5571774941	-0.348560321	-0.8189765229	 0.085284
H	 1.7258480578	-0.0958604154	 1.3858319977	 0.108619
H	 0.1660402662	-0.1949997687	 2.22125568	 0.128042
H	 0.7775338149	-1.5944224533	 1.3271882613	 0.116778
H	-1.5109242032	-1.7757490841	-1.8782172794	 0.100093
H	-4.085255672	-3.4488949208	-1.3273581135	 0.12806
H	-5.3253249005	-2.3767975032	-0.6647376255	 0.122784
H	-4.5968829906	-2.029870959	-2.2380274123	 0.128042
H	-4.2504842429	-0.7314319704	 1.3011206772	 0.124722
47.29	112.7255	134.256	169.4716	219.3041	252.2203	253.7041	281.8597	349.048	412.1564	478.8057	607.3163	625.6509	700.3977	713.5793	736.1318	810.1047	875.8867	929.21	958.1582	961.7778	985.0781	1017.9298	1058.5831	1064.6854	1120.0817	1143.6873	1165.1805	1197.7891	1245.4988	1302.6508	1332.2053	1342.3433	1393.3041	1399.7372	1417.7109	1421.1689	1482.7137	1485.8139	1491.5037	1498.3015	1499.4048	1510.676	1586.794	1661.3292	3026.9693	3033.9788	3036.0547	3037.992	3076.7023	3104.5064	3107.8616	3109.0978	3112.936	3117.0713	3242.8605	3269.7813
CC(C)C1=CC(C)=CO1	CC(C)c1cc(C)co1	
InChI=1S/C8H12O/c1-6(2)8-4-7(3)5-9-8/h4-6H,1-3H3	InChI=1S/C8H12O/c1-6(2)8-4-7(3)5-9-8/h4-6H,1-3H3
