22
gdb 118175	1.8087	1.32771	0.83121	6.8469	79.	-0.2359	0.0386	0.2744	1426.2396	0.194647	-441.526711	-441.516657	-441.515713	-441.56271	36.951	
C	-1.0661084963	 2.2116201904	 0.7983364628	-0.402737
C	-0.232446146	 0.9759050944	 0.4242290336	 0.043961
C	 0.9165477265	 0.7941463754	 1.4387912832	-0.184372
C	 2.1100016291	-0.0587479833	 0.9978867317	-0.176759
N	 1.7624549952	-1.4820941313	 0.8184278035	-0.507067
H	 1.4479363609	-1.8794865629	 1.6997453909	 0.243786
H	 0.633859352	-1.6382984459	-0.5172681657	 0.324747
H	 2.5860679192	-2.0101576858	 0.5433504731	 0.25139
C	-1.1684971261	-0.2689383344	 0.2839767482	-0.332781
C	-1.0773699686	-0.9426184855	-1.0853175412	 0.380539
O	 0.0429353754	-1.6368775751	-1.3189961914	-0.389651
O	-1.9406548888	-0.8384561041	-1.9199759431	-0.337141
H	-0.447240775	 3.1144562949	 0.833963134	 0.11015
H	-1.8642232606	 2.3759044183	 0.0685279832	 0.131456
H	-1.5340601108	 2.0866523246	 1.7822539763	 0.114692
H	 0.2238426666	 1.1759515819	-0.5542089906	 0.092827
H	 1.320483885	 1.7849526906	 1.6803995199	 0.103872
H	 0.5131753527	 0.4004895136	 2.3835930309	 0.094016
H	 2.4830616014	 0.3066147	 0.0339304089	 0.123651
H	 2.9242527241	 0.0719440044	 1.7258540317	 0.099252
H	-0.9532774358	-1.0001710036	 1.0703999506	 0.09481
H	-2.2095001302	 0.0363280834	 0.4012010695	 0.121359
24.7259	91.3162	115.4632	173.926	234.1452	253.2395	273.4758	304.1594	356.3653	376.6232	415.0706	450.0319	521.4698	626.3398	716.0497	817.2996	848.2975	884.2668	904.7925	916.2873	951.9253	987.7362	994.6379	1033.2332	1039.6475	1092.9728	1107.776	1155.2033	1161.0201	1220.4059	1292.3346	1306.0646	1306.5906	1326.3269	1344.7479	1375.2427	1394.2127	1415.3356	1429.4602	1474.5969	1479.8462	1495.0559	1500.1022	1502.9282	1510.2331	1648.6781	1849.6822	2989.0999	3002.9863	3017.8105	3026.423	3050.253	3052.1683	3064.033	3092.4143	3108.433	3117.2655	3170.3112	3486.7343	3562.8339
CC(CC[NH3+])CC([O-])=O	C[C@@H](CCN)CC(=O)O	
InChI=1S/C6H13NO2/c1-5(2-3-7)4-6(8)9/h5H,2-4,7H2,1H3,(H,8,9)	InChI=1S/C6H13NO2/c1-5(2-3-7)4-6(8)9/h5H,2-4,7H2,1H3,(H,8,9)/t5-/m0/s1
