12
gdb 133467	3.56269	1.20812	1.07019	0.1743	52.88	-0.2686	-0.0105	0.258	1048.8476	0.076271	-563.191956	-563.184803	-563.183859	-563.225053	25.733	
F	 0.3154836544	 0.1045077829	 0.2564979533	-0.084469
C	-0.0210637048	 1.3896802593	 0.0335683866	 0.228872
F	 1.086698327	 2.0687407493	-0.2771329554	-0.061986
F	-0.8114840417	 1.4011535087	-1.0515817171	-0.065167
C	-0.6928513748	 1.9662836357	 1.2327259421	 0.218668
C	-0.8305249747	 3.2668545095	 1.668310767	-0.309947
C	-1.613494515	 3.157728876	 2.8354911362	 0.000451
N	-1.9337750732	 1.8928695478	 3.1042382761	-0.211775
N	-1.3679698828	 1.1877458489	 2.1150510803	-0.256477
H	-0.4227733528	 4.1519934763	 1.2093819077	 0.128537
H	-1.9511521711	 3.9456243386	 3.4918072446	 0.125752
H	-1.4414870606	 0.1835681071	 2.1076762486	 0.287541
27.9468	144.3114	177.3304	374.1251	383.1728	410.5248	537.8748	562.9418	582.3848	686.6981	722.9987	745.2316	824.5197	903.2295	939.363	992.0693	1059.7681	1128.7733	1160.2639	1173.8833	1205.6659	1277.0048	1331.0142	1364.9064	1456.6501	1494.112	1609.1484	3253.7062	3281.3549	3668.0007
FC(F)(F)C1=CC=NN1	FC(F)(F)c1ccn[nH]1	
InChI=1S/C4H3F3N2/c5-4(6,7)3-1-2-8-9-3/h1-2H,(H,8,9)	InChI=1S/C4H3F3N2/c5-4(6,7)3-1-2-8-9-3/h1-2H,(H,8,9)
