19
gdb 90827	3.23887	1.77358	1.5543	1.2257	76.53	-0.2354	0.077	0.3124	916.8002	0.162186	-385.844803	-385.838124	-385.83718	-385.875703	28.248	
O	-0.0392698568	 1.4656754376	-0.0284018627	-0.439372
C	 0.047483605	 0.047034339	 0.0145794824	 0.120048
C	 0.7423378158	-0.5201767392	 1.2970068379	-0.272222
C	-0.3534574833	-1.335001996	 1.9919174227	-0.017763
C	-1.5506751371	-0.5233799362	 2.5038321769	-0.067585
C	-2.5591842124	-1.3586153598	 1.7513485196	-0.111631
C	-2.2236009229	 0.0201718105	 1.2353285891	-0.044393
C	-1.3724873258	-0.522357612	 0.0803284288	-0.034368
C	-1.3390940348	-1.8535006935	 0.8930325462	-0.088858
H	 0.85522086	 1.817665827	-0.0637322771	 0.280457
H	 0.5638298855	-0.3215452672	-0.8855541031	 0.056814
H	 1.5980977597	-1.1516851202	 1.0324336917	 0.088524
H	 1.1144003672	 0.297029366	 1.9244940736	 0.093791
H	-0.0067958624	-2.0914238215	 2.6987823681	 0.059676
H	-1.6648761465	-0.0232039407	 3.4572020463	 0.078844
H	-3.4917143351	-1.810501822	 2.0545956303	 0.085992
H	-2.8254384825	 0.9179373882	 1.258328223	 0.086742
H	-1.9011997873	-0.5598412405	-0.87334669	 0.062812
H	-1.2177742463	-2.8234892795	 0.4153891863	 0.062491
94.0584	261.4529	287.8483	377.9548	472.0131	492.2123	646.2068	660.0669	748.5628	769.807	794.1005	817.0712	837.937	848.2191	879.5327	892.2173	943.6705	979.599	984.3114	1004.7224	1014.6066	1024.5446	1041.3182	1048.6489	1073.1078	1096.1834	1142.1344	1170.3966	1172.7644	1194.7775	1206.7917	1234.3993	1255.2028	1267.8755	1281.4342	1334.138	1347.1731	1366.5102	1368.1866	1425.1727	1476.675	2967.7471	3033.1842	3077.8471	3090.63	3100.2506	3135.1866	3190.9046	3210.0689	3229.1679	3822.647
OC1CC2C3C4C3C1C24	O[C@H]1C[C@H]2[C@@H]3[C@H]4[C@@H]3[C@@H]1[C@@H]24	
InChI=1S/C8H10O/c9-3-1-2-4-6(3)8-5(2)7(4)8/h2-9H,1H2	InChI=1S/C8H10O/c9-3-1-2-4-6(3)8-5(2)7(4)8/h2-9H,1H2/t2-,3+,4-,5-,6+,7+,8+/m1/s1
