17
gdb 55905	4.00981	0.78803	0.7363	3.562	70.89	-0.2462	-0.0426	0.2036	1506.129	0.135167	-455.159163	-455.149903	-455.148958	-455.194584	32.965	
N	-0.0370232242	 0.425521252	 0.8609347644	-0.505416
C	 0.0276383167	-0.0246479376	-0.4246416956	 0.371191
O	 0.8619501444	 0.345480942	-1.2254662951	-0.354243
C	-1.0813069585	-1.0258088351	-0.7801706682	-0.310847
C	-1.0298831753	-2.2726157326	 0.0835049521	-0.014289
N	-1.4729176073	-2.1544589422	 1.4703615407	-0.339391
C	-2.2388052423	-3.0322266848	 0.5585572048	-0.133903
C	-3.6338764503	-2.6000089767	 0.2543651274	 0.173291
O	-4.4900008263	-3.3542762895	-0.1314065607	-0.248613
H	 0.6907142816	 1.0399674653	 1.1872610873	 0.258627
H	-0.6682091118	-0.0010128231	 1.521856535	 0.270111
H	-2.0469372724	-0.5245218655	-0.6696257901	 0.124303
H	-0.9516504577	-1.2914518643	-1.8308760352	 0.13847
H	-0.1585730904	-2.8991780836	-0.1012425215	 0.115611
H	-0.9000604412	-2.7144926551	 2.0949502656	 0.251
H	-2.1281026323	-4.1096944688	 0.6503655097	 0.115567
H	-3.8327373125	-1.5201289104	 0.4254359793	 0.08853
42.9049	62.3638	81.1202	169.753	230.1274	293.9222	357.5907	380.7855	418.9448	453.761	518.4962	554.9907	607.9996	716.0415	817.1061	848.2635	881.1888	937.4116	943.717	995.6352	1014.223	1048.6078	1106.8175	1137.486	1174.0855	1222.8759	1242.0331	1265.4683	1302.189	1355.7884	1365.0786	1420.0467	1458.4681	1467.409	1619.8951	1809.4935	1826.4599	2902.7971	3070.2016	3118.4967	3134.8588	3153.1777	3519.3903	3569.7754	3714.4274
NC(=O)CC1NC1C=O	NC(=O)C[C@H]1N[C@H]1C=O	
InChI=1S/C5H8N2O2/c6-5(9)1-3-4(2-8)7-3/h2-4,7H,1H2,(H2,6,9)	InChI=1S/C5H8N2O2/c6-5(9)1-3-4(2-8)7-3/h2-4,7H,1H2,(H2,6,9)/t3-,4+/m1/s1
