14
gdb 12625	2.96538	2.33765	1.49784	2.0002	59.15	-0.2602	-0.0654	0.1948	810.0676	0.107525	-419.698053	-419.691015	-419.690071	-419.729384	26.513	
O	 0.1182729077	 1.4468744485	 0.2594277734	-0.44094
C	 0.1205234239	 0.0558972626	 0.0111591087	 0.058742
C	 0.7260988551	-0.6780532513	 1.1984504257	-0.051641
C	-0.183972479	-1.3077551331	 1.9539681231	-0.175617
C	-1.5264457924	-1.0668757034	 1.391588668	 0.344756
O	-2.6152480312	-1.1753845256	 1.9100926918	-0.342131
C	-1.321533986	-0.5115170569	-0.0235969962	 0.002363
O	-2.28022535	 0.4666849727	-0.3445819051	-0.441323
H	-0.7815376793	 1.7391579595	 0.0459332994	 0.295665
H	 0.6710803636	-0.1591811864	-0.9152942618	 0.080042
H	 1.7894387254	-0.6284187666	 1.4054832875	 0.130378
H	-0.0132966303	-1.8401027017	 2.880815562	 0.129653
H	-1.3697615647	-1.3537885806	-0.7304175296	 0.107377
H	-3.0147839528	 0.3290603025	 0.2733966332	 0.302678
74.3108	220.9204	266.8612	297.5087	367.2684	399.4994	489.356	542.0633	554.2432	670.5932	713.5247	768.2637	815.1259	863.8635	936.5766	975.3314	1011.1059	1090.3924	1127.999	1137.5512	1194.863	1201.6173	1294.1105	1337.2092	1360.7617	1368.0032	1397.9342	1436.8236	1637.6633	1815.0862	2989.1275	3006.3698	3199.1342	3227.8601	3696.775	3712.2822
OC1C=CC(=O)C1O	O[C@H]1C=CC(=O)[C@H]1O	
InChI=1S/C5H6O3/c6-3-1-2-4(7)5(3)8/h1-3,5-6,8H	InChI=1S/C5H6O3/c6-3-1-2-4(7)5(3)8/h1-3,5-6,8H/t3-,5-/m0/s1
