17
gdb 78199	2.26485	1.6689	1.4446	4.6879	72.52	-0.2224	0.0143	0.2366	994.463	0.135492	-417.955757	-417.947253	-417.946309	-417.988615	31.74	
C	-0.2850491958	 1.5272229413	-0.0563188299	-0.337988
N	 0.0868976569	 0.120043633	-0.0783044435	-0.086437
C	 0.6868452004	-0.4710147218	-1.2667620523	-0.077383
C	 2.1274468384	-0.099386794	-1.5008999195	 0.101803
O	 2.6869809199	 1.1324909256	-1.1684568149	-0.407464
C	 1.8234028698	-1.0899023166	-0.4253231652	-0.153744
C	 1.1709665232	-0.4163151655	 0.7921931132	-0.110852
C	 1.9632089998	 0.5284601748	 1.5853067942	 0.296683
N	 2.5366821873	 1.2543064741	 2.278341904	-0.342243
H	 0.5572524413	 2.2192282555	-0.187041228	 0.12336
H	-1.0120885099	 1.6965439107	-0.8570690829	 0.122445
H	-0.7773956956	 1.7574688538	 0.8936557505	 0.133725
H	 0.0547173375	-0.9156246432	-2.0293097487	 0.100665
H	 2.5510928834	-0.576159906	-2.3878810356	 0.099667
H	 2.415162285	 1.7793717821	-1.8281371361	 0.292647
H	 2.2179322972	-2.09633837	-0.4115376429	 0.112799
H	 0.7588876512	-1.1547289136	 1.4903584673	 0.132318
119.2222	131.788	170.6831	203.7235	241.5227	295.2474	331.7212	357.4697	461.5943	545.1306	577.3625	665.6877	688.6365	772.7128	822.8185	844.251	926.5698	968.3275	1017.5261	1031.0068	1053.1988	1070.1304	1090.9239	1152.4429	1201.3393	1216.9333	1243.9624	1263.983	1279.4628	1292.7347	1339.2399	1350.312	1446.2137	1459.6638	1482.6008	1515.1004	2351.9424	3011.3673	3031.5535	3079.5631	3081.6956	3106.2315	3157.4859	3212.2371	3810.7533
CN1C2C(O)C2C1C#N	CN1[C@H]2[C@@H](O)[C@H]2[C@H]1C#N	
InChI=1S/C6H8N2O/c1-8-3(2-7)4-5(8)6(4)9/h3-6,9H,1H3	InChI=1S/C6H8N2O/c1-8-3(2-7)4-5(8)6(4)9/h3-6,9H,1H3/t3-,4+,5-,6+/m1/s1
