18
gdb 56815	2.45102	1.25147	0.96852	4.3062	72.28	-0.2539	0.0331	0.287	1237.3006	0.146027	-439.072913	-439.06328	-439.062335	-439.107893	35.012	
C	 0.0892410507	 1.3334625145	-0.2734399666	-0.400415
C	 0.0848074704	-0.1561770845	 0.123810551	-0.144468
C	 0.7374909284	-0.3574330719	 1.4237113063	 0.275021
N	 1.2422728498	-0.4985053251	 2.4539295951	-0.330861
C	-1.3299882216	-0.719818321	 0.1540796524	-0.085004
C	-2.0087826658	-1.1210400296	-1.147891752	 0.060075
O	-1.281928082	-1.0714384788	-2.3363887232	-0.423757
C	-1.6032806222	-2.1731654579	-0.1407236348	 0.016987
O	-0.4861371841	-2.9447767563	-0.5087305076	-0.42157
H	 1.1063638252	 1.7330916861	-0.2790496253	 0.132981
H	-0.336963904	 1.4318808217	-1.2741956689	 0.14528
H	-0.5071673251	 1.9259065367	 0.4261389387	 0.130318
H	 0.6680777066	-0.7133694722	-0.6144434857	 0.132477
H	-1.9693176816	-0.272997771	 0.910354519	 0.10784
H	-3.0556940766	-0.8696259721	-1.2889450494	 0.107483
H	-0.6763974241	-1.8265941689	-2.3126542249	 0.288488
H	-2.348604791	-2.6944566641	 0.4543849371	 0.105438
H	-0.8020451932	-3.8022476056	-0.812639831	 0.303687
37.1496	103.1801	153.8711	188.6368	231.2765	247.8235	269.5407	292.3338	308.6063	486.4044	509.0404	543.9435	578.4396	607.2768	672.5256	771.9439	791.9194	849.7539	912.5652	995.166	1040.9972	1048.873	1087.6337	1102.7146	1122.5713	1155.1708	1172.4813	1231.3217	1249.7201	1289.177	1310.9954	1331.3325	1384.4119	1407.1258	1410.9672	1472.3195	1497.3651	1498.7791	2355.9257	3049.9608	3080.6281	3125.5394	3134.1802	3139.37	3147.2543	3158.7102	3725.0661	3816.6124
CC(C#N)C1C(O)C1O	C[C@@H](C#N)[C@H]1[C@@H](O)[C@H]1O	
InChI=1S/C6H9NO2/c1-3(2-7)4-5(8)6(4)9/h3-6,8-9H,1H3	InChI=1S/C6H9NO2/c1-3(2-7)4-5(8)6(4)9/h3-6,8-9H,1H3/t3-,4-,5+,6-/m0/s1
