18
gdb 98797	2.91701	1.14707	0.91088	2.5283	73.83	-0.2488	-0.0207	0.2282	1304.6674	0.146307	-439.132401	-439.122976	-439.122031	-439.167675	33.127	
C	 0.0402856275	 1.492145527	-0.2828008412	-0.381645
C	-0.1447106428	-0.0211527806	-0.2134072308	-0.287832
C	-1.5379378337	-0.4472767764	 0.2098762691	 0.372681
O	-2.4087427535	 0.334833484	 0.5178169823	-0.303736
C	-1.7883246763	-1.945882814	 0.160800817	-0.260077
C	-3.2295252262	-2.4386494532	 0.4375225072	-0.18268
N	-3.2690178174	-2.9064478386	-0.9570300537	-0.317309
C	-2.0189112663	-2.4767686249	-1.2980035648	 0.429002
O	-1.3766561938	-2.4857016255	-2.3128794027	-0.355166
H	 1.0601839523	 1.7413828182	-0.5878477498	 0.112777
H	-0.6529410373	 1.9366034134	-1.001542499	 0.132891
H	-0.1552420122	 1.9558852369	 0.6874195156	 0.129465
H	 0.0553736223	-0.5057272403	-1.179780832	 0.156947
H	 0.5698668848	-0.4784725089	 0.485923991	 0.119664
H	-0.9924321451	-2.4962233189	 0.6683949338	 0.117741
H	-3.3177222989	-3.2396742891	 1.1763513566	 0.115415
H	-3.9247724215	-1.6268030523	 0.6598028627	 0.143988
H	-4.008635682	-3.2979786266	-1.5208311015	 0.257876
58.2382	66.131	104.396	133.4858	194.1697	200.0208	290.1178	372.5501	414.3585	453.1084	545.7222	618.1294	700.4436	751.7731	771.0281	833.7496	910.3342	950.7413	985.2823	1016.9036	1033.3791	1085.2102	1098.5101	1126.0947	1143.3357	1168.6641	1188.079	1278.08	1291.294	1327.865	1384.9832	1391.9483	1413.6639	1454.1798	1493.1	1497.9551	1524.3659	1800.9882	1891.3226	3014.0351	3043.4223	3051.9745	3061.4796	3094.4993	3123.8022	3125.8914	3126.5251	3616.143
CCC(=O)C1CNC1=O	CCC(=O)[C@H]1CNC1=O	
InChI=1S/C6H9NO2/c1-2-5(8)4-3-7-6(4)9/h4H,2-3H2,1H3,(H,7,9)	InChI=1S/C6H9NO2/c1-2-5(8)4-3-7-6(4)9/h4H,2-3H2,1H3,(H,7,9)/t4-/m1/s1
