20
gdb 90509	4.52314	0.92011	0.89891	1.5375	85.36	-0.2367	0.0487	0.2854	1383.4968	0.169419	-365.92662	-365.917611	-365.916667	-365.960759	34.353	
C	 0.1114747012	 1.4678433667	-0.2830528626	-0.411102
C	 0.0214674759	-0.0368304842	-0.0547157252	 0.008041
C	 1.0750418267	-0.8746040222	-0.8521695522	-0.269594
C	 1.7302213796	-1.2846593093	 0.4796657244	-0.028592
C	 0.6988743688	-0.4963493855	 1.2576080172	-0.049731
N	 0.8165079264	-1.9317552334	 1.3938480194	-0.080425
C	-0.2285387943	-2.8561328343	 0.9483500731	-0.31463
C	 0.3269677956	-4.1732820765	 0.6533941823	 0.331125
C	 0.784617738	-5.2529513972	 0.3926095076	-0.452803
H	 1.1397895628	 1.8247581251	-0.1554455072	 0.117615
H	-0.2136082761	 1.7334437638	-1.2943749443	 0.11743
H	-0.5203999958	 2.0129241875	 0.427004238	 0.115874
H	-1.0195387192	-0.3602417129	-0.1703609489	 0.070729
H	 0.709455953	-1.6899237964	-1.4839133219	 0.105537
H	 1.7253795074	-0.2357542342	-1.4547503481	 0.104529
H	 2.7934589686	-1.4083720594	 0.6540059765	 0.094009
H	 0.8067610315	 0.1136452745	 2.1498700049	 0.089626
H	-0.9560945235	-2.9369402419	 1.7653495994	 0.134929
H	-0.7888234341	-2.5057625677	 0.0684088795	 0.120579
H	 1.1866170877	-6.2101111424	 0.1700669481	 0.196854
36.1869	102.5174	179.0687	231.4061	253.4537	276.4653	335.2534	351.3531	434.8921	529.585	572.1671	610.4722	655.2869	730.1494	757.4324	836.8001	859.0086	884.8185	920.0976	957.7553	963.0644	987.7852	1021.7418	1031.546	1057.4184	1080.5647	1110.519	1126.3264	1195.0725	1226.8604	1242.5126	1260.0725	1272.6005	1283.3535	1347.1151	1367.8032	1392.734	1409.5609	1475.0272	1494.2053	1495.8779	1498.6054	2243.1653	2991.9168	3025.076	3028.9547	3043.1364	3053.7831	3091.7475	3097.988	3106.7001	3150.1073	3172.556	3506.7995
CC1CC2C1N2CC#C	C[C@H]1C[C@H]2[C@@H]1N2CC#C	
InChI=1S/C8H11N/c1-3-4-9-7-5-6(2)8(7)9/h1,6-8H,4-5H2,2H3	InChI=1S/C8H11N/c1-3-4-9-7-5-6(2)8(7)9/h1,6-8H,4-5H2,2H3/t6-,7-,8+,9?/m0/s1
