18
gdb 55373	2.83244	1.48096	1.34737	5.7837	70.61	-0.2453	0.0255	0.2708	1014.9673	0.150743	-439.101532	-439.09424	-439.093296	-439.133278	29.137	
O	-0.4272495612	 0.4808455276	 1.4502392975	-0.381862
C	-0.125136092	 1.1866322053	 0.3379131374	 0.415397
O	 0.935286858	 1.0645411732	-0.2119766682	-0.334672
C	-1.2254504618	 2.1366888093	-0.149584956	-0.148361
C	-2.6377486635	 1.5374271734	 0.0369106554	-0.195246
N	-2.8741710946	 1.834620859	 1.4665648382	-0.338706
H	-3.8238309256	 1.6577078502	 1.7687302244	 0.236298
H	-1.3247435725	 0.7420672008	 1.7599399302	 0.30698
C	-2.4687297698	 3.2317414627	 1.6478459259	 0.002809
C	-1.0759089667	 3.4547598964	 2.1732215912	-0.306251
C	-1.3335159015	 3.4423488031	 0.6788006558	-0.046113
H	-1.0008031575	 2.3629672938	-1.1914226764	 0.105646
H	-3.348967476	 2.0470658148	-0.6298574553	 0.102465
H	-2.6907615748	 0.4606444474	-0.1509973742	 0.122971
H	-3.2498255331	 3.970594462	 1.7980234941	 0.094959
H	-0.8570584029	 4.4250140997	 2.6074284927	 0.118486
H	-0.5565568418	 2.6258029764	 2.6381370421	 0.141245
H	-1.2223863027	 4.3735309949	 0.1383713052	 0.103954
104.2224	175.1515	209.9461	330.3132	350.1905	415.5909	485.606	576.3091	640.027	720.782	735.6204	794.989	811.6337	822.0444	854.8407	918.2205	932.7864	946.8653	986.0004	1002.2136	1048.9214	1059.1279	1074.3483	1079.6007	1098.1649	1111.7671	1205.698	1211.1624	1241.9936	1258.0706	1293.7887	1309.7386	1342.5412	1393.2552	1419.4034	1452.3156	1493.1596	1517.9971	1865.3722	2993.2427	3085.3628	3123.3246	3138.5785	3150.9899	3190.9815	3232.5225	3396.7729	3566.9049
[O-]C(=O)C1C[NH2+]C2CC12	OC(=O)[C@H]1CN[C@H]2C[C@@H]12	
InChI=1S/C6H9NO2/c8-6(9)4-2-7-5-1-3(4)5/h3-5,7H,1-2H2,(H,8,9)	InChI=1S/C6H9NO2/c8-6(9)4-2-7-5-1-3(4)5/h3-5,7H,1-2H2,(H,8,9)/t3-,4-,5-/m0/s1
