18
gdb 53595	5.77209	0.59167	0.55841	3.4437	83.82	-0.2494	-0.0301	0.2193	1952.0319	0.145104	-401.90607	-401.895953	-401.895009	-401.943474	34.38	
C	-0.083825078	 1.4627545448	-0.0007917736	-0.496557
C	-0.0307644148	 0.0113059785	 0.1010542669	 0.096798
C	 0.027706888	-1.1884305258	 0.1815795743	 0.03491
C	 0.0598730133	-2.6444626121	 0.2813334824	-0.359945
C	-1.3172781747	-3.2564491241	 0.058163238	 0.004489
N	-1.6755089699	-3.6422576704	-1.2939988994	-0.321983
C	-1.5454943321	-4.7066648023	-0.2750703791	-0.138077
C	-0.4228605589	-5.6638996951	-0.479185883	 0.174975
O	-0.3835276011	-6.7611685055	 0.0187403403	-0.259032
H	 0.8027004314	 1.8570051494	-0.5096410874	 0.150393
H	-0.9622114099	 1.7898660511	-0.5680753551	 0.147935
H	-0.1342101323	 1.9319586742	 0.9879561557	 0.147519
H	 0.7606548037	-3.0555394144	-0.4531675675	 0.137352
H	 0.4271301549	-2.9436789263	 1.2720056263	 0.135733
H	-2.0934680248	-2.814666018	 0.6811025622	 0.106738
H	-2.6546587378	-3.4601285222	-1.4937472638	 0.245865
H	-2.43900843	-5.1624267736	 0.1451385948	 0.106636
H	 0.3851483929	-5.2886954782	-1.144106072	 0.086251
25.4463	41.3304	65.8517	99.0706	202.2209	208.4884	258.3956	303.214	380.4281	393.4226	437.0617	471.9292	533.963	759.924	828.9339	842.393	922.4822	940.481	1002.8624	1009.9701	1050.2731	1053.6389	1054.8997	1124.778	1168.5595	1186.3084	1224.051	1239.1898	1270.0791	1326.0733	1364.836	1414.7599	1417.7723	1461.0216	1467.4908	1478.4179	1479.0993	1821.8745	2375.3538	2900.6034	3023.07	3027.3863	3070.8935	3087.8586	3088.5462	3122.7143	3146.0449	3520.0181
CC#CCC1NC1C=O	CC#CC[C@H]1N[C@H]1C=O	
InChI=1S/C7H9NO/c1-2-3-4-6-7(5-9)8-6/h5-8H,4H2,1H3	InChI=1S/C7H9NO/c1-2-3-4-6-7(5-9)8-6/h5-8H,4H2,1H3/t6-,7+/m1/s1
