16
gdb 127276	6.62552	0.82901	0.75536	3.2066	76.27	-0.2317	0.0063	0.238	1464.8607	0.124906	-434.07322	-434.064623	-434.063679	-434.107901	29.838	
C	-0.1632947514	 1.3728093372	-0.0087105283	-0.322697
N	 0.0128878765	-0.0647131177	-0.0157495613	 0.062947
C	 0.0828687037	-0.8823588486	-1.0961646185	-0.135469
C	 0.3474819233	-2.1427452661	-0.5994108055	 0.228802
O	 0.5405382216	-3.2618262353	-1.3650824818	-0.214738
C	-0.0814985816	-4.4043027529	-0.9718686281	 0.107108
N	 0.1893818875	-5.4862942588	-1.5557905128	-0.431486
C	 0.4255935968	-1.9862687901	 0.7990704251	-0.093913
N	 0.2161553668	-0.7156007867	 1.1426267091	-0.254842
H	 0.784787897	 1.8899455068	-0.1905279451	 0.146709
H	-0.882728578	 1.6622931911	-0.7781712602	 0.142251
H	-0.5429560557	 1.6572422011	 0.9724483488	 0.163514
H	-0.049295562	-0.5295724789	-2.1054746063	 0.143865
H	-0.79481555	-4.2414509371	-0.1551477023	 0.101769
H	-0.3721874834	-6.2406218734	-1.1663219791	 0.234562
H	 0.6230455189	-2.7309850705	 1.5551255362	 0.121618
50.4242	55.3299	108.1261	144.3824	199.8835	309.7876	391.1197	449.5949	484.6307	640.5977	672.1648	709.8473	778.6439	805.1781	828.6346	858.4469	996.9864	1021.2724	1049.9463	1063.8051	1077.139	1147.8616	1195.2666	1215.8285	1277.6751	1354.8567	1399.5786	1408.9509	1424.6952	1444.1299	1477.4156	1490.2949	1516.526	1612.7077	1748.0873	3043.0319	3051.9407	3113.6682	3162.2004	3251.1976	3273.3605	3522.331
CN1C=C(OC=N)C=N1	Cn1cc(O[CH][NH])cn1	
InChI=1S/C5H7N3O/c1-8-3-5(2-7-8)9-4-6/h2-4,6H,1H3	InChI=1S/C5H7N3O/c1-8-3-5(2-7-8)9-4-6/h2-4,6H,1H3
