20
gdb 8007	2.90193	1.83922	1.53213	2.539	70.99	-0.2372	0.0657	0.3029	951.5092	0.17648	-386.155584	-386.146924	-386.14598	-386.188475	32.649	
C	 0.4684143431	 1.4689913852	 0.1089487814	-0.392576
C	-0.0036533088	 0.0202890936	 0.0332493699	 0.160798
C	 0.4837049058	-0.7408717671	-1.223563805	-0.288481
C	 1.6805914209	-1.5513592061	-0.7058699567	 0.102294
O	 2.8744258294	-0.7802451036	-0.6443558727	-0.43002
C	 1.2241501724	-1.8641465044	 0.7258149541	 0.151709
C	 2.3211064485	-2.1875644474	 1.7257721968	-0.399585
O	 0.5258938546	-0.6972221128	 1.1554109518	-0.290397
H	 1.5559162249	 1.5115581799	 0.0061964542	 0.127815
H	 0.0093561804	 2.0689141281	-0.6845926534	 0.101522
H	 0.1920205789	 1.9057172347	 1.0728339056	 0.121392
H	-1.100948689	-0.0079862561	 0.09126319	 0.067328
H	-0.2902357658	-1.4209410502	-1.5939542566	 0.102794
H	 0.7566670284	-0.0712711336	-2.0446281024	 0.092743
H	 1.8445182879	-2.4732585995	-1.2814598317	 0.063063
H	 3.0947703637	-0.5048583496	-1.5392037769	 0.283774
H	 0.5208393727	-2.7135544485	 0.6651582753	 0.058136
H	 3.0552339895	-1.3811402852	 1.755629268	 0.140283
H	 1.8890789572	-2.3136742751	 2.7220999303	 0.11965
H	 2.8293138354	-3.1168974825	 1.4497377781	 0.107758
65.7099	130.5882	215.7618	251.266	262.6344	273.7659	323.191	370.8526	395.963	418.7505	527.4582	700.6637	749.7653	796.2111	840.1548	865.8207	899.5543	959.9516	977.5844	1009.9647	1056.2936	1066.5733	1109.5643	1133.3169	1155.4119	1175.9264	1209.4936	1225.5393	1283.8268	1326.157	1348.0095	1371.5512	1386.8309	1390.0552	1402.5733	1413.2852	1424.5088	1479.2409	1485.9954	1489.7656	1497.5885	1502.6771	2939.2612	2993.4508	3002.9705	3036.2868	3049.4004	3051.6368	3093.8781	3108.2455	3116.4645	3128.8673	3148.5491	3826.9284
CC1CC(O)C(C)O1	C[C@H]1C[C@@H](O)[C@@H](C)O1	
InChI=1S/C6H12O2/c1-4-3-6(7)5(2)8-4/h4-7H,3H2,1-2H3	InChI=1S/C6H12O2/c1-4-3-6(7)5(2)8-4/h4-7H,3H2,1-2H3/t4-,5+,6+/m0/s1
