15
gdb 74992	2.95664	1.66903	1.21372	1.8456	68.28	-0.238	-0.0677	0.1703	989.9225	0.114173	-453.953735	-453.946267	-453.945323	-453.985693	28.271	
N	-0.0055940976	 1.3246849834	 0.1724552394	-0.568652
C	-0.0834660524	-0.0219009111	 0.0909071478	 0.291837
N	-1.1500849913	-0.741369526	 0.1420733824	-0.286149
C	-0.7838849259	-2.1522004537	 0.0471965977	-0.05568
C	-0.8583695569	-2.7300422742	-1.3848265514	-0.075225
O	 0.5790154972	-2.6335411002	-1.5352829636	-0.286913
C	 0.7454326003	-2.251636454	-0.1442047841	-0.014001
C	 1.2028752996	-0.8012937929	-0.0522678471	 0.35363
O	 2.3082654693	-0.3273643741	-0.1276118481	-0.31743
H	 0.8812669407	 1.7441572384	-0.05625924	 0.274177
H	-0.8403800176	 1.8787921003	 0.0842000911	 0.268267
H	-1.2652626918	-2.7353288541	 0.8333102933	 0.093509
H	-1.1915465097	-3.7728169957	-1.4447037466	 0.107727
H	-1.3990242358	-2.1176020865	-2.1128627786	 0.116818
H	 1.3525596321	-2.9590177197	 0.4258357677	 0.098086
100.87	163.8862	222.4235	269.2408	310.1819	397.2603	440.2274	502.0762	561.0802	626.9392	663.4628	735.3036	820.3396	848.2958	885.4966	898.4143	972.3331	1007.2176	1035.1817	1073.5531	1114.7514	1154.8746	1180.649	1236.1517	1245.9298	1283.77	1318.4871	1337.6288	1419.0218	1508.4843	1603.6881	1711.6334	1836.1867	3028.2602	3083.9842	3090.5268	3103.4571	3598.8206	3726.2257
NC1=NC2COC2C1=O	NC1=N[C@H]2CO[C@H]2C1=O	
InChI=1S/C5H6N2O2/c6-5-3(8)4-2(7-5)1-9-4/h2,4H,1H2,(H2,6,7)	InChI=1S/C5H6N2O2/c6-5-3(8)4-2(7-5)1-9-4/h2,4H,1H2,(H2,6,7)/t2-,4+/m0/s1
