21
gdb 92479	2.49453	1.6457	1.62669	2.1735	76.45	-0.243	0.0735	0.3165	999.4942	0.185662	-424.248638	-424.240932	-424.239988	-424.280811	30.936	
C	-0.1944778659	 1.5458665449	-0.0274553482	-0.413201
C	 0.0553014484	 0.0439008847	 0.0149975709	 0.172655
O	 0.7942007337	-0.3356867952	-1.1619815814	-0.292377
C	 1.856973102	-1.2207703342	-0.8613405357	 0.209031
C	 2.9322725865	-0.4853552053	-0.0534739057	-0.231598
C	 2.2626064306	 0.0317041762	 1.2498069821	-0.222198
C	 0.8106835859	-0.4794721959	 1.2526287974	-0.071171
C	 0.8499252844	-2.0066443347	 1.119102669	-0.071588
O	 1.3960201624	-2.3574866852	-0.1600499884	-0.27054
H	 0.7382267355	 2.1145195877	 0.0247250261	 0.119488
H	-0.6926733492	 1.8074573975	-0.9652136543	 0.128563
H	-0.8396336588	 1.853822761	 0.8022001268	 0.109893
H	-0.9196753854	-0.4675764971	-0.0264587753	 0.072935
H	 2.2284106676	-1.5872546634	-1.8203398002	 0.083871
H	 3.7549198384	-1.1748750219	 0.1573889516	 0.105597
H	 3.3310815639	 0.3343936026	-0.657043327	 0.10614
H	 2.7833518518	-0.3433438996	 2.1362151877	 0.099933
H	 2.2919872115	 1.1226495594	 1.3066954747	 0.103425
H	 0.2811980378	-0.1931807798	 2.1664114002	 0.069034
H	 1.462076979	-2.4572744659	 1.9135330238	 0.091302
H	-0.1587865401	-2.4350604658	 1.1834794159	 0.100807
61.7812	212.1694	245.844	283.7633	307.1345	388.4006	425.3451	449.5099	562.5916	614.0555	682.7595	788.9676	816.7982	833.3176	853.9924	889.4963	917.7652	949.2199	977.7014	1013.19	1022.8938	1053.2611	1085.5982	1092.9434	1108.4165	1145.7475	1173.552	1197.8913	1223.8403	1262.4221	1263.3251	1325.43	1339.5137	1345.6505	1361.7719	1375.1703	1392.969	1395.3201	1411.0899	1416.466	1478.2334	1484.6347	1493.9701	1509.3856	1527.886	2967.5507	2994.1042	3034.2459	3038.9183	3048.2551	3058.1296	3067.8815	3087.3661	3099.981	3107.8892	3111.9461	3118.7931
CC1OC2CCC1CO2	C[C@H]1O[C@H]2CC[C@@H]1CO2	
InChI=1S/C7H12O2/c1-5-6-2-3-7(9-5)8-4-6/h5-7H,2-4H2,1H3	InChI=1S/C7H12O2/c1-5-6-2-3-7(9-5)8-4-6/h5-7H,2-4H2,1H3/t5-,6-,7+/m1/s1
