20
gdb 105834	2.06133	1.5182	1.23685	3.5101	79.51	-0.2391	0.0109	0.25	1158.2963	0.170412	-403.154387	-403.145161	-403.144217	-403.188331	34.433	
C	 0.0620237741	 1.5294760946	 0.154402237	-0.377793
C	 0.0467398893	 0.0113446218	-0.0789251697	-0.301793
C	-1.3501923323	-0.5453473561	-0.0754999674	 0.172061
C	-2.0976092358	-1.0347201248	 1.177982801	-0.050845
C	-3.4346556028	-0.5198611601	 1.663223452	-0.425814
C	-1.8997391167	-1.9656824878	 0.0148895501	-0.096297
N	-2.8128081497	-1.6805607721	-1.0967085498	-0.341769
C	-2.397885884	-0.3374950879	-1.1663672883	 0.366729
O	-2.7662109938	 0.5788003417	-1.848244092	-0.350284
H	 1.0816040307	 1.9228909926	 0.1024134725	 0.110659
H	-0.5434915255	 2.0383412	-0.6006635054	 0.14834
H	-0.3479863183	 1.7801034417	 1.1382699732	 0.11408
H	 0.5238569295	-0.2153955346	-1.040546766	 0.111159
H	 0.6433120116	-0.4943621886	 0.6903189637	 0.097884
H	-1.3880727287	-1.2280515258	 1.983503717	 0.094181
H	-4.1353450113	-0.3559792707	 0.8403681318	 0.128281
H	-3.8921162714	-1.2306756096	 2.3601148422	 0.120637
H	-3.3158027484	 0.4334240702	 2.1877337829	 0.130251
H	-1.3485957681	-2.8973172378	 0.0419187452	 0.110486
H	-3.7878237486	-1.9584203167	-1.1191894401	 0.23985
75.918	123.5769	148.3387	185.4525	198.6439	257.7242	294.7327	326.1255	397.9096	475.2469	549.4203	633.1925	688.984	724.6413	780.1359	784.3422	793.0228	900.6195	907.4846	973.1177	983.8969	990.2819	1050.4345	1092.501	1094.4907	1120.1931	1144.8687	1157.9051	1235.5567	1273.6576	1314.5829	1323.6307	1340.819	1363.74	1411.4543	1418.7977	1453.5671	1484.8993	1491.2969	1498.0843	1501.5856	1511.0471	1883.0728	3022.0794	3036.7804	3039.0907	3055.7163	3098.2567	3103.4324	3107.128	3121.263	3122.8625	3195.0241	3541.5972
CCC12C(C)C1NC2=O	CC[C@]12[C@@H](C)[C@H]1NC2=O	
InChI=1S/C7H11NO/c1-3-7-4(2)5(7)8-6(7)9/h4-5H,3H2,1-2H3,(H,8,9)	InChI=1S/C7H11NO/c1-3-7-4(2)5(7)8-6(7)9/h4-5H,3H2,1-2H3,(H,8,9)/t4-,5+,7-/m0/s1
