20
gdb 99151	4.0275	0.8564	0.77459	2.6285	76.79	-0.2226	0.0115	0.234	1527.6121	0.168916	-440.282946	-440.272883	-440.271939	-440.319116	35.263	
C	-0.0140003882	 1.3598119337	 0.149094721	-0.240011
O	-0.2142254452	 0.0307255105	-0.349639623	-0.231886
C	-1.1822133829	-0.6768558126	 0.2678628245	 0.449695
O	-1.8591685424	-0.2386324541	 1.1638012845	-0.349295
C	-1.2706359343	-2.0806092712	-0.3038129612	-0.368082
C	-2.6408632279	-2.7046398817	-0.1316322046	 0.039966
C	-2.78243347	-4.1888820848	-0.0414914591	-0.267375
N	-3.0982423726	-3.3406995891	 1.0975712188	-0.061471
C	-2.2353932137	-3.3897717824	 2.2673489621	-0.320121
H	 0.7906919513	 1.7840607402	-0.4513882483	 0.133449
H	-0.925809284	 1.9525649157	 0.0419762345	 0.142661
H	 0.2666250391	 1.3379173328	 1.2052375202	 0.140402
H	-0.999118887	-2.0464216212	-1.3636480933	 0.132203
H	-0.4931787426	-2.6784979727	 0.1844670586	 0.135209
H	-3.4300803853	-2.1445350307	-0.6314063041	 0.094925
H	-3.6177267181	-4.7029831447	-0.5106146506	 0.113528
H	-1.8580314872	-4.7674806528	-0.0078691093	 0.09974
H	-1.1928161912	-3.6817700747	 2.0579422805	 0.088554
H	-2.2313101804	-2.4062393997	 2.7436657061	 0.147147
H	-2.6445114574	-4.1217271204	 2.9710476527	 0.120763
31.6967	77.9047	115.9578	125.5058	184.388	195.7277	254.7885	308.1575	313.8986	386.3245	418.503	495.8653	614.0075	719.4186	758.9599	800.5945	886.5232	927.4891	969.0711	1028.173	1039.9518	1083.2158	1120.1465	1131.2667	1137.7317	1172.7205	1179.3687	1202.6808	1203.5474	1220.7111	1236.355	1349.1566	1354.7734	1423.487	1445.4312	1455.9577	1473.5433	1481.8604	1491.1323	1497.3563	1506.7589	1515.9879	1818.3517	2961.8803	3052.0929	3055.193	3069.2732	3075.6012	3089.2863	3113.449	3123.3534	3126.7688	3159.3497	3165.0323
COC(=O)CC1CN1C	COC(=O)C[C@H]1CN1C	
InChI=1S/C6H11NO2/c1-7-4-5(7)3-6(8)9-2/h5H,3-4H2,1-2H3	InChI=1S/C6H11NO2/c1-7-4-5(7)3-6(8)9-2/h5H,3-4H2,1-2H3/t5-,7?/m0/s1
