17
gdb 111830	2.7859	1.42876	1.12374	3.1328	67.98	-0.2536	-0.041	0.2126	1092.2346	0.13565	-458.932655	-458.924554	-458.92361	-458.965811	29.951	
O	 0.1718341592	 1.2535228045	 0.3050913199	-0.423275
C	 0.0888370577	-0.1119295114	-0.0578162039	-0.083323
C	-1.3665672231	-0.579675019	-0.0525587124	-0.142723
C	-1.7640096062	-2.0796959393	-0.1264011113	 0.077144
O	-0.8358960467	-2.9488001946	 0.5572915119	-0.285173
C	-1.6595718145	-2.991825716	 1.7442238269	-0.083139
C	-2.6416452168	-1.9498158308	 1.1605857328	-0.214207
C	-2.0885653905	-0.5212050389	 1.3021885183	 0.391999
O	-2.1196679395	 0.3031015751	 2.1749471685	-0.31567
H	-0.2848382014	 1.3539571227	 1.1500380196	 0.296512
H	 0.5197105288	-0.1999650901	-1.0604529491	 0.113908
H	 0.6769219472	-0.756154245	 0.6106701254	 0.106325
H	-1.9489175513	-0.0027039985	-0.7841866738	 0.116415
H	-2.097971457	-2.4861176175	-1.0823376163	 0.090402
H	-2.1078212832	-3.9830577355	 1.8801518456	 0.117875
H	-1.1154080786	-2.710835012	 2.6520625213	 0.125835
H	-3.7133175041	-2.1195764538	 1.2453078667	 0.111096
80.7083	110.0599	146.6803	198.5359	236.9356	355.6315	458.492	477.7787	484.4256	625.5041	685.8119	737.9714	833.4095	859.5416	896.8883	945.1455	958.332	1012.7886	1040.9441	1049.5457	1066.2293	1072.3627	1119.0119	1130.9244	1164.3872	1170.141	1217.7812	1231.2615	1249.7363	1296.2408	1318.7903	1353.9203	1375.9188	1438.7559	1518.3389	1525.7031	1866.8403	3008.2998	3026.2637	3030.3434	3074.9486	3078.9095	3101.8496	3137.6369	3773.5272
OCC1C2OCC2C1=O	OC[C@H]1[C@H]2OC[C@H]2C1=O	
InChI=1S/C6H8O3/c7-1-3-5(8)4-2-9-6(3)4/h3-4,6-7H,1-2H2	InChI=1S/C6H8O3/c7-1-3-5(8)4-2-9-6(3)4/h3-4,6-7H,1-2H2/t3-,4+,6-/m1/s1
