19
gdb 89595	4.44869	0.9234	0.87931	3.262	79.66	-0.2462	0.0272	0.2735	1366.2398	0.159283	-382.046885	-382.038118	-382.037174	-382.08075	32.765	
C	-0.3252152945	 1.5366981864	 0.1671251112	-0.404584
C	 0.0507189869	 0.0723765764	 0.0367931384	 0.083059
C	 1.0945978723	-0.3881743707	-1.0227250496	-0.338053
C	 1.8775700913	-0.9773567898	 0.1514294368	 0.361051
C	 2.4713213073	-2.3675169759	 0.1885422827	-0.441985
C	 3.7012187119	-2.4638300954	-0.6003695957	 0.260743
N	 4.6661805661	-2.5218291519	-1.233141685	-0.305619
C	 2.2007492412	 0.070696994	 1.1351585607	-0.281405
N	 0.8516533094	-0.5382852145	 1.1732902484	-0.189874
H	 0.5478868195	 2.1943150841	 0.2100657492	 0.119721
H	-0.9283470517	 1.8463777246	-0.6929413889	 0.124043
H	-0.918072528	 1.6980963612	 1.0732193008	 0.131891
H	-0.8618102381	-0.5246204001	-0.0425091089	 0.091117
H	 0.7032682719	-1.1355253197	-1.7159769702	 0.114249
H	 1.6112771157	 0.385420962	-1.5975025905	 0.114533
H	 2.687325723	-2.647024427	 1.2252774216	 0.162232
H	 1.751682925	-3.1005317331	-0.1957002158	 0.153747
H	 2.8017688454	-0.2064159844	 1.9958991615	 0.125871
H	 2.3302147854	 1.0995344838	 0.8118695434	 0.119264
52.8524	89.6956	177.5936	214.584	239.4079	331.7163	362.9336	393.1171	423.7856	443.4385	542.4673	679.4527	717.0222	815.1132	831.1269	857.5935	898.9442	905.2352	943.3343	968.4947	985.6833	1074.6089	1096.7382	1113.8193	1125.885	1130.3702	1180.8344	1203.3981	1245.79	1291.0051	1315.7508	1330.1476	1382.8857	1392.1121	1411.8982	1456.505	1484.2522	1490.8549	1496.6049	1514.632	2363.4173	3036.9711	3039.5984	3060.7646	3062.7879	3085.0922	3104.9584	3110.5232	3117.4434	3120.4108	3203.487
CC1CC2(CC#N)CN12	C[C@H]1C[C@@]2(CC#N)CN12	
InChI=1S/C7H10N2/c1-6-4-7(2-3-8)5-9(6)7/h6H,2,4-5H2,1H3	InChI=1S/C7H10N2/c1-6-4-7(2-3-8)5-9(6)7/h6H,2,4-5H2,1H3/t6-,7-,9?/m0/s1
