18
gdb 65523	3.34097	1.34196	1.1814	1.4173	70.9	-0.2418	0.0709	0.3127	1079.3051	0.147643	-439.008246	-439.000395	-438.999451	-439.040636	30.858	
O	-0.1919356632	 1.4352831245	-0.161610402	-0.489428
C	 0.0044519456	 0.0503998725	-0.0422982486	 0.402446
C	 0.352176022	-0.5092501916	 1.3963363939	-0.303769
C	-0.995392567	-1.2271113468	 1.3958744318	-0.029317
N	-2.0307320672	-0.1829034444	 1.1694251247	-0.366273
C	-1.3027296229	-0.7750583533	 0.0172110053	-0.113714
C	 0.9512296775	-0.3450062976	-1.1501890853	 0.031969
C	 2.4052184977	-0.3686606651	-0.9781188113	-0.179922
O	 1.6474503793	-1.5836293701	-1.0239238293	-0.236464
H	-0.9641964909	 1.6243928011	 0.3917937327	 0.291306
H	 1.1892579024	-1.2087303964	 1.3626394257	 0.125961
H	 0.5028322198	 0.2467543362	 2.1702565757	 0.101116
H	-1.2529009219	-2.1582416893	 1.8838372746	 0.098747
H	-2.9445717181	-0.6306364002	 1.2166807561	 0.234237
H	-1.8335086568	-1.2589556015	-0.7941267568	 0.094708
H	 0.5585946766	-0.1430721288	-2.1479120383	 0.098595
H	 3.0508112943	-0.1903671355	-1.8358007776	 0.120481
H	 2.835612093	-0.1243965236	-0.0088312112	 0.11932
83.7634	146.6903	192.1	259.9644	330.8253	397.1412	426.6676	478.7156	546.856	597.0297	644.1278	750.1356	818.7836	843.554	874.4714	885.8976	917.9036	933.753	960.6471	987.7986	1015.5209	1039.9386	1085.8532	1093.5133	1105.8317	1145.6531	1151.0389	1170.7775	1177.181	1199.9999	1234.0982	1287.8202	1300.5376	1312.1701	1370.2075	1399.3858	1460.2402	1465.9757	1530.1728	3069.9393	3093.3218	3102.6067	3138.6797	3182.2667	3183.7001	3203.2436	3487.4622	3723.7593
OC1(CC2NC12)C1CO1	O[C@]1(C[C@H]2N[C@@H]12)[C@H]1CO1	
InChI=1S/C6H9NO2/c8-6(4-2-9-4)1-3-5(6)7-3/h3-5,7-8H,1-2H2	InChI=1S/C6H9NO2/c8-6(4-2-9-4)1-3-5(6)7-3/h3-5,7-8H,1-2H2/t3-,4-,5-,6-/m1/s1
