19
gdb 72102	2.82385	1.69685	1.56626	0.8235	73.51	-0.2323	0.0781	0.3103	943.0834	0.161972	-423.028518	-423.021396	-423.020452	-423.059619	29.552	
O	-0.0765229503	 1.3826732519	 0.0522106036	-0.480087
C	-0.011853462	-0.0087350589	 0.0334795592	 0.402539
C	 1.0023504913	-0.7382208223	 0.9008565926	-0.30062
C	 0.4762998107	-2.1861680623	 0.8217057935	 0.090804
C	-1.0558313944	-2.027848592	 0.9383326991	-0.235405
C	-1.2944200109	-0.8068876081	 0.062875518	-0.10441
C	-0.4334480757	-0.7872058573	-1.1909853858	-0.140475
C	 0.3213449017	-2.0492782186	-1.5697241319	-0.092717
O	 0.8197326148	-2.7627693649	-0.4364085583	-0.2789
H	 0.6789287835	 1.7242752295	-0.438736956	 0.280464
H	 2.034106614	-0.6736777622	 0.539321519	 0.094854
H	 0.9654714518	-0.3493116785	 1.925186042	 0.103334
H	 0.9093280404	-2.8509995102	 1.5710823948	 0.080102
H	-1.568897098	-2.9328810714	 0.5989413335	 0.104271
H	-1.3544324829	-1.8322681452	 1.9748966959	 0.100264
H	-2.2516819346	-0.29991199	 0.0482488324	 0.090074
H	-0.8100136475	-0.199458288	-2.0224362614	 0.088821
H	-0.3356867931	-2.7212966217	-2.1414428126	 0.100337
H	 1.1737984512	-1.8052794296	-2.2203206378	 0.09675
138.1629	239.1322	296.1614	347.6668	367.0148	419.6915	468.1847	487.1522	590.7661	645.5284	688.821	789.6089	820.9455	859.6486	877.8111	909.8607	920.8848	935.1927	993.6122	1016.8156	1047.614	1064.475	1091.0296	1096.7226	1128.5716	1153.589	1180.5917	1220.3168	1245.2766	1254.1677	1274.5812	1302.1571	1322.4086	1326.2583	1351.716	1365.742	1413.6583	1459.3344	1480.6382	1501.8906	1529.3696	2985.4119	3006.8962	3034.0029	3038.6653	3082.6372	3086.2966	3099.7642	3161.1809	3186.2162	3793.8067
OC12CC3CC1C2CO3	O[C@@]12C[C@H]3C[C@@H]1[C@@H]2CO3	
InChI=1S/C7H10O2/c8-7-2-4-1-5(7)6(7)3-9-4/h4-6,8H,1-3H2	InChI=1S/C7H10O2/c8-7-2-4-1-5(7)6(7)3-9-4/h4-6,8H,1-3H2/t4-,5-,6+,7+/m1/s1
