15
gdb 98965	5.10942	0.73435	0.64467	6.4723	67.11	-0.2539	-0.0889	0.165	1612.9533	0.109501	-491.095795	-491.085901	-491.084957	-491.133584	32.781	
O	 0.2660200601	 1.2924522549	 0.0135705723	-0.383559
C	-0.0008879085	-0.0804578483	-0.0012595003	-0.196127
C	-1.5235945285	-0.2768690743	 0.0159086694	 0.416574
O	-2.3173176181	 0.6200598705	 0.0296261346	-0.270417
N	-1.8591598846	-1.6377672239	 0.0125483991	-0.397593
C	-3.122556447	-2.2206142521	 0.0204514046	 0.298772
N	-4.2222713782	-1.5869315847	 0.0310760351	-0.440182
C	-3.0612498947	-3.7393878277	 0.0148246968	 0.103094
O	-4.0495453978	-4.4207985163	 0.0198889238	-0.224309
H	 1.2198631233	 1.4132583708	-0.004615368	 0.296816
H	 0.3977552722	-0.5817086606	-0.9009515867	 0.110104
H	 0.4220762567	-0.6054384465	 0.8735191661	 0.10937
H	-1.0845215525	-2.2855999641	 0.0027402474	 0.249586
H	-4.9758796353	-2.2812082195	 0.0345835206	 0.24528
H	-2.0433406072	-4.1945448281	 0.0057743851	 0.082591
9.5927	56.8954	68.2736	125.6526	172.3133	208.2608	275.403	290.3243	373.1615	391.6981	509.6176	531.3309	603.8615	676.1697	745.4606	879.9507	900.3512	975.3346	1027.5953	1034.6275	1070.4627	1154.5107	1170.7736	1242.0287	1255.0681	1319.5174	1431.1068	1443.7871	1508.1765	1555.9383	1709.4978	1839.0949	1863.5883	2861.3002	2943.4225	2967.2374	3435.5833	3599.7217	3838.5185
OCC(=O)NC(=N)C=O	OCC(=O)NC(=N)C=O	
InChI=1S/C4H6N2O3/c5-3(1-7)6-4(9)2-8/h1,8H,2H2,(H2,5,6,9)	InChI=1S/C4H6N2O3/c5-3(1-7)6-4(9)2-8/h1,8H,2H2,(H2,5,6,9)
