25
gdb 122003	5.50432	0.47718	0.45506	2.6384	86.91	-0.2601	0.0707	0.3308	2468.935	0.226238	-426.629986	-426.617984	-426.61704	-426.668377	42.195	
C	-0.1116143826	 1.586936802	 0.0067210141	-0.382019
C	-0.0350122496	 0.0582647907	-0.0012166063	-0.162465
C	 0.7324608265	-0.4996135602	-1.2042459574	-0.183742
C	 0.7645004972	-2.0320692499	-1.2563087385	 0.120225
O	-0.5542237025	-2.5810882915	-1.2770515498	-0.426909
C	 1.608419728	-2.558099097	-2.4251410938	-0.210496
C	 1.7169774791	-4.0846632974	-2.4558282583	-0.163475
C	 2.4974775218	-4.5992376203	-3.6572612906	-0.075057
O	 2.5403877757	-6.0163911499	-3.5795671595	-0.420588
H	 0.8875162573	 2.0367107499	 0.032062532	 0.110961
H	-0.6182408153	 1.963996965	-0.8891004431	 0.110263
H	-0.6629046473	 1.9538532699	 0.8781890496	 0.111877
H	 0.4458256999	-0.2904129492	 0.9223949171	 0.093557
H	-1.0426103966	-0.3707043321	 0.0030495718	 0.108177
H	 0.2818612243	-0.1253485553	-2.1370092292	 0.079192
H	 1.7640227874	-0.1226722113	-1.1958968121	 0.091804
H	 1.1924598795	-2.4082373717	-0.3170718612	 0.0856
H	-0.9817313222	-2.2757431212	-2.0857192794	 0.274657
H	 1.1669323751	-2.1943462423	-3.3661949263	 0.081101
H	 2.6089841352	-2.1093179314	-2.3672046569	 0.094075
H	 2.2077865728	-4.4438293158	-1.5428099598	 0.103031
H	 0.7150835786	-4.5247252258	-2.4638038744	 0.117281
H	 2.0091166932	-4.2662704105	-4.5887443382	 0.079207
H	 3.5136462915	-4.1700602049	-3.6555939365	 0.079854
H	 3.0375803329	-6.3439719801	-4.3345060236	 0.283889
48.6904	67.7006	75.6677	95.2768	117.3488	159.8622	191.48	249.1579	262.4512	273.5364	296.3987	321.5971	350.7911	452.6414	514.0448	565.0403	745.4213	761.0649	845.6043	854.4231	899.7826	930.5067	1008.4742	1015.6533	1042.4711	1045.9354	1078.1354	1084.0938	1110.8984	1124.1336	1148.9373	1205.3476	1229.0213	1245.7647	1279.2011	1287.6558	1304.1501	1313.3964	1318.8555	1357.8877	1365.8368	1396.1188	1397.9528	1412.9455	1420.2877	1463.7939	1472.792	1483.5109	1493.8601	1500.3361	1502.215	1511.3575	1528.982	2951.2639	2975.15	2986.2765	2991.6082	3020.4353	3024.1141	3027.3556	3033.0089	3039.2422	3048.5101	3071.053	3095.1595	3096.0602	3100.4809	3788.6339	3830.1229
CCCC(O)CCCO	CCC[C@@H](O)CCCO	
InChI=1S/C7H16O2/c1-2-4-7(9)5-3-6-8/h7-9H,2-6H2,1H3	InChI=1S/C7H16O2/c1-2-4-7(9)5-3-6-8/h7-9H,2-6H2,1H3/t7-/m1/s1
