20
gdb 110683	4.81955	1.09542	1.05256	0.4238	79.31	-0.2145	0.0856	0.3001	1221.9857	0.171959	-403.074024	-403.066363	-403.065418	-403.106302	30.406	
C	-0.0567971397	 1.6177563509	-0.0876132651	-0.373467
C	 0.0447914264	 0.0940832617	-0.1250216909	-0.125935
N	-1.2841548679	-0.5055941861	 0.0394625452	-0.113222
C	-1.8020224869	-0.686851454	 1.4413777974	-0.074723
C	-2.7443703645	-1.8118736805	 0.9063926924	-0.055482
C	-2.8581627675	-2.8626980362	 1.9949243277	-0.111073
O	-1.5109854081	-2.8779548862	 2.5108683882	-0.282508
C	-0.8660771923	-1.9143454294	 1.7117947896	 0.123108
C	-1.3509361846	-1.9942171449	 0.2245806285	-0.071573
H	 0.9161598006	 2.0776404886	-0.2861128984	 0.110677
H	-0.7720585582	 1.9705642005	-0.8357758007	 0.125477
H	-0.3962245109	 1.9668456053	 0.8935950968	 0.11417
H	 0.4147714055	-0.2252989547	-1.1074190336	 0.099724
H	 0.7884338021	-0.2423568768	 0.6155936309	 0.081766
H	-2.05944127	 0.1483011538	 2.0945309182	 0.080175
H	-3.6051454218	-1.5425473513	 0.2981389664	 0.086331
H	-3.5598658105	-2.5910486264	 2.7928617092	 0.106818
H	-3.1239526863	-3.857177772	 1.6164129135	 0.106861
H	 0.1779203552	-1.822639847	 1.9979841893	 0.094849
H	-1.0713246508	-2.6983968352	-0.5612623347	 0.078028
72.9089	165.2512	195.8543	274.9938	312.4046	367.9032	459.3129	506.9222	673.0716	716.8421	774.6806	780.4259	796.9774	818.9524	900.0077	916.0306	952.1168	955.4237	981.1425	983.1379	995.0336	1053.1297	1074.0246	1105.5482	1128.1261	1141.1361	1146.6146	1151.9325	1169.2803	1188.627	1222.3804	1224.1524	1274.2237	1284.3204	1312.6642	1331.8494	1386.6337	1391.804	1408.9239	1489.3888	1492.3583	1511.205	1521.7578	2966.9948	3022.4714	3036.2187	3041.1469	3060.2157	3097.5168	3102.308	3105.4777	3119.5359	3151.7587	3168.0403
CCN1C2C3COC2C13	CCN1[C@H]2[C@@H]3CO[C@H]2[C@H]13	
InChI=1S/C7H11NO/c1-2-8-5-4-3-9-7(5)6(4)8/h4-7H,2-3H2,1H3	InChI=1S/C7H11NO/c1-2-8-5-4-3-9-7(5)6(4)8/h4-7H,2-3H2,1H3/t4-,5-,6+,7+
