19
gdb 98262	2.58425	1.08221	0.81001	2.6172	69.11	-0.268	-0.0382	0.2298	1404.9671	0.15538	-497.309587	-497.299069	-497.298125	-497.345786	37.665	
C	 0.0355551403	 1.5382068255	-0.0725744422	-0.409452
C	 0.0355403008	 0.0302835351	 0.1509049376	 0.097674
O	 0.6140022804	-0.3194887608	 1.4026896406	-0.420597
C	-1.4016953528	-0.5548231139	 0.0203133929	 0.020439
O	-2.0048637801	-0.1041841857	-1.163012849	-0.431964
C	-1.4009971006	-2.0843640464	 0.0348955199	 0.333123
O	-1.7493793381	-2.6781495175	-0.9707173936	-0.349251
C	-1.0083008035	-2.8701045807	 1.2664856076	-0.13926
O	-1.1195843136	-4.2486802402	 1.0586822707	-0.421985
H	 1.0563775117	 1.9241166597	-0.0066829817	 0.126257
H	-0.3831985161	 1.7821824248	-1.0498773144	 0.152212
H	-0.5756397146	 2.0402202666	 0.6891853185	 0.108082
H	 0.6663960387	-0.4507210959	-0.6060909026	 0.104934
H	 0.2594556354	 0.2769945877	 2.0715267204	 0.284893
H	-1.9775193422	-0.2041715378	 0.894393126	 0.082905
H	-2.1601345483	-0.9018715953	-1.6948000819	 0.298175
H	 0.0119579558	-2.5781038142	 1.5504788887	 0.15488
H	-1.6574680671	-2.5365001004	 2.0943164337	 0.113572
H	-1.4472555362	-4.3528529007	 0.1530753289	 0.295363
42.7154	58.4427	105.3193	170.8009	227.3963	250.3767	281.9134	311.3267	335.9057	363.5726	374.9896	397.5065	446.0748	466.9605	528.7214	569.2037	731.2055	843.5997	896.1907	955.2062	985.1708	1049.5886	1066.8758	1113.1092	1125.182	1137.8449	1167.1842	1239.6064	1251.8431	1291.4373	1311.9714	1324.6999	1370.1365	1395.5174	1408.1506	1439.9175	1448.2823	1484.4407	1488.2359	1495.6666	1764.3856	2956.4602	2973.167	3022.9154	3038.6884	3047.7808	3104.1639	3149.2056	3674.1755	3719.5964	3801.1437
CC(O)C(O)C(=O)CO	C[C@@H](O)[C@@H](O)C(=O)CO	
InChI=1S/C5H10O4/c1-3(7)5(9)4(8)2-6/h3,5-7,9H,2H2,1H3	InChI=1S/C5H10O4/c1-3(7)5(9)4(8)2-6/h3,5-7,9H,2H2,1H3/t3-,5-/m1/s1
