13
gdb 25686	6.29624	0.77572	0.69363	5.5062	74.94	-0.2332	-0.0332	0.2	1538.5673	0.088003	-456.591228	-456.583005	-456.582061	-456.626243	28.227	
C	-0.1202754382	 1.445366596	-0.015227584	-0.511227
C	-0.0144552306	-0.0028498719	-0.0058430682	 0.223273
C	 0.0712325863	-1.2063185506	 0.0013903259	-0.0718
C	 0.160219535	-2.6027635071	 0.007299282	 0.175693
C	 1.1661153688	-3.4570727664	 0.236069186	-0.156205
O	 0.7098699395	-4.745853017	 0.1141154507	-0.199316
C	-0.6270004117	-4.6805847219	-0.2015381675	 0.483645
O	-1.3418279469	-5.6105268612	-0.3807878258	-0.363302
O	-0.9784636047	-3.3642145102	-0.2704250747	-0.242294
H	 0.5578972207	 1.8881794885	-0.7527848054	 0.16139
H	-1.1396785294	 1.7547602201	-0.2687636587	 0.166762
H	 0.124478559	 1.8679047412	 0.9653707108	 0.161378
H	 2.2023698922	-3.3125404193	 0.4828643388	 0.172004
16.0787	85.891	95.3776	211.8368	305.6543	312.2368	445.8793	461.2158	479.8988	595.7211	640.3028	758.6695	760.8047	783.1198	902.9465	934.4868	1004.3631	1049.2653	1049.4205	1069.121	1161.538	1297.4483	1320.1158	1411.2506	1469.4528	1473.0438	1698.6293	1944.0617	2360.1128	3030.3788	3092.5727	3099.0597	3309.114
CC#CC1=COC(=O)O1	CC#Cc1coc(=O)o1	
InChI=1S/C6H4O3/c1-2-3-5-4-8-6(7)9-5/h4H,1H3	InChI=1S/C6H4O3/c1-2-3-5-4-8-6(7)9-5/h4H,1H3
