19
gdb 65363	3.15619	0.95914	0.93428	3.3605	82.11	-0.2616	0.0306	0.2923	1357.8593	0.159674	-382.053091	-382.044017	-382.043073	-382.087235	34.122	
N	-0.0096043806	 1.4590268361	 0.0327833866	-0.556962
C	-0.0089462141	 0.0181202294	-0.0022471911	 0.137881
C	-0.4711989656	-0.6899528734	 1.2635531028	-0.320008
C	-1.3675447631	-0.6876348259	 0.0600904248	-0.033242
C	-2.6324683953	 0.1051259798	 0.0159084711	 0.011543
C	-3.4917523266	 0.0850860505	-1.2262269739	-0.272414
C	-3.9608277146	-0.6133849905	 0.0248112412	-0.273342
C	 1.0269271062	-0.6212434826	-0.7866978343	 0.230528
N	 1.8641166678	-1.0947670714	-1.431546956	-0.350508
H	 0.8647100574	 1.8062840701	 0.4152737887	 0.244189
H	-0.1016923458	 1.8394962515	-0.9043761258	 0.245356
H	 0.0298256159	-1.6078664553	 1.5465773753	 0.133738
H	-0.7263487834	-0.0251257307	 2.0811239916	 0.132526
H	-1.4034273511	-1.6216751168	-0.49432669	 0.105788
H	-2.5852210733	 1.0459509248	 0.5519317316	 0.103066
H	-3.9850543689	 1.003976656	-1.5227306613	 0.115462
H	-3.1673191669	-0.5322396039	-2.0576764248	 0.116299
H	-3.9513151563	-1.6983927027	 0.0325758219	 0.114394
H	-4.7747597217	-0.1741630647	 0.5906690917	 0.115705
59.2872	102.5994	131.8909	200.6789	261.6173	273.708	326.297	358.0611	435.4845	460.3648	581.4377	607.691	700.4212	752.8409	805.1583	829.5433	851.6268	873.7995	907.2029	927.8729	952.8261	989.58	1058.5501	1067.1242	1077.932	1085.1003	1099.7717	1138.0989	1198.0628	1203.4654	1228.8828	1249.4801	1273.7556	1312.2339	1327.8313	1448.4125	1470.763	1479.1031	1507.9414	1661.7464	2334.3724	3130.7217	3135.1508	3143.229	3146.7531	3179.0023	3209.2602	3224.9278	3238.448	3495.542	3572.9256
NC1(CC1C1CC1)C#N	N[C@]1(C[C@H]1C1CC1)C#N	
InChI=1S/C7H10N2/c8-4-7(9)3-6(7)5-1-2-5/h5-6H,1-3,9H2	InChI=1S/C7H10N2/c8-4-7(9)3-6(7)5-1-2-5/h5-6H,1-3,9H2/t6-,7+/m0/s1
