18
gdb 85726	1.82528	1.57131	1.01666	4.1254	80.26	-0.2461	0.0167	0.2628	1228.5176	0.14577	-401.926736	-401.917401	-401.916457	-401.961563	33.681	
C	-0.8659171115	 1.2358263226	 0.2705511904	-0.397175
C	-0.1209181348	-0.0667746411	 0.0205702608	 0.051163
C	 0.6801065801	-0.1853065749	-1.3098022641	-0.283059
C	 1.9781050825	-0.4166698171	-0.4634198466	-0.158252
C	 3.0705409003	 0.5212819376	-0.6627333363	 0.346393
C	 3.962233334	 1.3005912859	-0.8657005408	-0.440849
N	 1.1582042753	-0.2130338813	 0.7464042473	-0.044396
C	 1.4187545116	-0.693432242	 1.9890968793	 0.126003
O	 2.4926672493	-1.1232093868	 2.3515811155	-0.320554
H	-0.2092007118	 2.0949051076	 0.1045264813	 0.132494
H	-1.7241746294	 1.3151064146	-0.4052778655	 0.123594
H	-1.2409625889	 1.2851599101	 1.2977354522	 0.126639
H	-0.7872248651	-0.9215439032	 0.1912106957	 0.091658
H	 0.4043478601	-1.0211474692	-1.9521851766	 0.122041
H	 0.7040713206	 0.7348882561	-1.8936532665	 0.126261
H	 2.3593127051	-1.4431241973	-0.5164622432	 0.124822
H	 4.7607096071	 1.9823978435	-1.0254593075	 0.202848
H	 0.5275461355	-0.6356221352	 2.6485511046	 0.070369
46.1169	77.6816	128.8562	202.2413	210.925	250.1073	303.4078	318.2792	421.7354	491.5527	529.9739	567.9947	626.5374	663.4846	707.003	803.4805	873.3616	904.3066	936.6047	996.2212	1034.3086	1074.3819	1093.5661	1116.2513	1162.0525	1197.829	1242.983	1261.182	1293.7821	1356.519	1365.7629	1387.8625	1410.4317	1430.3253	1487.0979	1488.4498	1497.1729	1793.6553	2240.2937	2915.0065	3023.3874	3035.5019	3039.7908	3095.2352	3106.2662	3117.4709	3155.8577	3503.46
CC1CC(C#C)N1C=O	C[C@H]1C[C@@H](C#C)N1C=O	
InChI=1S/C7H9NO/c1-3-7-4-6(2)8(7)5-9/h1,5-7H,4H2,2H3	InChI=1S/C7H9NO/c1-3-7-4-6(2)8(7)5-9/h1,5-7H,4H2,2H3/t6-,7+/m0/s1
