20
gdb 30702	3.73389	0.95045	0.91507	2.039	81.4	-0.2005	0.0478	0.2483	1363.3837	0.171392	-403.178033	-403.168774	-403.16783	-403.212685	34.303	
C	 0.0125592626	 1.5993505688	 0.0549851978	-0.390882
C	-0.0267244554	 0.0694297541	 0.0522710835	 0.01996
C	 0.7541137283	-0.5333667753	 1.2285057975	-0.073819
O	 2.1061168531	-0.1283696806	 1.092806107	-0.416981
N	-1.3885798583	-0.4534766169	 0.0359145752	 0.028809
C	-2.3771313568	-0.1809423484	 0.9538942129	-0.102822
C	-3.495930788	-0.9071177503	 0.6155372623	-0.168856
C	-3.1779500805	-1.6535194341	-0.5512125608	-0.179538
C	-1.8761884128	-1.3548610348	-0.8801488677	-0.094523
H	 1.0512563449	 1.9355804729	 0.0426299552	 0.140707
H	-0.5058717354	 2.0000385474	-0.8198771127	 0.125284
H	-0.4648908637	 2.0067813049	 0.9517994198	 0.117831
H	 0.4499249961	-0.2908695069	-0.8650290703	 0.101739
H	 0.3189136505	-0.1817021738	 2.1771106007	 0.091193
H	 0.650484889	-1.6279165884	 1.1983471787	 0.10139
H	 2.6044659297	-0.4785287518	 1.8364293561	 0.292892
H	-2.2059797396	 0.5077321923	 1.7651725189	 0.112751
H	-4.4369067131	-0.8973087743	 1.1442392044	 0.090259
H	-3.8280868757	-2.3248821432	-1.0908873663	 0.091137
H	-1.2505298849	-1.6997052517	-1.6885193924	 0.113471
43.501	100.4619	108.6167	218.9765	231.844	236.0021	290.4056	373.5617	384.6484	489.353	623.6593	646.6979	681.9013	719.7399	741.4386	796.3576	846.3381	874.8379	888.2496	932.5527	971.8822	1030.184	1083.1841	1084.7933	1094.5558	1114.32	1130.2277	1166.2399	1240.4211	1255.5912	1282.5268	1306.6206	1333.3791	1359.3862	1404.3002	1424.1406	1436.7139	1459.2134	1489.8333	1501.8424	1518.6423	1527.3456	1560.9573	2977.7739	3016.4374	3048.5001	3064.9222	3119.0334	3140.8459	3238.1604	3248.7457	3262.6327	3272.1909	3837.8711
CC(CO)N1C=CC=C1	C[C@@H](CO)n1cccc1	
InChI=1S/C7H11NO/c1-7(6-9)8-4-2-3-5-8/h2-5,7,9H,6H2,1H3	InChI=1S/C7H11NO/c1-7(6-9)8-4-2-3-5-8/h2-5,7,9H,6H2,1H3/t7-/m0/s1
