20
gdb 106706	2.46468	1.46853	1.1865	1.678	79.03	-0.2253	0.0839	0.3093	1143.1894	0.170801	-403.086615	-403.077973	-403.077029	-403.119862	33.665	
C	-0.3170108126	 1.4524078328	-0.0012291	-0.374117
C	 0.2001344434	 0.0085213938	-0.0645924508	-0.287651
C	 0.8678192688	-0.4508048285	 1.2017240519	 0.277948
C	 0.1086852256	-0.9496595441	 2.4231147725	-0.382959
C	 1.0321950145	-1.9026281244	 1.7319893767	 0.384052
O	 0.5463956635	-3.0772296544	 1.1958545331	-0.463518
C	 2.4702574834	-1.6132192295	 2.0704431573	-0.155296
N	 3.1347071174	-1.18349322	 0.804521818	-0.35297
C	 2.313141696	-0.2141964705	 1.5790937371	-0.119495
H	 0.4984651765	 2.1572310555	 0.1940955813	 0.113051
H	-0.7896235433	 1.7442256867	-0.9445012597	 0.110014
H	-1.0560491196	 1.5713647002	 0.7980112739	 0.115608
H	-0.6321846833	-0.6703007359	-0.2903182536	 0.101155
H	 0.9144629392	-0.0937410715	-0.8908275626	 0.108968
H	 0.3261455821	-0.5755788686	 3.420453398	 0.102892
H	-0.9430659208	-1.1521997343	 2.242569491	 0.121411
H	 1.1062744404	-3.293412852	 0.4399296195	 0.293161
H	 3.0552639348	-1.9783616346	 2.9071456522	 0.093263
H	 4.113651856	-0.9982394371	 1.0315181806	 0.2229
H	 2.7627223779	 0.6775401065	 2.0012816537	 0.091585
67.6377	128.9868	186.6727	222.3274	260.271	277.9627	396.7768	431.2957	445.7699	572.441	595.3346	616.5903	730.6903	774.645	789.9165	818.8674	842.3286	853.7698	933.6499	946.7284	973.0372	990.1644	1010.5379	1051.7567	1083.883	1093.9255	1114.1212	1129.0953	1142.4145	1204.2805	1256.0657	1263.6291	1313.5304	1322.2638	1353.4179	1377.6271	1387.2326	1407.6192	1417.1681	1481.4879	1498.8923	1502.5967	1506.654	3021.1449	3031.1405	3055.635	3099.4887	3103.5562	3108.7132	3170.1456	3182.534	3198.2027	3448.1601	3780.3875
CCC12CC1(O)C1NC21	CC[C@@]12C[C@]1(O)[C@H]1N[C@@H]21	
InChI=1S/C7H11NO/c1-2-6-3-7(6,9)5-4(6)8-5/h4-5,8-9H,2-3H2,1H3	InChI=1S/C7H11NO/c1-2-6-3-7(6,9)5-4(6)8-5/h4-5,8-9H,2-3H2,1H3/t4-,5+,6+,7+/m1/s1
