16
gdb 6324	3.61239	1.80752	1.34443	3.5215	61.26	-0.2331	0.013	0.2461	910.6628	0.131286	-417.088739	-417.080968	-417.080024	-417.120825	28.497	
C	 0.9910129754	 1.3107233658	-0.0203258292	-0.314035
N	 0.3839029016	 0.0344430403	 0.2951891505	-0.077654
C	-0.3694506804	-0.0766564976	 1.523188986	-0.324921
C	-1.2153306496	-1.31874227	 1.2856887301	 0.423815
O	-1.1389012558	-1.6290867629	-0.0349345916	-0.226373
O	-1.8629389141	-1.9444289153	 2.0711333873	-0.332974
C	-0.3586205442	-0.6409905219	-0.7531492056	 0.141146
N	-1.1588944307	 0.223856964	-1.5705266629	-0.495282
H	-1.5770138648	-0.2929971208	-2.3369845519	 0.244422
H	-1.9102191093	 0.6510339316	-1.0364522494	 0.235616
H	 1.5355925797	 1.2342449709	-0.9649387535	 0.132749
H	 0.2671291214	 2.1360731767	-0.1162237571	 0.106077
H	 1.7072131105	 1.5704361713	 0.7660152147	 0.12435
H	 0.2699634962	-0.2120209691	 2.4016975029	 0.141724
H	-1.0416670021	 0.7763958072	 1.7349361769	 0.113405
H	 0.3096252562	-1.1998959102	-1.4177573472	 0.107934
106.1826	121.9751	211.9986	225.2721	294.802	308.2359	404.5106	513.8896	541.8421	568.9451	605.1125	716.8259	815.6359	859.4324	879.1577	983.154	1017.9197	1048.767	1124.1139	1145.8084	1169.6018	1201.5625	1219.1977	1236.1809	1314.7991	1356.9514	1376.5529	1441.1599	1466.3741	1485.5928	1502.9519	1516.2877	1658.814	1894.913	2928.1047	2975.661	3050.7823	3064.8716	3067.7378	3116.8509	3500.8461	3588.3618
CN(CC([O-])=O)C=[NH2+]	CN1CC(=O)O[C@H]1N	
InChI=1S/C4H8N2O2/c1-6(3-5)2-4(7)8/h3,5H,2H2,1H3,(H,7,8)	InChI=1S/C4H8N2O2/c1-6-2-3(7)8-4(6)5/h4H,2,5H2,1H3/t4-/m0/s1
