17
gdb 93556	3.41541	1.21712	0.94077	2.2202	72.35	-0.2221	0.0024	0.2245	1194.7013	0.138999	-455.189079	-455.180971	-455.180027	-455.221772	31.122	
O	-0.1825051892	 1.549036432	-0.3280958226	-0.427637
C	 0.020125555	 0.1985639765	 0.0849975643	 0.081878
C	-1.3275306374	-0.5370943639	 0.1234875148	-0.217302
N	-1.2285217905	-1.8825084813	 0.6664420689	-0.326622
C	-0.800686635	-2.9873213306	-0.0212275568	 0.423021
O	-1.1450361335	-4.1219185445	 0.2546079373	-0.395878
N	 0.0821553715	-2.7582215489	-1.0808851179	-0.350107
C	 0.9854713041	-1.7204226489	-1.3023709794	 0.003517
C	 1.0210836308	-0.4804968533	-0.8010257747	-0.138119
H	-0.3033835418	 1.5396543181	-1.284592596	 0.277921
H	 0.3975545012	 0.2766913804	 1.1123658226	 0.103569
H	-2.0075532851	 0.0324340328	 0.7595638187	 0.125919
H	-1.756898632	-0.5478071664	-0.8882067372	 0.110491
H	-1.8818428247	-2.1366640072	 1.3906180705	 0.257509
H	 0.3092828115	-3.6356514949	-1.5230685049	 0.260145
H	 1.7726345845	-2.0224448924	-1.9866517889	 0.114742
H	 1.8615051307	 0.1400550726	-1.0963107589	 0.096953
87.7025	124.2124	235.7347	308.2249	314.1725	345.8595	364.9741	385.8175	525.7537	544.4858	577.7922	645.8647	672.6739	752.9694	774.3979	782.5403	898.8126	900.5387	968.6194	1003.0133	1054.4635	1082.1598	1140.2176	1167.9563	1247.1855	1268.5363	1292.2744	1322.7104	1382.5107	1404.9891	1433.5115	1451.8248	1455.9372	1485.726	1497.912	1734.9147	1806.0091	3006.9996	3032.2318	3115.231	3166.0733	3186.1662	3632.35	3637.4793	3794.1709
OC1CNC(=O)NC=C1	O[C@H]1CNC(=O)NC=C1	
InChI=1S/C5H8N2O2/c8-4-1-2-6-5(9)7-3-4/h1-2,4,8H,3H2,(H2,6,7,9)	InChI=1S/C5H8N2O2/c8-4-1-2-6-5(9)7-3-4/h1-2,4,8H,3H2,(H2,6,7,9)/t4-/m1/s1
