16
gdb 56370	2.03829	1.53472	1.31367	3.9061	73.64	-0.2811	-0.0197	0.2614	1069.38	0.122732	-396.911229	-396.902149	-396.901205	-396.944996	32.635	
C	 0.1269699319	 1.4834200352	 0.0144979457	-0.398956
C	-0.0185385554	-0.054822566	 0.0437669389	-0.043723
C	 0.556769771	-0.5746238663	 1.3137178742	 0.27895
N	 1.0766961007	-0.9876112041	 2.2594992463	-0.332342
C	-1.4519427248	-0.4195965469	 0.0074831013	 0.332482
N	-2.5745234728	-0.6851211149	-0.0289749697	-0.319757
N	 0.6068863475	-0.6089703752	-1.1621410196	-0.082967
C	 2.0402229813	-0.9067851065	-1.149532291	-0.238191
C	 1.0353642036	-2.0064022461	-1.1792074743	-0.226967
H	 1.1870725086	 1.7426822591	 0.0532155028	 0.147657
H	-0.3027359387	 1.8545739915	-0.9170429835	 0.159642
H	-0.3846902388	 1.9372014434	 0.8650477664	 0.1555
H	 2.5706814177	-0.6124770469	-2.0492561871	 0.135834
H	 2.5896638431	-0.774144314	-0.2205950746	 0.145703
H	 0.9258564718	-2.5909274177	-0.2689949277	 0.148195
H	 0.8155088434	-2.5360105747	-2.1001163678	 0.13894
82.9624	132.0636	152.9587	168.1127	228.123	236.7094	262.4914	350.426	424.9351	488.8724	520.1966	578.8347	599.3671	638.8064	798.0909	832.5517	911.0461	934.7483	985.4096	1035.5775	1099.0413	1119.4184	1135.5529	1147.2694	1172.5386	1191.272	1212.6766	1310.0992	1404.5163	1482.0392	1485.8629	1489.4391	1516.2545	2348.0202	2371.8613	3063.4935	3115.5698	3118.7048	3149.2142	3159.3218	3202.7994	3215.8036
CC(C#N)(C#N)N1CC1	CC(C#N)(C#N)N1CC1	
InChI=1S/C6H7N3/c1-6(4-7,5-8)9-2-3-9/h2-3H2,1H3	InChI=1S/C6H7N3/c1-6(4-7,5-8)9-2-3-9/h2-3H2,1H3
