21
gdb 113211	2.88854	1.00822	0.89504	2.2278	78.63	-0.2557	0.0798	0.3355	1400.4363	0.180642	-424.189645	-424.179769	-424.178824	-424.225273	36.334	
C	 0.5190353897	 1.256707972	-1.0269904693	-0.461458
C	 0.0671495043	 0.107649904	-0.1465173224	 0.37367
O	 1.0061006919	-0.9855140805	-0.039759939	-0.312326
C	 0.7278299937	-0.206456782	 1.1353115491	-0.020269
C	 1.9091588729	 0.5241792502	 1.728083493	-0.094087
O	 2.8060743685	-0.3960799557	 2.3301485218	-0.41787
C	-1.3632269907	-0.2846825171	-0.3929082297	-0.044861
C	-2.1945428869	-1.1060043972	 0.5535608451	-0.282267
C	-2.487707094	 0.3622722145	 0.3849678078	-0.262043
H	 1.5837850743	 1.4641097796	-0.9187461842	 0.127603
H	 0.3317647063	 1.01002262	-2.0777883102	 0.125518
H	-0.0458059057	 2.1652851513	-0.794486382	 0.126681
H	 0.1576298917	-0.7521973593	 1.8880601552	 0.091071
H	 2.4164053281	 1.1360126015	 0.9714714543	 0.091754
H	 1.5705814429	 1.1912542619	 2.5287447134	 0.109995
H	 3.0456340138	-1.0313963725	 1.6455134268	 0.293288
H	-1.5652753644	-0.4519024134	-1.4484907105	 0.088884
H	-2.8799190958	-1.8212354382	 0.1128018074	 0.115911
H	-1.7622388063	-1.4379093203	 1.4897169528	 0.122501
H	-2.2121447638	 1.0221577691	 1.2011114204	 0.113254
H	-3.3824465507	 0.6632055723	-0.1483013697	 0.115049
41.7558	59.5264	130.7458	158.0167	180.7764	244.477	272.0296	348.4074	407.9619	441.2213	469.209	497.1222	536.4866	691.7781	781.0164	794.5245	834.3807	880.2616	899.1226	935.6954	965.7603	1022.5302	1044.0529	1060.6956	1071.8761	1082.4524	1108.8904	1121.1575	1139.674	1159.3055	1196.2673	1212.3551	1222.9518	1247.3574	1331.8674	1372.416	1409.6334	1417.2256	1422.0514	1463.3391	1473.3611	1491.3226	1496.5309	1508.219	1513.1512	3021.3658	3041.8057	3071.7841	3100.0672	3105.8116	3129.2556	3133.3638	3144.498	3145.9048	3213.048	3228.7812	3797.9546
CC1(OC1CO)C1CC1	C[C@]1(O[C@H]1CO)C1CC1	
InChI=1S/C7H12O2/c1-7(5-2-3-5)6(4-8)9-7/h5-6,8H,2-4H2,1H3	InChI=1S/C7H12O2/c1-7(5-2-3-5)6(4-8)9-7/h5-6,8H,2-4H2,1H3/t6-,7-/m0/s1
