13
gdb 42518	3.89164	1.02862	0.87764	2.6047	69.26	-0.2941	-0.0773	0.2168	1229.7196	0.08862	-415.631813	-415.62365	-415.622706	-415.665991	28.31	
O	 0.0318352223	 0.0586866414	-0.1992272601	-0.23339
C	 0.0831955618	 1.2373722403	-0.1092077394	 0.406584
C	-0.997478363	 2.3661865607	 0.0056410351	-0.274439
C	 0.1557999827	 3.3453656617	 0.416588547	-0.259176
C	 1.2366473046	 2.2717607015	 0.0529244738	-0.261052
C	 2.2858922994	 1.9780400862	 1.007528422	 0.28536
N	 3.1003954847	 1.7437693157	 1.7932447254	-0.301552
C	-1.6747196442	 2.6734938539	-1.2402050399	 0.279196
N	-2.1831922582	 2.924346573	-2.2477564814	-0.301154
H	-1.7301047426	 2.1553659011	 0.7898086568	 0.168891
H	 0.214319601	 4.2668637923	-0.1587984693	 0.156906
H	 0.134010635	 3.5736057721	 1.4815392888	 0.156333
H	 1.6718974166	 2.46238136	-0.9352643788	 0.177494
26.9449	116.2969	137.0775	173.0115	241.1534	384.1291	423.8177	461.1361	487.4566	557.7562	651.944	725.1959	772.5248	798.4903	908.0465	955.4842	1026.7792	1064.0901	1078.1692	1105.9486	1169.4283	1197.1683	1260.7313	1299.226	1315.3497	1484.99	1930.6675	2357.0837	2361.7096	3055.3371	3083.8948	3111.2392	3177.3435
O=C1C(CC1C#N)C#N	O=C1[C@@H](C[C@H]1C#N)C#N	
InChI=1S/C6H4N2O/c7-2-4-1-5(3-8)6(4)9/h4-5H,1H2	InChI=1S/C6H4N2O/c7-2-4-1-5(3-8)6(4)9/h4-5H,1H2/t4-,5-/m0/s1
