19
gdb 10840	4.3159	1.4952	1.20005	2.9239	72.47	-0.2242	-0.0122	0.212	1025.0312	0.166703	-365.086728	-365.078945	-365.078001	-365.118765	29.544	
C	-0.0102740258	 1.4819447999	 0.0095299255	-0.319421
N	 0.0003530372	 0.0281144379	 0.0015190288	-0.058812
C	 0.5637280641	-0.5040585653	-1.2339106849	-0.148759
C	 0.396144965	-2.0309037635	-1.3031226304	-0.300987
C	 0.9539303704	-2.7034740141	-0.0587181711	 0.386217
O	 1.6772323646	-3.6709174183	-0.0987140887	-0.307486
C	 0.5192577724	-2.0440204417	 1.2405883915	-0.300987
C	 0.6801368191	-0.5164605701	 1.1712278369	-0.148759
H	 1.0023102558	 1.9264481144	-0.0371875522	 0.095004
H	-0.580365965	 1.852948878	-0.8478694837	 0.119613
H	-0.4947159785	 1.843824035	 0.9217480679	 0.119613
H	 0.0491993044	-0.0387863331	-2.0811227144	 0.105288
H	 1.6385597981	-0.2497115622	-1.3340337328	 0.084974
H	-0.6759415269	-2.2608954028	-1.3553707327	 0.124322
H	 0.88434675	-2.4485208098	-2.1865267975	 0.117799
H	-0.5428875528	-2.2750680673	 1.3937532862	 0.124322
H	 1.090278449	-2.4704610342	 2.0683755862	 0.117798
H	 1.7597407082	-0.2626236665	 1.1696957274	 0.084974
H	 0.2500619704	-0.0601845963	 2.068910428	 0.105288
80.4059	180.0579	192.912	238.0657	357.1954	362.0576	390.8603	439.8877	498.9243	508.4837	701.8917	760.4413	781.5625	797.8959	935.328	986.5606	991.9064	1021.7912	1083.038	1100.7321	1146.2403	1158.4042	1165.9234	1183.019	1244.323	1248.2938	1306.9208	1314.7183	1332.5021	1348.5783	1387.171	1411.4183	1451.2505	1461.838	1462.7438	1485.9646	1493.7255	1509.2774	1517.8476	1822.0253	2895.7159	2900.6553	2928.3924	3029.9674	3035.5001	3060.0158	3061.5111	3066.1508	3105.268	3113.7394	3114.9999
CN1CCC(=O)CC1	CN1CCC(=O)CC1	
InChI=1S/C6H11NO/c1-7-4-2-6(8)3-5-7/h2-5H2,1H3	InChI=1S/C6H11NO/c1-7-4-2-6(8)3-5-7/h2-5H2,1H3
