19
gdb 77258	2.26343	1.11106	0.88339	2.877	82.8	-0.2441	-0.0186	0.2256	1368.3937	0.155913	-385.856425	-385.846411	-385.845467	-385.892247	35.77	
C	-0.1084393024	 1.577123912	 0.2094584601	-0.411267
C	-0.018833817	 0.0762278782	 0.0541651711	-0.042584
C	 0.4781813779	-0.5982926974	-1.1979905005	-0.04342
C	 0.9466174589	 0.169803045	-2.4195492546	-0.30415
C	 1.8985281207	-0.6595042807	-3.2597501849	 0.160367
O	 1.7564720305	-0.8848621518	-4.4340250922	-0.240532
C	 1.3217614241	-0.6571590602	 0.0808969807	-0.2181
C	 2.5544783002	 0.0676365604	 0.174200001	 0.338195
C	 3.5963414387	 0.6660033739	 0.2520364568	-0.475985
H	 0.7674473918	 2.0875401271	-0.1963247324	 0.133245
H	-0.9987613774	 1.9684774407	-0.2940960927	 0.122085
H	-0.1772585858	 1.845901977	 1.2684871077	 0.125967
H	-0.8136672738	-0.4629710555	 0.5628507312	 0.097549
H	-0.0134320488	-1.5367324647	-1.4412978727	 0.103064
H	 0.1038759829	 0.4743525886	-3.0476085627	 0.120328
H	 1.4913679996	 1.0701528289	-2.1118653775	 0.131644
H	 2.7694914874	-1.0623645216	-2.6956806963	 0.086797
H	 1.3299118983	-1.614064895	 0.5945020631	 0.116321
H	 4.516831784	 1.1897364452	 0.329242645	 0.200475
53.477	59.4906	126.2889	136.3353	154.3756	190.1854	247.1522	347.5476	360.2252	464.2998	512.4587	580.6372	585.9676	608.2066	654.8861	741.867	784.7193	811.5289	863.9491	945.9361	972.9796	1017.7214	1038.8542	1077.6439	1106.8371	1132.991	1148.9555	1167.4695	1234.2859	1259.6201	1290.1061	1365.8116	1386.3285	1421.3837	1423.387	1432.8022	1453.1364	1491.5815	1501.8281	1833.3844	2229.4773	2885.6025	3038.6272	3043.3683	3097.1852	3098.9583	3123.6807	3135.7699	3141.4069	3153.7575	3503.2609
CC1C(CC=O)C1C#C	C[C@H]1[C@@H](CC=O)[C@H]1C#C	
InChI=1S/C8H10O/c1-3-7-6(2)8(7)4-5-9/h1,5-8H,4H2,2H3	InChI=1S/C8H10O/c1-3-7-6(2)8(7)4-5-9/h1,5-8H,4H2,2H3/t6-,7+,8-/m1/s1
