21
gdb 97583	2.86848	0.72596	0.60525	1.9721	88.38	-0.2464	0.0362	0.2826	1867.8416	0.180568	-387.044371	-387.03373	-387.032785	-387.082547	37.583	
C	-0.1506738987	 1.361851815	 0.0166259959	-0.385472
C	 0.0683419107	-0.1643021001	-0.0458086225	-0.186662
C	 0.7596712326	-0.5412666739	-1.2810849826	 0.073988
C	 1.3373026605	-0.8253571009	-2.3003953403	 0.048341
C	 2.0485655769	-1.2319297668	-3.5116349342	-0.189222
O	 1.8424665215	-2.5953658408	-3.8604108291	-0.404067
C	 0.8145910548	-0.6694053004	 1.1847725625	 0.055028
C	 0.0585070459	-0.9452069896	 2.4589784627	-0.278598
C	 0.6395647817	-2.0863743985	 1.6580324462	-0.269359
H	 0.808916134	 1.8875788496	 0.0289439955	 0.123279
H	-0.7169547124	 1.7120185496	-0.8502810453	 0.123262
H	-0.6992983918	 1.6249134694	 0.9256726692	 0.117684
H	-0.9205806771	-0.6457892312	-0.0517152481	 0.098665
H	 1.6977346697	-0.6502324379	-4.3716253252	 0.136909
H	 3.1217257999	-1.0084508463	-3.3965797041	 0.114082
H	 2.0049951627	-3.1186805947	-3.0687305076	 0.285975
H	 1.8090211245	-0.2445960782	 1.2934735297	 0.08749
H	 0.5224978012	-0.6846984153	 3.4037267515	 0.112273
H	-1.0195155732	-0.8179831258	 2.4460712004	 0.110857
H	-0.0492092547	-2.7210302711	 1.1097113054	 0.113807
H	 1.5026185813	-2.6093517622	 2.0545271599	 0.111741
10.6118	53.2422	90.9933	118.9373	194.1201	206.2588	235.4317	274.7244	316.6621	327.2814	412.341	471.8755	537.3847	575.3669	732.7422	780.257	822.3208	829.4238	933.4299	943.9332	978.9427	989.5171	1026.0904	1054.9822	1059.0735	1077.3778	1090.5293	1136.4692	1159.2832	1196.0483	1209.3911	1216.382	1225.8148	1294.6669	1322.7426	1355.8188	1398.9416	1412.4231	1420.0384	1469.4234	1491.3718	1494.8492	1498.5287	1506.2479	2355.8691	2970.7976	2996.3614	3041.4918	3058.1944	3115.3965	3122.0276	3127.4574	3133.1434	3142.1987	3206.1498	3221.4799	3817.3789
CC(C#CCO)C1CC1	C[C@@H](C#CCO)C1CC1	
InChI=1S/C8H12O/c1-7(3-2-6-9)8-4-5-8/h7-9H,4-6H2,1H3	InChI=1S/C8H12O/c1-7(3-2-6-9)8-4-5-8/h7-9H,4-6H2,1H3/t7-/m0/s1
