17
gdb 51027	1.99517	1.59501	1.10341	4.4945	73.14	-0.2514	-0.0516	0.1998	1134.0933	0.135437	-418.000724	-417.99189	-417.990946	-418.034859	31.599	
O	 0.0958419545	 0.2312781909	-1.0165621094	-0.241449
C	 0.1437089	 1.0844242749	-0.1634196297	 0.14936
C	 1.2841214891	 2.0812762394	-0.0768771133	-0.335209
C	 1.1676939033	 3.1419790045	-1.2099042748	 0.153088
C	 2.5088831906	 3.8990700287	-1.473311273	-0.282809
C	 2.6811118185	 2.9461556875	-2.6816981385	-0.161326
N	 1.2448931474	 2.6000379507	-2.5799659058	-0.324179
C	-0.0131459161	 3.9875805004	-0.9714010203	 0.275326
N	-0.9316106553	 4.6557780867	-0.7573364477	-0.338202
H	-0.6714312056	 1.1944974352	 0.5811203997	 0.112033
H	 1.297423874	 2.5779687151	 0.8980015051	 0.127348
H	 2.2252239377	 1.5412084898	-0.2194058329	 0.135116
H	 2.3470624937	 4.9372618128	-1.7624037719	 0.140398
H	 3.2466281186	 3.8486596465	-0.672289616	 0.119967
H	 2.9602162295	 3.4039507405	-3.6345322228	 0.12022
H	 3.3694978454	 2.1158140918	-2.4772349095	 0.105144
H	 0.9899501648	 1.6201647745	-2.6594409992	 0.245174
70.36	89.0747	137.9593	177.4135	192.7591	230.6477	330.5059	386.7534	532.1096	546.6232	569.8243	619.0793	718.5271	780.6093	875.1278	905.0223	943.9897	959.2399	979.7978	1002.7573	1038.7309	1094.2279	1113.7872	1163.8272	1174.3523	1208.4202	1254.5979	1282.3118	1301.2507	1335.1465	1407.9985	1421.8196	1467.5174	1485.1495	1530.3314	1809.3608	2352.5854	2923.6322	3016.6973	3051.1104	3082.9096	3095.1326	3110.6365	3156.4474	3523.6273
O=CCC1(CCN1)C#N	O=CC[C@]1(CCN1)C#N	
InChI=1S/C6H8N2O/c7-5-6(2-4-9)1-3-8-6/h4,8H,1-3H2	InChI=1S/C6H8N2O/c7-5-6(2-4-9)1-3-8-6/h4,8H,1-3H2/t6-/m1/s1
