18
gdb 105717	2.31591	1.48438	1.19948	4.3425	77.79	-0.2638	-0.0123	0.2515	1125.0179	0.146854	-401.967281	-401.958398	-401.957454	-402.00106	32.534	
C	 0.001872597	 1.5418415286	-0.178724312	-0.39846
C	-0.0443121274	 0.0247618562	 0.0120727359	-0.202553
C	-1.4753536429	-0.5409689567	 0.1112734975	 0.20435
O	-2.2095080698	-0.2035346612	-1.0669559895	-0.288669
C	-2.8374465191	-1.365131281	-1.6151391122	-0.134516
C	-2.295185207	-2.5123492021	-0.8134934951	-0.092147
C	-1.5316320582	-2.0563658016	 0.1697130534	-0.121738
C	-2.1654563016	 0.0342785406	 1.2988142448	 0.26747
N	-2.6913347298	 0.4681914937	 2.2321337817	-0.3446
H	 1.0365541743	 1.8822738725	-0.2752920786	 0.116514
H	-0.5424366758	 1.8328251422	-1.0804398792	 0.139267
H	-0.4469411001	 2.0615138063	 0.6732317109	 0.140708
H	 0.4305003534	-0.4849970029	-0.8330758692	 0.109647
H	 0.5017212432	-0.2662900048	 0.9172125875	 0.111126
H	-3.9320447681	-1.2833742239	-1.5323921055	 0.123575
H	-2.5902410496	-1.4298056879	-2.68327061	 0.12122
H	-2.5265958488	-3.5478323112	-1.0272297736	 0.122756
H	-1.0166217598	-2.6229328067	 0.9332691632	 0.12605
81.1285	100.59	159.9459	168.3354	200.8566	246.1511	333.2715	398.691	457.0968	522.1598	563.0958	631.4623	738.2276	770.9086	784.6947	831.2161	935.6875	951.2674	959.1529	960.1631	1035.1668	1046.5947	1059.7382	1113.1853	1148.8279	1155.7931	1176.9874	1205.4272	1306.5379	1339.7076	1359.5151	1381.9025	1410.5755	1472.3052	1496.3667	1507.9473	1516.2808	1692.1706	2347.5301	2991.0627	3029.4843	3037.6291	3047.491	3081.0161	3117.0224	3130.421	3217.3555	3243.349
CCC1(OCC=C1)C#N	CC[C@]1(OCC=C1)C#N	
InChI=1S/C7H9NO/c1-2-7(6-8)4-3-5-9-7/h3-4H,2,5H2,1H3	InChI=1S/C7H9NO/c1-2-7(6-8)4-3-5-9-7/h3-4H,2,5H2,1H3/t7-/m1/s1
