12
gdb 130022	5.42262	1.35181	1.0833	7.5806	64.2	-0.2442	-0.0396	0.2046	994.2724	0.080273	-464.953216	-464.946678	-464.945734	-464.9839	25.477	
N	 0.0244398339	 1.3218656157	-0.1175989523	-0.585789
C	-0.0283899636	-0.0364275565	-0.0291355621	 0.439783
N	-1.137107354	-0.7385639841	-0.0003891914	-0.391865
C	-0.6788407037	-2.0412183166	-0.0021873562	 0.374439
N	-1.1470569831	-3.257931556	 0.0117347114	-0.218305
O	-0.0072281593	-4.0524111424	-0.0017619051	-0.172712
N	 1.1851583748	-3.3076694305	-0.0196214197	-0.240078
C	 0.7429742421	-2.0926658118	-0.0197592358	 0.414149
N	 1.1612565927	-0.7800924603	-0.0094409794	-0.455221
H	 0.8020089102	 1.7891385251	 0.3229331065	 0.268228
H	-0.8684505889	 1.7691402888	 0.0298461535	 0.285036
H	 2.0790810091	-0.4298298215	-0.2254708994	 0.282335
161.5479	299.1856	336.1106	349.2728	375.726	418.3794	559.5968	562.4085	570.3372	607.9871	739.1076	770.908	794.4271	822.4439	866.4229	889.6221	968.5507	1052.7778	1118.2632	1251.6189	1297.6755	1434.0022	1461.6886	1580.9672	1607.2602	1677.9629	1719.0182	3581.4458	3670.4781	3690.6403
NC1=NC2=NON=C2N1	Nc1nc2nonc2[nH]1	
InChI=1S/C3H3N5O/c4-3-5-1-2(6-3)8-9-7-1/h(H3,4,5,6,7,8)	InChI=1S/C3H3N5O/c4-3-5-1-2(6-3)8-9-7-1/h(H3,4,5,6,7,8)
