22
gdb 115411	4.35238	0.80291	0.72439	4.3834	86.96	-0.3054	0.0394	0.3449	1606.4825	0.195675	-367.25659	-367.247155	-367.24621	-367.292033	34.918	
C	-0.0412434732	 1.574386316	 0.0428178241	-0.387295
C	-0.0367461257	 0.0448300345	-0.0404157357	-0.194901
C	 0.7481169963	-0.5125168365	-1.2322652593	 0.064456
C	 2.263151066	-0.2267204511	-1.2194244684	-0.22094
C	 2.8323921731	-1.2439465564	-2.214052259	-0.2227
C	 2.0492151805	-2.5422710263	-1.8770872116	-0.130709
C	 0.6521171449	-2.0567846596	-1.3598920169	-0.25116
C	 1.9680212879	-3.4757869185	-2.9954954084	 0.25862
N	 1.8985740909	-4.2069401318	-3.8886838344	-0.330809
H	 0.9703255774	 1.974798509	 0.1644794663	 0.119151
H	-0.4663451848	 2.0179500343	-0.8645310322	 0.116578
H	-0.6379026016	 1.9206195351	 0.8921528165	 0.115759
H	 0.3803899525	-0.3750017751	 0.8856379527	 0.093193
H	-1.0716804458	-0.3162880345	-0.0971997693	 0.099234
H	 0.3372514399	-0.0690649247	-2.1497889977	 0.075935
H	 2.5101681206	 0.8036916475	-1.4873654201	 0.105689
H	 2.6698165458	-0.4111178072	-0.2153597849	 0.097225
H	 2.6076300947	-0.9348463724	-3.2402248114	 0.121733
H	 3.9132563009	-1.3854004876	-2.1412341153	 0.112602
H	 2.5687609047	-3.0601572766	-1.0635336057	 0.123198
H	 0.4413705152	-2.5159218794	-0.389292988	 0.109994
H	-0.1507000501	-2.3583087588	-2.0357622514	 0.125149
20.3254	107.1632	135.5074	167.2614	219.8127	240.6455	271.4839	367.5917	404.5992	515.1562	534.0128	567.2486	596.5409	764.8333	796.8477	832.733	871.8925	936.9257	949.0752	963.1017	992.8268	1010.9937	1037.4835	1056.9591	1075.7603	1109.9446	1154.4441	1176.191	1215.8556	1243.1783	1288.5362	1294.7481	1305.1682	1316.6364	1327.5091	1342.7023	1360.1776	1377.5144	1391.6517	1413.5247	1485.8813	1491.1551	1493.4172	1499.6936	1505.5168	1508.3907	2353.8169	3001.9815	3010.1508	3020.6278	3033.3129	3043.5781	3045.7822	3055.9852	3061.2411	3096.9027	3099.9061	3106.9147	3109.7157	3112.8192
CCC1CCC(C1)C#N	CC[C@H]1CC[C@@H](C1)C#N	
InChI=1S/C8H13N/c1-2-7-3-4-8(5-7)6-9/h7-8H,2-5H2,1H3	InChI=1S/C8H13N/c1-2-7-3-4-8(5-7)6-9/h7-8H,2-5H2,1H3/t7-,8-/m0/s1
