15
gdb 133791	3.06169	0.9478	0.89806	1.4034	54.89	-0.2357	-0.0542	0.1815	1310.3462	0.10716	-585.445146	-585.435669	-585.434725	-585.481142	32.26	
C	 0.5313509118	 1.0520607627	 0.0790523428	-0.324355
N	-0.5369910424	 0.1386259729	-0.3262056182	-0.269099
C	-0.1747206353	-0.7396785118	-1.4133602163	-0.278164
C	 0.7661696594	-1.8819907124	-1.035190679	 0.22567
O	 1.0437277936	-2.1859591158	 0.0936003706	-0.277811
C	 1.3550346834	-2.6882570886	-2.2252523601	 0.236883
F	 0.3679830936	-3.0813282656	-3.046537109	-0.080355
F	 2.1815484052	-1.8985883699	-2.9301134785	-0.077967
F	 2.0258360495	-3.7552395528	-1.8231177305	-0.043408
H	 1.4697822766	 0.5571504387	 0.3730377041	 0.115226
H	 0.7500935354	 1.739153531	-0.7460051253	 0.124473
H	 0.1835658934	 1.6517069953	 0.9244244833	 0.127342
H	-0.8143452519	-0.4252248982	 0.4709809269	 0.231479
H	-1.0711306559	-1.2083779686	-1.8458336295	 0.148215
H	 0.2782403236	-0.1653248869	-2.2309829814	 0.141871
33.9117	54.3255	109.6296	153.8515	205.8968	224.0546	293.0756	321.7624	411.0947	424.6286	491.6442	568.0835	597.6297	713.8524	750.0864	816.7823	943.5254	980.7782	1025.9782	1134.8305	1155.8662	1178.3087	1200.9286	1235.7925	1305.3797	1307.8011	1365.3336	1438.3554	1463.3571	1489.9652	1502.3454	1525.8125	1847.9268	2986.5129	3011.1434	3064.4112	3065.8061	3111.5518	3525.9711
CNCC(=O)C(F)(F)F	CNCC(=O)C(F)(F)F	
InChI=1S/C4H6F3NO/c1-8-2-3(9)4(5,6)7/h8H,2H2,1H3	InChI=1S/C4H6F3NO/c1-8-2-3(9)4(5,6)7/h8H,2H2,1H3
