20
gdb 110645	2.45742	1.60498	1.20813	2.2423	79.71	-0.1963	0.0708	0.2672	1117.7579	0.169179	-403.038532	-403.029592	-403.028648	-403.07216	33.834	
C	 0.2460432474	 1.0123546901	-0.4295063592	-0.225799
O	-0.1300643074	 0.161788696	 0.6315467515	-0.219871
C	-1.2627564492	-0.5884345194	 0.3645593196	 0.070649
C	-1.5187947056	-1.6103023542	-0.7296369225	-0.18271
C	-0.3937402176	-2.640033166	-0.9907875764	-0.051525
N	 0.81857066	-2.2607033722	-0.2248373217	-0.322376
C	-0.3091432456	-2.9715355942	 0.4403245987	-0.11222
C	-1.4823172432	-2.0005253556	 0.7816771998	 0.276995
C	-2.5904242108	-2.4567348747	 1.6872778062	-0.493382
H	 1.1021423775	 1.5955557764	-0.0820554002	 0.120691
H	 0.5400091022	 0.434572096	-1.315513752	 0.11461
H	-0.5643014842	 1.7042949813	-0.7088425637	 0.093079
H	-2.1819933496	-0.0046080972	 0.5046986953	 0.078849
H	-2.3858046959	-1.5253423627	-1.3749502431	 0.083888
H	-0.3412258344	-3.2805513814	-1.8616222801	 0.09203
H	 1.5183952143	-2.9783815745	-0.4222218104	 0.224481
H	-0.1610851908	-3.925263493	 0.9308795775	 0.090897
H	-2.2553607246	-2.4926752744	 2.7315967108	 0.125377
H	-3.4471044514	-1.7777759439	 1.6350232199	 0.120127
H	-2.9408489911	-3.4602829364	 1.4176203199	 0.11621
57.8477	152.5971	175.8833	205.7017	209.2412	261.1364	286.6206	346.4115	419.492	518.2311	632.9465	643.8764	738.1772	757.4691	825.1569	833.7773	878.7283	903.6731	935.5185	955.2933	973.3263	999.6659	1053.3025	1067.4648	1104.7831	1115.8548	1137.1648	1168.8503	1189.0476	1215.1841	1233.0434	1242.5211	1295.4861	1314.5167	1358.4545	1377.7815	1413.4573	1453.2166	1483.549	1486.2697	1492.9417	1499.0102	1504.7033	2977.3825	3011.637	3017.001	3044.9671	3072.081	3099.9335	3116.2994	3172.4548	3186.9765	3200.3767	3444.5729
COC1C2C3NC3C12C	CO[C@H]1[C@H]2[C@H]3N[C@H]3[C@@]12C	
InChI=1S/C7H11NO/c1-7-3(6(7)9-2)4-5(7)8-4/h3-6,8H,1-2H3	InChI=1S/C7H11NO/c1-7-3(6(7)9-2)4-5(7)8-4/h3-6,8H,1-2H3/t3-,4-,5-,6+,7+/m1/s1
