18
gdb 98616	4.11932	1.05318	0.97353	4.626	74.02	-0.2459	0.0057	0.2516	1245.0674	0.147572	-439.034609	-439.026465	-439.025521	-439.068005	30.541	
O	 0.0866755225	 1.2998609687	-0.3125074846	-0.421424
C	 0.0578445859	-0.0444492288	 0.0660098406	-0.135744
C	-1.3889905713	-0.5420222521	 0.1159800079	 0.33697
O	-2.3012240183	 0.2197468358	-0.1675468969	-0.382646
N	-1.5873176234	-1.8094260616	 0.5926032861	-0.095734
C	-0.9004011617	-3.0826421595	 0.1351624309	-0.038788
C	-1.9882714558	-3.8421637036	 0.9431751501	-0.218084
C	-2.7116273341	-2.7148609868	 0.1530975539	-0.015631
C	-1.8601269541	-3.1135532107	-1.0918421656	-0.221567
H	-0.849101122	 1.5356795288	-0.4334388446	 0.293342
H	 0.6225686069	-0.6683262209	-0.6473430265	 0.102538
H	 0.5209080883	-0.1951266708	 1.0529398055	 0.11741
H	 0.181858231	-3.2002229509	 0.1718696189	 0.10512
H	-2.1971682462	-4.8655299908	 0.6303479406	 0.109249
H	-1.9517684062	-3.7227611677	 2.0258563582	 0.117993
H	-3.7489204327	-2.3926373242	 0.2015614321	 0.117481
H	-1.7169010903	-2.336462756	-1.8442643012	 0.1231
H	-2.0599653285	-4.090451099	-1.5388897953	 0.106415
72.0304	93.6681	142.8179	149.1818	327.4987	387.0296	453.3109	506.6215	548.0974	574.9714	672.4824	779.5306	786.5716	804.9151	893.0693	900.5898	908.7527	987.2378	1005.1432	1019.8548	1034.3943	1074.7827	1102.292	1120.3808	1126.9818	1143.0615	1188.481	1193.5035	1226.2078	1246.0941	1255.1888	1264.0324	1304.3773	1377.9189	1472.0455	1483.3599	1506.4031	1522.6785	1749.8628	2965.6087	3002.2862	3065.7171	3087.976	3130.355	3142.4424	3158.0076	3166.3509	3652.2787
OCC(=O)N1C2CC1C2	OCC(=O)N1[C@H]2C[C@@H]1C2	
InChI=1S/C6H9NO2/c8-3-6(9)7-4-1-5(7)2-4/h4-5,8H,1-3H2	InChI=1S/C6H9NO2/c8-3-6(9)7-4-1-5(7)2-4/h4-5,8H,1-3H2/t4-,5+
