14
gdb 29015	3.21416	1.57544	1.05723	1.8905	76.79	-0.2331	-0.0786	0.1546	1041.5371	0.10316	-432.942263	-432.935039	-432.934095	-432.973887	27.434	
N	 0.2351063752	 1.2433093006	 0.3933256209	-0.564396
C	 0.1353467618	-0.0770433003	 0.1656616793	 0.373673
N	-1.0945276525	-0.6301332595	 0.1988110597	-0.318114
C	-1.164461433	-1.9326686534	-0.0296654893	-0.001593
C	-0.0406767033	-2.7271836256	-0.2954652303	-0.060183
N	 1.1733098368	-2.1954336494	-0.3302701401	-0.282261
C	 1.2845325798	-0.8817355852	-0.1041759027	 0.156462
C	 2.6400410713	-0.3283118085	-0.1497434116	 0.109193
O	 2.9248511531	 0.8442810948	 0.0322861344	-0.310579
H	 1.1513305607	 1.6698323151	 0.3740955004	 0.290228
H	-0.6046969406	 1.7637083635	 0.5813172954	 0.264821
H	-2.1569369716	-2.3779489769	-0.0027130286	 0.122266
H	-0.1351797668	-3.7927821528	-0.4784826533	 0.115448
H	 3.4146227993	-1.0879108023	-0.3706701342	 0.105035
110.9524	199.5581	263.4759	312.0473	319.9754	409.3354	461.6242	465.7409	586.017	591.2342	681.0559	689.3404	764.7892	825.0928	869.9134	939.099	988.6952	1034.3815	1040.4429	1101.3977	1223.195	1266.7136	1316.7088	1376.1354	1394.2172	1451.9354	1503.4726	1568.6397	1590.648	1638.8093	1754.8443	2956.2617	3151.1805	3183.0938	3538.5737	3713.5165
NC1=NC=CN=C1C=O	Nc1nccnc1C=O	
InChI=1S/C5H5N3O/c6-5-4(3-9)7-1-2-8-5/h1-3H,(H2,6,8)	InChI=1S/C5H5N3O/c6-5-4(3-9)7-1-2-8-5/h1-3H,(H2,6,8)
