19
gdb 42357	2.50698	1.2013	0.89613	2.1967	81.36	-0.2417	-0.0206	0.2211	1323.9734	0.157284	-385.86366	-385.854224	-385.85328	-385.899377	34.12	
O	-0.2952370515	 0.4772934854	 1.9152117004	-0.305069
C	-0.0213016902	 1.1537750239	 0.9521410119	 0.373849
C	 1.411482467	 1.7073193835	 0.7932329669	-0.447495
C	 1.9112803962	 1.7585646516	-0.5723719594	 0.302875
C	 2.3178880155	 1.7906355394	-1.7031807512	-0.455021
C	-1.0293527896	 1.4968382895	-0.1170161932	-0.063382
C	-1.2577588051	 0.3929980981	-1.2126867025	-0.214708
C	-2.7811069419	 0.6671008085	-1.1137732525	-0.214311
C	-2.5332843748	 1.3783994513	 0.2423914984	-0.235323
H	 1.3945629584	 2.7227368514	 1.216967404	 0.155229
H	 2.0644345287	 1.1113646996	 1.4378612265	 0.156376
H	 2.6864425511	 1.8188474194	-2.6987331977	 0.20247
H	-0.7760530459	 2.4481727695	-0.5919759225	 0.083473
H	-0.7599163976	 0.5489638538	-2.17063525	 0.111947
H	-0.9952292447	-0.5970453009	-0.8307804617	 0.117329
H	-3.1176527919	 1.3632881091	-1.8871884274	 0.103327
H	-3.4462199178	-0.199250989	-1.1144231948	 0.102332
H	-2.6587371708	 0.7057211253	 1.0937735525	 0.127675
H	-3.070799395	 2.3088977105	 0.4376845221	 0.098426
38.5079	44.0163	108.2298	127.4543	209.5621	270.3319	330.3377	336.314	459.4347	557.9841	607.2347	622.9566	643.6434	667.9024	746.6178	784.4346	869.7	902.7372	929.2226	940.7595	958.407	985.379	1017.3122	1031.8496	1108.7962	1145.4669	1205.5592	1219.0722	1236.3758	1247.5016	1260.3573	1278.8552	1280.8367	1292.0424	1376.7459	1442.6533	1475.2909	1487.3433	1506.9654	1805.9593	2237.0109	3008.4424	3059.5674	3066.9131	3071.2389	3076.6146	3086.611	3106.2664	3127.5396	3135.2712	3504.2135
O=C(CC#C)C1CCC1	O=C(CC#C)C1CCC1	
InChI=1S/C8H10O/c1-2-4-8(9)7-5-3-6-7/h1,7H,3-6H2	InChI=1S/C8H10O/c1-2-4-8(9)7-5-3-6-7/h1,7H,3-6H2
