19
gdb 79341	3.2217	1.50562	1.40148	0.6599	73.12	-0.219	0.0747	0.2938	1005.831	0.160595	-423.020842	-423.013381	-423.012437	-423.052177	30.746	
C	-0.053641904	 1.5400800292	-0.0193658499	-0.41344
C	 0.0189358912	 0.0155975858	-0.0133824061	 0.023805
C	 0.9241667012	-0.5885630522	-1.085028878	-0.156713
C	 2.2879897547	-0.6754139864	-0.4159377758	 0.002981
O	 2.1713474614	-0.1876573143	 0.9080853794	-0.261047
C	 0.8132150764	-0.5935094681	 1.1769417496	 0.042948
C	 0.825746091	-2.0988201081	 0.8408941178	-0.303095
C	 1.4345910704	-1.9183149739	-0.5484967573	 0.347568
O	 1.7019540505	-2.9641830895	-1.4168833836	-0.474556
H	 0.9439999753	 1.9722239097	 0.0947841442	 0.133552
H	-0.48169115	 1.9099801919	-0.9567889398	 0.111899
H	-0.6811166439	 1.9073512493	 0.8001144803	 0.108786
H	-0.9874149803	-0.4164816178	-0.0490284584	 0.074526
H	 0.8134216072	-0.4100938424	-2.1461544243	 0.093973
H	 3.240591278	-0.5062741207	-0.8975840891	 0.103956
H	 0.5343164809	-0.2902419421	 2.1844518733	 0.079522
H	 1.4696928174	-2.6712697317	 1.516488766	 0.094751
H	-0.1740347011	-2.5405288879	 0.8224515391	 0.106233
H	 2.4507492135	-3.4606466508	-1.0674744375	 0.284352
189.7776	212.3358	237.8	278.1246	324.6837	372.027	441.2244	508.8098	563.4323	607.0462	701.5453	721.8263	763.0616	853.9054	878.9559	912.2477	932.0739	935.2986	957.6854	966.7963	999.6587	1022.6261	1039.8937	1070.4636	1095.1076	1121.7398	1147.8071	1154.1208	1219.0282	1236.1178	1256.6737	1274.3869	1297.2881	1321.4423	1343.1944	1377.085	1405.9806	1438.46	1491.9245	1495.4839	1502.6354	3033.9594	3045.7238	3052.6684	3095.6346	3108.3603	3121.5335	3142.3273	3209.8803	3224.4856	3788.873
CC1C2C3OC1CC23O	C[C@H]1[C@H]2[C@H]3O[C@@H]1C[C@@]23O	
InChI=1S/C7H10O2/c1-3-4-2-7(8)5(3)6(7)9-4/h3-6,8H,2H2,1H3	InChI=1S/C7H10O2/c1-3-4-2-7(8)5(3)6(7)9-4/h3-6,8H,2H2,1H3/t3-,4-,5+,6-,7-/m1/s1
