20
gdb 111596	4.16653	1.27879	1.23399	1.1309	78.46	-0.2291	0.0751	0.3042	1098.7374	0.173322	-403.082467	-403.075074	-403.07413	-403.114462	29.418	
C	-0.0036380019	 1.3881839671	-0.2179999179	-0.243464
O	 0.0153671435	 0.077653041	 0.3100856257	-0.252496
C	-1.2011569918	-0.5918494222	 0.1731392705	 0.17928
C	-1.5797228196	-1.3237788546	-1.1486569984	-0.065094
C	-0.3118969845	-2.1567691345	-1.4210848803	-0.221698
C	-0.4850616086	-3.0229389846	-0.156752045	-0.056131
C	-1.8636439384	-3.641824237	-0.4501986709	-0.160975
N	-2.4414748126	-2.2644036911	-0.2683180621	-0.16386
C	-1.3028619671	-2.0003280972	 0.7314940574	-0.063287
H	 0.97372177	 1.832937752	-0.0176982274	 0.129108
H	-0.1798751084	 1.3927188387	-1.3036391695	 0.110828
H	-0.7809837422	 2.0028347619	 0.2607556273	 0.110358
H	-2.0428724492	 0.0157463794	 0.5333143487	 0.081662
H	-2.0931292789	-0.833199132	-1.9739973982	 0.069768
H	-0.3484817358	-2.7437872909	-2.3423574041	 0.091392
H	 0.5889336428	-1.5408414208	-1.4170557537	 0.112162
H	 0.368502786	-3.591468693	 0.2129718889	 0.064477
H	-2.0348478552	-4.1162076248	-1.422548907	 0.09584
H	-2.2525286373	-4.281452453	 0.3473656417	 0.105819
H	-1.4731806707	-2.2316722242	 1.7832154943	 0.076312
83.3973	155.589	174.5675	297.3869	346.6827	465.03	485.1887	561.5654	708.7834	735.2133	751.953	826.5371	839.4512	869.2399	913.0537	935.8208	970.0123	974.9577	984.9143	1012.4119	1024.7009	1051.5735	1066.2498	1112.9359	1142.2369	1160.1892	1170.3237	1182.4385	1198.1729	1218.0306	1242.3737	1246.233	1254.9149	1268.9989	1281.1354	1311.4779	1340.9328	1395.3501	1481.2605	1487.9486	1492.0696	1508.6307	1514.403	2981.4701	3016.9807	3031.3807	3039.6175	3067.6129	3098.9472	3108.1808	3117.8415	3119.1649	3124.8154	3129.0614
COC1C2CC3CN2C13	CO[C@H]1[C@H]2C[C@@H]3CN2[C@H]13	
InChI=1S/C7H11NO/c1-9-7-5-2-4-3-8(5)6(4)7/h4-7H,2-3H2,1H3	InChI=1S/C7H11NO/c1-9-7-5-2-4-3-8(5)6(4)7/h4-7H,2-3H2,1H3/t4-,5-,6+,7+/m1/s1
