13
gdb 24996	4.92573	1.27177	1.02386	3.0956	60.14	-0.2402	0.0146	0.2547	1058.7625	0.090442	-493.721917	-493.715104	-493.71416	-493.75375	24.668	
O	 0.002279802	 0.0373743759	 0.0537215848	-0.344226
C	-0.014214916	 1.2206380406	 0.0304311971	 0.458918
O	-1.153854167	 2.0111106939	 0.0304176965	-0.250494
C	-0.7013061903	 3.3072119473	-0.0015487406	 0.237637
C	 0.6144503416	 3.3251910244	-0.0200087206	 0.237637
C	 1.146706331	 4.712686999	-0.0549815629	-0.168964
O	-0.073668961	 5.485321284	-0.0536450927	-0.281694
C	-1.2720390987	 4.6796364936	-0.0210491648	-0.168964
O	 1.1029548589	 2.0419479356	-0.0012463901	-0.250494
H	 1.752146703	 4.9806571664	 0.8213816105	 0.132659
H	 1.7277362389	 4.945185244	-0.9576017863	 0.132663
H	-1.8842901294	 4.8958275705	-0.9069298033	 0.132663
H	-1.859756163	 4.9313043046	 0.8720522023	 0.132659
86.5111	127.8515	252.4958	270.4807	323.5231	530.5467	593.7969	616.8772	729.0838	767.3305	770.164	862.7813	885.831	912.4751	940.8108	1023.3237	1046.3062	1074.926	1143.294	1197.7887	1204.779	1304.8052	1322.894	1404.0182	1419.5271	1523.2235	1531.2906	1798.9292	1953.4056	3004.3138	3008.0805	3032.663	3035.3344
O=C1OC2=C(COC2)O1	O=c1oc2c(COC2)o1	
InChI=1S/C5H4O4/c6-5-8-3-1-7-2-4(3)9-5/h1-2H2	InChI=1S/C5H4O4/c6-5-8-3-1-7-2-4(3)9-5/h1-2H2
