14
gdb 12445	3.61947	2.1104	1.48623	2.9431	59.79	-0.2636	0.0001	0.2636	812.2427	0.109493	-415.862741	-415.856126	-415.855182	-415.893858	24.423	
N	-0.0184450458	 0.7718714639	 1.0899852512	-0.487756
C	 0.0254406353	 0.0512240263	 0.0555780531	 0.384257
C	-1.2389677694	-0.26546228	-0.723168707	-0.259493
N	-1.5459802292	-1.669518737	-0.9695764004	-0.252816
C	-0.7048603465	-2.5672447129	-1.2314424398	 0.136284
O	 0.6491265095	-2.5131668726	-1.4046387473	-0.212421
C	 1.2189507535	-1.2307432969	-1.572844192	 0.00856
O	 1.2178857993	-0.4692991323	-0.3949109655	-0.23395
H	 0.9194031253	 0.9023553185	 1.4754558578	 0.226947
H	-2.0534862299	 0.1585679849	-0.1343838229	 0.155666
H	-1.2355664624	 0.2822978866	-1.6755668293	 0.135135
H	-1.0311007342	-3.5989821428	-1.3502568476	 0.136175
H	 2.265583602	-1.4025242467	-1.8214524163	 0.142094
H	 0.7143344225	-0.7043482993	-2.3909055641	 0.121318
84.7378	146.1563	299.7382	351.1727	419.8757	451.0802	524.5544	562.2465	707.1657	746.3593	851.6758	918.9688	945.6181	963.4371	988.8221	1020.2347	1035.5923	1078.3793	1155.0944	1199.8853	1250.1817	1311.6519	1336.9329	1357.4856	1420.5304	1449.9057	1480.2088	1519.6674	1758.9414	1773.4639	3015.0165	3045.4777	3118.1554	3147.9689	3160.4219	3465.2778
N=C1CN=COCO1	[NH][C]1CN=COCO1	
InChI=1S/C4H6N2O2/c5-4-1-6-2-7-3-8-4/h2,5H,1,3H2	InChI=1S/C4H6N2O2/c5-4-1-6-2-7-3-8-4/h2,5H,1,3H2
