19
gdb 63268	2.06828	1.5579	1.40305	3.3878	71.21	-0.257	0.0063	0.2633	1079.2723	0.155556	-460.203025	-460.193024	-460.19208	-460.237326	36.858	
C	-0.3093500691	 1.5556876819	 0.0652506674	-0.436773
C	-0.0076572273	 0.0674818341	 0.0683363211	 0.38435
C	-1.1538722026	-0.7645239717	-0.4780609793	-0.419383
O	 1.2266758787	-0.1925211944	-0.732177686	-0.290524
C	 1.8680727997	-0.7681353156	 0.3198722619	 0.423904
O	 2.9449907367	-1.2789576525	 0.3444860654	-0.349725
C	 0.7228361827	-0.5311103196	 1.3206424712	 0.130181
C	 1.0583334812	 0.3805605414	 2.4927162015	-0.454963
O	 0.1093572712	-1.725649142	 1.7636156235	-0.461732
H	 0.5642836314	 2.1480588839	 0.3438712114	 0.12898
H	-0.6236699	 1.868192758	-0.9347848353	 0.134032
H	-1.1224807727	 1.7821818575	 0.7620339036	 0.128871
H	-1.4004651453	-0.431779715	-1.4905827487	 0.124362
H	-0.8961957579	-1.8231097571	-0.500476242	 0.140699
H	-2.0402932216	-0.6442678368	 0.1519483868	 0.128193
H	 1.5413042681	 1.3087352366	 2.178736758	 0.131437
H	 0.150140228	 0.6217456261	 3.0526717001	 0.132411
H	 1.7501523358	-0.1380713547	 3.1646112894	 0.130094
H	 0.779592683	-2.2443048301	 2.2235059201	 0.295587
72.003	143.1128	175.1031	206.	215.8018	223.8242	279.3407	294.2943	327.3139	337.2864	362.7395	417.4874	489.4365	608.4321	630.2907	694.961	752.4413	812.3949	838.9675	944.7354	968.7964	979.1693	1005.0581	1079.6062	1107.3092	1147.4872	1197.6963	1249.364	1268.3287	1290.6459	1366.4501	1405.6454	1407.3747	1423.0299	1472.1992	1475.6806	1483.2539	1489.3666	1500.8418	1510.464	1922.6057	3041.3987	3046.4395	3052.3181	3110.6138	3113.2042	3119.8694	3126.7167	3137.2689	3155.1217	3801.9979
CC1(C)OC(=O)C1(C)O	CC1(C)OC(=O)[C@]1(C)O	
InChI=1S/C6H10O3/c1-5(2)6(3,8)4(7)9-5/h8H,1-3H3	InChI=1S/C6H10O3/c1-5(2)6(3,8)4(7)9-5/h8H,1-3H3/t6-/m0/s1
