19
gdb 16234	2.84951	2.26996	1.45241	1.7576	76.82	-0.224	0.0223	0.2462	910.153	0.166984	-327.915443	-327.908018	-327.907074	-327.946842	29.429	
C	-0.5966763576	 1.2940891705	 0.0323969274	-0.414237
C	 0.11545047	-0.0535888812	-0.0529622607	-0.056499
C	 1.2470416126	-0.1169555952	-1.1158161136	-0.276216
C	 2.2546062403	-1.0653795354	-0.507587353	-0.090836
C	 1.9997641055	-1.3017620028	 0.7784312311	-0.105431
C	 0.7928561372	-0.5613285729	 1.2365953186	 0.324514
C	 0.7526604678	 0.1643555069	 2.5389283131	-0.2916
N	 0.01548838	-1.1004640973	 2.3668479057	-0.366785
H	 0.1042218614	 2.0999561655	 0.2743823453	 0.120469
H	-1.0744855775	 1.5400186349	-0.9215651384	 0.116117
H	-1.3833828313	 1.2910625586	 0.7959584666	 0.108886
H	-0.6248364855	-0.8192269115	-0.3248158801	 0.083469
H	 0.8789194746	-0.4478843531	-2.0936121851	 0.1029
H	 1.6942611181	 0.8753977256	-1.2756096892	 0.104352
H	 3.0951658752	-1.4627607466	-1.0652399181	 0.093757
H	 2.5793594428	-1.9225539795	 1.4513123939	 0.099995
H	 1.6012660503	 0.1094320817	 3.2162848918	 0.112564
H	 0.1942264535	 1.0945386649	 2.5941291286	 0.109742
H	-0.9731809172	-0.9011799832	 2.222844056	 0.224839
85.9817	244.0736	250.759	269.0926	301.7438	375.7864	451.6869	500.3921	553.6205	670.1451	748.6653	767.6976	864.7542	868.572	913.8049	929.0149	941.4329	971.0523	972.7584	985.8255	1047.8152	1056.0792	1098.9643	1123.7956	1132.0247	1142.7664	1201.7366	1260.8243	1283.8681	1315.6216	1323.5905	1334.678	1371.1451	1404.0342	1414.911	1489.1318	1496.9426	1497.7479	1512.8392	1681.4247	2995.955	3003.6346	3025.5499	3054.843	3088.0284	3101.6862	3105.328	3188.509	3189.5828	3215.4895	3472.296
CC1CC=CC11CN1	C[C@H]1CC=C[C@]21CN2	
InChI=1S/C7H11N/c1-6-3-2-4-7(6)5-8-7/h2,4,6,8H,3,5H2,1H3	InChI=1S/C7H11N/c1-6-3-2-4-7(6)5-8-7/h2,4,6,8H,3,5H2,1H3/t6-,7+/m0/s1
