14
gdb 9982	2.70931	1.5064	1.00742	1.6385	64.71	-0.2622	-0.056	0.2061	1087.3441	0.102725	-382.519529	-382.510762	-382.509818	-382.553892	29.664	
O	-0.3600823582	 0.1550745465	 0.6455851609	-0.245089
C	-0.0402068517	 1.0200448173	-0.1266026972	 0.146622
C	 1.3064517995	 1.7413396453	-0.0559433389	-0.17143
C	 1.5207037638	 2.763465658	-1.1831865749	-0.384107
C	 1.5255026859	 2.1383039211	-2.499619343	 0.272695
C	 1.5227791953	 1.5883165699	-3.5683014392	-0.415853
C	 1.451572854	 2.3642371267	 1.3323708016	 0.13703
O	 1.7954837874	 3.5007503411	 1.5187744108	-0.23028
H	-0.7205119217	 1.3703431603	-0.9317837002	 0.108805
H	 2.0652416154	 0.9470193427	-0.1050442962	 0.149974
H	 0.7363049475	 3.5287952942	-1.1306161066	 0.147056
H	 2.4597247239	 3.2962510553	-1.0039858045	 0.158757
H	 1.5254576084	 1.1203879137	-4.5217561499	 0.203038
H	 1.2068879906	 1.6713434678	 2.1622988072	 0.122783
52.5382	81.4084	114.4748	136.5837	212.5608	260.4762	338.4608	363.3025	441.7302	597.7204	636.5874	649.725	660.3007	811.5825	866.9422	887.533	977.5823	1058.9872	1074.2133	1123.3895	1200.4952	1222.2562	1295.7421	1351.8421	1401.1152	1418.087	1465.4165	1807.6024	1840.5378	2240.4385	2909.5093	2940.3823	3022.3829	3040.8759	3083.8599	3504.4572
O=CC(CC#C)C=O	O=CC(CC#C)C=O	
InChI=1S/C6H6O2/c1-2-3-6(4-7)5-8/h1,4-6H,3H2	InChI=1S/C6H6O2/c1-2-3-6(4-7)5-8/h1,4-6H,3H2
