16
gdb 69250	2.84565	1.56002	1.17636	3.1024	71.74	-0.2158	-0.0052	0.2106	1030.3041	0.125797	-437.920039	-437.912567	-437.911622	-437.951688	29.871	
O	 0.0496376792	 1.3725056187	-0.1147647372	-0.46295
C	 0.0672769603	-0.0213548201	-0.0533318529	 0.388802
C	-0.4295562388	-0.7154394237	-1.2770264854	-0.315548
C	-1.2818086131	-0.7704009199	-0.0149136683	-0.249006
C	-1.4196167997	-2.0044136113	 0.8030101824	 0.425367
O	-2.4839064919	-2.5345317823	 1.0573316497	-0.374011
N	-0.2295060334	-2.5109604834	 1.3102231071	-0.356864
C	 0.9819540285	-1.8259039533	 1.3305699671	 0.015861
C	 1.1572578833	-0.6443562163	 0.7278949487	-0.230919
H	-0.024432887	 1.7050721239	 0.7870812018	 0.283805
H	-0.8254689524	-0.0845559759	-2.064118956	 0.137529
H	 0.0832669251	-1.6115815854	-1.6059078124	 0.131182
H	-2.1849078239	-0.1729663693	-0.0394028427	 0.120103
H	-0.3430552525	-3.33278726	 1.8845072888	 0.256127
H	 1.7776120742	-2.331800421	 1.8641067875	 0.124471
H	 2.1150159921	-0.1405099207	 0.7636527019	 0.106053
124.7474	174.9442	284.2821	331.5197	374.1088	387.3583	447.2493	486.0927	544.5469	576.6958	626.4006	680.4449	732.6589	749.3959	771.9774	858.9732	905.2854	936.0093	946.7413	981.4181	1013.5488	1071.4363	1088.0294	1104.2819	1200.2269	1239.4086	1247.5718	1294.2633	1344.006	1406.4713	1433.7874	1464.8151	1475.2713	1710.4223	1789.3495	3143.3335	3196.1835	3198.7251	3217.9749	3239.605	3625.4963	3793.4444
OC12CC1C(=O)NC=C2	O[C@]12C[C@H]1C(=O)NC=C2	
InChI=1S/C6H7NO2/c8-5-4-3-6(4,9)1-2-7-5/h1-2,4,9H,3H2,(H,7,8)	InChI=1S/C6H7NO2/c8-5-4-3-6(4,9)1-2-7-5/h1-2,4,9H,3H2,(H,7,8)/t4-,6+/m0/s1
