17
gdb 124598	2.70753	1.33113	1.10954	5.5181	69.25	-0.2517	-0.0063	0.2455	1148.2767	0.135635	-455.174204	-455.165609	-455.164665	-455.208301	31.111	
C	-0.0448549148	 1.5510678003	 0.0063581108	-0.390307
C	 0.0601214945	 0.0230239164	-0.0050639311	 0.024437
C	 0.7062848912	-0.5164992457	-1.2847392775	-0.390145
N	 0.766823878	-0.4631972357	 1.1847510199	-0.142385
C	 2.0527021152	-0.2435607319	 1.586999155	 0.067244
N	 2.3527030005	-0.8303552747	 2.6958705831	-0.133773
O	 1.1627290628	-1.5040419433	 3.0732977112	-0.239362
C	 0.1821218814	-1.2820324818	 2.1462379628	 0.518463
O	-0.93563768	-1.7175674766	 2.1859993417	-0.40279
H	 0.9418779139	 2.0199167487	-0.0770317465	 0.119919
H	-0.645794504	 1.8896911818	-0.8421577291	 0.13297
H	-0.518124448	 1.9045998394	 0.9260255935	 0.139846
H	-0.9402695763	-0.4071215615	 0.1016704245	 0.136674
H	 1.7209988447	-0.1245143282	-1.4156220489	 0.11991
H	 0.7577628279	-1.6081985628	-1.2675392551	 0.139916
H	 0.1184565674	-0.2133312744	-2.1555621046	 0.132911
H	 2.7620710058	 0.3599982696	 1.0408870803	 0.166474
34.3019	107.245	184.8308	228.1498	245.3061	260.1283	298.2456	429.9863	432.8538	578.3029	620.3267	625.666	766.5925	778.8622	883.2916	887.7317	894.9237	937.7145	947.2516	952.7983	1083.5564	1127.2925	1151.015	1180.6035	1226.8685	1261.0417	1362.5797	1374.6597	1404.5938	1424.2963	1449.6794	1483.4089	1489.633	1502.2735	1507.3092	1642.8857	1878.1899	3037.745	3040.6414	3076.2821	3106.8422	3116.1365	3125.9566	3128.6072	3260.4607
CC(C)N1C=NOC1=O	CC(C)n1cnoc1=O	
InChI=1S/C5H8N2O2/c1-4(2)7-3-6-9-5(7)8/h3-4H,1-2H3	InChI=1S/C5H8N2O2/c1-4(2)7-3-6-9-5(7)8/h3-4H,1-2H3
