16
gdb 126095	3.10629	1.60386	1.11725	2.2313	70.5	-0.2552	-0.0194	0.2358	1047.0912	0.125599	-437.872556	-437.86521	-437.864266	-437.904745	27.585	
C	 0.0804401308	 1.5775315678	-0.0672709809	-0.389348
C	-0.0004447105	 0.0623189574	 0.0605029491	 0.02573
O	 0.6115925903	-0.5522888953	-1.0940165174	-0.294468
C	 1.4494212936	-1.6705450779	-0.7547215483	-0.198043
C	 1.6268576951	-1.5533134316	 0.7241840099	 0.125502
C	 2.2431237531	-1.9905481337	 1.8454840668	-0.084975
O	 1.7925292423	-1.2899059451	 2.9116075763	-0.171745
N	 0.8400585339	-0.3502001695	 2.4889446184	-0.250015
C	 0.770726101	-0.5351382928	 1.2007874655	 0.340547
H	 1.123287085	 1.902930894	-0.1023067772	 0.12701
H	-0.4198198166	 1.9015745372	-0.9833842722	 0.129953
H	-0.4085461089	 2.0521167048	 0.7884556104	 0.134263
H	-1.0554760051	-0.2482256696	 0.115049784	 0.102975
H	 0.9607313664	-2.6128615867	-1.0437087093	 0.11807
H	 2.3803757463	-1.5856681216	-1.3266929413	 0.127406
H	 2.9848775234	-2.7410227375	 2.0689615063	 0.157139
72.9231	160.6431	219.2725	235.6732	300.461	450.9011	486.4368	592.7059	606.8627	656.1878	740.89	784.4762	827.7385	855.5544	888.9318	963.8946	1003.5645	1040.1384	1056.0678	1092.0198	1113.5104	1119.2425	1167.9482	1202.074	1280.4345	1310.1858	1351.9261	1375.8828	1405.5637	1436.766	1483.325	1493.8401	1519.1392	1558.6633	1678.3492	2981.1356	2992.1673	3048.1522	3051.8722	3126.6141	3131.3867	3268.2807
CC1OCC2=CON=C12	C[C@H]1OCc2conc12	
InChI=1S/C6H7NO2/c1-4-6-5(2-8-4)3-9-7-6/h3-4H,2H2,1H3	InChI=1S/C6H7NO2/c1-4-6-5(2-8-4)3-9-7-6/h3-4H,2H2,1H3/t4-/m1/s1
