27
gdb 113193	2.86053	0.87153	0.84256	0.0819	96.55	-0.2549	0.0799	0.3348	1631.7612	0.250005	-353.562709	-353.551263	-353.550319	-353.59886	43.104	
C	-0.1453154589	 1.5909990559	-0.5109301514	-0.369068
C	-0.0411946063	 0.2083556548	 0.1452162648	-0.211135
C	-1.3600998766	-0.5394127948	 0.1213950812	-0.018114
C	-1.773096005	-1.3809942313	-1.0669992357	-0.348731
C	-1.5079793656	-2.0412048135	 0.2699937698	 0.360244
C	-0.2680772838	-2.9105383872	 0.3987404218	-0.477358
C	-2.7428270447	-2.5121291512	 1.049036615	-0.012429
C	-3.2474243751	-3.8867638088	 0.583393801	-0.39944
C	-2.5164073598	-2.4925786153	 2.568722649	-0.39688
H	 0.8134890968	 2.1183621027	-0.4825333557	 0.107336
H	-0.4543159446	 1.5060110923	-1.5580448141	 0.117569
H	-0.8849197024	 2.2162545424	 0.0014688065	 0.112026
H	 0.7348317521	-0.3718115132	-0.3656634088	 0.093823
H	 0.2988744084	 0.3240150454	 1.1832208159	 0.094338
H	-2.1698489858	 0.0302358485	 0.576650338	 0.071933
H	-2.7959155586	-1.3177109415	-1.4257991661	 0.101158
H	-1.0394488065	-1.5254880726	-1.8552316399	 0.100154
H	 0.5495217311	-2.542043484	-0.2251343635	 0.113795
H	 0.0988813755	-2.9486828842	 1.4303754496	 0.114949
H	-0.4730103779	-3.9387495864	 0.082128156	 0.115539
H	-3.5383386246	-1.7863957417	 0.829945867	 0.064985
H	-2.543323246	-4.6847831792	 0.8423383973	 0.11334
H	-4.2026794793	-4.1299539787	 1.0605054727	 0.107169
H	-3.396287819	-3.9086168717	-0.500984832	 0.11244
H	-2.1714032003	-1.5097406364	 2.9058865322	 0.11123
H	-3.4429495294	-2.7266829032	 3.1035700689	 0.10748
H	-1.7689039535	-3.2329537768	 2.8736796607	 0.113647
61.6214	89.9016	139.7211	141.5066	202.7158	227.1316	248.2118	254.5129	282.5219	288.1858	303.4975	335.1725	416.3415	435.2846	486.9288	560.3068	681.0743	774.137	810.033	841.7764	904.0188	926.1107	929.4037	944.966	951.623	965.4733	993.8606	1051.8376	1053.9659	1085.3541	1102.2276	1119.5107	1143.5561	1150.9498	1186.1268	1203.9381	1266.8364	1294.2676	1314.1077	1344.7599	1351.2832	1388.5954	1397.1873	1408.6983	1417.0563	1423.3789	1431.0124	1480.9893	1486.9672	1487.7458	1493.9015	1498.9704	1501.9334	1505.4585	1508.2195	1510.3505	1514.6184	3001.5328	3016.1052	3028.1859	3030.5094	3030.7034	3036.1109	3059.1544	3087.2956	3095.2537	3097.135	3098.4971	3100.6318	3102.6852	3103.3762	3106.4232	3113.1753	3117.4557	3195.5079
CCC1CC1(C)C(C)C	CC[C@H]1C[C@]1(C)C(C)C	
InChI=1S/C9H18/c1-5-8-6-9(8,4)7(2)3/h7-8H,5-6H2,1-4H3	InChI=1S/C9H18/c1-5-8-6-9(8,4)7(2)3/h7-8H,5-6H2,1-4H3/t8-,9+/m0/s1
