18
gdb 39180	2.7792	1.70566	1.11825	2.6466	78.73	-0.2382	-0.0042	0.234	1074.1185	0.149327	-401.922418	-401.914901	-401.913957	-401.95464	28.998	
C	 0.6061236059	 1.7852390773	 1.1060251072	-0.191073
C	 1.3535944796	 1.453430431	-0.2132354277	 0.004228
O	 0.8458816017	 2.1067077148	-1.3481855239	-0.24523
C	 1.3802904166	 1.6231997452	-2.5634894733	-0.132575
C	 1.1207739849	 0.1819842921	-2.9500039024	-0.058787
C	 0.8768404844	-0.9258482988	-2.2455823357	-0.060215
C	 0.7732166062	-1.1525267001	-0.7571798566	-0.386845
C	 0.756163824	 0.0933297823	 0.0556345245	 0.344968
N	 0.1595150505	 0.3501231534	 1.1675509871	-0.268852
H	 1.2131590979	 2.0978408939	 1.9608135645	 0.10832
H	-0.2318513955	 2.4730760948	 0.9713050398	 0.125418
H	 2.4530674397	 1.5187820615	-0.1725340867	 0.073889
H	 0.949890496	 2.2667472671	-3.3381870906	 0.121157
H	 2.4735247057	 1.7951010009	-2.5886976785	 0.101614
H	 1.1949085346	 0.0505428526	-4.0295253075	 0.092978
H	 0.761964318	-1.8430278492	-2.8205836583	 0.095675
H	-0.113905269	-1.7512152662	-0.5165745103	 0.139251
H	 1.6312208987	-1.7740253727	-0.4517327917	 0.13608
68.7851	152.5186	251.4815	298.6014	331.4342	370.9148	396.7945	478.5677	619.3817	663.6666	737.1791	782.4293	833.4631	864.0625	904.0731	932.0426	960.8294	989.0657	1015.8899	1032.0994	1054.1172	1089.5371	1131.7294	1160.3239	1190.9649	1233.2952	1258.7996	1267.8703	1286.9564	1328.731	1361.4229	1387.0567	1412.798	1431.2832	1448.1801	1478.6637	1481.3156	1691.5978	1733.7733	2924.0077	2970.3346	2980.7362	3051.7111	3057.2701	3064.8508	3119.5528	3119.7518	3146.9046
C1C2OCC3C4CC23N14	C1[C@@H]2OCC=CC[C]2[N]1	
InChI=1S/C7H9NO/c1-5-4-3-9-6-2-8(5)7(1,4)6/h4-6H,1-3H2	InChI=1S/C7H9NO/c1-2-4-9-7-5-8-6(7)3-1/h1-2,7H,3-5H2/t7-/m0/s1
