23
gdb 76544	2.31575	1.2023	1.14249	1.4983	86.19	-0.2427	0.0757	0.3184	1281.6427	0.204399	-388.272493	-388.262395	-388.261451	-388.307196	37.97	
C	-0.1784699449	 0.7577660676	-2.0164668823	-0.410549
C	 0.0231946956	-0.341094956	-0.9953016656	-0.085831
C	 1.3596707342	-0.6244629442	-0.3317966826	-0.096728
C	 2.6081822861	 0.1828658068	-0.6186564499	-0.412214
C	 0.2274257098	-0.0562274751	 0.4743264121	 0.29519
C	 0.0909493029	 1.3070290476	 1.1705162268	-0.309442
C	-1.0317978516	 0.690608029	 2.0568753174	-0.256124
C	-0.5833937231	-0.7263684655	 1.5974755405	 0.083673
O	-1.5527836527	-1.69151417	 1.270780407	-0.428859
H	 0.4006546431	 1.6551351784	-1.783035508	 0.118876
H	 0.1209530605	 0.4248742409	-3.0165710291	 0.118754
H	-1.2318786647	 1.0563053204	-2.0717941649	 0.110906
H	-0.5649353472	-1.2356198471	-1.1946393527	 0.081076
H	 1.5549573747	-1.6811287595	-0.1551434595	 0.082356
H	 2.3934338058	 1.2485941795	-0.735154849	 0.116651
H	 3.3292000322	 0.0849052119	 0.2007373563	 0.116507
H	 3.1024998265	-0.1581846846	-1.5352424781	 0.116325
H	 0.9803372881	 1.5807569459	 1.7465744454	 0.103056
H	-0.1931046775	 2.1618672489	 0.5519155416	 0.100124
H	-1.0141908393	 0.9035397639	 3.1280377004	 0.09974
H	-2.0291002159	 0.9259849163	 1.6705738479	 0.093683
H	 0.0652613088	-1.2083965311	 2.3371152381	 0.086834
H	-2.1416296714	-1.300217174	 0.615965428	 0.275997
82.2958	134.5629	151.6122	159.0144	163.7447	193.8177	233.0656	292.2599	341.6145	417.8456	459.5036	516.943	550.6923	566.4272	699.8165	784.3856	791.7155	795.0798	913.7953	925.7415	953.875	1003.8555	1015.3991	1017.4531	1064.1739	1070.0294	1106.3573	1129.8707	1148.8354	1151.3591	1175.61	1190.1906	1222.9237	1231.9375	1260.4309	1275.2187	1314.7003	1325.551	1365.9298	1410.7922	1418.9255	1434.391	1459.5375	1478.5667	1486.1341	1491.8241	1497.6785	1500.2199	1513.9324	3026.8059	3030.7169	3046.5155	3051.4842	3052.776	3082.279	3085.1008	3093.987	3098.0727	3108.0306	3114.0465	3115.3497	3126.3435	3799.4525
CC1C(C)C11CCC1O	C[C@H]1[C@@H](C)[C@]21CC[C@H]2O	
InChI=1S/C8H14O/c1-5-6(2)8(5)4-3-7(8)9/h5-7,9H,3-4H2,1-2H3	InChI=1S/C8H14O/c1-5-6(2)8(5)4-3-7(8)9/h5-7,9H,3-4H2,1-2H3/t5-,6+,7-,8+/m1/s1
