20
gdb 109612	2.48821	1.0692	0.97225	3.6795	81.24	-0.2603	0.0335	0.2938	1344.812	0.1691	-403.155979	-403.145707	-403.144762	-403.19122	37.143	
C	 0.2077446569	 1.512482882	 0.1368408742	-0.379225
C	-0.1824719691	 0.0497901932	-0.1117853184	-0.207718
C	 0.5837151266	-0.5404706392	-1.2790647131	-0.067092
C	 1.9243348489	-1.1745605873	-1.1072353121	 0.061151
O	 2.419161235	-1.2433873184	 0.1904777693	-0.41005
C	 0.716941476	-2.0606803644	-1.4832855995	 0.071838
C	 0.1634019033	-3.0451919215	-0.4641648067	-0.472854
C	 0.6782133394	-2.5142728875	-2.8482767935	 0.235421
N	 0.6589817055	-2.8770530044	-3.9478823083	-0.350946
H	 1.2693479024	 1.5926308037	 0.3891292724	 0.132785
H	 0.0238010016	 2.1300622181	-0.7489633384	 0.116724
H	-0.3705758112	 1.9346229326	 0.9640428207	 0.115654
H	 0.0024007232	-0.5306304352	 0.7948641263	 0.117299
H	-1.2568945118	-0.0186997281	-0.3207992991	 0.105527
H	 0.4669716518	 0.0154538233	-2.2056924498	 0.110052
H	 2.6713208981	-1.0177370708	-1.8833001483	 0.111562
H	 3.0519645305	-1.9681727431	 0.2390520957	 0.298374
H	 0.4630453551	-2.7572350775	 0.5441768352	 0.140437
H	-0.9285364275	-3.0898256141	-0.5075779407	 0.137443
H	 0.5483804554	-4.0501700613	-0.660200946	 0.133619
61.1143	119.8718	134.3002	153.4514	187.0176	211.2381	241.7973	286.188	303.2995	337.174	418.4872	453.9168	564.422	571.0607	612.4988	693.9367	767.7987	843.259	854.765	933.1968	986.6625	1005.0807	1056.8883	1073.9276	1102.9016	1125.9573	1163.3311	1196.3771	1251.2096	1266.4682	1300.1551	1305.7521	1342.6908	1398.045	1411.262	1413.8469	1467.9005	1487.7077	1497.4779	1499.0015	1502.3984	1507.8715	2339.6042	3036.0383	3037.8563	3049.7058	3092.7699	3110.6905	3111.7056	3116.4391	3119.2853	3145.8685	3148.4906	3806.3607
CCC1C(O)C1(C)C#N	CC[C@H]1[C@@H](O)[C@]1(C)C#N	
InChI=1S/C7H11NO/c1-3-5-6(9)7(5,2)4-8/h5-6,9H,3H2,1-2H3	InChI=1S/C7H11NO/c1-3-5-6(9)7(5,2)4-8/h5-6,9H,3H2,1-2H3/t5-,6+,7+/m0/s1
