17
gdb 46954	2.86927	1.84878	1.41589	4.8152	71.25	-0.2486	0.0114	0.26	930.9038	0.138861	-421.839628	-421.832972	-421.832027	-421.870652	26.84	
O	 0.0333126225	 0.0105609728	 0.2399761769	-0.339024
C	-0.0146302997	 1.1827256287	-0.0222840022	 0.415604
O	-1.2236883888	 1.7544581505	-0.2678475526	-0.236658
C	-1.327703768	 3.0817016113	-0.8150313654	-0.079046
C	-0.2276496481	 4.0052213822	-0.3330903568	-0.055204
C	 0.0826254718	 3.9356348331	 1.2024364394	-0.254967
C	 1.4061366276	 3.2485806386	 0.8661256534	-0.061528
C	 1.1824269522	 3.4538041607	-0.6190080416	-0.103777
C	 1.198289252	 2.055772125	-0.0647924803	-0.158013
H	-1.321981874	 3.0081053996	-1.9108729447	 0.114476
H	-2.3147673629	 3.4370821364	-0.5042758963	 0.122186
H	-0.3999950661	 5.0185866589	-0.7000217033	 0.087983
H	 0.2368149632	 4.9312702891	 1.623507529	 0.112178
H	-0.6245352545	 3.3873441174	 1.8313702077	 0.117983
H	 2.3255862749	 3.3171185297	 1.4339196622	 0.101605
H	 1.8632340409	 3.7806158464	-1.394693149	 0.096675
H	 2.1012202768	 1.4787648897	-0.2253951765	 0.119526
116.7299	190.1907	323.8684	333.2918	428.9192	505.129	539.117	662.1839	708.1347	789.2934	795.2103	810.1226	830.9299	867.6615	898.8083	968.5924	984.067	1007.2587	1020.7745	1066.5558	1066.8801	1079.1452	1095.3069	1129.3281	1155.1917	1210.8374	1244.3135	1255.627	1279.0011	1308.666	1315.3434	1346.1633	1404.9093	1428.3383	1492.3931	1506.1145	1836.5633	3018.9635	3060.146	3082.8089	3095.6535	3116.958	3186.7667	3188.6155	3201.9876
O=C1OCC2CC3C2C13	O=C1OC[C@H]2C[C@@H]3[C@H]2[C@H]13	
InChI=1S/C7H8O2/c8-7-6-4-1-3(2-9-7)5(4)6/h3-6H,1-2H2	InChI=1S/C7H8O2/c8-7-6-4-1-3(2-9-7)5(4)6/h3-6H,1-2H2/t3-,4-,5+,6-/m1/s1
