23
gdb 76791	1.92618	1.76321	1.1424	1.3263	85.6	-0.2461	0.0656	0.3117	1194.4237	0.204393	-388.270284	-388.260443	-388.259499	-388.304451	37.994	
C	-0.5761680964	 0.8118988821	-1.554101254	-0.409921
C	 0.2468943291	-0.3320114564	-0.9823766248	-0.053693
C	 1.7590403414	-0.4178894593	-1.3434156402	 0.079018
O	 2.2370593959	 0.8647365552	-1.7049998863	-0.424803
C	 2.0662106027	-0.8209743327	 0.1402005271	-0.067064
C	 3.2809175681	-0.2036354243	 0.8150089745	-0.431437
C	 0.6535873629	-0.3275455206	 0.5035756959	 0.363172
C	 0.3243993841	 0.7410434203	 1.505575081	-0.313825
C	-0.1780519599	-0.6723983535	 1.7001517567	-0.340732
H	-0.087004445	 1.772486754	-1.3799183296	 0.133939
H	-0.7121930471	 0.6950996359	-2.6343692767	 0.111928
H	-1.5719683153	 0.8397411051	-1.0971717682	 0.105736
H	-0.2265895841	-1.2906069157	-1.2284777388	 0.068785
H	 2.030403531	-1.1605941702	-2.106313193	 0.051979
H	 3.1935391544	 0.8117509036	-1.7951425799	 0.284593
H	 2.1111215522	-1.9149338397	 0.2140153693	 0.066564
H	 3.2891776402	 0.8818067847	 0.6820140248	 0.126235
H	 3.2862343607	-0.4126979693	 1.8903605735	 0.116427
H	 4.2137684241	-0.6083243108	 0.4041502557	 0.104496
H	 1.1159748352	 1.0961118132	 2.1576268935	 0.107331
H	-0.392718669	 1.5058457242	 1.2257847989	 0.110767
H	-1.2369617849	-0.8630715177	 1.5512378637	 0.106012
H	 0.2726555596	-1.2725397481	 2.4853500667	 0.104495
56.0549	194.0601	201.5087	212.773	226.1764	231.8869	242.7143	266.3767	291.1686	403.9134	443.2917	487.7955	564.987	607.5534	746.3374	757.1215	797.0093	852.2853	866.9716	915.0757	918.0606	974.8642	991.9314	996.6061	1049.0384	1060.6796	1077.6579	1103.6487	1111.8475	1155.2226	1174.5753	1181.7221	1189.5528	1234.1125	1253.2438	1289.0663	1309.0382	1350.7819	1365.094	1385.8088	1399.7947	1404.3176	1425.6372	1464.6332	1490.7057	1493.576	1499.7338	1503.9575	1508.7528	2993.0107	3019.8461	3025.304	3029.8062	3035.2908	3083.5124	3091.9018	3112.6091	3113.8463	3128.4324	3130.6109	3191.6042	3212.5288	3821.0634
CC1C(O)C(C)C11CC1	C[C@H]1[C@@H](O)[C@@H](C)C21CC2	
InChI=1S/C8H14O/c1-5-7(9)6(2)8(5)3-4-8/h5-7,9H,3-4H2,1-2H3	InChI=1S/C8H14O/c1-5-7(9)6(2)8(5)3-4-8/h5-7,9H,3-4H2,1-2H3/t5-,6+,7+
