19
gdb 83892	2.42297	1.52337	1.21606	1.8181	82.78	-0.2287	0.0383	0.267	1114.5874	0.158391	-385.846765	-385.838038	-385.837093	-385.879908	33.395	
C	-0.0359080788	 1.5608817556	 0.067999068	-0.413709
C	 0.03767193	 0.0565766153	-0.0486437615	-0.073196
C	 0.6819106098	-0.6737100401	-1.2102405221	-0.135977
C	 1.6437792136	 0.0740499656	-2.1313472425	-0.257748
C	 2.9308503362	 0.1520257665	-1.284573213	-0.078879
O	 2.5078137019	 0.1108280383	 0.0827779997	-0.297532
C	 1.3490528239	-0.6914547728	 0.1574574112	 0.203066
C	 1.440066799	-1.852531839	 0.9909096708	 0.282705
C	 1.5005190609	-2.822542741	 1.700003761	-0.425039
H	 0.9312768907	 2.0266007146	-0.1304382475	 0.132208
H	-0.7733334846	 1.9756776647	-0.6280160635	 0.116008
H	-0.3347582841	 1.8476471091	 1.0811499133	 0.125224
H	-0.8226336355	-0.4686641314	 0.3582908474	 0.095568
H	 0.1936930752	-1.5671051953	-1.5797864919	 0.10352
H	 1.8050518844	-0.4716904102	-3.0644183132	 0.109827
H	 1.2738103134	 1.0708768491	-2.3909773432	 0.111628
H	 3.5894110154	-0.7024272648	-1.4990953086	 0.103279
H	 3.5010810014	 1.0744827867	-1.4234388727	 0.109172
H	 1.5607928271	-3.6774848606	 2.3266214381	 0.189875
118.3951	137.1137	145.3765	167.4946	205.3264	280.6413	394.0178	475.312	527.3283	539.5093	563.3693	616.583	632.684	673.2356	738.7415	801.2251	844.5517	898.2899	933.9711	952.8908	1000.3132	1013.8072	1035.8491	1091.2231	1094.5311	1127.6551	1144.7378	1210.0665	1223.1881	1230.0984	1255.3578	1315.9581	1339.1057	1385.7197	1407.5574	1429.5082	1485.8329	1496.7579	1502.4227	1516.4773	2233.188	2997.2334	3037.6753	3052.4612	3090.9748	3096.5302	3104.1462	3126.7735	3145.996	3185.924	3502.5985
CC1C2CCOC12C#C	C[C@H]1[C@H]2CCO[C@@]12C#C	
InChI=1S/C8H10O/c1-3-8-6(2)7(8)4-5-9-8/h1,6-7H,4-5H2,2H3	InChI=1S/C8H10O/c1-3-8-6(2)7(8)4-5-9-8/h1,6-7H,4-5H2,2H3/t6-,7+,8-/m0/s1
