21
gdb 40883	3.27179	1.49077	1.32584	1.6128	81.56	-0.2328	0.0888	0.3216	1053.5564	0.184949	-387.056505	-387.049151	-387.048207	-387.088163	30.27	
C	-0.0579070994	 1.556746812	-0.1352015993	-0.216415
C	 1.4892872015	 1.5372958899	 0.0188866217	-0.313103
C	 1.3719282663	 0.0986956006	 0.5809384545	 0.424895
C	-0.0751816866	 0.0138256461	 0.0545979731	-0.313325
C	 2.490792356	-0.9749359999	 0.410547589	-0.158396
C	 3.1805625238	-0.3065239089	 1.6412818113	-0.248289
C	 1.7029320634	-0.1612009249	 2.0743951618	 0.043664
O	 1.2724664012	-1.5178740229	 2.2723281984	-0.283057
C	 1.8131762011	-2.1679066594	 1.0952063137	-0.081228
H	-0.5473586958	 2.0797159955	 0.6904786719	 0.104334
H	-0.4556406862	 1.9477628379	-1.0740352902	 0.097371
H	 2.0025485899	 1.5618781545	-0.9480260136	 0.099295
H	 1.9371890199	 2.2993879914	 0.6628442646	 0.097554
H	-0.8154891643	-0.4078055502	 0.7385624076	 0.111046
H	-0.1388301203	-0.5216356407	-0.8989347904	 0.096237
H	 2.9984408415	-1.1501078744	-0.5383425715	 0.064838
H	 3.8238919901	-0.9236578946	 2.2732732332	 0.096296
H	 3.6632380934	 0.6400471956	 1.3971111583	 0.106094
H	 1.3547292704	 0.4597555807	 2.899459912	 0.074886
H	 1.0011671176	-2.6079438583	 0.504494264	 0.100089
H	 2.5104510366	-2.9606914599	 1.3907759398	 0.097214
99.4251	191.402	205.5975	293.0808	376.4128	422.378	514.1229	561.2846	669.1899	707.317	793.7151	813.6413	848.3132	863.1617	883.4194	920.1901	932.752	940.5314	954.9633	968.396	986.2615	1030.4505	1045.4818	1068.0669	1090.3696	1118.0665	1134.6229	1165.3494	1177.8446	1196.5411	1208.3282	1221.519	1250.9955	1254.8153	1261.7502	1273.3505	1280.8745	1293.3721	1319.8901	1369.4369	1474.9405	1482.9651	1489.344	1505.0796	1526.7772	3021.8939	3041.4415	3045.5343	3061.6698	3063.8002	3070.4833	3088.5353	3101.5641	3114.4344	3119.9962	3127.1476	3141.0083
C1CC2(C1)C1CC2OC1	C1CC2(C1)[C@H]1C[C@@H]2OC1	
InChI=1S/C8H12O/c1-2-8(3-1)6-4-7(8)9-5-6/h6-7H,1-5H2	InChI=1S/C8H12O/c1-2-8(3-1)6-4-7(8)9-5-6/h6-7H,1-5H2/t6-,7-/m0/s1
