18
gdb 11308	4.86759	1.16253	1.00152	3.5326	68.69	-0.248	-0.0191	0.2289	1144.161	0.153767	-384.961468	-384.953292	-384.952348	-384.995285	29.733	
O	-0.0246842089	 1.4488115829	-0.0056113886	-0.435966
C	 0.0585026004	 0.0346462369	 0.0309727447	 0.14527
C	 0.6152023631	-0.551038783	 1.3397565768	-0.243538
C	 0.0511242516	-1.9755534513	 1.351677645	-0.235606
C	-1.412470939	-1.7991911455	 0.8544595197	-0.050411
C	-1.3653595942	-0.5535530116	-0.0792572942	-0.246305
C	-1.9022753031	-3.0355865928	 0.1410535743	 0.153095
O	-2.7914842174	-3.7558327737	 0.512464103	-0.251051
H	 0.8701540138	 1.8027320171	 0.0015459317	 0.28287
H	 0.6706320892	-0.3301388621	-0.8096180575	 0.065509
H	 1.7078788625	-0.5177054167	 1.397836142	 0.09178
H	 0.2124510876	 0.0308157816	 2.1774592984	 0.110409
H	 0.6119678576	-2.6047765826	 0.647139396	 0.103006
H	 0.0981184895	-2.464463191	 2.3273401812	 0.115657
H	-2.0764811684	-1.6252394096	 1.704641727	 0.095521
H	-2.0818248202	 0.2032213623	 0.2492000459	 0.12835
H	-1.6153509321	-0.8027733934	-1.1154837485	 0.106629
H	-1.343951862	-3.2528725276	-0.8037220168	 0.064781
27.6904	72.9957	181.3605	275.9133	287.9541	340.737	380.7593	403.9445	480.4648	550.7548	646.2765	805.9041	856.2654	886.2282	925.5156	941.2407	995.897	1008.0584	1046.0579	1077.0306	1091.4506	1113.2299	1189.1064	1198.946	1218.9322	1278.9202	1288.6481	1296.3081	1316.1358	1322.1056	1351.0765	1377.522	1427.6505	1429.2467	1483.7199	1489.5831	1502.7607	1836.1846	2822.9822	2963.114	3018.8585	3037.1505	3054.0771	3077.6385	3087.3655	3103.541	3109.272	3819.5417
OC1CCC(C1)C=O	O[C@H]1CC[C@@H](C1)C=O	
InChI=1S/C6H10O2/c7-4-5-1-2-6(8)3-5/h4-6,8H,1-3H2	InChI=1S/C6H10O2/c7-4-5-1-2-6(8)3-5/h4-6,8H,1-3H2/t5-,6-/m0/s1
