21
gdb 79769	2.82922	1.91352	1.70421	0.1102	83.93	-0.2467	0.0767	0.3234	928.8759	0.185321	-349.884946	-349.877976	-349.877032	-349.916688	29.218	
C	-0.251727938	 1.6022997847	-0.0247695589	-0.438614
C	 0.0761994833	 0.1002333226	-0.00242821	 0.055753
C	 1.0777192434	-0.5865873101	-0.9703787891	-0.075378
C	 2.5801405531	-0.1228133781	-0.7971447068	-0.04301
C	 2.773413569	 0.9413873947	 0.3081790175	-0.242765
C	 2.3422289167	-0.1430355813	 1.3229645732	-0.043031
C	 0.8397599081	-0.6068847495	 1.1502187857	-0.075377
C	 1.3111734646	-1.6942788324	 0.118969592	-0.038732
C	 2.7809981486	-1.2434053108	 0.2882015618	-0.041441
H	 0.2467846337	 2.1184443141	-0.8513241755	 0.120827
H	-1.3266387239	 1.7701268579	-0.1426831867	 0.107367
H	 0.0520283711	 2.1020379793	 0.9004779857	 0.120854
H	-0.8584361444	-0.4647700025	-0.1127703123	 0.071949
H	 0.7659962289	-0.7973612132	-1.9946662487	 0.055188
H	 3.1625512343	-0.0578165577	-1.7167972645	 0.057314
H	 3.8429240741	 1.1469126311	 0.4301728346	 0.092552
H	 2.2405369096	 1.8914291809	 0.2573943469	 0.09273
H	 2.7062415953	-0.0965910335	 2.3498647565	 0.05732
H	 0.3093015941	-0.8363169002	 2.075819222	 0.055187
H	 0.9226040008	-2.7100244771	 0.065640851	 0.055326
H	 3.6657899678	-1.8712652589	 0.3815069954	 0.05598
38.9794	223.0027	235.5149	389.6689	478.7883	555.9804	618.9657	643.107	707.7746	761.0053	773.475	802.1034	823.6022	866.8392	871.7059	897.5256	919.9321	944.2651	957.5587	987.7397	1012.1702	1045.9671	1053.2263	1082.7659	1094.0871	1101.7584	1110.9993	1124.7054	1166.2157	1169.2354	1178.3977	1188.9287	1204.7178	1249.9461	1262.2448	1264.0581	1280.8002	1285.1085	1321.543	1334.5409	1385.5442	1414.4312	1487.3142	1503.3613	1507.8716	3010.9811	3034.6224	3043.8612	3083.4324	3084.8497	3097.2523	3098.6591	3099.673	3100.0927	3112.9581	3124.5104	3128.227
CC1C2C3CC4C1C2C34	C[C@H]1[C@H]2[C@H]3C[C@H]4[C@@H]1[C@@H]2[C@@H]34	
InChI=1S/C9H12/c1-3-6-4-2-5-7(3)9(6)8(4)5/h3-9H,2H2,1H3	InChI=1S/C9H12/c1-3-6-4-2-5-7(3)9(6)8(4)5/h3-9H,2H2,1H3/t3-,4+,5-,6-,7+,8-,9+
