20
gdb 96881	3.34161	0.96467	0.91305	2.1052	78.67	-0.2514	0.0296	0.281	1399.1098	0.169062	-440.286473	-440.276556	-440.275612	-440.32187	35.659	
C	-0.1546615231	 1.4053664159	 0.3669046252	-0.340366
N	-0.2438867124	-0.047650853	 0.3447563029	-0.321861
C	 0.6280861019	-0.7252198589	 0.9266436814	 0.462685
C	 0.8950325527	-2.1992382551	 1.121949576	-0.402493
C	 2.1556619995	-1.7153813487	 1.869150057	 0.121727
O	 1.7552116452	-0.3175675573	 1.6442638331	-0.298708
C	 2.2620489378	-2.0057394363	 3.3624880943	 0.112737
C	 3.4462299956	-1.2747196003	 3.9988155285	-0.408263
O	 1.0405807567	-1.6998172537	 4.0173776311	-0.435143
H	 0.7511173478	 1.7931049116	 0.848071595	 0.122324
H	-0.194645446	 1.7804500904	-0.6612984795	 0.128629
H	-1.0295251097	 1.8112208586	 0.8874857344	 0.127938
H	 0.1636806921	-2.7008267379	 1.7571725623	 0.149774
H	 1.0585731966	-2.7686200761	 0.2062063109	 0.131343
H	 3.1021479511	-1.9163315515	 1.3573656491	 0.090269
H	 2.3918116824	-3.0892696469	 3.480522189	 0.096158
H	 3.3615035311	-0.1953152494	 3.833239508	 0.129613
H	 3.465465145	-1.4624046737	 5.0750129218	 0.128651
H	 4.3962069134	-1.6088882703	 3.5686609743	 0.115893
H	 0.8779320125	-0.7597500974	 3.8717248153	 0.289093
64.8837	76.886	82.8961	165.1615	210.5175	232.2032	264.6306	281.0691	354.8521	400.0798	471.7278	534.5661	561.9704	621.6182	711.7031	783.8261	898.2555	917.9046	954.0045	986.8746	1019.9815	1035.8879	1070.3998	1085.1994	1107.0697	1130.4793	1138.1913	1165.0312	1183.2205	1247.2297	1280.5455	1302.3121	1346.2797	1383.7511	1402.1977	1422.9523	1439.3072	1457.1216	1491.7658	1493.7926	1498.1242	1498.3321	1852.839	3015.8949	3035.1786	3037.1342	3063.5719	3081.228	3087.0999	3091.527	3106.2093	3126.2246	3150.4166	3787.711
CN=C1CC(O1)C(C)O	CN=C1C[C@@H](O1)[C@@H](C)O	
InChI=1S/C6H11NO2/c1-4(8)5-3-6(7-2)9-5/h4-5,8H,3H2,1-2H3	InChI=1S/C6H11NO2/c1-4(8)5-3-6(7-2)9-5/h4-5,8H,3H2,1-2H3/t4-,5-/m1/s1
