16
gdb 41044	3.69035	1.87595	1.54376	1.5602	70.79	-0.2189	0.0478	0.2667	856.9593	0.125741	-400.592621	-400.586411	-400.585467	-400.623046	25.415	
C	-0.0384309204	 1.5107518475	 0.1016886494	-0.212008
O	 1.0662870376	 1.9412321998	-0.725094357	-0.271543
C	 2.0953194926	 0.9381866731	-0.8117530093	-0.232558
C	 1.3323772448	-0.3465135865	-0.6467998575	 0.343843
C	 0.7736163848	-1.5831488118	-1.236619853	-0.145578
C	-0.6036466291	-1.2674943297	-0.5788679394	-0.193989
C	 0.1155426674	-1.2873622745	 0.7643764181	-0.084386
N	 1.4675141261	-1.6297563178	 0.120814703	-0.237082
C	 0.0018256776	 0.0093879827	 0.0087353157	 0.262734
H	 0.0999933243	 1.854583655	 1.1369190543	 0.107708
H	-0.9372952955	 1.9807820045	-0.3055764351	 0.121944
H	 2.5932291025	 1.0727904062	-1.7748480421	 0.12428
H	 2.8354088137	 1.0554384943	-0.0060548722	 0.112833
H	 1.090207264	-2.2153823515	-2.0582275417	 0.102152
H	-1.6267404038	-1.5257516274	-0.8152177867	 0.100101
H	-0.2139213865	-1.6176468839	 1.7425898135	 0.101549
146.6904	208.3795	287.0563	423.116	557.8921	636.2615	674.1968	743.8493	757.6003	791.0381	831.2173	843.4851	873.9991	878.0974	885.7481	906.6963	963.1895	994.3287	1013.3672	1026.226	1042.7038	1079.2203	1091.2168	1168.5454	1176.2739	1194.5992	1210.3585	1218.2507	1248.0459	1322.9782	1368.2618	1420.6872	1449.2517	1500.419	1510.7956	2992.8709	2998.7715	3087.9488	3098.2354	3177.8686	3180.5895	3213.809
C1OCC23C4C5C(N24)C135	C1OC[C@@]23[C@@H]4[C@H]5[C@@H](N24)[C@@]135	
InChI=1S/C7H7NO/c1-6-3-4(6)8-5(3)7(6,8)2-9-1/h3-5H,1-2H2	InChI=1S/C7H7NO/c1-6-3-4(6)8-5(3)7(6,8)2-9-1/h3-5H,1-2H2/t3-,4-,5+,6+,7+,8?/m1/s1
