18
gdb 108694	2.38098	1.24973	0.84249	4.7348	80.43	-0.2027	-0.0289	0.1737	1325.4453	0.148188	-439.107634	-439.098593	-439.097649	-439.141931	32.533	
O	 0.1019271237	 1.298695125	 0.7099665882	-0.411482
C	 0.0221717732	 0.1243592611	-0.0832262041	-0.17935
C	-1.3825918649	-0.418513423	-0.1692734774	 0.252157
C	-1.9448684928	-1.2633143074	-1.0817575589	 0.080486
C	-3.3888386361	-1.5177757716	-0.6793042217	-0.311355
C	-3.4622783215	-0.9085573636	 0.7459770513	-0.174752
N	-2.2668260783	-0.0540143168	 0.8042871516	-0.318586
C	-1.3407173336	-1.7822804121	-2.2738768749	 0.047657
O	-1.8987687901	-2.5195667846	-3.0715490208	-0.318241
H	-0.3711992878	 2.0001881884	 0.249747786	 0.294793
H	 0.4356807783	 0.2739441003	-1.0879203918	 0.126945
H	 0.6604250625	-0.6113200185	 0.4197713665	 0.146015
H	-4.0793124477	-1.0140323287	-1.3665230658	 0.119882
H	-3.6505859596	-2.5783135713	-0.6942511493	 0.127963
H	-4.3690018047	-0.3233806494	 0.9203100858	 0.117241
H	-3.4093277043	-1.6889863135	 1.5174164801	 0.112192
H	-1.918697922	 0.3311531207	 1.6684611779	 0.254887
H	-0.2841672344	-1.4683247351	-2.4458842527	 0.033547
64.9315	120.7564	155.726	170.6539	184.5127	243.5276	303.4485	350.5218	398.2064	528.2439	546.2339	584.1957	704.5254	705.3812	803.4825	871.2765	949.8099	974.0598	1015.1814	1019.8608	1048.5635	1075.0218	1094.4853	1189.9292	1202.0731	1232.0878	1274.9036	1308.092	1326.4238	1360.6778	1379.0173	1407.6456	1432.2954	1485.5436	1492.1586	1502.3147	1533.7538	1651.6903	1745.9113	2840.2206	3007.0789	3031.6853	3033.3699	3069.7843	3083.7525	3098.1312	3632.8103	3812.9843
OCC1=C(CCN1)C=O	OCC1=C(CCN1)C=O	
InChI=1S/C6H9NO2/c8-3-5-1-2-7-6(5)4-9/h3,7,9H,1-2,4H2	InChI=1S/C6H9NO2/c8-3-5-1-2-7-6(5)4-9/h3,7,9H,1-2,4H2
