25
gdb 59557	3.06968	1.18147	1.02534	0.0848	92.11	-0.288	0.0864	0.3744	1318.6434	0.231096	-352.357306	-352.348488	-352.347544	-352.39052	35.704	
C	 0.0398826357	 1.5566085113	 0.0304814747	-0.388745
C	 0.0390757662	 0.0224380071	-0.0537649885	 0.012212
C	 0.7567143194	-0.4359268798	-1.3321259625	-0.393459
C	 0.6619946239	-0.5941989985	 1.2110894338	 0.075911
C	-0.1343050727	-0.3291169339	 2.540584921	-0.241021
C	-0.2938838829	-1.7780055188	 3.0410692322	-0.009468
C	 1.1189520842	-2.369518032	 2.7715280678	-0.227627
C	 0.7076089875	-2.1415479968	 1.2873931699	-0.035707
C	-0.7329637668	-2.517363428	 1.7456794183	-0.223583
H	 1.06585625	 1.9422179376	 0.0744911273	 0.109074
H	-0.4416792771	 1.9991633929	-0.8478142569	 0.106799
H	-0.4880323889	 1.918032732	 0.9180977275	 0.113391
H	-1.0073290731	-0.3083651992	-0.1174988756	 0.068207
H	 1.8199239418	-0.1676252697	-1.3014872695	 0.109023
H	 0.6902080135	-1.5181392709	-1.4754851554	 0.11312
H	 0.3219764212	 0.0426358329	-2.2161521884	 0.106606
H	 1.684048247	-0.2011637472	 1.2983902586	 0.058024
H	 0.4143100333	 0.3017300764	 3.2461424071	 0.091094
H	-1.1035945227	 0.1451270365	 2.353367913	 0.09258
H	-0.810797991	-1.9237161459	 3.9905369299	 0.053763
H	 1.9893907775	-1.826463227	 3.1539447036	 0.082874
H	 1.1915272391	-3.4285829065	 3.0309143959	 0.091016
H	 1.2088828787	-2.669265671	 0.4762561494	 0.0568
H	-0.852291943	-3.5931264803	 1.8956061051	 0.091996
H	-1.5866415407	-2.1233017711	 1.1868175419	 0.08712
71.7005	150.0134	186.1954	229.9775	249.8144	319.4103	377.3256	392.3269	451.1158	466.0691	522.262	657.2226	793.5981	833.1845	835.3111	854.67	867.0136	888.732	928.1882	943.0937	944.4589	961.4342	979.2502	1005.8087	1016.6467	1038.2806	1048.0039	1084.6239	1090.044	1108.5046	1139.6542	1169.8406	1188.3953	1208.9052	1225.6185	1242.8048	1252.2354	1274.0089	1291.6769	1307.581	1318.6202	1340.236	1349.8668	1394.3116	1398.261	1420.1258	1487.1744	1487.7232	1492.5513	1498.3434	1505.6432	1511.3107	1526.3791	2996.8643	3011.879	3023.3073	3028.5196	3042.8459	3044.5488	3053.9697	3085.5041	3086.6193	3092.5743	3102.0638	3103.2231	3105.144	3107.4801	3111.5055	3117.9053
CC(C)C1CC2CC1C2	CC(C)[C@H]1C[C@@H]2C[C@H]1C2	
InChI=1S/C9H16/c1-6(2)9-5-7-3-8(9)4-7/h6-9H,3-5H2,1-2H3	InChI=1S/C9H16/c1-6(2)9-5-7-3-8(9)4-7/h6-9H,3-5H2,1-2H3/t7-,8+,9-/m1/s1
