18
gdb 77043	3.20447	1.03148	0.84163	2.4063	79.56	-0.2601	0.0245	0.2846	1368.8799	0.145804	-401.919158	-401.90985	-401.908906	-401.953772	33.966	
C	-0.2311193602	 1.56372951	 0.1810152377	-0.408268
C	-0.0802622722	 0.0538374917	 0.040079502	-0.160469
C	 0.5454191958	-0.5789741217	-1.2361425384	 0.123678
C	 1.1167962516	 0.3402856444	-2.3137515742	-0.376684
C	 1.8129455951	-0.3932187574	-3.3635331666	 0.291964
C	 2.374429584	-1.0138243837	-4.2251888249	-0.417854
O	 1.6008056314	-1.1790607576	-0.415483377	-0.263615
C	 1.1013804649	-0.5983017491	 0.7325513716	 0.438737
N	 1.5238406447	-0.6218775878	 1.9122131348	-0.545467
H	 0.6924068001	 2.0943477315	-0.0657307236	 0.127411
H	-1.0311614966	 1.9438876184	-0.461994699	 0.121316
H	-0.4825548749	 1.8082983358	 1.2164169269	 0.144706
H	-1.0177364845	-0.4414411908	 0.3097864801	 0.112127
H	-0.0557311978	-1.3691652321	-1.6937300658	 0.104161
H	 0.2892242889	 0.9163182521	-2.7487832173	 0.13809
H	 1.7958784326	 1.0647774248	-1.8503523034	 0.141373
H	 2.8797598226	-1.5568143312	-4.9850113316	 0.19977
H	 2.3781465846	-1.1761094173	 1.9926111187	 0.229023
60.7872	85.2693	116.4126	187.8875	211.9386	236.1376	330.9567	351.0434	422.6624	489.5306	521.8285	625.4146	644.8202	649.2814	738.5743	806.6432	842.5345	869.1498	903.8737	954.6626	988.1258	1026.7356	1038.1064	1076.5316	1130.1056	1154.8095	1218.4667	1236.7216	1243.2297	1292.7186	1345.2626	1367.8481	1397.8215	1413.3154	1454.7452	1493.9244	1499.8948	1825.2988	2244.3409	3024.3909	3043.7675	3061.3421	3069.3129	3084.5616	3114.295	3122.9822	3475.949	3506.6139
CC1C(CC#C)OC1=N	C[C@H]1[C@@H](CC#C)O[C]1[NH]	
InChI=1S/C7H9NO/c1-3-4-6-5(2)7(8)9-6/h1,5-6,8H,4H2,2H3	InChI=1S/C7H9NO/c1-3-4-6-5(2)7(8)9-6/h1,5-6,8H,4H2,2H3/t5-,6+/m0/s1
