18
gdb 79613	2.21557	1.89652	1.45118	3.0125	75.38	-0.223	-0.0313	0.1917	981.08	0.14856	-401.91047	-401.902861	-401.901917	-401.942419	29.986	
C	-0.1405680148	 1.5199125892	 0.048424129	-0.324865
N	 0.0514697575	 0.0819558597	-0.071318409	-0.082741
C	 0.5038228322	-0.7273117297	-1.1809374911	-0.050855
C	 1.3343673129	-0.2206853926	-2.3620918109	-0.04002
C	 1.6652406776	 1.2350871275	-2.5027134368	-0.309653
C	 2.6464297836	 0.3011713972	-1.8109332532	-0.151222
C	 2.6252994049	 0.0638172583	-0.3142213568	 0.391842
O	 3.5634733744	 0.2268504177	 0.4263675799	-0.320708
C	 1.3136263489	-0.6137456409	 0.0856287657	-0.166334
H	 0.7756675088	 2.1210078648	-0.006973422	 0.124469
H	-0.8395261907	 1.8632932201	-0.7198517648	 0.131882
H	-0.5973349399	 1.7156059858	 1.0245930512	 0.128874
H	-0.1226327775	-1.5924850596	-1.3846473606	 0.099907
H	 1.3079194303	-0.8380866289	-3.252617159	 0.096164
H	 1.9841305658	 1.5634912922	-3.4866897423	 0.124576
H	 1.1267159528	 1.9879734365	-1.9510735671	 0.129324
H	 3.6058759842	 0.1450111418	-2.2900416687	 0.113679
H	 1.3829532387	-1.3514289791	 0.8823044967	 0.105679
103.9159	152.5673	207.1463	283.7516	333.4623	381.4582	446.1727	536.2164	571.8125	669.6717	678.9429	731.3178	781.5281	793.2575	830.3964	902.7908	949.556	956.9441	984.6616	1017.6634	1061.0908	1084.4637	1086.1086	1104.5361	1113.8857	1148.0168	1174.2402	1183.9041	1201.2201	1278.6384	1322.5858	1341.2461	1372.2889	1401.6374	1459.4127	1482.0333	1492.5847	1531.2712	1822.1951	3008.7266	3068.4911	3106.0084	3127.4805	3135.1257	3153.4965	3174.7667	3185.5625	3275.9018
CN1C2C3CC3C(=O)C12	CN1[C@H]2[C@H]3C[C@H]3C(=O)[C@@H]12	
InChI=1S/C7H9NO/c1-8-5-3-2-4(3)7(9)6(5)8/h3-6H,2H2,1H3	InChI=1S/C7H9NO/c1-8-5-3-2-4(3)7(9)6(5)8/h3-6H,2H2,1H3/t3-,4+,5-,6-,8?/m0/s1
