17
gdb 67808	2.39682	1.95699	1.58092	1.0385	72.54	-0.2219	0.0005	0.2223	924.2293	0.135293	-421.776322	-421.768735	-421.767791	-421.807737	30.597	
C	-0.0877377804	 1.4743870373	 0.0337620695	-0.498635
C	-0.0316307868	-0.0264613869	-0.0944047319	 0.222334
C	 0.9586991156	-0.7330863093	-0.9399237535	-0.128159
C	 0.577305134	-2.0046370583	-1.1447096492	-0.096645
C	-0.6435117454	-2.2538644496	-0.313961919	-0.046173
O	-0.1738516919	-2.2220889015	 1.1058878942	-0.291056
C	-0.527508007	-0.8698793116	 1.1895422929	-0.036239
C	-1.2973489719	-0.8356167931	-0.0832155713	 0.264707
O	-2.5148490038	-0.3484999791	-0.4895469467	-0.453175
H	 0.8555305095	 1.8754907971	 0.4191990782	 0.120252
H	-0.2869818782	 1.9466340138	-0.9341110644	 0.130498
H	-0.8877343116	 1.7827411962	 0.7140334421	 0.120651
H	 1.8897474367	-0.2830754303	-1.2652027621	 0.100244
H	 1.1315627711	-2.7764197874	-1.6616277147	 0.102856
H	-1.2550641802	-3.1372808861	-0.4934193581	 0.081374
H	-0.5989224786	-0.4076200863	 2.1669212992	 0.115171
H	-3.2063989911	-0.7712821949	 0.0326814048	 0.291994
172.2848	205.0625	222.2254	288.1155	355.9099	368.9144	397.3877	465.4511	543.6261	626.0931	638.5436	669.9386	761.0434	763.0931	817.6923	851.0449	875.4275	924.2303	944.6572	980.3992	1003.7609	1052.7726	1069.2857	1105.1398	1118.2842	1191.684	1201.348	1244.7508	1250.9658	1311.0932	1315.6872	1390.1052	1419.955	1467.365	1486.6214	1505.7888	1623.2889	3031.6642	3093.5565	3103.5659	3127.4694	3191.7656	3193.5259	3228.3177	3787.7852
CC12C=CC3OC1C23O	C[C@@]12C=C[C@H]3O[C@@H]1[C@@]23O	
InChI=1S/C7H8O2/c1-6-3-2-4-7(6,8)5(6)9-4/h2-5,8H,1H3	InChI=1S/C7H8O2/c1-6-3-2-4-7(6,8)5(6)9-4/h2-5,8H,1H3/t4-,5+,6-,7-/m1/s1
