17
gdb 57827	3.6589	0.69123	0.62821	3.1602	82.21	-0.2739	-0.0818	0.1921	1770.0433	0.131774	-421.822208	-421.811731	-421.810787	-421.859445	34.976	
C	 0.0225646079	 1.2757288677	-0.4374936391	-0.396851
C	-0.0096108081	-0.1883781701	 0.0487340183	-0.080472
C	 0.7619650416	-0.3852738219	 1.3544231876	-0.395178
C	-1.4527923806	-0.6554966664	 0.1930279871	 0.216431
O	-1.9662513746	-0.968540103	 1.2442916876	-0.285402
C	-2.2273351968	-0.7154569086	-1.0424155983	 0.046402
C	-2.8775063108	-0.7997062615	-2.0601947826	 0.098334
C	-3.6727683679	-0.8695656502	-3.2631670442	 0.020315
O	-3.6573385291	-1.8027428774	-4.0297903951	-0.215335
H	 1.0565821311	 1.5882527094	-0.6071790689	 0.130156
H	-0.5282210874	 1.4048346039	-1.3732574446	 0.129505
H	-0.4143884323	 1.9424565574	 0.3130591976	 0.132214
H	 0.4335587214	-0.8093220053	-0.7430336461	 0.10794
H	 0.3283689744	 0.2179646366	 2.1566557365	 0.134088
H	 0.737426854	-1.4287263569	 1.6778388595	 0.130865
H	 1.805769384	-0.0865209479	 1.2218866709	 0.113268
H	-4.3116562567	 0.0201568638	-3.4317337864	 0.11372
37.0863	48.8635	86.1326	99.6769	198.5025	212.0664	228.5513	260.3059	296.3569	321.3337	345.692	419.8981	578.859	639.4336	728.5314	752.8275	875.5049	934.3409	968.0777	975.9291	1017.0812	1104.168	1113.6313	1157.1903	1205.2504	1309.2215	1361.7344	1400.5345	1417.1977	1422.1316	1484.1043	1487.1039	1501.6554	1508.86	1764.7609	1772.1651	2291.4675	2931.3654	3011.0233	3041.0474	3049.2557	3113.9279	3120.0502	3122.2438	3126.8755
CC(C)C(=O)C#CC=O	CC(C)C(=O)C#CC=O	
InChI=1S/C7H8O2/c1-6(2)7(9)4-3-5-8/h5-6H,1-2H3	InChI=1S/C7H8O2/c1-6(2)7(9)4-3-5-8/h5-6H,1-2H3
