16
gdb 51957	4.81121	0.80472	0.76704	2.3619	67.58	-0.2653	-0.0357	0.2297	1464.9324	0.122687	-475.028728	-475.019785	-475.018841	-475.063993	30.688	
O	 0.0403465127	 0.9891295501	 1.0129719889	-0.228146
C	 0.3432605926	 1.6361050479	 0.0491949703	 0.154636
C	 1.6456443396	 1.4196163634	-0.7117447585	-0.160669
O	 1.8661194615	 2.4224222321	-1.7082149252	-0.243643
C	 2.1418874561	 3.6522646199	-1.2250265746	 0.465978
O	 2.1858613043	 3.912203333	-0.0443234766	-0.381861
C	 2.3883040251	 4.6296922607	-2.3178398038	-0.134138
C	 1.7498640877	 5.9749811815	-2.1559607365	-0.21824
N	 3.1863036162	 5.8179192551	-1.979190652	-0.301051
H	-0.3196645355	 2.4180249665	-0.3830077537	 0.09343
H	 2.4744019691	 1.3800931593	-0.000341624	 0.161175
H	 1.5894187182	 0.4738837272	-1.2576777153	 0.151057
H	 2.5411468504	 4.2134916411	-3.3067017197	 0.11728
H	 1.4437192375	 6.5109767514	-3.0491843495	 0.133666
H	 1.1283334894	 6.1221465899	-1.2776259197	 0.137618
H	 3.3935429251	 5.7744412408	-0.9815510501	 0.252908
42.9815	61.2653	96.129	149.3515	205.1024	267.0279	325.877	347.9707	391.1341	569.1418	673.1594	735.1059	772.7762	830.4974	877.5304	913.9613	980.8719	1018.6237	1036.0041	1051.28	1111.4967	1121.4112	1138.0692	1179.0121	1219.3444	1279.8947	1287.4648	1315.6729	1350.8856	1407.7392	1415.6602	1451.5642	1498.514	1795.6994	1848.8402	2893.0861	3070.1556	3118.5795	3128.021	3184.7228	3213.2062	3478.5865
O=CCOC(=O)C1CN1	O=CCOC(=O)[C@H]1CN1	
InChI=1S/C5H7NO3/c7-1-2-9-5(8)4-3-6-4/h1,4,6H,2-3H2	InChI=1S/C5H7NO3/c7-1-2-9-5(8)4-3-6-4/h1,4,6H,2-3H2/t4-/m1/s1
