14
gdb 5039	3.54387	2.34565	1.42391	2.2184	66.04	-0.2404	-0.044	0.1963	820.2206	0.10979	-378.791576	-378.784883	-378.783939	-378.822499	24.634	
C	-0.0072279846	 1.4483364498	 0.0038011058	-0.335607
N	-0.0049813787	-0.0111074096	-0.0183139578	-0.116333
C	-0.1443769675	-0.7061500003	-1.1743568985	 0.119688
N	-0.1536903847	-1.9995863915	-1.2818436825	-0.305482
C	-0.0075462853	-2.6903622514	-0.1069802832	 0.012888
C	 0.1400202923	-2.1049455018	 1.1105595641	-0.227951
C	 0.1509141317	-0.6667637299	 1.2380048193	 0.419603
O	 0.2729017754	-0.004623748	 2.2530986182	-0.399337
H	 0.9313485043	 1.8143654314	 0.4253040432	 0.162311
H	-0.132169619	 1.8215760521	-1.0135209013	 0.133011
H	-0.8201133644	 1.808455446	 0.6379266362	 0.162258
H	-0.2564289229	-0.1001427405	-2.070756958	 0.131934
H	-0.0159330427	-3.7726378974	-0.2037878932	 0.121247
H	 0.2534147362	-2.6813930188	 2.0197642277	 0.121771
124.5747	148.6564	231.9251	329.0979	387.7772	462.795	559.5825	568.9691	624.8193	755.0017	779.1966	865.3791	893.2287	960.4962	1016.4773	1022.3731	1083.6822	1155.1569	1178.1563	1220.0339	1238.3684	1375.571	1420.6314	1446.8763	1462.009	1467.6933	1511.7789	1570.8847	1649.5114	1783.5812	3061.5283	3133.7976	3152.2424	3159.8343	3169.3082	3221.3436
CN1C=NC=CC1=O	Cn1cnccc1=O	
InChI=1S/C5H6N2O/c1-7-4-6-3-2-5(7)8/h2-4H,1H3	InChI=1S/C5H6N2O/c1-7-4-6-3-2-5(7)8/h2-4H,1H3
