15
gdb 133085	3.74032	1.12113	0.86734	2.4803	72.04	-0.2364	-0.0265	0.2099	1243.7809	0.113049	-461.956144	-461.948603	-461.947659	-461.988452	28.209	
C	 0.0668853019	 1.3882048209	 0.0064786751	-0.249044
O	-0.0087766994	-0.0288548746	 0.0035056299	-0.264105
C	-1.2352003732	-0.6030011263	 0.0113047198	 0.368993
C	-2.4525726297	 0.089693604	 0.0222650856	-0.121744
N	-3.6366397544	-0.528789211	 0.0296344869	-0.251092
C	-3.6712531012	-1.8572002407	 0.0265133559	-0.113418
C	-2.5013874087	-2.613343139	 0.0157475179	 0.264727
F	-2.5795300253	-3.9457535441	 0.0129431302	-0.074064
C	-1.2651991547	-2.000643779	 0.0079684361	-0.320889
H	 1.129983428	 1.6321035885	-0.0009582538	 0.141496
H	-0.4103414195	 1.818043632	-0.8826439411	 0.132885
H	-0.3968076446	 1.8135725677	 0.9048641737	 0.132885
H	-2.4809698512	 1.1734728302	 0.0252346853	 0.106864
H	-4.6394580539	-2.3488643876	 0.0325777487	 0.119572
H	-0.3467926741	-2.5743580111	-0.0004340601	 0.126934
86.4998	203.8556	231.8515	248.137	272.8275	360.8864	472.1355	489.2962	535.9056	576.2436	635.1389	726.7435	727.3022	886.5199	910.8112	929.9688	966.002	1027.9893	1070.4367	1177.1724	1182.8921	1198.6426	1220.7572	1286.7578	1333.8065	1342.5413	1470.6309	1482.8995	1490.1914	1502.4799	1514.5489	1607.6439	1643.8952	3012.7404	3076.4236	3141.1068	3175.5818	3186.7488	3216.5567
COC1=CN=CC(F)=C1	COc1cncc(F)c1	
InChI=1S/C6H6FNO/c1-9-6-2-5(7)3-8-4-6/h2-4H,1H3	InChI=1S/C6H6FNO/c1-9-6-2-5(7)3-8-4-6/h2-4H,1H3
