19
gdb 100797	3.66407	0.88868	0.78781	0.526	67.8	-0.2642	0.0582	0.3224	1451.1552	0.157534	-497.261879	-497.252249	-497.251304	-497.29675	35.389	
O	 0.003401579	 1.3792813125	-0.2937154685	-0.425496
C	 0.0477976076	-0.0173573469	 0.0031160102	-0.101962
C	-1.3676398603	-0.5968142391	 0.0005870326	 0.095518
O	-2.0333435012	-0.2204915412	-1.1912865324	-0.449123
C	-1.3679295887	-2.1309817436	 0.0762749666	 0.075797
O	-0.6775451515	-2.5783777198	 1.2275326428	-0.443012
C	-2.7898699799	-2.6709242715	 0.0632289319	 0.05582
C	-3.0995573231	-4.0034211021	 0.5848780877	-0.189122
O	-3.3563707083	-2.8293656768	 1.3762031852	-0.257146
H	-0.3196713906	 1.8384581869	 0.4889942019	 0.289413
H	 0.6304025213	-0.4710180699	-0.805847129	 0.116788
H	 0.5527144033	-0.2245074208	 0.9523923702	 0.114711
H	-1.9090709234	-0.2090916235	 0.885054541	 0.057528
H	-1.7194949503	 0.6725017098	-1.389313265	 0.290285
H	-0.8320121212	-2.5126997741	-0.8022978106	 0.099657
H	-1.3401115778	-2.5819620989	 1.9348072904	 0.292492
H	-3.453446607	-2.2145720672	-0.6668882121	 0.126344
H	-3.9890193915	-4.524692853	 0.2372763782	 0.123197
H	-2.2908114264	-4.632072061	 0.9497738791	 0.128313
66.6378	87.8675	129.4338	141.1466	259.7421	274.7026	292.8894	331.7852	349.0884	426.3262	484.1078	531.9557	536.2578	595.6097	672.9937	788.5946	876.5818	892.4682	937.4721	996.1643	1028.8817	1070.4874	1073.1658	1102.0679	1117.9344	1145.8099	1161.8641	1173.4313	1190.3942	1247.3788	1270.9464	1297.73	1330.6861	1347.9736	1376.794	1405.7264	1412.1904	1431.3189	1457.6845	1495.2516	1517.5396	2918.5161	3036.3868	3043.2273	3096.2921	3100.0962	3157.5945	3193.5997	3717.8348	3749.2297	3809.5061
OCC(O)C(O)C1CO1	OC[C@@H](O)[C@@H](O)[C@H]1CO1	
InChI=1S/C5H10O4/c6-1-3(7)5(8)4-2-9-4/h3-8H,1-2H2	InChI=1S/C5H10O4/c6-1-3(7)5(8)4-2-9-4/h3-8H,1-2H2/t3-,4-,5-/m1/s1
