22
gdb 61300	4.41703	0.69351	0.67357	1.3772	89.49	-0.2348	0.0553	0.2901	1745.6184	0.191807	-367.150664	-367.140363	-367.139419	-367.186525	37.838	
C	-0.1623946902	 1.5811630894	 0.0374631265	-0.38502
C	 0.0891101906	 0.0704806307	 0.0550850766	 0.023756
C	 0.7638854308	-0.4161062237	-1.250701448	-0.362663
C	-0.0462543642	-0.200668848	-2.4433558668	 0.300639
C	-0.7317374991	-0.025369054	-3.4154288563	-0.441632
C	 0.9448482584	-0.3507507313	 1.2583664095	-0.146501
N	 0.2861950787	-0.0310118234	 2.5193081627	-0.061889
C	-0.574656311	-1.0675465766	 3.0805115635	-0.220429
C	 0.746591925	-0.7591781422	 3.6941898959	-0.221107
H	 0.7816213191	 2.1290995674	-0.0739502662	 0.105667
H	-0.8124054418	 1.8590097313	-0.7963563122	 0.123952
H	-0.6249907494	 1.900679257	 0.9734366983	 0.132304
H	-0.8771288848	-0.4447310518	 0.1363788732	 0.086499
H	 1.7291800439	 0.0959731213	-1.3693195637	 0.126496
H	 0.9959603036	-1.4859993105	-1.1654988113	 0.123748
H	-1.3283000367	 0.1283646407	-4.2800307897	 0.192367
H	 1.1807579238	-1.4297396161	 1.1856713589	 0.071679
H	 1.9020282473	 0.1877794768	 1.2352908862	 0.100015
H	-1.4949988264	-0.7236696652	 3.5434518699	 0.117972
H	-0.6608082086	-2.0081015149	 2.5375465401	 0.108665
H	 1.5380906956	-1.4956502319	 3.5612099628	 0.107993
H	 0.8106612851	-0.1843495648	 4.6137552401	 0.117488
54.2063	72.2729	106.8932	113.99	192.9755	227.1602	286.8882	345.4208	350.9029	369.0966	417.5629	436.2466	573.7911	613.1721	633.9487	769.6194	829.4812	847.781	891.7025	904.0704	930.4933	936.8488	985.4724	1028.6443	1039.862	1110.8614	1114.7773	1117.8642	1128.3608	1146.3711	1175.017	1197.3926	1241.3024	1283.9345	1300.5538	1324.1338	1356.0575	1378.4978	1394.1966	1413.5418	1468.7168	1485.491	1493.1191	1499.3307	1501.5623	1522.4653	2236.6529	2916.3001	3006.459	3016.6321	3028.4627	3034.2578	3046.3656	3090.3715	3095.0014	3103.6398	3135.9528	3175.0132	3189.3187	3506.9339
CC(CC#C)CN1CC1	C[C@@H](CC#C)CN1CC1	
InChI=1S/C8H13N/c1-3-4-8(2)7-9-5-6-9/h1,8H,4-7H2,2H3	InChI=1S/C8H13N/c1-3-4-8(2)7-9-5-6-9/h1,8H,4-7H2,2H3/t8-/m0/s1
