18
gdb 41497	3.43378	1.70393	1.43843	3.726	75.08	-0.2382	0.0123	0.2505	936.7837	0.151408	-401.913026	-401.906678	-401.905734	-401.943428	26.794	
C	 0.0851642581	 1.5280271768	-0.1690720055	-0.150524
O	 1.5303490758	 1.3631319127	 0.0920972362	-0.270386
C	 1.2527139182	 0.1354144046	 0.6526783002	 0.399907
N	 1.7715606156	-0.4485700417	 1.6375171321	-0.286978
C	 0.7664446115	-1.3690623718	 2.2339123571	 0.01743
C	-0.4965268785	-0.5028607439	 2.5622646446	-0.228234
C	-0.960933347	-0.7822470876	 1.096087984	-0.072386
C	-0.1436491526	-2.1174887379	 1.2133008701	-0.221457
C	-0.1281601247	 0.0076542766	 0.0794672024	-0.111151
H	-0.3504679643	 2.1955932467	 0.5796730184	 0.127642
H	-0.0957449936	 1.8985320816	-1.1793516267	 0.12474
H	 1.2362400683	-1.9493467603	 3.0265779405	 0.077464
H	-1.1620301027	-1.0013409803	 3.2716180044	 0.103716
H	-0.3171440182	 0.5263777207	 2.8827102785	 0.104506
H	-2.0301924588	-0.8239888891	 0.8818092078	 0.069735
H	 0.3221311558	-2.5167611439	 0.308205793	 0.100227
H	-0.7198842859	-2.903553031	 1.7070917265	 0.103777
H	-0.1370808969	-0.5029318721	-0.8881001134	 0.11197
201.711	222.7015	387.8814	413.3068	422.2339	490.5136	540.3327	638.3011	722.8995	785.8666	799.7833	859.7654	876.846	884.5413	904.8661	934.5132	957.0491	979.9037	1013.8362	1048.4897	1083.5497	1089.6908	1111.556	1137.3914	1150.0846	1156.3273	1201.2217	1232.606	1238.5602	1252.195	1261.7518	1317.9629	1334.9787	1344.4711	1379.577	1473.2131	1501.2391	1508.6245	1781.4895	3054.7384	3059.2844	3061.2684	3064.6678	3091.9145	3114.5338	3116.9976	3122.388	3132.65
C1OC2=NC3CC(C3)C12	C1O[C]2[N][C@H]3C[C@H](C3)[C@@H]12	
InChI=1S/C7H9NO/c1-4-2-5(1)8-7-6(4)3-9-7/h4-6H,1-3H2	InChI=1S/C7H9NO/c1-4-2-5(1)8-7-6(4)3-9-7/h4-6H,1-3H2/t4-,5+,6-/m1/s1
