17
gdb 97306	3.03372	1.37504	1.04607	3.1038	68.74	-0.2531	0.0014	0.2545	1141.9927	0.137094	-455.150049	-455.142021	-455.141077	-455.182866	29.99	
C	-0.5368647795	 0.8778365415	 0.8060721728	-0.323792
N	-0.3098013502	-0.3638721425	 0.0709483727	-0.268494
H	 0.5243614844	-0.842437456	 0.3886354197	 0.229261
C	-1.407209408	-1.2361385778	-0.0121552843	 0.159271
N	-1.1633031709	-2.3928546303	-0.8704220684	-0.108234
C	-0.2203920704	-3.364464303	-0.3111648063	-0.252873
C	-1.6911869477	-3.5507352067	-0.1400430573	-0.176697
C	-2.1901291482	-3.0697915425	 1.1950447456	 0.440583
O	-1.8432554866	-1.763290829	 1.3120131488	-0.263734
O	-2.7765997655	-3.6884880095	 2.035123314	-0.34547
H	 0.3533001685	 1.5064751109	 0.7251565535	 0.128949
H	-1.3702506465	 1.4193843559	 0.3469950363	 0.134077
H	-0.7701982037	 0.7276167723	 1.8690573537	 0.130946
H	-2.2752392775	-0.6913750341	-0.396568323	 0.114446
H	 0.3049474816	-3.9531134605	-1.0553491849	 0.139029
H	 0.3588266456	-3.1107561297	 0.5730038452	 0.132808
H	-2.2474119754	-4.314736559	-0.6687397482	 0.129924
103.3856	124.9866	162.7269	202.3627	251.4756	353.638	402.8984	507.0621	518.6103	608.8222	665.1938	750.9389	771.4559	797.7745	848.1808	880.5137	904.3814	1006.1377	1022.7376	1044.1671	1087.4498	1115.6149	1151.3163	1155.5795	1171.118	1206.6431	1263.4693	1275.1699	1341.2486	1359.6729	1386.7081	1462.2379	1488.7476	1499.4538	1508.2917	1529.6796	1882.5904	3009.2863	3067.9882	3081.6369	3116.9588	3119.104	3198.6859	3213.0862	3558.0035
C[NH+]=CN1CC1C([O-])=O	CN[C@H]1N2C[C@H]2C(=O)O1	
InChI=1S/C5H8N2O2/c1-6-3-7-2-4(7)5(8)9/h3-4H,2H2,1H3,(H,8,9)	InChI=1S/C5H8N2O2/c1-6-5-7-2-3(7)4(8)9-5/h3,5-6H,2H2,1H3/t3-,5-,7?/m0/s1
