20
gdb 83687	2.59202	1.50192	1.237	1.9126	77.81	-0.2191	-0.029	0.19	1091.3323	0.170623	-403.106358	-403.097835	-403.096891	-403.139731	32.202	
C	 0.228870742	 1.5886563378	 0.1131487954	-0.407329
C	 0.1199678001	 0.067882498	 0.0991423532	-0.033546
C	 0.6161405854	-0.7160671351	-1.1560786726	 0.02991
C	 1.6828530178	-0.0756568301	-2.0641582125	-0.243543
C	 2.733543532	-0.6163326801	-1.062362128	-0.182081
N	 1.6879814828	-1.433971303	-0.3472312117	-0.154379
C	 1.1621752167	-0.7851726129	 0.8950562644	-0.063316
C	 2.1721721201	-0.1683621014	 1.8268707249	 0.133626
O	 1.9743229318	 0.7969236785	 2.5217826203	-0.251212
H	 1.2362426506	 1.9415067118	-0.1246406662	 0.118626
H	-0.4612080441	 2.022835183	-0.6186682079	 0.112141
H	-0.0213423024	 1.9817821975	 1.1009152195	 0.141031
H	-0.9038968815	-0.2110312959	 0.3630182609	 0.081484
H	-0.1396191335	-1.3423345918	-1.6382482773	 0.075905
H	 1.7379520654	-0.5498861419	-3.0463547735	 0.111399
H	 1.6375305627	 1.0060272932	-2.2036733842	 0.109685
H	 3.5269714208	-1.2399128483	-1.4829072698	 0.111971
H	 3.2050870876	 0.1570749763	-0.4439060985	 0.106347
H	 0.6620139164	-1.553905588	 1.5051506811	 0.112597
H	 3.1411107293	-0.7194336878	 1.8652617225	 0.090685
64.7471	112.7131	173.6321	214.9748	247.6364	272.4812	329.6043	442.5486	462.1804	604.9271	675.5156	720.4549	755.9175	786.4952	828.6558	889.8277	913.4742	954.76	962.6988	1001.4083	1023.8444	1035.3173	1079.705	1110.6357	1128.095	1163.4087	1188.6187	1209.0386	1231.2267	1239.5382	1258.4643	1281.9989	1305.6589	1326.8989	1350.2511	1371.6024	1411.5033	1418.2639	1478.7368	1489.6111	1501.7614	1511.6591	1820.2479	2858.0435	2981.1553	3025.4778	3039.948	3052.9452	3066.3271	3075.4074	3083.3662	3107.4112	3124.3432	3129.5752
CC1C2CCN2C1C=O	C[C@H]1[C@H]2CCN2[C@H]1C=O	
InChI=1S/C7H11NO/c1-5-6-2-3-8(6)7(5)4-9/h4-7H,2-3H2,1H3	InChI=1S/C7H11NO/c1-5-6-2-3-8(6)7(5)4-9/h4-7H,2-3H2,1H3/t5-,6+,7-/m0/s1
