23
gdb 112939	4.00937	0.81369	0.75598	2.4968	86.83	-0.2388	-0.0079	0.2309	1629.6197	0.203987	-388.312525	-388.302196	-388.301252	-388.348731	37.438	
C	 0.2792231815	 1.4582379158	-0.1221441957	-0.378311
C	 0.1338934904	-0.0591381129	 0.0312581163	-0.198024
C	-1.3170650315	-0.5171618943	 0.0866252755	 0.080972
C	-2.1913718353	-0.4048861432	-1.1964891031	-0.246145
C	-2.7719422952	-1.8134649058	-0.9122629855	-0.104647
C	-1.6041689155	-2.0440880434	 0.1144113843	-0.265137
C	-4.1192043719	-1.812022481	-0.2142296399	 0.382384
C	-4.8226268102	-3.1558538493	-0.1294267148	-0.478963
O	-4.5967110534	-0.809919411	 0.270860497	-0.306433
H	 1.3312122535	 1.7556745019	-0.172568696	 0.110376
H	-0.2111642855	 1.8122095265	-1.0354633297	 0.119717
H	-0.1773476538	 1.9862138027	 0.7223146882	 0.11695
H	 0.6378396486	-0.5636828444	-0.805105314	 0.086781
H	 0.6518207658	-0.3891031015	 0.9420889343	 0.09333
H	-1.830969963	-0.0264292155	 0.9199184292	 0.085899
H	-2.9213922783	 0.404912455	-1.2287734312	 0.117576
H	-1.5866308925	-0.3931666812	-2.1085150789	 0.09034
H	-2.7901945253	-2.522268604	-1.7450888196	 0.073695
H	-0.7934817142	-2.6263384454	-0.3337277635	 0.100916
H	-1.8638777832	-2.4938794541	 1.0770070631	 0.10157
H	-4.1350395417	-3.9381003005	 0.2097765866	 0.136209
H	-5.6797887069	-3.0911125409	 0.5418138638	 0.139789
H	-5.1673818922	-3.4495784035	-1.1282015465	 0.141157
50.6646	53.2939	116.6631	135.4983	148.4135	208.5355	242.3623	257.105	349.7179	408.987	423.462	556.7052	591.433	677.6265	738.7307	787.3878	819.2885	859.7289	923.3554	934.7584	953.1584	969.1871	991.4853	1017.1059	1025.9394	1088.199	1096.043	1136.687	1153.3279	1184.696	1206.4108	1226.526	1258.0726	1275.4439	1281.9282	1308.2139	1339.4479	1366.8828	1383.1355	1392.1358	1414.3086	1462.761	1463.5345	1476.4974	1484.0095	1491.1754	1499.8626	1507.2432	1802.4756	3004.776	3031.384	3033.2317	3034.1218	3046.0582	3050.0892	3058.0138	3066.4906	3094.8052	3097.8871	3101.3744	3102.8663	3128.5285	3150.9084
CCC1CC(C1)C(C)=O	CC[C@H]1C[C@@H](C1)C(=O)C	
InChI=1S/C8H14O/c1-3-7-4-8(5-7)6(2)9/h7-8H,3-5H2,1-2H3	InChI=1S/C8H14O/c1-3-7-4-8(5-7)6(2)9/h7-8H,3-5H2,1-2H3/t7-,8-
