19
gdb 37658	2.73417	2.57314	2.19309	0.0004	78.62	-0.2457	0.0839	0.3296	777.016	0.165118	-348.754576	-348.749459	-348.748514	-348.783594	24.496	
C	-0.0247236195	 1.5571732021	 0.0089881103	-0.194272
C	 1.5151141359	 1.7493511544	-0.0035597729	-0.067171
C	 1.9476330926	 0.8972145385	 1.2148915993	-0.066282
C	 2.3903400175	-0.4664019687	 0.7347885283	-0.07615
C	 2.3771081628	-0.4591305514	-0.7783474811	-0.07615
C	 1.9261734122	 0.9089924773	-1.2375195194	-0.066283
C	 0.9502155962	-0.2547317751	-1.2345673425	-0.066282
C	 0.0541883548	 0.0073678345	 0.0008565641	-0.067171
C	 0.971665266	-0.2665013689	 1.2178449433	-0.066283
H	-0.5017574265	 1.9595239697	 0.9093798113	 0.085982
H	-0.5174053206	 1.96811072	-0.8790138339	 0.085982
H	 1.8826199222	 2.7754077098	-0.0018482098	 0.056467
H	 2.3229970111	 1.3511685422	 2.1242915423	 0.076558
H	 3.105122516	-1.0644623546	 1.2872532199	 0.077458
H	 3.0820689423	-1.0517951746	-1.348949347	 0.077458
H	 2.2856003279	 1.3716902896	-2.1489489881	 0.076558
H	 0.5549170311	-0.6919660826	-2.1437129568	 0.076558
H	-0.892173859	-0.5332075854	 0.0065392196	 0.056467
H	 0.5922933971	-0.7124690869	 2.1295304131	 0.076558
440.3542	523.2256	602.0844	623.8473	651.794	733.2255	767.7816	778.468	779.5408	796.0144	796.8911	822.246	895.8943	902.7163	907.1572	917.4173	952.914	961.6303	969.7685	995.6769	1000.9011	1005.2268	1037.9185	1058.207	1079.7773	1084.1624	1088.2387	1095.2312	1128.4581	1174.1555	1236.3223	1256.6467	1261.6466	1263.4338	1264.6619	1281.7676	1330.1179	1335.2576	1358.3323	1392.6556	1492.3708	3036.4594	3089.2976	3114.1794	3116.9873	3172.3714	3172.699	3173.8335	3178.932	3184.7115	3194.8512
C1C2C3C4C5C2C5C1C34	C1[C@H]2[C@@H]3[C@@H]4[C@@H]5[C@H]2[C@@H]5[C@H]1[C@H]34	
InChI=1S/C9H10/c1-2-4-6-3(1)7-5(2)9(7)8(4)6/h2-9H,1H2	InChI=1S/C9H10/c1-2-4-6-3(1)7-5(2)9(7)8(4)6/h2-9H,1H2/t2-,3+,4-,5+,6+,7-,8-,9+
