16
gdb 47856	2.58548	1.77337	1.18295	3.3724	68.39	-0.2314	-0.0051	0.2263	1015.8137	0.126344	-475.050802	-475.043203	-475.042259	-475.083171	28.547	
O	 0.0670976723	 0.0371029925	-0.2831330978	-0.373895
C	 0.0101295898	 1.2104944836	-0.0221650221	 0.464064
N	-1.1458111342	 1.8685618362	 0.2989504892	-0.357096
C	-1.3817701083	 3.2417774064	 0.4684782343	 0.008078
C	-0.7842180856	 4.2971066013	-0.089553553	-0.063314
C	 0.2925834813	 4.4275077633	-1.1334424428	-0.14242
O	 0.6303143062	 3.2522946993	-1.8578278882	-0.222638
C	 1.5768101074	 2.4538310447	-1.2236904703	-0.027039
O	 1.1113831511	 2.0312597281	 0.0470354809	-0.237867
H	-1.9362457952	 1.2506202623	 0.4060295959	 0.264586
H	-2.1956914416	 3.4261931325	 1.1636430894	 0.111982
H	-1.1491246688	 5.2629488957	 0.2532929354	 0.097906
H	-0.0545613653	 5.1455520554	-1.8862546137	 0.125855
H	 1.1993242113	 4.8630589845	-0.6795659005	 0.109888
H	 1.7555796624	 1.596398197	-1.8795243306	 0.132973
H	 2.5079350374	 2.9962312971	-1.0157428261	 0.108936
86.3633	129.6542	216.0831	219.8231	354.3477	399.8714	427.2036	530.8878	590.7324	624.7163	651.7079	740.2621	794.3548	828.6093	846.0508	885.6598	966.2469	992.7966	1013.2684	1042.635	1108.7501	1148.2077	1184.0207	1265.6891	1291.9775	1326.5349	1341.8911	1408.8009	1438.9204	1452.5677	1476.9666	1494.9535	1515.0843	1748.2362	1840.7941	2958.9964	3024.344	3047.5356	3098.7382	3147.9364	3172.8333	3623.662
O=C1NC=CCOCO1	O=C1NC=CCOCO1	
InChI=1S/C5H7NO3/c7-5-6-2-1-3-8-4-9-5/h1-2H,3-4H2,(H,6,7)/b2-1-	InChI=1S/C5H7NO3/c7-5-6-2-1-3-8-4-9-5/h1-2H,3-4H2,(H,6,7)/b2-1-
