17
gdb 76009	2.53605	1.22419	1.06898	4.3948	81.35	-0.2437	0.0052	0.2489	1192.95	0.133709	-380.832234	-380.822314	-380.82137	-380.866998	35.74	
C	-0.1338048623	 1.5544042272	 0.0228692267	-0.430833
C	 0.0152419599	 0.0502033438	 0.056472958	-0.046372
C	 1.339424714	-0.6475892761	-0.2407352389	-0.296714
C	 2.5401763518	 0.1020983511	-0.4308101373	 0.321101
C	 3.5556763172	 0.7359375489	-0.559725034	-0.429292
C	 0.7163271626	-0.65307377	 1.1958537612	 0.12423
N	 1.2676567393	 0.1002996236	 2.2869257215	-0.555189
C	 0.1727339507	-1.9267049857	 1.6094110413	 0.287829
N	-0.2458231787	-2.9601722602	 1.9167534573	-0.342125
H	 0.8091798802	 2.0707507195	 0.2175380187	 0.132716
H	-0.4713225861	 1.8694636793	-0.9691037771	 0.136478
H	-0.8737012372	 1.8884823137	 0.7561583932	 0.141033
H	-0.8471313036	-0.4876291638	-0.3248584809	 0.121344
H	 1.2763880584	-1.5815280512	-0.7902076262	 0.135617
H	 4.4550521792	 1.2839264859	-0.6971340493	 0.204934
H	 2.0596665443	-0.3952176587	 2.6870023169	 0.249136
H	 1.6186945902	 0.9922477526	 1.9572658288	 0.246107
76.5958	111.5015	127.7838	159.9839	162.0191	181.7814	263.8923	335.8394	363.1358	446.4421	486.275	572.7182	583.2015	598.4684	609.8078	665.6919	692.664	771.893	831.2538	881.2016	962.422	1006.7866	1018.011	1044.4707	1128.106	1147.542	1186.7167	1304.7185	1318.1576	1355.1929	1416.8238	1435.1554	1492.6819	1503.7085	1662.0497	2228.8671	2353.3402	3047.1442	3112.6192	3124.376	3156.2408	3165.6567	3501.0484	3503.7585	3593.8342
CC1C(C#C)C1(N)C#N	C[C@H]1[C@@H](C#C)[C@]1(N)C#N	
InChI=1S/C7H8N2/c1-3-6-5(2)7(6,9)4-8/h1,5-6H,9H2,2H3	InChI=1S/C7H8N2/c1-3-6-5(2)7(6,9)4-8/h1,5-6H,9H2,2H3/t5-,6+,7-/m0/s1
