17
gdb 124763	4.30348	0.93832	0.91284	2.357	71.93	-0.2327	-0.0008	0.2319	1331.3535	0.135777	-455.14155	-455.132608	-455.131664	-455.175531	33.122	
C	 0.0007520097	 1.5697724453	 0.2210410643	-0.401846
C	-0.0126756186	 0.0519868951	 0.0038641054	 0.013242
O	 0.6927269839	-0.633389048	 1.0331166463	-0.425118
C	-1.4101798517	-0.4817474705	-0.1268530903	 0.483155
C	-2.0990604248	-1.0950725352	-1.1210381714	-0.445829
C	-3.3828060438	-1.3394988078	-0.5408551835	 0.427932
N	-4.4888215912	-1.8842944436	-1.1684969264	-0.588401
N	-3.4478414608	-0.9185365913	 0.704469016	-0.230224
O	-2.1874403734	-0.353243588	 0.9627913358	-0.244435
H	 1.0324540649	 1.9107815186	 0.3375133493	 0.127041
H	-0.4535751281	 2.0919520182	-0.6267248896	 0.123702
H	-0.5626622322	 1.832699357	 1.1216401315	 0.131577
H	 0.5211563273	-0.1898658641	-0.9205077924	 0.104424
H	 0.1749369207	-0.5486243275	 1.8421584986	 0.291963
H	-1.7593701882	-1.3347178331	-2.1150122086	 0.11598
H	-4.2748191825	-2.630055027	-1.8146652539	 0.255768
H	-5.2189227011	-2.1477601381	-0.5200457812	 0.261068
44.555	116.3425	174.0592	248.1848	270.6382	293.4947	317.2908	339.047	405.4383	439.265	509.6152	636.498	649.6797	717.6948	742.2637	756.3711	803.6757	896.4706	945.4742	993.6962	1014.633	1037.068	1084.9663	1103.4162	1139.982	1171.4683	1267.9669	1321.5039	1353.2567	1401.4768	1422.539	1488.8454	1491.1415	1499.9282	1546.1188	1641.046	1670.6665	3041.5058	3068.6172	3116.3383	3128.689	3271.5792	3557.5045	3658.073	3801.0999
CC(O)C1=CC(N)=NO1	C[C@@H](O)c1cc(N)no1	
InChI=1S/C5H8N2O2/c1-3(8)4-2-5(6)7-9-4/h2-3,8H,1H3,(H2,6,7)	InChI=1S/C5H8N2O2/c1-3(8)4-2-5(6)7-9-4/h2-3,8H,1H3,(H2,6,7)/t3-/m1/s1
