15
gdb 69183	2.20631	1.98699	1.27553	2.7917	67.44	-0.2439	-0.0275	0.2165	975.1186	0.11104	-457.716049	-457.708316	-457.707372	-457.748185	29.524	
O	-0.0455503668	 1.3594674119	-0.0592634378	-0.438043
C	-0.0025526837	 0.0008029989	 0.0094211525	 0.379423
C	-0.8438980184	-0.7939965271	 0.9143443909	-0.336315
C	 0.6729217619	-0.9845623972	 1.0685970177	-0.302016
C	 1.2216862263	-1.775391495	-0.0757862098	 0.391681
O	 2.0277215191	-2.655751802	-0.1824323258	-0.315932
C	 0.5606021294	-0.8446105494	-1.1134945236	 0.20153
C	 0.2283847868	-0.9275324968	-2.5332824985	-0.266646
O	 1.3738652054	-0.1810902424	-2.0768940872	-0.281323
H	 0.6581065516	 1.6273592933	-0.6679403916	 0.305214
H	-1.2734626742	-0.227893293	 1.7359246906	 0.142125
H	-1.4745092901	-1.6025340062	 0.5534278317	 0.128028
H	 1.1604442383	-0.8067344814	 2.0182941512	 0.123879
H	 0.4668178498	-1.8341611656	-3.0856305243	 0.140194
H	-0.5889010354	-0.3272795381	-2.9294075359	 0.1282
105.7159	171.5716	197.5157	243.4603	303.6658	362.7256	452.7335	506.2673	512.4993	609.3735	640.4469	694.6579	734.2806	781.913	842.7805	906.507	928.0554	968.7594	985.3705	1035.0686	1056.8887	1115.5127	1120.0032	1152.7111	1167.1815	1194.005	1238.3095	1356.3041	1441.0876	1456.7791	1511.9481	1524.544	1880.1526	3092.2949	3109.8905	3186.4045	3197.521	3210.5776	3745.2271
OC12CC1C(=O)C21CO1	O[C@]12C[C@H]1C(=O)[C@]12CO1	
InChI=1S/C6H6O3/c7-4-3-1-5(3,8)6(4)2-9-6/h3,8H,1-2H2	InChI=1S/C6H6O3/c7-4-3-1-5(3,8)6(4)2-9-6/h3,8H,1-2H2/t3-,5+,6-/m0/s1
