14
gdb 127904	3.97316	1.20579	0.93035	1.5319	75.35	-0.2555	-0.098	0.1575	1189.2612	0.09967	-466.142189	-466.133844	-466.132899	-466.175862	29.692	
C	-0.280972872	 1.4481027215	-0.0851670102	-0.334501
N	 0.0865319954	 0.0557049815	 0.0594940441	-0.304695
C	 0.7172776475	-0.5628203786	-0.8438330768	 0.507435
N	 1.0666886323	-1.8860539897	-0.7063491776	-0.398159
C	 1.751726425	-2.6321324618	-1.6404524008	 0.497231
N	 2.0326355625	-3.8456792811	-1.4345538082	-0.557735
O	 2.0912084216	-1.95957486	-2.7792748508	-0.286631
N	 1.7287968818	-0.5282121741	-2.9600755784	 0.05008
N	 1.1221112204	 0.0449034615	-2.0770640603	-0.121338
H	 0.153752477	 2.012012539	 0.7477914746	 0.139917
H	 0.0310064271	 1.9050620645	-1.02947147	 0.141185
H	-1.3689667949	 1.5337987133	 0.0133583458	 0.139909
H	 0.803229975	-2.3595168759	 0.1457205434	 0.28659
H	 2.5380610414	-4.24180054	-2.2235770048	 0.240712
55.1774	91.1919	147.0117	226.5683	229.8414	342.2957	375.2718	438.6847	504.6517	598.2149	623.8738	658.6777	700.8444	749.2528	752.3231	798.2682	918.3514	967.6895	1044.3148	1111.3174	1132.4737	1161.6376	1295.5114	1378.914	1426.1289	1440.8865	1487.8971	1496.8778	1672.0545	1770.5838	1778.3829	3024.1231	3081.7312	3104.1104	3537.7958	3627.1078
CN=C1NC(=N)ON=N1	C[N]C1=N[N]O[C@H](N1)[NH]	
InChI=1S/C3H5N5O/c1-5-3-6-2(4)9-8-7-3/h1H3,(H2,4,5,6)	InChI=1S/C3H6N5O/c1-5-3-6-2(4)9-8-7-3/h2,4H,1H3,(H,5,6)/t2-/m0/s1
