22
gdb 101195	3.27343	1.00575	0.94303	1.5605	81.75	-0.2307	0.0717	0.3025	1381.6486	0.193966	-404.298261	-404.288737	-404.287793	-404.332855	35.696	
C	 1.7139047314	 1.823686319	 0.6554341736	-0.388231
C	 1.8200351601	 0.3051011659	 0.5054895346	-0.181823
C	 0.7026792958	-0.4473667616	 1.2429276593	 0.110145
O	-0.5917140528	-0.0445061816	 0.7889798211	-0.433981
C	 0.8885117833	-1.9472729611	 1.1057305045	-0.031171
C	 1.3720362672	-2.8732986384	 2.1533508486	-0.041283
C	 0.9120535562	-2.4802677319	 3.5560627377	-0.255427
C	-0.5262355123	-2.4688555501	 2.979600116	-0.157077
N	-0.0569193494	-2.9574658518	 1.6288440873	-0.163678
H	 1.830370951	 2.1258893937	 1.7022855697	 0.112059
H	 2.4861510982	 2.3346589511	 0.0728531241	 0.108898
H	 0.7352454718	 2.1716067604	 0.3153621163	 0.133287
H	 1.7816656906	 0.0301356047	-0.5579434005	 0.088519
H	 2.7878260778	-0.0512141634	 0.8818007138	 0.098551
H	 0.7269325091	-0.1486481545	 2.2962317928	 0.084867
H	-0.7915353792	-0.5424264554	-0.0112521379	 0.285259
H	 1.1916787416	-2.2361709414	 0.0978538529	 0.087857
H	 2.1050852822	-3.6446958469	 1.935338351	 0.091613
H	 1.063137763	-3.2815563639	 4.2815970927	 0.111561
H	 1.3178945036	-1.5543896172	 3.9749366943	 0.104826
H	-1.1791999351	-3.2212192887	 3.4251453087	 0.107573
H	-1.0566791839	-1.5151888268	 2.9368764593	 0.127655
59.7046	98.0663	140.2979	186.6234	207.3422	238.396	266.0456	310.1469	391.8228	435.8356	514.8386	581.6618	756.9097	775.4054	778.4495	790.6121	802.7657	896.7056	936.6131	967.8934	983.1317	998.4961	1012.5096	1049.9342	1069.2237	1079.4498	1118.7649	1127.0424	1151.5608	1177.8891	1220.3157	1246.796	1261.3048	1271.0657	1290.6925	1294.8473	1332.1852	1363.047	1388.9553	1404.8255	1420.275	1452.5003	1478.7708	1493.4524	1496.3866	1510.0314	1517.1253	3008.905	3036.5785	3044.734	3053.2456	3061.3899	3074.2216	3092.8057	3101.6005	3108.9793	3124.5903	3130.6361	3150.3107	3806.3274
CCC(O)C1C2CCN12	CC[C@@H](O)[C@H]1[C@H]2CCN12	
InChI=1S/C7H13NO/c1-2-6(9)7-5-3-4-8(5)7/h5-7,9H,2-4H2,1H3	InChI=1S/C7H13NO/c1-2-6(9)7-5-3-4-8(5)7/h5-7,9H,2-4H2,1H3/t5-,6-,7-,8?/m1/s1
