19
gdb 101287	2.51875	1.10486	0.9641	1.5374	78.33	-0.2542	0.0192	0.2734	1323.6458	0.155301	-422.952122	-422.941963	-422.941019	-422.988181	36.198	
C	-1.5149827711	 1.9261427363	-0.445339044	-0.231528
O	-1.3704125454	 0.9011871511	 0.5113631927	-0.249884
C	-1.3180596374	-0.411398721	-0.0298664951	 0.089225
C	 0.0066010828	-0.7396752819	-0.7166574522	-0.423448
C	-1.7023395546	-1.3159858329	 1.1313608872	 0.058559
O	-1.3001579078	-2.6790853857	 1.1065863416	-0.24765
C	-0.8070754075	-1.8527459997	 2.1803184308	-0.142149
C	 0.6078599661	-1.6260129958	 2.2908357782	 0.334325
C	 1.7821711037	-1.4646707027	 2.4918146165	-0.412606
H	-1.6475762299	 2.8609518045	 0.1048932522	 0.128817
H	-0.6330516659	 2.0253895972	-1.0937680873	 0.110878
H	-2.3970821203	 1.7628447029	-1.0847400465	 0.103283
H	-2.1272836344	-0.5199368262	-0.7747534521	 0.070935
H	 0.0981267605	-0.1843652708	-1.6541538644	 0.109786
H	 0.8503193195	-0.4873077318	-0.0732372079	 0.142919
H	 0.0507941615	-1.8071455333	-0.9456626057	 0.137334
H	-2.7350949414	-1.1601376586	 1.4500699445	 0.099456
H	-1.2821481956	-2.0720413468	 3.137531516	 0.119068
H	 2.8222635573	-1.311579585	 2.6433037854	 0.20268
26.0077	76.6973	136.5278	169.2841	191.9058	218.8685	241.9873	263.8891	327.6759	406.2902	462.1255	483.9625	550.8563	620.907	672.6546	689.2571	760.8503	835.7862	857.623	939.3417	1004.066	1062.08	1078.4764	1093.5189	1148.6342	1156.8264	1175.2006	1182.4238	1223.7054	1300.8207	1368.3419	1386.9122	1392.5017	1406.0916	1463.4544	1476.2096	1483.6977	1498.3886	1499.0702	1513.3378	2238.1892	2935.784	2977.0948	3030.4391	3057.2123	3087.1116	3101.6661	3113.0321	3125.3083	3155.5991	3501.7366
COC(C)C1OC1C#C	CO[C@@H](C)[C@H]1O[C@H]1C#C	
InChI=1S/C7H10O2/c1-4-6-7(9-6)5(2)8-3/h1,5-7H,2-3H3	InChI=1S/C7H10O2/c1-4-6-7(9-6)5(2)8-3/h1,5-7H,2-3H3/t5-,6-,7+/m0/s1
