17
gdb 34977	4.16882	1.37873	1.31343	3.2208	75.53	-0.2505	0.0198	0.2702	988.443	0.139643	-380.831149	-380.824686	-380.823742	-380.861997	26.363	
N	-0.1844963964	-1.2380142197	-0.1749279534	-0.338361
C	-0.1076525149	-0.0873022247	-0.0899613206	 0.267407
C	 0.0012136997	 1.3549526782	 0.0235487358	-0.141974
C	-0.0901418045	 2.0553236746	 1.4114833697	-0.015284
C	 0.9720615843	 1.3038898747	 2.2409961292	-0.242266
C	 2.1475668703	 1.8037594743	 1.3760572389	-0.058216
C	 1.989358178	 3.322845482	 1.5813765074	-0.166947
N	 0.7159743329	 3.22119709	 0.7866685279	-0.158068
C	 1.3646285241	 2.063874652	 0.0268487554	-0.012807
H	-0.6530595971	 1.8484736066	-0.6989506937	 0.138986
H	-1.0519153823	 2.3042853813	 1.8545193622	 0.092834
H	 1.0418257669	 1.6412261964	 3.2777875387	 0.106543
H	 0.8237893007	 0.2221538667	 2.2332446976	 0.132551
H	 3.1008391186	 1.278862329	 1.4280411762	 0.078766
H	 1.8983927918	 3.7101629389	 2.6008226596	 0.106039
H	 2.6948314144	 3.934769388	 1.0126034523	 0.115191
H	 1.9217200535	 2.2840580418	-0.8831711132	 0.095606
129.1771	156.7024	377.3091	399.7316	483.7332	514.9408	564.5128	711.5045	725.5629	746.9191	821.5968	844.9994	878.8037	906.0169	936.7402	962.506	970.2134	982.0284	1001.6129	1016.9344	1059.3648	1087.0562	1110.1634	1140.5371	1160.2326	1183.9579	1192.7435	1244.8321	1245.8123	1264.662	1278.1548	1303.3743	1329.1862	1346.5634	1498.5507	1520.353	2353.9502	3050.4268	3072.9362	3095.0913	3109.1916	3118.8875	3123.2918	3130.0223	3145.5215
N#CC1C2CC3CN2C13	N#C[C@H]1[C@H]2C[C@@H]3CN2[C@H]13	
InChI=1S/C7H8N2/c8-2-5-6-1-4-3-9(6)7(4)5/h4-7H,1,3H2	InChI=1S/C7H8N2/c8-2-5-6-1-4-3-9(6)7(4)5/h4-7H,1,3H2/t4-,5+,6-,7+/m1/s1
