15
gdb 45498	3.17542	1.77686	1.55095	4.5516	62.88	-0.2671	-0.0009	0.2662	868.4144	0.115707	-457.799285	-457.79317	-457.792226	-457.829896	24.506	
O	-0.033392342	 0.0212781542	-0.4314034827	-0.340219
C	 0.0032406612	 1.165777288	-0.088281128	 0.444673
O	-1.1243321262	 1.8913300932	 0.1854043837	-0.234335
C	-0.7862528208	 3.217247644	 0.6451055292	 0.168782
O	-0.8264245595	 3.25182392	 2.0367915703	-0.231851
C	 0.3880292793	 2.6521287317	 2.5163284373	-0.114725
C	 1.3963015312	 2.8128990284	 1.3815765824	-0.085191
C	 0.6810837828	 3.4545164485	 0.2378457418	-0.106819
C	 1.2002079001	 2.0580148259	 0.0624057217	-0.216202
H	-1.5347978244	 3.9016262997	 0.2506825259	 0.113865
H	 0.7001008364	 3.1963180604	 3.4118733117	 0.122642
H	 0.210275903	 1.6046531411	 2.7876609574	 0.127896
H	 2.417499198	 3.0784225302	 1.6255078549	 0.114667
H	 0.9997746974	 4.3267143184	-0.3153944259	 0.113061
H	 2.0764366636	 1.8078966164	-0.5202820596	 0.123758
132.998	182.6812	367.3205	443.8439	514.6894	622.2364	663.6426	710.669	741.0115	796.2533	820.9533	841.1144	886.8207	931.1629	943.6252	960.3529	975.7247	1024.2339	1037.3622	1049.9264	1093.3405	1116.9204	1131.0243	1195.8387	1227.9419	1288.2253	1314.6033	1326.3013	1358.6545	1374.7513	1409.5366	1520.6633	1885.3245	3034.8817	3092.5606	3149.3494	3193.0029	3210.5409	3219.3625
O=C1OC2OCC3C2C13	O=C1O[C@H]2OC[C@@H]3[C@H]2[C@H]13	
InChI=1S/C6H6O3/c7-5-3-2-1-8-6(9-5)4(2)3/h2-4,6H,1H2	InChI=1S/C6H6O3/c7-5-3-2-1-8-6(9-5)4(2)3/h2-4,6H,1H2/t2-,3+,4-,6+/m0/s1
