22
gdb 113566	4.1976	0.93449	0.85726	1.2529	90.54	-0.2181	0.0187	0.2368	1456.0307	0.195133	-367.210499	-367.20143	-367.200486	-367.244742	34.485	
C	-0.2883263545	 1.5028997507	 0.1767775341	-0.376029
C	 0.2665793381	 0.1115422548	-0.1487259382	-0.184166
C	 0.9810627101	-0.5080571691	 1.0315357719	-0.065484
N	 0.1322937059	-1.1248417944	 2.0669383482	-0.380195
C	 1.0521421474	-1.9761851842	 1.2703950687	 0.330696
C	 0.4532724684	-3.0505153852	 0.3497864401	-0.292182
C	 1.2011420496	-4.3657674194	 0.7099985941	-0.27078
C	 2.3178562382	-3.9093710112	 1.6194666299	-0.079349
C	 2.2301577395	-2.6125225722	 1.9146898126	-0.141236
H	 0.5136780959	 2.194903654	 0.4579863503	 0.108507
H	-0.8130360527	 1.9330590509	-0.6817627533	 0.109406
H	-0.9917147584	 1.4462245229	 1.0131728541	 0.129836
H	-0.5516492388	-0.5477074485	-0.4563558722	 0.104403
H	 0.9620975876	 0.1731796851	-0.9961488046	 0.093506
H	 1.839120213	 0.068540891	 1.3825529125	 0.071151
H	 0.5203619941	-0.9644261555	 2.9942502954	 0.222792
H	-0.625977	-3.1245098563	 0.495403039	 0.115601
H	 0.6265130086	-2.7918127286	-0.6994503745	 0.105585
H	 0.5509617902	-5.0875211395	 1.2219668503	 0.110273
H	 1.579729657	-4.8804825356	-0.1807869117	 0.105699
H	 3.0815857465	-4.5844850165	 1.9893409815	 0.093884
H	 2.9039540344	-2.0585869629	 2.5606978621	 0.088081
58.9625	87.8826	130.681	167.5949	239.8699	271.4541	354.8479	378.4211	452.8715	510.3888	591.3146	718.7138	764.2509	768.3342	804.7522	822.993	847.3074	899.4207	919.3287	938.3968	968.5482	991.4304	996.4754	1045.6118	1060.8278	1081.316	1089.9547	1121.7705	1128.1177	1174.7344	1229.1429	1240.6476	1267.9198	1287.387	1301.8422	1312.8243	1345.4921	1346.9658	1389.7485	1406.3844	1472.3931	1477.0365	1478.8172	1497.6542	1498.6419	1508.2898	1679.5607	3019.1732	3023.7198	3031.7975	3045.7806	3060.0318	3070.3486	3086.8478	3101.4744	3112.0463	3114.0158	3174.996	3203.3494	3482.4793
CCC1NC11CCC=C1	CC[C@H]1N[C@]21CCC=C2	
InChI=1S/C8H13N/c1-2-7-8(9-7)5-3-4-6-8/h3,5,7,9H,2,4,6H2,1H3	InChI=1S/C8H13N/c1-2-7-8(9-7)5-3-4-6-8/h3,5,7,9H,2,4,6H2,1H3/t7-,8+/m1/s1
