21
gdb 41374	2.37556	1.79869	1.72477	1.4991	80.33	-0.2453	0.0802	0.3255	966.2872	0.185023	-387.062546	-387.055134	-387.05419	-387.094244	30.435	
C	 0.0434262922	 1.5162854931	-0.2975458891	-0.302847
C	 1.4659490987	 1.6029259849	 0.3494570468	-0.302846
C	 1.4343111846	 0.0714192602	 0.6179084826	 0.305495
C	 0.8465636342	-0.3989938929	 1.9771735608	-0.286316
C	-0.5743424645	-0.4855582826	 1.3308885852	-0.286316
C	 0.0164440833	-0.0149387445	-0.0269860457	 0.305496
C	 0.1738782233	-1.0328242829	-1.1483153936	-0.17452
O	 1.3284027281	-1.8021433445	-0.7852514498	-0.257828
C	 2.2766698166	-0.9047580658	-0.1918852286	-0.17452
H	-0.7375366477	 2.0879824758	 0.2107934836	 0.09943
H	 0.0178143799	 1.7782146872	-1.3591031598	 0.100683
H	 2.2539733474	 1.9144088159	-0.3420360052	 0.100683
H	 1.5357134077	 2.2264385587	 1.2447306181	 0.09943
H	 1.2372989172	-1.3637174038	 2.31167295	 0.105116
H	 0.9506270399	 0.3169145257	 2.7973046303	 0.095583
H	-0.9833667626	-1.4990158823	 1.3015876045	 0.105118
H	-1.3305459607	 0.1779140576	 1.7597581822	 0.095582
H	-0.6565576883	-1.7367808801	-1.257227686	 0.104959
H	 0.3345194627	-0.5286351232	-2.1160004437	 0.081328
H	 2.8483418299	-0.3755391802	-0.9726189884	 0.081328
H	 2.9708581279	-1.5158602162	 0.3926635858	 0.104959
78.3963	201.5165	263.9643	310.9408	336.1065	366.5413	517.8071	612.6998	619.374	662.57	736.8384	738.5609	776.4878	882.6094	896.8336	913.8077	928.5501	934.7094	937.1743	963.4089	976.2482	1018.638	1036.9566	1055.0994	1099.1942	1171.9744	1206.8072	1218.5837	1226.5312	1242.3396	1247.6966	1252.085	1258.5699	1280.6966	1287.851	1288.8088	1314.2459	1349.5219	1381.3455	1466.2386	1474.5054	1477.8626	1491.5863	1500.6282	1512.3883	2959.744	2966.2019	3047.4751	3048.6071	3052.4152	3056.1194	3078.5894	3081.1723	3091.6709	3094.5515	3109.6379	3114.4272
C1CC23CCC12COC3	C1C[C@@]23CC[C@@]12COC3	
InChI=1S/C8H12O/c1-2-8-4-3-7(1,8)5-9-6-8/h1-6H2	InChI=1S/C8H12O/c1-2-8-4-3-7(1,8)5-9-6-8/h1-6H2/t7-,8+
