15
gdb 26892	3.16295	1.46956	1.00893	5.5772	76.17	-0.2013	-0.0361	0.1652	1107.4526	0.114335	-450.157542	-450.149343	-450.148398	-450.190272	30.904	
N	 0.0969212045	 1.3363015529	 0.025151149	-0.560287
C	-0.0069145243	-0.0046143158	 0.0048337132	 0.486787
C	-1.2051516614	-0.6884940031	 0.0221468284	 0.02338
N	-2.4210142995	 0.0683963562	 0.0151523292	-0.621436
C	-1.0852063689	-2.0956796197	 0.032198015	-0.01503
N	 0.0362413088	-2.766937056	 0.0206419712	-0.342328
C	 1.2163725613	-2.0634764134	 0.0009393285	 0.417192
N	 2.4003915042	-2.5121092364	-0.0149903227	-0.537212
O	 1.1597530657	-0.6397372149	-0.0051422207	-0.233125
H	 0.9840564834	 1.7612984144	-0.1843650271	 0.277415
H	-0.7600681401	 1.8480302763	-0.1131701104	 0.280127
H	-2.9400771466	-0.0332549015	 0.8821315751	 0.244876
H	-3.0384127589	-0.2161856553	-0.7383803052	 0.244124
H	-2.0030712197	-2.6880705939	 0.0444307149	 0.104666
H	 2.3462196015	-3.5291315498	-0.0098967185	 0.230852
73.5724	161.4916	200.2844	269.0675	291.4568	341.4874	356.9692	444.4363	486.6924	526.7618	570.6976	593.7795	732.0605	737.2584	765.2089	796.4555	843.9242	848.6034	898.6601	998.4167	1001.7787	1093.9808	1211.9373	1232.8639	1272.4329	1313.1822	1422.9666	1453.9032	1534.9438	1624.0397	1648.5556	1691.9209	1741.7327	3103.3969	3490.9567	3521.8963	3558.0377	3596.762	3734.6259
NC1=C(N)C=NC(=N)O1	N[C@@H]1C(=CN=C([NH])O1)N	
InChI=1S/C4H6N4O/c5-2-1-8-4(7)9-3(2)6/h1,7H,5-6H2	InChI=1S/C4H7N4O/c5-2-1-8-4(7)9-3(2)6/h1,3,7H,5-6H2/t3-/m0/s1
