20
gdb 10335	2.19762	1.82428	1.0752	1.8038	72.42	-0.2433	-0.0308	0.2125	1143.0702	0.173149	-386.14424	-386.134112	-386.133168	-386.179598	35.155	
C	-0.1117349392	 1.3167796705	 0.3327666712	-0.245387
O	-0.2950816041	-0.0490590088	 0.0176489613	-0.245291
C	 0.5697442274	-0.5200221296	-0.9981998995	 0.052001
C	 1.9662605292	-0.7097324134	-0.4118316975	 0.135448
O	 3.0001527045	-0.594822222	-1.0166017223	-0.244752
C	 0.0232487302	-1.869077002	-1.5221067004	-0.000593
C	-1.4548526487	-1.7344833827	-1.9124686228	-0.393443
C	 0.8604223488	-2.3902651326	-2.6979341531	-0.398092
H	 0.9043479065	 1.5298513871	 0.6973716103	 0.115042
H	-0.304462994	 1.9595167194	-0.539140126	 0.11435
H	-0.8254724734	 1.5629919904	 1.1220452894	 0.13355
H	 0.6314789629	 0.1967726242	-1.8329503839	 0.082924
H	 1.9390302924	-0.9964952422	 0.6661480015	 0.085894
H	 0.0923966032	-2.5868896937	-0.6923900047	 0.083824
H	-1.8475395201	-2.7025974343	-2.2390244901	 0.111431
H	-2.05543352	-1.3774668557	-1.0748394298	 0.133786
H	-1.5734172466	-1.0290191924	-2.7434999305	 0.110354
H	 1.9186521132	-2.4915524784	-2.4461666341	 0.136158
H	 0.4900794628	-3.3693593897	-3.0163111358	 0.11491
H	 0.788412365	-1.7127420541	-3.5564671732	 0.117889
49.6765	79.6472	110.9732	179.2106	194.2536	211.1167	234.1533	260.1344	316.6913	360.7801	388.1056	459.2409	471.6523	553.0133	829.8645	924.2893	936.9519	961.8457	971.5406	1013.8465	1061.3638	1134.6155	1146.4766	1171.2025	1184.8062	1193.4011	1232.9299	1272.3111	1327.4567	1345.3981	1373.0083	1398.3864	1403.2278	1424.8201	1480.736	1487.6404	1489.6011	1490.4732	1502.3995	1509.08	1514.0278	1833.4252	2859.8546	2977.8672	2984.8992	3009.0758	3030.8061	3032.6988	3038.7693	3095.5711	3103.0454	3121.526	3125.3075	3140.5752
COC(C=O)C(C)C	CO[C@@H](C=O)C(C)C	
InChI=1S/C6H12O2/c1-5(2)6(4-7)8-3/h4-6H,1-3H3	InChI=1S/C6H12O2/c1-5(2)6(4-7)8-3/h4-6H,1-3H3/t6-/m0/s1
