18
gdb 35821	2.72508	1.56563	1.18711	5.8541	75.03	-0.236	0.0283	0.2643	1059.9401	0.151322	-398.10976	-398.102111	-398.101167	-398.142343	29.347	
N	-0.15815466	-1.1307461394	-0.2936728816	-0.335003
C	-0.0990651401	 0.0114102778	-0.1307156054	 0.332826
C	-0.0430880999	 1.4749909428	 0.0128832911	-0.183241
N	-0.6875849291	 1.927439222	 1.2626519361	-0.28261
C	 0.3881444519	 2.256387358	 2.2131208529	-0.191456
C	 1.5803496881	 2.7803070121	 1.3839669562	-0.036089
C	 2.9183843915	 2.0189996836	 1.5547279697	-0.181324
N	 2.4541577501	 1.0566044382	 0.5314135654	-0.291643
C	 1.4295060911	 2.0008222364	 0.0514270924	 0.00693
H	-0.5818492351	 1.8958751714	-0.8427376389	 0.116597
H	-1.2291103482	 2.7590836089	 1.05830988	 0.226074
H	 0.0191989355	 2.9711522155	 2.952505209	 0.108928
H	 0.6793818017	 1.3446367572	 2.7470405965	 0.131626
H	 1.6235627075	 3.8688853751	 1.3368856757	 0.076622
H	 3.7819623381	 2.6261096555	 1.2520497788	 0.095062
H	 3.1243582364	 1.5757095811	 2.5358682685	 0.107148
H	 3.1339900722	 0.7330644705	-0.1452676154	 0.227556
H	 1.6845193382	 2.5466629934	-0.8643742312	 0.071997
61.1984	134.5511	182.5377	252.0721	355.763	360.152	486.3774	566.2165	627.5921	646.3268	719.4313	768.5262	789.4463	861.2701	865.8401	895.3183	953.3042	976.2745	1002.2145	1030.2629	1045.8515	1086.4717	1093.1263	1129.5415	1154.5126	1186.8673	1228.4739	1248.0799	1265.1371	1302.3908	1321.3442	1354.9275	1361.8322	1367.557	1392.4907	1471.1668	1496.34	1521.7162	2360.91	3006.521	3028.3821	3043.5848	3055.3692	3057.741	3096.5966	3113.8355	3540.7214	3556.3482
N#CC1NCC2CNC12	N#C[C@H]1NC[C@H]2CN[C@@H]12	
InChI=1S/C6H9N3/c7-1-5-6-4(2-8-5)3-9-6/h4-6,8-9H,2-3H2	InChI=1S/C6H9N3/c7-1-5-6-4(2-8-5)3-9-6/h4-6,8-9H,2-3H2/t4-,5+,6+/m0/s1
