12
gdb 25349	3.98414	1.2325	0.94131	4.1241	64.32	-0.2691	-0.1071	0.1619	1116.2511	0.07903	-468.87054	-468.863447	-468.862503	-468.902808	25.125	
O	-0.996367629	 1.4060784557	 0.0063193056	-0.220614
C	 0.11192303	 1.0335307866	-0.263372025	 0.129245
C	 1.3493708284	 1.8956082841	-0.119701086	 0.237584
N	 2.4626195968	 1.3119445968	-0.4643863315	-0.321998
C	 3.6479562388	 2.0296430218	-0.3645796268	 0.448518
O	 4.7471385009	 1.6256811881	-0.6435728679	-0.35087
N	 3.4719795093	 3.3573805567	 0.1189657464	-0.317575
C	 2.2642256486	 3.8539815579	 0.4459410416	 0.120733
N	 1.1640364174	 3.1713306552	 0.3483033276	-0.284657
H	 0.3463477182	 0.0206992024	-0.6454677571	 0.114831
H	 4.312505471	 3.913787486	 0.2063007738	 0.285178
H	 2.2388893897	 4.8803196087	 0.8064513193	 0.159626
80.4562	125.8565	205.6962	225.0058	408.8064	409.6249	519.0458	564.4617	638.057	700.2164	746.5187	818.4077	820.5025	915.6681	986.9002	993.1461	1046.0107	1117.1818	1164.9585	1326.8996	1381.9688	1416.8494	1460.7851	1563.4894	1658.1005	1836.1362	1843.2752	2955.8954	3164.2147	3596.0167
O=CC1=NC(=O)NC=N1	O=Cc1nc(=O)[nH]cn1	
InChI=1S/C4H3N3O2/c8-1-3-5-2-6-4(9)7-3/h1-2H,(H,5,6,7,9)	InChI=1S/C4H3N3O2/c8-1-3-5-2-6-4(9)7-3/h1-2H,(H,5,6,7,9)
