18
gdb 79657	2.67533	1.52708	1.20255	1.3946	84.24	-0.2148	0.0235	0.2384	1088.2664	0.145625	-364.67527	-364.6669	-364.665956	-364.707771	32.988	
C	-0.1126356785	 1.5143576502	 0.0102423636	-0.331292
N	 0.1902464667	 0.0866103065	 0.0478892568	-0.113203
C	 1.3203043854	-0.6629180102	-0.3891979458	-0.127616
C	 2.7338735483	-0.1959682084	 0.0907035909	-0.066865
C	 2.7421754574	 1.0487961937	 0.9363728924	-0.314668
C	 2.2595279755	-0.2425033537	 1.5318518347	-0.101807
C	 0.8315035252	-0.7166899582	 1.0531699486	 0.091462
C	 0.1125547671	-1.7203055051	 1.7658435646	 0.253312
C	-0.4584458933	-2.5631838494	 2.4079277976	-0.394872
H	 0.5347433439	 2.0460601195	-0.694283564	 0.130133
H	-1.1488308191	 1.6444984671	-0.3224616217	 0.122307
H	-0.0191851103	 1.9757093647	 0.9980730498	 0.132388
H	 1.1941054056	-1.4098314508	-1.1667269972	 0.108142
H	 3.6382698342	-0.6247586632	-0.3198304778	 0.094595
H	 3.735086897	 1.332578813	 1.2757089176	 0.117009
H	 2.0987146957	 1.8948485296	 0.7513034647	 0.116243
H	 2.742341866	-0.7190677422	 2.3741030936	 0.097806
H	-0.9754284467	-3.3089278031	 2.9588249216	 0.186924
129.056	134.2819	161.7795	250.5971	255.2259	358.8486	403.5075	467.5646	511.4459	578.1496	589.9583	634.9362	650.4383	703.3439	719.7411	765.1512	829.7331	898.6442	921.5593	953.5641	960.8539	996.0155	1032.3231	1052.9948	1063.1811	1087.6654	1139.8543	1168.7646	1173.5542	1187.5269	1265.2639	1276.8098	1318.4667	1415.7358	1459.0471	1486.4606	1504.7919	1518.349	2231.1295	3018.6379	3074.5673	3105.5431	3138.9238	3159.7559	3198.9748	3210.61	3254.634	3503.8849
CN1C2C3CC3C12C#C	CN1[C@H]2[C@H]3C[C@H]3[C@@]12C#C	
InChI=1S/C8H9N/c1-3-8-6-4-5(6)7(8)9(8)2/h1,5-7H,4H2,2H3	InChI=1S/C8H9N/c1-3-8-6-4-5(6)7(8)9(8)2/h1,5-7H,4H2,2H3/t5-,6+,7-,8+,9?/m0/s1
