18
gdb 109059	3.50468	1.25131	1.01407	3.8957	73.46	-0.2435	0.0137	0.2572	1178.8554	0.14898	-439.083339	-439.075317	-439.074373	-439.116116	30.448	
O	 0.0792654294	 1.3054684716	 0.4760839227	-0.423023
C	 0.0062045254	 0.0053255195	-0.0358505297	-0.115689
C	-1.4241318021	-0.4558560343	-0.1822380914	 0.370649
N	-2.3704462017	 0.2893255736	 0.216034335	-0.329817
C	-3.7187731982	-0.1416360939	 0.0117359596	 0.016279
C	-4.1910621435	-0.411134501	-1.4053145913	-0.300418
C	-3.9602423226	-1.5553826596	-0.4552103474	-0.061218
C	-2.7281217087	-2.4213578563	-0.5679426081	-0.103322
O	-1.5175685645	-1.6678319422	-0.7757433761	-0.261054
H	-0.8422931459	 1.559445285	 0.6472537293	 0.290266
H	 0.493376702	-0.0613947504	-1.0210575754	 0.114328
H	 0.5294748829	-0.7124136764	 0.6169905918	 0.110125
H	-4.4247016701	 0.317025182	 0.6947901114	 0.099822
H	-5.2142697187	-0.1572664036	-1.6588259437	 0.120684
H	-3.4716145456	-0.2446122881	-2.2002050848	 0.130823
H	-4.8305486746	-2.0804253583	-0.0728267671	 0.098461
H	-2.6065903226	-3.0091791754	 0.3513455154	 0.11872
H	-2.7796244909	-3.1151807122	-1.4120185903	 0.124386
88.3077	140.5088	149.3065	218.6382	305.9666	385.3491	392.6974	443.6329	532.9349	595.8931	645.1962	724.7172	781.7959	828.2895	835.0096	928.9966	946.1459	989.7637	1023.7747	1043.0024	1057.5185	1099.6526	1115.1254	1127.1795	1140.7344	1184.5839	1228.2776	1237.9794	1243.0187	1282.1309	1327.0556	1372.0802	1396.1802	1421.0473	1480.329	1486.2827	1505.992	1516.371	1742.4928	2976.9297	2999.2476	3021.2134	3081.8064	3134.0659	3152.4871	3170.7819	3224.2804	3669.7567
OCC1=NC2CC2CO1	OCC1=N[C@H]2C[C@H]2CO1	
InChI=1S/C6H9NO2/c8-2-6-7-5-1-4(5)3-9-6/h4-5,8H,1-3H2	InChI=1S/C6H9NO2/c8-2-6-7-5-1-4(5)3-9-6/h4-5,8H,1-3H2/t4-,5-/m0/s1
