12
gdb 132633	3.15775	1.41807	0.97923	3.9303	62.04	-0.2277	-0.049	0.1787	1062.1415	0.077589	-518.10954	-518.102507	-518.101562	-518.141055	26.784	
N	 0.0146317024	 1.3683222161	 0.1677297083	-0.569166
C	-0.0096590683	-0.0037158339	 0.0622789603	 0.366281
C	-1.204133923	-0.7411441095	 0.0343075708	-0.085907
N	-1.1917307247	-2.0724957858	-0.0144915464	-0.267531
C	-0.031598796	-2.6744883226	-0.0324853237	 0.173331
F	 0.0033437696	-4.0012378468	-0.0794872622	-0.052987
C	 1.1583556052	-1.941819626	-0.0075345953	 0.186188
F	 2.3201216317	-2.5751124782	-0.035022171	-0.043725
N	 1.1751907855	-0.6360092115	 0.0348574415	-0.349264
H	 0.8952223974	 1.7956627251	-0.0755690175	 0.266097
H	-0.7988269511	 1.8691884621	-0.151964354	 0.261028
H	-2.1725564387	-0.2505409189	 0.0531578191	 0.115655
124.7001	245.3711	294.7734	329.2972	370.9187	400.8714	487.6335	502.9059	520.5173	550.3448	611.4536	689.4195	737.4573	776.7187	819.8786	887.0761	1017.8696	1106.0478	1212.8784	1285.6008	1331.4135	1391.6419	1489.9646	1518.4135	1609.212	1631.3428	1654.1	3171.2949	3587.2723	3701.3639
NC1=CN=C(F)C(F)=N1	Nc1cnc(F)c(F)n1	
InChI=1S/C4H3F2N3/c5-3-4(6)9-2(7)1-8-3/h1H,(H2,7,9)	InChI=1S/C4H3F2N3/c5-3-4(6)9-2(7)1-8-3/h1H,(H2,7,9)
