19
gdb 60196	3.16753	0.89931	0.79701	3.2863	77.8	-0.2252	-0.0045	0.2208	1480.6125	0.157401	-419.176116	-419.166394	-419.16545	-419.211486	34.552	
C	 0.1801323239	 1.4194311109	-0.0353784651	-0.315496
N	 0.0420000082	-0.0260638388	 0.0645901855	-0.066534
C	 0.5450322871	-0.5201457355	 1.3416864064	-0.326465
C	-1.3201536539	-0.4615473078	-0.2066795112	-0.179869
C	-1.3731804595	-1.93574043	-0.5300453107	 0.06238
O	-1.54957578	-2.8623767859	 0.5459903086	-0.227139
C	-2.6082780593	-2.7399943817	-0.4020735012	-0.106321
C	-3.8470496903	-2.1558313466	 0.06924219	 0.303193
N	-4.8541744129	-1.7074050327	 0.4165899881	-0.32664
H	 1.2306480126	 1.694854356	 0.0987788102	 0.121647
H	-0.1354130108	 1.7580985267	-1.0271193371	 0.11846
H	-0.4123592224	 1.969591627	 0.7200126687	 0.098627
H	-0.0116089931	-0.1131453775	 2.206771861	 0.098936
H	 0.4779936256	-1.6092580056	 1.3840200635	 0.141927
H	 1.5963514946	-0.2374242377	 1.4507073472	 0.119505
H	-2.0204028737	-0.2462512199	 0.6214615579	 0.108603
H	-1.6833344966	 0.0832983533	-1.0865924914	 0.116293
H	-0.6544249721	-2.264278567	-1.2811395771	 0.117065
H	-2.7477319274	-3.5988099572	-1.0562101334	 0.141829
45.1044	82.6564	106.0875	189.7619	230.0188	242.7342	259.5001	340.7329	345.2709	364.1341	438.5854	484.6333	577.0057	613.0695	802.9964	834.6826	857.8592	954.7282	999.3005	1041.966	1066.4898	1069.1828	1120.0545	1127.5541	1139.9803	1187.4938	1216.28	1281.4049	1301.9471	1311.3259	1359.6117	1397.6834	1445.573	1459.2424	1467.9045	1481.4352	1486.2449	1499.6041	1501.2917	1513.917	2359.7872	2928.7165	2935.9895	2945.2037	3053.2674	3061.8469	3074.7278	3106.2784	3117.8544	3127.7809	3134.4814
CN(C)CC1OC1C#N	CN(C)C[C@H]1O[C@H]1C#N	
InChI=1S/C6H10N2O/c1-8(2)4-6-5(3-7)9-6/h5-6H,4H2,1-2H3	InChI=1S/C6H10N2O/c1-8(2)4-6-5(3-7)9-6/h5-6H,4H2,1-2H3/t5-,6+/m0/s1
