23
gdb 111853	2.28748	1.37609	1.08875	1.4798	85.63	-0.2298	0.0882	0.318	1269.4256	0.205886	-388.288466	-388.27899	-388.278046	-388.322943	35.804	
C	-0.0024568194	 1.4946185167	-0.2487774857	-0.375718
C	 0.0213129348	 0.0269660543	 0.1964011542	-0.201184
C	-1.3545234916	-0.6022724666	 0.1520645061	-0.075064
C	-1.8812514548	-1.2885278198	-1.0890587829	 0.040794
O	-0.9277176214	-1.6130560529	-2.0692647847	-0.261194
C	-0.3711388123	-2.8909894275	-1.7446681676	-0.060782
C	-0.4662101546	-3.0332165778	-0.2110058213	-0.315902
C	-1.6326766746	-2.1033421214	 0.1532409806	 0.282159
C	-2.7481964588	-2.6548223932	 1.0105225036	-0.484659
H	 0.9965311692	 1.9392214954	-0.1997765065	 0.107414
H	-0.3604680384	 1.5794276754	-1.2796029781	 0.127337
H	-0.6654114446	 2.0932303234	 0.3859412095	 0.109134
H	 0.7041310022	-0.5272158519	-0.4537921936	 0.105627
H	 0.4260532069	-0.044621608	 1.2144409733	 0.090525
H	-2.1098855906	-0.0328016486	 0.6935000797	 0.07319
H	-2.8747367512	-1.0819798147	-1.4790299678	 0.08538
H	-0.94717115	-3.6861566438	-2.2426052888	 0.092415
H	 0.6523380441	-2.916582	-2.1303292602	 0.105592
H	-0.6860721679	-4.0641670607	 0.0814095826	 0.100833
H	 0.4682968949	-2.7470371833	 0.2812828049	 0.107232
H	-2.4031239582	-2.8625715155	 2.0304511521	 0.117926
H	-3.579777123	-1.9466878024	 1.0844656302	 0.115182
H	-3.1431564309	-3.5905508072	 0.5968089204	 0.113762
49.3231	113.6899	162.4467	188.4954	211.986	244.7941	273.1078	296.8727	345.185	481.5253	569.3437	598.5057	655.0454	749.219	770.5519	823.4865	866.5327	872.8164	933.9811	956.6852	973.2594	1005.2548	1012.8111	1034.8777	1067.8287	1080.9854	1110.7666	1144.7201	1147.9232	1164.8902	1211.5388	1238.0531	1264.9886	1283.6118	1305.5982	1313.8307	1327.667	1369.3696	1394.908	1406.8648	1419.2809	1454.0915	1480.7644	1490.1913	1496.9778	1498.962	1501.5394	1505.5847	1518.7143	2983.2512	3018.2455	3021.6666	3031.2772	3050.2427	3076.6061	3078.0082	3080.4988	3093.3553	3096.2188	3099.7646	3107.4706	3111.142	3136.3923
CCC1C2OCCC12C	CC[C@H]1[C@H]2OCC[C@@]12C	
InChI=1S/C8H14O/c1-3-6-7-8(6,2)4-5-9-7/h6-7H,3-5H2,1-2H3	InChI=1S/C8H14O/c1-3-6-7-8(6,2)4-5-9-7/h6-7H,3-5H2,1-2H3/t6-,7+,8-/m0/s1
