23
gdb 64368	2.03838	1.7646	1.35874	1.3746	84.7	-0.2374	0.0812	0.3186	1110.8057	0.205432	-388.293655	-388.284503	-388.283559	-388.326963	36.402	
C	-0.3189728023	 1.5765600256	 0.1194490693	-0.423416
C	-0.0020683964	 0.0827883682	 0.0402083687	 0.319512
C	-1.2705602356	-0.7218317942	-0.2759758641	-0.402101
O	 0.9117146414	-0.116663769	-1.0655139891	-0.308602
C	 2.1178781952	-0.7275818862	-0.6245354397	-0.072763
C	 1.7567322646	-1.4561166858	 0.6696785563	-0.306136
C	 0.7445067863	-0.4884648847	 1.2642894465	 0.33621
C	 1.1333191026	 0.345945624	 2.461266889	-0.324089
C	 0.0889739134	-0.7380432977	 2.5907647142	-0.332691
H	 0.5941504913	 2.1608554987	 0.2578537759	 0.118327
H	-0.7940742799	 1.9009780519	-0.810807999	 0.11954
H	-1.0058665616	 1.7988545501	 0.9433255896	 0.107681
H	-1.6508526603	-0.4368076628	-1.261206753	 0.118739
H	-1.0591344194	-1.7946654458	-0.2912286371	 0.110672
H	-2.0558846858	-0.5368329772	 0.4637743914	 0.106596
H	 2.4771746184	-1.3893605874	-1.4192877497	 0.100655
H	 2.8929290464	 0.0329347923	-0.4380814714	 0.087049
H	 1.2927251257	-2.4240741359	 0.4458993597	 0.10438
H	 2.6159593983	-1.6346131757	 1.3216123616	 0.097454
H	 2.111157799	 0.173113162	 2.8996518705	 0.10759
H	 0.7997428672	 1.3753098513	 2.5192255314	 0.114055
H	-0.9427233491	-0.4268216319	 2.7214947799	 0.111606
H	 0.3446725708	-1.6468519397	 3.126142429	 0.109734
64.3107	169.1406	222.4973	240.9268	246.038	293.6273	321.7084	341.6176	392.6671	420.321	488.2405	539.3906	631.5828	645.8413	781.9808	814.4568	847.6886	906.9671	916.9754	922.9617	938.1643	964.5349	983.7391	984.668	1012.7807	1057.4435	1083.8011	1084.6899	1118.8889	1165.455	1187.0268	1188.0092	1211.288	1215.7559	1246.6592	1302.9075	1320.5211	1365.8982	1391.4541	1396.0386	1415.0064	1464.9547	1476.3901	1482.0604	1489.3231	1496.4485	1503.496	1509.9281	1526.0598	2973.766	3033.9631	3035.3064	3040.6917	3068.6418	3096.4872	3104.3232	3112.3152	3116.5252	3122.139	3123.6275	3132.172	3201.3606	3220.5537
CC1(C)OCCC11CC1	CC1(C)OCCC21CC2	
InChI=1S/C8H14O/c1-7(2)8(3-4-8)5-6-9-7/h3-6H2,1-2H3	InChI=1S/C8H14O/c1-7(2)8(3-4-8)5-6-9-7/h3-6H2,1-2H3
