20
gdb 84927	2.43778	1.54088	1.07783	3.6572	81.28	-0.2329	0.0127	0.2456	1171.0155	0.172795	-403.196887	-403.188303	-403.187359	-403.229948	33.22	
C	-1.2264728172	 0.534126715	 0.1017020463	-0.403766
C	 0.2393460099	 0.1095715349	-0.0249259542	-0.153978
C	 0.8744468887	 0.6893558736	-1.2803700182	-0.040831
C	 2.1569015476	 0.6930302121	-1.6478021625	-0.060496
C	 3.3386687039	 0.0982422505	-0.9289824999	-0.240616
C	 2.9908219049	-0.7317054475	 0.3109475152	-0.184804
N	 2.2849189135	 0.0174107388	 1.3362609662	-0.301369
C	 1.0171797465	 0.5215662063	 1.2377881764	 0.406286
O	 0.542829308	 1.2342108588	 2.1016561454	-0.368629
H	-1.3038176832	 1.6195092625	 0.202003653	 0.13609
H	-1.7880699718	 0.2197970628	-0.783481606	 0.10344
H	-1.687840291	 0.0899204961	 0.9859304883	 0.124626
H	 0.2745478637	-0.9874876706	-0.0834640808	 0.102765
H	 0.1656522068	 1.1804735081	-1.9440870726	 0.091759
H	 2.4050601589	 1.1895149558	-2.5842791435	 0.088941
H	 3.9011961039	-0.537050352	-1.6279864165	 0.108598
H	 4.0305953857	 0.9045579438	-0.6439872926	 0.113145
H	 2.398269035	-1.605314778	 0.0146251322	 0.122169
H	 3.907339941	-1.1211178748	 0.762429514	 0.112301
H	 2.8016936852	 0.3552678838	 2.1344204996	 0.24437
89.8554	104.7341	214.229	260.999	285.6198	304.1983	352.9787	420.0766	438.572	495.2588	553.9912	598.3283	660.6737	698.9761	742.162	824.7564	841.4632	894.6903	955.8086	996.2526	1008.579	1036.1494	1063.6085	1103.8469	1124.9501	1132.3854	1234.8672	1247.1394	1273.7536	1288.6215	1313.0524	1353.3683	1392.7418	1408.1345	1413.2975	1430.306	1456.2663	1474.3726	1489.092	1493.552	1498.1393	1722.4949	1789.1787	2999.5808	3000.926	3022.8068	3043.0494	3047.861	3092.88	3121.0097	3130.4591	3135.7106	3154.5495	3617.8269
CC1C=CCCNC1=O	C[C@H]1C=CCCNC1=O	
InChI=1S/C7H11NO/c1-6-4-2-3-5-8-7(6)9/h2,4,6H,3,5H2,1H3,(H,8,9)	InChI=1S/C7H11NO/c1-6-4-2-3-5-8-7(6)9/h2,4,6H,3,5H2,1H3,(H,8,9)/t6-/m0/s1
