21
gdb 62862	2.75656	1.79704	1.39603	1.6156	80.65	-0.2379	0.0819	0.3197	1013.2365	0.183602	-387.027922	-387.020173	-387.019229	-387.059487	32.507	
C	-0.0990519792	 1.524305539	 0.0498968123	-0.447228
C	-0.0537103859	-0.0134592086	 0.0044096777	 0.3543
C	-1.4715408958	-0.517316072	-0.3355471879	-0.509202
C	 1.2476369081	-0.506719679	-0.7163015865	 0.008771
O	 1.9926192996	-0.0375329621	 0.4678425332	-0.301723
C	 0.8174239092	-0.5755162476	 1.1797524393	 0.008775
C	 1.0444486513	-2.0848929198	 0.9606616285	-0.042699
C	 0.2519991506	-2.8991655785	-0.030962121	-0.317606
C	 1.3816466832	-2.0309687956	-0.5253788954	-0.042692
H	 0.8718020501	 1.9570372344	 0.2858432359	 0.138056
H	-0.43528968	 1.9166449009	-0.9169356609	 0.108164
H	-0.8252311563	 1.8543073845	 0.8019029066	 0.108165
H	-1.4995151377	-1.0836541592	-1.270324302	 0.129676
H	-1.8907522501	-1.1463733029	 0.4543100584	 0.129678
H	-2.151189269	 0.330062773	-0.4589096145	 0.110973
H	 1.5986724753	-0.0710229503	-1.6532609335	 0.072501
H	 0.723452981	-0.21099811	 2.2040797617	 0.072501
H	 1.685356826	-2.5911151648	 1.6728450928	 0.096037
H	 0.4877806426	-3.960651233	-0.0159749122	 0.111226
H	-0.7820589283	-2.7085698443	-0.2586977857	 0.116291
H	 2.2747841551	-2.4968408343	-0.9247511869	 0.096037
115.665	243.1164	278.2723	308.1643	311.2928	359.4313	425.644	433.6658	581.8057	600.0226	658.6507	677.9284	751.3	800.3151	815.5964	847.9205	860.5233	888.677	917.5452	969.1697	989.6286	994.5649	1022.2922	1035.3113	1041.7508	1063.0123	1090.66	1105.5617	1172.56	1180.3995	1193.583	1205.3669	1235.4284	1247.9496	1284.5744	1307.0251	1316.7143	1379.2669	1397.9372	1421.0733	1489.3539	1490.9014	1512.6602	1516.3268	1522.4609	3027.4518	3043.7006	3081.6296	3104.8374	3105.8753	3109.633	3114.7867	3134.901	3159.1878	3176.018	3185.6368	3287.0273
CC1(C)C2OC1C1CC21	CC1(C)[C@H]2O[C@@H]1[C@H]1C[C@@H]21	
InChI=1S/C8H12O/c1-8(2)6-4-3-5(4)7(8)9-6/h4-7H,3H2,1-2H3	InChI=1S/C8H12O/c1-8(2)6-4-3-5(4)7(8)9-6/h4-7H,3H2,1-2H3/t4-,5+,6+,7-
