23
gdb 115819	2.97475	1.12236	0.92373	1.3925	86.51	-0.2195	0.0888	0.3084	1385.4853	0.205698	-388.295373	-388.286076	-388.285132	-388.330701	35.594	
C	-0.0709516821	 1.5698784323	 0.1684995603	-0.381957
C	-0.0425204132	 0.0407299735	 0.1021216274	-0.182622
C	-1.4309431034	-0.5828699367	 0.0128503932	 0.15908
C	-1.4579533104	-2.1175483395	-0.0421175187	-0.247917
C	-2.820063191	-2.4383456312	 0.5895948457	-0.306485
C	-2.9301458016	-1.34491677	 1.6371910501	 0.475818
C	-4.155550934	-1.0653762574	 2.4447397479	-0.336486
C	-2.9043988034	-1.6156786374	 3.1169253207	-0.325277
O	-2.1938510586	-0.2277845614	 1.1766990533	-0.320569
H	 0.9398039629	 1.9813500795	 0.2487481943	 0.107278
H	-0.5346735074	 1.9958906756	-0.7284074369	 0.110105
H	-0.6481771414	 1.9043329714	 1.0344116893	 0.134559
H	 0.5370430551	-0.2879227311	-0.7705863838	 0.090944
H	 0.4596585243	-0.3647523991	 0.9893042497	 0.097231
H	-1.9494224046	-0.1752363498	-0.8719255422	 0.062758
H	-1.3439261993	-2.5018953237	-1.0585639032	 0.099412
H	-0.6462429986	-2.5266754351	 0.5703799167	 0.10367
H	-3.6197708388	-2.3389578795	-0.1542499349	 0.104628
H	-2.8803484776	-3.4418679443	 1.0169145815	 0.10371
H	-4.39649251	-0.0235543015	 2.6243912722	 0.120575
H	-5.0153969493	-1.7178856213	 2.3301381588	 0.108728
H	-2.9108305487	-2.6439375091	 3.4645812117	 0.105847
H	-2.3315335388	-0.9280254343	 3.7290645768	 0.11697
16.5376	93.9523	140.3281	190.8971	245.4995	285.1797	327.8229	403.7423	439.7664	442.9954	528.5225	586.244	751.337	762.3448	776.6605	841.0826	874.0124	898.9154	905.2172	929.4912	965.1577	970.4479	991.2285	1013.0573	1041.6161	1052.6763	1069.3388	1105.8365	1125.2583	1152.9249	1187.4751	1189.249	1208.48	1261.5462	1293.5435	1302.0534	1320.5375	1349.9406	1374.6655	1383.0378	1407.4078	1413.374	1449.9524	1473.1971	1485.7396	1496.5082	1497.438	1504.234	1509.3393	2949.4075	3018.7693	3033.4685	3034.9759	3043.4841	3058.4265	3099.401	3100.3371	3107.2226	3122.0605	3124.3647	3128.0618	3210.269	3224.8058
CCC1CCC2(CC2)O1	CC[C@H]1CCC2(CC2)O1	
InChI=1S/C8H14O/c1-2-7-3-4-8(9-7)5-6-8/h7H,2-6H2,1H3	InChI=1S/C8H14O/c1-2-7-3-4-8(9-7)5-6-8/h7H,2-6H2,1H3/t7-/m0/s1
