20
gdb 93918	3.06161	1.13239	0.96553	3.4809	75.93	-0.2368	0.0299	0.2667	1280.4418	0.170852	-440.328691	-440.31918	-440.318236	-440.36362	34.387	
C	-0.022098636	 1.3186211977	-0.29985769	-0.494353
C	-0.0369389581	-0.1445916345	 0.1145322519	 0.381358
O	 0.9727468438	-0.7388744211	 0.4556906595	-0.37157
N	-1.2548018419	-0.7655567549	 0.0826369044	-0.085154
C	-2.5433163598	-0.1589441624	-0.2745257925	-0.179881
C	-3.5599294899	-1.2803796823	 0.0099754887	-0.244343
C	-2.7354747869	-2.5706351385	-0.1567351303	 0.122796
O	-2.6224752122	-2.9635865245	-1.5174159352	-0.438987
C	-1.3862755256	-2.1788439318	 0.4533031218	-0.191881
H	 1.0128524857	 1.6585963511	-0.3052307061	 0.147318
H	-0.459520594	 1.4644175229	-1.2929414585	 0.131039
H	-0.5966751589	 1.9320665603	 0.4025490738	 0.137304
H	-2.7459192834	 0.7411974959	 0.3149404617	 0.116303
H	-2.562609168	 0.136126331	-1.3325916497	 0.110198
H	-3.9250160434	-1.2064317482	 1.0396654185	 0.110916
H	-4.4182173273	-1.2583560069	-0.6634531832	 0.117718
H	-3.1897753609	-3.4202602935	 0.3579609618	 0.093449
H	-2.0066768941	-2.365373037	-1.9543010385	 0.286937
H	-0.5541761452	-2.7598132608	 0.0511215174	 0.1386
H	-1.3841102539	-2.3050475226	 1.5442803344	 0.112234
48.4605	103.951	130.5668	157.5582	173.3129	214.0192	279.6415	355.2641	390.4965	436.0156	522.4307	597.7869	623.2163	726.9632	809.5922	838.1267	866.0635	913.1961	961.9061	982.4939	1008.6127	1049.5918	1052.586	1083.3823	1118.4499	1190.8162	1202.8945	1213.5912	1223.4344	1297.943	1311.815	1325.2613	1363.176	1368.5562	1377.9252	1425.3521	1431.6372	1469.8963	1479.4759	1484.1753	1511.96	1531.2657	1760.9031	3004.1297	3017.0486	3040.7366	3050.7625	3064.5143	3095.0532	3101.1116	3112.8372	3126.1013	3162.2403	3807.2053
CC(=O)N1CCC(O)C1	CC(=O)N1CC[C@@H](O)C1	
InChI=1S/C6H11NO2/c1-5(8)7-3-2-6(9)4-7/h6,9H,2-4H2,1H3	InChI=1S/C6H11NO2/c1-5(8)7-3-2-6(9)4-7/h6,9H,2-4H2,1H3/t6-/m1/s1
