16
gdb 123820	3.65417	1.58422	1.13397	4.8565	77.31	-0.2138	-0.0145	0.1993	1021.7743	0.12862	-396.950594	-396.943973	-396.943028	-396.981549	26.314	
C	-0.0301034664	 1.4863638848	 0.1035428401	-0.260987
C	 1.3580720093	 2.1660086242	-0.027890346	-0.345482
C	 2.1626024011	 1.4184676752	-1.0389743525	 0.301297
C	 1.9842152846	 0.0810883579	-1.3224417904	 0.273477
C	 0.9301346156	-0.687653552	-0.6865815433	-0.144566
C	 0.0017654921	-0.0289646875	 0.0210577966	-0.087269
N	 2.9357778059	-0.3149158871	-2.2161999876	-0.280512
N	 3.6939733359	 0.7040050098	-2.5035117367	-0.126863
N	 3.2326002614	 1.7610173533	-1.783531417	-0.290809
H	-0.498916201	 1.8074310832	 1.0386900057	 0.111812
H	-0.6830898362	 1.8566855118	-0.7017831334	 0.123422
H	 1.2361884746	 3.223204832	-0.2843991885	 0.115651
H	 1.8814768111	 2.1359521358	 0.9389412734	 0.128734
H	 0.9207752805	-1.7662908101	-0.7948392282	 0.10761
H	-0.8077997852	-0.5675392842	 0.5032771167	 0.098042
H	 3.6967830465	 2.650810803	-1.8737440291	 0.276442
135.6583	209.6109	263.5182	385.266	426.2539	501.0044	572.2173	589.4367	677.9804	695.4119	720.2609	761.4406	816.7103	866.6879	922.97	987.7204	1014.6719	1024.768	1027.1793	1039.2212	1162.5898	1191.3716	1217.8866	1224.5929	1268.8959	1307.7687	1339.3613	1358.7269	1385.5072	1423.0185	1470.2255	1483.1748	1520.3387	1610.5401	1681.8682	2989.3694	3002.6805	3071.0806	3076.0595	3176.2091	3203.8144	3654.7516
C1CC2=C(C=C1)N=NN2	C1Cc2c(C=C1)nn[nH]2	
InChI=1S/C6H7N3/c1-2-4-6-5(3-1)7-9-8-6/h1,3H,2,4H2,(H,7,8,9)	InChI=1S/C6H7N3/c1-2-4-6-5(3-1)7-9-8-6/h1,3H,2,4H2,(H,7,8,9)
