18
gdb 55480	3.3132	1.15209	0.97217	4.7775	68.33	-0.2611	0.0108	0.272	1212.8188	0.150456	-476.25122	-476.243334	-476.242389	-476.284025	29.937	
O	-0.2282067001	-0.0833457178	 0.1140501189	-0.365331
C	-0.0528571562	 1.2473168055	 0.0312497561	 0.407066
O	 1.021052248	 1.7564086008	-0.1366294453	-0.336053
C	-1.3605856549	 2.0443976218	 0.105304546	-0.129722
C	-1.8110015585	 2.3426377204	-1.3395128546	-0.069029
O	-3.0846257718	 2.9497322121	-1.3750292621	-0.244679
C	-4.064206428	 2.1030732752	-0.7987500501	-0.064421
C	-3.7426032133	 1.8357718848	 0.6662109365	-0.166317
N	-2.398652361	 1.2461708203	 0.7742514384	-0.340416
H	-1.1884970528	-0.2148142676	 0.2554448255	 0.298781
H	-2.1611070594	 1.1503357358	 1.7572919185	 0.238964
H	-1.1504755887	 2.9981457412	 0.6083074	 0.102538
H	-1.1040672638	 3.03096951	-1.8058322473	 0.139345
H	-1.8220006184	 1.4017594374	-1.9143104569	 0.098701
H	-5.0239020867	 2.6171707582	-0.8941933987	 0.116381
H	-4.1169947715	 1.1508279604	-1.3513834857	 0.097689
H	-3.8177265886	 2.7855379137	 1.2196773382	 0.104107
H	-4.4687756941	 1.1354466376	 1.0918372925	 0.112395
84.4551	117.9642	193.1651	250.6135	317.058	365.2505	412.6916	464.9421	530.0944	569.3941	666.9102	726.6153	782.4778	850.6566	888.353	900.2542	915.6484	947.4369	1010.2689	1070.8344	1094.3736	1140.2706	1150.8146	1161.974	1213.817	1240.2536	1263.0664	1298.9099	1331.7606	1342.5212	1380.6888	1390.3977	1415.7514	1425.4777	1484.4726	1487.6118	1495.2382	1499.8	1874.0614	2970.4681	2974.9104	2984.9375	3018.6605	3074.2295	3101.3444	3122.1557	3504.4455	3535.1743
[O-]C(=O)C1COCC[NH2+]1	OC(=O)[C@H]1COCCN1	
InChI=1S/C5H9NO3/c7-5(8)4-3-9-2-1-6-4/h4,6H,1-3H2,(H,7,8)	InChI=1S/C5H9NO3/c7-5(8)4-3-9-2-1-6-4/h4,6H,1-3H2,(H,7,8)/t4-/m1/s1
