21
gdb 37331	3.11017	1.79427	1.71867	0.1401	83.37	-0.2498	0.0967	0.3465	920.0119	0.187677	-349.92902	-349.92285	-349.921906	-349.958938	28.375	
C	-0.0169519852	 1.5243317646	 0.1264288362	-0.300166
C	 1.3037022716	 0.8097924403	-0.0257022058	-0.024502
C	-0.0006934016	 0.0220111073	-0.0171335428	-0.024502
C	-0.0291990614	-0.6611469428	-1.4153248738	-0.043588
C	 1.4828926814	-0.9775098379	-1.5667436544	-0.224641
C	 1.9081250572	 0.5088875641	-1.4280534478	-0.043588
C	 1.0499851162	 1.2041446736	-2.488739338	-0.019133
C	 0.6060794617	 0.4508906174	-3.7187670018	-0.338282
C	-0.2553377515	 0.4158044217	-2.4801637568	-0.019133
H	-0.2379988312	 1.9011503091	 1.1208757629	 0.09954
H	-0.4000513179	 2.1500140942	-0.6687024465	 0.111445
H	 1.9792485921	 0.7850009516	 0.8225248866	 0.076976
H	-0.2850028536	-0.5824739112	 0.8374028136	 0.076976
H	-0.7074777289	-1.5149815354	-1.4666567727	 0.054594
H	 1.8532290989	-1.581656098	-0.7350154418	 0.089698
H	 1.7715517139	-1.4656217039	-2.5002209473	 0.088718
H	 2.9789926507	 0.711436702	-1.4908767108	 0.054594
H	 1.0567964268	 2.2879318662	-2.5212420292	 0.084431
H	 0.2251242761	 1.0729322985	-4.5225416609	 0.105912
H	 1.1336030187	-0.4264384663	-4.0736933323	 0.110219
H	-1.218010734	 0.914077035	-2.5062919265	 0.084431
298.1267	298.7861	370.5122	452.8599	514.7715	551.0288	586.2892	704.7555	744.0298	779.9643	792.7632	811.0855	829.6164	860.1658	888.2772	907.0168	916.5123	918.8042	967.8573	987.3853	1009.9281	1029.9934	1035.3668	1077.7214	1081.087	1083.5519	1088.9274	1098.886	1104.5615	1126.0505	1138.3688	1190.9247	1192.1243	1198.7713	1261.4324	1275.2976	1288.4564	1291.2283	1314.2055	1352.942	1361.9161	1383.0623	1476.7992	1484.4906	1525.5503	3066.8825	3089.4221	3093.7483	3111.5057	3133.3136	3135.5256	3156.8985	3163.6093	3166.9384	3172.8965	3212.3031	3225.3792
C1C2C1C1CC2C2CC12	C1[C@H]2[C@@H]1[C@@H]1C[C@H]2[C@H]2C[C@@H]12	
InChI=1S/C9H12/c1-4-5(1)9-3-8(4)6-2-7(6)9/h4-9H,1-3H2	InChI=1S/C9H12/c1-4-5(1)9-3-8(4)6-2-7(6)9/h4-9H,1-3H2/t4-,5+,6-,7+,8-,9+
