20
gdb 100557	2.96954	1.08007	0.92308	2.6374	76.99	-0.2382	0.0123	0.2504	1351.2986	0.169059	-440.284391	-440.274113	-440.273169	-440.32112	35.475	
C	-0.4008484628	 1.379088266	-0.193154923	-0.378221
C	 0.2658572158	 0.0422285445	 0.1420436288	-0.152659
N	 1.0057376152	-0.5309815351	-0.9829365977	-0.089135
C	 2.3836507376	-0.1033690684	-1.1563804077	-0.353651
C	 0.3252011048	-1.3183305814	-1.8642973641	 0.418936
O	-0.8735976286	-1.5346929023	-1.7657897284	-0.391932
C	 1.1451555203	-1.9487873632	-2.9785445206	-0.067071
C	 0.4969150666	-2.2456137219	-4.253337965	-0.155492
O	 1.3768956037	-1.1199547175	-4.1281339711	-0.23962
H	 0.3299807955	 2.126517	-0.5186933861	 0.115491
H	-1.1352682878	 1.2398306321	-0.9898776338	 0.147472
H	-0.916413469	 1.7755898872	 0.6871989127	 0.117404
H	 0.9694572343	 0.1577975994	 0.9742337208	 0.099132
H	-0.4943886112	-0.6841217145	 0.4354440244	 0.138777
H	 3.0369728495	-0.5359080729	-0.3871399649	 0.124525
H	 2.7578989711	-0.3820174674	-2.1400274546	 0.168858
H	 2.4510697699	 0.9880438265	-1.0810793716	 0.133912
H	 2.0064893548	-2.5431798459	-2.6712808023	 0.107542
H	 0.8738701497	-3.0610862088	-4.8677156295	 0.114652
H	-0.5570513994	-2.0054462065	-4.3627214864	 0.141079
34.2085	63.5266	81.9182	99.8878	169.2792	203.4723	240.0073	273.0407	341.7636	387.3902	400.1831	533.242	568.8694	708.8698	779.6188	791.9918	849.9955	887.6821	934.0714	1012.7414	1035.4882	1090.0931	1098.1683	1108.1598	1146.0316	1153.4377	1165.0081	1180.5921	1258.6184	1283.9573	1330.404	1391.8212	1409.5519	1409.9869	1454.8059	1469.7486	1484.745	1491.9845	1496.6907	1505.8185	1520.6337	1532.8862	1746.1334	3013.1995	3040.7761	3042.9312	3066.1638	3096.0779	3101.2456	3103.5313	3119.37	3134.5668	3163.2099	3200.7263
CCN(C)C(=O)C1CO1	CCN(C)C(=O)[C@H]1CO1	
InChI=1S/C6H11NO2/c1-3-7(2)6(8)5-4-9-5/h5H,3-4H2,1-2H3	InChI=1S/C6H11NO2/c1-3-7(2)6(8)5-4-9-5/h5H,3-4H2,1-2H3/t5-/m1/s1
