22
gdb 107920	3.77112	1.1138	1.04859	1.7473	85.99	-0.2183	0.0821	0.3005	1284.82	0.194351	-367.147288	-367.138582	-367.137638	-367.180468	34.064	
C	-0.532692594	 1.3613871274	-0.038577548	-0.372509
C	 0.3418520232	 0.1053992488	 0.0804363903	-0.309112
C	 0.8289281543	-0.3996256318	-1.2479443767	 0.339461
C	 0.0550065939	-1.1021980947	-2.3563136317	-0.230058
N	 1.3685740491	-1.5605421828	-2.9566622105	-0.180649
C	 2.0016672184	-1.2794653465	-1.5739320821	-0.103713
C	 2.0829671554	 0.1704146471	-1.955976114	-0.126544
C	 1.9649944817	-0.2353492862	-3.4185893698	 0.05352
C	 3.2788387309	-0.446429786	-4.1486001965	-0.399137
H	 0.024278122	 2.1862518708	-0.494626165	 0.118619
H	-1.4126302916	 1.1716389414	-0.6623297703	 0.118957
H	-0.8851512674	 1.6918629567	 0.9431568119	 0.111881
H	 1.2036112055	 0.3162516204	 0.7267522535	 0.098381
H	-0.2255993187	-0.6898238697	 0.5823494067	 0.100053
H	-0.4998587363	-1.9700558974	-1.9861977795	 0.100703
H	-0.5800412561	-0.5255577417	-3.0399405585	 0.092537
H	 2.6215256779	-1.9580401308	-1.0048135891	 0.092885
H	 2.676499397	 0.9532395897	-1.4972983817	 0.082687
H	 1.2716584147	 0.3383821665	-4.0476532543	 0.063616
H	 3.9736427057	-1.0357290523	-3.5418967911	 0.117787
H	 3.108384115	-0.979687985	-5.0886117885	 0.122092
H	 3.7545409395	 0.513610406	-4.3768645151	 0.108542
79.0286	129.4578	185.8326	230.7932	237.8394	271.1218	349.2227	383.8935	469.2425	497.4683	630.0946	749.656	776.3314	790.7273	809.6785	836.0909	864.4452	903.2942	924.5801	940.043	985.083	999.6319	1021.208	1029.1015	1066.8541	1078.0503	1092.6563	1118.4921	1139.0772	1152.1119	1184.136	1217.8285	1242.2954	1277.8365	1290.265	1331.5067	1350.8798	1382.0667	1408.271	1410.7832	1429.3314	1481.633	1489.2339	1493.5242	1497.7878	1506.9998	1513.6083	3012.5856	3013.1546	3025.9391	3034.0285	3034.714	3044.6338	3082.5549	3102.8836	3102.97	3107.6033	3112.9198	3174.7011	3212.3426
CCC12CN3C1C2C3C	CC[C@]12CN3[C@H]1[C@H]2[C@H]3C	
InChI=1S/C8H13N/c1-3-8-4-9-5(2)6(8)7(8)9/h5-7H,3-4H2,1-2H3	InChI=1S/C8H13N/c1-3-8-4-9-5(2)6(8)7(8)9/h5-7H,3-4H2,1-2H3/t5-,6-,7+,8-/m1/s1
