17
gdb 127432	2.64681	1.31995	0.89057	2.3751	81.11	-0.2496	-0.0597	0.1899	1276.5263	0.135572	-418.049958	-418.040883	-418.039939	-418.084512	31.54	
C	-0.0736310874	 1.4148793627	-0.0026367946	-0.334791
N	-0.0228741143	-0.0345130892	 0.0616225961	-0.028951
N	-0.0405285699	-0.7383816387	-1.0764930939	-0.305349
C	 0.0161348439	-2.030394877	-0.7156220997	 0.36243
C	 0.0142534457	-3.1052874414	-1.7568386857	-0.491794
C	 0.070851006	-2.1488059042	 0.6814802596	-0.364952
C	 0.0444597128	-0.8457035114	 1.1621666724	 0.286697
C	 0.0779584431	-0.3559946135	 2.5353586114	 0.075865
O	 0.1375065031	-1.0758354866	 3.5079713646	-0.270781
H	 0.8202650102	 1.8603949083	 0.4432862793	 0.14817
H	-0.1215107243	 1.6808489607	-1.0576930241	 0.168215
H	-0.9599042754	 1.8009240442	 0.5090811676	 0.148171
H	 0.9174607344	-3.7214532974	-1.6954450903	 0.134223
H	-0.8445611591	-3.7742942862	-1.6378276118	 0.1343
H	-0.0318357417	-2.6588592106	-2.752177536	 0.141673
H	 0.1228146924	-3.040735028	 1.2844210148	 0.129327
H	 0.0445350405	 0.7503484981	 2.6460559603	 0.067546
64.6137	90.5085	132.6361	171.7244	187.3876	204.6366	274.38	346.3783	394.0102	526.4392	643.7018	652.4926	675.5001	683.1179	851.3366	863.7165	994.2583	1026.9675	1030.274	1066.5803	1070.6333	1148.0054	1167.6556	1183.3898	1339.3388	1377.6845	1405.2585	1412.6396	1454.5145	1480.208	1484.2706	1485.7026	1488.6172	1504.2919	1512.0817	1578.2674	1783.6932	2885.9333	3039.4752	3047.3036	3092.6673	3110.1036	3134.6455	3169.3193	3272.9982
CN1N=C(C)C=C1C=O	Cn1nc(C)cc1C=O	
InChI=1S/C6H8N2O/c1-5-3-6(4-9)8(2)7-5/h3-4H,1-2H3	InChI=1S/C6H8N2O/c1-5-3-6(4-9)8(2)7-5/h3-4H,1-2H3
