13
gdb 130656	3.31116	1.84007	1.1934	4.2528	65.26	-0.2454	-0.0444	0.201	930.6619	0.093137	-448.973682	-448.967301	-448.966357	-449.004579	24.18	
O	-0.0040097784	-0.0366349168	-0.0130616123	-0.313814
C	-0.0010329908	 1.1595820426	-0.0105451166	 0.420479
C	-1.2193512304	 2.116210661	 0.0401760959	-0.299581
N	-0.6600596731	 3.4665815144	-0.0980128619	-0.421002
C	 0.6985457868	 3.3534955217	-0.0310652849	 0.509028
N	 1.7302966115	 4.1541708828	 0.0129052107	-0.385907
C	 2.7700125798	 3.2380345887	 0.0101139708	 0.052365
N	 2.4545776451	 1.9597876819	-0.0307003137	-0.249359
N	 1.0818383917	 2.0397127727	-0.0510653148	-0.05386
H	-1.911083579	 1.8717490678	-0.7706764695	 0.165465
H	-1.7393768799	 1.9712790145	 0.9935924227	 0.1614
H	-1.1121299946	 4.2572469537	 0.3332968747	 0.274471
H	 3.8029075614	 3.5545407549	 0.037753059	 0.140315
135.9884	191.1516	314.1941	320.6058	434.2111	556.0046	569.4623	629.8806	657.0272	696.2137	762.023	791.859	929.7396	965.5202	988.0944	1043.1465	1055.2765	1143.5506	1189.6019	1197.6465	1268.7545	1292.4562	1344.0684	1369.24	1432.1501	1474.4773	1525.7147	1671.6276	1881.4169	3053.2971	3102.062	3256.4845	3639.3941
O=C1CNC2=NC=NN12	O=C1CNc2ncnn12	
InChI=1S/C4H4N4O/c9-3-1-5-4-6-2-7-8(3)4/h2H,1H2,(H,5,6,7)	InChI=1S/C4H4N4O/c9-3-1-5-4-6-2-7-8(3)4/h2H,1H2,(H,5,6,7)
