13
gdb 33367	4.55932	0.53067	0.47673	0.63	101.67	-0.2473	-0.031	0.2163	2125.9026	0.085576	-345.040338	-345.030973	-345.030029	-345.075258	33.352	
C	-0.0860291798	-3.8192877718	-0.0176248244	-0.541329
C	-0.0494162588	-2.6127051426	-0.0114870183	 0.297448
C	-0.0094724742	-1.2524199244	-0.0045529046	-0.273619
C	 0.0262011028	-0.0444567239	 0.0016025133	 0.429596
C	 0.0565472292	 1.4167224306	 0.0091696041	-0.566004
C	 1.409212415	 1.9701078835	-0.0007991388	 0.429556
C	 2.5237606099	 2.4372283811	-0.0089434131	-0.27358
C	 3.7792619156	 2.9622541876	-0.0181004872	 0.297437
C	 4.8923584494	 3.4293441636	-0.0262102357	-0.541332
H	-0.1168138773	-4.880614566	-0.0230355312	 0.195165
H	-0.500332369	 1.797975515	-0.8592483968	 0.175747
H	-0.4835750759	 1.788558785	 0.8921341295	 0.175748
H	 5.8719491531	 3.8389086924	-0.033357097	 0.195167
41.6441	129.5762	132.0416	151.9875	211.5472	326.5581	340.9033	342.9975	445.6631	533.8095	535.7052	541.0881	543.8227	595.9992	596.7513	602.3269	603.0498	728.9006	742.6979	924.0638	1151.3897	1187.407	1224.8464	1336.0587	1440.8874	2186.0681	2187.0544	2371.1254	2376.1602	2999.1453	3023.7115	3503.9947	3504.4313
C#CC#CCC#CC#C	C#CC#CCC#CC#C	
InChI=1S/C9H4/c1-3-5-7-9-8-6-4-2/h1-2H,9H2	InChI=1S/C9H4/c1-3-5-7-9-8-6-4-2/h1-2H,9H2
