14
gdb 79231	2.79828	1.68789	1.35715	4.8113	65.55	-0.2675	-0.0138	0.2536	933.6765	0.101088	-436.622203	-436.615275	-436.614331	-436.653515	27.144	
O	 0.057141213	 1.414159639	 0.0185170062	-0.430573
C	-0.029140122	 0.0326617663	 0.0214271964	 0.148661
C	-1.3867406545	-0.6725112609	-0.0793843082	-0.191302
C	-1.6625362592	-0.742433446	-1.5824637942	 0.085673
O	-0.5984910648	-0.0491380829	-2.259808511	-0.327874
C	 0.3044707784	-0.7096998476	-1.3217512842	 0.27428
C	 1.6429318381	-0.9211943992	-1.8039846429	 0.167992
N	 2.7287121061	-1.1146012862	-2.1493081248	-0.32925
C	-0.792201737	-1.7744024356	-0.9580923316	-0.189916
H	-0.3295456743	 1.7100824512	-0.8173420844	 0.294253
H	 0.5678650658	-0.3575457104	 0.8477284321	 0.120883
H	-2.1590397351	-0.7554304684	 0.6727565048	 0.113788
H	-2.6350922297	-0.7859123335	-2.050782408	 0.132631
H	-0.7931882648	-2.8523288757	-0.9090652504	 0.130754
131.9424	167.805	227.7679	321.7326	477.7129	495.2686	512.6338	543.3322	601.1093	682.3314	771.5805	784.3743	789.6428	841.7096	913.8985	946.3842	954.7238	966.9687	1001.9583	1025.6643	1036.2324	1068.7056	1152.8767	1171.3946	1185.59	1262.29	1293.999	1313.2981	1361.3272	1438.9617	2361.5841	3113.5683	3219.6295	3230.4747	3245.9638	3757.8718
OC1C2C3OC1(C#N)C23	O[C@H]1[C@H]2[C@H]3O[C@]1(C#N)[C@@H]23	
InChI=1S/C6H5NO2/c7-1-6-3-2(5(6)8)4(3)9-6/h2-5,8H	InChI=1S/C6H5NO2/c7-1-6-3-2(5(6)8)4(3)9-6/h2-5,8H/t2-,3+,4-,5+,6-/m1/s1
