19
gdb 86900	3.26247	0.99934	0.86731	1.226	72.21	-0.2533	-0.0284	0.2248	1334.5053	0.158742	-460.178096	-460.169048	-460.168104	-460.21296	33.498	
O	-0.2207999005	 1.4865339455	 0.1846402737	-0.447022
C	-0.0231342252	 0.0758277962	 0.0520672965	 0.090057
C	 0.6874786923	-0.5430261775	 1.253461939	-0.273315
C	-0.4252081403	-0.6644821668	 2.3304695867	-0.078202
C	-1.7128198624	-0.9726246111	 1.5119322335	-0.27419
C	-1.3954481348	-0.644982887	 0.0175691748	 0.135764
O	-2.3814937441	 0.1204704824	-0.6286514734	-0.440896
C	-0.1089656403	-1.7445926827	 3.3374403301	 0.149345
O	 0.0654344743	-1.5754493894	 4.5150304533	-0.246446
H	-0.3928034718	 1.6910021644	 1.1105084676	 0.292703
H	 0.5281434717	-0.0467526733	-0.8834288903	 0.094902
H	 1.0491455183	-1.5424328989	 0.9783275615	 0.114316
H	 1.5497102841	 0.040180392	 1.5865560876	 0.123582
H	-0.5229979193	 0.270164249	 2.892374058	 0.086904
H	-2.0042133189	-2.0228442068	 1.6202213356	 0.110656
H	-2.5597777104	-0.3734986087	 1.8530610945	 0.122137
H	-1.2917155671	-1.580443089	-0.5445663037	 0.085489
H	-2.0910303739	 1.0398897038	-0.5353603094	 0.282944
H	-0.0434888718	-2.7643307323	 2.8841601345	 0.071271
30.7959	75.3213	130.2634	260.2394	281.696	296.3932	317.3627	363.8668	418.4596	445.054	534.1825	567.4115	666.2129	720.336	816.245	859.0148	866.5398	920.3244	946.9613	972.4863	1040.6191	1075.5763	1085.2633	1087.2175	1142.8796	1162.8525	1227.4886	1235.5072	1242.7142	1291.7661	1306.2399	1309.43	1332.5424	1349.5228	1365.9033	1421.715	1426.6169	1448.5091	1478.8227	1490.1937	1837.2398	2833.6964	3029.8167	3034.538	3052.0233	3053.0724	3089.4823	3103.4624	3111.8708	3719.2716	3804.8201
OC1CC(CC1O)C=O	O[C@H]1C[C@@H](C[C@H]1O)C=O	
InChI=1S/C6H10O3/c7-3-4-1-5(8)6(9)2-4/h3-6,8-9H,1-2H2	InChI=1S/C6H10O3/c7-3-4-1-5(8)6(9)2-4/h3-6,8-9H,1-2H2/t4-,5-,6+
