17
gdb 52916	2.54066	1.06674	0.86525	2.6239	79.63	-0.2407	-0.0357	0.2051	1393.8524	0.132689	-421.787204	-421.777354	-421.77641	-421.824737	33.161	
C	 0.0138881331	 1.6771982264	-0.1730951928	-0.502705
C	-0.0045261246	 0.2273247181	-0.0615529073	 0.117771
C	-0.0338108992	-0.9729707754	 0.045817798	-0.00149
C	-0.0203215817	-2.4205647219	 0.1144398672	 0.164778
C	 0.2879513524	-3.1130685267	 1.4626175448	-0.335485
C	-1.0894609459	-3.7765567205	 1.2823848229	-0.071335
O	-1.3461321246	-3.0343123494	 0.0614310565	-0.315339
C	 0.7582434486	-2.9875067675	-1.0810630328	 0.124062
O	 1.742718623	-3.6703816925	-0.9929340246	-0.246218
H	 0.7349081223	 2.0071478009	-0.9286681806	 0.156673
H	-0.9711691926	 2.0581634452	-0.4634639921	 0.159382
H	 0.286506384	 2.1457519436	 0.7785809504	 0.155473
H	 1.1574902306	-3.7684792147	 1.4203068187	 0.141787
H	 0.3662028045	-2.4286791544	 2.3058359616	 0.122864
H	-1.0767374266	-4.8569731666	 1.1018518555	 0.11453
H	-1.8370349904	-3.5466014876	 2.0483850488	 0.114583
H	 0.2886930272	-2.7362850369	-2.055322494	 0.10067
11.3252	62.5598	74.5387	104.5188	145.4756	248.3702	279.1448	314.2694	329.7222	446.7324	493.916	524.5181	667.9189	793.4641	833.57	887.2089	932.1368	989.1073	1002.5233	1031.9823	1049.7205	1051.8244	1053.6572	1155.3365	1186.6224	1220.6942	1249.9856	1272.594	1342.3866	1403.7657	1412.6723	1473.8014	1475.6643	1485.4556	1527.7211	1832.2073	2357.534	2917.9276	3030.6549	3034.615	3080.4401	3094.202	3094.8674	3101.6284	3164.5663
CC#CC1(CCO1)C=O	CC#C[C@]1(CCO1)C=O	
InChI=1S/C7H8O2/c1-2-3-7(6-8)4-5-9-7/h6H,4-5H2,1H3	InChI=1S/C7H8O2/c1-2-3-7(6-8)4-5-9-7/h6H,4-5H2,1H3/t7-/m0/s1
