19
gdb 95384	2.59635	1.79023	1.37025	2.8814	69.59	-0.2429	0.0607	0.3035	986.37	0.161903	-460.169475	-460.161926	-460.160981	-460.201448	29.767	
O	-0.4737502429	 1.4578633243	 0.4452868968	-0.424952
C	-0.0667836716	 0.1426279075	 0.0930026574	 0.076123
C	 0.6854181019	-0.5471290628	 1.2438439199	-0.244054
C	-0.4283284088	-0.8740633239	 2.2556153192	-0.231769
C	-1.5995478718	-1.34663809	 1.3680872877	 0.094236
O	-2.8844486221	-0.8630491743	 1.7343745771	-0.26445
C	-3.1691321472	 0.2289720645	 0.8829629802	 0.014367
O	-2.536824922	-0.0396885366	-0.3518054618	-0.245063
C	-1.3448945691	-0.729552358	-0.0445726461	 0.082153
H	 0.3185850916	 1.966622994	 0.6438022691	 0.284502
H	 0.5124749361	 0.1589338765	-0.8403228753	 0.063788
H	 1.1571438174	-1.4666766558	 0.8739381689	 0.10227
H	 1.4846402448	 0.0794199427	 1.6544817037	 0.092484
H	-0.133431654	-1.6163632698	 3.0006406214	 0.098202
H	-0.7330200347	 0.0326444083	 2.7850553303	 0.117497
H	-1.6614329713	-2.4384304727	 1.3391105551	 0.083947
H	-4.2502898274	 0.2821406032	 0.7230116283	 0.11113
H	-2.7888805841	 1.1685932185	 1.3078485998	 0.101944
H	-1.1879199848	-1.4887027954	-0.8159382816	 0.087645
92.1462	179.2111	242.1807	273.669	293.1348	391.862	415.6582	509.4342	577.2309	658.0552	739.1996	778.1528	825.7677	845.8001	896.1144	907.048	954.1325	991.2248	1000.3744	1036.0024	1044.2611	1099.4253	1118.5158	1129.849	1182.6506	1187.2837	1198.6621	1209.1731	1231.2657	1290.5309	1302.5745	1310.7692	1335.8739	1346.9894	1371.7878	1382.3735	1424.748	1432.9574	1483.7011	1493.3941	1545.1153	3002.7937	3006.8226	3030.4648	3055.5251	3066.2498	3073.0604	3077.8172	3085.9487	3118.8116	3821.4595
OC1CCC2OCOC12	O[C@H]1CC[C@H]2OCO[C@@H]12	
InChI=1S/C6H10O3/c7-4-1-2-5-6(4)9-3-8-5/h4-7H,1-3H2	InChI=1S/C6H10O3/c7-4-1-2-5-6(4)9-3-8-5/h4-7H,1-3H2/t4-,5+,6-/m0/s1
