15
gdb 70136	2.44061	2.06333	1.29165	1.4574	66.27	-0.2522	-0.0214	0.2308	941.7297	0.11416	-453.96981	-453.962406	-453.961462	-454.001548	28.504	
N	-0.1291725507	 1.4086434747	-0.0546970316	-0.563576
C	-0.0218806185	-0.0184695297	-0.0049482907	 0.115954
C	-0.5009795893	-0.7618147715	-1.2380863082	-0.312042
C	-1.3250970415	-0.844216533	 0.0105558693	-0.013698
N	-1.3580007634	-2.0776918533	 0.714661402	-0.229456
C	-0.2737067024	-2.5320129608	 1.1673568187	 0.116006
O	 0.9649756485	-1.9344220028	 1.1529041331	-0.21614
C	 1.0970627285	-0.6028085571	 0.7812268012	 0.38164
O	 2.0719575	-0.005294346	 1.1377077549	-0.320672
H	-0.0971341569	 1.7940617984	 0.8852785635	 0.242396
H	 0.6758067603	 1.7953582411	-0.5408536633	 0.245258
H	-0.8623740179	-0.1177592582	-2.0302815177	 0.144242
H	 0.0277325706	-1.6535582013	-1.5544001053	 0.138399
H	-2.245797056	-0.2739427777	 0.0391645314	 0.125047
H	-0.2107164415	-3.4965401429	 1.661566023	 0.14664
105.7702	183.4448	243.8336	287.992	318.7191	398.6162	458.8721	501.8669	539.2542	599.5534	669.8522	752.0531	829.8807	842.8507	893.2237	897.8092	911.1641	952.0879	1003.2331	1025.731	1084.3003	1094.9416	1128.1729	1162.5287	1266.4806	1294.1066	1313.2147	1392.1964	1411.2939	1465.2021	1670.6406	1734.8531	1853.6708	3146.4118	3189.4092	3195.6998	3245.1221	3488.6943	3557.5013
NC12CC1N=COC2=O	N[C@]12C[C@H]1N=COC2=O	
InChI=1S/C5H6N2O2/c6-5-1-3(5)7-2-9-4(5)8/h2-3H,1,6H2	InChI=1S/C5H6N2O2/c6-5-1-3(5)7-2-9-4(5)8/h2-3H,1,6H2/t3-,5-/m1/s1
