23
gdb 119034	2.37148	0.9802	0.79422	3.0472	82.82	-0.2462	0.069	0.3152	1539.6001	0.203699	-425.403113	-425.3921	-425.391156	-425.439491	39.926	
C	-0.0987989044	 1.4352101475	-0.2251278852	-0.418474
C	 0.1596515758	-0.0511017961	-0.0881142465	-0.050519
C	 1.5561936046	-0.61741951	-0.1068598607	-0.315969
C	 0.7218625935	-0.7300301894	 1.1533422061	 0.362356
C	 1.1231292159	 0.1204738832	 2.336766921	-0.164583
O	 2.2963659854	-0.4327930386	 2.9318944022	-0.414065
C	 0.1467997697	-2.1014820816	 1.4914442446	-0.289674
C	 1.1343663699	-3.1075175049	 2.0988523576	-0.064185
O	 0.563540494	-4.4081378191	 2.1980862248	-0.41931
H	 0.7106965007	 2.0420096669	 0.1895945077	 0.117708
H	-0.1885469914	 1.7035420078	-1.2837299388	 0.119623
H	-1.0300548405	 1.7337412781	 0.2700458566	 0.115132
H	-0.586469653	-0.6547627097	-0.5999213912	 0.082882
H	 1.7515565512	-1.5205394667	-0.6756279823	 0.111325
H	 2.3844663791	 0.0841351629	-0.0958790887	 0.111196
H	 1.3135865386	 1.1544780333	 2.020655213	 0.084403
H	 0.2951158257	 0.1484416312	 3.064292787	 0.081732
H	 2.4985918867	 0.0779080847	 3.7217641923	 0.284835
H	-0.7046188718	-1.9769302073	 2.178669457	 0.076564
H	-0.258450588	-2.5589502645	 0.5811451451	 0.10009
H	 2.0042220987	-3.2135235065	 1.4428174984	 0.111276
H	 1.5066365656	-2.7527184643	 3.0665891805	 0.101103
H	-0.1475604358	-4.364539247	 2.8449093695	 0.276551
56.4741	91.3763	102.4328	133.4273	169.5306	230.7104	244.9438	268.9126	290.5234	299.2405	321.2867	376.2623	440.0996	479.4768	548.9881	735.0306	786.2068	833.7349	884.1792	919.5284	943.3262	987.1416	1000.4166	1029.208	1041.448	1060.6488	1066.6846	1069.9074	1122.5918	1130.9961	1179.3188	1189.7172	1235.8769	1242.9066	1288.3586	1308.8724	1335.503	1362.6011	1395.985	1409.4525	1417.0397	1427.6928	1463.663	1479.0851	1491.4941	1496.9498	1507.2494	1513.4159	1519.7674	2964.2844	2987.6609	3022.6006	3030.1393	3039.0329	3053.9227	3084.7265	3091.5235	3104.0129	3126.4727	3131.98	3208.8908	3816.6395	3822.1469
CC1CC1(CO)CCO	C[C@H]1C[C@]1(CO)CCO	
InChI=1S/C7H14O2/c1-6-4-7(6,5-9)2-3-8/h6,8-9H,2-5H2,1H3	InChI=1S/C7H14O2/c1-6-4-7(6,5-9)2-3-8/h6,8-9H,2-5H2,1H3/t6-,7-/m0/s1
