18
gdb 83176	2.93005	1.45828	1.25968	2.8486	73.48	-0.2476	0.0197	0.2673	1060.6132	0.148417	-439.071948	-439.063909	-439.062965	-439.104767	30.513	
C	-0.5398797486	 1.3940707329	 0.0894388435	-0.402904
C	-0.0915301016	-0.0441571126	-0.0319226151	-0.07885
C	 0.7329647191	-0.5165080885	-1.2106908203	 0.043137
O	 1.1888830141	 0.4462960841	-2.1123533152	-0.243006
C	 2.6057744217	 0.5534575306	-2.0562733846	-0.172404
C	 3.0696870036	 0.994211475	-0.684763813	 0.393169
N	 4.0808107162	 1.7363403493	-0.5390140817	-0.514308
O	 2.3090672122	 0.5749639627	 0.3714647318	-0.239533
C	 1.3544395804	-0.4433791955	 0.1566673614	 0.037787
H	 0.1803744922	 2.0740621507	-0.3661244566	 0.139367
H	-1.5005530751	 1.5371009267	-0.4146878058	 0.123929
H	-0.6615843542	 1.6748334811	 1.1400952425	 0.122933
H	-0.8001142646	-0.7806984131	 0.3385954329	 0.094455
H	 0.5306878545	-1.4896311954	-1.6569692578	 0.096052
H	 3.0783356913	-0.4043553747	-2.3223774291	 0.117931
H	 2.9139977939	 1.3042643251	-2.7832597675	 0.150445
H	 4.2573094583	 1.908613304	 0.4531863136	 0.222745
H	 1.6012225965	-1.3475546926	 0.7041623209	 0.109056
73.7387	136.6422	160.6615	203.2685	286.7217	396.4993	434.1704	483.0306	522.9081	599.7257	614.9843	756.8796	772.694	802.3085	839.1464	906.6734	918.8423	973.5017	995.4832	1039.0781	1056.2286	1102.5471	1106.0233	1116.7703	1147.6847	1174.0075	1181.8959	1250.69	1274.2974	1304.86	1350.7223	1381.9374	1383.9499	1418.9386	1435.7016	1483.8161	1492.356	1500.3222	1765.9521	2994.0055	3047.3554	3103.8208	3106.1896	3136.4619	3143.7913	3150.7591	3157.43	3462.0594
CC1C2OCC(=N)OC12	C[C@H]1[C@H]2OC[C]([NH])O[C@@H]12	
InChI=1S/C6H9NO2/c1-3-5-6(3)9-4(7)2-8-5/h3,5-7H,2H2,1H3	InChI=1S/C6H9NO2/c1-3-5-6(3)9-4(7)2-8-5/h3,5-7H,2H2,1H3/t3-,5+,6-/m0/s1
