21
gdb 8422	3.3668	1.8132	1.53153	1.0329	78.54	-0.2248	0.0806	0.3054	949.3635	0.187743	-329.081777	-329.073292	-329.072348	-329.113803	33.184	
C	-0.1166476709	 1.5019810651	-0.3422161012	-0.314091
N	 0.1570362511	 0.10138192	-0.0660113286	-0.080009
C	 1.4322394076	-0.5341615619	-0.2781790589	-0.039276
C	 2.6275116492	 0.3311296035	 0.1731983311	-0.312834
C	 2.0546562547	 0.3276956012	 1.6362411052	 0.318425
C	 2.8673808147	-0.6186832487	 2.5277699241	-0.425648
C	 1.845886307	 1.6613537721	 2.3547972743	-0.455903
C	 0.8126804809	-0.439510039	 1.0991769085	-0.079412
H	 0.7533278925	 2.1705183408	-0.3019153957	 0.107469
H	-0.5426009116	 1.5746264119	-1.3487377593	 0.119012
H	-0.8654810111	 1.868876005	 0.3663755463	 0.122547
H	 1.4882053883	-1.378900597	-0.9573259276	 0.087925
H	 3.5860101871	-0.1875455532	 0.0971389005	 0.100621
H	 2.7244218182	 1.3043496688	-0.3176207785	 0.095914
H	 3.853251351	-0.1954544462	 2.7500725135	 0.111421
H	 2.3559670935	-0.7940543574	 3.4816919674	 0.110529
H	 3.0161693872	-1.5910154032	 2.0466178665	 0.113704
H	 1.2972781492	 2.3879564641	 1.7537225284	 0.114432
H	 1.2877663775	 1.5132826791	 3.2867337664	 0.112722
H	 2.8106571602	 2.1102586368	 2.6201857475	 0.110516
H	 0.2805214836	-1.195954942	 1.6710224701	 0.081934
145.3776	182.5021	193.8125	225.6477	262.2794	282.5886	348.9202	370.9161	388.4128	476.1579	580.6409	629.5315	720.9903	819.489	840.852	854.6208	906.7867	942.7311	964.3539	977.0057	987.6456	1037.6628	1045.4051	1055.5837	1123.0378	1149.3373	1182.5855	1199.6872	1219.7957	1234.2627	1268.2402	1274.827	1304.7285	1387.5038	1401.1288	1422.8888	1446.1504	1475.2768	1484.7481	1487.1907	1499.1053	1501.1469	1510.2605	1514.8114	3006.7437	3020.5756	3027.9634	3056.4723	3068.3513	3080.5721	3087.6437	3096.8976	3101.2889	3108.3558	3133.2437	3135.2748	3159.8141
CN1C2CC(C)(C)C12	CN1[C@H]2CC(C)(C)[C@@H]12	
InChI=1S/C7H13N/c1-7(2)4-5-6(7)8(5)3/h5-6H,4H2,1-3H3	InChI=1S/C7H13N/c1-7(2)4-5-6(7)8(5)3/h5-6H,4H2,1-3H3/t5-,6-,8?/m0/s1
