17
gdb 22276	3.72921	0.92026	0.81802	3.9374	72.91	-0.2478	-0.0035	0.2443	1387.5372	0.133929	-455.126411	-455.116975	-455.116031	-455.162001	33.49	
C	-0.24197204	 1.4719395719	 0.0254216685	-0.484179
C	 0.0209428872	-0.0076312699	 0.1084254175	 0.364261
N	 0.2670034541	-0.6394274679	 1.1903161877	-0.157974
O	 0.2516588807	 0.2054449822	 2.3060703888	-0.39357
C	 0.0069065109	-0.8131014373	-1.1661818618	-0.04596
C	-0.0691173069	-2.3630416731	-1.0755765512	-0.397341
C	-1.3939349019	-2.2364468704	-1.8629081087	 0.42951
O	-2.1981461711	-2.9881678459	-2.34077964	-0.35429
N	-1.3035905825	-0.8602788718	-1.844927479	-0.328766
H	 0.4361653093	 2.0181718143	 0.6853194727	 0.157361
H	-0.1258627023	 1.838485329	-0.9976617571	 0.118267
H	-1.2615579309	 1.6990064326	 0.3569158156	 0.153345
H	 0.4779443591	-0.3976295906	 3.0222863535	 0.310032
H	 0.804118348	-0.4517844462	-1.8301478397	 0.096072
H	 0.7156921635	-2.9013899771	-1.6085162235	 0.130732
H	-0.1706049732	-2.7489498459	-0.0625327828	 0.15302
H	-1.826417314	-0.1581686939	-2.3480983705	 0.249481
47.1511	54.5107	68.5017	170.7494	213.0467	300.6438	355.291	387.7967	397.9295	427.144	516.3131	537.5159	566.9299	654.9119	753.8248	785.1165	912.2076	953.1518	970.7474	1007.3437	1026.2848	1042.7731	1053.1385	1121.2855	1165.8394	1193.3838	1237.4417	1272.1023	1370.0402	1379.4456	1400.4155	1407.0535	1458.9347	1476.6378	1487.1659	1731.8674	1899.2443	3009.2026	3041.9517	3102.6481	3104.4292	3132.6128	3169.4174	3605.7488	3818.114
CC(=NO)C1CC(=O)N1	CC(=NO)[C@H]1CC(=O)N1	
InChI=1S/C5H8N2O2/c1-3(7-9)4-2-5(8)6-4/h4,9H,2H2,1H3,(H,6,8)	InChI=1S/C5H8N2O2/c1-3(7-9)4-2-5(8)6-4/h4,9H,2H2,1H3,(H,6,8)/t4-/m1/s1
