16
gdb 27345	2.06244	1.85012	0.98168	5.128	77.97	-0.219	-0.01	0.209	1159.7001	0.125667	-434.122077	-434.113856	-434.112912	-434.154704	31.186	
C	 0.096411773	 1.4579254745	-0.0012757948	-0.476741
C	-0.0517607542	-0.0242114837	-0.0244149784	 0.360302
C	-1.1763520956	-0.7406979721	-0.092786169	-0.216913
C	-1.1311511053	-2.2021172155	-0.1015378021	 0.328287
N	-2.2128576506	-2.8836937118	-0.165749868	-0.542713
N	 0.1467443039	-2.7840349063	-0.0299383469	-0.396369
C	 1.1702627488	-2.0182638188	 0.0190099966	 0.472219
N	 2.4461180282	-2.4954207925	 0.0245386657	-0.564238
O	 1.1785412463	-0.6538734064	 0.0333220069	-0.265336
H	 0.7003381302	 1.8005058457	-0.8489411938	 0.144767
H	-0.8825988198	 1.9370552084	-0.04888404	 0.14426
H	 0.6056425801	 1.7832618657	 0.9128871739	 0.142388
H	-2.1399694136	-0.2517536785	-0.1394427461	 0.117517
H	-1.9719764298	-3.8773822182	-0.1593477898	 0.208871
H	 2.5360749945	-3.4772347843	 0.2278266496	 0.275994
H	 3.1688590338	-1.8847894762	 0.3680964161	 0.267705
123.945	158.6645	177.6073	206.2109	283.973	344.4939	396.7655	478.1202	501.8987	531.5005	540.2515	560.0663	643.8303	703.6802	761.724	881.1411	902.6212	918.9618	922.5455	990.9216	1060.3506	1068.8669	1105.1012	1180.3663	1213.5498	1281.6735	1391.9294	1414.3962	1422.1852	1469.2178	1484.7747	1606.2581	1667.0567	1719.8334	1757.1582	3035.9381	3089.2402	3144.2755	3229.4719	3454.5228	3605.7924	3730.3632
CC1=CC(=N)N=C(N)O1	C[C@H]1C=C([NH])N=C(N)O1	
InChI=1S/C5H7N3O/c1-3-2-4(6)8-5(7)9-3/h2H,1H3,(H3,6,7,8)	InChI=1S/C5H8N3O/c1-3-2-4(6)8-5(7)9-3/h2-3,6H,1H3,(H2,7,8)/t3-/m0/s1
