21
gdb 59094	2.01677	1.51896	0.95458	4.0824	78.35	-0.2659	0.0131	0.279	1285.5975	0.180966	-424.27057	-424.260773	-424.259829	-424.305211	36.091	
C	-0.5470438731	 1.2090351136	 0.1846002825	-0.39666
C	-0.0411669051	-0.2385723514	 0.2597555566	 0.007736
C	-1.188513783	-1.2031210313	 0.5998516001	-0.397292
C	 0.6255907816	-0.6622956983	-1.0550034025	-0.203914
C	 2.0263310842	-0.1465734558	-1.4971527181	 0.115232
C	 2.8874800915	 0.6685919769	-0.5561903296	-0.407265
O	 2.5048664486	-1.540009907	-1.5636449914	-0.254778
C	 1.3102960038	-2.0312095769	-1.1119096169	 0.455283
O	 1.0365332302	-3.16659063	-0.8780441732	-0.332893
H	 0.256309843	 1.9198205355	-0.0303930207	 0.114863
H	-1.305633559	 1.3136257173	-0.6000810521	 0.116603
H	-1.0080149698	 1.5048193484	 1.1323348294	 0.119598
H	 0.7032645247	-0.3047468934	 1.0633864923	 0.082347
H	-1.9796558547	-1.1462616195	-0.1573748071	 0.112541
H	-0.8402794807	-2.2375020675	 0.6422277527	 0.151435
H	-1.6336137047	-0.9423418344	 1.5651516819	 0.11098
H	-0.1035953358	-0.5792832041	-1.8696763965	 0.108567
H	 2.0388770028	 0.2771706962	-2.5053090057	 0.097508
H	 2.8776139075	 0.2585336937	 0.4569953396	 0.132727
H	 3.9216349139	 0.6658028107	-0.9128968397	 0.137871
H	 2.5460101142	 1.7070703373	-0.5186424816	 0.129512
74.3024	93.9236	153.3276	199.7311	224.4595	234.8971	251.5744	304.2383	326.5883	357.3759	436.8998	477.6278	560.2733	672.1696	739.2662	810.8103	870.7064	880.1434	907.583	938.1704	970.9348	1032.3194	1037.9161	1051.1345	1121.6286	1141.0508	1158.337	1182.5064	1203.3124	1223.3541	1290.5022	1321.4093	1346.2036	1381.6952	1389.7732	1401.3503	1415.9347	1423.6548	1482.2938	1490.0706	1490.6323	1497.2235	1504.976	1512.5427	1920.3924	3020.9439	3028.8452	3033.241	3047.3056	3048.1029	3071.3013	3093.3915	3100.0906	3108.0281	3119.1248	3128.1	3131.2855
CC(C)C1C(C)OC1=O	CC(C)[C@H]1[C@@H](C)OC1=O	
InChI=1S/C7H12O2/c1-4(2)6-5(3)9-7(6)8/h4-6H,1-3H3	InChI=1S/C7H12O2/c1-4(2)6-5(3)9-7(6)8/h4-6H,1-3H3/t5-,6+/m1/s1
