15
gdb 55562	5.22205	0.79088	0.69271	5.0777	68.16	-0.2824	-0.0404	0.242	1536.5636	0.109906	-453.996932	-453.987418	-453.986474	-454.033041	32.12	
C	-0.0719886682	 1.4650780351	-0.414259007	-0.444137
C	-0.2629596028	 0.0954047571	 0.1581251445	 0.399931
N	-0.6251020871	-0.1463642682	 1.332525279	-0.470404
O	 0.03969474	-0.8476530978	-0.8678752662	-0.273844
C	-0.0305125622	-2.1864919819	-0.691106256	 0.474697
O	-0.3432804653	-2.766564828	 0.3099058814	-0.312519
C	 0.3636601053	-2.8555632698	-2.0090189837	-0.477616
C	 0.3292126666	-4.3109867634	-1.9465716624	 0.292885
N	 0.3116127011	-5.46464375	-1.9288183409	-0.288131
H	 0.9576613575	 1.5935398233	-0.7625082359	 0.146155
H	-0.7287377932	 1.6136129898	-1.2771610193	 0.146171
H	-0.2970605524	 2.2053996151	 0.3519719286	 0.160463
H	-0.6955468117	-1.1436548263	 1.5246146029	 0.266694
H	-0.3080942428	-2.4965192733	-2.7964656516	 0.189847
H	 1.3668949351	-2.5141887017	-2.2868082335	 0.189808
31.982	55.0939	102.8005	110.7914	167.6611	228.0815	333.1992	370.6031	386.0086	431.8173	534.6669	545.4075	574.8731	747.087	803.0704	915.1414	954.0668	962.7489	983.9977	1018.0207	1070.636	1081.2027	1173.9292	1217.1262	1292.4572	1349.6082	1407.7529	1434.644	1472.889	1475.7393	1767.1075	1850.6421	2381.8796	3051.047	3057.6599	3094.256	3109.618	3172.2662	3525.6062
CC(=N)OC(=O)CC#N	C[C]([NH])OC(=O)CC#N	
InChI=1S/C5H6N2O2/c1-4(7)9-5(8)2-3-6/h7H,2H2,1H3	InChI=1S/C5H6N2O2/c1-4(7)9-5(8)2-3-6/h7H,2H2,1H3
