21
gdb 111286	3.01813	1.1804	1.00392	1.3839	78.13	-0.2371	0.0651	0.3022	1265.6805	0.181235	-424.194208	-424.184677	-424.183733	-424.228083	36.524	
C	-0.0264492384	 1.5732356956	-0.0284678902	-0.385342
C	-0.1363224738	 0.045736033	 0.0439048823	-0.185944
C	 0.6699446258	-0.54676868	 1.1980606246	-0.014904
C	 0.6960759787	-2.0658221471	 1.4043133446	-0.168865
C	 1.3629071298	-2.746083418	 0.2292531703	-0.332277
C	 2.2302085989	-2.0828185085	 1.2487345733	 0.376443
O	 3.208799206	-2.837717871	 1.8676736909	-0.459627
C	 2.2529524715	-0.567352967	 1.0829437247	 0.037549
O	 2.8977509713	-0.0027054951	-0.03595491	-0.427032
H	 1.0134451436	 1.8760275933	-0.1775423226	 0.138154
H	-0.6217069243	 1.9754644079	-0.8542420046	 0.10688
H	-0.3860251627	 2.0381533388	 0.8966943143	 0.107779
H	-1.1867763229	-0.2498966673	 0.1619791955	 0.095619
H	 0.1904935865	-0.3850366321	-0.9101999214	 0.082792
H	 0.3829110237	-0.0372567334	 2.124930021	 0.06682
H	 0.0756381201	-2.6202496737	 2.0977324287	 0.089637
H	 1.3975867236	-3.828664953	 0.2960110734	 0.125187
H	 1.249874967	-2.3751520748	-0.7874301472	 0.097212
H	 3.3926064167	-2.4463143722	 2.7289060819	 0.284255
H	 2.7005778801	-0.0791975123	 1.9552164722	 0.081117
H	 2.7545354889	-0.5856072632	-0.7886745718	 0.284547
97.9577	114.0088	164.1393	221.1344	230.0356	262.5309	293.1009	323.4996	346.5491	375.2392	492.261	504.514	595.7357	649.289	712.7975	780.0221	813.7528	849.6144	908.6097	939.3345	965.3942	983.14	1013.3865	1024.8907	1071.1528	1086.2122	1100.5536	1133.9899	1154.1172	1190.4108	1199.6958	1234.6795	1277.093	1297.3746	1298.8894	1324.5951	1343.6325	1391.4945	1407.5229	1411.9315	1447.963	1484.2484	1498.4843	1506.3265	1514.5044	3021.81	3031.0094	3032.5752	3052.6291	3059.7158	3096.2573	3101.5364	3120.882	3186.6829	3200.7577	3796.0042	3817.419
CCC1C2CC2(O)C1O	CC[C@H]1[C@H]2C[C@@]2(O)[C@H]1O	
InChI=1S/C7H12O2/c1-2-4-5-3-7(5,9)6(4)8/h4-6,8-9H,2-3H2,1H3	InChI=1S/C7H12O2/c1-2-4-5-3-7(5,9)6(4)8/h4-6,8-9H,2-3H2,1H3/t4-,5+,6-,7-/m0/s1
