21
gdb 121242	2.94746	0.90202	0.74841	3.5082	75.73	-0.2462	0.0606	0.3069	1569.8683	0.180915	-461.329021	-461.318962	-461.318018	-461.365184	35.52	
C	-0.0954599732	 1.4738232509	-0.106499012	-0.38657
C	 0.3091589164	 0.0103293889	-0.1284553913	-0.041419
O	 0.2393664852	-0.4944516434	 1.1954425853	-0.249826
C	 0.5568968161	-1.8522441128	 1.3006221421	 0.069803
C	 2.0524056719	-2.2522945214	 1.3494294607	-0.103524
O	 1.8744624368	-2.8786668804	 2.6399028413	-0.305981
C	 0.5040687298	-2.3978882584	 2.7424992497	 0.067823
C	 0.3946993626	-1.3932068379	 3.8807748497	-0.059806
O	 0.8253645249	-2.0000376575	 5.0851559665	-0.426365
H	 0.5775489182	 2.0483829112	 0.5359513768	 0.130103
H	-0.0563897726	 1.8944384761	-1.1155667635	 0.11842
H	-1.1132842858	 1.5836888094	 0.2778829514	 0.130354
H	-0.3599822747	-0.5709206189	-0.7843975763	 0.091771
H	 1.3305287065	-0.1021647448	-0.5267019187	 0.093106
H	-0.0267938462	-2.4443118297	 0.5818640812	 0.078122
H	 2.4070651991	-2.9667685732	 0.5986163397	 0.105889
H	 2.7334268671	-1.3926345564	 1.3922571243	 0.1058
H	-0.1812490114	-3.2360005874	 2.9136110818	 0.085657
H	 0.9802144726	-0.4946449935	 3.6425776958	 0.094776
H	-0.6463659169	-1.0862055565	 4.022097331	 0.11122
H	 1.6915131438	-2.3791875543	 4.8891976443	 0.290646
61.0042	78.8421	89.7958	108.2976	123.5753	226.2091	248.0961	301.9944	351.1144	438.6032	470.2605	509.9626	546.0974	781.5285	821.8911	841.1567	876.9056	922.1905	931.0633	1014.631	1040.9298	1056.3581	1075.1972	1089.4049	1119.7187	1152.0889	1164.1138	1187.0297	1202.9232	1212.963	1271.3157	1284.2674	1298.0492	1326.5357	1343.998	1381.0588	1394.4126	1405.64	1434.0405	1444.6866	1483.6362	1499.3069	1500.7713	1513.7396	1527.747	2962.9417	2991.1831	3001.4462	3011.2468	3017.6433	3044.8981	3047.0269	3072.5916	3086.614	3122.215	3124.5438	3776.9378
CCOC1COC1CO	CCO[C@H]1CO[C@H]1CO	
InChI=1S/C6H12O3/c1-2-8-6-4-9-5(6)3-7/h5-7H,2-4H2,1H3	InChI=1S/C6H12O3/c1-2-8-6-4-9-5(6)3-7/h5-7H,2-4H2,1H3/t5-,6-/m0/s1
