21
gdb 121127	2.40252	1.26149	1.06706	1.098	75.38	-0.2453	0.0845	0.3298	1267.3463	0.18143	-461.355595	-461.345898	-461.344954	-461.391136	34.508	
C	 0.2914064231	 1.0745927461	-0.2392141819	-0.224529
O	 0.0920371295	-0.3165019458	-0.1512904547	-0.231409
C	-1.245617818	-0.6641831914	 0.1156085187	-0.087034
C	-1.3806849208	-2.1844911119	 0.1903431795	 0.205581
O	-1.0138043684	-2.8264773789	-1.0094192601	-0.264065
C	 0.3358551839	-3.2482224004	-0.853976549	-0.112893
C	 0.4590589991	-3.5226889244	 0.6531784639	 0.134453
C	 1.8045546817	-3.1555681909	 1.2574837725	-0.405322
O	-0.5712011219	-2.7072170434	 1.2232815103	-0.285716
H	 1.3519409415	 1.2415090429	-0.4421989685	 0.127437
H	-0.3016973084	 1.5208457067	-1.0527539466	 0.107219
H	 0.02406231	 1.5836430079	 0.7000046974	 0.107387
H	-1.5832846707	-0.2343070655	 1.0737011119	 0.092427
H	-1.9157006192	-0.2920154317	-0.6771931732	 0.091788
H	-2.4361293972	-2.4264266902	 0.385887861	 0.082157
H	 0.4863415437	-4.1403682033	-1.4672971755	 0.106859
H	 1.0302273216	-2.4608182886	-1.1700230205	 0.109214
H	 0.2201624372	-4.5748004446	 0.8660320849	 0.07518
H	 2.0120341964	-2.097964009	 1.0739849878	 0.135926
H	 1.8030654323	-3.3302820426	 2.3368445502	 0.124049
H	 2.6033551446	-3.761128821	 0.8155765821	 0.11129
38.7017	76.1451	112.9125	162.5637	205.1969	233.3238	240.3727	323.6276	345.8411	367.3421	452.2309	635.3499	657.3756	799.2466	834.7943	861.0962	904.9683	948.7843	959.1899	1027.764	1043.4994	1069.2671	1105.7807	1130.9172	1156.0574	1170.8954	1184.7305	1206.4305	1228.968	1246.573	1264.8961	1325.9047	1363.8295	1374.5492	1400.7919	1404.8568	1411.9646	1415.7973	1475.567	1485.0436	1485.2105	1495.1744	1502.3102	1511.9223	1521.7496	2956.9864	2974.6824	2992.5031	2996.6008	3000.6091	3018.8201	3034.0507	3040.0191	3099.6933	3110.5162	3115.0558	3129.5962
COCC1OCC(C)O1	COC[C@H]1OC[C@@H](C)O1	
InChI=1S/C6H12O3/c1-5-3-8-6(9-5)4-7-2/h5-6H,3-4H2,1-2H3	InChI=1S/C6H12O3/c1-5-3-8-6(9-5)4-7-2/h5-6H,3-4H2,1-2H3/t5-,6+/m1/s1
