14
gdb 99468	2.47825	1.21532	0.87093	2.0566	69.14	-0.2853	-0.0867	0.1986	1258.3186	0.097686	-436.662193	-436.652636	-436.651691	-436.697839	32.716	
O	 0.1555283027	 1.4144144077	-0.197686997	-0.419015
C	 0.1445501285	 0.0078052413	-0.1789909407	-0.067005
C	-1.2677562927	-0.5493209605	 0.1356725457	-0.274174
C	-2.2270717903	-0.1089116364	-0.8758720985	 0.260445
N	-2.9361140639	 0.2713830566	-1.7059386222	-0.318033
C	-1.2593621265	-2.0859788073	 0.2926987581	 0.238874
O	-0.2211126218	-2.7031532753	 0.3200773298	-0.277287
C	-2.55223119	-2.7120134824	 0.4463088614	 0.267887
C	-3.6402790863	-3.2085048674	 0.5793741191	-0.374302
H	-0.3253279004	 1.7146179201	-0.9772848014	 0.300432
H	 0.5042093908	-0.432642123	-1.1175342246	 0.123856
H	 0.819809954	-0.3106221585	 0.6168359132	 0.142316
H	-1.5942617652	-0.1334750819	 1.0993677491	 0.166743
H	-4.598265539	-3.6569211331	 0.6919034381	 0.229264
27.8516	96.0339	110.1957	142.8862	202.5298	224.6605	259.3156	367.3376	379.7542	439.7184	473.2239	549.8818	623.3141	661.3621	688.7736	725.691	836.2481	885.9594	1023.7044	1057.7497	1078.335	1140.5271	1199.2111	1245.7428	1313.3609	1390.8872	1411.0849	1497.8854	1776.6127	2216.3336	2353.9766	3023.2141	3035.8422	3126.5204	3490.6002	3802.7389
OCC(C#N)C(=O)C#C	OC[C@@H](C#N)C(=O)C#C	
InChI=1S/C6H5NO2/c1-2-6(9)5(3-7)4-8/h1,5,8H,4H2	InChI=1S/C6H5NO2/c1-2-6(9)5(3-7)4-8/h1,5,8H,4H2/t5-/m1/s1
