18
gdb 26082	3.28235	1.16352	1.01326	1.8773	83.92	-0.2029	0.0339	0.2368	1225.4609	0.147396	-364.809151	-364.800441	-364.799497	-364.843117	32.876	
C	 0.0186724978	 1.4610069529	-0.1461520391	-0.376078
C	-0.0064744416	-0.0650165789	 0.0735837418	-0.163977
C	 0.7110392455	-0.4349411491	 1.2955322057	 0.337831
C	 1.3193020958	-0.698790776	 2.297036434	-0.453823
N	-1.371298661	-0.5896156343	 0.0732462702	 0.036028
C	-2.2689310159	-0.515192089	 1.1119407309	-0.088922
C	-3.4751538779	-1.0072301263	 0.6714324324	-0.172117
C	-3.3074747402	-1.3880850627	-0.6887118862	-0.179749
C	-2.0032584435	-1.1164708635	-1.0286850959	-0.08922
H	 1.0504530054	 1.8178517286	-0.2014179602	 0.130148
H	-0.4963576967	 1.7071104005	-1.0782880731	 0.130534
H	-0.4834939727	 1.9718351326	 0.6787039973	 0.137787
H	 0.4975668275	-0.5437190409	-0.7743083909	 0.124165
H	 1.8534633174	-0.9510333867	 3.1798617421	 0.204712
H	-1.960399562	-0.140204491	 2.0741444681	 0.124278
H	-4.3728413066	-1.0968704765	 1.2638909263	 0.092886
H	-4.0516944098	-1.8229348896	-1.3381680079	 0.093099
H	-1.4652147013	-1.2527011599	-1.9538364252	 0.112419
37.8464	101.756	161.5218	194.6211	238.6855	330.3621	372.4836	467.0017	544.6234	622.2862	634.3415	640.8927	669.0315	682.1728	715.2253	742.769	800.7147	848.8753	862.1973	885.9708	965.7767	1010.2346	1073.6199	1085.8538	1103.3042	1110.2707	1127.0888	1265.4929	1299.2585	1320.7587	1325.7769	1402.9109	1423.8001	1437.7196	1487.3184	1493.4944	1522.0635	1562.5881	2242.1639	3040.1482	3049.9995	3130.5063	3136.8489	3238.8593	3249.5787	3262.9605	3275.0723	3502.4569
CC(C#C)N1C=CC=C1	C[C@@H](C#C)n1cccc1	
InChI=1S/C8H9N/c1-3-8(2)9-6-4-5-7-9/h1,4-8H,2H3	InChI=1S/C8H9N/c1-3-8(2)9-6-4-5-7-9/h1,4-8H,2H3/t8-/m0/s1
