23
gdb 55849	3.21929	0.82141	0.79141	2.781	87.53	-0.2343	-0.0067	0.2275	1603.7645	0.202449	-388.310052	-388.299175	-388.298231	-388.347173	39.44	
C	-1.060403981	 0.763652516	 0.0202127375	-0.479484
C	 0.2311188766	-0.023514049	 0.141721418	 0.390442
O	 0.8558168332	-0.0800620815	 1.1757075747	-0.305084
C	 0.6951490133	-0.7822711973	-1.1024724141	-0.321794
C	 0.1563394217	-2.2063615583	-1.0637508758	-0.019713
C	-1.1912756095	-2.5726597366	-1.6507790543	-0.327451
C	 0.0759684013	-3.1139522234	-2.2755271379	 0.325427
C	 0.4846489043	-2.6071509196	-3.6460447382	-0.452974
C	 0.3989827893	-4.5801846862	-2.0495646654	-0.447664
H	-0.926633561	 1.5884552163	-0.6900202723	 0.137497
H	-1.8581662921	 0.1279218126	-0.3789724455	 0.143562
H	-1.3505418551	 1.1638179036	 0.9924502903	 0.139353
H	 0.3644141848	-0.2665801264	-2.0089415225	 0.096733
H	 1.7898936086	-0.7973259781	-1.0890346947	 0.120905
H	 0.4134572828	-2.713572553	-0.1368562233	 0.097976
H	-1.8341636127	-3.2493701248	-1.0971167954	 0.10976
H	-1.7285151704	-1.8032606826	-2.1982081898	 0.103216
H	 0.205181257	-1.5630840658	-3.808960836	 0.112469
H	 1.5682060874	-2.6902938132	-3.7925873011	 0.116612
H	 0.0009823747	-3.2001925212	-4.4309728904	 0.115908
H	-0.1095282265	-5.212379777	-2.7873505414	 0.113939
H	 1.4757542546	-4.7661044453	-2.1403118097	 0.11611
H	 0.0856738787	-4.9111712094	-1.0546514727	 0.114257
21.3779	59.5992	116.599	151.9955	185.8542	189.6211	219.1896	253.3809	359.2467	365.7764	380.276	419.1328	461.2246	531.4865	584.8586	694.0225	798.2988	813.0457	868.1347	897.3186	917.6961	936.0319	972.4379	996.8662	1026.3631	1050.2104	1062.4282	1083.6088	1127.4002	1149.0705	1166.4497	1192.468	1252.9408	1277.8072	1310.8139	1336.7875	1377.298	1412.7545	1417.594	1427.3585	1461.427	1471.4607	1476.824	1482.49	1492.3143	1492.8557	1501.629	1514.4917	1813.7607	3019.5296	3025.7498	3033.3975	3044.1851	3078.2153	3081.8406	3094.28	3096.3206	3100.4195	3110.9181	3118.3543	3136.7907	3151.3729	3201.5227
CC(=O)CC1CC1(C)C	CC(=O)C[C@H]1CC1(C)C	
InChI=1S/C8H14O/c1-6(9)4-7-5-8(7,2)3/h7H,4-5H2,1-3H3	InChI=1S/C8H14O/c1-6(9)4-7-5-8(7,2)3/h7H,4-5H2,1-3H3/t7-/m0/s1
