21
gdb 123213	10.49076	0.38993	0.38071	3.9056	81.68	-0.2478	0.0229	0.2707	2709.9522	0.181498	-420.401554	-420.390577	-420.389633	-420.43923	37.272	
O	-0.0514659928	 1.4520738337	-0.0026522894	-0.420801
C	 0.0351433373	 0.0358423269	-0.0010099611	-0.074736
C	-1.3836026457	-0.5180254109	 0.0066605921	-0.165195
C	-1.4241213634	-2.0482982369	 0.0056151794	-0.207865
C	-2.8490448068	-2.5989644202	 0.0093556357	-0.123082
N	-2.8440571838	-4.0599464504	 0.0441538758	-0.300159
C	-4.1869379101	-4.6245662561	 0.0146651498	-0.259756
C	-4.1458351108	-6.0896599346	-0.0015944584	 0.255547
N	-4.1147271757	-7.2435828257	-0.0386171045	-0.297846
H	 0.8413142776	 1.8090259306	 0.0004063251	 0.286716
H	 0.5731134562	-0.3328266699	-0.8902626085	 0.084483
H	 0.5819167263	-0.3307896811	 0.883344658	 0.086893
H	-1.9027879426	-0.1262530007	 0.8899161905	 0.108669
H	-1.9137497245	-0.1217853495	-0.8680580428	 0.107381
H	-0.894321498	-2.4295742179	-0.8792179771	 0.094792
H	-0.8938806337	-2.446617118	 0.8787734465	 0.11484
H	-3.3776166944	-2.2451934849	 0.9047927212	 0.109689
H	-3.4060675221	-2.197187299	-0.8587412248	 0.083918
H	-2.311433233	-4.4207218702	-0.741673203	 0.229326
H	-4.7237263921	-4.3052234509	 0.9170293827	 0.156853
H	-4.8004901177	-4.2931372642	-0.8442107471	 0.130331
40.9455	67.1953	77.9819	103.9122	141.8757	156.1166	162.2785	258.2905	263.3969	302.8991	394.2257	424.4404	495.1839	583.4867	753.3122	778.2205	813.9244	935.741	944.5706	994.6835	1012.2738	1030.7864	1065.5169	1076.4445	1112.7215	1146.0855	1176.0727	1207.1857	1230.6251	1261.6114	1293.4415	1300.7854	1317.1994	1327.3206	1351.1739	1384.9894	1426.1448	1466.8925	1489.1474	1491.5318	1496.959	1501.3515	1522.0357	1530.5301	2368.4901	2920.0802	2930.4079	2958.0144	2983.2775	3007.0648	3028.0196	3033.9523	3045.6021	3056.1859	3080.1355	3514.3047	3831.2968
OCCCCNCC#N	OCCCCNCC#N	
InChI=1S/C6H12N2O/c7-3-5-8-4-1-2-6-9/h8-9H,1-2,4-6H2	InChI=1S/C6H12N2O/c7-3-5-8-4-1-2-6-9/h8-9H,1-2,4-6H2
