12
gdb 5419	3.82655	2.01244	1.31884	3.0952	59.45	-0.2263	-0.0342	0.1921	835.5209	0.084808	-414.700755	-414.694285	-414.693341	-414.731575	23.693	
N	-0.0731517643	 1.2970502185	 0.0105499328	-0.582595
C	-0.0059898523	 0.0382092607	 0.0035123889	 0.498121
O	 1.123522926	-0.7484504002	-0.007552646	-0.222166
C	 0.7225269913	-2.0754792258	-0.0120823403	-0.042239
C	-0.6061187095	-2.1641075726	-0.0043955423	-0.102338
N	-1.0958223384	-0.846568269	 0.0055343472	-0.143556
C	-2.4341661193	-0.476041067	 0.0157005144	 0.16733
O	-3.3326848337	-1.2801257701	 0.0172615329	-0.303134
H	 0.8523966083	 1.7172096862	 0.0070900504	 0.241147
H	 1.507080062	-2.8112011887	-0.0207691673	 0.164976
H	-1.2794927845	-3.002018502	-0.0046743503	 0.182329
H	-2.5495684054	 0.6175714799	 0.0224230496	 0.142125
126.4936	198.7642	212.1993	296.4515	397.8754	579.3657	582.564	705.2479	711.9964	751.5251	774.113	824.654	836.2806	919.8773	993.1111	1041.6986	1052.2533	1133.0353	1180.9793	1266.0863	1306.4557	1416.5049	1433.0469	1671.4124	1787.3835	1810.3948	3048.461	3298.4544	3323.1743	3546.661
N=C1OC=CN1C=O	[NH][C@@H]1OC=CN1C=O	
InChI=1S/C4H4N2O2/c5-4-6(3-7)1-2-8-4/h1-3,5H	InChI=1S/C4H5N2O2/c5-4-6(3-7)1-2-8-4/h1-5H/t4-/m0/s1
