17
gdb 27890	1.98222	1.75538	0.93702	2.144	81.04	-0.2001	0.0006	0.2007	1216.0338	0.13753	-418.098047	-418.08962	-418.088676	-418.131488	32.272	
C	-0.0646719586	 1.535100143	 0.0251543454	-0.491068
C	-0.0033426889	 0.0290664586	 0.0048764382	 0.360346
C	 0.0398367138	-0.6597760107	-1.2080783887	-0.329637
C	 0.1174380474	-2.0486943031	-1.1588399975	 0.442947
O	 0.1566332528	-2.7413647312	-2.319273325	-0.423803
N	 0.1487933261	-2.7643688659	-0.0384462424	-0.441239
C	 0.1125610118	-2.0988630537	 1.1235642331	 0.387179
N	 0.2066914836	-2.8715629142	 2.2659983099	-0.566899
C	 0.0327501126	-0.7005670314	 1.189878986	-0.294493
H	 0.9137909109	 1.965672245	-0.2181733018	 0.139644
H	-0.7752388588	 1.912181614	-0.7168037234	 0.132449
H	-0.3589064765	 1.9124535697	 1.0078250929	 0.12288
H	 0.0102222318	-0.150342516	-2.1629035293	 0.09324
H	 0.2110703641	-3.6730931792	-2.0661436375	 0.291801
H	-0.0132763692	-3.8452377341	 2.1199909003	 0.251447
H	-0.1853407992	-2.4809483367	 3.1076488496	 0.249682
H	 0.0069023762	-0.2003123541	 2.15185311	 0.075526
36.5969	189.0765	201.1394	248.2287	286.005	327.1658	388.0454	510.5935	517.6527	523.7329	532.6714	566.7158	584.8639	627.93	700.6211	771.3267	828.2019	840.7233	976.0508	997.5341	1005.1855	1057.7157	1059.3322	1133.537	1172.9605	1213.6672	1291.0922	1348.7781	1406.9879	1429.3416	1469.9674	1486.652	1498.7148	1530.9064	1617.4637	1637.6796	1668.0077	3034.3647	3092.3955	3119.3884	3180.9618	3207.887	3582.9156	3697.3663	3770.4606
CC1=CC(O)=NC(N)=C1	Cc1cc(O)nc(N)c1	
InChI=1S/C6H8N2O/c1-4-2-5(7)8-6(9)3-4/h2-3H,1H3,(H3,7,8,9)	InChI=1S/C6H8N2O/c1-4-2-5(7)8-6(9)3-4/h2-3H,1H3,(H3,7,8,9)
