19
gdb 115550	2.02265	1.54475	1.1355	1.7552	78.5	-0.2384	0.0311	0.2695	1168.2325	0.156014	-422.964182	-422.954378	-422.953434	-422.998661	36.26	
C	 0.3871031084	 0.9881258447	-0.3663516085	-0.241846
O	-0.3371469627	 0.1939800308	 0.5541252888	-0.228335
C	 0.4660531487	-0.5519099546	 1.4038933186	 0.13881
C	-0.2930897044	-1.4911482533	 2.3568508964	-0.277228
C	 0.802949094	-2.564458671	 2.1231501889	-0.273702
C	 1.2342522286	-1.808067247	 0.8215364756	 0.171036
O	 0.5213790256	-2.251741731	-0.3222292722	-0.45794
C	 2.660215439	-1.6865870506	 0.5607886767	 0.268761
C	 3.8424187758	-1.6035611552	 0.3509183394	-0.457865
H	 0.9661340867	 0.3676921827	-1.0612832716	 0.128154
H	-0.3448028819	 1.5701937604	-0.9309846048	 0.125342
H	 1.0722873049	 1.6785742932	 0.1493630607	 0.102608
H	 1.189893351	 0.0828529581	 1.9385474547	 0.07198
H	-0.460341431	-1.1422701777	 3.3767837979	 0.101734
H	-1.2445062838	-1.7805160073	 1.9070819986	 0.1285
H	 1.5878845516	-2.5494240855	 2.8822936921	 0.113367
H	 0.4737301217	-3.5927113204	 1.9615739994	 0.106644
H	 0.9579662586	-3.0494852251	-0.6410551139	 0.283998
H	 4.8845270892	-1.5216050512	 0.1629078031	 0.195984
80.8809	101.0352	143.3656	169.1757	194.2292	251.5245	266.0345	305.5917	376.5445	424.3969	474.5216	536.5619	576.73	616.0371	626.4509	660.2872	724.6961	783.2463	916.6737	941.4418	963.5914	986.9195	1035.5466	1110.8102	1126.7386	1166.854	1173.5301	1190.046	1216.0262	1238.8609	1260.4119	1265.5352	1305.4739	1348.1136	1394.5792	1466.5721	1479.9739	1486.3024	1493.4435	1505.2644	2222.875	2979.4276	2987.4683	3058.0775	3071.3562	3082.6935	3120.3069	3126.2988	3144.4902	3500.0102	3805.0054
COC1CCC1(O)C#C	CO[C@H]1CC[C@]1(O)C#C	
InChI=1S/C7H10O2/c1-3-7(8)5-4-6(7)9-2/h1,6,8H,4-5H2,2H3	InChI=1S/C7H10O2/c1-3-7(8)5-4-6(7)9-2/h1,6,8H,4-5H2,2H3/t6-,7+/m0/s1
