16
gdb 7116	7.15861	0.95912	0.85482	3.9257	64.54	-0.2598	-0.0127	0.247	1307.4714	0.130023	-417.101468	-417.092779	-417.091835	-417.135385	29.953	
C	 0.6492683399	 1.3333188538	 0.8690515188	-0.392463
C	 0.2169449123	 0.1259525948	 0.0595254473	-0.029275
O	-1.1506567966	-0.1572721128	 0.4044105435	-0.273473
C	-1.7094529395	-1.209890139	-0.2245717192	 0.510712
N	-1.111220672	-1.9308823977	-1.069718811	-0.570972
N	-3.0341118786	-1.3201330198	 0.2443325106	-0.365365
C	-3.951944103	-2.2616209852	-0.1416894896	 0.167816
O	-3.7640682766	-3.1449308992	-0.9471469071	-0.298178
H	 1.6884395791	 1.5813080406	 0.6339696429	 0.125597
H	 0.0276169572	 2.203315302	 0.6387552666	 0.127189
H	 0.5779500022	 1.1325152927	 1.941885506	 0.127189
H	 0.279415003	 0.306458364	-1.0181232376	 0.126634
H	 0.8260852923	-0.7571163235	 0.2762045047	 0.126632
H	-1.7302023837	-2.6635752509	-1.4103646799	 0.255937
H	-3.3131290481	-0.6319232433	 0.9277166565	 0.264909
H	-4.9162120979	-2.1200218166	 0.3817296675	 0.097114
56.7626	92.5149	141.9094	148.79	247.9109	259.0063	268.6813	361.9529	431.8499	587.7849	594.3593	731.3604	808.7943	828.1556	901.1639	916.4564	964.9389	1026.0837	1049.9408	1126.7136	1136.3062	1183.263	1185.5577	1289.646	1340.7716	1397.656	1421.4636	1439.8834	1485.7645	1497.2266	1513.1061	1527.5164	1743.7885	1821.6904	2959.1933	3045.6623	3054.5721	3091.3767	3121.2092	3124.6911	3525.715	3622.441
CCOC(=N)NC=O	CCOC(=N)NC=O	
InChI=1S/C4H8N2O2/c1-2-8-4(5)6-3-7/h3H,2H2,1H3,(H2,5,6,7)	InChI=1S/C4H8N2O2/c1-2-8-4(5)6-3-7/h3H,2H2,1H3,(H2,5,6,7)
