16
gdb 47127	3.06271	1.24607	0.90893	2.9461	82.01	-0.2202	-0.033	0.1873	1228.1176	0.124787	-400.772194	-400.764066	-400.763122	-400.804952	31.002	
O	 0.0766666312	-0.0511577296	 0.002023417	-0.362565
C	-0.0100272178	 1.1579222286	 0.0289762128	 0.403984
C	-1.3270193287	 1.9202057848	 0.0963590059	-0.322515
C	-1.224335314	 3.2579885148	 0.8467399159	-0.272189
C	-0.0118868103	 4.0285159725	 0.404630994	-0.184694
C	 1.0862825015	 3.3740411016	-0.0090845222	 0.230389
N	 1.1059763006	 1.9650206795	-0.0601286151	-0.405545
C	 2.2921816836	 4.0175512102	-0.4024468763	 0.249503
C	 3.3333925278	 4.5234197731	-0.7329343946	-0.418399
H	-1.6271963942	 2.1066322263	-0.9436906284	 0.134861
H	-2.0727253637	 1.2542761821	 0.5335253439	 0.132544
H	-2.1352110179	 3.8437683062	 0.6892300567	 0.116607
H	-1.1680404328	 3.0741371322	 1.9309597088	 0.126053
H	-0.0011596764	 5.1096201392	 0.439983578	 0.107725
H	 1.9856436657	 1.4933895789	-0.2084484484	 0.259163
H	 4.2440900655	 4.9846704095	-1.026385838	 0.205078
106.4009	125.9799	150.1708	207.041	368.0983	424.9868	431.3428	505.0366	526.7984	567.1922	579.6216	587.5017	657.9968	674.6992	677.7029	771.6582	813.0108	905.1123	926.8125	1012.4331	1038.5237	1083.3298	1172.9265	1177.524	1231.5931	1296.7291	1331.4194	1345.4682	1376.6387	1458.6891	1464.6886	1480.6028	1694.1827	1807.0179	2230.877	2989.3864	3030.0128	3073.3834	3122.4755	3222.6412	3500.0662	3627.2171
O=C1CCC=C(N1)C#C	O=C1CCC=C(N1)C#C	
InChI=1S/C7H7NO/c1-2-6-4-3-5-7(9)8-6/h1,4H,3,5H2,(H,8,9)	InChI=1S/C7H7NO/c1-2-6-4-3-5-7(9)8-6/h1,4H,3,5H2,(H,8,9)
