19
gdb 96172	2.61213	1.4514	1.01705	1.8337	70.49	-0.2493	0.0629	0.3122	1156.6198	0.160355	-460.134367	-460.12635	-460.125406	-460.166707	31.436	
O	-0.0834788674	 1.447656104	 0.1236016914	-0.427342
C	 0.0121303328	 0.0347836932	-0.0143125005	 0.098396
C	 0.7325929169	-0.5368682359	 1.2233287237	-0.096254
O	 1.0148109017	-1.9213642693	 1.1920662846	-0.241702
C	-0.1178073529	-2.7622713496	 1.3481406229	-0.11902
C	-0.8318378496	-3.0159981156	 0.0296942897	 0.045852
O	-2.2562546946	-2.864689257	 0.0092473216	-0.254965
C	-1.4630936492	-1.9058106233	-0.6973836337	 0.048527
C	-1.4214065833	-0.4826077745	-0.1732794776	-0.246508
H	 0.8080475206	 1.8084379527	 0.1707418282	 0.285525
H	 0.593670734	-0.2333369822	-0.9115877825	 0.072592
H	 1.707987529	-0.0435056075	 1.3179349782	 0.09365
H	 0.1390843859	-0.2773146902	 2.1153440413	 0.09889
H	 0.2589087068	-3.7033656653	 1.7605093097	 0.110437
H	-0.8320681093	-2.3371299597	 2.0672320135	 0.1077
H	-0.4667801828	-3.8635244275	-0.5506809077	 0.094742
H	-1.5280053626	-2.0025277914	-1.7816749989	 0.096374
H	-1.9420216206	-0.4322146735	 0.7883481474	 0.118271
H	-1.9503058054	 0.1867129128	-0.8582954315	 0.114834
132.1701	141.8369	263.3767	292.3375	317.1347	332.3362	364.1413	409.202	445.0062	481.0403	545.2738	613.1967	815.058	827.6814	888.3663	906.0541	945.6887	994.5359	1019.7369	1040.5617	1075.7451	1082.2714	1090.9013	1141.297	1150.5837	1175.31	1213.6676	1253.3408	1273.2045	1302.3718	1321.3944	1325.9133	1349.0174	1381.7183	1400.5623	1413.2574	1443.5421	1480.826	1483.7458	1488.4259	1502.8093	2966.112	2978.8099	3010.4436	3050.7961	3053.4993	3079.4764	3091.0125	3104.4348	3115.9047	3812.4802
OC1COCC2OC2C1	O[C@H]1COC[C@H]2O[C@H]2C1	
InChI=1S/C6H10O3/c7-4-1-5-6(9-5)3-8-2-4/h4-7H,1-3H2	InChI=1S/C6H10O3/c7-4-1-5-6(9-5)3-8-2-4/h4-7H,1-3H2/t4-,5+,6-/m1/s1
