23
gdb 81375	2.09012	1.6422	1.46168	1.686	83.81	-0.2323	0.0719	0.3043	1100.1333	0.207688	-388.291263	-388.282643	-388.281698	-388.32391	34.342	
C	 0.0982783061	 1.6833986844	-0.1550382739	-0.442509
C	 0.0778317261	 0.1646532189	-0.0527851312	 0.031477
C	 0.9775793715	-0.7766935151	-0.8892787171	 0.069971
C	 2.4431740775	-0.3519024555	-0.9639783427	-0.214653
C	 2.93445433	 0.1965349863	 0.4042287436	-0.229023
C	 2.0626325657	-0.2660468861	 1.6066346958	 0.0521
C	 2.0302040122	 0.7699531733	 2.7348707357	-0.419893
C	 0.6714896426	-0.6762988258	 1.1104837747	 0.049865
O	 0.8690435722	-1.7719563715	 0.1694707361	-0.30172
H	 1.0973876257	 2.1165558417	-0.085811376	 0.122232
H	-0.3321188769	 2.0002534379	-1.111793086	 0.117598
H	-0.513603862	 2.130524532	 0.6361889466	 0.120241
H	-0.9520544283	-0.1819172072	-0.1862389953	 0.086585
H	 0.5974362728	-1.1482857089	-1.8460970873	 0.067804
H	 3.0177728238	-1.23748074	-1.2558127125	 0.108499
H	 2.5904875609	 0.3963329111	-1.7521216851	 0.091349
H	 3.9776544697	-0.0886659009	 0.5726791675	 0.097877
H	 2.9355738204	 1.2905384734	 0.3751737172	 0.101061
H	 2.4901030391	-1.1936625864	 2.0080571337	 0.083014
H	 1.5723297777	 1.7099387833	 2.4087517544	 0.116583
H	 1.4611895836	 0.4019907874	 3.5957995573	 0.111647
H	 3.0431819408	 1.000697027	 3.0814722449	 0.114976
H	 0.0056303589	-0.9543973393	 1.9348428396	 0.064918
131.1403	174.0231	187.1555	211.4946	244.9007	284.12	337.5118	399.0415	448.1463	500.9454	580.4103	618.3472	709.9213	785.1114	819.0737	854.2162	885.0967	902.6212	938.3281	956.9161	972.8907	1008.5292	1031.3225	1069.8927	1086.8646	1099.1493	1126.3176	1140.187	1178.7942	1185.57	1225.2035	1246.9898	1272.9688	1312.4946	1321.0637	1335.0805	1340.1818	1359.1967	1377.6775	1388.8381	1410.5875	1412.8352	1417.2371	1475.2865	1491.0709	1496.9794	1501.185	1503.6202	1515.7717	3020.1774	3028.7968	3029.6991	3034.9404	3042.6016	3049.0002	3052.5987	3065.0816	3065.6277	3086.0507	3088.5079	3094.3158	3101.3489	3133.4391
CC1C2CCC(C)C1O2	C[C@H]1[C@H]2CC[C@@H](C)[C@@H]1O2	
InChI=1S/C8H14O/c1-5-3-4-7-6(2)8(5)9-7/h5-8H,3-4H2,1-2H3	InChI=1S/C8H14O/c1-5-3-4-7-6(2)8(5)9-7/h5-8H,3-4H2,1-2H3/t5-,6+,7-,8+/m1/s1
