19
gdb 112954	4.4595	0.82555	0.73113	4.7603	73.6	-0.2328	0.0553	0.288	1523.0159	0.159488	-456.360064	-456.350474	-456.34953	-456.395288	34.415	
N	-0.148172082	 1.2591271907	-0.2838327539	-0.557241
C	-0.0665226513	-0.1259096024	-0.185396681	 0.405533
O	 0.9893499627	-0.7314319587	-0.1594944179	-0.392988
N	-1.28520835	-0.7529301875	-0.0886858492	-0.100537
C	-2.5400729018	-0.249723894	 0.4928663174	-0.217251
C	-2.8903504924	-1.7080139458	 0.9017605329	 0.004578
C	-4.0279952365	-2.3319110179	 0.1170373511	-0.086523
O	-4.0721769188	-3.7088668401	 0.4525003857	-0.419687
C	-1.4650473857	-2.1158784926	 0.4297461778	-0.168323
H	 0.719403218	 1.6755851669	-0.5867027881	 0.259129
H	-0.9681135747	 1.6482264838	-0.7248841891	 0.249792
H	-2.3898781462	 0.4407335219	 1.3310492687	 0.118999
H	-3.2222720771	 0.217350942	-0.2299923775	 0.099756
H	-3.0641711369	-1.84924671	 1.9697106212	 0.093376
H	-4.9743564322	-1.8245544003	 0.3681660937	 0.087045
H	-3.8518843541	-2.1854133812	-0.9616631692	 0.091672
H	-4.7398802403	-4.13463907	-0.0928508054	 0.290235
H	-1.4263728412	-2.8998190661	-0.3319406221	 0.120136
H	-0.7589569994	-2.3638929288	 1.2280377551	 0.122298
46.0534	96.9798	105.8771	169.3622	175.866	244.3749	262.2486	351.9656	413.73	447.7658	468.9229	552.688	575.6017	685.0862	778.3014	814.4505	890.1989	902.7236	935.2851	1014.345	1066.8226	1082.6564	1091.3427	1137.3012	1145.1631	1176.4802	1181.4525	1191.7489	1237.7795	1275.7544	1281.1282	1291.1412	1332.1632	1368.8666	1434.5432	1462.8305	1509.1378	1520.1293	1532.076	1622.6442	1792.5119	2956.4523	2985.5774	3004.572	3050.4165	3053.6114	3092.7002	3105.1224	3572.4582	3687.8217	3832.8843
NC(=O)N1CC(CO)C1	NC(=O)N1CC(CO)C1	
InChI=1S/C5H10N2O2/c6-5(9)7-1-4(2-7)3-8/h4,8H,1-3H2,(H2,6,9)	InChI=1S/C5H10N2O2/c6-5(9)7-1-4(2-7)3-8/h4,8H,1-3H2,(H2,6,9)
