16
gdb 10137	2.76825	1.33238	0.94893	4.3658	71.65	-0.2548	0.0021	0.2568	1209.3699	0.128764	-342.744773	-342.735668	-342.734724	-342.778949	31.835	
C	-0.1695422152	 1.5482034949	-0.2395908287	-0.393191
C	-0.2957068785	 0.07282582	-0.6036523413	-0.114013
N	 1.0152134281	-0.5794927028	-0.5356421028	-0.274446
C	 0.9871161742	-2.0006001933	-0.8847163182	-0.289125
C	 0.5966358758	-2.3029352665	-2.2745931362	 0.343751
C	 0.2642137758	-2.4927837768	-3.4131763109	-0.451473
C	 2.3042068334	-2.5993578581	-0.5872921864	 0.300108
N	 3.3348085113	-3.0654489134	-0.3566308777	-0.315474
H	 0.2708803014	 1.6665313526	 0.7540976224	 0.134613
H	 0.4654104503	 2.0786045755	-0.9582835481	 0.119387
H	-1.1515618439	 2.0294276068	-0.2483216099	 0.123176
H	-0.9515828522	-0.4339794837	 0.1160159414	 0.109337
H	-0.7680336258	-0.0332394612	-1.5938596246	 0.101834
H	 1.6707501689	-0.1035271593	-1.1492692096	 0.23267
H	 0.2625485774	-2.4801676077	-0.211089355	 0.160117
H	-0.0242048312	-2.675045057	-4.4195000642	 0.212729
77.8065	91.5835	128.7312	131.3029	213.8244	254.1914	290.5212	362.7747	387.5678	503.1741	577.1096	612.4357	655.1714	674.7979	755.1456	818.6522	894.9298	936.901	1014.5166	1046.6076	1117.4009	1150.8492	1184.9167	1283.2169	1305.4982	1322.7102	1394.9476	1417.0567	1482.4236	1497.8758	1504.4639	1522.8829	2233.3035	2370.914	2972.9324	3015.0586	3035.273	3040.5447	3105.5408	3125.4196	3499.4212	3510.4183
CCNC(C#C)C#N	CCN[C@@H](C#C)C#N	
InChI=1S/C6H8N2/c1-3-6(5-7)8-4-2/h1,6,8H,4H2,2H3	InChI=1S/C6H8N2/c1-3-6(5-7)8-4-2/h1,6,8H,4H2,2H3/t6-/m0/s1
