17
gdb 19266	3.29983	1.74695	1.29258	2.1524	68.88	-0.2414	-0.0224	0.2189	969.0649	0.141798	-363.836305	-363.828625	-363.827681	-363.868536	28.449	
C	 0.0176760722	 1.6289632363	 0.2182316564	-0.379229
C	 0.0890723148	 0.1133621065	 0.0006230907	-0.209524
C	-1.2858747928	-0.5243104071	-0.1230967621	-0.069628
N	-2.1641907067	-0.160167345	-1.3083623835	-0.124248
C	-1.5216850252	-0.7259808798	-2.4882826243	-0.242834
C	-2.3333173195	-1.6431977152	-1.6342679444	-0.158545
C	-1.5117812258	-2.0233068501	-0.4358923448	 0.392521
O	-1.2985021672	-3.0432334155	 0.1529136285	-0.312217
H	 1.0194764454	 2.0600431454	 0.3031289626	 0.116939
H	-0.4949775977	 2.121687731	-0.6133522323	 0.134509
H	-0.531477713	 1.8696341253	 1.1347452813	 0.120746
H	 0.700160771	-0.1087424714	-0.8811451696	 0.102546
H	 0.5948851722	-0.369165632	 0.8455813971	 0.122854
H	-1.8719993976	-0.3028731805	 0.7786653488	 0.116864
H	-1.9758452277	-0.413486842	-3.4237202002	 0.137148
H	-0.4418858173	-0.8390358493	-2.5282128769	 0.128232
H	-3.2681934351	-2.0813435064	-1.9638376374	 0.123866
79.7472	145.8557	168.0273	212.8326	293.9441	314.6341	493.7919	521.4878	624.7855	673.8387	738.6643	765.6153	821.301	851.887	924.0445	940.6867	988.6628	1034.7244	1073.5792	1085.6129	1110.482	1122.591	1130.8764	1168.2882	1209.822	1237.2384	1280.0902	1302.8861	1331.0661	1386.3792	1414.8326	1480.2014	1497.5498	1502.7049	1510.3569	1891.2551	3030.835	3037.5541	3039.7874	3070.1295	3107.4484	3114.8049	3117.8242	3189.1369	3204.3931
CCC1N2CC2C1=O	CC[C@H]1N2C[C@H]2C1=O	
InChI=1S/C6H9NO/c1-2-4-6(8)5-3-7(4)5/h4-5H,2-3H2,1H3	InChI=1S/C6H9NO/c1-2-4-6(8)5-3-7(4)5/h4-5H,2-3H2,1H3/t4-,5+,7?/m1/s1
