14
gdb 21121	5.26276	1.60159	1.23743	1.8548	71.97	-0.2182	-0.0467	0.1715	927.6236	0.108923	-374.87341	-374.866318	-374.865373	-374.904989	25.555	
C	-0.0414126625	 1.4173840268	-0.049921708	-0.328246
N	-0.0026190455	-0.0346050023	-0.0156832356	-0.307967
C	 0.5773383174	-0.6064408709	 0.9789961481	 0.225971
C	 1.2346494642	 0.0068721416	 2.135064918	-0.047741
N	 1.79230428	-0.6781131797	 3.0883626282	-0.182841
N	 1.7491991051	-2.0045873445	 2.9832033086	-0.093694
N	 1.192838887	-2.7317660014	 1.9997768572	-0.200259
C	 0.6332797011	-2.0618749483	 1.042874891	 0.020259
H	 0.9630796793	 1.867453801	-0.0713876897	 0.114739
H	-0.5655754087	 1.7392486076	-0.9531776219	 0.124118
H	-0.5731520035	 1.8472748111	 0.812906534	 0.114737
H	 1.2860932886	 1.0831875842	 2.2489370934	 0.128565
H	 2.1839331188	-2.5247250904	 3.7264168328	 0.293234
H	 0.1798668388	-2.6370554747	 0.2418148539	 0.139126
87.1961	129.1762	230.7554	230.8358	374.7792	452.8566	493.2472	567.5093	581.6138	639.6223	765.9304	798.5029	918.4509	962.6172	991.2675	1032.9624	1094.0555	1113.2808	1134.7004	1173.9998	1304.2883	1365.4562	1386.4905	1433.4816	1455.046	1488.9475	1506.2948	1610.7338	1636.8891	1691.8048	2972.5628	3019.8603	3100.1727	3190.521	3203.5901	3672.0118
CN=C1C=NNN=C1	C[N]c1cn[nH]nc1	
InChI=1S/C4H6N4/c1-5-4-2-6-8-7-3-4/h2-3H,1H3,(H,5,8)	InChI=1S/C4H11N4/c1-5-4-2-6-8-7-3-4/h4,6-8H,2-3H2,1H3
