18
gdb 29599	2.91765	1.19845	0.93154	4.2608	79.99	-0.2085	-0.0138	0.1946	1253.7595	0.14726	-402.00149	-401.992406	-401.991461	-402.036258	32.719	
C	-0.0974337968	 1.4981800597	 0.2188997502	-0.512986
C	-0.0245222027	 0.008294819	 0.0644727269	 0.198918
C	 0.0064483257	-0.6963860964	-1.1164712895	-0.161302
N	 0.0858180692	-2.0353522617	-0.8207135553	-0.24202
C	 0.1086637134	-2.2051608124	 0.5373452526	-0.174248
C	 0.0462400251	-0.9589874984	 1.122473692	 0.166612
C	-0.0046129384	-0.6598063543	 2.5953707074	-0.388342
C	-1.4300458458	-0.3122509658	 2.9938496688	 0.168531
O	-1.7926924717	 0.7598409163	 3.4050478779	-0.24405
H	 0.8102390522	 1.9025580238	 0.6841823962	 0.124477
H	-0.2134091027	 1.9875989483	-0.7523231852	 0.116789
H	-0.9368373229	 1.8034150111	 0.8527742069	 0.143671
H	-0.0194455121	-0.3519679677	-2.1383365027	 0.117653
H	 0.1334785453	-2.775912998	-1.4974498285	 0.262439
H	 0.1764849491	-3.1869894279	 0.9790067888	 0.118277
H	 0.3028826592	-1.5447120532	 3.1669114907	 0.113264
H	 0.6439413428	 0.1765833334	 2.8733153504	 0.119533
H	-2.153501869	-1.1452365159	 2.8342124323	 0.072784
49.7359	62.1203	123.3055	164.9318	228.4788	253.2585	362.316	389.5625	458.7713	477.8232	623.8171	639.3333	670.3213	698.1262	725.4589	764.2151	850.6167	906.9472	1001.2258	1008.0207	1057.6636	1070.6773	1090.2065	1114.5897	1179.4645	1216.8538	1262.8347	1287.3075	1340.5439	1399.5519	1418.2022	1424.5937	1459.1605	1472.511	1484.4549	1499.975	1557.4118	1618.3575	1827.241	2864.6807	3024.1702	3029.3382	3076.513	3092.6774	3108.9102	3255.0922	3258.5163	3689.6739
CC1=CNC=C1CC=O	Cc1c[nH]cc1CC=O	
InChI=1S/C7H9NO/c1-6-4-8-5-7(6)2-3-9/h3-5,8H,2H2,1H3	InChI=1S/C7H9NO/c1-6-4-8-5-7(6)2-3-9/h3-5,8H,2H2,1H3
