19
gdb 116360	2.46016	1.52249	0.99493	1.7317	75.	-0.2224	0.0252	0.2476	1200.6364	0.160396	-456.346083	-456.337264	-456.33632	-456.379646	33.013	
C	 0.0358400467	 1.3561472435	 0.0465596968	-0.242217
O	 0.0187504509	-0.062827343	-0.0170202917	-0.254732
C	 0.6966883233	-0.5865202746	-1.1132339795	 0.157108
O	 2.0693196298	-0.3080301689	-0.9938753282	-0.256921
C	 2.8200508968	-1.0599068314	-1.9414851687	-0.098177
C	 2.6876757113	-2.5489819517	-1.6362605952	-0.145891
N	 1.3180212248	-2.9815865453	-1.3958031673	-0.307538
C	 0.4355551412	-2.0943892022	-1.157215376	 0.318931
N	-0.8937614639	-2.4229042732	-1.0004982467	-0.543871
H	 1.0532757674	 1.7352931354	 0.183547577	 0.138572
H	-0.3907657783	 1.7958470261	-0.866821586	 0.110678
H	-0.5787484153	 1.6398229482	 0.9030620303	 0.129912
H	 0.3123531197	-0.1267418601	-2.0487687137	 0.068078
H	 2.4631809814	-0.8415529633	-2.9618090996	 0.093438
H	 3.8552838837	-0.7170977315	-1.8626127904	 0.110964
H	 3.1017479817	-3.1341073707	-2.4676865365	 0.101063
H	 3.2902720424	-2.7996653108	-0.7521222281	 0.110586
H	-1.0538745749	-3.4108180756	-0.8612678625	 0.250039
H	-1.4039620285	-1.8161879408	-0.3754480139	 0.259976
78.7359	111.4087	174.9301	212.2868	241.3961	306.2931	329.6509	418.1275	454.7033	493.128	496.5162	536.3368	618.5369	671.5768	701.3351	876.0182	913.5033	942.3945	991.102	1035.3227	1063.9848	1105.4503	1128.6528	1164.7028	1181.643	1204.2175	1232.488	1263.4851	1290.1142	1329.558	1371.961	1378.486	1399.5501	1427.1895	1477.9907	1483.3295	1486.3213	1497.2068	1511.6192	1613.6458	1752.4848	2873.4827	2970.1563	3000.9077	3008.7556	3039.538	3084.7042	3091.6994	3133.5139	3559.7148	3675.9379
COC1OCCN=C1N	CO[C@H]1OCCN=C1N	
InChI=1S/C5H10N2O2/c1-8-5-4(6)7-2-3-9-5/h5H,2-3H2,1H3,(H2,6,7)	InChI=1S/C5H10N2O2/c1-8-5-4(6)7-2-3-9-5/h5H,2-3H2,1H3,(H2,6,7)/t5-/m0/s1
