15
gdb 42738	2.71837	1.64061	1.25227	6.5025	69.75	-0.2543	-0.0386	0.2157	989.2337	0.114616	-416.798683	-416.791628	-416.790684	-416.830416	27.036	
O	-0.0448931066	 0.0553191821	-0.0151812796	-0.301878
C	-0.0803831646	 1.2457171182	 0.0257288664	 0.475758
C	-1.2597700192	 2.2150339069	 0.0285727495	-0.121692
C	-0.8052705167	 3.246427737	-1.0465062185	-0.25533
C	 0.2451315994	 3.5423838719	 0.0551921595	-0.016214
N	-0.7615275377	 3.1545462024	 1.1128088305	-0.32162
C	 1.1225025052	 2.2658857625	 0.0445812	-0.263955
C	 2.0052247757	 2.1187070122	 1.1880734842	 0.298793
N	 2.7253985758	 2.0093458399	 2.0852253413	-0.32181
H	-2.2562737924	 1.7865749699	 0.1018164944	 0.10562
H	-0.4799787799	 2.8993382327	-2.0333400328	 0.115975
H	-1.5297928353	 4.0573758328	-1.1475001233	 0.121725
H	 0.7591817027	 4.4961720999	 0.156326471	 0.105664
H	-1.4404790994	 3.9121825016	 1.1914623597	 0.232566
H	 1.701786123	 2.1593702099	-0.8781088523	 0.146399
107.2313	138.1019	185.1786	377.3533	397.7901	461.803	512.2029	540.9604	644.6132	672.1692	804.5233	816.8513	856.0679	864.2642	906.944	923.2931	967.5526	994.4771	1050.2404	1057.5782	1086.8614	1130.8952	1154.2976	1176.0842	1212.7427	1238.9275	1267.0374	1311.3335	1320.4759	1367.7786	1496.1958	1905.633	2361.5541	3043.6795	3072.5366	3120.647	3142.6778	3161.5548	3460.4785
O=C1C2CC(N2)C1C#N	O=C1[C@@H]2C[C@@H](N2)[C@H]1C#N	
InChI=1S/C6H6N2O/c7-2-3-4-1-5(8-4)6(3)9/h3-5,8H,1H2	InChI=1S/C6H6N2O/c7-2-3-4-1-5(8-4)6(3)9/h3-5,8H,1H2/t3-,4-,5+/m1/s1
