18
gdb 44909	2.75917	1.72101	1.48382	2.3025	76.28	-0.2177	-0.018	0.1997	952.3796	0.151178	-401.978718	-401.971836	-401.970892	-402.00986	28.271	
O	 0.0268121905	 0.0037995719	 0.0057940391	-0.318878
C	-0.0030546475	 1.2042758035	 0.0008887111	 0.414022
C	-1.2552178708	 2.1054570786	-0.00796712	-0.337034
C	-0.6733628078	 3.538102837	-0.0695012202	-0.025572
C	-0.4422984985	 4.1466828393	 1.3234975416	-0.231465
C	 0.6778171811	 3.4384391485	 2.0414165774	-0.056222
C	 1.4458228101	 2.5350698445	 1.429833753	-0.04206
C	 1.1919526161	 2.190094646	-0.0203239291	-0.171484
N	 0.6629352154	 3.3824090812	-0.7031980721	-0.296603
H	-1.8377688337	 1.8742684923	-0.906488214	 0.12752
H	-1.8918230497	 1.8894529364	 0.8547204759	 0.130065
H	-1.290388359	 4.2073081685	-0.6728100442	 0.077369
H	-0.2082151763	 5.2147525785	 1.2278211529	 0.118141
H	-1.3671728616	 4.0868865595	 1.9131326823	 0.104951
H	 0.8472215145	 3.6901414161	 3.0850704606	 0.094378
H	 2.220000692	 1.9874996584	 1.9561411211	 0.103312
H	 2.0699228389	 1.7764528318	-0.5168796525	 0.089815
H	 0.5358430764	 3.1634965279	-1.6891232728	 0.219745
104.8622	203.7649	326.3281	381.0787	430.9575	466.0319	524.2448	548.3646	640.8844	679.2279	707.8394	808.1225	829.3098	841.5894	880.6441	891.2774	935.4517	972.5283	989.9559	1009.9107	1029.2296	1062.5501	1073.0157	1123.4871	1156.2783	1172.7247	1200.2808	1215.4529	1254.7331	1269.0896	1325.1787	1360.2957	1380.004	1394.578	1446.557	1450.6259	1472.7328	1701.6003	1849.4299	3016.3476	3045.8413	3052.5619	3085.9298	3100.7757	3116.1825	3158.7351	3194.272	3478.4447
O=C1CC2CC=CC1N2	O=C1C[C@H]2CC=C[C@@H]1N2	
InChI=1S/C7H9NO/c9-7-4-5-2-1-3-6(7)8-5/h1,3,5-6,8H,2,4H2	InChI=1S/C7H9NO/c9-7-4-5-2-1-3-6(7)8-5/h1,3,5-6,8H,2,4H2/t5-,6+/m1/s1
