20
gdb 71597	2.07459	2.02096	1.70869	1.8396	78.36	-0.2253	0.0694	0.2947	960.0613	0.17151	-403.100762	-403.092733	-403.091789	-403.132601	32.413	
C	 0.0019881654	 1.4984436883	-0.0153981413	-0.526647
C	-0.0109730969	-0.0018797182	-0.0649454523	 0.308766
C	 0.6278496248	-0.9469958059	-1.1077636315	-0.285948
C	 0.0611670872	-1.8445752811	 0.0030866979	-0.095209
N	 0.6191832572	-0.8737733608	 1.0313148837	-0.157442
C	-0.3377035886	-0.877465419	 2.1746656736	-0.168475
C	-1.7264007615	-0.9348902161	 1.499878225	-0.325478
C	-1.2382640356	-0.9624173026	 0.0522505774	 0.399148
O	-2.1779610661	-0.938218525	-0.9782925305	-0.491314
H	 1.0292977475	 1.8754413331	-0.0093156901	 0.130582
H	-0.5131898265	 1.909953318	-0.8891969372	 0.132877
H	-0.504823039	 1.8737304834	 0.8805158188	 0.118602
H	 0.1345601502	-1.0005509675	-2.0782582836	 0.107128
H	 1.7159761626	-0.9074152761	-1.1789731951	 0.098055
H	 0.1601234929	-2.9244132961	 0.1366743274	 0.067946
H	-0.1280338635	-1.7418975167	 2.8110496637	 0.10398
H	-0.1865843736	 0.0236875693	 2.7753796262	 0.105671
H	-2.3030999695	-1.8300814604	 1.7597250825	 0.089691
H	-2.3542525292	-0.0614195165	 1.7012349321	 0.104775
H	-2.836733818	-1.6200937102	-0.8103473868	 0.283293
169.0575	197.6596	206.4522	236.5886	254.9698	336.6919	403.7122	439.5513	470.5643	632.3663	652.2632	701.495	717.5988	735.7847	837.0143	846.2892	860.9673	920.6942	953.588	972.5629	988.3641	1025.3762	1055.8254	1090.7676	1113.2662	1122.806	1154.4109	1188.419	1201.2372	1210.1778	1228.0072	1243.2592	1260.1818	1294.9455	1313.7897	1331.8086	1390.2188	1410.1911	1481.4308	1485.7085	1490.8107	1496.1357	1510.0739	3032.0179	3035.3879	3058.4915	3077.4049	3078.1561	3090.0305	3098.1408	3104.2206	3111.3408	3156.1765	3809.666
CC12CC3N1CCC23O	C[C@@]12C[C@H]3N1CC[C@@]23O	
InChI=1S/C7H11NO/c1-6-4-5-7(6,9)2-3-8(5)6/h5,9H,2-4H2,1H3	InChI=1S/C7H11NO/c1-6-4-5-7(6,9)2-3-8(5)6/h5,9H,2-4H2,1H3/t5-,6+,7+/m1/s1
