15
gdb 20895	5.66167	1.31501	1.15716	3.1899	63.84	-0.2252	0.0013	0.2265	1026.1587	0.11985	-395.984468	-395.976971	-395.976027	-396.016903	27.144	
C	-0.3369017977	 1.4892704165	 0.2432903101	-0.378557
C	 0.2324683163	 0.1028651547	-0.0598649689	-0.143512
N	 0.7798033471	-0.552053425	 1.1193733139	 0.089572
C	 0.1154930717	-1.1321548015	 2.1571771602	-0.199297
C	 1.1309419379	-1.5299686217	 2.9970591474	 0.369176
O	 1.0289274974	-2.1682885953	 4.1778418229	-0.427125
N	 2.3213141375	-1.1866199336	 2.4574257382	-0.284989
N	 2.1024186044	-0.5869681645	 1.3098802479	-0.153639
H	 0.4377650968	 2.1388234644	 0.6591314976	 0.145713
H	-0.7149881492	 1.9443473692	-0.6768215478	 0.127856
H	-1.1618409161	 1.4335552468	 0.9593893941	 0.129309
H	-0.5337234673	-0.5505138291	-0.4890892226	 0.126508
H	 1.0596140827	 0.1669370711	-0.7695529182	 0.148429
H	-0.9554579963	-1.2151561517	 2.2059081934	 0.143218
H	 1.9306307249	-2.3010753203	 4.4971160617	 0.30734
45.467	115.5855	213.1723	296.8521	325.3044	387.3906	435.2215	459.1495	614.3795	682.2041	705.9346	751.699	770.4547	796.2351	972.9233	1050.0049	1053.2974	1097.5297	1104.256	1169.2323	1210.2049	1267.2208	1277.0797	1382.6983	1389.6748	1408.199	1415.8018	1479.1423	1491.057	1504.4269	1512.7047	1653.4822	3046.7879	3060.1741	3112.6712	3124.9411	3136.8483	3295.6669	3793.1291
CCN1C=C(O)N=N1	CCn1cc(O)nn1	
InChI=1S/C4H7N3O/c1-2-7-3-4(8)5-6-7/h3,8H,2H2,1H3	InChI=1S/C4H7N3O/c1-2-7-3-4(8)5-6-7/h3,8H,2H2,1H3
