25
gdb 104180	2.71992	1.07601	1.03622	1.0381	88.96	-0.2441	0.0807	0.3247	1383.238	0.228157	-389.508402	-389.498162	-389.497218	-389.543674	39.171	
C	 0.1154973385	 1.3009100834	-0.0527932899	-0.246025
O	-0.0874638902	-0.0913022556	-0.1222767355	-0.289342
C	-1.4339604673	-0.5798265617	 0.0365100417	 0.425184
C	-2.0736717182	-0.0588782258	 1.325155246	-0.465682
C	-2.2635509614	-0.276137133	-1.2354305998	-0.25
C	-1.833999621	-1.3658618979	-2.222359914	-0.207902
C	-1.8077152162	-2.6342072935	-1.3486462923	 0.05756
C	-1.0143924651	-3.8007075419	-1.935297437	-0.408632
C	-1.2766523403	-2.1278227765	 0.018249562	-0.256365
H	 1.1638407678	 1.4743507862	-0.3111706539	 0.123548
H	-0.5084494749	 1.8641156233	-0.7620485146	 0.102363
H	-0.0617795446	 1.7049612407	 0.9538632086	 0.105149
H	-2.2671382633	 1.0177558184	 1.286008642	 0.112795
H	-3.0320699757	-0.5584948051	 1.4948046649	 0.11429
H	-1.4260828004	-0.2607887059	 2.1846557688	 0.1203
H	-3.3311630037	-0.3799522976	-1.0035802198	 0.089637
H	-2.1147701371	 0.7428147793	-1.6029814413	 0.090067
H	-2.4950414781	-1.457166499	-3.0895958118	 0.08484
H	-0.8247416905	-1.1483042992	-2.5919438536	 0.103079
H	-2.8482513896	-2.9613304539	-1.2135241008	 0.062872
H	 0.032759441	-3.5185669486	-2.0947375753	 0.115998
H	-1.0263786599	-4.6693303693	-1.2678239867	 0.109642
H	-1.4262855694	-4.1182921397	-2.8995878623	 0.107907
H	-0.2127047898	-2.3520220048	 0.1342881412	 0.110464
H	-1.8014280206	-2.5953902823	 0.8563010532	 0.088253
31.792	103.7987	162.4586	213.1446	235.0397	250.6145	275.8969	292.7086	341.6887	369.9022	407.9584	425.8694	471.1782	568.2013	594.7206	734.1277	804.9808	836.295	870.6992	909.0367	919.827	952.8073	964.6021	992.83	1038.2734	1068.71	1092.0877	1108.8351	1132.9668	1179.7424	1181.1346	1194.7871	1216.659	1239.6747	1262.4938	1273.3725	1296.6741	1328.7084	1348.0398	1355.4391	1386.1341	1401.2885	1412.8262	1468.5958	1479.4529	1481.7013	1488.1678	1490.2882	1496.3115	1499.7271	1502.0055	1505.4732	1513.1779	2986.8687	2997.113	3023.6195	3027.6336	3033.128	3036.994	3038.6295	3055.1771	3084.9759	3090.0332	3091.2537	3093.4688	3100.1149	3102.3245	3105.0812	3109.9976
COC1(C)CCC(C)C1	CO[C@@]1(C)CC[C@@H](C)C1	
InChI=1S/C8H16O/c1-7-4-5-8(2,6-7)9-3/h7H,4-6H2,1-3H3	InChI=1S/C8H16O/c1-7-4-5-8(2,6-7)9-3/h7H,4-6H2,1-3H3/t7-,8+/m1/s1
