20
gdb 32984	4.58236	0.84708	0.76442	2.655	88.61	-0.248	-0.0175	0.2306	1541.9727	0.17321	-366.083708	-366.07514	-366.074195	-366.117927	31.751	
C	 0.0138200083	 1.5797609152	 0.0107972097	-0.379725
C	 0.0009675116	 0.0498193802	 0.0029874432	-0.154237
C	-1.4258115429	-0.5347126777	 0.0120884433	-0.301209
C	-1.4341212754	-2.0431888874	 0.0043582195	 0.308503
C	-1.4275945021	-2.7699167818	-1.1881049483	-0.194869
C	-1.3985187421	-4.1600801296	-1.1430975748	 0.013488
N	-1.3774558783	-4.8688150943	-0.0107677055	-0.271504
C	-1.3843267701	-4.1719661167	 1.1290606707	 0.013515
C	-1.4127815805	-2.7823248631	 1.1889613252	-0.195021
H	 1.0373868177	 1.9665556795	 0.0037848592	 0.116111
H	-0.5020974468	 1.9858789387	-0.8663334612	 0.116071
H	-0.4865375682	 1.9767548816	 0.901017898	 0.116079
H	 0.5333958974	-0.3245476255	-0.8798756342	 0.10454
H	 0.5482718129	-0.3336621689	 0.8727372545	 0.104549
H	-1.9570423511	-0.1683305642	 0.8988200704	 0.104735
H	-1.9719608135	-0.1592045601	-0.8616775162	 0.10479
H	-1.4504810493	-2.2584792594	-2.1457027362	 0.09149
H	-1.3973769893	-4.7348721278	-2.06679607	 0.105597
H	-1.3716625024	-4.7563687588	 2.0466242492	 0.105598
H	-1.4236586359	-2.28092973	 2.1520642137	 0.091497
46.0527	86.5551	101.9264	233.5236	277.2101	307.9065	343.7377	391.6301	525.0588	600.9881	682.9807	747.5502	771.8445	814.977	856.6167	878.3384	899.5001	905.8487	989.7167	1000.2048	1010.165	1044.7741	1076.9294	1095.1696	1108.7656	1125.59	1238.2362	1246.3914	1249.5586	1301.3719	1315.3737	1326.523	1368.5864	1382.0092	1411.5489	1446.3165	1484.3438	1493.9949	1497.2049	1510.4699	1528.1869	1602.2058	1638.1797	3022.6332	3029.1138	3033.6513	3052.3839	3074.4117	3098.8848	3104.4461	3147.1672	3149.0967	3175.9498	3178.4552
CCCC1=CC=NC=C1	CCCc1ccncc1	
InChI=1S/C8H11N/c1-2-3-8-4-6-9-7-5-8/h4-7H,2-3H2,1H3	InChI=1S/C8H11N/c1-2-3-8-4-6-9-7-5-8/h4-7H,2-3H2,1H3
