21
gdb 119468	4.91764	0.83196	0.79224	1.5768	79.98	-0.2377	0.0759	0.3136	1523.0444	0.180814	-424.186257	-424.176707	-424.175763	-424.221122	35.56	
C	-0.0364600008	 1.5369644922	 0.1736240035	-0.386608
C	-0.1213215037	 0.0211747056	 0.1477470649	-0.058311
O	 0.8812954253	-0.4960087508	 1.0175710342	-0.291723
C	 0.8870008774	-1.8700374414	 1.1000927341	 0.453375
C	-0.086082815	-2.6371649637	 1.9497225883	-0.334745
C	 1.3956379575	-2.7033540915	 2.2653804364	-0.148381
C	 2.0883915328	-3.6512497658	 1.2941600062	 0.123193
O	 1.6517383594	-4.988815248	 1.4076836712	-0.430738
C	 1.5610769382	-2.7986446084	 0.0809315645	-0.350233
H	 0.9492488097	 1.8729397954	-0.1606494128	 0.126449
H	-0.7938452358	 1.9722235963	-0.4852170314	 0.114555
H	-0.1998521296	 1.9129010262	 1.1876732707	 0.126537
H	-1.1126010223	-0.3240172585	 0.4781418069	 0.094037
H	 0.0336280521	-0.3585602107	-0.8740241091	 0.092598
H	-0.6513597188	-2.0207565946	 2.6411851455	 0.112076
H	-0.6055945362	-3.5163654179	 1.5804448193	 0.116798
H	 1.7868121231	-2.386621736	 3.223785141	 0.091329
H	 3.1813756798	-3.5852208523	 1.3732519322	 0.072144
H	 2.0845301885	-5.5043590544	 0.7197323515	 0.282954
H	 0.9038285841	-3.3221875583	-0.6207580094	 0.091126
H	 2.3713677443	-2.3092639135	-0.4650595778	 0.103569
58.3029	77.7847	96.5131	187.1259	239.8702	273.2914	304.6505	332.9902	400.997	422.2857	438.7065	567.9593	649.632	716.7415	818.6102	829.9563	865.1353	896.3293	939.5086	953.2763	974.2581	991.4785	1028.5638	1055.1564	1070.3073	1090.8439	1111.539	1149.6768	1165.4885	1187.1571	1208.9207	1219.5328	1241.6311	1282.9824	1294.1196	1329.9239	1376.4559	1403.063	1418.9063	1433.1418	1469.2255	1482.8964	1499.3187	1500.8631	1528.1987	2979.687	3010.0223	3011.1729	3044.3585	3045.0629	3109.6645	3118.6348	3121.0341	3121.4741	3193.4552	3213.6574	3816.5016
CCOC12CC1C(O)C2	CCO[C@]12C[C@H]1[C@@H](O)C2	
InChI=1S/C7H12O2/c1-2-9-7-3-5(7)6(8)4-7/h5-6,8H,2-4H2,1H3	InChI=1S/C7H12O2/c1-2-9-7-3-5(7)6(8)4-7/h5-6,8H,2-4H2,1H3/t5-,6-,7-/m0/s1
