14
gdb 19487	3.67402	2.0666	1.86618	1.6777	66.98	-0.2399	-0.009	0.2309	756.4484	0.107994	-341.5259	-341.519338	-341.518394	-341.556483	25.159	
C	-0.0262481643	-1.2084793966	-0.0765543944	-0.456918
C	-0.0016881357	-0.00805662	-0.0101957257	 0.37423
C	-0.012198497	 1.4228539364	 0.0614791405	-0.217724
C	 0.5155618	 2.1572536739	 1.2535453529	-0.048337
C	 1.4242327966	 1.4137580441	 2.2314851453	-0.194056
N	 2.6064845114	 1.0262541244	 1.4392811711	-0.186965
C	 2.4255677779	 1.462927005	 0.2615718553	 0.043819
N	 1.2540725924	 2.2391604252	-0.023907932	-0.146464
H	-0.0409220537	-2.2688202781	-0.137293592	 0.207541
H	-0.8221942858	 1.8960331647	-0.4874402514	 0.127678
H	-0.0013536176	 3.0571382351	 1.5708071696	 0.108686
H	 1.7299479443	 2.0610131261	 3.0602914259	 0.123583
H	 0.9677813819	 0.516326295	 2.6632929996	 0.132568
H	 3.1329938396	 1.3100013149	-0.5471328448	 0.13236
129.5348	148.1383	281.2357	331.8469	449.9704	562.6122	605.4015	619.6664	672.7693	734.2833	740.9331	803.9453	865.7681	923.9582	949.3112	956.0236	984.5293	1009.1889	1056.7562	1092.9788	1126.2421	1210.5581	1252.1524	1309.9299	1319.301	1353.436	1381.02	1479.9609	1684.1228	2236.0317	3045.173	3079.9046	3141.5639	3164.8143	3198.9629	3501.8059
C#CC1C2CN=CN12	C#C[C@H]1[C@H]2CN=CN12	
InChI=1S/C6H6N2/c1-2-5-6-3-7-4-8(5)6/h1,4-6H,3H2	InChI=1S/C6H6N2/c1-2-5-6-3-7-4-8(5)6/h1,4-6H,3H2/t5-,6+,8?/m0/s1
