17
gdb 102206	3.31363	0.92628	0.77142	2.92	73.2	-0.2808	0.0025	0.2833	1419.6553	0.133993	-418.025543	-418.015419	-418.014475	-418.062462	33.901	
C	 0.1131000596	 1.3409217221	-0.3292077409	-0.256719
O	 0.0055072148	 0.0286873957	 0.2111168539	-0.247927
C	-1.2726413114	-0.5537382431	 0.1411808702	 0.112122
C	-1.1865128127	-1.8519558969	-0.6911290063	-0.352993
C	-0.8069802439	-1.575790178	-2.0738726741	 0.273165
N	-0.5208424367	-1.337999536	-3.1675505017	-0.302831
C	-1.7548413534	-0.8758193312	 1.5726756065	-0.353012
C	-1.9219981511	 0.3387355401	 2.3658954813	 0.27314
N	-2.0634320287	 1.3105463417	 2.9742749007	-0.302803
H	 1.1537910364	 1.6430523036	-0.1979931703	 0.141898
H	-0.129690751	 1.3540667733	-1.3990057063	 0.134264
H	-0.533395534	 2.0477927079	 0.2055661122	 0.134202
H	-1.9909152225	 0.1269955153	-0.3326481378	 0.11297
H	-0.4363723639	-2.5116406226	-0.2412771515	 0.164909
H	-2.1451912123	-2.3823853778	-0.6848082162	 0.152353
H	-2.7060244064	-1.4191199243	 1.5497015615	 0.152346
H	-1.0137910327	-1.5194476099	 2.0593539487	 0.164916
27.497	56.4367	93.9675	98.3523	160.3241	186.6194	282.1766	318.117	361.917	389.088	397.3651	451.7364	522.3553	631.4325	823.6811	872.8774	913.0436	983.3826	1041.3068	1050.3309	1058.5513	1145.4236	1180.4981	1209.0164	1211.5858	1279.8578	1281.8079	1344.7469	1377.0104	1397.7345	1450.2829	1461.1586	1486.0832	1493.3438	1504.4967	2366.4294	2366.7242	3009.8009	3033.4755	3044.8176	3051.1303	3077.1771	3090.1166	3097.9287	3134.977
COC(CC#N)CC#N	COC(CC#N)CC#N	
InChI=1S/C6H8N2O/c1-9-6(2-4-7)3-5-8/h6H,2-3H2,1H3	InChI=1S/C6H8N2O/c1-9-6(2-4-7)3-5-8/h6H,2-3H2,1H3
