19
gdb 81053	2.56941	1.42842	1.15888	3.1581	75.93	-0.2211	0.0172	0.2383	1130.0737	0.159344	-419.161128	-419.151982	-419.151038	-419.19646	33.515	
C	-0.4874466116	 1.347158514	-0.3341239269	-0.450366
C	 0.0001977633	-0.0566766925	-0.0448103795	 0.065316
N	 1.3343274115	-0.5430083217	-0.6864523258	-0.164826
C	 2.035263333	 0.2329053196	 0.4427248664	-0.235668
C	 0.8515679968	-0.4281353657	 1.193285583	 0.210169
C	 1.2422523762	-1.6727545721	 0.3523503694	-0.201714
C	 0.4056327305	-0.3537660189	 2.6346041836	 0.263211
N	 1.4127486692	-0.3533707889	 3.5545262959	-0.533241
O	-0.7720294792	-0.3055367086	 2.938246047	-0.36354
H	 0.2453662239	 2.1287530797	-0.1223045478	 0.116797
H	-0.7738074575	 1.4304245262	-1.3874737425	 0.130094
H	-1.3736773786	 1.5454938326	 0.2766580623	 0.143163
H	-0.8021724381	-0.7688603556	-0.2607682992	 0.08297
H	 3.0450119583	-0.1364936033	 0.6469890402	 0.094341
H	 2.0419822235	 1.3153093784	 0.3162830024	 0.110973
H	 0.4619778901	-2.4078384687	 0.1408220956	 0.113252
H	 2.2031835968	-2.1511355661	 0.5598110852	 0.097346
H	 2.3800242671	-0.4046086042	 3.2882561301	 0.259462
H	 1.1755056746	-0.3377178243	 4.5330922406	 0.26226
15.5879	104.7029	124.3684	168.3194	188.2314	284.6991	352.5926	387.0896	469.9642	550.5286	583.7938	612.0021	648.1984	717.5055	756.8865	821.2543	836.8802	877.2047	967.4202	988.5087	1010.7454	1046.8511	1076.9872	1092.2781	1112.1019	1160.0903	1167.4736	1183.0089	1192.275	1196.003	1215.315	1291.4319	1389.6363	1405.207	1437.4436	1490.8859	1494.319	1520.1995	1554.5358	1613.7144	1786.979	3044.2225	3051.5024	3054.4938	3062.3962	3110.8605	3121.2438	3125.4209	3140.5559	3600.7322	3739.4395
CC1N2CC1(C2)C(N)=O	C[C@H]1N2C[C@@]1(C2)C(=O)N	
InChI=1S/C6H10N2O/c1-4-6(5(7)9)2-8(4)3-6/h4H,2-3H2,1H3,(H2,7,9)	InChI=1S/C6H10N2O/c1-4-6(5(7)9)2-8(4)3-6/h4H,2-3H2,1H3,(H2,7,9)/t4-/m1/s1
