19
gdb 89351	2.2359	1.57167	1.11933	1.7662	78.13	-0.2431	-0.0279	0.2152	1150.1704	0.156456	-423.012584	-423.003387	-423.002443	-423.046259	34.156	
C	-0.0868859188	 1.5677306019	-0.2126817274	-0.411791
C	 0.0999628029	 0.0804034419	 0.0001820558	 0.079015
O	 1.1886761325	-0.4893234984	-0.7905133698	-0.330078
C	 1.7445923685	-1.1289358872	 0.3529647938	 0.436463
C	 2.188432391	-2.5481505544	 0.2293332029	-0.48641
C	 2.1885331212	-0.1407014124	 1.3597611053	-0.387261
C	 0.6988711006	-0.457725781	 1.300069014	 0.097616
C	-0.0087882866	-1.1097209032	 2.4004177036	 0.060868
O	 0.5288187705	-1.6155484731	 3.3626246388	-0.287451
H	 0.8034469282	 2.1314498335	 0.0771474015	 0.125623
H	-0.295606839	 1.773395206	-1.2670811603	 0.133212
H	-0.9353583233	 1.9270670758	 0.379245116	 0.124117
H	-0.8246358528	-0.4605011293	-0.2450184927	 0.087855
H	 3.1197429743	-2.6046097411	-0.3456795996	 0.13895
H	 2.3712073509	-2.9704231383	 1.2209579137	 0.14985
H	 1.4333230116	-3.1510183866	-0.2825707495	 0.133483
H	 2.6555186592	-0.5504589977	 2.2492553584	 0.148294
H	 2.5396367707	 0.836623404	 1.0435059431	 0.121087
H	-1.1161581816	-1.1447819004	 2.2807737125	 0.066559
89.037	158.0737	180.6822	194.7618	205.4764	228.4772	240.653	345.374	387.3361	449.7701	515.0609	561.8983	658.018	675.0153	741.4113	820.9658	872.65	909.6119	961.7032	982.6412	1031.2605	1042.404	1064.3266	1089.0721	1098.9178	1130.9909	1196.5039	1234.8435	1256.1354	1330.4988	1371.096	1392.9939	1410.5538	1423.8035	1438.7652	1474.9783	1483.6727	1484.3305	1493.3054	1498.3678	1782.2165	2863.9309	3008.8007	3037.0064	3040.9563	3103.4577	3110.4247	3122.9554	3127.0407	3129.8166	3224.0848
CC1OC2(C)CC12C=O	C[C@H]1O[C@@]2(C)C[C@@]12C=O	
InChI=1S/C7H10O2/c1-5-7(4-8)3-6(7,2)9-5/h4-5H,3H2,1-2H3	InChI=1S/C7H10O2/c1-5-7(4-8)3-6(7,2)9-5/h4-5H,3H2,1-2H3/t5-,6+,7-/m1/s1
