18
gdb 29998	3.18574	1.64081	1.09786	2.3264	85.96	-0.1785	0.0129	0.1914	1086.4105	0.149853	-364.852723	-364.844974	-364.84403	-364.885444	29.747	
C	-0.0195847553	 1.4372037784	 0.0529521953	-0.342499
N	-0.0320565545	-0.0086494645	 0.0252415392	-0.1115
C	-0.0636840768	-0.7971863944	-1.1145710203	-0.090654
C	-0.0329039291	-2.1296338391	-0.754480763	-0.370367
C	 0.0217171049	-2.1528369975	 0.665741167	 0.287501
C	 0.0228577127	-0.8428909788	 1.1019959569	 0.285375
C	 0.0767453409	-0.7543148798	 2.5946099102	-0.417408
C	 0.1052013002	-2.2368951486	 2.9560648299	-0.093698
C	 0.0732730306	-3.0085528227	 1.8500479976	-0.19352
H	 0.9402048614	 1.8223588972	 0.4163618708	 0.136746
H	-0.1862893673	 1.8174443623	-0.9563273179	 0.140924
H	-0.8138854909	 1.8196089486	 0.702657325	 0.137716
H	-0.1062252408	-0.332313867	-2.0873552565	 0.11158
H	-0.053211841	-2.9630388635	-1.4400281401	 0.093545
H	 0.965485441	-0.2313393997	 2.9749790783	 0.12225
H	-0.7926389542	-0.2490803561	 3.0385822556	 0.122239
H	 0.1466461943	-2.5825317805	 3.9803053505	 0.089928
H	 0.0843822539	-4.0915051043	 1.8397474615	 0.091843
43.4557	151.5003	191.2795	248.6716	285.4662	434.522	502.0553	595.9554	611.9488	652.3319	654.7061	695.2218	737.9478	781.9328	790.0599	859.31	924.5822	929.8639	947.8514	1026.2197	1051.5724	1100.9461	1125.3273	1131.7175	1150.2488	1193.7395	1246.031	1261.6049	1326.7384	1371.1481	1435.0927	1450.778	1459.8474	1482.2489	1491.6101	1515.5163	1535.3688	1543.7925	1614.5223	3011.5843	3027.1682	3035.8819	3081.986	3135.2814	3203.4494	3229.857	3240.0342	3259.951
CN1C=CC2=C1CC=C2	Cn1ccc2c1CC=C2	
InChI=1S/C8H9N/c1-9-6-5-7-3-2-4-8(7)9/h2-3,5-6H,4H2,1H3	InChI=1S/C8H9N/c1-9-6-5-7-3-2-4-8(7)9/h2-3,5-6H,4H2,1H3
