20
gdb 83570	2.5343	1.7073	1.64149	2.1993	76.96	-0.2426	0.0269	0.2695	970.1847	0.174602	-403.181102	-403.173691	-403.172747	-403.212565	29.977	
C	-0.0470674431	 1.5428566623	 0.0051274114	-0.427291
C	 0.035302543	 0.0155534334	 0.0075249584	-0.011106
C	 0.9267948609	-0.562308989	-1.1021607285	 0.115877
C	 2.3648106515	-0.2894107663	-0.6240215224	-0.227772
C	 2.2607575641	-0.257695624	 0.934181463	-0.214688
C	 0.7804643095	-0.6026752362	 1.2105304177	 0.013305
N	 0.6070334832	-2.0675842486	 1.1855443707	-0.270044
C	 0.57222887	-2.5971920541	 0.03590656	 0.112137
O	 0.6997978599	-1.9962770177	-1.1728805983	-0.246174
H	 0.9371420937	 2.0174479304	 0.0600675643	 0.121143
H	-0.5389953431	 1.9058452051	-0.9036136846	 0.117956
H	-0.6306348635	 1.8960524682	 0.8613093394	 0.123402
H	-0.9765105149	-0.3965133317	-0.0673134617	 0.085066
H	 0.7129979608	-0.1959923142	-2.1076069712	 0.082081
H	 3.0376879166	-1.0663454817	-0.9935982746	 0.115828
H	 2.7241845992	 0.6636404281	-1.0227442079	 0.10513
H	 2.9207372464	-0.983025419	 1.4141081152	 0.11423
H	 2.5148216637	 0.7298109009	 1.3309295942	 0.098843
H	 0.4323443644	-0.2354981188	 2.1790467417	 0.069127
H	 0.4225878775	-3.667949777	-0.0896981568	 0.122948
151.3415	196.2618	219.9063	269.393	325.0575	386.2816	472.7846	487.679	586.4746	707.313	750.9241	783.0403	802.6726	831.4767	894.2823	920.5089	926.1773	961.7368	967.271	988.8865	1015.4589	1062.9499	1075.3359	1116.3091	1126.7563	1144.3373	1202.0123	1208.3465	1251.8436	1260.9569	1304.4052	1325.6533	1335.9126	1345.6032	1355.3513	1390.0241	1404.8563	1414.5403	1477.4666	1496.2241	1501.6225	1503.5857	1712.48	3034.9821	3053.4632	3054.3341	3064.5408	3078.4989	3098.8679	3101.337	3104.3983	3108.4782	3120.8283	3160.3106
CC1C2CCC1N=CO2	C[C@H]1[C@H]2CC[C@@H]1N=CO2	
InChI=1S/C7H11NO/c1-5-6-2-3-7(5)9-4-8-6/h4-7H,2-3H2,1H3	InChI=1S/C7H11NO/c1-5-6-2-3-7(5)9-4-8-6/h4-7H,2-3H2,1H3/t5-,6+,7-/m1/s1
