21
gdb 122915	5.15043	0.52648	0.49242	2.2696	82.89	-0.2525	0.0319	0.2844	2210.6731	0.178714	-424.175411	-424.164183	-424.163239	-424.212939	39.027	
C	-0.0643577769	 1.3990508418	 0.0287779983	-0.226783
O	-0.034134208	-0.0063685143	 0.0044851479	-0.229299
C	 0.6428546866	-0.5226008431	-1.1200939648	-0.056829
C	 0.6154431737	-2.0431613186	-1.0484403445	-0.197902
C	 1.3357350334	-2.6961685083	-2.2299660668	-0.198552
C	 1.2629937775	-4.2354276954	-2.1859022609	-0.062873
O	-0.0815726626	-4.7096508458	-2.1634828098	-0.413988
C	 2.0237776583	-4.8323211425	-3.2880920078	 0.293521
C	 2.6158529245	-5.2987187361	-4.2248577224	-0.43744
H	 0.9489953639	 1.831232801	 0.0619356638	 0.101242
H	-0.5819051695	 1.8138907016	-0.8514341962	 0.101146
H	-0.6050337067	 1.7007348492	 0.9293119166	 0.126241
H	 0.1623991507	-0.1726539601	-2.0515258198	 0.081086
H	 1.6843882055	-0.1545688803	-1.1429322678	 0.081036
H	 1.0794462703	-2.3570222467	-0.1052728329	 0.105451
H	-0.4234624206	-2.3840620526	-1.0166056973	 0.123237
H	 0.9012963367	-2.3581389065	-3.1804976181	 0.097348
H	 2.39226205	-2.4021919256	-2.2507595092	 0.109434
H	 1.6893843581	-4.5762625836	-1.2338016698	 0.119548
H	-0.4385364921	-4.6070059266	-3.0529207187	 0.285017
H	 3.1480618372	-5.7263153776	-5.0385268496	 0.19936
53.0869	56.9778	80.6818	118.9755	144.3703	169.1097	216.7081	236.8197	258.2797	302.4103	354.2237	402.8809	505.0237	561.3092	572.6017	631.9545	671.3582	762.6868	843.5199	904.3655	978.3223	998.1678	1055.8845	1061.9265	1100.1072	1122.8568	1165.9801	1178.791	1217.6641	1221.3064	1261.459	1272.9727	1304.6072	1321.2487	1342.5295	1385.2905	1419.8604	1429.2686	1479.5649	1481.9796	1485.1236	1499.4634	1507.7208	1532.9096	2232.0675	2935.5921	2960.2506	2966.0242	3006.4458	3016.9666	3033.4849	3040.4844	3063.032	3101.3412	3111.9933	3502.8223	3803.393
COCCCC(O)C#C	COCCC[C@@H](O)C#C	
InChI=1S/C7H12O2/c1-3-7(8)5-4-6-9-2/h1,7-8H,4-6H2,2H3	InChI=1S/C7H12O2/c1-3-7(8)5-4-6-9-2/h1,7-8H,4-6H2,2H3/t7-/m0/s1
