20
gdb 93221	2.68693	1.30242	0.9487	2.2831	75.69	-0.2258	-0.0292	0.1966	1255.3348	0.171771	-440.310645	-440.301856	-440.300912	-440.343898	33.91	
C	 0.0326084126	 1.5604448388	 0.0284891271	-0.404199
C	 0.0089179329	 0.0336947303	-0.0145842029	 0.039048
C	 0.6520275179	-0.5167528465	-1.3014110981	-0.215979
C	 0.6622692535	-2.0572781354	-1.3129633943	 0.043084
O	 1.3689189129	-2.5665921145	-2.4090197127	-0.443914
C	 1.2436287597	-2.5766558341	-0.0029463195	 0.358533
O	 2.1480198928	-3.3858791569	-0.0135996231	-0.332184
C	 0.6530759619	-1.9644462566	 1.2576763292	-0.26938
N	 0.6419243046	-0.4984440741	 1.2027028427	-0.288066
H	 1.0632090591	 1.934623468	 0.003616064	 0.114438
H	-0.4930953329	 1.9831878043	-0.8324291101	 0.121378
H	-0.4398947354	 1.9256709909	 0.9436634196	 0.128488
H	-1.0398063525	-0.2985117884	 0.0184499816	 0.083685
H	 0.1299533423	-0.1554434235	-2.1945514853	 0.109727
H	 1.6902650756	-0.1664691382	-1.3732165376	 0.10196
H	-0.3884177837	-2.4042367664	-1.3403888881	 0.088062
H	 2.0095177852	-3.189817841	-2.0291196462	 0.290703
H	-0.3822469111	-2.3149749922	 1.3733933886	 0.125136
H	 1.2216062777	-2.3063765081	 2.1258157912	 0.129757
H	 1.5981883867	-0.1555499765	 1.2569339938	 0.219723
87.3179	137.6043	198.4635	230.479	275.1297	303.5933	372.5836	390.6583	422.1698	451.5199	482.8115	518.7675	608.4492	723.2648	750.1116	778.2399	865.856	921.8589	935.9149	969.0759	1022.3793	1081.2077	1096.4921	1112.0883	1149.7325	1163.8317	1172.5087	1213.7249	1273.808	1283.9581	1306.9768	1335.4806	1366.3535	1375.7465	1376.9794	1410.314	1441.3252	1460.7261	1478.5529	1485.9001	1496.985	1504.7071	1798.8926	2924.5784	2992.7421	3014.7295	3023.2446	3033.9086	3073.1593	3101.4199	3108.4826	3126.1162	3489.6594	3678.1827
CC1CC(O)C(=O)CN1	C[C@H]1C[C@@H](O)C(=O)CN1	
InChI=1S/C6H11NO2/c1-4-2-5(8)6(9)3-7-4/h4-5,7-8H,2-3H2,1H3	InChI=1S/C6H11NO2/c1-4-2-5(8)6(9)3-7-4/h4-5,7-8H,2-3H2,1H3/t4-,5+/m0/s1
