15
gdb 84630	2.36208	1.86799	1.51197	1.9822	65.53	-0.247	-0.0339	0.2131	912.8798	0.112875	-457.746813	-457.739605	-457.738661	-457.778437	28.02	
O	 0.1082189567	 1.3771730761	-0.1803415867	-0.428234
C	 0.0262567875	-0.0336115002	-0.03721696	 0.075543
C	 0.713257515	-0.5218125875	 1.2268326295	-0.114441
C	 0.0231307694	-1.208564691	 2.1415598843	-0.060667
C	-1.4155888049	-1.5367587156	 1.7964088503	-0.080129
O	-1.4878672533	-1.9052201881	 0.3865509348	-0.289235
C	-1.4450699975	-0.5032079269	 0.0033262329	-0.068014
C	-2.060487869	-0.1923811356	 1.3857282203	 0.413718
O	-2.767281088	 0.635189609	 1.8683678836	-0.303915
H	-0.2682780243	 1.7823956974	 0.610325725	 0.293407
H	 0.5169902883	-0.4357637494	-0.9309409512	 0.109959
H	 1.7574988522	-0.2562891016	 1.3602626641	 0.116437
H	 0.4405861732	-1.5198435527	 3.0928444495	 0.11577
H	-1.919185842	-2.2419451292	 2.4576820045	 0.107933
H	-2.0006096134	-0.2746585848	-0.9082455911	 0.111869
106.6851	144.8019	281.0508	349.1459	378.314	413.4179	463.1113	499.33	564.0103	598.9539	704.5641	785.4493	815.8205	869.4863	887.2999	954.0768	961.8895	981.6568	1035.5698	1037.5238	1076.9886	1091.7043	1117.7613	1187.1271	1226.6133	1249.1313	1270.9086	1312.2113	1352.1932	1378.4584	1418.5176	1677.0298	1915.7766	3046.6478	3106.8899	3123.561	3175.5415	3199.1727	3788.0973
OC1C=CC2OC1C2=O	O[C@H]1C=C[C@@H]2O[C@H]1C2=O	
InChI=1S/C6H6O3/c7-3-1-2-4-5(8)6(3)9-4/h1-4,6-7H	InChI=1S/C6H6O3/c7-3-1-2-4-5(8)6(3)9-4/h1-4,6-7H/t3-,4-,6+/m0/s1
