15
gdb 20582	3.3029	2.01283	1.27036	2.1771	64.09	-0.2407	0.0062	0.2469	923.7612	0.117841	-399.814702	-399.806563	-399.805619	-399.847798	28.672	
C	 0.1005898462	 1.4944752495	 0.0661281236	-0.491918
C	-0.0658971486	 0.0209957441	-0.0477131024	 0.373934
C	-1.1497901998	-0.8035942559	-0.0034564573	-0.02454
C	-2.6010902539	-0.5008712673	 0.1818511593	-0.51008
C	-0.5569181862	-2.0891010563	-0.1832646758	 0.409311
O	-1.248423178	-3.2413703049	-0.2112957376	-0.418787
N	 0.7434529226	-2.0517671298	-0.3217012741	-0.266764
O	 1.0646836815	-0.6920255866	-0.2348444481	-0.226873
H	 0.7493493139	 1.7508050224	 0.910217912	 0.150752
H	 0.5590937768	 1.907374984	-0.8385137232	 0.150754
H	-0.8665972503	 1.978456931	 0.2146562622	 0.138817
H	-3.1932332449	-0.844278922	-0.6734139259	 0.139813
H	-3.0032387803	-1.0006188616	 1.0698647453	 0.139815
H	-2.7715353381	 0.5726930274	 0.2967081509	 0.125188
H	-0.615273301	-3.9593747939	-0.3448317987	 0.310579
52.759	89.6005	161.8519	236.9328	274.6814	285.2466	376.5259	461.1745	508.4017	581.3699	621.3253	701.3841	737.6327	784.3676	943.8284	959.3451	1021.8112	1058.8048	1070.9133	1149.496	1218.579	1236.4235	1327.0629	1412.0555	1425.3893	1471.4962	1479.5144	1484.7382	1489.9733	1539.073	1569.4708	1703.5811	3034.5992	3041.7338	3085.8865	3097.5576	3115.2226	3135.8484	3780.4967
CC1=C(C)C(O)=NO1	Cc1c(C)c(O)no1	
InChI=1S/C5H7NO2/c1-3-4(2)8-6-5(3)7/h1-2H3,(H,6,7)	InChI=1S/C5H7NO2/c1-3-4(2)8-6-5(3)7/h1-2H3,(H,6,7)
