19
gdb 79144	2.65064	1.7191	1.2717	1.533	73.89	-0.2292	0.074	0.3032	1030.1524	0.159886	-422.991401	-422.983709	-422.982765	-423.023201	30.949	
C	-0.1330667238	 1.5559575423	-0.0478067016	-0.41155
C	 0.0300836206	 0.046616482	 0.023503826	 0.139475
O	 0.8291004245	-0.4050239534	-1.0894500822	-0.287781
C	 1.5370014335	-1.5422386431	-0.6441175943	 0.098273
C	 2.5840856761	-1.3876585718	 0.4448478388	-0.111258
C	 1.1850273819	-1.9447816278	 0.7423391862	-0.12374
C	 0.7668737352	-0.5308011735	 1.2371371887	-0.129108
C	 2.2871884691	-0.1319323875	 1.2459063446	 0.139844
O	 2.8839099411	-0.251324229	 2.5231919545	-0.447402
H	 0.8269028871	 2.0715127661	 0.0398428893	 0.122734
H	-0.5833777335	 1.8404509647	-1.0028096046	 0.130646
H	-0.7917493126	 1.9032192403	 0.7549403356	 0.112576
H	-0.9647187417	-0.4254080683	-0.044260926	 0.068444
H	 1.7178990707	-2.2720482334	-1.424067045	 0.104124
H	 3.5400230992	-1.8981075033	 0.4188366605	 0.089095
H	 0.8506478055	-2.9137452593	 1.0870647354	 0.089749
H	 0.2538091646	-0.4328376029	 2.1936758488	 0.069986
H	 2.5493079227	 0.8285630004	 0.7811656758	 0.066597
H	 2.6208671998	 0.5145801073	 3.0437367894	 0.279295
147.1407	172.1916	221.2216	282.8442	304.5358	339.3457	392.1369	507.4723	542.0365	631.9911	738.8031	753.4686	785.9002	845.7282	855.8633	899.9383	921.0153	939.2964	988.5576	1003.6444	1010.5262	1043.3272	1058.1037	1063.6009	1100.123	1124.0934	1140.7519	1149.7268	1191.0339	1208.5337	1234.9737	1252.5209	1301.3987	1321.0897	1353.3556	1383.6795	1401.8966	1410.3289	1431.6663	1485.7122	1499.2705	2954.9492	3000.288	3043.531	3112.9264	3120.3596	3123.3308	3178.7956	3190.4341	3206.2089	3812.322
CC1OC2C3C2C1C3O	C[C@H]1O[C@H]2[C@@H]3[C@H]2[C@H]1[C@H]3O	
InChI=1S/C7H10O2/c1-2-3-4-5(6(3)8)7(4)9-2/h2-8H,1H3	InChI=1S/C7H10O2/c1-2-3-4-5(6(3)8)7(4)9-2/h2-8H,1H3/t2-,3+,4-,5-,6-,7-/m1/s1
