23
gdb 116206	2.1732	1.43641	0.97127	1.5157	85.03	-0.2454	0.0799	0.3253	1307.5215	0.206654	-388.284666	-388.275526	-388.274582	-388.318961	35.055	
C	-0.0372023803	 1.6385755817	-0.0692658363	-0.391091
C	-0.1405164943	 0.1099373777	-0.1276798403	-0.197515
C	 0.7311877577	-0.5142018927	-1.2192003067	-0.056865
C	 2.2443956121	-0.305420633	-1.0277149672	-0.096177
O	 2.8658796924	-1.3189169299	-1.8003283871	-0.248041
C	 2.106074215	-2.5014049369	-1.6004742949	-0.148248
C	 0.6579489471	-2.046675663	-1.3648540725	 0.320191
C	-0.2778154039	-2.9246895313	-0.5752181377	-0.315904
C	-0.4918496889	-2.7261733017	-2.0565586244	-0.308151
H	 0.9792800868	 1.9652134206	 0.1734742661	 0.121431
H	-0.3090953003	 2.0900150378	-1.0299478105	 0.116495
H	-0.7061448891	 2.0497000165	 0.6929033157	 0.113463
H	 0.1352155192	-0.3172440864	 0.8449452529	 0.098696
H	-1.1887944459	-0.1678886701	-0.2970269889	 0.097027
H	 0.4542937119	-0.0670552109	-2.1835781671	 0.07649
H	 2.6111904479	 0.6589527083	-1.3870974955	 0.107983
H	 2.5115244177	-0.4037435326	 0.0402542997	 0.080984
H	 2.2283574185	-3.1322774627	-2.4867104787	 0.105861
H	 2.4848044028	-3.057663393	-0.7264543747	 0.085965
H	 0.1018428456	-3.8849589394	-0.2380949112	 0.107615
H	-0.9824994636	-2.4664143904	 0.1098879834	 0.112224
H	-1.3325077058	-2.1129134464	-2.3683401041	 0.108495
H	-0.2753959526	-3.5532037321	-2.7259038199	 0.109071
41.8065	108.3776	177.6658	206.6882	249.7503	274.443	287.1934	354.8952	419.4286	489.2589	491.802	634.973	750.911	779.0395	792.3984	871.4002	894.0909	924.8347	946.742	966.235	975.9625	987.3191	1021.2313	1058.1054	1071.1909	1080.2148	1090.0305	1121.3594	1145.0487	1164.3379	1191.2013	1221.5142	1263.4707	1269.8975	1287.9905	1314.0554	1330.7669	1339.2978	1374.8968	1389.2576	1410.3594	1415.3804	1467.3517	1489.0651	1501.2469	1503.3716	1507.0073	1510.8348	1522.8693	2939.824	2957.9848	3008.3233	3016.7062	3032.9008	3051.5005	3067.1853	3096.9646	3100.2221	3105.7259	3116.4053	3123.6097	3194.8809	3211.6681
CCC1COCC11CC1	CC[C@H]1COCC21CC2	
InChI=1S/C8H14O/c1-2-7-5-9-6-8(7)3-4-8/h7H,2-6H2,1H3	InChI=1S/C8H14O/c1-2-7-5-9-6-8(7)3-4-8/h7H,2-6H2,1H3/t7-/m0/s1
