16
gdb 127578	2.01367	1.94641	1.00226	2.0995	79.96	-0.2547	-0.0375	0.2172	1140.9987	0.124911	-396.976322	-396.967257	-396.966313	-397.012243	30.722	
C	-0.0672792878	 1.4169157658	-0.0023447254	-0.334036
N	 0.0117005845	-0.0311058445	 0.0250071739	-0.049979
N	-0.0226406538	-0.7333466797	-1.1091524442	-0.245284
C	-0.0018891385	-2.0145408278	-0.7369661636	-0.063354
C	 0.0411807433	-2.1643586545	 0.661582646	 0.087838
C	 0.0874007492	-3.4172730145	 1.4770923415	-0.518582
C	 0.0453231137	-0.8504774103	 1.1226565302	 0.229606
C	 0.0838557762	-0.3516805494	 2.443863684	 0.21668
N	 0.1161687646	 0.0584529817	 3.5275629535	-0.359607
H	 0.5126267118	 1.8310864533	 0.8243818925	 0.163234
H	 0.3448976151	 1.7548888317	-0.952602833	 0.166093
H	-1.1048717303	 1.754934036	 0.0837094546	 0.153283
H	-0.0122582885	-2.7895940181	-1.489379781	 0.123901
H	 1.0092435133	-3.9799245883	 1.2936804425	 0.142387
H	 0.0411397272	-3.1930999242	 2.5456565855	 0.146704
H	-0.7504744798	-4.0793685172	 1.2354666532	 0.141117
27.1662	31.6179	128.7266	132.4726	192.8024	258.0782	291.5044	395.1458	511.2652	548.2406	579.1976	660.5424	661.3036	709.0788	788.5065	875.2726	1008.485	1028.5357	1063.3707	1094.9297	1147.747	1212.9451	1226.6062	1352.5523	1383.9761	1415.9037	1427.512	1449.5933	1470.1848	1484.5486	1486.6057	1501.0901	1513.3452	1590.4897	2337.4502	3037.4281	3050.5654	3091.4439	3121.8088	3126.1188	3169.1072	3246.5321
CN1N=CC(C)=C1C#N	Cn1ncc(C)c1C#N	
InChI=1S/C6H7N3/c1-5-4-8-9(2)6(5)3-7/h4H,1-2H3	InChI=1S/C6H7N3/c1-5-4-8-9(2)6(5)3-7/h4H,1-2H3
