15
gdb 42794	2.39728	1.78236	1.42935	3.1617	65.37	-0.2493	-0.0609	0.1884	940.7488	0.112756	-457.777959	-457.77078	-457.769836	-457.80988	27.301	
O	 0.0110309975	 0.0159116254	 0.1078382706	-0.279571
C	-0.0212792319	 1.2028965972	 0.0575785766	 0.41538
C	-1.0795366447	 2.3102334063	-0.0318208243	-0.033718
C	-1.3795347009	 2.8404416151	 1.383849043	-0.250918
C	-0.0942726096	 3.4716929373	 1.9836716566	-0.308132
C	 1.1919748146	 2.8660810382	 1.414448343	 0.397306
O	 2.2307517845	 2.7647042461	 2.012287406	-0.296805
C	 0.9942013884	 2.3712222004	-0.0245522782	-0.147386
O	-0.0593801629	 3.1576984543	-0.6412806809	-0.29012
H	-1.9601230576	 2.1721669068	-0.6623885261	 0.115914
H	-2.1729093597	 3.5906030786	 1.3340753763	 0.127279
H	-1.7490331431	 2.018098091	 2.0057570299	 0.132918
H	-0.064866228	 4.5359600343	 1.7250944369	 0.152092
H	-0.061210198	 3.4028573796	 3.0724123342	 0.137236
H	 1.9154777616	 2.2950718494	-0.6019427834	 0.128523
97.2319	120.3046	192.5133	370.0877	430.7977	461.6499	475.8516	508.6464	563.2536	673.1481	714.3138	786.2322	820.4471	876.3701	912.9551	953.3342	991.8435	1024.9196	1035.2157	1074.9338	1099.8346	1147.9629	1182.6413	1219.6539	1235.1954	1278.0471	1296.9766	1324.4941	1354.1655	1449.8014	1490.5812	1831.1327	1928.1589	3052.7497	3056.0283	3097.2144	3106.4839	3125.1536	3133.706
O=C1C2CCC(=O)C1O2	O=C1[C@H]2CCC(=O)[C@@H]1O2	
InChI=1S/C6H6O3/c7-3-1-2-4-5(8)6(3)9-4/h4,6H,1-2H2	InChI=1S/C6H6O3/c7-3-1-2-4-5(8)6(3)9-4/h4,6H,1-2H2/t4-,6+/m1/s1
