15
gdb 33832	4.78434	1.07582	1.00581	3.1376	73.85	-0.2495	0.0102	0.2597	1167.023	0.110032	-420.520774	-420.513034	-420.51209	-420.552997	29.857	
C	 0.0223459486	-1.1862813715	 0.1346486505	-0.367912
C	 0.0554618621	 0.0108422723	 0.0277337972	 0.175894
C	 0.0550402811	 1.421885269	-0.1395863996	 0.267968
C	-0.7214082543	 2.2616292878	-1.180229297	-0.402538
C	 0.4827680822	 3.2347231208	-1.1665002957	 0.456296
C	 1.0847234968	 3.9621509462	-2.2824296895	-0.266303
O	 0.4249899976	 4.6408521744	-1.2014119886	-0.259072
C	 1.168259512	 2.4127630987	-0.0938303845	-0.150314
O	 0.2508842521	 2.2823219474	 0.9951326456	-0.273394
H	 0.0010203009	-2.2429634654	 0.2402443869	 0.195014
H	-0.8655057831	 1.7627502737	-2.1405186471	 0.12628
H	-1.6663382284	 2.6610045316	-0.8084340448	 0.132537
H	 2.1643876083	 4.0994081952	-2.3278228215	 0.122442
H	 0.5690925286	 3.9947323548	-3.241047831	 0.122731
H	 2.2228177354	 2.2798769251	 0.1186509391	 0.12037
85.4454	144.6844	214.3485	285.3401	341.3659	408.7263	445.8052	508.4422	525.3696	583.119	615.741	666.7921	677.403	785.2679	845.2623	848.504	899.4455	937.1212	965.6018	1001.1542	1043.8027	1119.9896	1127.046	1140.5644	1159.4417	1201.1194	1222.0002	1237.4362	1402.4579	1438.1601	1468.7814	1538.7892	2243.8453	3079.7743	3082.9586	3143.488	3170.9756	3191.9886	3500.8016
C#CC12CC3(CO3)C1O2	C#C[C@]12C[C@]3(CO3)[C@H]1O2	
InChI=1S/C7H6O2/c1-2-6-3-7(4-8-7)5(6)9-6/h1,5H,3-4H2	InChI=1S/C7H6O2/c1-2-6-3-7(4-8-7)5(6)9-6/h1,5H,3-4H2/t5-,6-,7-/m0/s1
