18
gdb 72857	3.00047	1.25454	1.0633	4.2651	76.23	-0.2635	0.0218	0.2853	1167.2591	0.147709	-401.93381	-401.925524	-401.92458	-401.967011	31.089	
C	-0.6044650795	 1.5641904919	-0.0756868414	-0.500398
C	-0.1052807085	 0.1393195015	-0.0193035777	 0.300413
C	-1.1121529253	-0.9883241743	 0.2998968277	-0.124035
O	-0.254095846	-1.5287387236	 1.3372155836	-0.286832
C	 0.7135334431	-0.4938051665	 1.1464825558	 0.067283
C	 1.8361504579	-0.9361043998	 0.1457863135	-0.163285
C	 1.0013459403	-0.2967592088	-1.0226815598	-0.311091
C	 3.1419144558	-0.3425224019	 0.3661125331	 0.262743
N	 4.166246989	 0.1605283148	 0.5552840775	-0.325851
H	 0.2265441248	 2.2769936684	-0.0824597208	 0.131332
H	-1.1931961483	 1.7343370744	-0.9851718078	 0.127006
H	-1.2425743902	 1.7968746245	 0.7832446299	 0.127055
H	-2.0649595649	-0.6423131503	 0.7192362934	 0.108762
H	-1.311886704	-1.7147527341	-0.4974160597	 0.105238
H	 1.0179757203	-0.0017135687	 2.0731226878	 0.098949
H	 1.9229230766	-2.0241637728	 0.1073504532	 0.135251
H	 0.6962139428	-0.9936320882	-1.8063843339	 0.116181
H	 1.5140454163	 0.5487904234	-1.4842103542	 0.131279
55.2585	153.5542	182.4071	216.3884	262.5144	336.0435	365.2579	389.4414	480.5314	549.4924	622.1973	685.7651	804.9168	852.7015	881.4773	912.5602	964.4958	987.5267	996.1605	1016.1722	1022.8927	1041.8843	1106.5172	1150.2603	1164.9961	1179.2286	1218.4648	1237.7789	1260.6348	1278.5872	1306.1594	1334.0153	1381.8351	1417.2208	1479.7361	1492.3264	1495.4582	1524.2021	2349.9758	3012.9951	3026.4501	3060.87	3072.0364	3088.2457	3090.5545	3092.719	3103.4014	3132.2486
CC12COC1C(C2)C#N	C[C@]12CO[C@H]1[C@@H](C2)C#N	
InChI=1S/C7H9NO/c1-7-2-5(3-8)6(7)9-4-7/h5-6H,2,4H2,1H3	InChI=1S/C7H9NO/c1-7-2-5(3-8)6(7)9-4-7/h5-6H,2,4H2,1H3/t5-,6-,7-/m0/s1
