13
gdb 21061	5.766	1.70128	1.32467	3.4473	68.46	-0.2394	-0.0699	0.1695	870.11	0.096296	-390.905004	-390.89798	-390.897036	-390.937067	24.686	
C	-0.0580156594	 1.4141240395	 0.009548172	-0.304709
N	-0.0277244128	-0.0395608986	 0.0010683795	 0.108174
N	-1.2208985289	-0.6766288939	 0.0054733041	-0.196116
C	-1.1616026243	-1.9656523606	-0.0015301344	 0.028348
C	 0.095210241	-2.6957871799	-0.0128974416	 0.333193
N	 0.1296609483	-3.9720791122	-0.0218691866	-0.510068
N	 1.2701329562	-1.8920459683	-0.0151619985	-0.262193
N	 1.1774783459	-0.6285609935	-0.0082288591	-0.0576
H	 0.9735963146	 1.761985893	 0.002840801	 0.168563
H	-0.5858005661	 1.7815719795	-0.8742474347	 0.155109
H	-0.5708091127	 1.7718463208	 0.9061179096	 0.155043
H	-2.101752105	-2.5082254068	 0.001707868	 0.154165
H	 1.1053804131	-4.2806588391	-0.0296976293	 0.228092
47.166	95.6765	194.7818	335.824	429.6761	444.7682	473.0045	511.3758	680.64	762.5567	777.7285	819.1847	909.1473	960.7072	982.4602	1004.9308	1118.2134	1153.2524	1240.5224	1316.4543	1334.5351	1391.5589	1445.6754	1477.5314	1502.9288	1510.3783	1638.0762	1714.8238	3055.624	3122.5917	3178.8448	3189.9862	3448.4435
CN1N=CC(=N)N=N1	Cn1ncc([NH])nn1	
InChI=1S/C3H5N5/c1-8-5-2-3(4)6-7-8/h2,4H,1H3	InChI=1S/C3H10N5/c1-8-5-2-3(4)6-7-8/h3-7H,2H2,1H3
