18
gdb 81425	2.41114	2.01839	1.48505	3.2317	70.66	-0.2209	0.0583	0.2793	938.5334	0.148029	-439.012725	-439.005022	-439.004078	-439.04444	30.684	
C	-0.0166786156	 1.4919951305	 0.0323141133	-0.502104
C	 0.0499039604	-0.0070404559	 0.0122931507	 0.340838
N	-0.8514857991	-0.8649531476	 0.8184548718	-0.363501
C	 0.6145783491	-0.8927912272	 1.0543635174	-0.105167
C	 1.3368083615	-1.9230854589	 0.1569623298	-0.0029
O	 0.3788358719	-2.1629547635	-0.9055135642	-0.26352
C	 0.5792460056	-0.7649125957	-1.2385333474	-0.023944
C	 2.0733271169	-0.9902048079	-0.8700688552	 0.114543
O	 2.8220306161	 0.1190664021	-0.4563719176	-0.426925
H	 0.9161725414	 1.9203984611	-0.3462103861	 0.143883
H	-0.8415672416	 1.8633881629	-0.5872574372	 0.121086
H	-0.1691523765	 1.8654135179	 1.0507870687	 0.113088
H	-1.2617929421	-0.2715536095	 1.5398972537	 0.222291
H	 1.0454873322	-0.5391297506	 1.9826609454	 0.092675
H	 1.7647084064	-2.8278830847	 0.5879892878	 0.079253
H	 0.2329344117	-0.4813535092	-2.2323137113	 0.079583
H	 2.5780038679	-1.5836264612	-1.6390596826	 0.088575
H	 3.7539776439	-0.1163088727	-0.461823907	 0.292247
170.8101	185.3319	201.0908	219.2826	306.5478	346.6476	437.8867	479.4535	558.4054	621.2753	693.5204	757.3033	789.1467	854.0156	857.8914	870.7778	903.4364	914.6226	952.0707	981.2729	1007.8116	1053.0871	1072.3815	1114.2465	1129.6188	1145.3173	1162.4426	1195.2135	1228.6061	1246.1289	1278.0498	1286.6721	1324.3552	1337.3937	1410.1034	1430.8757	1435.8517	1487.6951	1500.4642	3025.2724	3064.8643	3085.6524	3109.5793	3122.9955	3126.5573	3193.1662	3464.3502	3837.7927
CC12NC1C1OC2C1O	C[C@]12N[C@H]1[C@H]1O[C@@H]2[C@H]1O	
InChI=1S/C6H9NO2/c1-6-4(7-6)3-2(8)5(6)9-3/h2-5,7-8H,1H3	InChI=1S/C6H9NO2/c1-6-4(7-6)3-2(8)5(6)9-3/h2-5,7-8H,1H3/t2-,3-,4-,5+,6-/m0/s1
