17
gdb 133633	3.95361	0.73089	0.71494	2.1517	62.17	-0.2443	0.0858	0.3302	1561.1654	0.132077	-549.489181	-549.480384	-549.47944	-549.524066	31.583	
F	 0.2044187609	 0.0533056428	 0.013939298	-0.086284
C	-0.0464457526	 1.3747788159	 0.0458003592	 0.280943
F	 1.1227944063	 2.0029216353	-0.168958224	-0.086296
F	-0.8471162749	 1.6528168156	-0.9944505321	-0.077876
C	-0.6780389807	 1.7941336946	 1.3542539725	-0.325778
C	 0.2214695482	 1.5176769881	 2.5611159184	-0.155281
N	-0.4460577377	 1.9494425674	 3.7818298175	-0.064453
C	-1.2661377729	 0.9447871255	 4.4563949568	-0.224552
C	 0.0464279349	 1.3610645338	 5.0219300874	-0.221267
H	-0.9078799397	 2.8610535002	 1.2935029914	 0.14115
H	-1.6254474575	 1.2548828122	 1.4491413789	 0.13086
H	 0.4905293126	 0.4473315461	 2.5840210965	 0.097283
H	 1.1524313023	 2.0852857954	 2.4603406441	 0.122387
H	-2.194824993	 1.3039154768	 4.889627451	 0.121202
H	-1.3213910737	-0.049079156	 4.0138636329	 0.11282
H	 0.8634208997	 0.6440605117	 4.9574522539	 0.113548
H	 0.0943480176	 2.0311182246	 5.8752070677	 0.121596
54.0688	68.0722	126.71	138.2002	252.2071	317.0484	358.309	403.8877	450.5297	539.1096	563.686	650.9022	774.0373	798.4048	837.6185	858.4829	909.7644	1013.8796	1020.1557	1042.5921	1075.5664	1113.9106	1121.2203	1152.89	1170.8361	1190.8283	1214.0694	1268.5447	1276.4876	1322.5261	1335.6013	1353.0243	1417.3914	1477.6948	1491.0912	1504.652	1525.6046	2954.9654	3066.3979	3074.0314	3093.5938	3100.4581	3121.323	3180.3124	3194.3711
FC(F)(F)CCN1CC1	FC(F)(F)CCN1CC1	
InChI=1S/C5H8F3N/c6-5(7,8)1-2-9-3-4-9/h1-4H2	InChI=1S/C5H8F3N/c6-5(7,8)1-2-9-3-4-9/h1-4H2
