17
gdb 39933	3.2718	1.42602	1.06341	1.8068	87.18	-0.206	-0.0582	0.1478	1115.5657	0.137749	-384.685022	-384.677675	-384.676731	-384.717749	28.893	
C	 0.8687726772	 1.3373769992	 0.0009643512	-0.213272
O	 1.3472962233	 0.0012846404	-0.0105373341	-0.290014
C	-0.1056547504	 0.2226785166	 0.0042628374	 0.301378
C	-0.7077448992	-0.1523994506	 1.3030798056	-0.10162
C	-1.882811276	-0.7429654059	 1.582993503	-0.090862
C	-2.9390685646	-1.1831761292	 0.6985109177	-0.107425
C	-2.9517398881	-1.1760937172	-0.6513876683	-0.107425
C	-1.912228439	-0.7265231004	-1.5508745654	-0.090862
C	-0.7320566055	-0.1388107533	-1.2868870369	-0.10162
H	 1.0393414075	 1.8971604352	 0.9215895295	 0.109495
H	 1.0220843107	 1.9068057297	-0.9167765249	 0.109495
H	-0.0587751822	 0.086935115	 2.142142063	 0.101058
H	-2.0835345591	-0.9089757583	 2.6390460073	 0.09533
H	-3.8209177592	-1.5750598727	 1.1985035809	 0.094977
H	-3.8428579286	-1.5627968752	-1.1388226512	 0.094977
H	-2.1327566141	-0.8814635815	-2.6046567644	 0.09533
H	-0.0989280226	 0.1093780183	-2.1354262494	 0.101058
22.8484	235.4699	293.9143	330.6885	346.4149	402.8756	450.7414	529.9596	618.1144	622.6268	695.5038	787.7826	811.1263	839.1918	867.0036	874.6259	912.5282	934.0965	983.7457	997.0091	1011.2251	1023.0791	1028.4069	1132.3219	1155.4197	1246.6779	1262.2592	1271.1855	1323.4015	1355.7856	1432.1468	1469.791	1487.7958	1516.2776	1638.1804	1691.1762	1713.5671	3061.5327	3138.8846	3142.2917	3146.8377	3153.5753	3163.1382	3166.3662	3177.305
C1OC11C=CC=CC=C1	C1O[C@]21C=CC=CC=C2	
InChI=1S/C8H8O/c1-2-4-6-8(5-3-1)7-9-8/h1-6H,7H2	InChI=1S/C8H8O/c1-2-4-6-8(5-3-1)7-9-8/h1-6H,7H2
