18
gdb 126465	3.21154	1.04234	0.83065	2.2129	74.3	-0.2486	-0.0149	0.2337	1409.5474	0.148177	-435.274302	-435.265096	-435.264152	-435.309433	32.307	
C	 0.967569558	 1.6147517465	 0.3470859932	-0.378761
C	-0.0608289998	 0.4742496836	 0.2895804111	-0.292265
C	 0.3207796602	-0.6789270292	 1.1584313858	 0.360554
N	 0.5627571798	-1.8709424254	 0.6803679215	-0.180659
O	 0.891691967	-2.6213263974	 1.8242930432	-0.203044
C	 0.8034691651	-1.7849443782	 2.8614644169	 0.452141
C	 1.0516862698	-2.3183967639	 4.2346801825	-0.276592
N	 1.5614373321	-1.255833277	 5.0961798842	-0.508361
N	 0.4586560725	-0.5788360769	 2.5295634959	-0.360583
H	 1.9407670204	 1.2831198889	-0.0267018579	 0.129069
H	 0.6358241145	 2.4574724795	-0.2657366138	 0.118627
H	 1.0997609925	 1.9649653893	 1.3740473297	 0.140585
H	-1.0375036835	 0.8448875756	 0.622148987	 0.124906
H	-0.1798620154	 0.1082261816	-0.7336850644	 0.129813
H	 0.1074629462	-2.7808042017	 4.5767297103	 0.120574
H	 1.7843894972	-3.1301180256	 4.1647272779	 0.140783
H	 0.9822310097	-0.4295715417	 4.9818317022	 0.249078
H	 1.4957178637	-1.541070908	 6.0673482347	 0.234134
48.2867	67.6829	113.7477	169.7501	209.5095	225.4827	259.9338	372.9059	399.0847	466.6554	612.3843	671.6138	748.2748	765.2842	806.1789	855.6348	916.3275	976.0655	1019.2637	1022.872	1055.6852	1081.43	1102.594	1104.5841	1178.8832	1270.6379	1278.0407	1299.2498	1343.6624	1387.0761	1411.4862	1450.5428	1476.2389	1496.2208	1501.3262	1507.3954	1564.6302	1625.223	1654.4337	2933.9149	3043.6584	3046.7837	3062.5568	3099.0218	3118.6341	3129.6151	3503.7829	3587.8845
CCC1=NOC(CN)=N1	CCc1noc(CN)n1	
InChI=1S/C5H9N3O/c1-2-4-7-5(3-6)9-8-4/h2-3,6H2,1H3	InChI=1S/C5H9N3O/c1-2-4-7-5(3-6)9-8-4/h2-3,6H2,1H3
