15
gdb 85128	1.99386	1.57224	1.46882	1.1416	62.93	-0.2628	-0.0577	0.2051	998.2137	0.108977	-494.902925	-494.894024	-494.89308	-494.936476	32.19	
O	 0.342141867	 1.181043123	-0.0826963333	-0.438537
C	 0.157949556	-0.1915556896	 0.1244936754	 0.086819
C	 0.0937901749	-0.5136594716	 1.6468041213	-0.346378
C	-1.4097791256	-0.3281985825	 1.5253019687	 0.331353
O	-2.2879550702	 0.1423679534	 2.1858239285	-0.294664
C	-1.3732626238	-0.5697342455	-0.0119938772	 0.16713
O	-2.1793952853	 0.2762676167	-0.7782256505	-0.480586
C	-1.5829894453	-2.0189815943	-0.4007406834	 0.114959
O	-0.8417528042	-2.9174941393	-0.091800855	-0.25322
H	-0.2523789424	 1.4382001628	-0.8005151334	 0.293501
H	 0.8376336207	-0.8139395769	-0.4660888185	 0.096703
H	 0.3520460357	-1.5601261637	 1.8320445784	 0.162243
H	 0.6248714584	 0.1537339495	 2.32603361	 0.145851
H	-2.7217214996	 0.7914967824	-0.1650827927	 0.308041
H	-2.4993617061	-2.1749749943	-1.0083542682	 0.106784
95.1196	115.6406	163.1922	192.5184	233.5599	245.5565	314.8091	387.6823	432.3236	452.9732	491.3559	571.0982	636.1814	686.0012	754.3735	809.4812	863.5701	967.3234	1034.1864	1047.2009	1085.696	1124.2673	1179.3679	1187.6622	1216.429	1250.3456	1336.4574	1349.8953	1383.4494	1396.3127	1422.1601	1807.434	1885.7645	2918.1847	3058.5405	3077.9157	3153.3218	3751.5011	3756.6072
OC1CC(=O)C1(O)C=O	O[C@H]1CC(=O)[C@]1(O)C=O	
InChI=1S/C5H6O4/c6-2-5(9)3(7)1-4(5)8/h2-3,7,9H,1H2	InChI=1S/C5H6O4/c6-2-5(9)3(7)1-4(5)8/h2-3,7,9H,1H2/t3-,5-/m0/s1
