18
gdb 127234	4.46739	0.99218	0.86383	3.3267	80.06	-0.2231	0.0159	0.2389	1349.8235	0.149838	-398.119316	-398.110805	-398.109861	-398.155092	30.257	
C	 0.3182700561	 1.324922519	 0.0499565087	-0.319798
N	 0.0379863213	-0.0947136848	 0.0260999034	 0.061732
C	 0.5024060989	-1.019687895	-0.8492526847	-0.1465
C	-0.1005197773	-2.2261158736	-0.5311187478	 0.188935
C	-0.9326425272	-1.8984313202	 0.565594558	-0.082847
N	-0.8495933581	-0.6135100251	 0.8965766155	-0.267213
C	 0.0769751	-3.5592709341	-1.14419926	-0.108888
C	 1.0756590033	-3.8044315655	-2.2145292943	-0.244301
N	 1.2953632634	-4.3696240577	-0.8745592619	-0.312697
H	 1.2671608712	 1.5135870251	-0.4558463597	 0.137872
H	-0.4740932547	 1.8927597737	-0.4487623073	 0.145793
H	 0.3877714527	 1.6538513251	 1.0879574705	 0.158019
H	 1.2037406323	-0.7518367329	-1.623876598	 0.130971
H	-1.5809642883	-2.5571721499	 1.1257254368	 0.114732
H	-0.8217414042	-4.1715529011	-1.148279526	 0.093197
H	 0.8664657157	-4.5331147828	-2.9928428802	 0.118651
H	 1.6954977646	-2.9728855295	-2.5397106157	 0.105903
H	 1.9605343902	-3.7861512607	-0.3711115572	 0.226439
13.3275	39.832	128.6415	168.6673	215.6685	357.3778	402.2771	462.8696	594.011	648.3392	691.6564	738.3259	786.6644	815.6126	873.6791	885.0426	960.361	989.7507	1006.5109	1029.8291	1077.0556	1105.5042	1146.4452	1149.325	1171.9475	1196.5035	1224.9557	1260.0053	1302.0655	1336.4363	1344.9187	1414.0781	1446.7987	1455.5706	1475.0449	1482.8074	1512.7835	1522.4122	1609.2985	3044.6351	3107.956	3117.6343	3132.1269	3151.3771	3189.0616	3239.6365	3256.4325	3490.0804
CN1C=C(C=N1)C1CN1	Cn1cc(cn1)[C@H]1CN1	
InChI=1S/C6H9N3/c1-9-4-5(2-8-9)6-3-7-6/h2,4,6-7H,3H2,1H3	InChI=1S/C6H9N3/c1-9-4-5(2-8-9)6-3-7-6/h2,4,6-7H,3H2,1H3/t6-/m1/s1
