17
gdb 74919	3.23577	1.69527	1.51147	1.7866	71.73	-0.2311	0.0116	0.2428	931.5146	0.137708	-421.821658	-421.814986	-421.814042	-421.852479	27.52	
C	-0.0110478485	 1.4929682125	 0.0508950614	-0.493923
C	-0.0022739355	-0.0051173434	-0.0239882972	 0.361502
C	-0.0372692704	-0.7299625544	-1.1531197938	-0.186795
C	-0.0181100095	-2.2118726636	-0.9346133629	 0.105113
O	-1.1198148797	-2.5740278035	-0.0817765287	-0.254366
C	-0.686270526	-2.1691970438	 1.183235641	 0.038295
C	 0.7994470634	-2.1578511993	 1.1299018163	 0.038296
O	 1.1473035688	-2.5567131983	-0.1631588006	-0.254366
C	 0.04825924	-0.806482235	 1.2132543264	-0.251634
H	 0.8852291954	 1.8689449852	 0.5594254468	 0.12952
H	-0.050077992	 1.9394088274	-0.9461920863	 0.12598
H	-0.8744014495	 1.8554928044	 0.6222740821	 0.129526
H	-0.0762587114	-0.3073227685	-2.1494946524	 0.092299
H	-0.04557643	-2.8291282355	-1.8310957425	 0.095487
H	-1.3171690352	-2.5048887824	 1.9935885991	 0.118312
H	 1.491868164	-2.4834336383	 1.8927534964	 0.118312
H	 0.0787902361	-0.2995993936	 2.1715802648	 0.088441
153.0842	177.099	312.4315	409.9926	425.6263	476.3781	609.8377	655.2353	664.2286	724.7184	765.1501	766.7503	805.4359	831.9554	853.3573	907.217	953.6631	969.3415	973.9974	1034.6837	1051.7568	1064.1931	1068.3255	1085.6175	1114.5571	1145.8074	1195.7516	1250.6916	1290.9842	1336.6298	1344.184	1374.0349	1403.866	1417.3889	1479.2611	1489.0771	1693.2289	3021.2954	3071.043	3114.8875	3139.0279	3172.8232	3203.0303	3219.9346	3229.1384
CC1=CC2OC3C(O2)C13	CC1=C[C@@H]2O[C@H]3[C@@H](O2)[C@@H]13	
InChI=1S/C7H8O2/c1-3-2-4-8-6-5(3)7(6)9-4/h2,4-7H,1H3	InChI=1S/C7H8O2/c1-3-2-4-8-6-5(3)7(6)9-4/h2,4-7H,1H3/t4-,5+,6-,7+
