19
gdb 76527	2.5116	1.22549	1.18123	2.9702	78.	-0.2321	-0.0155	0.2165	1183.0174	0.157237	-423.021782	-423.012447	-423.011502	-423.056001	34.316	
C	-0.0484179631	 1.5181544438	-0.1763595348	-0.421066
C	 0.0772167921	 0.016125777	-0.0639800506	-0.122954
C	 1.419068896	-0.6549330875	-0.0813967936	 0.025428
O	 2.588685162	 0.106397608	-0.0791334661	-0.415068
C	 0.6319822785	-0.6067561962	 1.2098227239	 0.20541
C	 1.0631346839	 0.0372282762	 2.5372635305	-0.323935
C	 0.5531059585	-1.2351446115	 3.2938936658	-0.345404
C	 0.1046395399	-1.80932828	 1.9334398005	 0.338762
O	-0.4516603182	-2.8129632334	 1.5813025076	-0.320443
H	 0.8356988504	 2.0170683848	 0.2273685975	 0.133629
H	-0.1594628204	 1.8204497611	-1.2238544079	 0.119178
H	-0.9259476481	 1.8836672477	 0.3663972806	 0.125573
H	-0.7301838034	-0.5608691823	-0.5099965883	 0.105836
H	 1.4993219035	-1.6325254317	-0.5571188616	 0.105682
H	 2.733268421	 0.4396396736	-0.9714671728	 0.294834
H	 2.1352510732	 0.2229961787	 2.6167429848	 0.124991
H	 0.5254229713	 0.9523769274	 2.7956954526	 0.108056
H	 1.3268935598	-1.8311204065	 3.7858263473	 0.132463
H	-0.264884107	-1.0774576293	 4.0023537248	 0.129029
74.4655	109.8394	155.0086	183.207	189.2398	217.567	263.9306	311.6716	436.0222	507.7745	549.7314	583.7814	606.6688	735.4293	746.1379	779.6972	845.1697	924.6598	950.974	1002.6356	1021.8347	1043.8082	1070.9101	1098.252	1118.5162	1136.7182	1168.7699	1183.8446	1209.9305	1225.2676	1245.1218	1288.6668	1313.5219	1376.0368	1413.8539	1436.3239	1451.8598	1495.8185	1497.6653	1504.8624	1872.9063	3034.9491	3062.6039	3074.5053	3093.0492	3101.9019	3111.7655	3121.3443	3131.1563	3138.3665	3801.3868
CC1C(O)C11CCC1=O	C[C@H]1[C@@H](O)[C@]21CCC2=O	
InChI=1S/C7H10O2/c1-4-6(9)7(4)3-2-5(7)8/h4,6,9H,2-3H2,1H3	InChI=1S/C7H10O2/c1-4-6(9)7(4)3-2-5(7)8/h4,6,9H,2-3H2,1H3/t4-,6+,7-/m0/s1
