15
gdb 5925	3.46677	1.32146	1.21294	4.9886	63.01	-0.2923	-0.0137	0.2786	1028.8352	0.115648	-399.831291	-399.822452	-399.821508	-399.864627	30.832	
C	 0.014969071	 1.5763451524	 0.0069724192	-0.414348
C	 0.0096879914	 0.0396548882	 0.0694803456	 0.182897
C	 0.7959213867	-0.5129807401	 1.270232875	-0.414275
O	-1.3444067101	-0.4851002218	 0.0390868984	-0.221822
C	-2.1957377476	-0.1932348952	 1.0470142678	 0.176581
O	-3.3157300261	-0.6035674082	 1.0611708657	-0.260908
C	 0.611370564	-0.4863397083	-1.1726785666	 0.29697
N	 1.1297926874	-0.8712753036	-2.1295693789	-0.321751
H	 1.0368610207	 1.937799781	-0.1312257957	 0.151738
H	-0.5950749123	 1.9210976788	-0.8304852371	 0.159423
H	-0.3755211597	 2.0021776786	 0.9343380419	 0.13352
H	 0.4103663318	-0.1024204595	 2.2065217002	 0.13351
H	 0.7223371791	-1.6020511227	 1.299292804	 0.15943
H	 1.849006918	-0.2347085421	 1.1831483572	 0.151709
H	-1.7626263043	 0.4457456725	 1.8347806634	 0.087328
97.983	127.9454	138.2739	189.8088	250.7831	251.3139	263.5705	340.8418	401.6568	428.5063	495.0365	586.131	627.5857	769.8341	898.5149	933.4654	983.7574	1027.9985	1042.7148	1157.208	1179.8125	1191.212	1266.9229	1401.045	1414.1252	1434.2695	1478.2144	1482.2369	1497.7617	1502.0745	1866.094	2370.1243	2993.8494	3055.1019	3058.8063	3132.0295	3136.9553	3144.5556	3145.6264
CC(C)(OC=O)C#N	CC(C)(OC=O)C#N	
InChI=1S/C5H7NO2/c1-5(2,3-6)8-4-7/h4H,1-2H3	InChI=1S/C5H7NO2/c1-5(2,3-6)8-4-7/h4H,1-2H3
