19
gdb 70258	3.61204	1.12748	0.98147	4.5752	79.91	-0.2335	0.028	0.2615	1238.3751	0.160899	-382.07767	-382.069384	-382.06844	-382.110347	32.213	
C	-0.4668051955	 1.562102789	 0.3445461538	-0.462612
C	-0.0082766686	 0.1416777857	 0.1380249781	 0.356913
C	-0.8429773187	-1.0344698426	 0.6159895309	-0.342881
C	 0.5150860337	-0.7481612132	 1.2307076837	-0.0819
C	 1.7223754189	-1.4862206058	 0.6806948494	-0.222991
C	 1.5590043098	-1.3315177768	-0.8577252662	-0.143679
N	 0.851854247	-0.054348371	-1.0190249009	-0.342812
C	 2.8369907226	-1.3350541914	-1.580530662	 0.286747
N	 3.8398097962	-1.3624619571	-2.1536907724	-0.323208
H	 0.3904824833	 2.2411640011	 0.3782270183	 0.131339
H	-1.1229234707	 1.8884185876	-0.4710797004	 0.117572
H	-1.0299062594	 1.6580120239	 1.2772650386	 0.117933
H	-1.7111881538	-0.8133568568	 1.2278025336	 0.113123
H	-0.9670216003	-1.9055701173	-0.0203828171	 0.108524
H	 0.5570332024	-0.4001788166	 2.256552668	 0.096103
H	 2.641374688	-0.9937805742	 1.0105970353	 0.131656
H	 1.7821912715	-2.5400919951	 0.9650917061	 0.119389
H	 0.9827836844	-2.1894354152	-1.2371850027	 0.11391
H	 0.3452247191	-0.0198006843	-1.8978696941	 0.226875
96.2398	150.0993	206.1488	223.6966	284.8983	321.8131	394.4267	407.4871	514.0149	537.0656	583.3044	607.8113	713.6434	817.5156	827.6153	859.8972	881.2226	931.5772	944.4054	981.6957	1039.9528	1043.3052	1057.3703	1083.6265	1099.3024	1113.7878	1136.1763	1199.4609	1270.3959	1277.5559	1315.2026	1328.0898	1378.2518	1388.2969	1421.713	1434.8052	1484.772	1490.9437	1498.4384	1507.2376	2361.2301	2973.6225	3030.853	3062.7403	3093.009	3107.7985	3117.3528	3124.0268	3174.9032	3207.9916	3519.7961
CC12CC1CC(N2)C#N	C[C@]12C[C@H]1C[C@@H](N2)C#N	
InChI=1S/C7H10N2/c1-7-3-5(7)2-6(4-8)9-7/h5-6,9H,2-3H2,1H3	InChI=1S/C7H10N2/c1-7-3-5(7)2-6(4-8)9-7/h5-6,9H,2-3H2,1H3/t5-,6-,7+/m1/s1
