16
gdb 24263	3.97807	1.60052	1.24768	1.353	74.7	-0.1784	0.0232	0.2015	970.9185	0.127747	-400.741475	-400.735105	-400.734161	-400.772013	26.47	
C	-0.0066116388	 1.474223444	 0.1070780173	-0.300538
C	 1.3024426938	 0.7208773836	 0.0026497712	 0.002323
N	 2.0799169819	 0.3478698166	 1.1888227447	-0.414065
C	 1.1986281776	-0.4289580146	 1.9751320401	 0.224647
C	 0.0625519893	-0.7313682318	 1.3022016088	 0.33035
O	-0.7354437602	-1.5596015787	 2.0201413386	-0.199908
C	-0.0666292364	-1.7724088261	 3.1948492336	-0.017824
C	 1.1256504242	-1.1010776748	 3.2327289264	-0.332812
C	-0.0314877266	-0.0437307183	 0.003511709	-0.200582
H	-0.293655516	 1.918796885	 1.0537033427	 0.116247
H	-0.2974533799	 2.0380924266	-0.7730892297	 0.113811
H	 1.8844871696	 0.8316919807	-0.9053248439	 0.100008
H	 2.5026052007	 1.1397002644	 1.6591584286	 0.234186
H	-0.5559157932	-2.4326745286	 3.8913879978	 0.131072
H	 1.8342178964	-1.113801339	 4.0458049727	 0.109793
H	-0.4200021827	-0.5270594088	-0.8853303081	 0.103294
138.7194	264.4545	359.5859	417.2161	441.9314	587.4161	608.8549	649.0845	697.4301	702.3827	738.9544	781.3551	797.3281	806.3819	836.4855	919.014	938.0249	973.402	1035.3818	1049.27	1053.8138	1092.0688	1129.5766	1138.5453	1166.7097	1193.404	1247.2437	1300.238	1340.8426	1358.3491	1412.5497	1463.6772	1501.4629	1503.2567	1653.732	3128.5528	3166.8788	3176.7456	3220.8964	3255.0521	3285.2468	3542.8519
C1C2NC3=C(OC=C3)C12	C1[C@H]2Nc3c(occ3)[C@@H]12	
InChI=1S/C7H7NO/c1-2-9-7-4-3-6(4)8-5(1)7/h1-2,4,6,8H,3H2	InChI=1S/C7H7NO/c1-2-9-7-4-3-6(4)8-5(1)7/h1-2,4,6,8H,3H2/t4-,6+/m0/s1
