14
gdb 13068	4.18041	1.15847	0.98259	1.2335	68.37	-0.2446	-0.036	0.2086	1179.8781	0.104385	-382.504296	-382.495915	-382.494971	-382.539098	28.034	
C	 0.0496302592	 1.5350721944	-0.1769095747	-0.499901
C	 0.0521573044	 0.0875196784	-0.0387725408	 0.084204
C	 0.0591755484	-1.1111753749	 0.0785551517	 0.096412
C	 0.0331691699	-2.5499275777	 0.2088843831	-0.179773
O	 0.0293286385	-3.0441066135	 1.5802655453	-0.274817
C	-1.2304757115	-3.7296778536	 1.45219067	-0.187166
C	-1.3394921921	-3.2605861462	 0.0001566821	 0.341797
O	-2.1117918923	-3.3759854605	-0.8951385746	-0.255933
H	 0.9554445905	 1.8903323149	-0.6796646798	 0.154368
H	-0.8137309221	 1.8742551182	-0.7594984395	 0.156881
H	-0.0004663927	 2.0196058837	 0.8041926211	 0.157612
H	 0.8382052097	-3.0213139223	-0.3727467853	 0.13038
H	-1.1489393318	-4.8161454237	 1.5842613654	 0.135154
H	-2.0028732681	-3.3375311274	 2.1261159161	 0.140783
23.8565	78.2878	83.1958	154.5322	242.8353	325.2212	396.7166	421.7575	488.06	571.9579	704.3528	727.5765	863.2478	950.6487	1003.1014	1015.1336	1049.3825	1053.2672	1062.4065	1135.5946	1176.3207	1217.897	1295.7703	1325.2791	1412.7449	1473.8161	1476.6718	1479.8835	1935.7528	2365.8549	3005.7381	3019.1532	3030.8329	3064.0729	3093.9519	3094.9857
CC#CC1OCC1=O	CC#C[C@H]1OCC1=O	
InChI=1S/C6H6O2/c1-2-3-6-5(7)4-8-6/h6H,4H2,1H3	InChI=1S/C6H6O2/c1-2-3-6-5(7)4-8-6/h6H,4H2,1H3/t6-/m1/s1
