23
gdb 94848	3.43844	1.1012	1.0298	1.5621	85.3	-0.2356	0.0764	0.3119	1306.9114	0.206793	-388.298753	-388.289839	-388.288894	-388.333206	34.348	
C	 0.1450843899	 1.6053662986	 0.0734194897	-0.407971
C	 0.0258395227	 0.0849309008	-0.0198354495	 0.05729
C	 0.7978148857	-0.5434870362	-1.2002941308	-0.214676
C	 0.9682743563	-2.0052939528	-0.7726727187	-0.25968
C	 1.369136581	-1.8837318405	 0.7023178559	 0.465125
C	 1.4821642226	-3.1747744661	 1.543678661	-0.362186
C	 2.9981958084	-2.9127504118	 1.5062520244	-0.068434
O	 2.8103298299	-1.656799792	 0.8282371231	-0.323608
C	 0.562324137	-0.6772449021	 1.2265716672	-0.285463
H	 1.1910375159	 1.9063550328	 0.2029828014	 0.118106
H	-0.2324408603	 2.0900968218	-0.8336588717	 0.109394
H	-0.4231470791	 2.0011418366	 0.9221892026	 0.109929
H	-1.0351436391	-0.1693843638	-0.1454202864	 0.065352
H	 0.2843014498	-0.4204861244	-2.1583762333	 0.087568
H	 1.7865225595	-0.0763174325	-1.2894585545	 0.109603
H	 0.0089559383	-2.5361653604	-0.8446364129	 0.090214
H	 1.710092481	-2.5639783879	-1.349518247	 0.097212
H	 1.0335767107	-3.1037043439	 2.5368336431	 0.106415
H	 1.1343357783	-4.0886388154	 1.0573966702	 0.104706
H	 3.4963679827	-2.7857321142	 2.4747444306	 0.100181
H	 3.5789425972	-3.6237139449	 0.9038112907	 0.096694
H	 1.2317095423	-0.0530810549	 1.8266930521	 0.109503
H	-0.2519488009	-1.0038683471	 1.881446403	 0.094727
30.812	72.6494	174.2828	233.1187	243.8667	319.812	365.8617	411.2571	435.3767	453.9918	558.415	724.4437	769.2874	801.7377	840.535	864.8363	877.8359	912.568	940.2872	955.6573	980.2217	987.9332	1000.5579	1027.8047	1057.9036	1086.1649	1124.024	1161.7586	1178.5115	1196.2758	1217.3007	1220.5481	1250.0328	1255.9741	1276.6426	1292.1557	1323.6641	1341.1895	1349.182	1363.322	1380.7197	1412.9346	1470.0799	1476.6989	1488.1019	1495.8664	1497.5452	1501.4218	1531.3506	3005.0553	3008.5518	3017.7071	3023.807	3035.5235	3045.9273	3049.3149	3069.0053	3087.0041	3089.253	3093.0252	3094.8785	3097.3429	3122.8635
CC1CCC2(CCO2)C1	C[C@H]1CC[C@]2(CCO2)C1	
InChI=1S/C8H14O/c1-7-2-3-8(6-7)4-5-9-8/h7H,2-6H2,1H3	InChI=1S/C8H14O/c1-7-2-3-8(6-7)4-5-9-8/h7H,2-6H2,1H3/t7-,8-/m0/s1
