17
gdb 83269	1.89524	1.82013	1.63393	3.2179	63.03	-0.2237	0.0457	0.2694	960.4436	0.135181	-496.058663	-496.050294	-496.04935	-496.091067	32.442	
O	 0.035439849	 1.3915161795	-0.0520945474	-0.423899
C	-0.0410030952	 0.0015638123	-0.0118018395	-0.008682
C	-0.4788149161	-0.7197042332	 1.2551485679	 0.022477
O	-1.0526699227	 0.0228388353	 2.2929969059	-0.253252
C	-2.1777142074	 0.7404997958	 1.7908877638	-0.097094
C	-2.5562377367	 0.1398091855	 0.4105459044	-0.024942
O	-2.7415338878	 1.1274436206	-0.6129845432	-0.44064
C	-1.3691411859	-0.7323444539	 0.0464622048	 0.293268
O	-1.5899255304	-1.8933106213	-0.6885980048	-0.465649
H	-0.7313076446	 1.7058023461	-0.5499910774	 0.29543
H	 0.7275758781	-0.5202916812	-0.5830313375	 0.096901
H	 0.0649686645	-1.5912682863	 1.6001624	 0.116332
H	-2.9873088173	 0.6496934974	 2.5231409598	 0.105301
H	-1.9268906419	 1.7998389201	 1.6627335442	 0.109329
H	-3.4470233875	-0.4973035905	 0.474590495	 0.093576
H	-3.5040345564	 1.6703770872	-0.3871744074	 0.292986
H	-1.6921533917	-1.6432781336	-1.6143256387	 0.288558
131.8408	183.983	203.4384	247.1597	277.4355	320.2865	366.6038	378.695	433.3327	456.772	567.3946	595.8369	627.6183	712.2028	749.1667	822.3435	931.8812	953.7637	989.7117	1001.1488	1046.7241	1073.2755	1091.977	1138.1547	1149.4014	1200.8217	1233.9752	1250.6233	1264.033	1321.3695	1322.9347	1348.7047	1372.8433	1393.3809	1414.2606	1482.4874	1510.025	3026.8754	3031.0857	3075.7387	3101.4922	3188.791	3748.2281	3785.8554	3813.8975
OC1C2OCC(O)C12O	O[C@H]1[C@H]2OC[C@@H](O)[C@@]12O	
InChI=1S/C5H8O4/c6-2-1-9-4-3(7)5(2,4)8/h2-4,6-8H,1H2	InChI=1S/C5H8O4/c6-2-1-9-4-3(7)5(2,4)8/h2-4,6-8H,1H2/t2-,3+,4-,5-/m1/s1
