20
gdb 23026	3.50118	0.83568	0.78272	1.4524	80.49	-0.24	-0.0016	0.2384	1543.0001	0.168055	-440.231574	-440.221421	-440.220477	-440.267262	36.705	
C	 1.3540894468	 1.3523049847	-0.0615138414	-0.375423
C	 0.3336297952	 0.2189561682	 0.1051532478	-0.226945
C	-0.0164467082	-0.4162475114	-1.2187975127	 0.080737
O	 0.9442306224	-1.2784341732	-1.8395690234	-0.261905
C	-0.3141662527	-1.8461436595	-1.4564348969	-0.020058
C	-0.3094844051	-2.9221472486	-0.4216425499	 0.339958
C	 0.8601105891	-3.1331586392	 0.4969849822	-0.488442
N	-1.3585863507	-3.6568944231	-0.4435828296	-0.173658
O	-1.3242985129	-4.6427516256	 0.549027362	-0.393915
H	 2.2849245966	 0.9726481657	-0.4933089747	 0.133709
H	 0.9722299902	 2.1352424704	-0.7256537086	 0.117318
H	 1.5879824813	 1.8150124029	 0.901588789	 0.115605
H	 0.7202248315	-0.5307009248	 0.7988309905	 0.109922
H	-0.5924030243	 0.6107340954	 0.545564179	 0.106801
H	-0.4802035003	 0.2768978907	-1.9268471406	 0.091398
H	-0.9871263633	-2.0696745084	-2.2834409121	 0.103937
H	 1.7268846937	-2.5764882724	 0.1418312299	 0.144074
H	 0.6203480483	-2.8199211479	 1.5194355318	 0.142551
H	 1.0974298082	-4.1991847935	 0.5451436509	 0.14619
H	-2.1377537559	-5.1297866304	 0.3794710568	 0.308146
48.1316	64.3975	143.2748	177.485	186.9759	230.372	254.438	296.2085	318.3735	395.9522	427.7938	479.0102	513.2563	591.5692	658.4434	756.5843	780.0836	841.2775	889.9718	941.8582	977.7458	1027.3577	1036.134	1053.9119	1072.8863	1105.6987	1147.4537	1180.6966	1266.9438	1293.7559	1309.8773	1345.8984	1367.2503	1397.2154	1409.9875	1420.0718	1473.0766	1476.0059	1485.6243	1490.4836	1498.6785	1508.8441	1712.9996	3033.8317	3037.2597	3043.409	3064.4335	3097.4117	3104.0023	3115.4477	3119.901	3122.6611	3158.2779	3817.1177
CCC1OC1C(C)=NO	CC[C@H]1O[C@H]1C(=NO)C	
InChI=1S/C6H11NO2/c1-3-5-6(9-5)4(2)7-8/h5-6,8H,3H2,1-2H3	InChI=1S/C6H11NO2/c1-3-5-6(9-5)4(2)7-8/h5-6,8H,3H2,1-2H3/t5-,6+/m1/s1
