17
gdb 50353	4.19171	1.1194	1.00219	2.979	74.43	-0.2339	-0.0238	0.2102	1179.7934	0.137297	-417.992807	-417.985206	-417.984262	-418.025453	28.733	
O	-0.7912598772	 0.7739357843	 0.4399381814	-0.245308
C	 0.2259465597	 0.8430805268	-0.2008960369	 0.157004
C	 1.3434530929	 1.8341266269	 0.0706956434	-0.054819
C	 1.2512766687	 2.5321142105	 1.4762317521	-0.266129
C	 2.7405112014	 2.7737058415	 1.7681479146	-0.100843
C	 3.6561521764	 2.1412522695	 2.877725828	-0.203078
N	 4.4004053589	 1.4299022501	 1.775200087	-0.363087
C	 3.3296481049	 1.6838940531	 0.9277478426	 0.385378
N	 2.6441901311	 1.1004558183	 0.0311300732	-0.338529
H	 0.4254096807	 0.1688399853	-1.0611484053	 0.095089
H	 1.2957112003	 2.5727046997	-0.7486711831	 0.099593
H	 0.6441525688	 3.4390672198	 1.4637859261	 0.112888
H	 0.7921604223	 1.8323964541	 2.1809048693	 0.125917
H	 3.0723576876	 3.7816884451	 1.5094929964	 0.106062
H	 4.2811409993	 2.8233813844	 3.4569397968	 0.121835
H	 3.1195483049	 1.4540608664	 3.5398917431	 0.122265
H	 4.7534526593	 0.4866130341	 1.8883642013	 0.245763
59.3703	128.5859	209.3238	233.9966	328.6582	399.0142	443.9898	552.5343	623.9601	676.6637	725.8229	782.7481	806.4905	848.2773	883.7487	934.9385	944.4361	965.8115	1012.9981	1067.9559	1077.6414	1108.2373	1138.2727	1162.861	1203.3006	1216.9462	1246.5521	1261.3938	1322.3271	1330.2066	1339.5538	1369.9487	1405.9458	1485.2749	1503.7898	1761.2671	1830.4857	2909.7918	2957.7074	3048.904	3069.5997	3085.979	3120.1711	3126.2359	3554.513
O=CC1CC2CNC2=N1	O=C[C@H]1C[C@H]2CN[C]2[N]1	
InChI=1S/C6H8N2O/c9-3-5-1-4-2-7-6(4)8-5/h3-5H,1-2H2,(H,7,8)	InChI=1S/C6H8N2O/c9-3-5-1-4-2-7-6(4)8-5/h3-5H,1-2H2,(H,7,8)/t4-,5+/m0/s1
