18
gdb 128766	3.15863	1.01777	0.80556	3.9748	76.06	-0.2482	-0.0055	0.2427	1425.7486	0.146302	-439.074842	-439.065511	-439.064567	-439.110693	32.158	
C	-0.1214842631	 1.3678470227	 0.3702143676	-0.221629
O	-0.2109213841	-0.0330071523	 0.4860395897	-0.232003
C	-1.1507654588	-0.5929858188	-0.4122796584	-0.203977
C	-1.1258051037	-2.0776955929	-0.2790171154	 0.072429
C	-2.1357400635	-2.942428911	 0.0269755642	 0.343255
C	-3.580975132	-2.7713635443	 0.3353456289	-0.494384
O	-1.6686709027	-4.2049717677	 0.0313683797	-0.214253
N	-0.3051079109	-4.1986308634	-0.2680530736	-0.143603
C	-0.0040790113	-2.9401875296	-0.4489350541	-0.019535
H	 0.6293178204	 1.7063551695	 1.0877524174	 0.131866
H	 0.1867452653	 1.6765560665	-0.6416047789	 0.104897
H	-1.080179847	 1.8598609717	 0.5997760348	 0.104186
H	-2.1626395647	-0.2045717356	-0.2091253056	 0.091441
H	-0.9008618594	-0.2917425711	-1.4448840147	 0.09867
H	-4.2065235466	-3.2218141428	-0.442723053	 0.151712
H	-3.8327025849	-3.2571362333	 1.2831836658	 0.154726
H	-3.8343022458	-1.7121236628	 0.4096186466	 0.141019
H	 1.0145879029	-2.6687426847	-0.688203751	 0.135183
25.5936	85.0447	94.6644	126.7641	228.0006	239.5601	258.4677	346.3982	352.2694	446.0935	641.4409	655.5401	680.4578	787.3865	905.4587	914.64	961.3131	979.0904	1004.1737	1012.9208	1063.9581	1143.4178	1169.459	1188.465	1208.7249	1222.5196	1257.0797	1277.4837	1398.7158	1415.8547	1430.7311	1472.7398	1479.526	1483.9998	1485.8046	1502.3437	1521.5456	1523.6464	1679.8053	2944.6937	2968.5926	2976.7515	3011.9343	3043.3268	3100.7931	3119.1998	3137.6385	3245.1551
COCC1=C(C)ON=C1	COCc1c(C)onc1	
InChI=1S/C6H9NO2/c1-5-6(4-8-2)3-7-9-5/h3H,4H2,1-2H3	InChI=1S/C6H9NO2/c1-5-6(4-8-2)3-7-9-5/h3H,4H2,1-2H3
