19
gdb 36395	4.53222	0.87145	0.81241	1.98	82.33	-0.2281	0.0508	0.2789	1453.3261	0.157075	-385.823082	-385.814129	-385.813185	-385.857477	33.857	
C	-0.0714357661	-1.1094871402	 0.362067714	-0.438908
C	-0.0308862653	 0.0870592475	 0.2606573598	 0.303482
C	 0.036952607	 1.5357372885	 0.1183613891	-0.366461
C	 1.4211602238	 2.0324180635	-0.3046302723	 0.150906
C	 1.6421247056	 3.5625863783	-0.3061690503	-0.395772
C	 2.7072489826	 3.2509026016	 0.7378413521	 0.471662
C	 4.1042505943	 3.7594037721	 0.8668686782	-0.332831
C	 3.0900301518	 3.9686191734	 1.9872015337	-0.331864
O	 2.4144986188	 1.8512846956	 0.7326439963	-0.311341
H	-0.1084676367	-2.1657825195	 0.4617999831	 0.195559
H	-0.6918254619	 1.8707115529	-0.632715768	 0.128886
H	-0.2342289801	 2.021178533	 1.0640253427	 0.133328
H	 1.7310530303	 1.5280761007	-1.227486543	 0.090107
H	 2.0016600414	 3.9882451904	-1.244543639	 0.11385
H	 0.7917310491	 4.1456416216	 0.057261808	 0.109942
H	 4.8824855107	 3.0223252845	 1.0332419878	 0.126528
H	 4.405617558	 4.6146408522	 0.2701635824	 0.11293
H	 2.6979047953	 4.9665537653	 2.1569174803	 0.113184
H	 3.2082186614	 3.3675988087	 2.8825173551	 0.126813
43.0377	69.1558	128.8173	239.3711	286.4588	336.8044	353.5095	360.4267	443.5457	512.0425	573.5272	618.4488	639.6423	756.3619	794.6804	834.6694	871.1716	900.3954	911.5639	917.912	958.2145	993.6946	1026.4287	1048.3322	1066.9997	1070.1026	1109.9647	1158.3968	1186.9537	1219.0562	1237.4027	1245.4062	1290.33	1344.6364	1367.78	1404.4801	1448.3367	1455.2645	1487.7032	1506.5904	2241.7575	3015.0649	3032.3259	3060.3796	3064.1982	3121.8626	3125.4524	3128.1727	3209.4832	3223.6657	3507.8147
C#CCC1CC2(CC2)O1	C#CC[C@H]1CC2(CC2)O1	
InChI=1S/C8H10O/c1-2-3-7-6-8(9-7)4-5-8/h1,7H,3-6H2	InChI=1S/C8H10O/c1-2-3-7-6-8(9-7)4-5-8/h1,7H,3-6H2/t7-/m0/s1
