18
gdb 61478	2.62706	0.89146	0.82419	3.4089	78.6	-0.2747	0.0101	0.2849	1470.9912	0.144629	-401.926853	-401.91658	-401.915635	-401.962537	36.728	
C	-1.5595677761	-0.3137704322	 0.1620925188	-0.401245
C	-0.077737961	 0.0951232971	 0.0556888551	-0.141645
C	 0.7195349944	-0.3875971741	 1.2882801899	-0.20548
C	 2.1579938767	 0.1574045382	 1.3040434589	-0.031727
O	 2.2115280984	 1.5736866618	 1.3261261412	-0.407336
C	 2.916546568	-0.4183821252	 2.4326286163	 0.257391
N	 3.4856846042	-0.8498914492	 3.3411461114	-0.316105
C	 0.521833506	-0.4069084012	-1.1802875645	 0.334134
C	 1.0194094362	-0.8419236687	-2.184936886	-0.484824
H	-2.0070784943	 0.1090721114	 1.0669322662	 0.117249
H	-2.1222937927	 0.0460394316	-0.7025759568	 0.132897
H	-1.660521985	-1.4024003796	 0.2033025675	 0.130782
H	-0.0179457155	 1.1905480292	 0.0397164085	 0.123877
H	 0.2061330061	-0.0607373065	 2.2009595677	 0.106776
H	 0.7495554145	-1.4822238205	 1.3084788415	 0.130582
H	 2.6555864303	-0.1363540044	 0.3734282657	 0.155996
H	 1.8752512752	 1.8762127789	 2.17795434	 0.294974
H	 1.4530436046	-1.2124568265	-3.0809771714	 0.203704
50.8164	82.9922	115.4781	165.8005	212.2848	220.9747	256.7552	277.125	327.6749	337.7609	429.0324	516.947	562.9258	575.4257	596.8509	633.5592	651.3403	791.8927	857.1164	919.4949	949.9579	996.9067	1065.9822	1095.8061	1112.512	1151.7807	1191.28	1277.629	1299.0531	1328.9225	1365.784	1374.0789	1410.3826	1422.4236	1474.0053	1491.8679	1500.384	2232.3328	2354.7295	3032.9125	3034.6059	3042.0993	3068.2908	3089.6122	3114.1894	3125.8904	3502.2171	3797.0157
CC(CC(O)C#N)C#C	C[C@@H](C[C@@H](O)C#N)C#C	
InChI=1S/C7H9NO/c1-3-6(2)4-7(9)5-8/h1,6-7,9H,4H2,2H3	InChI=1S/C7H9NO/c1-3-6(2)4-7(9)5-8/h1,6-7,9H,4H2,2H3/t6-,7-/m1/s1
