25
gdb 92343	2.64553	1.43284	1.27579	0.1078	90.78	-0.2846	0.076	0.3606	1171.2762	0.233683	-352.399583	-352.391563	-352.390619	-352.431471	33.859	
C	 0.108913178	 1.6486231262	 0.0090646461	-0.405038
C	 0.0221749175	 0.1196781491	 0.002218434	 0.053845
C	 0.6234384772	-0.4819228469	-1.2852396649	-0.199802
C	 0.772766516	-2.0143156867	-1.2085919269	 0.003763
C	-0.547232481	-2.7094708966	-0.7843773806	-0.210845
C	-0.5208547867	-2.7179611967	 0.776796028	-0.210845
C	 0.8128455419	-2.0272133857	 1.1637131904	 0.003763
C	 1.7113788146	-2.3660715945	-0.0398357592	-0.208809
C	 0.6664758683	-0.4957717716	 1.2620149564	-0.199802
H	 1.1533830181	 1.9824522759	-0.0067708704	 0.110144
H	-0.3904074398	 2.0803322312	-0.8653438413	 0.106945
H	-0.3604996432	 2.0707110969	 0.904484798	 0.106945
H	-1.0437433289	-0.146463106	 0.0187812189	 0.073058
H	-0.0024302822	-0.2018913461	-2.1423107963	 0.084852
H	 1.6131513572	-0.039920048	-1.46805793	 0.084272
H	 1.1366949123	-2.3921714557	-2.1692352801	 0.053441
H	-1.426999763	-2.1973268573	-1.1862986418	 0.092125
H	-0.5742620449	-3.7325408405	-1.1718322577	 0.091082
H	-1.386453405	-2.2103885202	 1.2137533589	 0.092125
H	-0.534957997	-3.7451897185	 1.1537933859	 0.091082
H	 1.2089451538	-2.4154235513	 2.1073512379	 0.053441
H	 1.9644317861	-3.4330002984	-0.0499112777	 0.08203
H	 2.6483379578	-1.7988514579	-0.0525816785	 0.083107
H	 1.6618818816	-0.0556029983	 1.4160900666	 0.084272
H	 0.0699684913	-0.2251868821	 2.1427320743	 0.084852
146.5811	184.6594	242.6417	290.7164	335.5468	336.952	398.7026	444.1823	452.3228	510.6275	730.1661	739.7793	790.1839	810.8514	812.0011	877.2838	878.7381	887.3317	929.1645	937.4959	977.8276	988.431	1003.9709	1008.9911	1046.6343	1052.3574	1101.2356	1107.5523	1128.6876	1160.519	1186.4999	1197.723	1234.677	1241.4535	1281.4432	1285.5175	1311.6917	1316.13	1324.1262	1353.7169	1354.9966	1358.7265	1367.4645	1389.2892	1398.8041	1414.5004	1481.5852	1485.9545	1491.0632	1495.7366	1500.4984	1500.7573	1516.9812	2999.8088	3002.5015	3008.4933	3022.4693	3026.199	3038.5691	3042.1382	3046.5578	3047.0185	3053.6704	3063.1829	3072.9236	3074.3826	3088.4807	3091.9572	3095.0233
CC1CC2CCC(C2)C1	C[C@H]1C[C@@H]2CC[C@@H](C2)C1	
InChI=1S/C9H16/c1-7-4-8-2-3-9(5-7)6-8/h7-9H,2-6H2,1H3	InChI=1S/C9H16/c1-7-4-8-2-3-9(5-7)6-8/h7-9H,2-6H2,1H3/t7-,8-,9+
