19
gdb 79534	2.97808	1.75406	1.65449	0.8169	73.13	-0.2343	0.0654	0.2997	910.1524	0.162809	-423.022377	-423.01577	-423.014826	-423.05289	28.276	
O	-0.0032280901	 1.4354054621	 0.0540752886	-0.440777
C	 0.0224119209	 0.0242720264	-0.0173045521	 0.123306
C	-1.3612469441	-0.5415473949	-0.2887257422	-0.068779
C	-1.693226432	-0.2759868031	-1.8124432952	-0.033762
C	-2.0114797078	-1.7871427945	-1.9581704865	-0.238855
C	-1.08090531	-2.0064284337	-0.746544616	 0.103772
O	 0.3032165292	-1.9722458391	-1.1531265027	-0.286318
C	 0.6164644117	-0.5837824895	-1.3141577532	 0.037554
C	-0.2891331794	 0.0215377679	-2.4001421042	-0.22331
H	 0.8985675348	 1.7445319645	 0.1866913867	 0.285778
H	 0.4899188885	-0.4234136113	 0.8705426202	 0.069988
H	-2.1489241652	-0.3772339577	 0.4429435957	 0.073639
H	-2.4576521212	 0.4527622497	-2.0804506437	 0.067696
H	-3.0517101741	-2.0156452786	-1.7054391338	 0.094749
H	-1.7384520868	-2.2886108381	-2.8907979842	 0.096465
H	-1.2249348684	-2.8626531038	-0.0851416108	 0.072177
H	 1.6931297784	-0.4888194007	-1.4678830069	 0.065216
H	-0.132050694	-0.439795823	-3.378658459	 0.096285
H	-0.1096918802	 1.0967741072	-2.4784233406	 0.105179
206.0036	279.4377	306.976	369.017	377.2694	474.8482	526.3543	599.1796	659.9339	780.9001	802.6824	837.1843	858.3455	865.6005	899.211	928.3647	934.1762	960.3852	974.3979	1008.2686	1026.9798	1048.0312	1085.41	1110.7211	1122.4636	1146.4957	1155.1967	1208.5316	1218.7377	1237.2639	1258.0654	1272.7891	1278.3807	1296.0606	1312.4305	1333.3082	1352.5761	1362.1772	1428.9562	1468.9067	1483.8369	3014.2114	3046.4779	3062.4656	3091.5654	3102.2137	3104.3798	3108.062	3115.8336	3147.8881	3816.0944
OC1C2C3CC2OC1C3	O[C@H]1[C@H]2[C@@H]3C[C@H]2O[C@H]1C3	
InChI=1S/C7H10O2/c8-7-5-2-3-1-4(9-5)6(3)7/h3-8H,1-2H2	InChI=1S/C7H10O2/c8-7-5-2-3-1-4(9-5)6(3)7/h3-8H,1-2H2/t3-,4-,5+,6+,7-/m1/s1
