19
gdb 83359	2.20276	1.97226	1.58914	2.0216	70.11	-0.2398	0.0589	0.2986	951.8443	0.159835	-460.160745	-460.152741	-460.151797	-460.19261	31.73	
C	-0.001533962	 1.4586724002	 0.1067280061	-0.485803
C	-0.0235682249	-0.0435835559	-0.0259337134	 0.370683
C	 0.5829824603	-0.6639818859	-1.2947518423	-0.109054
O	 0.1027716713	-2.0294737639	-1.263109227	-0.285069
C	-0.6715695739	-2.1419431203	-0.0658318962	 0.019507
C	 0.2632917414	-2.0184833732	 1.140327785	-0.077634
O	 0.6685208827	-0.6381288885	 1.0899586539	-0.314685
C	-1.3825887232	-0.7730069378	-0.0107373468	 0.075638
O	-2.1022179827	-0.4801958278	 1.1618701303	-0.437437
H	 1.0277611611	 1.8232423803	 0.1701916608	 0.128131
H	-0.4854367477	 1.9308761135	-0.7534385087	 0.114533
H	-0.5312458006	 1.7544347301	 1.0151193896	 0.145452
H	 0.2485391881	-0.1798127149	-2.2212365386	 0.096047
H	 1.6774455157	-0.6470011321	-1.2525993435	 0.109462
H	-1.278811397	-3.0463235038	-0.1168382785	 0.07664
H	-0.2461377024	-2.2197824161	 2.0901633705	 0.101885
H	 1.1341731339	-2.6747025695	 1.039761973	 0.105132
H	-1.9655501857	-0.5860227617	-0.9211909789	 0.076754
H	-2.9431419545	-0.945611713	 1.1244593848	 0.289817
197.0374	202.3826	225.7887	234.0237	252.492	331.8306	337.7707	417.573	430.2526	574.5604	613.4597	653.466	774.8839	834.7083	867.5318	887.647	907.5	928.4514	992.3478	1004.29	1009.4257	1056.0308	1085.7734	1127.6711	1149.0261	1181.8471	1190.2426	1224.7797	1238.8828	1247.1293	1280.6101	1291.1226	1337.6913	1371.4948	1379.6928	1413.3128	1439.4707	1483.0732	1496.9223	1501.3348	1515.7157	3015.4967	3028.2081	3033.6771	3047.6835	3068.6809	3078.3842	3116.9927	3119.1576	3132.9325	3828.7944
CC12COC(CO1)C2O	C[C@@]12CO[C@@H](CO1)[C@H]2O	
InChI=1S/C6H10O3/c1-6-3-8-4(2-9-6)5(6)7/h4-5,7H,2-3H2,1H3	InChI=1S/C6H10O3/c1-6-3-8-4(2-9-6)5(6)7/h4-5,7H,2-3H2,1H3/t4-,5+,6-/m0/s1
