24
gdb 6156	4.12582	1.08162	1.06056	0.06	85.72	-0.2753	0.0824	0.3577	1302.6631	0.222361	-314.279454	-314.269867	-314.268922	-314.313267	36.653	
C	 0.1101921919	 1.5112247183	-0.1401402747	-0.377898
C	 0.0433378016	-0.0006992591	 0.0986723755	-0.195419
C	-1.3773799599	-0.5511632073	 0.077494904	 0.071927
C	-2.1490545386	-0.5807038927	-1.2730778197	-0.26936
C	-2.6829264783	-2.0071683132	-0.9215190904	 0.355928
C	-4.0908974362	-1.960938252	-0.3219229055	-0.432979
C	-2.602072498	-3.0488357601	-2.0328496656	-0.447925
C	-1.5789845923	-2.0879649087	 0.1821344721	-0.287313
H	 1.1429543547	 1.8734891338	-0.1273123157	 0.109534
H	-0.3239145017	 1.7785491455	-1.1097703728	 0.117847
H	-0.4442006475	 2.0579339713	 0.6310008106	 0.111835
H	 0.6397660751	-0.5200291443	-0.6641688417	 0.087309
H	 0.5090792626	-0.2416050812	 1.0639526709	 0.09171
H	-1.9725818134	-0.0369768402	 0.8414774174	 0.064271
H	-2.8961011176	 0.1980052374	-1.4530535793	 0.088363
H	-1.4629877894	-0.6049629266	-2.1273212782	 0.087327
H	-4.8344049396	-1.7041813949	-1.0855676074	 0.1085
H	-4.3687631766	-2.9328841493	 0.102306897	 0.108644
H	-4.1661956238	-1.2163381541	 0.477638234	 0.109987
H	-1.5975730462	-3.08968698	-2.4674564643	 0.104887
H	-2.8439358909	-4.0502715758	-1.6565226702	 0.108844
H	-3.3069373064	-2.8210529103	-2.8417286906	 0.108708
H	-0.695530317	-2.634137663	-0.1664218962	 0.087582
H	-1.8754636426	-2.4957167034	 1.1532789407	 0.087691
72.2826	105.0452	175.1184	221.8093	237.1042	262.5045	304.5641	308.9702	354.8809	381.2219	432.4231	445.5359	584.6686	728.5911	784.3282	834.9379	877.1881	878.2093	933.0892	947.8655	960.2289	970.7945	995.4233	1010.1061	1028.5124	1088.6839	1099.9068	1135.2116	1212.7421	1214.4396	1232.1987	1237.914	1276.5713	1295.6958	1302.4663	1318.3889	1346.3005	1393.0308	1404.0212	1411.0869	1420.3472	1472.9338	1483.5662	1483.9618	1487.3015	1499.4421	1500.6686	1502.7459	1506.567	1508.1297	3007.1494	3014.8667	3020.4396	3024.6639	3029.4313	3033.0257	3039.9554	3043.7777	3077.9713	3084.984	3086.4125	3088.8488	3092.9292	3094.1581	3096.1755	3100.8684
CCC1CC(C)(C)C1	CCC1CC(C)(C)C1	
InChI=1S/C8H16/c1-4-7-5-8(2,3)6-7/h7H,4-6H2,1-3H3	InChI=1S/C8H16/c1-4-7-5-8(2,3)6-7/h7H,4-6H2,1-3H3
