16
gdb 57174	2.15152	1.35875	1.28272	4.1028	66.18	-0.247	-0.086	0.161	1097.3422	0.120976	-475.072856	-475.062925	-475.06198	-475.108315	34.375	
C	-0.4235578328	 1.3389271979	 1.2647759905	-0.449733
C	-0.0683987443	 0.4929969543	 0.0284321776	-0.196423
C	 0.8806365142	-0.687545841	 0.247786262	 0.437936
N	 1.8195039999	-0.5655626597	 1.2211379789	-0.536787
O	 0.80278856	-1.6633320027	-0.4804090865	-0.37334
C	-1.3151449846	-0.0810918731	-0.6457223378	 0.336925
O	-1.7960235309	 0.3554091481	-1.6615748671	-0.289697
C	-2.0449865089	-1.2277600947	 0.066427548	 0.096331
O	-1.8851679756	-1.4971564386	 1.2284328091	-0.231226
H	 0.4540451397	 1.881984784	 1.6313120215	 0.122279
H	-1.1728117717	 2.0922300412	 1.0047188961	 0.142373
H	-0.824051311	 0.715541428	 2.0663736675	 0.159354
H	 0.3980094976	 1.1357033333	-0.726809607	 0.135451
H	 1.7808189718	 0.163301333	 1.9111657979	 0.264152
H	 2.4018378568	-1.3668556628	 1.406128244	 0.268461
H	-2.7874084602	-1.7342369071	-0.5837127247	 0.113944
43.7068	84.1688	123.5704	139.3128	187.7528	228.287	276.5044	292.176	330.6564	384.8545	467.7001	500.3952	542.7406	610.3565	644.9677	698.2635	801.6348	839.0565	988.1231	1012.6615	1077.9474	1082.4224	1114.8707	1244.9417	1265.0995	1312.6407	1367.9378	1375.2805	1409.0938	1503.2285	1508.7536	1619.3467	1767.6094	1815.5433	1818.2866	2937.4967	3040.2702	3057.0394	3103.8365	3142.8464	3603.0581	3737.7651
CC(C(N)=O)C(=O)C=O	C[C@@H](C(=O)N)C(=O)C=O	
InChI=1S/C5H7NO3/c1-3(5(6)9)4(8)2-7/h2-3H,1H3,(H2,6,9)	InChI=1S/C5H7NO3/c1-3(5(6)9)4(8)2-7/h2-3H,1H3,(H2,6,9)/t3-/m1/s1
