20
gdb 61669	4.28368	0.78712	0.69933	3.5597	80.2	-0.2922	0.0131	0.3053	1599.789	0.170589	-403.147675	-403.138211	-403.137266	-403.18273	34.495	
O	-0.0632472643	 1.4462252373	 0.0640214624	-0.399843
C	 0.0117557049	 0.0319772994	 0.0406897582	-0.026533
C	 0.677175478	-0.5328697376	-1.227361147	-0.240595
C	-0.0297160834	-0.1158653396	-2.5112458878	 0.062287
C	 0.1278517966	 1.3295031171	-3.0645503104	-0.210372
C	 0.1848543035	 0.7334830162	-4.4962669309	-0.216292
C	 0.5309398979	-0.6415630069	-3.8631823565	-0.242814
C	 0.6887635614	-0.4788481543	 1.2530573414	 0.256907
N	 1.2487263482	-0.862618259	 2.188336356	-0.316455
H	 0.8350675711	 1.7966136103	 0.0527764784	 0.294693
H	-1.0305233895	-0.3059764319	 0.0770445154	 0.139844
H	 1.7280874911	-0.2133294766	-1.2502070267	 0.103926
H	 0.6898581002	-1.6272079892	-1.1447657338	 0.122199
H	-1.0957455104	-0.3643728801	-2.4358124092	 0.074028
H	-0.6548643767	 2.0526616292	-2.8300890714	 0.107723
H	 1.0930245908	 1.7590602948	-2.7749283576	 0.087554
H	-0.8004559138	 0.723278391	-4.9710851036	 0.105103
H	 0.9025346892	 1.1627561996	-5.1986517689	 0.099115
H	 1.6140386369	-0.7953959193	-3.8076020138	 0.100399
H	 0.0756328284	-1.5391135202	-4.2890462142	 0.099126
50.685	90.407	104.8958	168.0727	198.2946	249.7908	302.4339	330.6796	381.5398	440.0204	562.8745	592.1362	645.3267	766.8257	784.5962	852.5853	896.942	916.8875	934.0022	950.5305	977.9513	987.6256	1058.7182	1105.212	1118.6552	1128.4686	1198.0515	1208.9747	1251.6339	1257.1815	1260.6663	1267.6868	1289.3498	1297.9668	1330.8024	1356.7098	1393.5606	1419.2513	1474.9679	1479.0669	1488.0355	1511.0561	2353.2615	3014.4879	3026.518	3044.3863	3049.4625	3050.5986	3060.2073	3066.4846	3098.7316	3110.8541	3122.8412	3800.9117
OC(CC1CCC1)C#N	O[C@@H](CC1CCC1)C#N	
InChI=1S/C7H11NO/c8-5-7(9)4-6-2-1-3-6/h6-7,9H,1-4H2	InChI=1S/C7H11NO/c8-5-7(9)4-6-2-1-3-6/h6-7,9H,1-4H2/t7-/m0/s1
