20
gdb 86135	2.26694	1.60306	1.08011	4.6565	76.62	-0.235	0.0369	0.2719	1172.4102	0.170741	-440.33481	-440.325254	-440.32431	-440.369013	34.917	
C	-0.1226873702	 1.5857346832	 0.0090869233	-0.400119
C	 0.1431378328	 0.0842981784	-0.0113739589	-0.121721
C	 0.9460568039	-0.4717831716	-1.1990725146	 0.088837
O	 1.9331568178	 0.4858234596	-1.5477695912	-0.424121
C	 1.5852444656	-1.7537943566	-0.6144049651	-0.193006
N	 1.713281078	-1.4561916274	 0.7967863827	-0.070933
C	 2.5062161714	-2.2506438309	 1.7022307734	-0.344921
C	 0.9272794154	-0.4131051777	 1.2111744896	 0.427734
O	 0.8476071622	 0.0088149862	 2.3468068813	-0.404625
H	 0.8046707427	 2.1458118359	-0.1201884239	 0.141571
H	-0.8132693522	 1.8764081511	-0.7880343048	 0.105387
H	-0.5602403634	 1.8573985444	 0.9728086293	 0.136106
H	-0.8154536791	-0.4536554485	 0.018005424	 0.099856
H	 0.3078944432	-0.7044919735	-2.0615898863	 0.069809
H	 2.4374937675	 0.143332947	-2.2918863513	 0.28583
H	 0.9532984083	-2.6389448417	-0.7909631028	 0.099401
H	 2.5649243293	-1.9494474831	-1.0691714828	 0.098177
H	 3.5603757668	-2.2611253649	 1.3988940046	 0.121799
H	 2.4201158504	-1.8015742193	 2.6934326501	 0.165821
H	 2.1504880795	-3.2886720705	 1.7457289235	 0.119118
86.0908	114.9189	159.3069	185.6947	199.7676	251.1521	264.2613	294.7274	309.9843	390.9418	477.8398	540.3875	575.1994	693.7044	734.7172	787.4186	873.8703	908.5724	975.1493	996.7099	1029.1793	1063.9777	1104.2511	1143.4477	1154.0896	1169.3309	1200.6561	1233.748	1286.5575	1290.3881	1324.257	1335.3806	1363.5843	1402.0329	1417.5101	1435.4938	1455.2491	1489.8338	1493.2248	1502.5551	1504.688	1533.3199	1807.8776	2973.304	3004.9571	3008.6317	3020.2857	3033.2121	3052.5471	3057.3558	3122.5887	3140.3851	3146.4167	3825.6942
CC1C(O)CN(C)C1=O	C[C@H]1[C@@H](O)CN(C)C1=O	
InChI=1S/C6H11NO2/c1-4-5(8)3-7(2)6(4)9/h4-5,8H,3H2,1-2H3	InChI=1S/C6H11NO2/c1-4-5(8)3-7(2)6(4)9/h4-5,8H,3H2,1-2H3/t4-,5-/m0/s1
