12
gdb 130754	5.75077	1.06169	0.89623	5.1526	74.12	-0.2661	-0.0983	0.1678	1177.9784	0.0764	-435.452885	-435.445575	-435.444631	-435.484893	27.194	
O	 0.0294036616	-0.0760943813	 0.0027392349	-0.32378
C	 0.0469513712	 1.1223249566	 0.0089102715	 0.452081
O	-1.1855099562	 1.789153122	 0.0280148639	-0.251703
N	-1.3434043904	 3.1529904692	 0.0367771359	-0.112357
C	-0.2619063031	 3.87937077	 0.0263034042	 0.172666
C	 1.0728392551	 3.3197604167	 0.0061879216	-0.124728
C	 1.2187799774	 1.9850127301	-0.0023080957	-0.22355
C	-0.4414127809	 5.2931509054	 0.0357086331	 0.263619
C	-0.535239074	 6.4918125152	 0.0429762341	-0.362067
H	 1.9192606859	 3.9968488101	-0.0015316652	 0.144104
H	 2.1822097996	 1.4905330084	-0.0173967784	 0.150097
H	-0.6382630163	 7.5494012177	 0.0498189601	 0.21562
80.2338	147.3693	204.9538	321.1916	427.2406	450.5435	450.6387	524.3794	575.6698	628.7623	643.7871	682.4976	722.9799	769.4017	783.3296	869.3593	920.4873	1023.2274	1050.4376	1120.4039	1217.3063	1259.1536	1428.545	1542.2437	1673.9034	1854.7369	2239.9012	3200.6185	3222.9991	3499.5307
O=C1ON=C(C=C1)C#C	O=c1onc(cc1)C#C	
InChI=1S/C6H3NO2/c1-2-5-3-4-6(8)9-7-5/h1,3-4H	InChI=1S/C6H3NO2/c1-2-5-3-4-6(8)9-7-5/h1,3-4H
