23
gdb 59762	2.50668	1.28872	0.9824	1.2385	81.48	-0.2479	0.0782	0.3261	1309.8704	0.20487	-425.439632	-425.429673	-425.428729	-425.474364	37.006	
C	 0.4689328586	 1.5781856013	 0.1412984454	-0.39142
C	 0.0328711805	 0.1089770796	 0.0505717037	-0.005854
C	-1.477434336	 0.0024024928	-0.2077989343	-0.398882
C	 0.8158334834	-0.61761544	-1.0408300431	 0.1128
O	 2.2209596265	-0.4630446555	-0.8329394996	-0.259486
C	 2.8100657429	-1.396309725	-1.6965221653	 0.019188
O	 1.9385950573	-2.5111396879	-1.7816907137	-0.280315
C	 0.6968586436	-2.1557406868	-1.1549890049	 0.113022
C	 0.5632006384	-2.9149323758	 0.1623668814	-0.403453
H	 1.5395162559	 1.6589921571	 0.3391421945	 0.135068
H	 0.2577845073	 2.1064306963	-0.7963533431	 0.109594
H	-0.0737597991	 2.0914268731	 0.9415664356	 0.107588
H	 0.2628487654	-0.3753940156	 1.007018827	 0.083681
H	-1.7447408508	 0.4706605089	-1.1624165785	 0.116333
H	-1.8245113454	-1.0348983448	-0.2370430373	 0.118218
H	-2.036925021	 0.5170693313	 0.5792819394	 0.117485
H	 0.5492018025	-0.1789813445	-2.0199797153	 0.064886
H	 2.9502141571	-0.9684660944	-2.7055373344	 0.083963
H	 3.7795170329	-1.6965672451	-1.2823466248	 0.109611
H	-0.1126402868	-2.4366281672	-1.8382361429	 0.081972
H	 1.3251844777	-2.5889021011	 0.8760521697	 0.127614
H	-0.424241798	-2.7769790524	 0.6136368422	 0.113956
H	 0.705761657	-3.9827865642	-0.0238890619	 0.12443
72.9338	101.4962	157.1611	169.4938	218.8541	244.0934	260.896	274.4032	312.0324	378.4422	432.5578	441.7451	491.0578	721.0611	752.5571	802.4807	871.4264	898.1274	932.283	947.6006	972.9741	1011.6164	1025.9337	1062.5896	1082.7429	1114.6396	1141.356	1151.7347	1166.1817	1187.6042	1204.1245	1231.0567	1309.374	1318.9531	1337.0374	1352.5853	1384.6004	1398.3615	1405.1059	1414.5593	1424.6006	1434.4828	1488.0516	1489.2832	1491.2652	1498.1021	1504.7782	1514.1512	1547.6197	2932.118	2939.85	3028.7782	3031.4496	3038.3953	3042.2349	3044.1638	3053.2476	3092.2189	3099.4033	3107.7846	3116.8581	3122.5907	3132.1324
CC(C)C1OCOC1C	CC(C)[C@H]1OCO[C@H]1C	
InChI=1S/C7H14O2/c1-5(2)7-6(3)8-4-9-7/h5-7H,4H2,1-3H3	InChI=1S/C7H14O2/c1-5(2)7-6(3)8-4-9-7/h5-7H,4H2,1-3H3/t6-,7+/m0/s1
