18
gdb 101077	2.32561	1.32005	0.94273	2.4927	74.22	-0.242	0.0397	0.2818	1246.3471	0.145761	-439.010896	-439.001326	-439.000382	-439.045145	35.761	
O	-0.1252756216	 1.3793907527	-0.3641824793	-0.433767
C	 0.0378423154	-0.0302696266	-0.2155201949	-0.109656
C	-1.3446883437	-0.5693966974	 0.1604465833	 0.02841
O	-2.2980186108	-0.1116148222	-0.7807821191	-0.448087
C	-1.3725754761	-2.0989611856	 0.172078477	 0.105434
C	-2.6629175218	-2.7895386077	-0.1226402751	-0.273336
N	-1.5822413133	-2.7987132345	-1.1181252271	-0.350743
C	-0.4347597021	-2.7050630928	 1.0850309389	 0.292777
C	 0.3363946312	-3.1803046435	 1.8759668973	-0.41236
H	 0.6522879701	 1.7365774716	-0.8014520735	 0.298187
H	 0.3657348495	-0.4925536055	-1.1575195051	 0.103587
H	 0.7665802491	-0.2740430998	 0.5667178136	 0.116677
H	-1.5961388915	-0.2050180297	 1.1689635181	 0.090098
H	-2.0249174198	 0.7894348198	-1.0002134128	 0.297814
H	-2.8598775151	-3.7467625339	 0.3495872027	 0.124494
H	-3.5268788676	-2.1593067035	-0.3053640397	 0.136755
H	-1.7948305881	-2.0747092638	-1.8044404491	 0.241296
H	 1.0175979462	-3.6161304776	 2.5641510347	 0.192418
76.2599	118.4666	133.4794	198.7052	236.8905	261.8217	290.369	334.7919	389.2168	448.4354	496.7334	525.5791	552.1663	577.4139	607.7963	657.873	740.4274	874.6251	887.274	924.5385	975.9871	1006.9223	1039.794	1078.2664	1100.5716	1126.1447	1147.1351	1227.8083	1248.7207	1267.2988	1279.7787	1314.0015	1360.0726	1380.387	1424.4396	1450.0186	1494.6755	1514.2013	2236.8619	2981.7786	3005.5366	3062.5711	3124.2703	3220.7158	3472.8433	3502.7043	3759.1956	3846.0778
OCC(O)C1(CN1)C#C	OC[C@@H](O)[C@]1(CN1)C#C	
InChI=1S/C6H9NO2/c1-2-6(4-7-6)5(9)3-8/h1,5,7-9H,3-4H2	InChI=1S/C6H9NO2/c1-2-6(4-7-6)5(9)3-8/h1,5,7-9H,3-4H2/t5-,6-/m1/s1
