19
gdb 128357	3.11562	1.21844	0.89171	3.4186	80.45	-0.2126	0.0171	0.2297	1325.8959	0.158283	-419.217552	-419.207707	-419.206763	-419.252445	34.868	
C	 0.1002504289	 1.4267532249	 0.0451156763	-0.318963
N	-0.1024377517	-0.0091615275	-0.0791258785	-0.379245
C	 0.5940519316	-0.693212522	-1.0502307218	 0.397552
N	 1.2506858587	-0.0687734219	-2.004612248	-0.250715
O	 1.7518972356	-1.0938250643	-2.825537048	-0.238873
C	 1.3894540312	-2.2869846247	-2.3193750456	 0.376513
C	 1.8477522652	-3.4872931878	-3.0702736838	-0.493092
C	 0.6506098422	-2.121654276	-1.1893925332	-0.021115
C	 0.0140206082	-3.1329223259	-0.2922862836	-0.528053
H	 1.140670544	 1.6973585999	 0.2736911992	 0.1237
H	-0.1662166859	 1.909547938	-0.898131489	 0.154747
H	-0.5530588208	 1.8090364391	 0.8327088079	 0.117043
H	-0.1691266964	-0.505026887	 0.7967948486	 0.239739
H	 1.4974723104	-3.4557543816	-4.1071626453	 0.148676
H	 2.9414287866	-3.5411048344	-3.0948756024	 0.147549
H	 1.4692092122	-4.3996499673	-2.6050797309	 0.133993
H	 0.4390305831	-3.1119760099	 0.7199565076	 0.124617
H	-1.0638399007	-2.9573809974	-0.1928924238	 0.135818
H	 0.1487603277	-4.1479693041	-0.6751020958	 0.130108
81.4578	95.8953	131.9734	149.7753	178.1514	195.5201	249.9977	288.7381	324.4926	390.1234	498.1522	510.5629	617.1552	626.8458	723.1385	741.7866	779.4943	935.6396	962.821	1017.1352	1058.9668	1062.1054	1069.5	1148.0859	1167.8202	1179.6071	1235.298	1295.5855	1400.506	1422.5628	1425.4598	1454.0865	1472.245	1480.2671	1482.5848	1486.7664	1498.4014	1513.0917	1541.8676	1584.037	1701.0118	3006.9699	3015.	3040.5905	3062.1878	3091.7529	3096.0168	3110.499	3133.2332	3133.6143	3609.4588
CNC1=NOC(C)=C1C	CNc1noc(C)c1C	
InChI=1S/C6H10N2O/c1-4-5(2)9-8-6(4)7-3/h1-3H3,(H,7,8)	InChI=1S/C6H10N2O/c1-4-5(2)9-8-6(4)7-3/h1-3H3,(H,7,8)
