17
gdb 105362	2.90597	1.38495	1.15378	3.8918	68.38	-0.2472	-0.0471	0.2001	1087.4533	0.134128	-458.913778	-458.905416	-458.904472	-458.946945	31.331	
O	 0.2016103038	 1.4090403603	-0.3210110032	-0.421313
C	 0.1665386889	 0.0307308702	-0.0309146752	-0.12072
C	-1.2413540063	-0.5497641487	-0.0064726869	 0.274711
O	-1.9359664227	-0.5897158049	-1.3001299553	-0.325081
C	-2.2372762151	-1.9766632813	-1.1151183468	 0.108488
C	-0.9884060328	-2.787259277	-1.0941980777	-0.311489
C	-1.4306966853	-2.0629214346	 0.164654089	-0.184038
C	-2.1789294632	 0.2093133619	 0.9227800441	 0.155862
O	-1.8416873453	 1.1091710361	 1.6522009024	-0.272278
H	-0.231288032	 1.8525003982	 0.4187532446	 0.298613
H	 0.7479776353	-0.4711323304	-0.8083482585	 0.115149
H	 0.6350439983	-0.2043494706	 0.9390571225	 0.097982
H	-3.2263595655	-2.3223029379	-1.3891833942	 0.115081
H	-1.1346792559	-3.8618376823	-1.0423627942	 0.125303
H	-0.1237931837	-2.4670105186	-1.665803775	 0.129818
H	-1.625785835	-2.5700306643	 1.0996958366	 0.113159
H	-3.2354345735	-0.126301916	 0.859083468	 0.100753
77.7582	112.7419	170.4195	208.4836	266.8834	315.8622	404.1088	446.5795	493.7101	507.0272	533.8202	740.928	769.9452	813.3806	858.4151	888.3147	950.0209	972.0682	981.5744	1016.5382	1043.6413	1047.9712	1084.6656	1088.9875	1098.6965	1116.8286	1181.0582	1244.7926	1276.7566	1281.7569	1349.4429	1382.747	1415.5253	1441.1959	1473.5171	1480.3832	1814.779	2918.0012	2975.8476	3100.3067	3127.9206	3190.9811	3205.4285	3218.7306	3786.9186
OCC1(OC2CC12)C=O	OC[C@]1(O[C@H]2C[C@@H]12)C=O	
InChI=1S/C6H8O3/c7-2-6(3-8)4-1-5(4)9-6/h2,4-5,8H,1,3H2	InChI=1S/C6H8O3/c7-2-6(3-8)4-1-5(4)9-6/h2,4-5,8H,1,3H2/t4-,5+,6-/m1/s1
