18
gdb 78680	3.28585	1.48273	1.16737	2.8261	76.79	-0.2135	0.0051	0.2186	1071.0888	0.145867	-401.868074	-401.859627	-401.858683	-401.901395	31.567	
C	-0.7561293935	 1.4091641087	-0.4152265421	-0.337925
N	-0.494796884	 0.0091530809	-0.1034568915	-0.105456
C	-1.2218160465	-0.6116470861	 1.0392968123	-0.062533
C	-0.1031507321	-1.7035566603	 1.1940352986	-0.206969
C	 0.5597092951	-0.3101937247	 0.8994702232	-0.062536
C	-0.3107271911	-0.005050609	 2.2112286385	 0.158925
C	-0.4474630088	 1.2091198793	 3.0870567877	-0.534364
C	-0.0334245543	-1.4269286213	 2.6789696416	 0.417827
O	 0.1458055489	-2.0086235172	 3.7090629499	-0.338526
H	 0.0278966082	 1.7706473794	-1.088810316	 0.12551
H	-1.7081148607	 1.4770614159	-0.9520638507	 0.125506
H	-0.8023985625	 2.0857394948	 0.4497272005	 0.104984
H	-2.2993985949	-0.7787612334	 1.0616313401	 0.099189
H	 2.3668*^-6	-2.5960232434	 0.5842673671	 0.106355
H	 1.6228701863	-0.1150599969	 0.7537924592	 0.099188
H	-0.6472464353	 2.1282545644	 2.5344607204	 0.133398
H	-1.2619722937	 1.0602084996	 3.8042473599	 0.138721
H	 0.4703682122	 1.3542727591	 3.6671201815	 0.138707
53.527	130.4987	170.6311	212.7471	235.8276	273.6739	348.9284	403.1608	590.1135	643.4019	654.4005	663.0481	792.1594	793.5676	823.2067	827.9668	847.467	917.423	969.3093	993.6476	1044.7964	1100.2527	1101.8613	1125.2161	1127.8739	1146.3023	1160.9526	1199.1675	1213.8507	1245.5008	1300.6589	1356.1764	1409.7302	1446.4644	1479.6723	1481.5336	1495.9111	1498.8294	1908.3284	3002.7939	3039.6996	3071.4728	3096.9698	3099.4858	3107.5917	3112.6122	3133.8994	3175.9455
CN1C2C3C1C2(C)C3=O	CN1[C@H]2[C@H]3[C@@H]1[C@]2(C)C3=O	
InChI=1S/C7H9NO/c1-7-4-3(6(7)9)5(7)8(4)2/h3-5H,1-2H3	InChI=1S/C7H9NO/c1-7-4-3(6(7)9)5(7)8(4)2/h3-5H,1-2H3/t3-,4-,5+,7+
