20
gdb 126689	3.07995	1.21485	0.97004	1.3342	82.45	-0.1801	0.0365	0.2166	1270.1682	0.172114	-399.343368	-399.334046	-399.333102	-399.377882	34.199	
C	 0.0876250151	 1.6157917228	-0.2121600293	-0.380849
C	 0.0372425755	 0.0925348543	-0.0203645712	-0.158159
N	 0.6003349042	-0.6883563509	-1.1111523343	-0.139433
C	 2.0479839646	-0.7382156617	-1.2141088029	-0.32531
C	-0.1174973747	-0.7855916987	-2.2904918582	 0.443607
N	 0.4903723632	-1.1056693863	-3.4363249413	-0.339565
N	-0.5193184204	-1.1771454946	-4.3421122472	-0.195615
C	-1.7262947066	-0.8938114402	-3.8113482803	-0.018241
C	-1.5221207538	-0.6285497821	-2.4754439925	-0.315866
H	 1.1188351168	 1.9674680028	-0.3160873736	 0.120446
H	-0.464350706	 1.9132830352	-1.1086821077	 0.128897
H	-0.3567460642	 2.1261395943	 0.6489514164	 0.110555
H	 0.5804075406	-0.1828977947	 0.8908459614	 0.100549
H	-0.9985060078	-0.2275241921	 0.135955159	 0.109674
H	 2.3396757247	-1.5964344248	-1.8225867483	 0.145706
H	 2.4852179162	 0.1584393442	-1.6804654336	 0.109039
H	 2.4697694985	-0.8521068053	-0.2112285324	 0.10811
H	-0.2973083404	-1.4056484349	-5.2942882698	 0.269711
H	-2.6267825797	-0.9022924351	-4.4056609092	 0.128347
H	-2.2730378656	-0.3684410323	-1.7493817551	 0.098397
59.2782	78.8964	140.9594	167.6375	213.045	265.2377	300.5783	389.2262	395.4128	440.96	512.2129	609.9532	642.0465	721.2593	748.5795	791.8992	815.854	883.2565	940.2229	962.5472	1020.1717	1066.5989	1081.6453	1106.0917	1122.1335	1153.1496	1203.2003	1215.0628	1288.409	1304.2483	1371.8491	1386.6048	1400.6675	1404.3273	1449.5798	1479.5519	1486.705	1491.8183	1495.9516	1506.5002	1513.2725	1539.0451	1602.1854	2982.3799	3035.4357	3036.4547	3069.8351	3075.7494	3105.6796	3116.7198	3129.0543	3254.1227	3280.4799	3695.4726
CCN(C)C1=NNC=C1	CCN(C)c1n[nH]cc1	
InChI=1S/C6H11N3/c1-3-9(2)6-4-5-7-8-6/h4-5H,3H2,1-2H3,(H,7,8)	InChI=1S/C6H11N3/c1-3-9(2)6-4-5-7-8-6/h4-5H,3H2,1-2H3,(H,7,8)
