13
gdb 132841	2.57399	1.5946	0.98462	3.2381	69.46	-0.2609	-0.0794	0.1815	1078.294	0.090036	-460.777766	-460.770756	-460.769812	-460.80958	25.73	
F	 0.0115600469	 0.0329608377	 0.0040315879	-0.057697
C	-0.0103696121	 1.3632869138	 0.0110149242	 0.267872
C	-1.2266568056	 2.0259896308	 0.0306648428	-0.252426
C	-1.1918721755	 3.4165967465	 0.0371940851	 0.024372
N	-0.0669823631	 4.1444450141	 0.0257636427	-0.275217
C	 1.0818760093	 3.4755623945	 0.0069790143	-0.02204
C	 1.1876003445	 2.0766885511	-0.0014754424	-0.01431
C	 2.5117450731	 1.4134578455	-0.0225724784	 0.086364
O	 3.559700161	 2.0170895991	-0.0337265092	-0.263458
H	-2.1577448389	 1.4734712678	 0.0403735139	 0.128298
H	-2.1233847907	 3.9766114677	 0.0525044053	 0.129988
H	 2.0003441896	 4.0555569605	-0.0024265933	 0.151182
H	 2.4853994916	 0.3063513809	-0.0276366628	 0.097072
118.3448	184.1526	198.4024	268.4061	347.5828	422.8297	512.7391	555.6224	572.4988	662.6692	768.8233	824.9108	862.098	866.2131	977.6182	1010.1646	1047.7355	1060.5483	1182.3223	1213.7791	1282.4706	1307.895	1326.3452	1431.5922	1444.0153	1518.5868	1608.1444	1638.835	1793.797	2944.5022	3166.41	3183.2276	3218.1612
FC1=CC=NC=C1C=O	Fc1ccncc1C=O	
InChI=1S/C6H4FNO/c7-6-1-2-8-3-5(6)4-9/h1-4H	InChI=1S/C6H4FNO/c7-6-1-2-8-3-5(6)4-9/h1-4H
