15
gdb 67240	2.76505	1.64545	1.31846	2.0667	65.09	-0.2404	-0.0261	0.2143	961.1658	0.111011	-457.68378	-457.676327	-457.675383	-457.715925	28.325	
O	 0.1392588826	 1.4648688792	 0.1021679016	-0.441675
C	 0.1048023825	 0.1052998749	 0.065544448	 0.333618
C	 0.1516117619	-0.9509727446	-0.9891564513	-0.024657
O	 1.1040428044	-1.7751609011	-0.3344555783	-0.279195
C	 0.7614061098	-1.0964833158	 0.899758439	-0.018775
C	-0.6703356577	-1.614800357	 1.2070622005	-0.098446
C	-1.271316564	-1.0563987112	 2.4668120109	 0.138504
O	-0.7360183097	-0.2304440235	 3.164826003	-0.249423
C	-1.0874662586	-0.8137887857	-0.0371058093	-0.169141
H	 1.0057079635	 1.7620961473	-0.2006462673	 0.298861
H	 0.0829881692	-0.9543476791	-2.0687233487	 0.12075
H	 1.5501766294	-1.0779259378	 1.6462545291	 0.106418
H	-0.8058485184	-2.7021953122	 1.1587071497	 0.094128
H	-2.2773452433	-1.4590553723	 2.7238216774	 0.082116
H	-2.0783050515	-0.5991175411	-0.4160941642	 0.106918
81.4143	139.0026	218.0463	298.0453	326.1035	377.924	416.838	557.9807	617.1044	671.0611	738.9202	787.7702	845.0759	874.5188	893.3025	928.4474	937.2361	993.0085	1012.3986	1036.0798	1061.7089	1066.0934	1100.3386	1147.8258	1187.8253	1209.8775	1233.6595	1284.1022	1318.9601	1338.7407	1422.7996	1498.0611	1813.7226	2873.7305	3042.6381	3171.5353	3205.4768	3217.014	3783.607
OC12C3OC1C(C=O)C23	O[C@@]12[C@H]3O[C@@H]1[C@@H](C=O)[C@@H]23	
InChI=1S/C6H6O3/c7-1-2-3-5-6(3,8)4(2)9-5/h1-5,8H	InChI=1S/C6H6O3/c7-1-2-3-5-6(3,8)4(2)9-5/h1-5,8H/t2-,3+,4+,5-,6+/m0/s1
