15
gdb 50425	2.11888	1.98265	1.18723	2.5058	67.29	-0.2364	-0.0424	0.194	1003.3803	0.112582	-453.964727	-453.956804	-453.95586	-453.998025	28.283	
O	 0.1400729566	-0.2294526628	-0.1113641836	-0.268933
C	 0.011597162	 0.9701153504	-0.0976061822	 0.164408
C	 1.2153927571	 1.9108643965	-0.0960580706	-0.093924
N	 2.4705730675	 1.1592530962	-0.0948806646	-0.298154
C	 3.1743000394	 1.5478019679	-1.216364668	 0.078498
N	 2.7296403906	 2.5287208517	-1.9064218932	-0.262801
C	 1.4218475105	 2.8785941345	-1.3178987335	-0.093199
C	 0.3995032471	 2.7703792763	-2.4375319092	 0.163118
O	-0.5829329252	 2.0741365552	-2.4043001433	-0.236979
H	-0.971893662	 1.455174787	 0.0292777608	 0.106014
H	 1.1175471107	 2.5078496105	 0.8215759337	 0.112989
H	 2.3658393616	 0.1659268316	 0.0835428104	 0.260844
H	 4.1049426908	 1.0398568947	-1.4524885097	 0.138838
H	 1.4386775705	 3.9266522487	-0.9902907632	 0.112363
H	 0.6542207627	 3.3805825115	-3.3274034438	 0.116918
57.5341	107.5153	121.4887	252.9336	257.6274	344.5912	385.0672	529.9295	576.7	664.3466	707.5037	741.8249	774.4883	875.6482	924.6976	959.4354	978.8517	999.1101	1049.7322	1094.0046	1111.5402	1162.3034	1239.6882	1263.438	1307.0658	1342.8416	1351.5404	1399.0252	1412.2457	1429.7512	1684.0777	1804.8568	1826.1957	2938.8115	2977.2354	3002.366	3023.4701	3190.1393	3548.17
O=CC1NC=NC1C=O	O=C[C@H]1NC=N[C@H]1C=O	
InChI=1S/C5H6N2O2/c8-1-4-5(2-9)7-3-6-4/h1-5H,(H,6,7)	InChI=1S/C5H6N2O2/c8-1-4-5(2-9)7-3-6-4/h1-5H,(H,6,7)/t4-,5+
