18
gdb 38434	4.10863	1.33533	1.21924	2.0064	77.88	-0.2308	0.0091	0.2399	1058.3078	0.148844	-401.900685	-401.893456	-401.892512	-401.932458	28.649	
C	 0.1089732524	 1.484930216	-0.1420983437	-0.244874
C	 1.3503972813	 0.6910593181	-0.0659912037	-0.082752
N	-0.0115693902	 0.0565275273	 0.1893921736	-0.128365
C	 0.1185497199	-0.6573628497	-1.1278364801	-0.234275
C	 1.5683485599	-0.1170722855	-1.3494208864	 0.395209
O	 1.8017568496	 0.6340254072	-2.5349257315	-0.316402
C	 2.9615352834	 0.158185286	-3.2153587555	-0.136881
C	 3.4634049203	-0.9797793282	-2.3735258998	-0.113475
C	 2.670328105	-1.1335876806	-1.3200067142	-0.143033
H	-0.1118074206	 2.1371160563	 0.6973030257	 0.120256
H	-0.2454029111	 1.8397080188	-1.1070270047	 0.125682
H	 2.0833142875	 0.8198749963	 0.7247475498	 0.090551
H	 0.0659823433	-1.7391942739	-0.9887951433	 0.11014
H	-0.6128509687	-0.3451484342	-1.8795859994	 0.111595
H	 2.6910528765	-0.157825122	-4.2345516402	 0.109726
H	 3.6999279575	 0.9690802418	-3.3128260671	 0.109625
H	 4.3405519163	-1.5631737457	-2.6222803	 0.110716
H	 2.7635723276	-1.8652297479	-0.5277731797	 0.116558
94.7442	132.898	211.9308	326.787	419.8664	433.0614	502.6136	521.6857	736.9739	745.486	773.3088	790.6126	827.6171	861.0638	897.987	954.8539	961.1751	962.3922	988.7912	1030.1154	1043.4995	1053.0785	1080.3674	1106.0807	1113.5346	1115.1065	1164.1456	1193.9551	1198.9637	1211.2134	1238.2291	1275.2878	1348.4534	1379.4508	1381.2405	1484.0803	1506.7053	1517.8773	1689.1476	2981.1382	2999.7653	3052.3825	3109.6843	3117.0486	3156.5541	3201.8219	3209.0019	3233.1256
C1C2N1CC21OCC=C1	C1[C@H]2N1C[C@]12OCC=C1	
InChI=1S/C7H9NO/c1-2-7(9-3-1)5-8-4-6(7)8/h1-2,6H,3-5H2	InChI=1S/C7H9NO/c1-2-7(9-3-1)5-8-4-6(7)8/h1-2,6H,3-5H2/t6-,7-,8?/m1/s1
