20
gdb 124504	4.05338	0.9148	0.89268	2.1725	82.66	-0.1957	0.0378	0.2335	1419.033	0.172149	-399.36226	-399.352706	-399.351762	-399.396989	35.662	
C	-0.0037448294	 1.4881031626	-0.2239300046	-0.381949
C	 0.0147591455	-0.0228536208	 0.0760546713	-0.090378
C	 0.6939845816	-0.3145393765	 1.4276303461	-0.382105
C	-1.3606822378	-0.624911269	-0.0013392314	 0.426832
C	-1.8843420198	-1.5853107124	-0.8454184847	-0.408884
C	-3.2346304316	-1.7364889952	-0.439246046	 0.375777
N	-4.211161663	-2.5422959001	-1.0288209808	-0.589965
N	-3.5347892564	-0.9404921208	 0.5814124677	-0.311011
N	-2.3766067807	-0.2669044323	 0.8221188233	-0.271233
H	 1.0135582141	 1.8926308672	-0.2286911009	 0.114127
H	-0.4608437934	 1.691250281	-1.1962140989	 0.127443
H	-0.5736900061	 2.0376012538	 0.5338348001	 0.108445
H	 0.6038411093	-0.5127674232	-0.7076189264	 0.090831
H	 0.1542876383	 0.1594539886	 2.2553950507	 0.108242
H	 0.7313496556	-1.3891397281	 1.6266661375	 0.124954
H	 1.7174070948	 0.0741406714	 1.4367718845	 0.114554
H	-1.3696657911	-2.09120843	-1.6467378194	 0.090976
H	-3.8656323059	-3.4553068063	-1.2925019653	 0.242149
H	-5.0215713017	-2.6337787483	-0.4290481371	 0.246745
H	-2.3607099623	 0.4085033483	 1.5652241144	 0.264449
29.7744	120.4405	180.2179	224.6447	250.9138	258.0875	287.0037	292.5967	366.1374	394.2926	480.8097	491.3805	615.2301	679.4675	715.5603	738.8886	763.9585	798.096	882.7538	929.156	962.0886	999.2344	1029.6681	1075.5221	1100.6837	1121.8984	1154.9358	1204.8291	1209.1591	1309.7588	1337.8538	1345.8235	1398.5685	1420.0835	1453.2097	1484.7678	1490.7601	1501.9552	1503.8628	1511.6573	1534.9294	1614.7814	1648.4862	3029.5001	3032.7642	3041.6285	3092.7669	3100.8219	3114.0332	3116.3509	3256.1896	3540.209	3635.5072	3691.0176
CC(C)C1=CC(N)=NN1	CC(C)c1cc(N)n[nH]1	
InChI=1S/C6H11N3/c1-4(2)5-3-6(7)9-8-5/h3-4H,1-2H3,(H3,7,8,9)	InChI=1S/C6H11N3/c1-4(2)5-3-6(7)9-8-5/h3-4H,1-2H3,(H3,7,8,9)
