24
gdb 14790	11.75274	0.50174	0.49146	1.0163	84.1	-0.2494	0.0892	0.3386	2320.8513	0.221599	-351.407713	-351.39684	-351.395896	-351.444546	37.35	
C	-0.0346125088	 1.5867804709	-0.0140235765	-0.378996
C	 0.0018989463	 0.0561816121	 0.0038038577	-0.164145
C	 0.7310998408	-0.5157752204	 1.2241431204	-0.157658
C	 0.7721009679	-2.0474458849	 1.2494890256	-0.181412
C	 1.5025794562	-2.611424853	 2.4721075235	-0.197377
C	 1.5388775634	-4.1332029475	 2.4895346023	-0.049319
O	 2.227896794	-4.5591709441	 3.6455672078	-0.230044
C	 2.311747426	-5.9582829418	 3.7484828836	-0.226155
H	 0.9774883169	 2.0066269179	-0.024703403	 0.113116
H	-0.56090776	 1.9650476489	-0.8960622912	 0.109967
H	-0.5444261469	 1.9807735822	 0.8723099273	 0.113117
H	-1.0238177352	-0.3354457743	-0.0208323953	 0.093075
H	 0.4864591296	-0.3097890306	-0.9112590837	 0.093076
H	 1.757803621	-0.124677037	 1.2499792973	 0.092265
H	 0.2471165977	-0.1503688185	 2.1406511053	 0.092264
H	-0.2552393178	-2.4371027226	 1.2234099941	 0.092564
H	 1.256096571	-2.4113977962	 0.3323035718	 0.092565
H	 2.5334827153	-2.2378139807	 2.5010425674	 0.103648
H	 1.019679356	-2.2637108483	 3.393564445	 0.103642
H	 0.512830903	-4.5427731083	 2.4829091137	 0.080399
H	 2.0396831813	-4.5166726528	 1.5824998143	 0.080405
H	 2.8575020401	-6.1887304793	 4.6669654578	 0.124382
H	 1.3155943113	-6.427322306	 3.8010480588	 0.100312
H	 2.850626071	-6.4019692159	 2.8953468258	 0.100309
50.5498	78.8611	79.9363	108.1151	144.6588	155.7547	202.1487	239.4762	244.8032	279.4782	350.1391	470.6919	499.4645	735.2191	754.7077	812.026	898.1535	904.3158	972.7976	1009.8016	1023.0791	1046.2791	1063.5664	1074.5	1136.3214	1166.7404	1175.8339	1205.1313	1223.9699	1234.8215	1265.8367	1284.227	1313.1477	1327.3066	1332.3105	1336.07	1384.0065	1403.0479	1413.2709	1428.3205	1482.066	1485.1718	1485.4138	1487.1454	1494.6376	1499.0315	1502.6842	1507.9114	1515.6907	1533.6248	2937.0171	2961.6982	2964.5699	3001.5938	3004.2921	3005.7888	3016.623	3023.2323	3028.6354	3031.6726	3035.7661	3056.0837	3076.2243	3094.9431	3100.3172	3110.1333
CCCCCCOC	CCCCCCOC	
InChI=1S/C7H16O/c1-3-4-5-6-7-8-2/h3-7H2,1-2H3	InChI=1S/C7H16O/c1-3-4-5-6-7-8-2/h3-7H2,1-2H3
