18
gdb 12828	3.30733	2.01593	1.58243	2.0959	67.29	-0.2374	0.0794	0.3168	860.9429	0.154704	-384.926091	-384.91883	-384.917886	-384.957128	28.944	
O	-0.0491071733	 1.3757427662	 0.1095678402	-0.465201
C	 0.0261442765	-0.0221310374	-0.016963906	 0.361805
C	-0.531433345	-0.6118923466	-1.2945046625	-0.365327
C	-1.3105526344	-0.7047842778	 0.0043337577	 0.067992
O	-1.4639008682	-1.9653799091	 0.5886362263	-0.257637
C	-0.5186163378	-2.2707853171	 1.6054444711	-0.058335
C	 0.9127209917	-2.1287897351	 1.091737341	-0.222985
C	 1.1877146762	-0.6611937374	 0.7256110536	-0.276093
H	 0.6225693683	 1.7587646557	-0.4661372747	 0.280188
H	-0.8826241323	 0.0856041945	-2.0469743286	 0.110026
H	-0.1086023991	-1.5370277157	-1.67177874	 0.114795
H	-2.1834035135	-0.0663370124	 0.1155739682	 0.103172
H	-0.6699994241	-1.6201403305	 2.482348665	 0.091595
H	-0.7360989565	-3.2995832165	 1.905702502	 0.106599
H	 1.6229464852	-2.464231935	 1.8550964867	 0.100164
H	 1.0400041522	-2.7846196855	 0.2223934754	 0.107237
H	 2.1193168009	-0.5646064994	 0.1534705297	 0.090819
H	 1.3178973533	-0.0814634109	 1.6473800747	 0.111185
131.0278	199.2188	285.8862	327.7126	368.157	395.6201	414.3102	483.9242	495.1948	593.7849	692.005	792.405	876.0031	884.7944	910.3319	933.8617	950.7718	988.0494	1013.7705	1043.1582	1062.0873	1101.2223	1112.9325	1176.3704	1191.1846	1246.4708	1252.5041	1282.573	1308.1942	1341.1552	1361.3296	1375.406	1400.6137	1415.9911	1471.578	1480.6117	1500.5838	1504.2713	2973.9383	3018.3147	3036.2036	3058.4413	3082.7839	3089.1017	3129.3784	3140.2675	3224.7729	3788.7469
OC12CC1OCCC2	O[C@]12C[C@H]1OCCC2	
InChI=1S/C6H10O2/c7-6-2-1-3-8-5(6)4-6/h5,7H,1-4H2	InChI=1S/C6H10O2/c7-6-2-1-3-8-5(6)4-6/h5,7H,1-4H2/t5-,6-/m1/s1
