23
gdb 103770	3.10667	1.10007	0.98111	1.5705	86.45	-0.2192	0.0822	0.3014	1348.2852	0.204098	-388.266213	-388.256245	-388.255301	-388.301027	37.26	
C	 0.0964114087	 1.4654233655	 0.2054139469	-0.378166
C	-0.2072029455	 0.0129185813	-0.1837975246	-0.244386
C	 0.6412036543	-0.5087045712	-1.3346262065	 0.264295
C	 0.4239254329	 0.1568115711	-2.6810107343	-0.461331
C	 2.0567660181	-0.9874471116	-1.0021956934	-0.404768
C	 0.9842044357	-1.9709430907	-1.346678325	 0.419458
C	 0.4035375652	-3.1382387242	-0.5524152653	-0.358356
C	 0.4534111578	-3.8752527706	-1.9073903813	-0.07386
O	 1.0321890153	-2.7244682291	-2.5640925794	-0.306931
H	 1.1507425059	 1.5868848242	 0.4759862972	 0.117421
H	-0.1172334989	 2.1559343989	-0.6161800646	 0.119236
H	-0.5087713327	 1.7752984378	 1.0631242855	 0.10936
H	-0.0587083361	-0.627785344	 0.6943610826	 0.091241
H	-1.2691751558	-0.0785965904	-0.4512331147	 0.092358
H	 0.7723910894	 1.1950361743	-2.6791873335	 0.113579
H	 0.9521131445	-0.3802886282	-3.472100755	 0.134556
H	-0.6409985	 0.1618160962	-2.942540589	 0.109993
H	 2.8321044777	-0.8305823336	-1.7457165877	 0.115868
H	 2.3975210076	-0.9292854749	 0.027988357	 0.104691
H	 1.0558600504	-3.5465344573	 0.222172193	 0.112565
H	-0.5938243109	-2.9788023513	-0.1378297471	 0.113156
H	 1.1186049018	-4.7445546499	-1.9554320944	 0.105539
H	-0.5188489253	-4.1413050524	-2.3382512663	 0.104481
73.3741	97.6063	134.4386	169.0327	178.8308	214.8083	252.609	308.6109	366.0227	399.9146	412.894	502.4866	631.3629	688.2419	789.6535	794.9992	858.373	868.2131	894.0919	911.6141	945.0413	977.869	1016.7528	1020.1281	1032.9241	1045.2111	1065.9028	1108.1963	1136.6482	1163.9502	1167.4295	1207.8352	1215.7378	1253.5268	1280.2016	1316.7077	1352.7608	1368.6327	1405.2124	1409.9665	1420.8465	1475.5022	1481.7034	1491.1222	1494.6015	1499.494	1505.7667	1509.0304	1532.752	3008.4708	3024.2881	3027.626	3035.7502	3046.281	3066.6917	3072.1583	3084.8755	3102.478	3107.8718	3112.7998	3123.5865	3124.2427	3203.0488
CCC1(C)CC11CCO1	CC[C@@]1(C)C[C@]21CCO2	
InChI=1S/C8H14O/c1-3-7(2)6-8(7)4-5-9-8/h3-6H2,1-2H3	InChI=1S/C8H14O/c1-3-7(2)6-8(7)4-5-9-8/h3-6H2,1-2H3/t7-,8-/m0/s1
