16
gdb 10056	2.64118	1.51242	1.01001	2.833	66.08	-0.2451	-0.0447	0.2004	1113.0068	0.128722	-379.92986	-379.920772	-379.919828	-379.964649	30.772	
C	 0.2919884671	 1.0187178858	 0.8825894451	-0.33038
N	-0.4273898581	 0.2056509747	-0.0973896135	-0.29568
C	 0.3360713119	-0.3369349207	-1.2018509564	-0.077623
C	 1.208247082	-1.5938288315	-0.9394560026	-0.345309
C	 2.4096648604	-1.325711537	-0.1578847121	 0.262297
N	 3.3659304357	-1.1043699799	 0.4529254883	-0.312394
C	-0.6369620244	-0.6191399225	-2.3517569592	 0.156645
O	-0.5847670846	-1.5768842209	-3.0775948418	-0.240264
H	 1.0693083724	 0.4847168154	 1.4456101267	 0.136601
H	 0.7672862185	 1.860550606	 0.3684887544	 0.13194
H	-0.4299027627	 1.4308990309	 1.5934828873	 0.126859
H	-0.9589919724	-0.5245996933	 0.3635741612	 0.224793
H	 0.9879639054	 0.4703187256	-1.5690927789	 0.129615
H	 0.607258573	-2.3542724679	-0.427668944	 0.15012
H	 1.4924923747	-2.028592369	-1.903305347	 0.176436
H	-1.4214795189	 0.1606539843	-2.4460551676	 0.106345
45.6859	77.3115	105.8331	150.3858	198.8905	243.1734	291.3524	391.816	393.6914	423.0921	525.7982	646.4063	718.2979	818.5259	867.1794	969.7883	1015.0638	1032.5713	1077.7873	1152.4205	1155.3543	1175.6917	1252.9983	1271.3207	1336.7404	1345.8113	1390.5417	1454.1291	1462.1433	1493.7771	1498.5729	1524.4241	1830.692	2357.8525	2924.3195	3008.5125	3012.2313	3050.8473	3077.9034	3093.8547	3109.7083	3530.0588
CNC(CC#N)C=O	CN[C@@H](CC#N)C=O	
InChI=1S/C5H8N2O/c1-7-5(4-8)2-3-6/h4-5,7H,2H2,1H3	InChI=1S/C5H8N2O/c1-7-5(4-8)2-3-6/h4-5,7H,2H2,1H3/t5-/m0/s1
