16
gdb 55513	3.46591	0.9766	0.76913	3.2595	68.66	-0.2474	-0.0838	0.1636	1435.1437	0.120716	-475.103577	-475.093517	-475.092573	-475.140023	33.702	
C	-0.2384146424	 1.5005558041	-0.0072671068	-0.500178
C	 0.1478017024	 0.0390804476	 0.1381630919	 0.41446
O	 1.2691428219	-0.3479714658	 0.3362773633	-0.290949
N	-0.9543641834	-0.825436628	 0.0158689795	-0.382306
C	-0.9686807574	-2.2029082336	 0.0938612504	 0.321078
O	-0.0350687689	-2.9429066646	 0.2829361835	-0.302831
C	-2.4103913943	-2.7489723707	-0.099819506	 0.310613
C	-2.5479543108	-4.2430875012	-0.0342772473	-0.472736
O	-3.32572424	-1.9789061915	-0.2878784993	-0.301372
H	 0.6572387663	 2.1114482084	 0.0965873179	 0.159044
H	-0.6954102064	 1.6856687958	-0.9852463782	 0.147995
H	-0.9668837971	 1.7873428664	 0.7586647863	 0.148047
H	-1.872479262	-0.4297571896	-0.1508042612	 0.271066
H	-1.9094792714	-4.7065943109	-0.7930612666	 0.166793
H	-2.1786171351	-4.6062426659	 0.9300598441	 0.166792
H	-3.5895593214	-4.5282092205	-0.1803692317	 0.144482
58.9932	61.9073	95.4541	101.313	125.4535	133.6634	266.0218	310.2967	371.5871	410.8614	524.8956	547.5062	589.124	625.7316	718.7712	761.0972	836.4587	910.7466	986.217	1024.3968	1033.1064	1053.7069	1140.7196	1216.5555	1264.8108	1386.4065	1388.4245	1449.3762	1456.3032	1467.1791	1481.1423	1519.8516	1796.9092	1806.4144	1859.9306	3042.2821	3051.5534	3104.9312	3112.2615	3166.0869	3167.5877	3562.1552
CC(=O)NC(=O)C(C)=O	CC(=O)NC(=O)C(=O)C	
InChI=1S/C5H7NO3/c1-3(7)5(9)6-4(2)8/h1-2H3,(H,6,8,9)	InChI=1S/C5H7NO3/c1-3(7)5(9)6-4(2)8/h1-2H3,(H,6,8,9)
