17
gdb 127732	5.41018	0.7815	0.72817	2.0817	71.75	-0.2653	-0.0217	0.2436	1545.4651	0.136538	-451.313034	-451.303965	-451.303021	-451.348395	31.009	
C	-0.1281888215	 1.4244831103	-0.0849081828	-0.318444
N	-0.0692327783	-0.0198097059	 0.0143884341	 0.153949
N	-0.0948208516	-0.8125202177	-1.0487991614	-0.12688
N	-0.0373763354	-2.0367513754	-0.5897362368	-0.260865
C	 0.0196886369	-1.9394792198	 0.7634763086	 0.375569
C	 0.1331236478	-3.1146140645	 1.6734078671	-0.306853
C	 1.5728304326	-3.660827366	 1.7383550858	-0.062565
O	 1.6852723674	-4.7698726334	 2.6092907204	-0.413059
N	 0.002306348	-0.6711069492	 1.1689796874	-0.304465
H	 0.7611587241	 1.8629586622	 0.3723793719	 0.162067
H	-0.1705087188	 1.6750955504	-1.1440226444	 0.172861
H	-1.0187976136	 1.795312147	 0.4268834448	 0.161997
H	-0.1899097198	-2.8354048395	 2.6791082113	 0.131853
H	-0.5322557984	-3.905538693	 1.3087129784	 0.117278
H	 1.9201045865	-3.8981633266	 0.7223413794	 0.110163
H	 2.2377535372	-2.8904435687	 2.1417827834	 0.122492
H	 1.2152020369	-5.5094580101	 2.2111309529	 0.284903
35.1593	95.8174	96.5782	103.2189	212.3994	276.4956	304.0234	358.872	387.5594	432.4305	683.7074	702.3729	767.2036	785.9184	829.0481	1012.4535	1027.7384	1047.9587	1055.2384	1080.4804	1104.4153	1152.0181	1153.3445	1255.8831	1289.799	1304.3473	1320.9136	1395.7338	1412.8106	1416.2138	1428.2883	1450.4741	1472.9924	1476.6729	1506.3444	1512.1872	1537.5576	3003.908	3046.3877	3065.9677	3081.7078	3117.43	3138.7908	3177.8991	3816.6311
CN1N=NC(CCO)=N1	Cn1nnc(CCO)n1	
InChI=1S/C4H8N4O/c1-8-6-4(2-3-9)5-7-8/h9H,2-3H2,1H3	InChI=1S/C4H8N4O/c1-8-6-4(2-3-9)5-7-8/h9H,2-3H2,1H3
