22
gdb 58915	2.77405	1.55498	1.23638	1.6191	86.	-0.2249	0.0843	0.3092	1117.1555	0.194252	-367.121824	-367.113357	-367.112413	-367.154765	33.726	
C	 0.1413201721	 1.5455989275	 0.0361745632	-0.390928
C	 0.0465169709	 0.0109185068	 0.0436004012	-0.111696
C	 0.5624959907	-0.5749371712	-1.2792892443	-0.402935
C	 0.7109499156	-0.5490785037	 1.2830333709	 0.403024
C	 0.342198369	-0.2077445628	 2.7387753544	-0.305317
C	 1.5792472909	-1.0910466065	 2.8241705191	-0.001452
C	 1.1576076706	-2.0121856093	 1.6438609086	-0.126392
C	 2.5237298038	-1.7661984496	 1.0152784968	-0.190476
N	 2.2427459384	-0.3873632687	 1.6096713815	-0.195751
H	 1.1888389615	 1.8624576394	 0.0193967016	 0.135413
H	-0.3583983736	 1.9589743804	-0.8456076389	 0.107104
H	-0.3264089408	 1.9830498671	 0.9229844017	 0.114733
H	-1.0153241877	-0.2642757575	 0.1341172138	 0.077693
H	 1.5991050076	-0.2783891336	-1.4680929425	 0.128752
H	 0.5096779254	-1.6678481146	-1.2903291843	 0.115449
H	-0.0414393361	-0.2036286821	-2.1135745758	 0.110339
H	 0.4723726176	 0.8345086724	 3.0423946755	 0.105546
H	-0.594231835	-0.6268421031	 3.1176044513	 0.093634
H	 2.1897821443	-1.3669520171	 3.685925264	 0.079147
H	 0.5367171101	-2.9146888742	 1.6842807104	 0.059661
H	 3.3837904292	-2.2572855917	 1.484256246	 0.093985
H	 2.6281402055	-1.7807352677	-0.070883054	 0.100468
52.7095	178.75	210.0525	238.2048	287.9021	321.8999	354.6353	411.5062	471.8117	482.182	601.7974	704.9454	770.2558	837.8302	858.1261	876.9901	893.5054	922.5781	926.1668	938.1127	965.0646	995.8257	1024.1151	1042.303	1066.3299	1078.4407	1115.1427	1136.9241	1159.8208	1166.089	1172.5083	1179.3013	1220.6492	1247.1054	1269.8833	1288.5131	1299.8855	1339.0636	1376.7883	1396.0304	1418.0635	1487.2926	1491.5729	1494.4087	1503.995	1511.2938	1526.1406	2990.8367	3030.5749	3032.731	3037.989	3045.3527	3052.3261	3098.5782	3099.5623	3106.6423	3108.3706	3113.6577	3116.9853	3120.6126
CC(C)C12CC3C1CN23	CC(C)[C@@]12C[C@H]3[C@@H]1CN23	
InChI=1S/C8H13N/c1-5(2)8-3-7-6(8)4-9(7)8/h5-7H,3-4H2,1-2H3	InChI=1S/C8H13N/c1-5(2)8-3-7-6(8)4-9(7)8/h5-7H,3-4H2,1-2H3/t6-,7-,8-/m0/s1
