19
gdb 74261	2.55258	1.35313	1.0957	2.6377	78.29	-0.2424	-0.025	0.2174	1191.9475	0.156553	-423.067399	-423.05791	-423.056966	-423.10163	35.44	
C	 0.0093327637	 1.4846601169	 0.0501069595	-0.486193
C	 0.0183364802	-0.0088974162	-0.0161975194	 0.297757
C	 0.073637558	-0.7649231189	-1.1182055658	-0.194549
C	 0.0178233165	-2.2426831413	-0.8364925582	 0.261905
C	-1.3142180754	-2.8940239943	-1.2480157583	-0.427042
O	 1.1055508785	-2.9307830933	-1.4388483515	-0.474739
C	 0.1794094051	-2.2627310112	 0.7014868747	 0.355769
O	 0.5063126748	-3.244675079	 1.317717769	-0.328279
C	-0.0386994539	-0.8514423444	 1.241126209	-0.421563
H	 0.8505769754	 1.8565151756	 0.6485715473	 0.131759
H	 0.0734632837	 1.9303438993	-0.9459616277	 0.129494
H	-0.9035002474	 1.8549049982	 0.5339603181	 0.129012
H	 0.1249974364	-0.3807863365	-2.1312571516	 0.101106
H	-1.4085538314	-2.8697737472	-2.3373205746	 0.128185
H	-1.3331966995	-3.9382838176	-0.9188903575	 0.124605
H	-2.1735567313	-2.3752387978	-0.8109784819	 0.114271
H	 1.2690831444	-3.7061466646	-0.8846448702	 0.287099
H	 0.7210858868	-0.5950162187	 1.9893460997	 0.135388
H	-1.0089707447	-0.786375519	 1.7543786094	 0.136013
47.5482	127.491	186.7698	206.1447	230.6291	269.3546	289.693	350.2186	359.8191	395.914	469.5408	527.3039	551.9265	607.8437	642.4393	724.2237	850.6573	878.7683	901.0514	954.4681	968.8961	1011.537	1046.1018	1076.1912	1108.7804	1143.9812	1144.4849	1168.7274	1221.5779	1298.1756	1340.6404	1389.4251	1396.3892	1415.2907	1445.4619	1477.6944	1484.3937	1487.1989	1488.6269	1711.6168	1847.8294	3013.1654	3019.5196	3031.5949	3057.8122	3066.3558	3106.1731	3114.7193	3117.2784	3191.6746	3755.7608
CC1=CC(C)(O)C(=O)C1	CC1=C[C@@](C)(O)C(=O)C1	
InChI=1S/C7H10O2/c1-5-3-6(8)7(2,9)4-5/h4,9H,3H2,1-2H3	InChI=1S/C7H10O2/c1-5-3-6(8)7(2,9)4-5/h4,9H,3H2,1-2H3/t7-/m1/s1
