12
gdb 53787	3.45783	1.02521	0.88277	5.0154	57.6	-0.2506	-0.129	0.1216	1245.0637	0.07364	-509.794062	-509.784735	-509.783791	-509.829761	30.735	
N	-0.0237952514	 1.313479309	-0.0499215545	-0.526511
C	-0.0205126251	-0.0043869219	 0.2447068128	 0.341747
O	 0.836287521	-0.61858633	 0.8456651821	-0.327212
C	-1.2945042764	-0.7230287612	-0.2216538525	 0.204293
O	-2.3197300669	-0.1458079898	-0.5013729888	-0.284342
C	-1.248337996	-2.2503131999	-0.3419882683	 0.261088
O	-0.3955593864	-2.7967204753	-0.9871619977	-0.235903
C	-2.4456470766	-3.0161550005	 0.2721086706	 0.084957
O	-2.5162452296	-4.2103981132	 0.2025565691	-0.196836
H	 0.7215976855	 1.9000309262	 0.2879745567	 0.279236
H	-0.8474354168	 1.7295141949	-0.4538639176	 0.28384
H	-3.2027932913	-2.3927420982	 0.788415318	 0.115643
38.6558	60.4597	87.8498	145.6648	186.208	269.9692	306.3476	341.9367	363.5514	457.1272	477.9789	611.3042	625.228	647.1917	781.9883	849.4346	901.3604	990.8216	1091.6163	1195.2239	1376.2007	1406.2506	1603.944	1789.9711	1798.3251	1818.2851	1841.3475	2938.0835	3593.4895	3728.3465
NC(=O)C(=O)C(=O)C=O	NC(=O)C(=O)C(=O)C=O	
InChI=1S/C4H3NO4/c5-4(9)3(8)2(7)1-6/h1H,(H2,5,9)	InChI=1S/C4H3NO4/c5-4(9)3(8)2(7)1-6/h1H,(H2,5,9)
