14
gdb 42381	3.48185	1.03386	0.79716	1.6129	82.47	-0.2416	-0.0517	0.1899	1339.7826	0.099116	-395.662548	-395.653363	-395.652419	-395.697647	32.937	
N	 0.4274642413	 0.375955771	-1.9300356209	-0.520602
C	-0.0157421011	 0.0751017414	-0.7638224284	 0.266509
N	-1.3843074321	-0.1517961532	-0.6664375062	-0.346472
C	-2.1785568517	-0.4901835407	 0.4190363416	 0.245464
N	-1.7161314065	-0.6568073014	 1.5976497588	-0.500358
C	-3.5688906951	-0.6289450854	 0.0605633826	 0.269549
C	-4.7348106497	-0.7517632295	-0.2078126886	-0.438077
C	 0.8192125715	-0.0307590492	 0.3965041352	 0.353027
C	 1.6615605105	-0.0746654585	 1.2535580582	-0.498117
H	 1.4339273302	 0.5212282814	-1.8933153639	 0.23391
H	-1.8496836116	-0.0439143257	-1.5558710196	 0.271549
H	-2.4704808538	-0.8992815692	 2.2356672053	 0.233534
H	-5.7667821299	-0.8622112306	-0.4366881754	 0.21642
H	 2.3634170479	-0.1275883903	 2.0492920315	 0.213663
23.7955	93.932	121.8416	171.9437	254.4578	270.5285	293.7869	411.6941	461.2315	598.5729	599.4862	650.3361	651.6371	657.1667	671.2956	678.7629	714.9664	729.8981	809.2993	834.0346	858.8959	961.0112	1097.2075	1182.922	1306.9479	1415.002	1520.6714	1655.3094	1686.0061	2229.4016	2230.3146	3496.2317	3500.7903	3521.9994	3522.999	3622.3059
N=C(NC(=N)C#C)C#C	N=C(NC(=N)C#C)C#C	
InChI=1S/C6H5N3/c1-3-5(7)9-6(8)4-2/h1-2H,(H3,7,8,9)	InChI=1S/C6H5N3/c1-3-5(7)9-6(8)4-2/h1-2H,(H3,7,8,9)
