17
gdb 6446	3.79876	1.43914	1.25653	2.301	70.08	-0.226	0.0261	0.252	1012.8633	0.142225	-360.020447	-360.012096	-360.011152	-360.05302	30.586	
C	-0.0451223247	 1.5170438551	 0.1553979774	-0.325735
N	-0.0375371792	 0.0725846581	 0.1443550077	-0.056925
C	-1.2642249485	-0.64265437	 0.524879809	-0.183673
C	-0.3926882795	-1.6983627008	 1.2716953024	 0.140832
N	-0.1273783724	-2.8731008134	 0.451491293	-0.541448
C	 0.7450039579	-0.637011959	 1.1667202712	-0.183673
C	-0.8272046674	-2.0268150914	 2.6347996866	 0.221352
N	-1.1661245657	-2.33089341	 3.6984281381	-0.344066
H	 0.9565170581	 1.8931666862	-0.0772172713	 0.127023
H	-0.7283247378	 1.8884327218	-0.6154226806	 0.127023
H	-0.3567777735	 1.9456900608	 1.1272587151	 0.095159
H	-1.9144484436	-0.0846235857	 1.2158326831	 0.104061
H	-1.8570861152	-1.0281439095	-0.310971078	 0.116301
H	 0.5895825226	-3.4466327017	 0.8882426993	 0.241704
H	-0.9618276951	-3.4509898837	 0.392651628	 0.241704
H	 1.7145950432	-1.0181137554	 0.8299892066	 0.116301
H	 0.8713924106	-0.0768002415	 2.1057590024	 0.10406
81.1339	170.6618	200.379	228.9033	235.85	300.8904	315.4793	390.8274	392.9204	507.5679	582.3068	607.0578	745.5819	865.5129	930.3751	941.553	959.2723	965.1581	1013.8367	1109.9918	1135.5847	1143.122	1190.4308	1236.8997	1254.5327	1276.3635	1298.6135	1309.0946	1350.404	1453.0546	1484.1493	1489.1021	1499.3923	1515.3629	1660.1596	2339.7884	2924.2132	2982.5576	2992.2312	3060.3345	3068.5834	3069.7115	3102.714	3484.5694	3563.1634
CN1CC(N)(C1)C#N	CN1CC(N)(C1)C#N	
InChI=1S/C5H9N3/c1-8-3-5(7,2-6)4-8/h3-4,7H2,1H3	InChI=1S/C5H9N3/c1-8-3-5(7,2-6)4-8/h3-4,7H2,1H3
