16
gdb 32377	4.59624	0.8955	0.78635	5.1817	81.28	-0.2449	-0.0425	0.2024	1426.3812	0.124984	-400.79908	-400.790762	-400.789817	-400.832798	29.992	
C	-0.1831999097	 1.5593941904	 0.0551454691	-0.36961
C	 0.1429557472	 0.061344803	-0.0623837319	-0.305382
C	 0.7692606497	-0.5071102853	 1.1776645072	 0.275541
C	 2.0433639297	-0.9740293219	 1.3250234073	-0.110836
O	 2.2780782475	-1.4017541763	 2.587941984	-0.169212
C	 1.1189956313	-1.2058817846	 3.2818170872	 0.287668
C	 0.1670352141	-0.6612355708	 2.4665028028	-0.382074
C	 1.0933510547	-1.5766579959	 4.6431771678	 0.224982
N	 1.0483527766	-1.8729801193	 5.7624419986	-0.337291
H	 0.7226077918	 2.1435304105	 0.2431593471	 0.125934
H	-0.6438244721	 1.9282998873	-0.8659857752	 0.120446
H	-0.878672938	 1.7502809843	 0.8784866045	 0.123778
H	-0.7761573763	-0.4918007628	-0.29147997	 0.118249
H	 0.8175229876	-0.102554399	-0.9097793495	 0.110625
H	 2.8723991974	-1.0665647516	 0.6417440414	 0.150001
H	-0.8408589015	-0.4077818381	 2.7561473495	 0.137179
54.3864	105.1145	144.1454	197.9713	218.7212	332.7993	395.1358	506.445	531.4961	571.0706	642.3541	680.1508	697.7907	785.6846	798.3878	858.4533	954.7472	964.2198	1010.9645	1067.7326	1092.256	1164.4508	1177.295	1234.9287	1285.9291	1301.2974	1361.165	1405.4404	1413.4345	1485.563	1497.1749	1505.5881	1536.8129	1636.5961	2342.8411	3031.0316	3040.1104	3069.0619	3112.2132	3115.9806	3262.1564	3272.5483
CCC1=COC(=C1)C#N	CCc1coc(c1)C#N	
InChI=1S/C7H7NO/c1-2-6-3-7(4-8)9-5-6/h3,5H,2H2,1H3	InChI=1S/C7H7NO/c1-2-6-3-7(4-8)9-5-6/h3,5H,2H2,1H3
