17
gdb 26528	2.38173	1.84746	1.04866	5.4446	82.79	-0.1828	-0.0007	0.1821	1103.5471	0.138678	-414.237217	-414.228855	-414.22791	-414.269843	32.058	
C	 0.0608553627	 1.5297696017	 0.0306419897	-0.513406
C	-0.023500625	 0.0352026184	-0.0027631279	 0.262232
C	-1.1731440489	-0.6845667721	 0.0518264646	 0.210439
N	-2.4399659022	-0.1321797989	 0.1748628193	-0.597061
C	-1.115591178	-2.1589542749	 0.0371240841	 0.305378
N	-2.227037466	-2.8047123233	 0.0931794553	-0.56594
N	 0.1369647673	-2.7729527037	-0.04398234	-0.337768
C	 1.1879113017	-2.0267797326	-0.106062525	 0.077786
N	 1.1772071099	-0.6730052394	-0.0948405124	-0.355247
H	 0.9541458634	 1.8639551137	 0.5712744786	 0.125621
H	 0.0995715576	 1.975054899	-0.9725254748	 0.136728
H	-0.8091433946	 1.9419137512	 0.548330335	 0.152046
H	-2.6236634223	 0.6939742545	-0.3741794079	 0.239871
H	-3.1401765168	-0.8587510112	 0.0590393158	 0.267501
H	-2.0366136596	-3.8066027951	 0.0749689482	 0.211419
H	 2.1727842158	-2.4843338396	-0.1769003538	 0.121754
H	 2.0456170049	-0.1654687677	-0.1396921386	 0.258646
112.8677	130.6022	177.9422	283.2932	305.3954	348.0486	372.7248	411.559	505.9986	525.9177	532.1818	541.0507	583.6909	694.6049	714.4187	803.1535	866.1976	881.3327	941.9184	955.237	1016.915	1057.3621	1073.7348	1185.7347	1230.224	1289.4365	1303.0736	1389.8404	1419.8018	1433.955	1484.6931	1495.1715	1540.9441	1615.3719	1646.9451	1666.1844	1709.8206	3013.5751	3066.6876	3116.2547	3151.1624	3484.0176	3505.2025	3641.9258	3646.4017
CC1=C(N)C(=N)N=CN1	CC1=C(N)C(=NCN1)[NH]	
InChI=1S/C5H8N4/c1-3-4(6)5(7)9-2-8-3/h2H,6H2,1H3,(H2,7,8,9)	InChI=1S/C5H9N4/c1-3-4(6)5(7)9-2-8-3/h7-8H,2,6H2,1H3
