16
gdb 14475	2.97031	2.31507	1.95918	0.9698	63.91	-0.2257	0.0653	0.291	774.832	0.129504	-383.671161	-383.6641	-383.663156	-383.701916	27.881	
C	 0.1078936166	 1.5816719202	 0.0586814713	-0.505696
C	-0.0685713736	 0.1000775834	-0.0447933674	 0.334641
C	 0.3423629554	-0.7478372972	-1.2820990289	-0.257075
C	-0.6013267685	-1.8108773673	-0.7291974195	-0.159528
C	-0.466882478	-1.6631557415	 0.8197492887	-0.004653
O	 0.5027894148	-0.6541823168	 1.0688900518	-0.320054
C	-1.403019182	-0.7966243948	 0.0506401075	 0.268792
O	-2.7482107077	-0.5498453142	 0.0345216692	-0.445482
H	 1.1731780103	 1.8379533378	 0.045963149	 0.134891
H	-0.3763570678	 2.0845800814	-0.7835128065	 0.128059
H	-0.3219831584	 1.9643267005	 0.9892149133	 0.124518
H	-0.0383275963	-0.3185763695	-2.2125756307	 0.104604
H	 1.4095121083	-0.9754547205	-1.3674185161	 0.098255
H	-0.9482797719	-2.7309765094	-1.1812049829	 0.094878
H	-0.5948359476	-2.4726972704	 1.5257397162	 0.109443
H	-3.0040247535	-0.1890512516	 0.8916782751	 0.294408
171.2196	180.8021	238.5703	317.8753	368.0953	389.6173	481.7136	556.899	611.4905	631.9615	752.3049	776.6961	816.7416	872.0574	881.7728	925.0325	961.2505	991.2779	1026.1501	1036.3718	1095.4102	1102.8536	1139.89	1165.1911	1214.3012	1244.8554	1276.0457	1309.2673	1342.9208	1414.9318	1468.9384	1478.6104	1487.7726	1498.9689	3035.4719	3049.2003	3103.3681	3111.9045	3117.4514	3204.22	3214.5726	3781.5519
CC12CC3C(O1)C23O	C[C@@]12C[C@H]3[C@@H](O1)[C@@]23O	
InChI=1S/C6H8O2/c1-5-2-3-4(8-5)6(3,5)7/h3-4,7H,2H2,1H3	InChI=1S/C6H8O2/c1-5-2-3-4(8-5)6(3,5)7/h3-4,7H,2H2,1H3/t3-,4+,5-,6+/m0/s1
