17
gdb 49092	3.47529	1.51069	1.24999	1.4706	72.17	-0.2529	-0.0311	0.2218	998.5607	0.13701	-421.805678	-421.798586	-421.797642	-421.83728	27.712	
O	-0.1746827457	 0.3820369767	-0.7430219538	-0.266132
C	 0.17591135	 1.1032127135	 0.1617158487	 0.052664
C	 1.4041375051	 1.9289332245	 0.1511763697	 0.208056
C	 1.8398651729	 2.7154981976	 1.3841637487	-0.174219
O	 2.4622607931	 3.9047429726	 0.8869617762	-0.258392
C	 2.790381467	 3.6491222007	-0.4670839709	 0.071141
C	 3.7311157562	 2.4040981762	-0.6260952937	-0.270567
C	 2.4756042144	 1.5679024378	-0.8867754364	-0.099034
C	 1.6428816839	 2.8049725466	-1.0734067189	-0.093175
H	-0.4385149161	 1.1992311158	 1.0854322506	 0.074087
H	 0.9844064239	 3.0009370757	 2.008144887	 0.11121
H	 2.5446460019	 2.1520688171	 2.0102395622	 0.107149
H	 3.0897954763	 4.5845493616	-0.9366962186	 0.093765
H	 4.3457411059	 2.4787566712	-1.5268776577	 0.113455
H	 4.3671700484	 2.1605962824	 0.2301328606	 0.105325
H	 2.3943959575	 0.6250864034	-1.4126918095	 0.114349
H	 0.8723595753	 3.0564585568	-1.7889245241	 0.11032
98.5699	190.55	215.0259	266.6235	389.0259	438.3751	463.4579	658.144	682.4695	725.986	779.3258	844.1424	854.0353	889.6277	923.7369	961.8151	974.1151	995.9181	1007.2416	1026.387	1076.2951	1086.0487	1100.8047	1120.1156	1180.4751	1204.8338	1218.0245	1239.7953	1260.2737	1279.1384	1325.7725	1357.9809	1398.7379	1438.3626	1487.3954	1526.2943	1801.7714	2874.1186	3009.1226	3050.7344	3054.0752	3109.2839	3137.4133	3200.9115	3218.0379
O=CC12COC3CC1C23	O=C[C@@]12CO[C@H]3C[C@@H]1[C@@H]23	
InChI=1S/C7H8O2/c8-2-7-3-9-5-1-4(7)6(5)7/h2,4-6H,1,3H2	InChI=1S/C7H8O2/c8-2-7-3-9-5-1-4(7)6(5)7/h2,4-6H,1,3H2/t4-,5+,6-,7-/m1/s1
