19
gdb 66209	2.28095	1.54137	1.38455	1.5463	76.51	-0.2407	-0.0291	0.2116	1062.8145	0.157881	-423.043756	-423.034985	-423.034041	-423.077168	32.994	
C	 0.0928505022	 1.541076543	 0.2275291066	-0.43549
C	 0.0005707985	 0.0182908541	 0.0777914312	 0.254881
C	 0.6041942791	-0.4714854052	-1.2438689032	-0.287977
C	 0.945571246	-1.9349983408	-1.1832268949	-0.061636
C	 0.9910126788	-2.6002144073	-0.0333166321	-0.064552
C	 0.7327384064	-1.932868403	 1.2849453602	-0.13033
O	 0.6874899256	-0.5136356384	 1.2104196338	-0.293012
C	-1.4870954687	-0.3436623411	 0.1898919902	 0.130566
O	-2.2319749181	-0.5398425399	-0.7332888883	-0.249673
H	 1.1450366923	 1.827022527	 0.3084585739	 0.134566
H	-0.3521049795	 2.039313143	-0.6379073212	 0.132158
H	-0.4212816124	 1.8765602121	 1.1332927279	 0.1262
H	-0.1225789043	-0.2885713907	-2.0426807286	 0.131862
H	 1.4967236654	 0.1210597927	-1.4838035752	 0.10884
H	 1.148061452	-2.4408025174	-2.1230135194	 0.094743
H	 1.2070955793	-3.6645206801	-0.000782336	 0.094236
H	-0.1965783363	-2.3299418364	 1.7316336739	 0.104015
H	 1.5360352949	-2.1612241804	 1.9956909856	 0.122548
H	-1.8386972412	-0.3700534911	 1.2478439356	 0.088057
72.5803	103.5676	183.1695	227.5137	269.9062	302.7634	315.8141	380.3891	420.6966	494.8991	528.2428	572.6033	672.3962	739.2412	846.5166	887.4114	925.2502	933.7359	947.9938	990.423	1003.9354	1006.4995	1039.3311	1114.5819	1138.448	1155.559	1206.6231	1229.1812	1269.3185	1282.8097	1359.001	1386.6831	1398.1158	1404.3223	1412.6127	1459.7472	1480.32	1492.8978	1497.3351	1734.1047	1835.8368	2864.5056	2942.6378	3022.2165	3042.6306	3047.8896	3075.0918	3117.073	3130.2437	3157.5036	3179.5898
CC1(CC=CCO1)C=O	C[C@]1(CC=CCO1)C=O	
InChI=1S/C7H10O2/c1-7(6-8)4-2-3-5-9-7/h2-3,6H,4-5H2,1H3	InChI=1S/C7H10O2/c1-7(6-8)4-2-3-5-9-7/h2-3,6H,4-5H2,1H3/t7-/m0/s1
