14
gdb 18184	4.35013	1.82999	1.49765	2.022	67.22	-0.252	-0.008	0.2439	830.909	0.106897	-345.346756	-345.340113	-345.339169	-345.377506	25.715	
C	-0.0150377788	-1.2478929324	-0.1195823146	-0.465292
C	 0.0008407615	-0.0493060351	-0.0402075645	 0.337365
C	 0.0053575958	 1.4065370083	 0.0513396332	-0.241974
C	-0.611797498	 1.9481969094	 1.3419261749	-0.077765
C	 0.1923733016	 2.811373366	 1.9625339015	-0.087444
C	 1.4919989471	 2.9275522263	 1.2342211997	-0.003968
O	 2.2153104914	 1.6743817429	 1.1789128004	-0.24351
C	 1.4093199627	 2.0368685752	 0.0665113791	 0.030997
H	-0.0165964212	-2.307710733	-0.1842987912	 0.198139
H	-0.5434782423	 1.8116542903	-0.812387347	 0.116865
H	-1.5808131245	 1.6086860456	 1.6865870729	 0.118116
H	-0.0272753	 3.3354257018	 2.8842047849	 0.110319
H	 2.1111895027	 3.8180298725	 1.2751794832	 0.102617
H	 1.9342573421	 2.2025610123	-0.8697763324	 0.105535
112.4993	144.2114	312.2184	355.1444	467.287	533.8548	545.944	624.4211	639.1522	713.6527	747.0269	820.5291	838.8349	868.1014	890.3115	943.3549	978.9248	1000.6558	1043.6104	1063.0778	1105.6162	1134.8658	1249.078	1253.6679	1294.377	1301.9896	1370.3952	1410.8434	1665.7596	2240.8551	2992.8078	3154.6656	3170.72	3202.7567	3226.5063	3504.7908
C#CC1C=CC2OC12	C#C[C@H]1C=C[C@H]2O[C@@H]12	
InChI=1S/C7H6O/c1-2-5-3-4-6-7(5)8-6/h1,3-7H	InChI=1S/C7H6O/c1-2-5-3-4-6-7(5)8-6/h1,3-7H/t5-,6+,7-/m0/s1
