20
gdb 83428	2.8905	1.30444	1.12634	3.0814	79.13	-0.2256	0.0688	0.2944	1175.1162	0.170737	-403.07852	-403.06997	-403.069025	-403.111886	32.486	
C	 0.0135882772	 1.5901279831	 0.5910465825	-0.430559
C	 0.1027752943	 0.0813271257	 0.5859685801	-0.024299
N	 0.9982293953	-0.7130664261	-0.2936391523	-0.196848
C	 2.316921198	 0.011595725	-0.3643497783	-0.150337
C	 2.5338386957	-0.0821066572	 1.1651207325	-0.32724
C	 1.1508468785	-0.7363002815	 1.2322493847	 0.32021
C	 0.8616160315	-1.9440431476	 2.0509206728	-0.035428
C	 0.1014186621	-1.8566666958	 3.3094520761	-0.177387
O	-0.4942778024	-2.3831390205	 2.1255811518	-0.222723
H	 0.977916426	 2.0864147641	 0.7202278477	 0.120629
H	-0.4290475829	 1.9499308739	-0.3442642831	 0.129821
H	-0.6362392843	 1.9162155646	 1.4098544686	 0.123371
H	-0.869283286	-0.4055711488	 0.6107141777	 0.114903
H	 3.024367529	-0.5840031921	-0.9441290429	 0.111357
H	 2.2596797545	 1.0107649451	-0.8060286403	 0.104588
H	 3.3374026698	-0.772716591	 1.4312950468	 0.110762
H	 2.6710994648	 0.8418674855	 1.7351920493	 0.102879
H	 1.5833160848	-2.7570613046	 1.9503066254	 0.095681
H	 0.2861585846	-2.5787248095	 4.1033347646	 0.117445
H	-0.2812928204	-0.8899261122	 3.6334774863	 0.113175
66.5573	136.2001	159.0428	193.414	255.2019	299.5711	329.7373	404.7131	495.6192	555.4685	651.8741	722.0878	767.9686	794.3529	841.8374	876.6563	900.8965	936.1266	965.6246	982.1215	1013.089	1053.3103	1094.5568	1110.5721	1114.478	1152.8335	1162.6478	1169.1578	1187.173	1218.4449	1222.458	1270.1188	1283.5832	1311.8922	1343.4471	1408.0696	1423.7748	1465.3804	1481.2986	1501.3903	1505.8735	1517.3096	1521.9759	3038.6114	3050.0029	3059.6973	3083.5047	3090.715	3096.5333	3098.9783	3116.899	3120.5119	3148.1878	3173.3105
CC1N2CCC12C1CO1	C[C@H]1N2CC[C@@]12[C@H]1CO1	
InChI=1S/C7H11NO/c1-5-7(6-4-9-6)2-3-8(5)7/h5-6H,2-4H2,1H3	InChI=1S/C7H11NO/c1-5-7(6-4-9-6)2-3-8(5)7/h5-6H,2-4H2,1H3/t5-,6-,7+,8?/m1/s1
