17
gdb 84353	2.13724	1.67903	1.38786	2.254	74.24	-0.2522	-0.0098	0.2424	1015.4427	0.135384	-421.793164	-421.784679	-421.783735	-421.826033	32.88	
O	-0.0397021778	 1.4357316576	-0.057838608	-0.443775
C	 0.0209875074	 0.0027213263	-0.0501238118	 0.047851
C	 0.6450592397	-0.5524419711	 1.2044714585	-0.102412
C	-0.2848641695	-0.9584378185	 2.0704164147	-0.069186
C	-1.6949127662	-0.7540135741	 1.5324491836	-0.277459
C	-2.3105933326	 0.4329486553	 2.1193293288	 0.341566
C	-2.775856718	 1.4341084049	 2.5983504346	-0.478855
C	-1.4093495079	-0.5955801433	-0.0108454963	 0.111651
O	-2.3374489936	 0.1490173157	-0.7371737589	-0.427977
H	-0.2885951563	 1.7168121859	 0.8324037627	 0.288503
H	 0.5481284237	-0.2611179323	-0.9706333011	 0.093881
H	 1.7149410665	-0.5608568595	 1.3765933289	 0.108207
H	-0.1012448647	-1.3563125458	 3.0618298624	 0.114809
H	-2.3409537008	-1.6195690923	 1.7179416476	 0.109959
H	-3.2131556367	 2.3028589091	 3.0250666974	 0.201371
H	-1.3835145579	-1.6071794887	-0.4301354973	 0.094887
H	-2.0205980856	 1.0637295108	-0.7027754058	 0.286979
77.6193	131.9561	182.9585	263.8496	285.6896	349.8787	376.4498	440.754	512.0346	553.0178	560.8225	587.3546	628.6675	637.7253	742.4243	773.6322	783.4056	849.1209	889.0005	968.7622	983.1534	1002.8121	1056.3937	1094.7283	1130.9417	1147.6663	1202.0495	1250.4914	1285.9315	1295.8387	1308.7239	1349.8717	1369.9578	1426.7852	1448.7223	1668.811	2224.369	3040.3758	3055.7576	3084.3287	3191.2613	3215.1576	3501.8685	3723.9483	3771.7006
OC1C=CC(C#C)C1O	O[C@H]1C=C[C@@H](C#C)[C@H]1O	
InChI=1S/C7H8O2/c1-2-5-3-4-6(8)7(5)9/h1,3-9H	InChI=1S/C7H8O2/c1-2-5-3-4-6(8)7(5)9/h1,3-9H/t5-,6+,7-/m1/s1
