20
gdb 120276	3.11974	1.02717	0.90041	1.8591	75.47	-0.2393	0.0741	0.3134	1366.3045	0.170802	-440.219995	-440.210934	-440.209989	-440.254461	33.458	
C	-0.4606086017	 1.3922410072	-0.5931103173	-0.223243
O	-0.3818067255	-0.0089221226	-0.6841049922	-0.242244
C	 0.9002313515	-0.508208546	-0.351139376	-0.065082
C	 0.8679935587	-2.0138630958	-0.5071843652	-0.061782
C	 0.8732461612	-2.6057993594	-1.9191937258	-0.04609
N	 2.1860469936	-2.2495291926	-2.5181477182	-0.359532
C	 2.0731272365	-3.4351388571	-1.628902955	-0.088435
C	 2.1978079049	-2.8348359658	-0.219874429	 0.116824
O	 3.3764575871	-2.1244033162	 0.0436423835	-0.434689
H	-0.2512383692	 1.7491304615	 0.4282738727	 0.101828
H	 0.2458555903	 1.8885605277	-1.2777057497	 0.10256
H	-1.4785136183	 1.6831144401	-0.8654884165	 0.122525
H	 1.6651349419	-0.0695018079	-1.0094534132	 0.093407
H	 1.1653551613	-0.2411993213	 0.685478916	 0.091711
H	 0.0407752546	-2.4218960247	 0.0808612238	 0.081489
H	 0.023379065	-2.8257055137	-2.5522670522	 0.098896
H	 2.192006077	-2.5830982333	-3.4801153405	 0.23497
H	 2.3601823893	-4.4195775348	-1.9775613012	 0.09505
H	 2.0656396183	-3.5587552013	 0.5865744086	 0.089799
H	 3.5867358234	-1.6678387639	-0.7831649024	 0.292038
62.5447	93.6904	121.9937	154.8694	230.4873	264.5945	285.9935	374.4695	473.1092	539.6301	588.3762	628.505	705.3136	823.4919	837.5733	862.9148	893.6886	909.5062	960.9445	985.6215	1028.2742	1062.2494	1089.1487	1108.8958	1134.7509	1140.9185	1158.2132	1180.5156	1186.2354	1214.8364	1239.6929	1248.4173	1278.5897	1317.0872	1319.5266	1366.0736	1376.5821	1426.2961	1448.418	1480.184	1485.2053	1502.0682	1524.969	2961.478	2972.7365	3006.977	3010.3783	3071.0494	3097.9641	3108.435	3186.9613	3204.3457	3493.9283	3744.7362
COCC1C2NC2C1O	COC[C@H]1[C@H]2N[C@H]2[C@H]1O	
InChI=1S/C6H11NO2/c1-9-2-3-4-5(7-4)6(3)8/h3-8H,2H2,1H3	InChI=1S/C6H11NO2/c1-9-2-3-4-5(7-4)6(3)8/h3-8H,2H2,1H3/t3-,4+,5+,6-/m0/s1
