19
gdb 55310	2.59546	1.53834	1.06473	3.7122	77.28	-0.2176	0.0546	0.2723	1148.686	0.159876	-419.217763	-419.208982	-419.208038	-419.251377	33.261	
N	-0.0434923618	 1.2766205887	-0.0193105523	-0.561254
C	-0.0195380556	-0.0928225353	 0.2219732913	 0.418146
O	 1.0143947006	-0.7098104636	 0.4270763703	-0.410569
N	-1.2482335247	-0.6895520301	 0.1856127093	-0.144997
C	-2.5230715068	-0.2573371214	-0.401623912	-0.18267
C	-2.9786816837	-1.7460252204	-0.4092900787	-0.336175
C	-1.5607132799	-2.1064189293	 0.0603849264	 0.39545
C	-0.6549620408	-3.1722719465	-0.4770341881	-0.324301
C	-1.1072477595	-3.1959518909	 0.9756737066	-0.324569
H	 0.8162518288	 1.7286617531	 0.2536537597	 0.259181
H	-0.8764812697	 1.7850965203	 0.2371924605	 0.249402
H	-3.1087861047	 0.4159281602	 0.2350998187	 0.106667
H	-2.4162868678	 0.1934574817	-1.3951564653	 0.120655
H	-3.7641732953	-1.9710026499	 0.3148456321	 0.115792
H	-3.2629756669	-2.1381681522	-1.3867881376	 0.11713
H	-1.0846463648	-3.8931225347	-1.1659556327	 0.105143
H	 0.376766815	-2.9016672316	-0.6590853444	 0.151991
H	-0.3620468594	-2.9387176023	 1.7192243729	 0.137371
H	-1.8366496231	-3.9375009655	 1.2864925333	 0.107607
82.3942	95.362	136.2524	170.8047	285.0864	303.4955	406.5437	428.731	454.1225	485.778	552.4909	649.4151	688.033	767.1683	769.9584	793.7859	868.8973	892.6986	927.6552	945.5808	976.3339	1048.3164	1059.3525	1079.4859	1110.4335	1144.862	1158.3787	1192.3356	1192.8125	1217.8012	1247.215	1253.2238	1338.7041	1374.3185	1441.3232	1448.2942	1489.3954	1497.1632	1526.8471	1622.7145	1772.7652	3019.3327	3060.4925	3078.4948	3129.4268	3132.8696	3133.9157	3224.2302	3242.9292	3571.9973	3687.5234
NC(=O)N1CCC11CC1	NC(=O)N1CCC21CC2	
InChI=1S/C6H10N2O/c7-5(9)8-4-3-6(8)1-2-6/h1-4H2,(H2,7,9)	InChI=1S/C6H10N2O/c7-5(9)8-4-3-6(8)1-2-6/h1-4H2,(H2,7,9)
