12
gdb 20518	4.98243	1.59732	1.2186	0.5439	57.84	-0.2685	-0.0667	0.2018	903.3615	0.082256	-414.657292	-414.65016	-414.649216	-414.68921	24.69	
C	-0.0628379526	 1.49353802	 0.0101398986	-0.487193
C	 0.0349165336	-0.0139289925	 0.0037755066	 0.307946
O	 1.0883356275	-0.6167421112	-0.008529726	-0.306491
C	-1.2355533752	-0.7701532798	 0.0118334453	 0.152331
C	-1.4270349498	-2.1242811826	 0.0080987693	 0.002339
O	-2.7122507486	-2.3933502802	 0.017796963	-0.162954
N	-3.3897528781	-1.0847782277	 0.029887178	 0.000371
N	-2.499541878	-0.2143800077	 0.0249984594	-0.161421
H	 0.9406710069	 1.9188312781	 0.002540617	 0.14584
H	-0.6278385054	 1.8422398215	-0.8607367271	 0.154982
H	-0.6118230688	 1.8358220546	 0.8937093846	 0.154944
H	-0.7287609816	-2.9457168525	-0.0013720787	 0.199306
82.1096	121.9391	176.526	200.152	368.2843	462.3998	498.4779	565.4736	631.7781	648.0067	717.097	912.2693	946.4605	971.6593	1021.5659	1047.8055	1133.9261	1174.7454	1298.3472	1352.0385	1392.2027	1456.8674	1469.0798	1503.8875	1568.2856	1784.2367	3045.7101	3106.897	3162.2672	3285.8178
CC(=O)C1=CON=N1	CC(=O)c1conn1	
InChI=1S/C4H4N2O2/c1-3(7)4-2-8-6-5-4/h2H,1H3	InChI=1S/C4H4N2O2/c1-3(7)4-2-8-6-5-4/h2H,1H3
