16
gdb 66033	2.59713	1.26961	1.13548	2.661	75.6	-0.2741	-0.005	0.2691	1134.2166	0.12194	-400.708272	-400.69925	-400.698306	-400.742421	32.723	
C	-0.204392519	 1.5811733306	 0.0316602526	-0.432245
C	-0.0307100917	 0.0678072524	 0.03717905	 0.209203
O	 1.0992600112	-0.3356851368	-0.7879273977	-0.297796
C	 1.8448592988	-0.8354489963	 0.3328283832	-0.082097
C	 0.6718856475	-0.5609751646	 1.3071775951	-0.264669
C	 0.9264287637	 0.3061782928	 2.440674187	 0.2919
N	 1.1376309929	 1.0042114687	 3.3378985896	-0.328547
C	-1.2543406937	-0.6241253731	-0.3461492407	 0.320817
C	-2.2679491316	-1.1947534395	-0.6477559738	-0.449205
H	 0.7209253497	 2.0714545547	 0.3428330573	 0.138722
H	-0.4567199925	 1.9076114218	-0.9802110186	 0.142984
H	-1.0092594957	 1.8801261393	 0.7085998945	 0.142794
H	 2.1098603515	-1.8912331828	 0.2195519419	 0.125879
H	 2.7482398505	-0.2479022546	 0.5271093258	 0.127148
H	 0.1681046779	-1.4674652905	 1.6437286689	 0.14554
H	-3.1625235996	-1.697697532	-0.9231497352	 0.209573
43.6653	133.8293	142.7625	185.4814	226.766	242.7144	329.4464	381.4936	468.3068	504.9348	548.8181	580.0467	639.0981	642.6294	677.3519	770.024	885.4972	903.5653	938.2494	1022.9745	1056.4677	1074.1586	1115.2537	1155.6121	1170.2566	1188.0381	1252.6591	1336.5765	1357.1479	1408.6692	1476.1928	1485.7302	1527.0486	2235.7	2356.0362	3039.3139	3051.6418	3088.1474	3114.9723	3132.7832	3137.3087	3498.1114
CC1(OCC1C#N)C#C	C[C@]1(OC[C@H]1C#N)C#C	
InChI=1S/C7H7NO/c1-3-7(2)6(4-8)5-9-7/h1,6H,5H2,2H3	InChI=1S/C7H7NO/c1-3-7(2)6(4-8)5-9-7/h1,6H,5H2,2H3/t6-,7+/m1/s1
