18
gdb 56855	2.88985	1.2448	1.03966	0.2382	77.04	-0.2333	0.0243	0.2576	1190.4499	0.146653	-401.848129	-401.839388	-401.838443	-401.881976	32.983	
O	 0.6356211183	 1.031100096	-0.5624755462	-0.41452
C	-0.0852735088	-0.0913971799	-0.0581647943	-0.098653
C	-0.1819407748	-1.1688618474	-1.0477568443	 0.320418
C	-0.2134482888	-2.0533608455	-1.8612212977	-0.457165
C	 0.5602898515	-0.5906981629	 1.2313301016	 0.004587
C	 0.2609416851	-0.0748012318	 2.5802983274	-0.042026
C	-1.2146554456	 0.2678716059	 2.7718442413	-0.257931
C	-1.5160007262	-1.1771339012	 2.3008484265	-0.154171
N	-0.0498967842	-1.5245507443	 2.1950568687	-0.156601
H	 1.4573346149	 0.7012287673	-0.9430925173	 0.286696
H	-1.0875117795	 0.2969613229	 0.1423311308	 0.120123
H	-0.2570528117	-2.8348559515	-2.5793370779	 0.203608
H	 1.6030132557	-0.862349818	 1.0699714126	 0.094865
H	 1.0512607085	 0.1687371467	 3.2837421616	 0.09627
H	-1.4761057973	 0.4267184456	 3.8191525198	 0.114399
H	-1.6083408437	 1.1053201216	 2.1875978013	 0.112017
H	-1.9713758191	-1.7986604857	 3.0735381176	 0.114465
H	-2.0779996645	-1.3128534379	 1.3719842985	 0.113616
41.6047	121.7426	171.2289	220.8935	246.0936	290.8961	316.6265	439.0112	491.973	539.5523	592.9491	635.686	677.0724	756.2899	784.9452	791.3822	796.8184	907.4035	953.1543	978.6154	1000.2006	1018.9883	1062.7275	1072.9929	1085.673	1138.4756	1167.1902	1216.8572	1239.7209	1260.2645	1272.9079	1294.4259	1305.4211	1362.7972	1419.5667	1447.0503	1494.241	1518.1357	2232.9488	3053.6364	3060.491	3079.2594	3107.3843	3115.9758	3125.1271	3158.7617	3501.6997	3806.2628
OC(C#C)C1C2CCN12	O[C@@H](C#C)[C@H]1[C@H]2CCN12	
InChI=1S/C7H9NO/c1-2-6(9)7-5-3-4-8(5)7/h1,5-7,9H,3-4H2	InChI=1S/C7H9NO/c1-2-6(9)7-5-3-4-8(5)7/h1,5-7,9H,3-4H2/t5-,6+,7-,8?/m1/s1
