19
gdb 116048	3.16324	1.2828	0.96299	1.7776	81.24	-0.2221	-0.0306	0.1916	1234.9354	0.159388	-423.017961	-423.009482	-423.008537	-423.051247	31.951	
C	-0.0199815705	 1.42093009	-0.1772632961	-0.240793
O	-0.0376230746	 0.0075364726	-0.0951229304	-0.239389
C	 0.722774967	-0.6262653277	-1.0687447108	 0.167651
O	 2.0996554316	-0.3054420704	-0.8643319725	-0.255882
C	 2.8927847543	-0.3199126584	-2.0274147962	-0.136157
C	 2.9650127372	-1.6207744858	-2.7751696025	-0.076578
C	 2.2734524079	-2.7529291597	-2.5735442122	-0.079096
C	 1.1921239492	-3.0135688943	-1.6258420845	-0.073964
C	 0.4809340264	-2.1044150679	-0.9502938154	-0.096861
H	 0.9857630179	 1.8203959114	-0.0096296401	 0.1285
H	-0.3810238031	 1.7660499624	-1.1585509902	 0.102453
H	-0.6929995264	 1.7908786848	 0.5988236672	 0.128346
H	 0.4401733883	-0.2635739064	-2.0786722492	 0.063408
H	 2.5917978594	 0.4801784815	-2.730050138	 0.098116
H	 3.9014321799	-0.0551917041	-1.6835657089	 0.12543
H	 3.7109694814	-1.6157739961	-3.5688107399	 0.094243
H	 2.532002973	-3.5990422558	-3.206716885	 0.089673
H	 0.9321317154	-4.0613428722	-1.497131938	 0.094277
H	-0.3133462343	-2.399378274	-0.2731557174	 0.106621
69.4732	125.2377	181.7542	203.4338	283.343	324.598	355.0984	391.2604	467.5549	491.2544	577.0706	673.4273	718.0279	790.4488	850.6801	887.6929	944.6225	967.1643	990.5369	1009.9597	1019.4708	1049.0345	1078.2406	1136.5285	1169.6035	1180.0267	1210.0871	1243.1385	1261.1173	1282.341	1345.2052	1385.5746	1408.5101	1421.5259	1451.0643	1471.771	1478.5635	1482.8608	1513.9697	1683.2031	1716.4053	2882.6275	2924.7141	2988.4129	3036.747	3073.7444	3129.2907	3130.2424	3148.7465	3161.9609	3195.7861
COC1OCC=CC=C1	CO[C@H]1OCC=CC=C1	
InChI=1S/C7H10O2/c1-8-7-5-3-2-4-6-9-7/h2-5,7H,6H2,1H3	InChI=1S/C7H10O2/c1-8-7-5-3-2-4-6-9-7/h2-5,7H,6H2,1H3/t7-/m0/s1
