19
gdb 10914	3.15133	1.92736	1.52031	1.8355	71.33	-0.2254	0.0644	0.2898	920.9001	0.164274	-365.022767	-365.014192	-365.013247	-365.055195	32.248	
C	-0.2600705681	 1.5406434288	 0.0669112295	-0.410154
C	 0.0590874313	 0.0571725754	 0.0233720036	 0.033125
C	 1.1438326804	-0.4776775895	-0.9684298563	 0.010619
O	 1.9257245507	 0.4435653913	-1.7020940868	-0.429684
C	 1.8648544461	-1.044671364	 0.2477892401	 0.361687
C	 2.4621774986	-2.4174612848	 0.3323276893	-0.503187
C	 2.1466339578	 0.0464703433	 1.2006097812	-0.28685
N	 0.7880959015	-0.5361188813	 1.2065295228	-0.184467
H	 0.6370463466	 2.1625934891	 0.0304337453	 0.12853
H	-0.8882815194	 1.8190866777	-0.7867458454	 0.109305
H	-0.8131293604	 1.7793010041	 0.9810854253	 0.127736
H	-0.8687032335	-0.5130615421	-0.0856913837	 0.07692
H	 0.7498715966	-1.2658878892	-1.6229875311	 0.068624
H	 1.4205631415	 0.7238357207	-2.4720922923	 0.284547
H	 3.3944626894	-2.4685256389	-0.2420909514	 0.127421
H	 2.6882972718	-2.6772652569	 1.3704143228	 0.128516
H	 1.7791216969	-3.1763244175	-0.0650522116	 0.11822
H	 2.70952027	-0.2158122989	 2.091618915	 0.114827
H	 2.3115748421	 1.0583340527	 0.8458050237	 0.124266
123.5994	163.7978	174.1822	205.8187	241.7297	261.3446	280.0021	364.2886	458.9154	513.9876	567.8254	674.6864	715.3436	771.2776	803.8231	856.5879	928.8574	966.8071	1002.6257	1029.0748	1085.3658	1093.1281	1114.9578	1129.5069	1140.1031	1176.7279	1193.4504	1263.866	1282.7436	1330.6234	1370.7993	1379.3634	1405.5462	1417.4275	1442.3404	1483.027	1485.2472	1494.406	1495.5398	1512.3486	3013.0296	3028.4166	3036.2615	3055.0542	3088.9247	3098.3693	3111.9919	3122.3113	3128.3666	3209.4088	3814.5463
CC1C(O)C2(C)CN12	C[C@H]1[C@@H](O)[C@@]2(C)CN12	
InChI=1S/C6H11NO/c1-4-5(8)6(2)3-7(4)6/h4-5,8H,3H2,1-2H3	InChI=1S/C6H11NO/c1-4-5(8)6(2)3-7(4)6/h4-5,8H,3H2,1-2H3/t4-,5+,6+,7?/m0/s1
