19
gdb 32800	3.22576	1.00984	0.78069	0.8771	79.94	-0.1626	0.0564	0.219	1461.1023	0.159366	-419.226915	-419.217268	-419.216324	-419.262464	35.19	
C	-0.0353637199	 1.5379364317	 0.0094685637	-0.397644
C	 0.0983036321	 0.0186520752	-0.0078530187	-0.100527
N	 0.5298230944	-0.4740833673	 1.2939646693	-0.420155
C	 0.7559774186	-1.8579103147	 1.4167678508	 0.225601
C	 1.4680885742	-2.4455993212	 2.4398384725	 0.209321
O	 2.1725078822	-1.8835921573	 3.4689472801	-0.443697
N	 1.4386237966	-3.8108903747	 2.2673025609	-0.277857
C	 0.7178344861	-4.1082254991	 1.140834154	-0.095623
C	 0.2763973911	-2.9226791673	 0.5938114169	-0.234396
H	 0.9300974855	 2.0171116694	 0.2112156317	 0.112225
H	-0.3908537718	 1.9063267504	-0.9570911843	 0.116386
H	-0.7386617405	 1.8560445554	 0.7846942748	 0.125086
H	-0.8763568913	-0.4308345663	-0.2333850546	 0.109171
H	 0.7792394972	-0.2894585855	-0.8211228984	 0.086914
H	 1.330668225	 0.0467005448	 1.6341193718	 0.22158
H	 1.5508786597	-1.4999913778	 4.0993044956	 0.30166
H	 1.9202466104	-4.4613341108	 2.8621769813	 0.260327
H	 0.5872674923	-5.1263040415	 0.813762349	 0.113365
H	-0.319335332	-2.8282212532	-0.2999945664	 0.088263
24.5454	77.6863	128.5105	212.7532	250.4188	264.7235	285.5983	304.3846	341.928	394.3859	516.1996	615.7998	631.9087	647.6154	679.1714	718.6282	791.7623	805.5464	826.4763	912.854	937.3542	1062.6755	1085.4289	1106.3922	1147.1363	1156.939	1207.861	1216.7126	1290.9936	1293.4256	1357.0925	1377.6464	1410.5467	1430.7953	1479.7387	1496.4813	1500.401	1506.0127	1525.4447	1531.7263	1662.7696	2942.2827	3031.4296	3041.495	3099.0138	3118.8286	3254.0192	3276.2952	3526.7644	3690.9441	3758.1679
CCNC1=C(O)NC=C1	CCNc1c(O)[nH]cc1	
InChI=1S/C6H10N2O/c1-2-7-5-3-4-8-6(5)9/h3-4,7-9H,2H2,1H3	InChI=1S/C6H10N2O/c1-2-7-5-3-4-8-6(5)9/h3-4,7-9H,2H2,1H3
