14
gdb 21271	7.19126	1.35628	1.15766	1.6151	60.33	-0.2574	0.0032	0.2606	1005.5553	0.106868	-415.865407	-415.857792	-415.856848	-415.897598	26.333	
C	 0.0086946909	 1.3878069014	-0.0379182444	-0.251229
O	-0.0332562486	-0.0475510507	-0.0649055088	-0.248896
C	 0.5788974732	-0.6508826636	-1.0610554298	 0.524359
N	 0.6425300262	-1.9355309997	-1.2446608749	-0.404466
C	 1.3815647421	-2.0058744398	-2.4037798135	 0.37429
C	 1.7447634081	-3.2950350871	-3.055403678	-0.484891
N	 1.7514412739	-0.8550902806	-2.906903365	-0.190556
O	 1.2027873161	 0.0824248647	-1.9877154609	-0.222638
H	 1.0403228476	 1.742820208	 0.0303108916	 0.151796
H	-0.4614776733	 1.804838754	-0.9323180912	 0.151815
H	-0.5496372559	 1.6758437308	 0.8517243226	 0.152297
H	 0.8406179806	-3.8530703311	-3.3160172173	 0.149763
H	 2.3294850988	-3.1110662081	-3.957801049	 0.148592
H	 2.3259404605	-3.9147363282	-2.3661889314	 0.149764
91.2008	140.9409	149.2346	213.6705	222.3072	331.817	373.1305	534.2297	641.6448	673.3555	753.9788	770.67	898.0659	995.3134	1005.8396	1044.317	1070.455	1123.6202	1178.2688	1204.2204	1351.7161	1384.0952	1429.4259	1472.1326	1474.1307	1481.0048	1487.4117	1497.2426	1589.2626	1662.3641	3050.6296	3052.526	3113.9047	3127.3091	3151.4929	3168.7417
COC1=NC(C)=NO1	COc1nc(C)no1	
InChI=1S/C4H6N2O2/c1-3-5-4(7-2)8-6-3/h1-2H3	InChI=1S/C4H6N2O2/c1-3-5-4(7-2)8-6-3/h1-2H3
