19
gdb 28907	2.3542	1.76085	1.02653	2.896	84.81	-0.2392	-0.023	0.2162	1171.945	0.15932	-382.149561	-382.140452	-382.139508	-382.183672	33.154	
C	-0.0555178968	 1.5145689102	-0.0666274679	-0.490418
C	-0.0240136756	 0.0084461714	 0.0085786491	 0.264078
N	-0.0604047965	-0.6355014298	-1.16806443	-0.305259
C	-0.0335738846	-1.9635342641	-1.1234779805	 0.052002
N	 0.0255811953	-2.729800215	-0.037233412	-0.304335
C	 0.0620653927	-2.0906830936	 1.1392727274	 0.268609
C	 0.1289901741	-2.9535677331	 2.3707901868	-0.486798
C	 0.0392289479	-0.6892044941	 1.2235078596	 0.179078
C	 0.081456554	 0.0013528604	 2.56312415	-0.510417
H	 0.8371360124	 1.9600539647	 0.3861046062	 0.133978
H	-0.1045982204	 1.8152532389	-1.1134431944	 0.144006
H	-0.9237253661	 1.9268845014	 0.4591647579	 0.133966
H	-0.0632476358	-2.4811711086	-2.0800881731	 0.111042
H	 1.0296843906	-2.741172284	 2.9584934221	 0.132753
H	-0.7271919258	-2.773545619	 3.0313115548	 0.132732
H	 0.1362325621	-4.0036224976	 2.0778408337	 0.144643
H	 0.9885082655	-0.26281194	 3.1194583336	 0.135574
H	 0.0582761688	 1.0871017329	 2.4670214788	 0.129171
H	-0.767528402	-0.293970151	 3.190881948	 0.135594
55.4712	111.8494	146.2736	160.6363	226.5042	285.2814	304.1716	322.995	472.176	514.4444	522.3463	559.454	571.2655	675.3225	787.0676	878.6967	898.2422	978.4759	992.3012	994.3944	1035.3733	1058.3107	1080.9947	1104.6124	1178.6142	1256.9988	1287.1594	1316.7802	1399.3758	1401.8864	1416.1518	1420.454	1459.7022	1470.0381	1476.7299	1481.8273	1486.5159	1501.6544	1502.7692	1596.8524	1603.8594	3029.9453	3031.3425	3036.0728	3074.9714	3081.7509	3089.6861	3141.2254	3149.3993	3150.2031	3154.5871
CC1=NC=NC(C)=C1C	Cc1ncnc(C)c1C	
InChI=1S/C7H10N2/c1-5-6(2)8-4-9-7(5)3/h4H,1-3H3	InChI=1S/C7H10N2/c1-5-6(2)8-4-9-7(5)3/h4H,1-3H3
