24
gdb 112971	4.63581	0.7593	0.7145	0.9759	91.08	-0.2286	0.0815	0.31	1704.4052	0.217298	-368.375968	-368.366335	-368.365391	-368.411006	36.377	
C	-0.1198454515	 1.6501008152	-0.0321044834	-0.380639
C	-0.0797991768	 0.1429326744	 0.2366176817	-0.175285
C	-1.429977915	-0.5451175849	 0.0285082245	 0.031811
C	-1.850840863	-0.7400947406	-1.4613699729	-0.255969
C	-1.4076194377	-2.2230394581	-1.3693275517	 0.088054
C	-1.3956036524	-2.0957746849	 0.1759038922	-0.267805
N	-2.3299597548	-3.1975530048	-1.9205423672	-0.062726
C	-2.0937610385	-3.5974051119	-3.3058224952	-0.224234
C	-1.7823254207	-4.5259240583	-2.1853944546	-0.224194
H	 0.8623094014	 2.1090388714	 0.1188456612	 0.110039
H	-0.4319804898	 1.8651970315	-1.0597761076	 0.11662
H	-0.8282365073	 2.149904965	 0.6380674597	 0.113605
H	 0.6758744127	-0.3261261231	-0.4084296194	 0.090616
H	 0.2515859811	-0.0354409224	 1.2683616781	 0.092357
H	-2.1821817626	-0.0471940622	 0.648888198	 0.063812
H	-2.9327121316	-0.674107857	-1.6006293004	 0.106329
H	-1.3576107035	-0.1143644786	-2.2105861961	 0.09011
H	-0.3868354884	-2.3601223259	-1.7662117166	 0.047864
H	-0.543931328	-2.5266995333	 0.7103458939	 0.088489
H	-2.3213772574	-2.494835662	 0.5978911315	 0.105383
H	-2.9815492593	-3.7429164072	-3.9144725224	 0.114751
H	-1.2502638941	-3.150032866	-3.8297057251	 0.108062
H	-0.7308047051	-4.6988327653	-1.9606918677	 0.108175
H	-2.4386053179	-5.3618129608	-1.9609396703	 0.114771
54.5877	78.3034	122.0147	153.3621	225.1667	247.0596	283.7772	300.1713	408.0752	449.4715	480.5115	628.2832	758.2564	798.3252	812.5686	819.2566	867.7142	900.4159	916.6153	935.8838	968.1961	983.8393	992.6133	1030.7459	1055.6489	1085.9705	1093.8043	1112.0737	1115.5079	1134.5348	1145.1849	1174.4387	1207.0543	1218.1726	1240.3394	1264.4556	1276.1984	1289.1626	1301.6055	1322.3844	1343.0693	1381.9318	1396.0467	1411.826	1466.6654	1485.7463	1490.4135	1491.8463	1499.7027	1507.0196	1517.4932	2937.3126	3008.3824	3029.6442	3032.8778	3048.9166	3051.3152	3058.2684	3091.7773	3096.022	3096.3146	3100.7054	3110.2546	3112.8306	3175.0382	3189.4243
CCC1CC(C1)N1CC1	CC[C@H]1C[C@@H](C1)N1CC1	
InChI=1S/C8H15N/c1-2-7-5-8(6-7)9-3-4-9/h7-8H,2-6H2,1H3	InChI=1S/C8H15N/c1-2-7-5-8(6-7)9-3-4-9/h7-8H,2-6H2,1H3/t7-,8-
