17
gdb 70397	2.45213	1.52797	1.35409	3.0195	72.33	-0.253	0.0182	0.2712	1028.5477	0.13495	-417.981423	-417.972736	-417.971792	-418.014305	32.903	
C	-0.1670176838	 1.5234664562	 0.0737374038	-0.51692
C	 0.1270396514	 0.0619377458	 0.0334303277	 0.412247
O	-0.7485734689	-0.8506910813	 0.7033356511	-0.297549
C	 0.6614799025	-0.9180335193	 0.9935541704	-0.028859
C	 1.2901247355	-1.78376461	-0.0938449361	-0.309917
C	 0.6888577606	-0.7632398259	-1.1710055679	 0.080514
N	-0.3425815915	-1.1668194231	-2.1019324634	-0.564504
C	 1.7615095797	-0.0601982859	-1.8750239752	 0.276038
N	 2.6261220702	 0.4943077927	-2.4053328561	-0.342753
H	 0.7039331783	 2.0999862911	-0.2503347983	 0.150923
H	-1.0004435934	 1.7611188295	-0.5953414906	 0.148345
H	-0.4388152935	 1.8257652603	 1.0880821621	 0.138424
H	 0.9576969721	-0.7914619458	 2.0277978565	 0.116216
H	 2.381535176	-1.792952139	-0.0824108076	 0.132624
H	 0.9032163164	-2.802889085	-0.1664998633	 0.115876
H	 0.0137125062	-1.8342138529	-2.7784625502	 0.241078
H	-1.0837610278	-1.6161775074	-1.572196143	 0.248215
124.4216	130.9899	184.165	211.1148	236.4824	302.5065	345.2658	372.8371	456.4103	490.7204	540.2403	557.7145	663.999	672.0451	767.0097	844.2537	872.4385	890.325	935.06	945.8654	977.7432	1045.7567	1067.4586	1104.8268	1124.4071	1184.627	1223.1953	1261.2184	1275.8927	1337.0297	1404.9301	1454.0172	1471.6624	1483.7784	1496.0371	1644.2515	2355.1649	3044.8666	3070.7442	3113.7988	3131.0831	3136.9752	3198.2533	3499.1181	3585.3511
CC12OC1CC2(N)C#N	C[C@]12O[C@H]1C[C@]2(N)C#N	
InChI=1S/C6H8N2O/c1-5-4(9-5)2-6(5,8)3-7/h4H,2,8H2,1H3	InChI=1S/C6H8N2O/c1-5-4(9-5)2-6(5,8)3-7/h4H,2,8H2,1H3/t4-,5-,6-/m0/s1
