13
gdb 129709	2.39558	1.92878	1.06922	3.4728	67.65	-0.2162	-0.0594	0.1569	1012.8045	0.089323	-489.88237	-489.874748	-489.873803	-489.914264	28.924	
N	 0.0261744648	 1.3875313213	 0.1581829056	-0.559067
C	-0.0359884742	 0.0282337866	 0.0617887289	 0.374084
C	-1.190709268	-0.7008322161	 0.0367381617	 0.146909
O	-2.4049320594	-0.0977986228	 0.0468394742	-0.45413
C	-1.1305979555	-2.1225793657	-0.0102006683	 0.275099
O	-2.1479969448	-2.8227658395	-0.0437727808	-0.425938
C	 0.2443028453	-2.6321261411	-0.0228131752	-0.053479
N	 1.3289729299	-1.9348989619	-0.0051260506	-0.068814
O	 1.1798816322	-0.5534654931	 0.036744224	-0.262204
H	 0.8789334932	 1.8204198641	-0.1626615378	 0.275429
H	-0.8269585466	 1.8720678837	-0.0759962159	 0.286225
H	-3.0332231944	-0.8421771301	 0.0095303777	 0.308946
H	 0.4061438075	-3.7059869653	-0.0550556035	 0.156939
127.5235	188.001	251.7863	283.9649	308.3556	369.1801	475.9808	490.2786	522.7575	533.0048	553.9075	585.0799	649.5346	687.7587	745.7517	874.533	920.4887	943.1631	1040.4566	1133.1533	1251.5161	1279.8497	1358.114	1391.8806	1482.5473	1608.1175	1623.2277	1694.6065	1729.8606	3185.3921	3581.5446	3638.3339	3698.5116
NC1=C(O)C(=O)C=NO1	Nc1c(O)c(=O)cno1	
InChI=1S/C4H4N2O3/c5-4-3(8)2(7)1-6-9-4/h1,8H,5H2	InChI=1S/C4H4N2O3/c5-4-3(8)2(7)1-6-9-4/h1,8H,5H2
