18
gdb 88922	3.67924	0.8843	0.8386	3.6586	79.97	-0.226	-0.0604	0.1656	1425.2327	0.144241	-401.88914	-401.87939	-401.878446	-401.925209	34.647	
C	-0.1714219624	 1.482670447	 0.0307440693	-0.320841
N	 0.0904445001	 0.0528247799	 0.0353010696	-0.061352
C	 1.4513776306	-0.4100236652	-0.1882056023	-0.272593
C	 0.8026054837	-0.563804897	 1.1487050664	 0.025938
C	 1.3301305185	 0.2079857761	 2.3396579778	-0.346618
C	 0.2698997606	 0.4981871568	 3.3937443575	 0.234051
O	-0.9048793775	 0.2426952503	 3.2475618776	-0.281448
C	 0.767779108	 1.1212611901	 4.6113332889	 0.243639
C	 1.1995781126	 1.6386464207	 5.6088281239	-0.385516
H	 0.6759617888	 2.1089209614	 0.3555409335	 0.091071
H	-0.4318425724	 1.7863420292	-0.9880915199	 0.125178
H	-1.0261186221	 1.6891047858	 0.6812550666	 0.141191
H	 1.5699137204	-1.26059624	-0.8548749424	 0.115574
H	 2.2413509031	 0.3384116669	-0.2674008027	 0.100116
H	 0.3973706231	-1.5374221905	 1.4177587808	 0.101584
H	 2.1402533106	-0.3539841362	 2.8242018255	 0.137534
H	 1.7839792729	 1.1641422686	 2.0534710851	 0.137086
H	 1.5603708312	 2.0957401761	 6.4983141947	 0.215406
22.303	61.8249	110.946	166.4065	203.9898	235.2771	277.3755	317.4735	403.7149	420.1349	502.0151	595.2528	608.2623	647.984	707.4526	750.5335	801.3624	833.3318	917.4763	965.3151	1034.6236	1054.6638	1107.0624	1122.0704	1129.8704	1138.1458	1170.5078	1200.3428	1228.8233	1334.5937	1347.2211	1418.095	1439.6073	1449.8024	1491.404	1502.2813	1516.1889	1771.3816	2210.6567	2961.6005	3029.0376	3065.594	3070.2394	3076.3547	3113.0685	3122.9768	3165.9777	3493.7845
CN1CC1CC(=O)C#C	CN1C[C@H]1CC(=O)C#C	
InChI=1S/C7H9NO/c1-3-7(9)4-6-5-8(6)2/h1,6H,4-5H2,2H3	InChI=1S/C7H9NO/c1-3-7(9)4-6-5-8(6)2/h1,6H,4-5H2,2H3/t6-,8?/m1/s1
