19
gdb 121321	2.71688	1.16609	0.95468	3.3797	72.37	-0.2464	0.0026	0.249	1303.501	0.159167	-460.202164	-460.193135	-460.192191	-460.236814	32.292	
C	 0.2490028304	 1.4740589134	-0.1561407192	-0.385579
C	 0.1935414946	-0.0361696785	-0.0107081926	-0.050436
O	 0.5493888205	-0.6104428439	-1.2680297696	-0.271377
C	 0.5120671184	-2.0250173687	-1.301323897	-0.003741
C	 0.7538891388	-2.4850563737	-2.7328611327	-0.265028
C	 2.2874965663	-2.5298552197	-2.8034314768	-0.074696
O	 2.724567434	-2.8441595636	-1.4672426291	-0.219306
C	 1.7478411751	-2.5820712021	-0.5623155985	 0.428437
O	 1.8989252322	-2.7306231065	 0.6171013943	-0.342863
H	 1.2595946202	 1.7985152961	-0.4199695554	 0.128655
H	-0.4363483632	 1.813987521	-0.9378832887	 0.124003
H	-0.0326121288	 1.9531523163	 0.786123791	 0.120421
H	 0.8760923062	-0.3833852464	 0.7747524693	 0.126669
H	-0.8206530015	-0.3671113024	 0.2654610869	 0.09067
H	-0.4113419522	-2.4073869695	-0.8488629994	 0.091063
H	 0.3365583117	-3.4856708673	-2.8780912295	 0.120449
H	 0.3098986125	-1.8048074315	-3.4609967362	 0.126591
H	 2.6778461523	-3.3013883748	-3.4696008212	 0.125288
H	 2.7119908725	-1.5617604982	-3.0869650955	 0.130781
62.2515	75.2946	119.0916	186.4501	213.4459	235.0751	263.6578	374.7769	431.8793	492.6148	672.6261	683.2474	735.4504	819.8179	837.027	887.9762	898.6068	932.6019	993.7004	1025.5591	1063.247	1089.7021	1134.8945	1154.9796	1183.4233	1189.649	1222.0772	1241.626	1293.4494	1303.092	1338.4032	1351.8164	1401.4128	1404.6008	1437.489	1475.7368	1483.6001	1500.5704	1520.8326	1532.3777	1869.9201	2978.6417	3031.9855	3045.2689	3050.5741	3059.6029	3070.5051	3117.3484	3120.9655	3121.5849	3135.6048
CCOC1CCOC1=O	CCO[C@H]1CCOC1=O	
InChI=1S/C6H10O3/c1-2-8-5-3-4-9-6(5)7/h5H,2-4H2,1H3	InChI=1S/C6H10O3/c1-2-8-5-3-4-9-6(5)7/h5H,2-4H2,1H3/t5-/m0/s1
