23
gdb 122638	3.78273	0.72811	0.65365	1.9911	83.39	-0.2406	0.0854	0.326	1806.0393	0.203805	-425.404349	-425.393794	-425.39285	-425.44127	37.121	
C	-0.0512844805	 1.5402872513	 0.1638213296	-0.3847
C	-0.0793927042	 0.0234362166	 0.0835926903	-0.027861
O	 0.6922404645	-0.4989389287	 1.1463031459	-0.247949
C	 0.7415552973	-1.9096739775	 1.1639009658	-0.073673
C	 1.5561095271	-2.3215210681	 2.3762209692	-0.068318
C	 0.8284036469	-2.1632285388	 3.7257807498	-0.07289
O	 0.7053935265	-3.5938209483	 3.8769589876	-0.293611
C	 1.5817071487	-3.830079257	 2.748998397	 0.142982
C	 1.0486882576	-4.891571993	 1.8061463173	-0.406729
H	 0.9749483575	 1.9097824808	 0.0832017679	 0.126532
H	-0.6426569153	 1.9763192693	-0.6468166551	 0.114928
H	-0.4638420745	 1.881653657	 1.1174892355	 0.126891
H	-1.115995283	-0.3491986997	 0.1478002562	 0.085939
H	 0.3246510611	-0.3207241326	-0.8838582978	 0.084694
H	-0.2786030644	-2.325490037	 1.2194763547	 0.090644
H	 1.1984488415	-2.292688878	 0.234916103	 0.084837
H	 2.5382386152	-1.8470871468	 2.3189227734	 0.081132
H	 1.4318435069	-1.7167809609	 4.5267647301	 0.096027
H	-0.1466184899	-1.6640838249	 3.6928574416	 0.105183
H	 2.5788410283	-4.1320227347	 3.1044591002	 0.069925
H	 0.0597066153	-4.6330767518	 1.4189869885	 0.121645
H	 1.7321455061	-5.0392691378	 0.9629764588	 0.115813
H	 0.9620595914	-5.8430929792	 2.3403805307	 0.128561
47.6246	61.1306	89.7396	103.2673	147.3604	199.0825	224.7883	247.0575	305.2938	359.7785	428.0863	451.6696	528.7119	738.3129	820.2675	849.5371	875.1161	894.8924	911.7098	948.9449	998.7455	1018.3116	1045.7698	1089.7147	1110.0877	1144.5933	1152.3216	1161.6913	1164.9204	1183.602	1203.1841	1241.5215	1269.3861	1294.2628	1296.4718	1347.748	1366.6047	1389.3987	1394.082	1407.4972	1410.3789	1453.3114	1481.547	1483.4592	1495.5925	1499.6433	1513.064	1527.1844	1537.7454	2944.6352	2957.631	2976.1379	2977.0345	2978.7159	3012.7102	3037.4414	3045.0515	3061.636	3088.2196	3105.3553	3119.6494	3120.4347	3121.2754
CCOCC1COC1C	CCOC[C@H]1CO[C@H]1C	
InChI=1S/C7H14O2/c1-3-8-4-7-5-9-6(7)2/h6-7H,3-5H2,1-2H3	InChI=1S/C7H14O2/c1-3-8-4-7-5-9-6(7)2/h6-7H,3-5H2,1-2H3/t6-,7-/m0/s1
