23
gdb 76923	2.46257	1.14668	0.99958	1.5029	87.68	-0.2152	0.0821	0.2974	1353.2326	0.204202	-384.415212	-384.404851	-384.403907	-384.450418	38.394	
C	 0.9746951986	 1.4963662144	 0.5776603893	-0.315785
N	 0.6359088673	 0.1262960276	 0.2218753067	-0.141928
C	 0.4698816543	-0.2574933712	-1.186628877	-0.064673
C	 0.6186700467	 0.7051991003	-2.321310688	 0.009059
C	 0.054504487	 0.3443718901	-3.6474373348	-0.249915
N	-0.5801507097	 1.3982250817	-2.8401474154	-0.324217
C	 1.620660343	-0.7841173404	-0.3753447864	 0.295557
C	 3.0454226374	-0.3414788439	-0.6623259029	-0.456926
C	 1.5347809636	-2.2032825719	 0.1581366796	-0.434124
H	 1.6664813144	 2.0146691336	-0.1003679091	 0.102195
H	 0.0522050337	 2.0841446389	 0.6195860409	 0.127643
H	 1.4196716828	 1.4991057783	 1.5779688416	 0.120442
H	-0.3756279366	-0.9341738681	-1.3394636271	 0.071083
H	 1.4943529264	 1.3455129641	-2.310979717	 0.090436
H	 0.537413509	 0.6896770143	-4.5571673212	 0.118329
H	-0.4451632003	-0.6171363732	-3.7396376256	 0.111332
H	-1.4086940646	 1.0230687658	-2.381992105	 0.230401
H	 3.1230818599	 0.6810196491	-1.0328832793	 0.121168
H	 3.6535217085	-0.4132846787	 0.2469081444	 0.119484
H	 3.4989730132	-0.9999060404	-1.4108622987	 0.123162
H	 1.9363063361	-2.9220481026	-0.5653663862	 0.110222
H	 2.1127307646	-2.3023159449	 1.0845545828	 0.113929
H	 0.498381795	-2.4686943929	 0.3792783283	 0.123125
58.1792	121.596	143.9962	168.799	183.5657	195.7666	244.9922	270.2276	318.9937	370.7766	377.9168	459.534	482.8603	576.5959	704.2091	735.2564	814.0405	854.2784	885.9305	946.9278	958.7515	967.9361	1006.5044	1019.8294	1055.2586	1103.4441	1125.8361	1139.6798	1149.8775	1156.8534	1176.8339	1183.5853	1222.1464	1257.3315	1276.0576	1301.3075	1342.3389	1375.3328	1405.6922	1418.4439	1451.9595	1466.7877	1477.1604	1485.9726	1494.69	1498.3618	1507.5456	1510.5428	1516.3504	3002.5531	3025.4997	3035.9505	3055.5735	3069.2853	3085.0083	3090.9208	3100.1196	3105.4497	3122.463	3134.9516	3165.7475	3190.7309	3483.1398
CN1C(C2CN2)C1(C)C	CN1[C@@H]([C@H]2CN2)C1(C)C	
InChI=1S/C7H14N2/c1-7(2)6(9(7)3)5-4-8-5/h5-6,8H,4H2,1-3H3	InChI=1S/C7H14N2/c1-7(2)6(9(7)3)5-4-8-5/h5-6,8H,4H2,1-3H3/t5-,6+,9?/m1/s1
