16
gdb 66079	2.39049	1.35419	1.16578	3.8742	69.63	-0.2765	-0.0509	0.2256	1108.8514	0.12162	-437.88161	-437.872537	-437.871592	-437.916447	31.647	
C	 0.0500754349	 1.491097274	-0.0394833474	-0.421159
C	 0.0268178921	-0.0288556603	 0.0517508965	 0.248929
O	 0.8284182246	-0.6365409928	-0.9923974972	-0.293269
C	 1.6483095764	-1.3627984015	-0.0554176245	-0.091812
C	 0.8705715083	-0.7704818548	 1.1427086272	-0.202989
C	 1.6618874933	 0.0056140194	 2.1660958501	 0.142791
O	 1.387656484	 1.0989537539	 2.585246141	-0.234133
C	-1.3590655608	-0.5291796111	-0.0102315746	 0.268423
N	-2.4430160186	-0.9283038905	-0.0426873511	-0.333305
H	 1.078352764	 1.8529705494	-0.004446725	 0.134963
H	-0.4003246657	 1.7901382919	-0.9898894259	 0.142739
H	-0.5078919021	 1.9421398766	 0.7827559488	 0.154957
H	 1.5645587324	-2.4462441742	-0.1860010026	 0.12856
H	 2.7028681767	-1.0700458951	-0.1271743242	 0.118728
H	 0.2951477331	-1.5241451334	 1.6898839059	 0.142024
H	 2.5543085675	-0.5487305114	 2.539673663	 0.094553
36.7543	77.1062	147.8466	176.2614	206.2493	242.4223	298.5561	341.5431	383.1228	542.5399	561.4205	591.1101	700.8917	731.7407	884.3328	899.027	921.8499	961.4379	1022.4352	1062.1144	1110.4237	1131.9558	1161.1171	1172.0241	1203.9156	1236.2319	1332.1583	1352.2959	1410.1967	1423.8228	1470.4625	1483.8399	1527.7687	1831.7368	2354.0179	2863.4739	3027.2648	3060.0329	3065.0376	3082.446	3140.1072	3155.9105
CC1(OCC1C=O)C#N	C[C@]1(OC[C@H]1C=O)C#N	
InChI=1S/C6H7NO2/c1-6(4-7)5(2-8)3-9-6/h2,5H,3H2,1H3	InChI=1S/C6H7NO2/c1-6(4-7)5(2-8)3-9-6/h2,5H,3H2,1H3/t5-,6+/m1/s1
