16
gdb 53257	4.38875	0.77192	0.74098	5.0691	81.47	-0.2671	-0.0098	0.2573	1558.3849	0.120828	-400.719398	-400.709444	-400.7085	-400.755851	33.929	
C	 0.1167074347	 1.5018420423	 0.0774253155	-0.504074
C	 0.0367974965	 0.050147839	 0.0520461821	 0.17408
C	-0.0296337093	-1.1525982325	 0.037505501	 0.051195
C	-0.0624670786	-2.5858362353	-0.0012037252	-0.228263
O	-0.5800571419	-3.2898594346	 1.1419896424	-0.25333
C	-1.3464980572	-3.348463182	-0.0593241102	 0.242065
C	-2.6950523853	-2.6678097458	-0.050442675	-0.467089
C	-1.3092125121	-4.6390117737	-0.7331426463	 0.257167
N	-1.2990760797	-5.6540442884	-1.2857715725	-0.329742
H	 1.1112798118	 1.8464724113	-0.2245627775	 0.160339
H	-0.6154288972	 1.9514642659	-0.60181315	 0.157939
H	-0.0797052922	 1.8863525612	 1.0839230758	 0.161658
H	 0.8089901556	-3.0659476877	-0.4444930626	 0.134552
H	-2.6031681497	-1.6779907271	 0.3985116076	 0.149655
H	-3.076757671	-2.5659796496	-1.0703254069	 0.144843
H	-3.4095968144	-3.2605507428	 0.5273239718	 0.149005
22.0035	75.4462	83.3221	165.0018	175.327	205.3177	253.7413	326.0116	362.3989	376.5815	453.5054	517.7487	568.93	600.8424	688.8168	813.298	860.6621	873.1789	999.4186	1050.0182	1052.1664	1092.7726	1107.3666	1193.1187	1234.5802	1318.6274	1410.7656	1413.3214	1421.1808	1473.3635	1474.7152	1480.0175	1488.2949	2355.9009	2370.0769	3032.8477	3053.3041	3096.4844	3098.7082	3121.9358	3123.7351	3152.5068
CC#CC1OC1(C)C#N	CC#C[C@H]1O[C@]1(C)C#N	
InChI=1S/C7H7NO/c1-3-4-6-7(2,5-8)9-6/h6H,1-2H3	InChI=1S/C7H7NO/c1-3-4-6-7(2,5-8)9-6/h6H,1-2H3/t6-,7-/m1/s1
