16
gdb 15165	8.04034	0.68784	0.66435	2.6155	70.34	-0.2522	0.0317	0.2839	1644.8902	0.12863	-383.675908	-383.666977	-383.666033	-383.711545	30.233	
O	 0.2899861939	 1.0016085842	 0.6447325941	-0.402518
C	-0.0202691368	 0.0250948306	-0.3409575465	-0.192846
C	-1.3906752466	-0.4780162552	-0.2559987533	 0.086699
C	-2.535376821	-0.8466060423	-0.186406497	 0.029179
C	-3.9061420198	-1.3355910356	-0.0791378815	-0.379808
C	-3.981771781	-2.7844031046	 0.3737891839	 0.110618
C	-5.0993590756	-3.6497820501	-0.0179105094	-0.181478
O	-3.8155554944	-3.7770286945	-0.6338933404	-0.223764
H	-0.3888354051	 1.6827266846	 0.5966597123	 0.286157
H	 0.163737644	 0.4097376903	-1.3569774096	 0.117656
H	 0.6907255816	-0.7931761585	-0.1816591747	 0.141884
H	-4.4616108059	-0.7138397663	 0.6365314113	 0.134621
H	-4.4209160325	-1.2448986644	-1.0433127983	 0.136634
H	-3.459114767	-3.0000037867	 1.3060241465	 0.104846
H	-5.3972127965	-4.4763848003	 0.6251958807	 0.118161
H	-5.8869717273	-3.2537262013	-0.6583875881	 0.113959
20.1285	56.9929	98.1934	131.9653	234.8002	303.2797	332.0317	364.2337	384.3508	500.7932	565.0871	776.5116	794.2886	860.4641	938.3411	958.6734	987.4756	1044.093	1095.3259	1107.3911	1155.1726	1160.3269	1169.2871	1214.5957	1245.6478	1293.6248	1319.8099	1359.066	1418.3385	1438.2868	1452.6295	1492.5371	1530.5239	2364.2313	2975.8492	3016.1774	3057.9462	3063.1625	3082.1229	3112.7509	3168.8064	3816.8032
OCC#CCC1CO1	OCC#CC[C@H]1CO1	
InChI=1S/C6H8O2/c7-4-2-1-3-6-5-8-6/h6-7H,3-5H2	InChI=1S/C6H8O2/c7-4-2-1-3-6-5-8-6/h6-7H,3-5H2/t6-/m0/s1
