17
gdb 9206	6.91525	0.85482	0.77154	2.9571	66.79	-0.2507	-0.03	0.2207	1435.7629	0.139937	-401.051908	-401.042511	-401.041567	-401.088477	31.351	
C	 0.0633196645	 1.5319170909	 0.0081896479	-0.378686
C	-0.0555477818	 0.0097264255	 0.0030606725	-0.280368
C	-1.4886184241	-0.4875770579	 0.0146984794	 0.362698
O	-2.4428848536	 0.2589754294	 0.0267499001	-0.305431
C	-1.6824442341	-1.9994758292	 0.0107323643	-0.225155
N	-3.0873660638	-2.3123678055	 0.0232913653	-0.280703
C	-3.5458481493	-3.5863423295	 0.0149230619	 0.154056
O	-2.8363063553	-4.5718605035	-0.0007812425	-0.32997
H	 1.1138288978	 1.8339743541	-0.0008517471	 0.116975
H	-0.4292891024	 1.9651919395	-0.8657231551	 0.135028
H	-0.4120214833	 1.9579271338	 0.8951441532	 0.135005
H	 0.4418222573	-0.4261942496	-0.8744487528	 0.13164
H	 0.4585651554	-0.433407926	 0.8671940406	 0.131607
H	-1.1841155189	-2.4277154147	-0.8703517661	 0.145758
H	-1.1666015117	-2.4343481665	 0.8783986578	 0.145561
H	-3.7132405698	-1.519025854	 0.0329805936	 0.263158
H	-4.6526245769	-3.6317428668	 0.0245728871	 0.078826
17.0851	36.9639	88.4893	124.5065	201.4704	228.3797	302.4998	304.7915	395.642	461.3629	587.9906	637.511	741.4003	768.4543	884.4688	926.1574	986.2456	1017.0362	1036.699	1096.4389	1112.2011	1137.8303	1228.3526	1229.5067	1291.6348	1346.6949	1385.4276	1416.5892	1423.4723	1448.5095	1480.9601	1494.1721	1499.0711	1516.0227	1791.7489	1809.6008	2943.3968	3011.4907	3023.2376	3030.6263	3048.906	3054.8751	3127.5311	3130.5105	3599.367
CCC(=O)CNC=O	CCC(=O)CNC=O	
InChI=1S/C5H9NO2/c1-2-5(8)3-6-4-7/h4H,2-3H2,1H3,(H,6,7)	InChI=1S/C5H9NO2/c1-2-5(8)3-6-4-7/h4H,2-3H2,1H3,(H,6,7)
