19
gdb 73548	2.5758	1.92007	1.57675	2.6105	74.94	-0.2412	0.0686	0.3099	928.5927	0.16082	-422.947193	-422.939908	-422.938963	-422.978448	30.092	
O	 0.2247669627	 1.3873409723	-0.11240935	-0.49333
C	 0.0940286218	-0.0152121066	-0.0457455653	 0.442246
C	 0.6161637487	-0.5718817043	-1.3743499962	-0.155644
O	-0.5532075367	-0.9847032866	-2.1241038774	-0.283046
C	-1.7797297846	-0.6885662947	-1.4230929422	-0.20821
C	-1.3136658555	-0.6804547721	 0.0027236473	 0.273598
C	-1.4833371193	-0.0908785644	 1.4325978649	-0.346659
C	-0.0075628756	-0.6708977776	 1.3713580935	-0.162282
C	-0.6314543429	-1.9090443226	 0.686323695	-0.251486
H	 0.0412811572	 1.7645210076	 0.752542164	 0.282253
H	 1.1345046942	 0.2232306071	-1.9175654152	 0.114967
H	 1.2857101569	-1.4321405805	-1.2842236422	 0.105674
H	-2.1818548388	 0.2896369506	-1.7249388838	 0.101652
H	-2.4972588496	-1.4696776454	-1.6895100172	 0.107388
H	-1.6197858908	 0.9885718891	 1.5214210331	 0.091194
H	-2.1671895631	-0.6177236643	 2.1020787675	 0.102129
H	 0.7285750061	-0.6588062444	 2.1788018151	 0.073849
H	-1.2892134102	-2.5136625783	 1.3144064383	 0.094429
H	 0.0200959694	-2.5375134349	 0.0808040009	 0.111276
139.3356	211.2952	248.529	321.4637	351.3501	431.5339	484.6117	529.0236	562.7733	625.2654	714.9714	775.4141	798.9908	851.1931	878.5015	893.1467	944.1242	957.6035	966.8178	995.8719	1007.7747	1030.1251	1067.7343	1090.1844	1100.8762	1144.1292	1149.07	1172.5317	1196.5333	1202.4998	1216.4343	1232.2109	1267.6613	1299.3341	1344.763	1366.1129	1387.2992	1500.4733	1508.7561	1517.811	1550.2403	2997.4978	3048.0958	3064.6309	3073.7999	3083.6698	3087.0687	3092.3426	3124.9039	3149.7847	3835.7454
OC12COCC11CC2C1	O[C@]12COC[C@@]31C[C@H]2C3	
InChI=1S/C7H10O2/c8-7-4-9-3-6(7)1-5(7)2-6/h5,8H,1-4H2	InChI=1S/C7H10O2/c8-7-4-9-3-6(7)1-5(7)2-6/h5,8H,1-4H2/t5-,6+,7-/m0/s1
