23
gdb 61820	2.84062	0.86766	0.72681	2.9266	87.04	-0.2458	-0.0186	0.2272	1617.8948	0.203041	-388.295479	-388.284847	-388.283903	-388.332022	38.394	
C	-0.533749171	-0.305839034	-1.5048441757	-0.392247
C	-0.8593506586	-0.9233509514	-0.1357697789	-0.011769
C	-1.1068892451	-2.4453379173	-0.2550747586	-0.274853
C	-2.3418271718	-2.7706796368	-1.0613079784	 0.157559
O	-2.3819623832	-3.5059752448	-2.014033844	-0.242055
C	 0.2487182931	-0.6380919574	 0.8628360566	 0.021687
C	 0.3476960165	 0.6964271455	 1.5632745789	-0.313968
C	 0.0339819305	-0.5486480799	 2.3594816937	-0.00432
C	-1.3140889776	-0.7255375918	 3.0259469588	-0.411746
H	 0.3877187828	-0.7350383301	-1.9148500259	 0.119459
H	-1.3321110317	-0.4875170452	-2.2318344917	 0.121393
H	-0.3904923316	 0.7751062339	-1.4190470275	 0.119737
H	-1.7867774741	-0.4624636956	 0.2295918725	 0.073548
H	-0.2480829861	-2.9549547089	-0.7040667666	 0.116057
H	-1.2593152517	-2.8589811899	 0.7516123522	 0.120685
H	-3.2665381149	-2.260055931	-0.6970003081	 0.066211
H	 1.2004224485	-1.0768236475	 0.5669004874	 0.079823
H	 1.3191111148	 1.1665822894	 1.6706113833	 0.110083
H	-0.4671400684	 1.3986231811	 1.4084205573	 0.107302
H	 0.8590653312	-0.9360487844	 2.952422127	 0.083994
H	-2.1284494166	-0.3088203631	 2.4263127659	 0.116534
H	-1.5407778276	-1.7822093867	 3.2084827639	 0.116153
H	-1.3326169775	-0.2146441843	 3.9949303978	 0.120732
52.3989	61.1679	79.673	135.6786	198.4345	213.8802	237.5023	253.2088	321.0868	354.1933	390.2391	431.2794	537.1894	539.621	761.2753	773.1653	814.0177	860.3428	896.7304	918.4897	940.8034	973.7009	1002.2558	1034.0973	1045.8061	1073.8549	1111.6371	1125.799	1149.9999	1154.2525	1186.507	1198.676	1226.2598	1250.2461	1269.049	1324.6363	1355.7105	1394.2428	1410.9704	1420.1121	1428.7784	1434.8911	1459.7981	1492.6768	1494.2959	1495.586	1500.2398	1509.3933	1834.1973	2835.7014	3013.3797	3019.3825	3031.0333	3031.3339	3085.6807	3088.7286	3096.6358	3106.1982	3111.0752	3114.1938	3121.3045	3136.1354	3205.7978
CC(CC=O)C1CC1C	C[C@@H](CC=O)[C@H]1C[C@H]1C	
InChI=1S/C8H14O/c1-6(3-4-9)8-5-7(8)2/h4,6-8H,3,5H2,1-2H3	InChI=1S/C8H14O/c1-6(3-4-9)8-5-7(8)2/h4,6-8H,3,5H2,1-2H3/t6-,7+,8+/m0/s1
