15
gdb 18238	4.90065	1.64439	1.34979	2.8281	64.59	-0.2502	0.0064	0.2566	907.4719	0.119141	-399.786037	-399.778922	-399.777978	-399.817729	25.767	
C	-0.003370475	 1.4089744214	-0.1411849534	-0.332581
N	-0.031497663	-0.0435182003	-0.2013310718	-0.335323
C	-1.1013217795	-0.6513123892	 0.0609342487	 0.482421
O	-2.3037038242	-0.0656248132	 0.3866049681	-0.262652
C	-3.2243704807	-1.033853317	 0.9171942132	-0.112635
C	-2.6104607237	-2.3863382899	 0.6256886234	 0.023627
O	-2.3502165798	-2.5667315806	-0.7621307658	-0.242091
C	-1.2695846346	-2.1310583281	 0.0885013135	-0.091863
H	 0.9608408892	 1.7274701074	 0.2665420402	 0.123616
H	-0.0727005131	 1.8167881882	-1.157112144	 0.132406
H	-0.8125672181	 1.8447352402	 0.4561968046	 0.122645
H	-3.3399593406	-0.8748952787	 1.9963042112	 0.118946
H	-4.1910120932	-0.891083594	 0.4252857641	 0.133354
H	-2.8821129457	-3.2672219574	 1.1993265462	 0.115663
H	-0.4113873479	-2.7862825488	 0.1706616921	 0.124467
87.2665	121.2938	205.9626	240.4154	337.9025	409.9593	461.8534	669.6872	711.4217	764.86	832.644	858.0685	878.1517	941.2794	978.1668	1028.2774	1070.1042	1073.0437	1110.8304	1124.2112	1158.9851	1209.3653	1225.789	1247.6493	1319.0263	1383.2384	1422.2632	1437.9814	1489.9174	1497.2859	1502.3281	1805.8837	3016.9409	3034.208	3076.4832	3092.8794	3096.5544	3167.3495	3207.2612
CN=C1OCC2OC12	CN=C1OC[C@H]2O[C@@H]12	
InChI=1S/C5H7NO2/c1-6-5-4-3(8-4)2-7-5/h3-4H,2H2,1H3	InChI=1S/C5H7NO2/c1-6-5-4-3(8-4)2-7-5/h3-4H,2H2,1H3/t3-,4-/m1/s1
