16
gdb 75126	3.47343	1.32576	1.01889	3.7905	68.84	-0.2381	0.0087	0.2468	1123.5889	0.126104	-471.215579	-471.207426	-471.206482	-471.248722	30.296	
N	 0.0872849255	 1.4107811272	 0.2124165937	-0.54468
C	-0.0078169518	 0.062918646	-0.0211414299	 0.428838
N	-1.1159638076	-0.5424749397	-0.0993002471	-0.325276
C	-1.1962973583	-1.9929997732	-0.1553721244	-0.209811
C	-0.4349147914	-2.7438138363	-1.2289183842	 0.344316
N	-1.0055062134	-3.6063823933	-1.9540213982	-0.471163
O	 0.9351009731	-2.5628831969	-1.2726730073	-0.235982
C	 1.4288257159	-1.2496694767	-1.3435423381	-0.001062
O	 1.2531196046	-0.4812308472	-0.1715327689	-0.250614
H	 0.9963095592	 1.7522138985	 0.4759254068	 0.262592
H	-0.7047454055	 1.8308021335	 0.6713131548	 0.267568
H	-0.8609793661	-2.4132837233	 0.8067190666	 0.125814
H	-2.24238425	-2.2735239104	-0.2812812764	 0.138488
H	-0.3201174238	-4.0563806129	-2.5656037404	 0.221586
H	 2.5065242689	-1.3501659686	-1.4744361337	 0.132473
H	 0.9771637806	-0.7215819966	-2.1934362432	 0.116914
61.5571	95.8938	203.2805	270.0949	314.4875	366.5431	388.7787	420.1633	489.2796	520.989	537.2261	695.6368	730.9861	766.5503	806.3278	857.9575	938.638	979.4382	998.2745	1036.4039	1050.9132	1133.8274	1184.9915	1216.2943	1270.385	1314.5949	1334.2761	1360.0824	1369.0376	1466.334	1475.3756	1504.6108	1615.2732	1749.8374	1782.238	2980.5727	3020.5112	3122.8628	3135.957	3455.3613	3604.0259	3727.4849
NC1=NCC(=N)OCO1	NC1=NC[C]([NH])OCO1	
InChI=1S/C4H7N3O2/c5-3-1-7-4(6)9-2-8-3/h5H,1-2H2,(H2,6,7)	InChI=1S/C4H7N3O2/c5-3-1-7-4(6)9-2-8-3/h5H,1-2H2,(H2,6,7)
