17
gdb 83465	3.15539	1.10331	0.94541	2.7004	69.52	-0.2512	-0.0053	0.2459	1249.4397	0.133793	-458.931289	-458.922637	-458.921693	-458.965129	31.155	
C	 0.0570954965	 1.6712268148	 0.4020596994	-0.423877
C	 0.0192904357	 0.1601414605	 0.3986558341	-0.096112
C	 1.1040680165	-0.7112882405	-0.1866586371	 0.005673
O	 2.3976569146	-0.1279167268	-0.006369302	-0.277446
C	 2.2755486361	-0.2430340107	 1.4376024381	-0.150168
C	 0.8427698634	-0.7445900353	 1.296269736	 0.3099
O	 0.3205489141	-1.7717870879	 2.0822131224	-0.221165
C	-0.5641396634	-1.4173247831	 3.0503681916	 0.154432
O	-1.0465650641	-2.2147149202	 3.7924843095	-0.262676
H	 1.0875872725	 2.0341079811	 0.4125083861	 0.142661
H	-0.4206717425	 2.0648283153	-0.5006584452	 0.129311
H	-0.4682438065	 2.087430963	 1.2679081434	 0.120512
H	-0.9593923138	-0.284380611	 0.220351386	 0.108648
H	 0.9742371138	-1.4397453199	-0.977725017	 0.124837
H	 2.9482496294	-1.0168497889	 1.8220214484	 0.130105
H	 2.4511458614	 0.7062780663	 1.9551024664	 0.113828
H	-0.7737775234	-0.3323572567	 3.0551270599	 0.091538
68.7133	125.5904	142.4502	174.2199	237.6939	247.6011	338.9525	380.0616	414.195	519.5201	597.8583	757.4031	773.8976	794.1753	924.9575	958.5578	991.9864	1001.274	1008.3833	1048.0545	1078.4311	1084.573	1116.8611	1133.1961	1143.8216	1175.7774	1229.8901	1262.263	1293.2536	1346.4328	1409.248	1413.468	1461.3257	1490.3303	1500.8559	1514.4195	1875.0014	2979.1233	3035.8682	3039.6165	3092.1587	3100.6159	3118.5632	3133.0882	3194.8277
CC1C2OCC12OC=O	C[C@H]1[C@H]2OC[C@@]12OC=O	
InChI=1S/C6H8O3/c1-4-5-6(4,2-8-5)9-3-7/h3-5H,2H2,1H3	InChI=1S/C6H8O3/c1-4-5-6(4,2-8-5)9-3-7/h3-5H,2H2,1H3/t4-,5+,6+/m0/s1
