17
gdb 35525	3.17979	1.49768	1.38868	5.8938	71.11	-0.2544	0.0281	0.2825	975.6052	0.139524	-418.011316	-418.004334	-418.00339	-418.042811	27.669	
N	-0.1204612018	-1.1572635321	-0.2713147878	-0.328433
C	-0.06583682	-0.0130140794	-0.122988328	 0.322716
C	-0.0169107379	 1.4464187481	 0.0183924319	-0.177346
N	-0.5886568934	 1.9043615155	 1.3195749341	-0.294937
C	 0.499545527	 2.7034987556	 1.9326236191	-0.03825
C	 1.5834821734	 1.6997016171	 2.349763906	-0.058795
O	 2.1481502197	 1.2820786332	 1.0830823954	-0.269867
C	 1.4407382551	 2.0027919382	 0.0817999363	 0.09985
C	 1.1969260095	 3.37286406	 0.7282286392	-0.241141
H	-0.5488792034	 1.8788670264	-0.8381707803	 0.119876
H	-1.4006267929	 2.4861678175	 1.1490224923	 0.230166
H	 0.1273581035	 3.3378648917	 2.7361040945	 0.085259
H	 2.3689878592	 2.1530678789	 2.9654670516	 0.105004
H	 1.1593109884	 0.834904715	 2.8667857755	 0.127789
H	 1.9900014178	 1.9463156904	-0.8567110107	 0.099998
H	 0.5370825861	 4.0320620367	 0.158864932	 0.10075
H	 2.1320133597	 3.8853391571	 0.9640944689	 0.11736
97.3756	155.5943	258.6451	361.3013	417.9154	457.988	509.3297	569.8481	627.8288	730.3056	788.2667	834.6399	847.2447	869.1637	912.2377	938.7149	964.7792	974.7208	980.5207	1020.5029	1043.2837	1077.7105	1109.5129	1138.873	1191.1384	1218.4749	1237.0357	1267.0368	1284.3085	1312.8022	1316.3156	1366.5858	1380.7573	1438.656	1487.3688	1516.5645	2363.692	3028.9774	3034.0736	3070.3682	3099.3171	3129.8543	3132.1146	3141.5679	3540.76
N#CC1NC2COC1C2	N#C[C@H]1N[C@H]2CO[C@@H]1C2	
InChI=1S/C6H8N2O/c7-2-5-6-1-4(8-5)3-9-6/h4-6,8H,1,3H2	InChI=1S/C6H8N2O/c7-2-5-6-1-4(8-5)3-9-6/h4-6,8H,1,3H2/t4-,5-,6-/m1/s1
