14
gdb 12500	3.53073	2.15587	1.59464	5.0155	53.91	-0.2769	0.0221	0.299	787.7183	0.108458	-456.837307	-456.830542	-456.829598	-456.868933	24.299	
O	 0.1261688642	 0.4014708349	-0.8059545759	-0.342891
C	-0.0582724239	 1.2093724912	 0.0487090181	 0.479062
O	-1.2831754559	 1.7356955794	 0.2748402467	-0.230442
C	-1.442403187	 2.6130026309	 1.3916732117	-0.101864
C	-0.8079907893	 3.9766548731	 1.0995641531	-0.084841
O	 0.4206290653	 3.8431283247	 0.3949695659	-0.214138
C	 1.3328251574	 2.9694300782	 0.9586385485	 0.001717
O	 0.9037498195	 1.59570002	 0.9421427831	-0.270499
H	-2.5199892602	 2.719414706	 1.535608696	 0.133052
H	-1.0129852387	 2.153258254	 2.2857963504	 0.132988
H	-1.4457708527	 4.5686764229	 0.4396017504	 0.136005
H	-0.6666593007	 4.5291271613	 2.0405500633	 0.108725
H	 2.2439698787	 3.0501324709	 0.3593536167	 0.140755
H	 1.5419353432	 3.1911222525	 2.0144967421	 0.11237
67.6913	103.129	276.7664	324.9193	370.4623	446.0058	540.5617	654.2774	675.5122	783.2198	834.3921	869.5304	922.0406	1006.5034	1018.3916	1072.3741	1129.6312	1148.8296	1177.5911	1204.1536	1269.1005	1304.868	1318.4771	1405.8252	1413.9005	1451.879	1493.2543	1500.9744	1522.5144	1892.9339	3002.4543	3009.5973	3067.1174	3095.9025	3105.6847	3127.1678
O=C1OCCOCO1	O=C1OCCOCO1	
InChI=1S/C4H6O4/c5-4-7-2-1-6-3-8-4/h1-3H2	InChI=1S/C4H6O4/c5-4-7-2-1-6-3-8-4/h1-3H2
