19
gdb 40781	3.45774	1.35168	1.19606	2.1235	74.62	-0.2526	0.0905	0.3431	1093.5574	0.160197	-422.991732	-422.984067	-422.983123	-423.024205	29.783	
C	-0.3299742853	 1.3306940428	-0.1997139744	-0.250886
C	 1.1036711041	 1.0399961176	 0.1705876659	-0.274561
C	 0.1177715787	-0.0899781014	 0.0146570269	-0.00421
C	-0.3559039144	-0.8784702834	 1.2159027356	 0.078343
O	-0.3359298316	-0.0517667361	 2.3825348685	-0.270945
C	-1.3615771829	-0.4452943769	 3.286217705	-0.107904
C	-2.4083133793	-1.1322339642	 2.4368459866	 0.022284
O	-2.769805938	-0.3687876759	 1.281181041	-0.244413
C	-1.7842410708	-1.3975377195	 1.1410090492	 0.014845
H	-0.9644018452	 1.762432211	 0.5634887245	 0.131079
H	-0.5519162861	 1.6478714199	-1.2125132222	 0.103999
H	 1.8705168544	 1.1532629799	-0.5877860388	 0.104179
H	 1.4153603142	 1.2894706067	 1.1774877508	 0.127434
H	 0.2280090617	-0.7100845711	-0.8712619139	 0.08005
H	 0.3047153407	-1.7527680436	 1.3619800431	 0.069498
H	-0.9847604774	-1.1493022822	 4.0462086869	 0.096315
H	-1.7258936354	 0.4542486528	 3.7930196325	 0.120109
H	-3.186260167	-1.7468176347	 2.8810462838	 0.103267
H	-2.0430304005	-2.2356046316	 0.4996293489	 0.101516
79.6278	117.1858	182.4741	253.3964	314.5326	378.1598	444.336	569.8738	692.2939	778.4418	784.0723	801.2981	835.8872	843.2528	882.7145	910.7777	931.8165	945.6588	980.7441	1015.3919	1041.2141	1066.7763	1068.451	1082.7051	1099.9793	1119.1334	1133.2844	1152.9224	1199.1698	1229.8006	1233.5404	1259.1451	1307.8052	1326.3424	1363.7244	1369.8572	1410.5186	1445.2234	1460.6331	1502.0942	1506.8631	2933.6252	2976.6113	3073.9055	3136.9009	3140.9163	3148.232	3151.1689	3164.1716	3228.1141	3243.4908
C1CC1C1OCC2OC12	C1CC1[C@H]1OC[C@H]2O[C@@H]12	
InChI=1S/C7H10O2/c1-2-4(1)6-7-5(9-7)3-8-6/h4-7H,1-3H2	InChI=1S/C7H10O2/c1-2-4(1)6-7-5(9-7)3-8-6/h4-7H,1-3H2/t5-,6-,7-/m1/s1
