17
gdb 89210	2.57305	1.58886	1.22054	1.1081	69.29	-0.2498	0.0154	0.2651	1042.494	0.136506	-455.116921	-455.108692	-455.107748	-455.149616	31.662	
N	-0.1382460291	 1.4244687205	-0.2522300495	-0.600244
C	-0.0007371295	 0.0248931324	 0.0013177602	 0.203382
C	 0.523766093	-0.8478613354	-1.1845455391	-0.325999
C	-0.7146911386	-1.8002237531	-1.0483672239	 0.156633
O	-0.5104341017	-3.1711255341	-0.8720911322	-0.434423
C	-1.1713264778	-1.0049736629	 0.1913607863	 0.02405
O	-0.4952897346	-1.5268292314	 1.3833459637	-0.294247
C	 0.4783776293	-0.5310421781	 1.3315471683	 0.377382
N	 1.3691817335	-0.221011379	 2.1545294801	-0.549194
H	-0.3000537754	 1.9369844673	 0.6095933513	 0.241427
H	 0.7175952221	 1.7924804961	-0.6556377026	 0.243498
H	 0.5390910897	-0.2922935987	-2.1247534044	 0.118938
H	 1.4959359514	-1.3168026207	-1.0229605227	 0.118725
H	-1.4046498573	-1.6767697814	-1.8873363074	 0.102554
H	-0.1735529073	-3.2864126234	 0.0260758853	 0.290498
H	-2.2169034839	-0.7756866854	 0.3924955563	 0.095215
H	 1.3609258563	-0.8285501627	 2.9756067403	 0.231804
86.241	141.701	209.8694	251.8212	268.7839	314.1918	400.7728	428.0503	459.5848	575.6166	626.422	683.9362	720.6738	797.4365	813.4401	851.4183	867.6039	894.6533	927.1066	956.261	989.1237	1020.2801	1029.4111	1136.3931	1140.4667	1174.076	1212.472	1225.409	1267.7386	1297.4053	1312.6866	1331.1111	1381.8566	1438.1377	1469.0071	1662.5006	1821.8133	3071.5109	3079.3669	3129.041	3135.3609	3476.0418	3499.3691	3575.8881	3767.1489
NC12CC(O)C1OC2=N	N[C@]12C[C@@H](O)[C@H]1O[C]2[NH]	
InChI=1S/C5H8N2O2/c6-4-5(7)1-2(8)3(5)9-4/h2-3,6,8H,1,7H2	InChI=1S/C5H8N2O2/c6-4-5(7)1-2(8)3(5)9-4/h2-3,6,8H,1,7H2/t2-,3-,5-/m1/s1
