15
gdb 34353	2.9911	1.61738	1.31044	3.6722	69.18	-0.2561	0.004	0.2601	958.6863	0.113865	-416.732477	-416.725597	-416.724653	-416.763748	26.95	
N	-0.0254926913	-1.1678455399	-0.0132679938	-0.337381
C	-0.0173347085	-0.0110249754	 0.0025850305	 0.199324
C	-0.0128065719	 1.4265324682	 0.0338657716	 0.127289
C	-0.374048198	 2.2233653852	-1.2555860763	-0.115471
O	 0.8766184894	 2.9514487255	-1.2091838241	-0.274809
C	 1.2935120556	 2.2794827688	-0.0208232638	 0.080375
C	 0.9067870258	 2.9257530937	 1.3355564822	-0.066342
N	-0.4265630104	 3.5425062934	 1.1604580591	-0.325597
C	-0.3331231194	 2.097099695	 1.4047784469	-0.12423
H	-0.4360285638	 1.5971056785	-2.1506842579	 0.123043
H	-1.2403066099	 2.8818458799	-1.1688800239	 0.134527
H	 2.2903647424	 1.8377001909	-0.0764910817	 0.106909
H	 1.5768574939	 3.2574936497	 2.1183268416	 0.109235
H	-0.67442342	 3.9901211245	 2.0414742675	 0.245114
H	-0.8221888137	 1.6146868919	 2.2407643721	 0.118014
144.1745	156.4585	241.3042	312.0481	423.2386	478.5266	530.0029	551.9477	652.9127	698.4738	802.8493	828.3117	841.8679	903.7898	907.719	942.3707	974.0729	1003.9103	1012.3981	1050.4167	1085.5398	1099.1018	1131.478	1165.8189	1180.0947	1239.0067	1254.7864	1295.0906	1326.8126	1350.2624	1376.5377	1494.573	2349.9243	3052.4482	3100.4366	3124.7337	3195.652	3210.1809	3491.647
N#CC12COC1C1NC21	N#C[C@]12CO[C@H]1[C@H]1N[C@@H]21	
InChI=1S/C6H6N2O/c7-1-6-2-9-5(6)3-4(6)8-3/h3-5,8H,2H2	InChI=1S/C6H6N2O/c7-1-6-2-9-5(6)3-4(6)8-3/h3-5,8H,2H2/t3-,4+,5-,6+/m0/s1
