17
gdb 71788	3.11311	1.96359	1.82156	2.7031	69.85	-0.2224	0.0421	0.2645	840.1626	0.136807	-421.740589	-421.734285	-421.733341	-421.770864	26.628	
C	 0.0398774624	 1.4941672169	-0.0497492084	-0.516224
C	-0.0932083274	 0.0022423577	 0.0003132386	 0.442888
O	 0.4594755602	-0.6914584978	-1.1427024277	-0.302539
C	-0.4755925624	-1.7557358726	-0.9032648988	 0.066636
C	-0.0426803987	-2.5379464306	 0.4184330465	 0.06717
O	 1.1462081576	-1.928978051	 0.9524005711	-0.27039
C	 0.3434678886	-0.7929708538	 1.3198276416	 0.024229
C	-0.978122748	-1.610715484	 1.2489031514	-0.115513
C	-1.402826578	-0.8509477664	-0.0458597116	-0.176781
H	 1.0980877008	 1.7784170943	-0.0425896452	 0.137283
H	-0.4209553809	 1.8976220146	-0.9559904091	 0.130058
H	-0.4420596144	 1.9516292585	 0.8208309776	 0.121573
H	-0.7413851594	-2.318122476	-1.7988973399	 0.079462
H	-0.018109722	-3.6281818054	 0.4175787574	 0.080463
H	 0.7371926735	-0.2328530272	 2.1698560196	 0.076343
H	-1.5937104648	-1.909553316	 2.0934650908	 0.07913
H	-2.388244227	-0.4875268311	-0.3283643139	 0.076213
207.7867	235.2899	271.8063	418.5072	493.0215	567.3813	640.5918	709.7348	729.2358	776.0836	822.5087	835.4819	842.7042	847.7681	856.902	889.5414	916.929	983.9702	989.9227	1006.5095	1059.746	1078.4908	1132.2937	1138.0815	1146.691	1161.1332	1170.0304	1193.2469	1218.5013	1251.5111	1265.5291	1298.8131	1321.0257	1352.9306	1410.4589	1476.404	1489.7527	3032.1695	3096.3625	3101.96	3102.5238	3112.0556	3113.5265	3136.1074	3150.445
CC12OC3C4OC1C4C23	C[C@@]12O[C@H]3[C@H]4O[C@@H]1[C@H]4[C@@H]23	
InChI=1S/C7H8O2/c1-7-3-2-4(5(3)9-7)8-6(2)7/h2-6H,1H3	InChI=1S/C7H8O2/c1-7-3-2-4(5(3)9-7)8-6(2)7/h2-6H,1H3/t2-,3+,4-,5+,6+,7-/m0/s1
