19
gdb 111652	2.34771	1.64191	1.26738	3.9816	76.15	-0.2481	0.0297	0.2778	1078.7829	0.160706	-419.202557	-419.194313	-419.193369	-419.235555	31.181	
C	 0.4252210761	 1.4076407727	-0.1934789908	-0.384662
C	-0.1519310003	 0.0168791967	 0.1051315903	-0.221386
C	 0.5439019686	-0.6477891553	 1.2724611156	 0.005748
C	 0.7077623346	-2.1123699965	 1.4465099723	-0.080247
C	 0.5106815035	-3.0316191509	 0.2537370497	-0.121252
O	 1.4655576489	-2.5815203708	-0.7142555596	-0.244326
C	 2.2579194986	-1.5896857348	-0.1843844814	 0.436198
N	 3.2005872265	-1.0194719174	-0.7968210599	-0.541218
N	 1.8943318496	-1.2852471357	 1.1543978306	-0.150412
H	 1.4800470257	 1.3354617208	-0.4711970358	 0.158231
H	-0.1166842831	 1.8842159079	-1.0155294164	 0.113492
H	 0.3487165102	 2.0616576029	 0.6818102728	 0.115701
H	-1.2167578714	 0.0998189163	 0.3589253674	 0.102082
H	-0.0953803213	-0.6079747938	-0.7914468191	 0.121177
H	 0.4858641987	-0.0698651477	 2.193323042	 0.105805
H	 0.6589902304	-2.5552037216	 2.4366565429	 0.10894
H	 0.7298390325	-4.0714677328	 0.5185988561	 0.125741
H	-0.4884134287	-2.9858620936	-0.1920139512	 0.123688
H	 3.2901768912	-1.4053446066	-1.7363351457	 0.226701
97.5199	109.737	169.1104	190.6029	239.0896	281.3739	447.7255	478.1296	501.8416	685.3328	690.7184	751.9791	780.1039	795.7273	839.8688	862.1104	873.4114	940.078	978.2852	999.3443	1021.0411	1042.2022	1065.3184	1109.4494	1121.3853	1153.8474	1180.5508	1222.9978	1245.6044	1296.016	1315.5589	1338.9109	1380.1241	1401.6425	1414.3104	1447.8013	1484.2626	1500.3219	1510.9025	1523.9876	1773.2613	3026.7237	3039.0101	3040.9688	3076.4082	3080.6243	3106.8983	3124.3641	3127.5934	3155.9662	3501.525
CCC1C2COC(=N)N12	CC[C@H]1[C@H]2CO[C]([NH])N12	
InChI=1S/C6H10N2O/c1-2-4-5-3-9-6(7)8(4)5/h4-5,7H,2-3H2,1H3	InChI=1S/C6H10N2O/c1-2-4-5-3-9-6(7)8(4)5/h4-5,7H,2-3H2,1H3/t4-,5+,8?/m0/s1
