16
gdb 79493	2.32982	1.90335	1.24002	1.2996	76.58	-0.2382	0.0146	0.2528	1004.9103	0.123318	-400.606284	-400.59864	-400.597696	-400.638172	30.043	
O	 0.1560709522	 1.4675609641	 0.0374964879	-0.435232
C	 0.0658955748	 0.0723136889	-0.000443898	 0.056847
C	-0.0155685097	-0.5967930363	 1.3635758352	-0.052763
C	-1.5202459473	-0.2593719079	 1.5782343861	-0.103462
C	-1.7931963139	-1.7355257445	 1.8316643004	-0.192827
N	-0.7189868542	-1.8414942152	 0.7485740596	-0.1978
C	-1.3372871794	-0.5772908963	 0.0483815581	 0.245041
C	-2.3359832053	-0.6648687078	-0.9686416474	 0.082084
C	-3.1678855781	-0.702824395	-1.8376141715	-0.365117
H	 0.0223082639	 1.8049018654	-0.8541815199	 0.293496
H	 0.7559960203	-0.3920715519	-0.716980859	 0.089358
H	 0.7534486634	-0.723670268	 2.1248767667	 0.091404
H	-1.9585910642	 0.6407177927	 2.0145320053	 0.084886
H	-1.4760208964	-2.1596189936	 2.7895181374	 0.104428
H	-2.7597268726	-2.1459973099	 1.5256109045	 0.113578
H	-3.9039098335	-0.7476750146	-2.6020434554	 0.186077
117.3387	164.074	211.6059	270.8279	312.388	397.481	484.187	547.4509	568.0723	576.9422	631.4268	658.1105	729.3341	813.7026	858.8851	872.1688	892.2338	924.3242	954.5678	1000.3619	1045.4829	1077.0619	1110.4771	1132.2388	1147.2522	1168.0409	1197.4203	1225.8563	1263.4181	1278.834	1288.549	1311.4651	1437.9701	1518.341	2227.2436	3028.3725	3045.9981	3086.6587	3108.0234	3128.9332	3499.5386	3817.9046
OC1C2C3CN2C13C#C	O[C@H]1[C@H]2[C@@H]3CN2[C@]13C#C	
InChI=1S/C7H7NO/c1-2-7-4-3-8(7)5(4)6(7)9/h1,4-6,9H,3H2	InChI=1S/C7H7NO/c1-2-7-4-3-8(7)5(4)6(7)9/h1,4-6,9H,3H2/t4-,5+,6-,7-/m0/s1
