20
gdb 6734	5.2789	0.70841	0.67897	1.2012	81.13	-0.2412	0.0371	0.2783	1723.5303	0.174199	-348.978111	-348.967712	-348.966768	-349.015422	35.906	
C	-0.1071710806	 1.5410657995	-0.0330164272	-0.390986
C	-0.055319763	 0.0089319501	-0.0234285023	 0.05034
C	 0.9903818997	-0.5094039416	 0.9695025241	-0.380104
C	-1.4605004349	-0.5678432139	 0.2793859269	-0.347471
C	-1.5478717635	-2.0191966862	 0.1677987995	 0.026722
C	-1.6054638596	-3.2168678911	 0.0556150966	 0.141702
C	-1.6846357387	-4.6675646349	-0.0524824311	-0.217132
O	-1.9082638204	-5.0383941148	-1.409018808	-0.40987
H	 0.8722807555	 1.9653270639	-0.2755313239	 0.111948
H	-0.826423072	 1.914860194	-0.7696138885	 0.111141
H	-0.4021111749	 1.9301430362	 0.9491958927	 0.111769
H	 0.2247170999	-0.334750349	-1.027486077	 0.08711
H	 1.0225152559	-1.6024364504	 0.9738948068	 0.125654
H	 1.988890915	-0.138955401	 0.7161392808	 0.109739
H	 0.7603348857	-0.1745622969	 1.9885934573	 0.107877
H	-1.7623557273	-0.2603267415	 1.2909857944	 0.121638
H	-2.1904322716	-0.1129124922	-0.4030296364	 0.125561
H	-0.7502390118	-5.1106519467	 0.3298997929	 0.112833
H	-2.4968295476	-5.033555173	 0.597227207	 0.113749
H	-1.9564282559	-5.9994641806	-1.4376210144	 0.28778
11.1505	60.445	88.2984	147.0941	224.2298	225.926	251.2702	266.8988	316.5772	347.2623	363.8067	416.8661	478.9557	570.5697	776.7986	818.0842	881.107	931.3584	950.1296	968.9208	1028.2403	1045.3771	1125.4735	1139.8477	1152.9679	1191.5232	1246.3762	1255.6773	1259.163	1309.8397	1367.2408	1369.3545	1400.5395	1420.8106	1459.6363	1464.9182	1488.4048	1493.0914	1503.255	1504.0213	1510.3841	2368.8021	2958.7205	2975.4794	3003.3673	3020.6135	3022.6554	3029.236	3042.2777	3087.3163	3093.8004	3100.8695	3113.5487	3815.9881	11.1533	60.445	88.2985	147.0942	224.2309	225.9262	251.2701	266.899	316.5772	347.2625	363.8069	416.8662	478.9559	570.5698	776.7987	818.0842	881.107	931.3584	950.1296	968.9208	1028.2403	1045.3772	1125.4735	1139.8477	1152.9679	1191.5232	1246.3762	1255.6773	1259.163	1309.8396	1367.2407	1369.3544	1400.5395	1420.8106	1459.6362	1464.9182	1488.4048	1493.0915	1503.255	1504.0214	1510.3843	2368.8021	2958.7205	2975.4794	3003.3673	3020.6135	3022.6554	3029.236	3042.2777	3087.3163	3093.8004	3100.8695	3113.5487	3815.9884
CC(C)CC#CCO	CC(C)CC#CCO	
InChI=1S/C7H12O/c1-7(2)5-3-4-6-8/h7-8H,5-6H2,1-2H3	InChI=1S/C7H12O/c1-7(2)5-3-4-6-8/h7-8H,5-6H2,1-2H3
