16
gdb 8046	3.58485	1.84995	1.52047	1.897	71.49	-0.2397	0.0391	0.2788	875.8919	0.128436	-346.506555	-346.499036	-346.498092	-346.537967	29.077	
C	 0.0035824359	 1.4659152211	 0.0760378019	-0.512139
C	-0.0063142775	-0.0216502812	-0.0632699594	 0.408725
C	 0.6168744979	-0.9496655268	-1.1407455445	-0.270252
C	 0.108365591	-1.8125044933	 0.0331722255	 0.04913
O	 0.6874993856	-0.8347309558	 0.9722894914	-0.335797
C	-1.227097549	-1.0095562704	 0.0351847912	-0.238584
C	-2.033372488	-0.986671423	 1.2336323113	 0.319087
C	-2.7411128657	-0.9560158534	 2.2051779971	-0.431074
H	 1.03170989	 1.8386858591	 0.105782162	 0.136604
H	-0.5112518503	 1.930010268	-0.7709163689	 0.127896
H	-0.5048844333	 1.7610321449	 0.998456504	 0.146448
H	 0.1179637108	-1.032720962	-2.109957325	 0.094883
H	 1.7021865513	-0.8858894414	-1.2189066703	 0.11095
H	 0.2613322345	-2.8695860166	 0.2466029859	 0.103317
H	-1.8342766039	-1.0974087563	-0.8713008784	 0.097512
H	-3.3513624492	-0.9354505027	 3.0738378761	 0.193294
122.0274	157.3362	196.6895	292.5197	308.2683	403.047	494.4506	499.688	626.2471	636.1685	647.9461	657.6289	738.5556	757.4738	873.2578	901.9614	912.4768	962.3691	1024.4028	1036.4081	1085.2848	1102.1678	1123.1395	1157.8848	1197.1855	1223.8414	1240.7086	1326.2841	1374.0187	1412.7978	1476.142	1487.2989	1494.0698	2236.9583	3041.6653	3055.4522	3066.9603	3116.6487	3120.9612	3131.3011	3152.7052	3504.5336
CC12CC(O1)C2C#C	C[C@@]12C[C@@H](O1)[C@H]2C#C	
InChI=1S/C7H8O/c1-3-5-6-4-7(5,2)8-6/h1,5-6H,4H2,2H3	InChI=1S/C7H8O/c1-3-5-6-4-7(5,2)8-6/h1,5-6H,4H2,2H3/t5-,6-,7+/m1/s1
