22
gdb 109875	2.18079	1.54088	1.06648	2.1553	83.31	-0.2196	0.0752	0.2948	1238.0758	0.192604	-404.299462	-404.289573	-404.288628	-404.333898	36.675	
C	 0.0748809548	 1.4166438708	 0.0376163352	-0.238699
O	-0.2193666802	 0.0545471332	-0.1791153169	-0.238535
C	 0.5892840074	-0.5535759138	-1.1463655835	 0.10379
C	 1.9751527219	-1.2132826751	-0.7292973097	-0.036478
C	 2.3684535222	-1.2037231086	 0.7413577673	-0.400412
C	 1.4237561056	-2.5277422855	-1.3011284402	-0.117251
N	 0.223847609	-2.8501457671	-0.4901151581	-0.360454
C	 0.102920078	-1.9161191545	-1.6380860572	 0.304579
C	-0.8656185649	-2.1594298444	-2.7540962169	-0.514971
H	 1.0958426822	 1.5694029329	 0.4158344882	 0.108902
H	-0.0412367105	 2.0078292833	-0.885060624	 0.100568
H	-0.6327478242	 1.7862674975	 0.7838319885	 0.126813
H	 0.7389808574	 0.1247858749	-2.0008694157	 0.05855
H	 2.7814784842	-0.8162581666	-1.3538868433	 0.064129
H	 1.5453631995	-1.5714694188	 1.3560915671	 0.149508
H	 3.240984949	-1.8448692184	 0.9104881564	 0.10491
H	 2.6310271531	-0.1953582173	 1.0775951039	 0.105933
H	 1.9686173966	-3.3057945279	-1.8231953394	 0.086178
H	-0.1252478059	-3.7512183991	-0.8174982243	 0.221326
H	-1.8902515049	-1.9271047048	-2.4418922498	 0.136147
H	-0.6319109052	-1.535434888	-3.623651026	 0.120925
H	-0.842288735	-3.2064515228	-3.0764290615	 0.114543
97.9152	116.1551	155.888	183.2793	195.5426	217.1252	224.8485	242.989	337.3922	348.8765	487.8941	538.1582	564.1091	679.1156	713.4428	794.4205	853.6305	876.0389	925.3465	961.2305	990.5562	1010.7696	1045.6279	1075.2607	1092.4801	1111.8413	1128.3435	1144.9783	1166.0253	1181.8856	1216.6486	1231.1878	1255.1722	1303.6257	1336.772	1365.9976	1380.3712	1406.3663	1412.6519	1456.2949	1481.2898	1482.9977	1486.3424	1492.2903	1499.7664	1501.2229	1509.3755	2970.3851	2979.0626	3023.2364	3026.7014	3035.2141	3057.0981	3087.9997	3092.2823	3092.4817	3113.235	3142.408	3180.8901	3462.7275
COC1C(C)C2NC12C	CO[C@H]1[C@@H](C)[C@H]2N[C@@]12C	
InChI=1S/C7H13NO/c1-4-5-7(2,8-5)6(4)9-3/h4-6,8H,1-3H3	InChI=1S/C7H13NO/c1-4-5-7(2,8-5)6(4)9-3/h4-6,8H,1-3H3/t4-,5+,6-,7+/m0/s1
