18
gdb 74010	2.21009	1.84128	1.0814	3.524	80.78	-0.2012	0.0005	0.2017	1116.2078	0.148646	-401.971208	-401.96313	-401.962185	-402.003733	30.962	
C	-0.0964286667	 1.423666983	-0.1260978826	-0.498154
C	-0.0369926006	-0.0454456055	 0.121644718	 0.273642
C	-1.0012599645	-0.9238717725	 0.4432815527	 0.039441
C	-2.4072186519	-1.2043360018	-0.050065952	-0.290184
C	-1.7587637149	-2.4383462437	-0.7755345166	-0.227278
C	-0.507061849	-2.3243941436	 0.1769312682	-0.172737
C	 0.952113328	-2.1374744535	-0.2469466203	 0.390246
O	 1.8052541917	-2.9530234862	-0.5089650063	-0.37206
N	 1.1532608833	-0.7605489298	-0.1420161338	-0.362929
H	 0.5606874562	 1.9746803203	 0.558563248	 0.135919
H	 0.2191579329	 1.6715200236	-1.1470321732	 0.132654
H	-1.1139276331	 1.7909729007	 0.0244380397	 0.140352
H	-3.1046442192	-1.5154865542	 0.7343453298	 0.111182
H	-2.8904690951	-0.4491130404	-0.674767856	 0.104527
H	-2.3009640175	-3.3852031953	-0.7297649093	 0.112456
H	-1.5055259585	-2.2096230382	-1.8122584416	 0.121002
H	-0.5581205639	-3.0525133142	 0.9911583303	 0.108162
H	 2.0628220026	-0.3489531489	-0.2788954651	 0.253758
120.7635	151.4989	168.794	220.3645	252.7817	312.0267	411.4665	495.7868	569.3488	605.8186	617.1199	684.2267	709.6353	752.5388	815.9879	860.8421	898.4676	970.979	986.1521	1031.3103	1049.7163	1068.259	1119.7106	1127.7308	1172.4533	1204.2909	1214.1724	1244.6584	1257.6001	1276.2149	1289.3347	1401.0411	1416.725	1474.4189	1475.0217	1489.8343	1494.4325	1722.8562	1829.0668	3020.2935	3046.5087	3067.7958	3069.4523	3074.4409	3098.8754	3126.7378	3135.7344	3644.7264
CC1=C2CCC2C(=O)N1	C[C]1[C]2CC[C@H]2C(=O)N1	
InChI=1S/C7H9NO/c1-4-5-2-3-6(5)7(9)8-4/h6H,2-3H2,1H3,(H,8,9)	InChI=1S/C7H9NO/c1-4-5-2-3-6(5)7(9)8-4/h6H,2-3H2,1H3,(H,8,9)/t6-/m1/s1
