16
gdb 47797	2.57212	1.8028	1.20161	3.4175	67.13	-0.2706	-0.0103	0.2603	1004.5575	0.125822	-474.997663	-474.990311	-474.989367	-475.0299	27.724	
N	-0.0099031117	 1.1518323921	 0.7589141441	-0.489256
C	 0.0807158489	 0.0765088774	 0.0949995764	 0.352642
O	 1.2853909442	-0.5045756982	-0.1815071479	-0.241661
C	 1.5530690578	-0.9853690755	-1.4944386136	 0.002836
O	 0.960637587	-2.2021692344	-1.7938103865	-0.206437
C	-0.3465272364	-2.1241295128	-2.3204939837	-0.141451
C	-1.3931930522	-1.6058741706	-1.3605467884	 0.032127
O	-1.3113669461	-2.0166075192	-0.0080487311	-0.233198
C	-1.190426312	-0.6122112607	-0.2867499642	 0.00525
H	 0.9248193356	 1.5128450657	 0.9620224596	 0.226997
H	 1.2714781826	-0.2145215425	-2.2293241379	 0.095312
H	 2.6323195941	-1.1440794552	-1.5040544872	 0.132808
H	-0.3682654153	-1.5062897689	-3.2336651522	 0.105914
H	-0.6100756041	-3.1473467045	-2.6069047192	 0.133894
H	-2.3992304067	-1.6372891814	-1.7898707285	 0.101254
H	-2.0485015055	-0.0169824912	 0.0175495304	 0.122968
66.411	155.1474	236.3909	283.8784	342.4092	392.1805	442.7977	487.9447	664.2581	676.0813	728.0542	762.2267	821.3935	908.5928	941.2806	949.6909	963.2744	1018.9286	1050.321	1106.0886	1114.5032	1155.0999	1176.7956	1212.7627	1274.3116	1304.0491	1345.9758	1349.9985	1385.5598	1413.0529	1454.7415	1482.2768	1483.8857	1505.9572	1730.1728	2974.5565	2981.0017	3066.674	3082.4482	3125.271	3146.6393	3466.4102
N=C1OCOCC2OC12	[NH][C]1OCOC[C@H]2O[C@@H]12	
InChI=1S/C5H7NO3/c6-5-4-3(9-4)1-7-2-8-5/h3-4,6H,1-2H2	InChI=1S/C5H7NO3/c6-5-4-3(9-4)1-7-2-8-5/h3-4,6H,1-2H2/t3-,4-/m1/s1
