18
gdb 41305	3.7818	1.71658	1.63232	1.6052	74.7	-0.2314	0.0515	0.2829	880.7031	0.150966	-401.825771	-401.819812	-401.818868	-401.855685	25.978	
C	-0.0530405136	 1.5083294331	-0.0838401313	-0.189806
C	 1.4612505409	 1.475539293	-0.0793423017	-0.062343
C	 1.369660123	 0.2797422765	 0.8898794779	-0.040504
C	 2.4311241686	-0.4782826653	 0.1365411847	 0.118038
O	 3.7417764585	 0.108781569	-0.1339428306	-0.308099
C	 3.3485464778	 0.3813589036	-1.5161219462	-0.198312
C	 1.8871993177	 0.2857368262	-1.0865381672	 0.245564
C	 0.5327430984	-0.3661140904	-1.2904874108	-0.273363
N	-0.0008068165	 0.0002732469	 0.0887521825	-0.169473
H	-0.4670917784	 1.9708792351	 0.817119873	 0.11007
H	-0.6106612373	 1.8517630476	-0.9609887314	 0.098765
H	 2.1347367353	 2.3245115516	 0.0244918713	 0.077626
H	 1.1840026137	 0.3194813574	 1.9632125619	 0.079914
H	 2.4868231945	-1.5702261387	 0.1892219316	 0.078839
H	 3.721475005	 1.3493064976	-1.8647875683	 0.111892
H	 3.6907896991	-0.4171033352	-2.1883622974	 0.106648
H	-0.1328073741	 0.0502668437	-2.0495734356	 0.106043
H	 0.5904645574	-1.4491492317	-1.4205511225	 0.108502
262.9374	295.8692	354.2168	429.3769	524.9138	555.4865	684.4742	699.973	736.6273	759.2926	808.6751	852.9435	871.9904	915.0872	933.1032	942.1531	966.0312	995.5226	1014.1013	1025.205	1037.363	1091.0983	1113.292	1135.8549	1150.6575	1164.0264	1188.2583	1211.9897	1213.201	1237.1738	1249.2065	1281.7961	1300.8471	1307.3626	1335.0851	1357.3898	1504.6409	1512.2628	1532.8223	3009.8693	3042.7185	3055.7882	3068.1494	3081.7299	3097.0623	3113.4249	3117.1139	3128.3932
C1C2C3C4OCC24CN13	C1[C@H]2[C@@H]3[C@@H]4OC[C@]24CN13	
InChI=1S/C7H9NO/c1-4-5-6-7(4,3-9-6)2-8(1)5/h4-6H,1-3H2	InChI=1S/C7H9NO/c1-4-5-6-7(4,3-9-6)2-8(1)5/h4-6H,1-3H2/t4-,5+,6-,7+/m0/s1
