18
gdb 40019	3.31144	1.46836	1.24198	1.5618	77.99	-0.2284	-0.0069	0.2215	1038.0654	0.149637	-401.914825	-401.907617	-401.906673	-401.946458	29.124	
C	-0.6886252767	 1.2213674289	 0.0099790515	-0.265371
N	 0.7660284694	 1.4018138566	 0.0243010375	-0.366162
C	 0.2142548459	 0.0300939914	-0.0085918632	 0.323
C	 0.4700268356	-0.7639456705	 1.2701161296	-0.318889
C	-0.0602030982	-2.1780253852	 1.2129699034	 0.042447
O	-1.3583455754	-2.3797000816	 0.6649288152	-0.258593
C	-0.2099460946	-2.8353059988	-0.096757208	-0.009946
C	 0.1206403257	-2.0661560184	-1.3198494843	-0.068049
C	 0.2962745925	-0.7428149235	-1.2707927346	-0.146843
H	-1.1965037217	 1.4817643748	 0.9353203616	 0.122601
H	-1.2428126228	 1.4590763452	-0.8943928709	 0.11448
H	 1.0969009688	 1.6694901659	-0.90022337	 0.228814
H	 1.5535802395	-0.8197634812	 1.4372968436	 0.117435
H	 0.0500323953	-0.230896848	 2.1292967784	 0.115657
H	 0.1660095986	-2.7974393532	 2.0822877121	 0.091454
H	-0.1341589343	-3.9188737589	-0.15628909	 0.092037
H	 0.1908034754	-2.6030641873	-2.2601963089	 0.095233
H	 0.4925011668	-0.1786305062	-2.180664273	 0.090697
76.7307	215.8468	323.6373	340.4009	355.9185	359.6212	463.7855	556.7714	635.2926	680.6797	728.539	778.1494	811.9059	834.428	911.8031	918.0318	930.2957	961.7729	975.1653	979.0605	995.7504	1030.6386	1073.8725	1086.1281	1133.0914	1143.7636	1184.3145	1220.4132	1264.5859	1280.2791	1319.1744	1332.5155	1369.0986	1385.4933	1434.5069	1462.0662	1477.2394	1508.9958	1698.5208	3029.9767	3075.5498	3097.0133	3102.4931	3134.5647	3141.3156	3185.9017	3189.5605	3488.4987
C1NC11CC2OC2C=C1	C1N[C@]21C[C@H]1O[C@H]1C=C2	
InChI=1S/C7H9NO/c1-2-7(4-8-7)3-6-5(1)9-6/h1-2,5-6,8H,3-4H2	InChI=1S/C7H9NO/c1-2-7(4-8-7)3-6-5(1)9-6/h1-2,5-6,8H,3-4H2/t5-,6+,7-/m0/s1
