19
gdb 8489	3.02627	1.94914	1.52373	1.8014	72.34	-0.202	0.0773	0.2793	920.6884	0.163712	-365.014934	-365.00638	-365.005435	-365.04715	32.585	
C	-0.1857500981	 1.4584892544	 0.0545219812	-0.332012
N	 0.099062264	 0.036546687	 0.0100757701	-0.106636
C	 1.1695534526	-0.4459867175	-0.9109625997	-0.238418
C	 1.8437942837	-1.1435341297	 0.2731584755	 0.32559
O	 2.3453632547	-2.4312077397	 0.2511062259	-0.463565
C	 2.1951634592	-0.1248717467	 1.3311670549	-0.405692
C	 0.7532946245	-0.5934049929	 1.1648277658	 0.305841
C	-0.0566063968	-1.2086298853	 2.2654385452	-0.480343
H	 0.6948267519	 2.095371148	 0.2550941648	 0.090911
H	-0.6173618083	 1.7733888721	-0.9012351202	 0.119208
H	-0.9279451267	 1.6564503495	 0.8349198061	 0.120366
H	 0.7782814182	-1.1347029937	-1.6671251836	 0.109793
H	 1.7543835422	 0.3432675925	-1.4042882295	 0.086163
H	 3.2954960968	-2.3844038598	 0.0995613557	 0.286311
H	 2.6977798066	-0.5429811404	 2.1984033066	 0.111269
H	 2.5096474547	 0.8815789722	 1.0648930238	 0.101528
H	-0.4904229	-0.4439746327	 2.9207092208	 0.117128
H	-0.8753219479	-1.8033466126	 1.8491490577	 0.127974
H	 0.5687997087	-1.8602139949	 2.8827938589	 0.124583
156.7711	165.9032	186.695	204.4329	252.0646	279.2202	302.1416	392.0649	420.699	461.907	539.1807	591.041	684.9671	743.719	814.5628	848.4095	942.5043	961.1164	972.5337	1014.5643	1038.9634	1097.7422	1112.7003	1154.2459	1170.4188	1187.5096	1224.3767	1246.8788	1276.2657	1306.9118	1342.641	1407.6321	1426.9975	1451.1319	1476.8389	1489.1819	1490.4804	1500.0313	1502.1856	1523.1497	2941.7463	2999.7245	3028.5862	3058.0498	3067.4114	3091.0893	3098.9559	3105.358	3115.3631	3197.5571	3796.6096
CN1CC2(O)CC12C	CN1C[C@@]2(O)C[C@@]12C	
InChI=1S/C6H11NO/c1-5-3-6(5,8)4-7(5)2/h8H,3-4H2,1-2H3	InChI=1S/C6H11NO/c1-5-3-6(5,8)4-7(5)2/h8H,3-4H2,1-2H3/t5-,6+/m1/s1
