14
gdb 132592	3.18321	1.39016	0.9734	1.2495	68.5	-0.2412	-0.0448	0.1964	1110.369	0.100923	-478.041304	-478.03376	-478.032815	-478.073544	28.187	
C	-0.0395593265	 1.5313683541	-0.0390233259	-0.476284
C	-0.0069084863	 0.0305747743	-0.0293587574	 0.245447
N	-0.0894954233	-0.6386584501	-1.1743207226	-0.272797
C	-0.0588783302	-1.9752880735	-1.1486402337	-0.167748
C	 0.0576732506	-2.6386451405	 0.0621869391	 0.297622
F	 0.0885325126	-3.9644324004	 0.0960527636	-0.063186
N	 0.1425103759	-2.0174439001	 1.2227437819	-0.389564
C	 0.1104585505	-0.6942159415	 1.1768942419	 0.377914
O	 0.1940495984	-0.0143460892	 2.335251492	-0.405537
H	 0.8715066516	 1.9492462866	 0.4030337861	 0.139525
H	-0.1351916764	 1.8843930354	-1.0664716743	 0.141427
H	-0.8787125511	 1.9121323035	 0.5533286027	 0.139523
H	-0.1266832475	-2.5162779995	-2.0856084067	 0.127593
H	 0.2677813218	-0.6706533492	 3.0424332632	 0.306063
106.8988	123.796	245.026	280.4279	347.4329	354.9969	487.6665	497.4066	544.5215	548.4664	585.56	694.2677	739.8313	780.8491	794.1015	891.4596	988.5612	1041.8988	1060.3642	1170.486	1247.8445	1273.8962	1315.8851	1348.4	1407.4152	1462.1843	1477.4121	1481.0646	1518.8672	1609.6379	1634.9121	3038.5558	3090.4387	3148.7414	3195.1616	3765.5799
CC1=NC=C(F)N=C1O	Cc1ncc(F)nc1O	
InChI=1S/C5H5FN2O/c1-3-5(9)8-4(6)2-7-3/h2H,1H3,(H,8,9)	InChI=1S/C5H5FN2O/c1-3-5(9)8-4(6)2-7-3/h2H,1H3,(H,8,9)
