21
gdb 81220	2.47015	1.84083	1.43533	1.651	82.1	-0.2343	0.0731	0.3074	1015.8914	0.184428	-387.028476	-387.021039	-387.020095	-387.059807	31.235	
C	-0.1174862362	 1.5615829937	 0.0172218494	-0.441675
C	 0.042195364	 0.0461640783	-0.0086617991	 0.018161
C	 1.1894476078	-0.6095936304	-0.811785532	 0.090019
C	 2.1544297886	-0.2281544562	 0.3776110608	-0.363398
C	 0.8637496007	-0.6102506525	 1.1612102986	 0.282133
C	 0.1650689711	-0.9522694385	 2.499937011	-0.355784
C	-0.4688822875	-2.1886669983	 1.7428986296	-0.294814
C	 0.752039976	-2.0688460171	 0.7710205771	 0.148288
O	 0.8660532851	-2.0198299893	-0.6604011381	-0.30354
H	 0.8117662174	 2.0972946535	 0.2254774242	 0.118713
H	-0.5020354888	 1.923462658	-0.9426735361	 0.118653
H	-0.8411941708	 1.8523819826	 0.7868508681	 0.119092
H	-0.9244059262	-0.4150567988	-0.2292584425	 0.073452
H	 1.4169525165	-0.3932656227	-1.8550165612	 0.078988
H	 3.0332660542	-0.8569867374	 0.5384379578	 0.100947
H	 2.4393943162	 0.8231842773	 0.3555823618	 0.104387
H	 0.856388397	-1.27439319	 3.28343963	 0.110873
H	-0.5169177244	-0.2062899124	 2.9134877676	 0.104985
H	-0.5588499248	-3.1233208595	 2.2995849062	 0.100155
H	-1.4304835277	-1.9446680869	 1.2911894575	 0.117737
H	 1.565941442	-2.6896845732	 1.1672724692	 0.072626
171.0205	191.5528	232.5686	318.1337	348.0783	411.811	470.2728	524.6932	554.8348	643.6864	679.6376	775.5245	795.8662	809.1642	827.7841	881.9876	891.7868	917.8305	941.5505	980.9353	1027.7144	1038.1952	1052.3915	1084.8836	1093.7503	1106.3788	1136.5939	1159.6309	1175.2668	1200.2951	1208.9803	1219.7374	1239.356	1246.0533	1267.059	1278.3201	1306.0224	1385.3733	1393.2933	1413.8006	1480.1638	1489.473	1496.1698	1496.5211	1512.3471	3011.8458	3033.4969	3062.4247	3063.8931	3075.9809	3084.6594	3088.8181	3114.5324	3116.8835	3132.5077	3145.5794	3147.3556
CC1C2CC11CCC1O2	C[C@H]1[C@H]2C[C@]31CC[C@H]3O2	
InChI=1S/C8H12O/c1-5-6-4-8(5)3-2-7(8)9-6/h5-7H,2-4H2,1H3	InChI=1S/C8H12O/c1-5-6-4-8(5)3-2-7(8)9-6/h5-7H,2-4H2,1H3/t5-,6+,7+,8-/m0/s1
