16
gdb 24091	7.22599	0.77547	0.7034	2.7027	78.33	-0.1956	0.0326	0.2282	1523.526	0.123794	-400.727328	-400.718817	-400.717873	-400.761016	31.564	
C	 0.0144332977	-1.1974997695	-0.0056739059	-0.393361
C	 0.0397832466	 0.0027352031	 0.0018678476	 0.286184
C	 0.0267646396	 1.457993686	 0.0115596475	-0.247923
O	 1.3571406119	 1.9489301074	-0.0006920858	-0.266469
C	 1.4610257276	 3.3064676917	 0.006101836	 0.368796
C	 0.4626464694	 4.2605473869	 0.0242238942	-0.202686
N	 1.0927978479	 5.4895378922	 0.0238056536	-0.261482
C	 2.4487610939	 5.3223748153	 0.0059891302	-0.056997
C	 2.7164792637	 3.9734910434	-0.0054383182	-0.279103
H	 0.0009674499	-2.2593112232	-0.0124399335	 0.199926
H	-0.52203205	 1.8370185542	-0.8654285754	 0.127386
H	-0.501453956	 1.8253428854	 0.905987469	 0.12738
H	-0.6102387212	 4.1829983677	 0.0370915274	 0.115195
H	 0.6180038634	 6.3737271876	 0.0348958733	 0.261016
H	 3.1148051657	 6.1699452314	 0.0028020464	 0.120378
H	 3.6852979898	 3.5013204103	-0.0202893364	 0.10176
53.6663	103.0331	112.1979	233.1204	309.628	345.9603	396.6009	413.0416	502.784	607.9252	619.2248	626.6651	677.2718	679.696	740.2833	743.6867	817.663	896.6174	979.8712	986.5817	1037.1239	1057.0311	1085.2133	1105.304	1172.3675	1248.0168	1280.5155	1313.2496	1394.2551	1432.5858	1479.7591	1501.4829	1534.8638	1616.3616	2250.7599	2969.3932	2993.0415	3258.172	3276.5216	3283.2435	3506.5882	3697.9534
C#CCOC1=CNC=C1	C#CCOc1c[nH]cc1	
InChI=1S/C7H7NO/c1-2-5-9-7-3-4-8-6-7/h1,3-4,6,8H,5H2	InChI=1S/C7H7NO/c1-2-5-9-7-3-4-8-6-7/h1,3-4,6,8H,5H2
