19
gdb 102886	2.93499	0.78473	0.64108	4.383	83.26	-0.2488	0.0109	0.2597	1707.8584	0.156995	-382.034827	-382.024359	-382.023414	-382.07124	36.862	
C	 0.6255045411	-0.3510134746	 1.5009924173	-0.385493
C	 0.0035908987	-0.1055513394	 0.1242710746	-0.188347
C	-1.4398349155	-0.656579704	-0.0088695213	-0.136647
N	-2.1174570992	-0.345615644	-1.2768678139	-0.29776
C	-2.350902309	 1.0709475286	-1.5200874222	-0.277292
C	-3.1777864356	 1.2586853094	-2.7170717275	 0.265311
N	-3.8061524029	 1.4178653233	-3.6728494462	-0.296405
C	-1.4620429729	-2.1089252966	 0.1784882787	 0.314912
C	-1.4420783752	-3.3030656481	 0.3099099025	-0.421108
H	 1.6356834007	 0.0652224088	 1.5509533824	 0.119018
H	 0.0320864006	 0.1201858042	 2.2925264677	 0.117038
H	 0.6860593296	-1.4204833712	 1.7196672193	 0.137393
H	-0.0182268069	 0.9715836124	-0.0767982402	 0.099772
H	 0.6200683334	-0.5646319173	-0.6580985424	 0.10549
H	-2.0494849609	-0.1991194139	 0.7852114009	 0.112561
H	-1.6223496859	-0.7699072788	-2.054133946	 0.235354
H	-2.8934449661	 1.4860678126	-0.6610494805	 0.156714
H	-1.4456954118	 1.6894441754	-1.6451074422	 0.138066
H	-1.4460045824	-4.3580788967	 0.4332913291	 0.201425
48.975	81.8816	91.9409	114.8147	167.4446	209.7436	241.6125	271.218	307.2876	390.0204	451.7084	472.8468	533.0759	623.8548	634.3365	663.495	713.3808	772.3867	865.5092	939.294	970.7132	985.8599	1038.6812	1083.0514	1110.8918	1133.5317	1146.7691	1242.5066	1278.3158	1315.9581	1352.3144	1366.7293	1395.7458	1412.8924	1481.5424	1490.2829	1493.7137	1499.7096	1506.906	2239.7349	2368.7915	2958.1738	2993.5729	3031.0682	3037.8933	3047.1017	3070.7411	3104.9996	3122.8615	3503.0414	3533.8938
CCC(NCC#N)C#C	CC[C@@H](NCC#N)C#C	
InChI=1S/C7H10N2/c1-3-7(4-2)9-6-5-8/h1,7,9H,4,6H2,2H3	InChI=1S/C7H10N2/c1-3-7(4-2)9-6-5-8/h1,7,9H,4,6H2,2H3/t7-/m0/s1
