19
gdb 53160	4.71149	0.82025	0.76214	1.7493	86.71	-0.236	0.0465	0.2825	1569.7161	0.157111	-385.79514	-385.785777	-385.784833	-385.831223	33.668	
C	-1.014977879	 1.4235713146	-0.8669059297	-0.5018
C	-0.7732917907	-0.0001206071	-0.6850930263	 0.155897
C	-0.5843876021	-1.1782744559	-0.5217744517	 0.01751
C	-0.3242471487	-2.5919268292	-0.3663990576	-0.217151
C	-0.1734842977	-3.1781576646	 1.0750535667	 0.033127
O	-1.6140289129	-2.937081812	 1.297548313	-0.303806
C	-1.5182207749	-3.548369297	-0.0440697056	 0.033219
C	-0.5392717893	-4.5990238355	 0.5558555814	 0.035519
C	 0.3888431736	-5.4742690731	-0.2700551281	-0.445178
H	-0.0803993576	 1.9688303257	-1.0402270418	 0.14548
H	-1.6694272109	 1.6096588216	-1.7259512532	 0.146626
H	-1.4955128093	 1.8602333823	 0.0155725704	 0.150704
H	 0.3922214503	-2.9552633054	-1.1070173384	 0.094214
H	 0.516741735	-2.8719588757	 1.8619906848	 0.096589
H	-2.4446453829	-3.6872237454	-0.6025464899	 0.096567
H	-1.0376191905	-5.16973975	 1.3434567138	 0.087321
H	 0.9055621488	-4.9346409861	-1.0675334474	 0.123511
H	 1.1517011652	-5.9277691076	 0.371726048	 0.12582
H	-0.1745244364	-6.2911896397	-0.7334895385	 0.125831
12.8019	86.1518	92.1365	164.8678	238.0519	274.8204	292.5149	313.8869	432.438	499.1911	526.977	593.4177	756.866	775.4086	802.8055	867.6169	867.9965	883.3609	931.7599	1029.9882	1051.5006	1053.1932	1054.3771	1101.1874	1106.5399	1119.1497	1153.459	1171.6082	1204.6489	1222.8465	1260.7036	1263.4469	1377.3643	1391.9403	1414.3446	1417.1454	1477.8482	1478.5599	1493.0818	1499.7887	2371.6569	3025.3383	3036.7468	3074.8008	3082.8006	3084.3761	3087.3109	3096.8	3111.5274	3117.3583	3119.0382
CC#CC1C2OC1C2C	CC#C[C@H]1[C@H]2O[C@@H]1[C@H]2C	
InChI=1S/C8H10O/c1-3-4-6-7-5(2)8(6)9-7/h5-8H,1-2H3	InChI=1S/C8H10O/c1-3-4-6-7-5(2)8(6)9-7/h5-8H,1-2H3/t5-,6-,7-,8+
