13
gdb 129185	3.35965	1.69828	1.13682	5.499	68.38	-0.2514	-0.0665	0.1848	969.3199	0.091042	-448.898976	-448.892099	-448.891155	-448.930262	25.817	
N	-0.0700961669	 1.3438024865	 0.0692167351	-0.538641
C	-0.0271010609	 0.0741006182	 0.0048246309	 0.301111
N	 1.0543887065	-0.8110946305	-0.083416641	-0.372067
C	 0.7164727444	-2.2424852725	-0.005474016	-0.286177
C	-0.7727908505	-2.1349962436	-0.0046327939	 0.241841
C	-1.1797034481	-0.8428494045	-0.0024040869	 0.355237
O	-2.4864004327	-0.7662370899	-0.003821833	-0.236857
N	-2.9217771031	-2.2030207388	-0.0086162642	-0.022382
N	-1.8901574829	-2.9149283144	-0.0114362841	-0.197254
H	 0.8646901146	 1.7548448724	 0.0664702703	 0.215257
H	 1.9826082227	-0.4939420419	 0.1424297688	 0.252649
H	 1.1134774373	-2.7951586172	-0.8658584907	 0.145593
H	 1.1120081396	-2.7080951039	 0.9070800746	 0.141691
139.5654	192.5968	255.1878	295.1592	333.6669	402.3839	547.1877	596.9475	632.4632	646.3503	674.0626	773.7045	790.1476	851.1321	993.2918	1007.5273	1030.2558	1096.0277	1148.9312	1177.9357	1232.7224	1334.1912	1375.5212	1430.0905	1461.685	1495.1082	1512.0263	1602.7347	1747.4591	3015.6505	3047.9555	3469.0457	3654.0595
N=C1NCC2=C1ON=N2	[NH][C]1NCc2c1onn2	
InChI=1S/C4H4N4O/c5-4-3-2(1-6-4)7-8-9-3/h1H2,(H2,5,6)	InChI=1S/C4H4N4O/c5-4-3-2(1-6-4)7-8-9-3/h1H2,(H2,5,6)
