19
gdb 71032	3.91723	1.60169	1.35167	1.9199	78.97	-0.2242	0.0826	0.3068	992.0902	0.159904	-385.795815	-385.788745	-385.787801	-385.826746	29.535	
C	 0.0137699591	 1.4600091156	-0.1954699206	-0.525233
C	 0.0100752111	-0.0147103088	 0.0420544528	 0.391218
O	 0.6711635395	-0.8744144285	-1.0201130421	-0.426403
C	 0.1921419644	-1.7904718343	-0.0094498014	 0.482411
C	 0.1027170789	-3.2450007431	 0.3802036747	-0.352247
C	-0.6705940755	-2.9648611917	 1.736297267	-0.217804
C	-0.8109687578	-1.4028164944	 1.7458284509	-0.10608
C	 0.5424078196	-0.8923610241	 1.2068189725	-0.144697
C	-1.1333531494	-1.0373174519	 0.281179252	-0.144719
H	 1.0381438131	 1.8380646039	-0.2660456725	 0.13485
H	-0.5089608861	 1.7033223009	-1.1254161014	 0.134912
H	-0.490062382	 1.9705435391	 0.6314982381	 0.127299
H	-0.4779670057	-3.8553624072	-0.3161472289	 0.110835
H	 1.0733432551	-3.7211772531	 0.5407683619	 0.110835
H	-1.6468389371	-3.4584266742	 1.7495387463	 0.105367
H	-0.1054419057	-3.3250999421	 2.6009747802	 0.105368
H	-1.3214707941	-0.9582319446	 2.600409846	 0.064744
H	 1.5195677047	-0.840240184	 1.6876684312	 0.074669
H	-2.056660162	-1.1496419576	-0.2877315967	 0.074675
199.6792	217.9038	234.0022	250.1652	408.769	464.1752	536.5834	571.5709	673.4385	706.9657	733.8508	739.556	810.896	829.4974	857.6634	857.8302	914.453	928.37	942.9682	1000.8316	1006.8615	1049.1577	1054.036	1088.5516	1127.7733	1146.4743	1162.6432	1170.4661	1205.4403	1218.142	1225.0342	1248.2516	1254.7715	1297.3437	1338.2358	1393.4442	1434.1452	1473.3892	1487.1398	1490.6767	1510.9146	3038.667	3052.0172	3064.2239	3093.1724	3104.819	3112.4239	3113.4128	3113.5551	3113.9588	3121.3172
CC12OC34CCC(C13)C24	C[C@@]12O[C@@]34CC[C@@H]([C@H]13)[C@@H]24	
InChI=1S/C8H10O/c1-7-5-4-2-3-8(5,9-7)6(4)7/h4-6H,2-3H2,1H3	InChI=1S/C8H10O/c1-7-5-4-2-3-8(5,9-7)6(4)7/h4-6H,2-3H2,1H3/t4-,5+,6-,7+,8-
