14
gdb 56103	4.16641	0.7953	0.67419	5.3213	65.22	-0.2745	-0.0753	0.1991	1559.0679	0.097114	-473.864697	-473.855014	-473.85407	-473.902707	31.391	
C	-0.0285399584	 1.438660885	-0.0105743318	-0.486542
C	 0.066436911	-0.0738472378	 0.0129091315	 0.354383
O	 1.107255825	-0.6766565561	 0.0312121641	-0.256936
C	-1.2846700266	-0.7881624395	 0.0115623038	-0.179451
O	-1.0628383243	-2.1998463719	-0.0589502371	-0.201796
C	-2.1568380305	-2.954337996	 0.0463747966	 0.367707
O	-3.2850830691	-2.5706345689	 0.191968328	-0.327927
C	-1.7987782187	-4.374037058	-0.0409288282	 0.262953
N	-1.5821927528	-5.5063498023	-0.1042648546	-0.300259
H	 0.9675085299	 1.8655835057	 0.1070949247	 0.15874
H	-0.4561973007	 1.7737849052	-0.9627451117	 0.151973
H	-0.6876791184	 1.8057178557	 0.7837436159	 0.145578
H	-1.8459245108	-0.5402813885	 0.91982957	 0.158448
H	-1.8944856357	-0.4615315727	-0.8388542611	 0.153127
9.759	38.3115	85.5195	96.8241	159.0991	206.6906	269.2625	340.6115	362.4857	469.4312	542.0587	578.159	632.5694	775.2721	811.9003	853.4411	912.8843	984.9848	1057.1542	1091.1087	1187.2511	1257.7787	1275.8354	1382.4582	1390.5576	1459.7966	1474.6837	1477.6755	1815.8692	1844.1232	2364.3518	3035.3688	3044.4648	3082.2351	3099.1415	3159.0329	9.7566	38.3116	85.5194	96.8239	159.0994	206.6904	269.2624	340.6113	362.4856	469.4312	542.0586	578.159	632.5694	775.272	811.9004	853.4411	912.8844	984.9848	1057.1544	1091.1086	1187.251	1257.7785	1275.8355	1382.4581	1390.5574	1459.7966	1474.6836	1477.6754	1815.8685	1844.1229	2364.352	3035.3689	3044.4648	3082.2351	3099.1415	3159.0329
CC(=O)COC(=O)C#N	CC(=O)COC(=O)C#N	
InChI=1S/C5H5NO3/c1-4(7)3-9-5(8)2-6/h3H2,1H3	InChI=1S/C5H5NO3/c1-4(7)3-9-5(8)2-6/h3H2,1H3
