16
gdb 29197	3.13	1.37811	0.9625	3.1073	78.39	-0.2024	-0.0306	0.1718	1170.5315	0.124826	-437.929481	-437.921445	-437.920501	-437.961904	30.849	
C	-0.0330240425	 1.5253360824	 0.0321448873	-0.485227
C	-0.0080229367	 0.0236753712	 0.013897139	 0.115247
C	-0.0332200837	-0.6931293405	-1.1239470951	 0.00928
O	-0.0123294666	-2.0394839638	-1.1898725314	-0.243312
C	 0.0393796794	-2.8279938097	-0.0300664079	 0.38947
N	 0.0580638096	-4.0955113495	-0.1240952618	-0.55373
C	 0.0678411266	-2.0995140687	 1.2135288169	-0.332277
C	 0.0455344606	-0.7448754182	 1.2408667955	 0.35669
O	 0.070234003	-0.0071034987	 2.3749102106	-0.421097
H	 0.8565778951	 1.9329299864	 0.5238467881	 0.13967
H	-0.0747094058	 1.9230675773	-0.9851362508	 0.123189
H	-0.9002054749	 1.9028881432	 0.5841440853	 0.139694
H	-0.0734080023	-0.2493054846	-2.112139883	 0.131809
H	 0.0308007895	-4.3828441514	-1.1019527087	 0.216448
H	 0.107804109	-2.6972156421	 2.1165786872	 0.107481
H	 0.1053874998	-0.5970434734	 3.1370028087	 0.306664
99.3131	175.2843	195.8869	276.0986	294.6273	358.7572	407.652	432.4559	479.142	542.5141	564.2985	680.7141	706.8822	739.5353	767.0611	816.4368	848.4498	854.1038	892.5048	1024.4809	1069.2479	1090.0172	1175.6633	1192.717	1248.4304	1268.7237	1305.859	1372.7749	1422.7429	1474.9214	1483.6875	1506.9984	1622.4515	1701.5644	1745.7081	3036.6001	3090.8323	3119.1025	3200.5156	3205.0348	3497.3743	3804.9843
CC1=COC(=N)C=C1O	CC1=COC(=C[C@H]1O)[NH]	
InChI=1S/C6H7NO2/c1-4-3-9-6(7)2-5(4)8/h2-3,7-8H,1H3	InChI=1S/C6H8NO2/c1-4-3-9-6(7)2-5(4)8/h2-3,5,7-8H,1H3/t5-/m1/s1
