20
gdb 26231	3.6119	1.03563	0.8333	0.8493	84.22	-0.1921	0.0379	0.23	1414.7053	0.170822	-403.197368	-403.187796	-403.186852	-403.23203	35.598	
C	 0.279278364	 1.1702403486	 1.088201438	-0.397223
C	-0.1797361555	 0.3512785727	-0.1165920306	 0.00151
O	 0.7026169766	-0.7503511197	-0.3810151517	-0.433641
C	-1.5945278785	-0.1334471841	 0.009790467	 0.284295
C	-2.6600149323	 0.2447144353	 0.7973492877	-0.247043
C	-3.7719539284	-0.5667530879	 0.4329970197	-0.227289
C	-3.3622615247	-1.4257503003	-0.5641555934	 0.30354
C	-4.0963908421	-2.498239863	-1.2992586588	-0.503009
N	-2.0414048239	-1.1424574163	-0.8143228163	-0.334824
H	 1.321468875	 1.4703764276	 0.9541312901	 0.121612
H	-0.3308165648	 2.0708558241	 1.205438039	 0.125464
H	 0.1962955442	 0.5844679536	 2.0101978154	 0.113786
H	-0.0759918817	 0.97072953	-1.0183522598	 0.098695
H	 0.651815563	-1.3382672318	 0.3822954391	 0.27632
H	-2.6498180645	 1.0231736335	 1.5446280067	 0.088558
H	-4.7647383398	-0.5307588257	 0.856379372	 0.086613
H	-4.1288664123	-2.312910898	-2.3803077646	 0.126268
H	-3.6434019625	-3.4872413215	-1.1531910719	 0.123779
H	-5.1275357618	-2.5530045986	-0.9427881134	 0.136088
H	-1.4335146099	-1.6372875583	-1.4457420343	 0.256504
49.0158	103.6308	139.3822	161.3902	239.4795	260.157	301.0928	336.3297	374.4316	463.6509	490.5855	545.5197	608.1516	647.8102	672.9298	725.4401	785.1885	823.7303	883.0705	971.5165	998.84	1006.8096	1032.9871	1061.7709	1062.7507	1091.9143	1112.4195	1202.3417	1260.8935	1270.866	1287.4391	1353.2154	1398.2851	1412.0809	1421.3957	1431.0129	1448.9728	1480.2134	1489.2623	1492.9362	1503.6213	1538.6696	1629.4209	3007.6879	3015.0771	3037.4612	3058.0875	3108.358	3121.8482	3125.6455	3236.6139	3253.155	3664.2233	3783.466
CC(O)C1=CC=C(C)N1	C[C@@H](O)c1ccc(C)[nH]1	
InChI=1S/C7H11NO/c1-5-3-4-7(8-5)6(2)9/h3-4,6,8-9H,1-2H3	InChI=1S/C7H11NO/c1-5-3-4-7(8-5)6(2)9/h3-4,6,8-9H,1-2H3/t6-/m1/s1
