19
gdb 13017	2.59289	2.40825	1.58961	2.2212	70.3	-0.2329	0.073	0.306	879.4317	0.167046	-365.05828	-365.050608	-365.049664	-365.08981	30.2	
C	-0.2909252971	 1.4171044227	 0.0755269466	-0.499692
C	 0.1345110419	-0.0241737296	 0.016502132	 0.311327
N	-0.6480895234	-1.0709960787	 0.7272539249	-0.391257
C	 0.7562924835	-0.783553293	 1.1232605589	-0.076265
C	 1.7487606789	-1.7896390901	 0.5670822282	-0.216935
C	 1.3386575212	-1.9321316043	-0.9156161171	-0.248855
C	 0.6424120955	-0.5999172119	-1.3043384456	 0.115062
O	-0.3857397534	-0.7497016586	-2.266814933	-0.444802
H	 0.5358408778	 2.0827271744	-0.1967365897	 0.123574
H	-1.1091556148	 1.6027948317	-0.6287305333	 0.134758
H	-0.6296329117	 1.6948708335	 1.0793515644	 0.109039
H	-1.2730335778	-0.6163242942	 1.3895388455	 0.225377
H	 0.9291308492	-0.3263336602	 2.0932812197	 0.081485
H	 2.7610915904	-1.3789554027	 0.6627587414	 0.098992
H	 1.731001773	-2.7454039891	 1.1006298123	 0.103872
H	 2.1817610726	-2.1621804176	-1.5710113214	 0.097858
H	 0.6091445298	-2.738371021	-1.0275554656	 0.11142
H	 1.358986532	 0.0992418899	-1.7516118083	 0.080844
H	-1.0719464477	-1.2723367012	-1.8321557	 0.284198
107.6475	203.9388	216.3692	251.7822	293.6003	399.4259	437.3667	468.5926	553.2421	564.0827	644.8887	697.6256	822.1528	841.8488	873.9606	908.6137	949.6115	974.4746	1011.0967	1040.2926	1049.3855	1093.4623	1094.2601	1121.5167	1133.5164	1183.5319	1242.5638	1261.3874	1290.6506	1315.1948	1338.8569	1349.6023	1355.7715	1413.456	1432.7472	1458.5331	1478.944	1483.1343	1493.917	1504.1111	3025.987	3035.0723	3042.5562	3066.8345	3079.2289	3091.8604	3098.4957	3114.8494	3152.1838	3489.9656	3772.3981
CC12NC1CCC2O	C[C@]12N[C@H]1CC[C@H]2O	
InChI=1S/C6H11NO/c1-6-4(7-6)2-3-5(6)8/h4-5,7-8H,2-3H2,1H3	InChI=1S/C6H11NO/c1-6-4(7-6)2-3-5(6)8/h4-5,7-8H,2-3H2,1H3/t4-,5+,6-/m0/s1
