23
gdb 91906	2.4061	1.47915	1.03284	1.3051	85.66	-0.2359	0.0825	0.3184	1252.4173	0.20631	-388.294545	-388.285577	-388.284633	-388.327725	35.485	
C	 0.0194374083	 1.5360114881	 0.0937292357	-0.39993
C	 0.0227020668	 0.018792583	-0.0186972429	 0.141329
C	 0.6548577738	-0.4931709891	-1.3149161892	-0.210266
C	 0.5550464231	-2.0255330217	-1.4105107352	-0.00284
C	 1.3874718141	-2.5931836816	-2.5656042899	-0.396023
C	 0.8862572304	-2.6833511945	-0.0769818328	-0.04036
C	 2.1910375885	-2.4439360891	 0.656728403	-0.310456
C	 0.9062464503	-1.854687456	 1.181499044	 0.08965
O	 0.756670427	-0.4653727979	 1.1073123576	-0.272469
H	 1.0399705825	 1.9259050815	 0.026538491	 0.12062
H	-0.5770633767	 1.9798434053	-0.7089903986	 0.110687
H	-0.4011463837	 1.8459030426	 1.0541374965	 0.122186
H	-1.0154149337	-0.3530622929	 0.0385044576	 0.060286
H	 0.1591227962	-0.0394462655	-2.1811194746	 0.092751
H	 1.7034057385	-0.1677323645	-1.3400018024	 0.097615
H	-0.5010728452	-2.2577020014	-1.6118249947	 0.071072
H	 2.45437897	-2.4018299613	-2.4088370813	 0.116119
H	 1.2536321663	-3.6763646502	-2.6560472089	 0.110136
H	 1.0995743647	-2.1377465403	-3.5195924657	 0.107888
H	 0.4786254578	-3.6852667045	 0.0307711399	 0.083571
H	 2.6482073173	-3.2763606717	 1.1806575487	 0.106352
H	 2.8934797498	-1.7315298999	 0.2376907873	 0.115749
H	 0.4724266138	-2.2704044183	 2.088558985	 0.086332
101.7106	148.3136	199.185	225.0719	238.303	254.7472	356.5764	392.0725	421.0006	458.5736	475.9478	548.4264	658.2972	729.0677	806.7278	828.8428	874.2198	883.4169	917.7276	958.9106	986.4797	1005.1957	1020.7942	1043.8984	1057.2868	1078.2151	1117.2992	1123.2325	1150.4028	1165.2803	1186.167	1204.4031	1238.7905	1250.0717	1296.3627	1349.2273	1362.0107	1368.845	1391.3785	1395.6207	1404.8187	1409.5357	1416.4	1475.4214	1481.2348	1485.2832	1495.3124	1498.8223	1500.3375	2946.4933	2990.9367	3018.5407	3027.3666	3041.3	3065.1772	3095.1996	3099.3913	3114.4465	3118.3355	3120.5583	3130.6083	3136.6307	3219.4837
CC1CC(C)C2CC2O1	C[C@H]1C[C@@H](C)[C@H]2C[C@H]2O1	
InChI=1S/C8H14O/c1-5-3-6(2)9-8-4-7(5)8/h5-8H,3-4H2,1-2H3	InChI=1S/C8H14O/c1-5-3-6(2)9-8-4-7(5)8/h5-8H,3-4H2,1-2H3/t5-,6+,7-,8-/m1/s1
