15
gdb 77348	2.52044	1.33966	1.2164	1.1725	66.54	-0.2487	-0.044	0.2046	1075.8512	0.110417	-457.729548	-457.721018	-457.720073	-457.763355	31.119	
O	 0.0017578176	 1.6045521655	-0.5419122282	-0.433374
C	-0.0422341062	 0.3075288307	 0.0265672724	 0.033851
C	-1.4954285715	-0.1885116498	 0.0155618835	-0.129426
O	-1.6797990997	-0.807348674	-1.2705354276	-0.241932
C	-0.4775322591	-1.4614043045	-1.6302602785	-0.181179
C	 0.6400811795	-0.6776089601	-0.9491246543	 0.339936
O	 1.8214542931	-0.7391102396	-1.1610837521	-0.30325
C	-1.7588894864	-1.1312229562	 1.1057321855	 0.340945
C	-1.9583979555	-1.9203668957	 1.9896963679	-0.460269
H	 0.9248928433	 1.7979652647	-0.7460335822	 0.299507
H	 0.414326601	 0.2720718188	 1.0220933657	 0.109116
H	-2.1873296512	 0.6568258148	 0.0567691937	 0.136217
H	-0.4504417323	-2.5059692482	-1.2802261597	 0.133492
H	-0.3737099386	-1.4559331258	-2.7183412481	 0.148396
H	-2.1486488642	-2.6116030305	 2.773764652	 0.207971
42.6523	115.1922	145.4187	228.6854	242.4587	339.257	370.5931	446.5306	474.4204	539.7456	582.1987	640.3063	651.0506	682.0039	748.7823	818.7153	912.0783	981.1782	986.2874	1011.5392	1075.5145	1092.369	1164.6372	1202.8248	1221.8488	1268.277	1311.9196	1334.0468	1352.2016	1406.3472	1470.782	1860.4855	2235.8444	2984.8355	3048.4544	3086.1879	3100.6435	3499.9076	3791.0904
OC1C(OCC1=O)C#C	O[C@H]1[C@@H](OCC1=O)C#C	
InChI=1S/C6H6O3/c1-2-5-6(8)4(7)3-9-5/h1,5-6,8H,3H2	InChI=1S/C6H6O3/c1-2-5-6(8)4(7)3-9-5/h1,5-6,8H,3H2/t5-,6+/m0/s1
