19
gdb 94915	2.79164	1.33106	1.30002	4.7828	79.48	-0.2146	0.031	0.2456	1096.4178	0.161199	-382.065755	-382.057516	-382.056571	-382.098718	31.32	
C	-0.3330290114	 1.4795665228	 0.4065755593	-0.334052
N	 0.1357770656	 0.148352275	 0.0329230676	-0.059691
C	-0.9452329703	-0.7736282517	-0.38748406	-0.20137
C	-1.2006481086	-1.7647503938	 0.7877302513	-0.237683
C	 0.0694443138	-1.6969664501	 1.6180880067	-0.082474
C	 1.4057605407	-1.8992648934	 0.8953072629	-0.235244
C	 1.5097597302	-2.5306803919	-0.3884218746	 0.314506
N	 1.6048112079	-3.0576645834	-1.4146347371	-0.357835
C	 0.8338335128	-0.5009443452	 1.1121486583	 0.023189
H	 0.5208115635	 2.1016719828	 0.6921666325	 0.124642
H	-0.807796096	 1.9497074924	-0.4586689673	 0.128485
H	-1.0557348421	 1.4861053791	 1.2427364579	 0.096594
H	-1.8402890738	-0.2045859099	-0.6501216716	 0.104389
H	-0.6303009807	-1.320584066	-1.2784734714	 0.145278
H	-2.0412287401	-1.4430121066	 1.4111460154	 0.109687
H	-1.4271333964	-2.7686820576	 0.4183167421	 0.123191
H	 0.0353579875	-1.9767928011	 2.6643422144	 0.100497
H	 2.2382099273	-2.1412323789	 1.5491482212	 0.134124
H	 1.4051956301	 0.1560436973	 1.7571794025	 0.103767
74.8665	131.1192	153.8501	214.9311	277.9893	343.4078	385.7148	406.6775	560.4739	647.4848	654.0276	701.4079	739.9183	773.1279	834.977	860.6487	921.521	947.8386	983.8195	1012.6996	1040.5729	1074.2751	1083.4594	1099.1223	1139.9472	1158.9434	1192.0987	1222.4017	1241.8534	1286.6073	1306.8688	1326.8583	1360.0296	1380.5624	1414.8276	1465.7597	1491.6281	1495.771	1504.8484	1518.9378	2346.7944	2940.1592	3051.2147	3069.1643	3072.5834	3093.7003	3111.4446	3118.1492	3156.911	3177.7191	3188.3384
CN1CCC2C(C#N)C12	CN1CC[C@H]2[C@@H](C#N)[C@@H]12	
InChI=1S/C7H10N2/c1-9-3-2-5-6(4-8)7(5)9/h5-7H,2-3H2,1H3	InChI=1S/C7H10N2/c1-9-3-2-5-6(4-8)7(5)9/h5-7H,2-3H2,1H3/t5-,6+,7-/m0/s1
