18
gdb 18269	4.28977	1.67423	1.38113	1.2693	68.01	-0.2554	0.0896	0.345	939.1637	0.154653	-384.925792	-384.918292	-384.917348	-384.957739	28.008	
C	 0.0391247234	 1.3307415325	-0.1270997918	-0.239101
O	 0.0199005541	-0.0823654947	-0.0287323554	-0.236045
C	-1.2569518394	-0.6237287426	 0.0365165755	 0.228467
O	-1.9275697091	-0.4236661259	-1.2103696809	-0.280991
C	-2.8102970821	-1.5123410826	-1.4548338753	-0.091776
C	-2.2062143024	-2.7044232799	-0.7327348377	-0.054045
C	-0.7304037881	-2.9183400128	-0.9367355985	-0.278702
C	-1.2174557152	-2.122624037	 0.2468757795	-0.081935
H	 1.0860077982	 1.6386927151	-0.0816551274	 0.124959
H	-0.4012088873	 1.6743865646	-1.0700003936	 0.129437
H	-0.5065019799	 1.7961445313	 0.7081029091	 0.103017
H	-1.8308777116	-0.1230050935	 0.8402936903	 0.052569
H	-3.8175731017	-1.3008456493	-1.0619871059	 0.092583
H	-2.8865691049	-1.636024833	-2.5409305022	 0.109341
H	-2.8471076714	-3.5378492545	-0.4713005945	 0.08923
H	-0.3376314905	-3.9084700067	-0.7362726791	 0.110033
H	-0.232350626	-2.3800014502	-1.7358054767	 0.131299
H	-1.0981863462	-2.499286851	 1.2546632747	 0.091658
95.9658	120.3748	184.3676	218.9102	305.524	367.6796	457.5908	546.8144	656.1593	732.9548	789.7262	834.6721	912.1855	917.8586	952.9302	992.8542	1033.4928	1041.3088	1073.6004	1079.0208	1094.9743	1107.9936	1128.977	1163.8634	1180.3264	1198.3978	1232.4915	1240.91	1328.3949	1354.1375	1366.2541	1407.2185	1409.1405	1480.4102	1484.407	1485.8747	1512.0427	1520.9985	2911.5508	2977.7423	2989.4788	3059.2332	3066.42	3123.8255	3138.5672	3183.0783	3196.1622	3227.8229
COC1OCC2CC12	CO[C@H]1OC[C@H]2C[C@@H]12	
InChI=1S/C6H10O2/c1-7-6-5-2-4(5)3-8-6/h4-6H,2-3H2,1H3	InChI=1S/C6H10O2/c1-7-6-5-2-4(5)3-8-6/h4-6H,2-3H2,1H3/t4-,5-,6+/m1/s1
