19
gdb 90494	2.99074	1.21566	1.06337	1.8763	75.6	-0.2373	0.0546	0.2919	1191.1938	0.160584	-419.114939	-419.106693	-419.105749	-419.14827	31.506	
O	-0.1211603994	 1.5089220743	-0.3383014249	-0.435248
C	-0.1115335096	 0.1113780572	-0.1696475996	 0.133072
C	 0.5229969206	-0.5746687915	 1.077477055	-0.216793
N	-0.7095781106	-1.4170257276	 1.2954793565	-0.156265
C	-1.8191612538	-0.4878238377	 1.5873265298	-0.007014
C	-1.7113646537	 0.7280937205	 2.45311794	-0.019152
C	-2.954345585	 1.2913592395	 3.0455663701	-0.254051
N	-1.9773348517	 0.6009584272	 3.8982475456	-0.317857
C	-1.3957680864	-0.6349971015	 0.1711063678	-0.119686
H	-0.7852077061	 1.886126595	 0.2455228673	 0.291518
H	 0.3366620923	-0.2902400671	-1.0817291707	 0.105494
H	 1.3701665419	-1.2193574976	 0.8381689073	 0.115128
H	 0.7920867247	 0.0670935865	 1.919967568	 0.119037
H	-2.7185381835	-1.0615306941	 1.8155904391	 0.093533
H	-0.8981211784	 1.4163831179	 2.2436438997	 0.094172
H	-3.0388305288	 2.3607778298	 3.2163885618	 0.12387
H	-3.8939620532	 0.7959619787	 2.8127891735	 0.116546
H	-2.2970076004	-0.343724789	 4.1032204155	 0.237667
H	-2.038070359	-1.1246299405	-0.5551909318	 0.096029
55.7903	108.4949	182.7946	233.2464	287.5285	330.6368	365.5011	438.5165	529.2045	583.1262	729.2428	764.9694	774.063	822.9866	869.3953	892.963	927.1284	962.232	972.6267	993.4768	1018.7069	1049.9939	1073.8944	1096.8956	1128.1869	1139.1245	1158.7386	1168.6447	1209.1961	1234.3449	1255.7214	1270.5335	1288.6353	1301.6476	1309.5219	1356.0471	1367.6358	1438.1747	1473.4717	1502.4823	1514.6183	3069.0985	3082.4618	3098.3314	3107.4523	3125.781	3145.0641	3153.41	3192.7065	3490.9113	3842.8214
OC1CN2C(C3CN3)C12	O[C@H]1CN2[C@@H]([C@H]3CN3)[C@@H]12	
InChI=1S/C6H10N2O/c9-4-2-8-5(6(4)8)3-1-7-3/h3-7,9H,1-2H2	InChI=1S/C6H10N2O/c9-4-2-8-5(6(4)8)3-1-7-3/h3-7,9H,1-2H2/t3-,4+,5+,6-,8?/m1/s1
