16
gdb 73342	2.35581	2.08631	1.61116	3.7633	67.69	-0.2384	-0.0116	0.2268	894.3	0.124351	-437.866124	-437.858794	-437.85785	-437.897715	28.304	
C	-0.1283241135	 1.5076682612	 0.0319971451	-0.489683
C	 0.0018832294	 0.0104420241	 0.0513666699	 0.258232
O	-1.2744144135	-0.6122560093	-0.0890945585	-0.287714
C	-1.0898978271	-2.0070755991	 0.1585993641	-0.110624
C	 0.2514066598	-2.1171946997	 0.8704690336	-0.062215
C	 0.7365040757	-0.7760484507	 1.168513222	-0.087687
N	 1.4783469645	-1.6452565426	 0.1258232102	-0.211474
C	 1.0154927884	-0.7022804605	-0.884395536	 0.384785
O	 1.4413190408	-0.5264194947	-1.9816490982	-0.311085
H	 0.845537905	 1.981625705	 0.1796442151	 0.134546
H	-0.5260116088	 1.831427487	-0.9329828614	 0.15243
H	-0.8109176715	 1.8394740935	 0.8195909199	 0.133874
H	-1.9066888902	-2.3644768952	 0.7948878494	 0.12266
H	-1.1007447911	-2.5744764924	-0.7814010841	 0.125203
H	 0.4606132207	-2.9700943641	 1.5053134876	 0.124832
H	 1.2461823215	-0.4099994025	 2.0484496513	 0.12392
128.4242	177.2185	201.4566	270.2837	302.1467	368.0977	491.173	595.3003	656.9447	672.0925	731.0677	753.492	821.8068	850.3522	875.0239	896.2924	914.65	959.5438	1016.5125	1045.4144	1068.718	1095.4452	1147.7779	1168.1182	1195.9399	1223.7697	1251.8899	1331.4885	1357.1223	1390.9741	1414.6111	1477.9948	1489.4046	1514.47	1912.8181	3020.0387	3050.0655	3072.8578	3125.5589	3132.2312	3190.8168	3224.4387
CC12OCC3C1N3C2=O	C[C@]12OC[C@@H]3[C@H]1N3C2=O	
InChI=1S/C6H7NO2/c1-6-4-3(2-9-6)7(4)5(6)8/h3-4H,2H2,1H3	InChI=1S/C6H7NO2/c1-6-4-3(2-9-6)7(4)5(6)8/h3-4H,2H2,1H3/t3-,4-,6+,7?/m1/s1
