21
gdb 93021	2.20932	1.82472	1.19736	1.4141	83.13	-0.2228	0.0204	0.2432	1103.6775	0.183197	-387.095564	-387.087045	-387.086101	-387.127954	34.453	
C	 0.1009720139	 1.5881901055	-0.0259253743	-0.414722
C	 0.0352455288	 0.0558432548	 0.0005750736	-0.024512
C	 0.5374124447	-0.5473694207	-1.3284042988	-0.279396
C	 0.7596129739	-2.037253982	-1.2676467942	-0.098462
C	 1.0630100752	-2.6665712347	-0.1311550912	-0.035528
C	 1.2186827816	-1.9456195849	 1.1541573082	-0.126685
C	 2.2235891041	-0.788523524	 1.2470658261	-0.357722
C	 0.7434282817	-0.5217725835	 1.2204086614	 0.415206
O	 0.1455151031	-0.1794364501	 2.4465425271	-0.481273
H	 1.1383953556	 1.9357867872	-0.0963030073	 0.113457
H	-0.4451867059	 1.9906373811	-0.8851970423	 0.114803
H	-0.3451850852	 2.0226717227	 0.8746989514	 0.106381
H	-1.016253588	-0.2391322403	 0.1191608507	 0.085771
H	-0.1874207314	-0.306005867	-2.1148404185	 0.103693
H	 1.4677126828	-0.0444838015	-1.6345577017	 0.10632
H	 0.686570545	-2.5944133935	-2.1973805411	 0.085449
H	 1.2261815305	-3.7407418263	-0.1243416373	 0.085986
H	 1.0918775136	-2.5216368986	 2.064126855	 0.094958
H	 2.7259276711	-0.6498309805	 2.1981298413	 0.110493
H	 2.8283133706	-0.5844161822	 0.370201261	 0.115057
H	 0.4000150542	 0.7255201183	 2.6568740208	 0.280726
116.8814	193.503	221.4348	262.0954	286.1717	313.8777	366.5296	416.4996	428.125	463.3083	544.3843	552.6184	652.9004	723.3094	781.78	824.1257	880.3416	906.2512	913.3988	923.6254	968.5499	987.372	996.0675	1034.9942	1056.2776	1076.99	1103.4041	1112.5393	1143.7833	1186.4778	1201.4564	1246.2656	1296.4859	1327.2263	1329.8738	1355.5147	1385.0832	1400.0682	1404.327	1422.4868	1474.2925	1488.7978	1497.2164	1505.4605	1712.4894	2989.1508	3014.5167	3026.5519	3049.5281	3094.7207	3098.4649	3130.6707	3152.4827	3170.2726	3179.6793	3223.6209	3799.8239
CC1CC=CC2CC12O	C[C@H]1CC=C[C@H]2C[C@@]12O	
InChI=1S/C8H12O/c1-6-3-2-4-7-5-8(6,7)9/h2,4,6-7,9H,3,5H2,1H3	InChI=1S/C8H12O/c1-6-3-2-4-7-5-8(6,7)9/h2,4,6-7,9H,3,5H2,1H3/t6-,7-,8+/m0/s1
