20
gdb 77663	2.16645	1.39761	1.28918	3.3311	82.2	-0.2409	-0.025	0.2158	1149.9512	0.168835	-403.124191	-403.114848	-403.113904	-403.157939	34.822	
C	-0.1064295622	 1.4905514617	 0.0406597309	-0.327807
N	 0.1343847142	 0.0595676226	-0.0899334086	-0.155244
C	 0.6936128587	-0.5556945731	-1.2587405257	 0.27133
C	-0.0421677086	-1.6709248749	-1.9431924966	-0.479463
C	 1.8146063862	 0.286537081	-1.9084184634	-0.284473
C	 2.5815455427	 0.314977817	-0.5531371004	-0.306405
C	 1.4599500139	-0.5120136811	 0.09016286	 0.18288
C	 1.6389515278	-1.5994852065	 1.0658476299	 0.080104
O	 2.7144141624	-1.9649172064	 1.4813944276	-0.272655
H	 0.6616526061	 2.1347566922	-0.4070342474	 0.113643
H	-1.0659772851	 1.7243893134	-0.4300994422	 0.128496
H	-0.1810479519	 1.735456651	 1.1039949174	 0.131722
H	-0.7094187541	-1.2645993206	-2.7136663227	 0.126742
H	 0.650854397	-2.3598201595	-2.4364437056	 0.126072
H	-0.6538590368	-2.2288003165	-1.2307979581	 0.135668
H	 2.3498482364	-0.2725781669	-2.6785041329	 0.113314
H	 1.5041228558	 1.2465619999	-2.3316188578	 0.103578
H	 3.5155357867	-0.2470565451	-0.5808206682	 0.132014
H	 2.7754593045	 1.2938687406	-0.1062344058	 0.105126
H	 0.6877297164	-2.0775184388	 1.3862791395	 0.075357
92.8112	150.9979	173.1416	189.9652	226.979	229.014	266.7643	280.6278	339.4956	468.9138	508.0389	549.6893	606.6258	692.1402	752.0537	779.6047	796.9929	915.0974	953.5137	977.8249	1025.7696	1052.8931	1094.3914	1116.5732	1140.6344	1158.7937	1171.7118	1209.883	1224.7384	1231.3895	1256.3698	1313.4057	1388.4664	1406.7864	1438.3483	1458.3424	1471.0093	1484.0282	1486.378	1492.844	1502.89	1506.6314	1797.5373	2898.0335	3014.4748	3028.2434	3056.5445	3068.3836	3084.1101	3089.5043	3111.0854	3113.3337	3129.5213	3136.5077
CN1C2(C)CCC12C=O	CN1[C@@]2(C)CC[C@@]12C=O	
InChI=1S/C7H11NO/c1-6-3-4-7(6,5-9)8(6)2/h5H,3-4H2,1-2H3	InChI=1S/C7H11NO/c1-6-3-4-7(6,5-9)8(6)2/h5H,3-4H2,1-2H3/t6-,7-,8?/m0/s1
