17
gdb 117427	4.32856	0.68249	0.64659	3.9202	71.22	-0.2799	0.0135	0.2934	1743.3065	0.13473	-455.200896	-455.190871	-455.189927	-455.238073	33.717	
C	-0.038739271	 1.4228074052	-0.2592401044	-0.393019
C	-0.1984851941	-0.0841632313	-0.3012079069	-0.039357
O	 0.8981363574	-0.6141044698	-1.0744181128	-0.274414
C	 0.9001928469	-1.9525079364	-1.225994227	 0.53551
O	 0.0707406908	-2.7118119648	-0.7794515701	-0.405859
N	 2.006496992	-2.3338935831	-1.9439827097	-0.363218
C	 2.1440458288	-3.6973666722	-2.3994635073	-0.282702
C	 1.9114080145	-3.8501541468	-3.8451889809	 0.254324
N	 1.7531114029	-3.9526996601	-4.9848177407	-0.296893
H	 0.9086732908	 1.7033425603	 0.2094691095	 0.130398
H	-0.0646877246	 1.8470575719	-1.2668263506	 0.13211
H	-0.8543616812	 1.8635347776	 0.3213134434	 0.127175
H	-0.1726681836	-0.5271549733	 0.6990657334	 0.125147
H	-1.1397823484	-0.3840112369	-0.7712451714	 0.128203
H	 2.5594524012	-1.6085634258	-2.3714784055	 0.266202
H	 3.1388323413	-4.0930406725	-2.1650880487	 0.159332
H	 1.4071723763	-4.2894133419	-1.8490073601	 0.197062
30.9205	37.3357	75.351	124.0062	158.5751	242.9145	261.8556	295.3986	363.3492	370.5183	452.0491	478.4118	610.3807	722.6779	779.9277	808.2789	882.5005	920.617	954.0999	1051.8723	1068.7383	1136.8838	1179.007	1184.3972	1245.4471	1287.0367	1290.2732	1377.82	1397.3327	1420.9933	1459.4115	1485.8394	1497.3928	1517.4929	1540.7045	1815.7226	2362.6526	3046.1256	3047.6674	3055.4693	3094.4976	3107.9842	3123.2015	3128.0816	3648.3351
CCOC(=O)NCC#N	CCOC(=O)NCC#N	
InChI=1S/C5H8N2O2/c1-2-9-5(8)7-4-3-6/h2,4H2,1H3,(H,7,8)	InChI=1S/C5H8N2O2/c1-2-9-5(8)7-4-3-6/h2,4H2,1H3,(H,7,8)
