18
gdb 41231	3.39164	1.8454	1.72496	1.4047	72.9	-0.2282	0.0664	0.2945	856.8546	0.151787	-401.87768	-401.87182	-401.870876	-401.907471	25.838	
C	 0.0513886222	 1.5369244517	 0.284626579	-0.177401
O	 1.4529111952	 1.4469133967	-0.1512928181	-0.364103
C	 1.0931106918	 0.2798347807	-0.9161284584	 0.410186
C	 1.6641388414	-1.1249843367	-1.1209802671	-0.324607
C	 0.3022397856	-1.6662929222	-1.645146746	-0.030266
C	-0.8540300121	-0.8770464431	-1.0491385251	-0.108054
C	-0.1381125977	 0.0290299299	-0.0656752344	-0.026762
N	-0.3952977621	-0.6153359739	-2.4343195942	-0.120612
C	 0.4923815361	 0.557359227	-2.31498441	-0.210274
H	-0.0142600068	 1.7966098069	 1.3436012034	 0.11563
H	-0.5089852344	 2.2610256125	-0.314452721	 0.114676
H	 2.4535312309	-1.2189007458	-1.8723108317	 0.108767
H	 1.979908051	-1.6099166461	-0.1943765545	 0.112631
H	 0.1976118002	-2.6880578951	-1.9900204913	 0.09744
H	-1.844041143	-1.2993506074	-0.9273534757	 0.092168
H	 0.1207354967	-0.5414707827	 0.8313882382	 0.095315
H	-0.0870977817	 1.4809059344	-2.3743977604	 0.10957
H	 1.2422984768	 0.5559725232	-3.1115603025	 0.105696
287.3424	330.0748	396.0017	456.8205	487.7614	553.1255	651.1305	676.4071	741.3262	776.5087	807.9476	844.3051	868.0673	917.9804	932.6342	939.2145	981.0828	1000.4185	1011.3611	1025.7401	1056.1708	1086.1347	1112.2642	1130.4474	1150.2044	1158.2767	1180.5429	1210.6794	1230.3105	1236.1316	1267.4064	1287.8055	1307.9769	1330.5069	1350.8757	1383.2941	1487.2986	1504.4674	1521.3342	3049.0749	3057.868	3058.9604	3064.8116	3110.6176	3116.8727	3119.6764	3181.2723	3190.3895
C1OC23CC4C(C12)N4C3	C1O[C@@]23C[C@H]4[C@@H]([C@H]12)N4C3	
InChI=1S/C7H9NO/c1-5-6-4-2-9-7(1,4)3-8(5)6/h4-6H,1-3H2	InChI=1S/C7H9NO/c1-5-6-4-2-9-7(1,4)3-8(5)6/h4-6H,1-3H2/t4-,5-,6+,7+,8?/m0/s1
