21
gdb 107719	3.76096	1.12273	1.05168	1.7096	82.65	-0.2429	0.0723	0.3152	1240.8439	0.182282	-387.041879	-387.033178	-387.032234	-387.074987	34.083	
C	-0.0219861354	 1.5467611365	 0.1371737496	-0.504733
C	 0.0427941092	 0.0441525891	 0.0785089214	 0.325131
C	-1.2417476458	-0.8286665343	 0.2145405131	-0.27322
C	-0.3222866702	-1.9239436503	 0.744489797	-0.097847
C	 0.7402672818	-0.9238980988	 1.1331725672	-0.187259
C	 0.9970273476	-1.8415171973	-0.0414363474	 0.332229
C	 1.9437763618	-2.9989901259	-0.1209369979	-0.189536
O	 1.5403648856	-4.0016058697	-1.049072297	-0.41464
C	 0.8439820889	-0.6882694945	-1.037374753	-0.336528
H	 0.9790227436	 1.9922057529	 0.1327174119	 0.115429
H	-0.5667137553	 1.9455655977	-0.7273924419	 0.118375
H	-0.5378979053	 1.8890694706	 1.0410569076	 0.116701
H	-1.9022073172	-0.4472531109	 0.9996442404	 0.094706
H	-1.8240478883	-1.0142336565	-0.6964547854	 0.084827
H	-0.5919343968	-2.8370992017	 1.2597487813	 0.087927
H	 1.2856207899	-0.7589197788	 2.0519801253	 0.085826
H	 2.9588536225	-2.6369484298	-0.3537056234	 0.08402
H	 1.9980256262	-3.5032939081	 0.8506401681	 0.106705
H	 1.458482381	-3.5815034773	-1.9111307107	 0.281588
H	 0.328299238	-0.8624727859	-1.9910089324	 0.080081
H	 1.8078728683	-0.2026440969	-1.2256075937	 0.090218
77.9734	129.8775	207.768	231.8564	264.7639	290.0795	334.7092	399.8249	445.1075	452.0816	602.6743	662.9715	743.6309	753.9213	817.6188	833.1178	884.2618	917.7588	947.1106	963.5414	972.6072	995.0476	1025.2166	1038.0278	1044.7377	1081.799	1122.3055	1134.4718	1154.9973	1165.2751	1200.7128	1215.0671	1242.6089	1262.387	1314.3407	1346.6804	1374.436	1393.7948	1413.7627	1433.7626	1487.6685	1492.3299	1493.7382	1497.6065	1511.1439	2966.8952	3008.7365	3019.4781	3025.1655	3060.7329	3071.6374	3082.9429	3084.6248	3091.5979	3194.4604	3213.473	3817.7143
CC12CC3C1C3(CO)C2	C[C@]12C[C@@H]3[C@H]1[C@]3(CO)C2	
InChI=1S/C8H12O/c1-7-2-5-6(7)8(5,3-7)4-9/h5-6,9H,2-4H2,1H3	InChI=1S/C8H12O/c1-7-2-5-6(7)8(5,3-7)4-9/h5-6,9H,2-4H2,1H3/t5-,6-,7-,8+/m1/s1
