18
gdb 74379	3.081	1.17876	0.90908	2.601	74.45	-0.242	-0.0237	0.2183	1272.6198	0.147063	-439.120181	-439.111427	-439.110483	-439.154197	31.636	
C	 0.102655552	 1.5583865223	-0.3040460732	-0.450582
C	-0.0330988045	 0.0718749915	-0.1562356073	 0.40074
N	-1.1669620356	-0.50135864	-0.1702434299	-0.330776
C	-1.2333362463	-1.9402151123	 0.0507202368	-0.056006
C	 0.015714906	-2.519816738	 0.714949525	-0.231845
C	 1.2335404518	-1.9416635262	 0.0116312928	-0.090079
O	 1.1889598027	-0.5063935539	-0.0132630982	-0.257366
C	-2.5111728742	-2.2321034591	 0.8307569642	 0.153978
O	-2.6186742555	-3.1032519158	 1.6537869765	-0.24907
H	 0.6975125336	 1.7983269398	-1.1910440462	 0.139433
H	-0.8847363546	 2.009970794	-0.3878561884	 0.145259
H	 0.6295122886	 1.9751846193	 0.5601691391	 0.141594
H	-1.3918677432	-2.426709472	-0.9287597053	 0.108443
H	 0.028309719	-2.243295682	 1.7741656284	 0.124733
H	 0.0241819457	-3.6114750042	 0.6660794979	 0.121626
H	 2.1659612642	-2.1973046897	 0.5201270012	 0.122528
H	 1.2975311004	-2.3024820023	-1.023427575	 0.112536
H	-3.3531147104	-1.5585938916	 0.5616218216	 0.094853
58.2585	122.3549	139.0782	185.8362	210.9988	244.5	338.8616	406.746	457.2699	524.8621	581.4097	634.6092	705.596	791.2765	857.3979	905.0724	929.9059	954.0842	1011.4785	1061.3162	1084.4006	1104.5641	1133.7131	1163.5749	1210.2592	1260.6269	1275.3186	1295.5278	1317.4988	1368.8391	1397.3289	1404.4762	1418.9252	1474.2418	1476.4858	1478.3707	1512.7703	1741.9404	1834.2582	2909.8562	2946.6287	3022.2477	3049.4027	3060.6484	3102.4429	3107.001	3112.0836	3168.9946
CC1=NC(CCO1)C=O	CC1=N[C@@H](CCO1)C=O	
InChI=1S/C6H9NO2/c1-5-7-6(4-8)2-3-9-5/h4,6H,2-3H2,1H3	InChI=1S/C6H9NO2/c1-5-7-6(4-8)2-3-9-5/h4,6H,2-3H2,1H3/t6-/m0/s1
