14
gdb 20117	6.12145	1.17084	1.12975	3.2164	59.81	-0.2575	-0.0522	0.2053	1044.5043	0.10536	-419.628659	-419.621111	-419.620167	-419.661802	25.98	
O	 0.0054703419	 0.1320210477	-0.0037790573	-0.307222
C	-0.0158091083	 1.3392085762	 0.0065405199	 0.36673
C	 1.1937866971	 2.156767352	 0.3834721301	-0.041216
C	 2.0632043202	 1.664388311	 1.4753173739	-0.157233
O	 2.4577402466	 1.5533990968	 0.1213649478	-0.203928
C	-1.2535427247	 2.1199377519	-0.3568171554	-0.041232
C	-2.1051834681	 1.6160924344	-1.4574348444	-0.157224
O	-2.495391359	 1.4679136089	-0.1058136788	-0.203923
H	 1.1475895143	 3.2287306684	 0.193848915	 0.103633
H	 2.6118257673	 2.3876585622	 2.0765963461	 0.126055
H	 1.7932186872	 0.7274025208	 1.9579443111	 0.142931
H	-1.2452205587	 3.1894259442	-0.1486758224	 0.103643
H	-2.6791952682	 2.329744999	-2.0463805505	 0.126054
H	-1.8025909876	 0.6976029666	-1.9560069851	 0.142931
42.3484	67.2083	186.4136	243.1873	293.028	306.2519	362.0917	673.6583	752.3406	802.2665	852.0892	879.6223	902.7853	908.2224	1005.8176	1022.975	1070.1394	1096.8792	1097.9446	1161.5331	1162.1315	1168.9831	1173.7312	1270.6655	1290.2326	1398.1926	1430.2631	1507.2395	1507.3434	1812.0229	3089.9037	3090.1101	3113.1904	3124.6554	3191.0866	3191.1868
O=C(C1CO1)C1CO1	O=C([C@H]1CO1)[C@H]1CO1	
InChI=1S/C5H6O3/c6-5(3-1-7-3)4-2-8-4/h3-4H,1-2H2	InChI=1S/C5H6O3/c6-5(3-1-7-3)4-2-8-4/h3-4H,1-2H2/t3-,4-/m1/s1
