19
gdb 58083	1.79426	1.69184	1.14288	3.9835	81.93	-0.2312	0.0032	0.2344	1172.7075	0.155495	-382.022779	-382.012297	-382.011353	-382.057545	38.319	
C	 0.0687531023	 1.4874648517	 0.0194015477	-0.337782
N	-0.0098123491	 0.0335594376	 0.0696989556	-0.075203
C	 0.7701627421	-0.5127141357	 1.1736040021	-0.345315
C	-1.3805876522	-0.5076109198	-0.0382590505	-0.08905
C	-2.3094470169	-0.2079746313	 1.1763133283	-0.417063
C	-2.0249887733	-0.0091676662	-1.2663155465	 0.3336
C	-2.5968012541	 0.3898012141	-2.2433588784	-0.411283
C	-1.2781969485	-1.984145189	-0.1778135375	 0.308648
N	-1.22566673	-3.1352240707	-0.2555500995	-0.347803
H	 1.1192283231	 1.7710928206	-0.0950623428	 0.127909
H	-0.4818344097	 1.8650834829	-0.8438107275	 0.14095
H	-0.3135071489	 1.9873461454	 0.927135545	 0.098993
H	 0.4485453257	-0.1568936075	 2.1681202331	 0.101018
H	 0.7293037835	-1.6043678012	 1.165064978	 0.15138
H	 1.8140853154	-0.2148430452	 1.0381989316	 0.12904
H	-2.4329298508	 0.87146178	 1.2840910919	 0.137275
H	-3.2922374068	-0.6564073713	 1.018470567	 0.148283
H	-1.8808431823	-0.6173419426	 2.093414348	 0.138279
H	-3.0894554595	 0.7358138782	-3.1189428054	 0.208125
74.3852	136.6457	155.2297	174.9475	221.6276	231.746	239.7094	253.4896	267.6358	376.0847	400.03	428.1783	479.6799	513.3599	575.0343	579.4374	645.8426	656.5372	673.7382	862.4588	931.6293	980.553	1045.3176	1073.2623	1123.6622	1156.4453	1171.8738	1192.8488	1278.9555	1295.0101	1396.9579	1444.7119	1473.3578	1481.3729	1481.912	1487.9498	1502.5255	1507.725	1519.4244	2243.1776	2361.1057	2946.7516	2954.3961	3060.2373	3074.4432	3076.1155	3125.0817	3134.7973	3143.3841	3145.3875	3498.0776
CN(C)C(C)(C#C)C#N	CN(C)[C@@](C)(C#C)C#N	
InChI=1S/C7H10N2/c1-5-7(2,6-8)9(3)4/h1H,2-4H3	InChI=1S/C7H10N2/c1-5-7(2,6-8)9(3)4/h1H,2-4H3/t7-/m0/s1
