21
gdb 99997	2.88709	1.03261	0.9354	1.0852	75.03	-0.2623	-0.0407	0.2216	1331.4719	0.178901	-461.368832	-461.358182	-461.357238	-461.404042	39.271	
C	-0.0653234098	 1.5635148247	 0.1126023585	-0.440283
C	-0.0015944196	 0.0283426285	 0.058396256	 0.219488
C	 0.7580814864	-0.5291340583	 1.2745648686	-0.438173
C	-1.435581671	-0.5605976929	 0.0559973941	-0.093366
O	-2.1777796393	-0.228623428	 1.2202903743	-0.424829
C	 0.6613474996	-0.4334148806	-1.2752746885	 0.032885
O	-0.0665497103	 0.0077769572	-2.391873255	-0.442225
C	 2.1031812529	 0.0162987902	-1.4053026079	 0.131588
O	 2.4721969057	 0.6833332392	-2.3438192784	-0.269633
H	 0.9348967742	 2.0081360634	 0.150655374	 0.118269
H	-0.5772211338	 1.9615831388	-0.7679721578	 0.129317
H	-0.5972241881	 1.892437093	 1.0105028991	 0.112188
H	 0.1417890874	-0.4034672982	 2.1682170446	 0.142226
H	 0.9653507814	-1.600175899	 1.1631529123	 0.110259
H	 1.7081827487	-0.0143965168	 1.4463023481	 0.109538
H	-1.9569453685	-0.2474537018	-0.8555405933	 0.118603
H	-1.3713288071	-1.6553870571	 0.043778013	 0.102474
H	-2.5318752202	 0.6576917712	 1.1062046102	 0.288141
H	 0.6911946687	-1.5400593337	-1.2560870242	 0.090975
H	 0.5697921794	 0.4928590264	-2.9419787831	 0.294891
H	 2.8063522434	-0.3059893763	-0.6148027445	 0.107669
75.7093	100.7775	126.4135	195.0061	229.0768	253.801	269.0912	297.6117	315.3925	335.0477	344.2843	365.4614	385.0826	453.1214	494.3602	608.773	728.358	779.9236	838.4196	915.2129	932.1255	955.7586	961.9603	1013.5405	1047.0444	1078.3446	1133.6668	1164.7168	1208.6543	1231.821	1269.1303	1296.6259	1341.1089	1386.3991	1390.8334	1401.0221	1407.3212	1426.4292	1441.183	1486.8508	1497.3457	1502.3611	1513.8798	1517.4589	1802.6608	2922.909	2964.398	3026.1044	3030.5723	3037.4187	3077.1167	3095.6993	3098.9754	3118.843	3121.9038	3677.2901	3838.0881
CC(C)(CO)C(O)C=O	CC(C)(CO)[C@@H](O)C=O	
InChI=1S/C6H12O3/c1-6(2,4-8)5(9)3-7/h3,5,8-9H,4H2,1-2H3	InChI=1S/C6H12O3/c1-6(2,4-8)5(9)3-7/h3,5,8-9H,4H2,1-2H3/t5-/m0/s1
