19
gdb 119298	2.13065	1.44305	1.1071	1.8952	77.56	-0.2435	0.0246	0.2681	1194.5584	0.156407	-422.953479	-422.943699	-422.942755	-422.988816	34.919	
C	 0.3893586409	 0.6177804705	 0.4514180587	-0.237608
O	-0.2091980075	 0.3605977546	-0.8076505985	-0.226984
C	 0.4856630325	-0.5521242005	-1.6109765351	-0.113242
C	 0.4184555409	-2.018614554	-1.152313261	 0.171054
C	 1.2282343923	-2.9985030273	-2.0521538605	-0.326897
C	 2.0343980292	-3.2947432978	-0.7753293292	-0.066405
O	 1.3196745735	-2.2844643079	-0.0322957721	-0.302514
C	-0.9461041857	-2.4367335425	-0.8554207851	 0.360782
C	-2.0674859517	-2.8035585984	-0.6266859541	-0.480072
H	 0.3778345738	-0.2617130018	 1.104727764	 0.136572
H	 1.4327276785	 0.9487627765	 0.3360980385	 0.101605
H	-0.1897992196	 1.4213343388	 0.9126190383	 0.12152
H	 0.0328208209	-0.491800665	-2.6077921404	 0.113222
H	 1.5525605592	-0.284619107	-1.6929797979	 0.086815
H	 0.6588119969	-3.8242439524	-2.4760072257	 0.126402
H	 1.789066276	-2.4934044887	-2.8417721284	 0.115823
H	 1.8786432188	-4.2941583185	-0.352042517	 0.111568
H	 3.1091767189	-3.0869141215	-0.8158589033	 0.10814
H	-3.0609263578	-3.1145515572	-0.4158620114	 0.20022
51.9766	74.6934	113.8211	147.6502	186.6279	194.1765	254.3224	337.9672	377.7184	457.8952	517.1823	543.3123	624.5588	666.9077	703.0604	773.2496	862.98	871.8044	950.3356	966.07	983.3289	1019.9097	1071.1386	1139.1051	1153.9322	1164.2675	1186.1561	1205.2743	1228.9698	1254.6012	1260.613	1334.0715	1350.0415	1397.679	1461.1088	1481.9602	1484.8525	1493.9835	1507.9937	1529.8979	2233.2453	2967.3592	2990.8888	3025.5098	3063.3432	3067.873	3068.4376	3081.6445	3119.6784	3150.8381	3500.8936
COCC1(CCO1)C#C	COC[C@]1(CCO1)C#C	
InChI=1S/C7H10O2/c1-3-7(6-8-2)4-5-9-7/h1H,4-6H2,2H3	InChI=1S/C7H10O2/c1-3-7(6-8-2)4-5-9-7/h1H,4-6H2,2H3/t7-/m1/s1
