19
gdb 34311	3.27335	1.41377	1.27039	3.6183	78.66	-0.2437	0.0313	0.275	1044.8767	0.163905	-382.091765	-382.084577	-382.083633	-382.123223	29.102	
N	 0.0244554154	-1.1151825481	-0.0154915013	-0.345964
C	 0.0130364523	 0.0411146735	 0.0103306528	 0.183017
C	-0.0092943439	 1.4911013422	 0.0272129151	 0.18888
C	-0.809008346	 2.1237310283	 1.1977048365	-0.265297
C	-1.0963654579	 3.5532866313	 0.6189925119	-0.183452
N	-0.4680172459	 3.5871078893	-0.7241411997	-0.086756
C	 1.0032950383	 3.5985054244	-0.5368674359	-0.183464
C	 1.3857691097	 2.1710216136	-0.0104906762	-0.265225
C	-0.6917403475	 2.2078461983	-1.1844699457	-0.21089
H	-1.7310910777	 1.5692454543	 1.3881894271	 0.120453
H	-0.2270017786	 2.1358259283	 2.1220286316	 0.116389
H	-2.171342434	 3.7187793729	 0.5076677676	 0.115729
H	-0.6960954589	 4.3580134375	 1.2390891273	 0.112366
H	 1.4781650092	 3.7973441009	-1.5013961024	 0.115729
H	 1.2865960893	 4.4007352641	 0.1475963302	 0.112364
H	 1.8550600308	 2.1807186296	 0.9758783089	 0.116388
H	 2.0576961871	 1.6507749089	-0.69741194	 0.120468
H	-0.1916592043	 2.0114769452	-2.1358639345	 0.119637
H	-1.7560421074	 1.9778104555	-1.2746804132	 0.11963
142.8832	158.0721	197.135	359.2207	432.6043	470.9702	507.662	546.3357	562.0181	592.5419	759.4801	792.8166	810.3791	818.8697	868.4442	921.1967	928.7008	977.0729	990.9405	997.5161	1025.792	1033.1779	1087.7791	1131.9084	1179.3162	1212.0655	1231.2073	1255.9838	1266.8632	1270.7731	1300.1699	1305.8316	1324.0537	1327.5042	1362.8769	1488.3997	1499.7167	1500.0744	1504.1707	1529.562	2351.0921	3060.7761	3062.1316	3067.2848	3069.5592	3074.4265	3103.3892	3107.6885	3120.7207	3128.0998	3128.7315
N#CC12CCN(CC1)C2	N#C[C@@]12CCN(CC1)C2	
InChI=1S/C7H10N2/c8-5-7-1-3-9(6-7)4-2-7/h1-4,6H2	InChI=1S/C7H10N2/c8-5-7-1-3-9(6-7)4-2-7/h1-4,6H2
