16
gdb 8509	3.86541	2.10754	1.65839	1.2678	64.59	-0.2516	0.0693	0.3208	791.3467	0.129906	-383.660055	-383.653145	-383.6522	-383.690479	27.924	
O	-0.0511873122	 1.3143743166	 0.0441966972	-0.476805
C	 0.0542235138	-0.0606335152	 0.0572364103	 0.42098
C	 0.7683269403	-0.9733233781	 1.0808633588	-0.398903
C	 0.0797849099	-1.9200035172	 0.0706830746	 0.420979
O	 0.1265418017	-3.2964324278	-0.001322558	-0.476805
C	-1.1875629809	-0.9899920003	-0.0802292073	-0.151296
C	-1.0948354253	-1.0184639876	-1.6206672151	-0.274681
C	 0.3782040305	-1.0135062814	-1.1597018458	-0.151297
H	 0.8322965239	 1.6872690836	-0.0469585795	 0.285446
H	 1.863939433	-0.9676730676	 1.0774213528	 0.089612
H	 0.3757418552	-0.9619357394	 2.1036824589	 0.089612
H	-0.2668988531	-3.657451406	 0.8004086683	 0.285446
H	-2.0625239355	-0.9765458124	 0.5721947164	 0.068418
H	-1.446417429	-1.9278901637	-2.1144779375	 0.100437
H	-1.4455611219	-0.1260522378	-2.1451752205	 0.100438
H	 1.2991559695	-1.0258410359	-1.7454403637	 0.068418
235.6697	250.5869	261.0382	309.4767	327.9488	422.6567	434.9714	510.2891	607.7238	671.7068	677.7752	791.5679	860.1335	889.1199	914.9524	945.7834	983.5704	1036.1868	1039.3172	1070.5715	1087.1179	1108.6096	1122.9229	1140.7118	1153.6859	1173.8131	1226.7954	1272.226	1282.4642	1309.1874	1368.4743	1417.6683	1494.9404	1517.4704	3028.602	3056.4202	3090.503	3096.7151	3103.0681	3117.4584	3806.0178	3806.2104
OC12CC3(O)C1CC23	O[C@@]12C[C@@]3(O)[C@@H]1C[C@@H]23	
InChI=1S/C6H8O2/c7-5-2-6(8)3(5)1-4(5)6/h3-4,7-8H,1-2H2	InChI=1S/C6H8O2/c7-5-2-6(8)3(5)1-4(5)6/h3-4,7-8H,1-2H2/t3-,4+,5+,6-
