17
gdb 67144	2.07185	1.84255	1.50363	3.9011	72.6	-0.2229	0.0013	0.2242	991.8514	0.13407	-421.783601	-421.775219	-421.774275	-421.816441	31.194	
C	-0.1384442538	 1.5170734003	-0.039892438	-0.52603
C	 0.0300977341	 0.0352478009	-0.0071205966	 0.239353
C	 0.0720511203	-1.0917104926	-0.9685792202	-0.00354
O	 1.2253904631	-1.7245255963	-0.4060904605	-0.290041
C	 0.9473349272	-0.9631426701	 0.8004290394	-0.128107
C	-0.3889431899	-1.5511539744	 1.3132832037	 0.412515
O	-0.7872102634	-1.9189874585	 2.3842328083	-0.341604
C	-1.0674203737	-1.1192570481	 0.0538843017	 0.099713
C	-2.529280543	-1.0672309387	-0.2577065619	-0.51297
H	 0.7800306178	 2.0114848949	-0.3736899461	 0.141089
H	-0.9418098964	 1.8000870382	-0.7273609401	 0.134979
H	-0.3938548606	 1.9087213136	 0.9503102662	 0.141367
H	-0.0959365646	-1.1485398702	-2.0376630958	 0.119775
H	 1.8096173396	-0.7560540141	 1.4284698935	 0.104491
H	-3.1000297154	-0.7261584155	 0.6116366619	 0.143351
H	-2.7388896466	-0.3895102709	-1.0920538687	 0.123098
H	-2.9038639748	-2.0579688684	-0.5356008169	 0.14256
115.2363	135.5242	168.431	182.8423	214.463	305.4024	322.0281	439.1721	529.5285	610.9066	632.3759	642.5678	710.7017	781.8601	816.1243	834.1852	940.1361	968.6349	976.1611	1009.8944	1047.988	1085.9619	1105.9153	1125.9806	1163.3569	1190.4643	1208.5391	1269.0649	1371.7128	1414.2432	1417.9425	1457.3869	1480.3108	1485.2876	1491.5926	1500.1652	1870.5846	3031.3706	3033.6714	3096.5118	3097.6746	3104.2574	3105.1677	3168.0854	3190.4139
CC12C3OC1C(=O)C23C	C[C@@]12[C@H]3O[C@@H]1C(=O)[C@@]23C	
InChI=1S/C7H8O2/c1-6-3(8)4-7(6,2)5(6)9-4/h4-5H,1-2H3	InChI=1S/C7H8O2/c1-6-3(8)4-7(6,2)5(6)9-4/h4-5H,1-2H3/t4-,5+,6-,7+/m1/s1
