23
gdb 105258	2.34461	1.24878	1.00747	1.594	86.38	-0.2345	0.0736	0.3081	1323.7388	0.20602	-384.420266	-384.410369	-384.409425	-384.454954	37.4	
C	-0.8393542815	 1.6347660951	 2.1369012989	-0.394852
C	-0.6986929346	 0.9869209208	 0.7511347898	-0.253893
C	-1.756098591	-0.0575889418	 0.4122907107	 0.319648
N	-3.1133969947	 0.5014217961	 0.1837096532	-0.375818
C	-2.3836547896	-0.0857779178	-0.9499705073	-0.040081
C	-2.0330743311	 0.8210641776	-2.1060640723	-0.40964
C	-1.7216946465	-1.396694109	 1.1074853597	-0.059353
C	-0.6140658223	-1.8561017287	 1.9825506646	-0.252548
N	-1.9279218001	-1.5405686039	 2.5662202187	-0.329838
H	-0.1741043425	 2.4994333852	 2.224371439	 0.113734
H	-1.8655415672	 1.9829470374	 2.2884500533	 0.136506
H	-0.5793979263	 0.9544587829	 2.9542669647	 0.112195
H	-0.7620850836	 1.7822598399	 0.0054967402	 0.104925
H	 0.2968488538	 0.5420139486	 0.6365469364	 0.097689
H	-3.8193888813	-0.1425098159	 0.5335036192	 0.23257
H	-2.7062865934	-1.0766138646	-1.2709063856	 0.080075
H	-1.8259030017	 1.8406236407	-1.7759361546	 0.130767
H	-1.1620285481	 0.4438432245	-2.6530727917	 0.116706
H	-2.8730947254	 0.8702971592	-2.8074842056	 0.121157
H	-2.2576417465	-2.1687609357	 0.5564317656	 0.084719
H	-0.3427210837	-2.9081735666	 2.0029512453	 0.117242
H	 0.2147419158	-1.1787355004	 2.1664203318	 0.114516
H	-1.8975953785	-0.6266817837	 3.009386706	 0.233574
65.8963	105.9582	147.3346	178.0029	217.6878	223.6834	259.2511	322.6909	330.4085	400.2794	446.0813	499.0494	559.25	675.0082	773.7482	807.6103	826.7581	853.2525	878.5382	940.7054	954.1558	990.1039	998.9835	1019.9369	1047.2269	1074.2464	1094.4516	1105.2845	1121.5023	1139.7441	1160.8149	1195.6487	1247.6903	1254.7074	1267.3448	1307.3468	1313.8596	1351.5536	1386.9162	1404.3152	1408.3573	1429.4801	1462.0465	1480.8742	1491.9851	1502.1618	1506.0105	1511.1215	1516.618	3035.9826	3036.8553	3043.4059	3089.0785	3093.2438	3095.8715	3105.0847	3107.8073	3112.5379	3116.5875	3135.6023	3193.9716	3490.6468	3519.9263
CCC1(NC1C)C1CN1	CC[C@]1(N[C@H]1C)[C@H]1CN1	
InChI=1S/C7H14N2/c1-3-7(5(2)9-7)6-4-8-6/h5-6,8-9H,3-4H2,1-2H3	InChI=1S/C7H14N2/c1-3-7(5(2)9-7)6-4-8-6/h5-6,8-9H,3-4H2,1-2H3/t5-,6+,7+/m0/s1
