15
gdb 29239	3.20913	1.4316	0.99601	4.1204	72.95	-0.235	-0.0378	0.1972	1122.4961	0.113779	-454.022648	-454.014728	-454.013784	-454.055268	29.449	
C	 0.0056742416	 1.5211837706	-0.0685778968	-0.473813
C	-0.0032952076	 0.0236825856	 0.0017711329	 0.184546
C	-1.108930449	-0.7100758216	 0.2043652822	-0.061706
N	-1.0686508229	-2.0911016633	 0.2617121303	-0.392856
C	 0.0854888684	-2.8290525519	 0.1205850563	 0.484717
O	 0.1307960498	-4.0262291242	 0.1698671372	-0.367005
O	 1.2115595145	-2.0868861438	-0.0857273653	-0.261701
C	 1.2591947943	-0.6867875021	-0.1584553634	 0.342724
N	 2.3672830989	-0.1085425578	-0.3551107595	-0.515651
H	 0.6613932467	 1.9424834829	 0.6997492017	 0.148023
H	 0.3984812979	 1.8627458826	-1.0312745563	 0.148094
H	-1.0010212202	 1.9260287113	 0.0657251781	 0.11404
H	-2.0903661164	-0.270406554	 0.3340782257	 0.137673
H	-1.9045533412	-2.6310987824	 0.4149923393	 0.278666
H	 3.1232551552	-0.7886457019	-0.4392013822	 0.23425
93.2695	131.3067	161.6224	284.4502	292.9657	379.5102	387.5817	471.6293	524.1995	544.3618	593.5999	728.6009	741.1006	762.0142	808.39	876.7127	906.0806	948.821	1003.3654	1057.5611	1074.3702	1153.4898	1195.5911	1227.9107	1368.932	1403.5463	1419.7446	1466.9329	1483.5421	1493.6805	1721.1513	1736.8177	1873.5811	3041.0025	3100.8514	3120.5445	3209.9022	3494.0307	3660.4826
CC1=CNC(=O)OC1=N	CC1=C(OC(=O)N[CH]1)[NH]	
InChI=1S/C5H6N2O2/c1-3-2-7-5(8)9-4(3)6/h2,6H,1H3,(H,7,8)	InChI=1S/C5H6N2O2/c1-3-2-7-5(8)9-4(3)6/h2,6H,1H3,(H,7,8)
