21
gdb 117687	4.11772	0.74404	0.72784	0.74	80.89	-0.2569	0.0419	0.2988	1619.6438	0.178108	-424.18805	-424.176876	-424.175932	-424.224196	40.754	
C	 0.0501192392	 1.6530875404	 0.0532989226	-0.402831
C	-0.0077865421	 0.1242140149	 0.0301920203	 0.325287
O	 0.6734330899	-0.2978935637	 1.212060707	-0.451728
C	-1.4537464723	-0.4130290019	 0.0235804878	-0.188858
C	-2.2917922694	-0.0011824319	 1.2286970992	-0.094974
O	-3.5082878337	-0.7352490641	 1.1622888661	-0.424396
C	 0.7174616367	-0.4322854706	-1.2301418275	-0.407358
C	 2.1287068044	-0.0823246944	-1.3169446305	 0.324235
C	 3.2930021173	 0.2046448222	-1.3983182064	-0.444921
H	 1.0864998115	 1.9873075985	-0.0305375673	 0.138369
H	-0.5246696952	 2.0763321205	-0.7758315797	 0.111092
H	-0.3563309972	 2.0362822037	 0.9919075377	 0.125123
H	 0.7349976745	-1.259485263	 1.1978359302	 0.278171
H	-1.9646996791	-0.1015481676	-0.8951220745	 0.102609
H	-1.4240180503	-1.5109468895	 0.0038711587	 0.093827
H	-1.7341461075	-0.2221456793	 2.1495451211	 0.099919
H	-2.4858731624	 1.0816384585	 1.2092732157	 0.08757
H	-4.0436101075	-0.4930537439	 1.9233990573	 0.285254
H	 0.6128506494	-1.5265037065	-1.2344833595	 0.118105
H	 0.1924758323	-0.0784055767	-2.1264635978	 0.131723
H	 4.3221166616	 0.4570234845	-1.4651276305	 0.193783
63.544	89.0853	110.0183	117.1649	197.4856	235.6626	266.145	300.3518	309.4112	331.6409	350.6688	351.6622	401.9622	413.0236	468.4674	616.0825	637.6491	663.6499	785.4308	800.2526	881.1794	922.1529	965.5527	978.3596	1020.7263	1044.1566	1067.3685	1127.15	1162.9486	1178.9747	1221.7475	1248.7738	1260.0615	1312.4957	1337.1892	1348.6467	1389.1619	1424.9348	1460.5478	1463.3583	1484.1837	1488.8061	1507.1145	1535.1652	2238.5737	2986.2495	3007.0827	3018.879	3023.9237	3047.2512	3051.0624	3070.4821	3125.0823	3135.1853	3506.5459	3800.0669	3829.918
CC(O)(CCO)CC#C	C[C@@](O)(CCO)CC#C	
InChI=1S/C7H12O2/c1-3-4-7(2,9)5-6-8/h1,8-9H,4-6H2,2H3	InChI=1S/C7H12O2/c1-3-4-7(2,9)5-6-8/h1,8-9H,4-6H2,2H3/t7-/m0/s1
