18
gdb 19311	7.36614	0.79547	0.78274	0.1934	84.75	-0.2245	0.0511	0.2757	1510.4323	0.15392	-310.61687	-310.608619	-310.607675	-310.650999	30.095	
C	-0.0432155567	 1.4965056039	-0.0559396287	-0.251443
C	 1.3077858758	 0.8519194656	 0.0299277438	-0.250682
C	 0.0600148462	-0.0188415398	 0.0374176931	-0.15612
C	-0.3372226303	-0.7006616159	 1.2346490389	 0.072159
C	-0.6746927099	-1.2808327466	 2.2381712751	 0.072149
C	-1.0662826787	-1.9721950489	 3.4317853899	-0.15612
C	-2.1857225019	-1.4258494498	 4.3058641921	-0.251443
C	-2.4155611343	-2.6717906077	 3.5040691754	-0.25068
H	-0.4159593742	 2.0175165286	 0.8176901782	 0.124045
H	-0.3598667451	 1.9151748127	-1.0046845467	 0.115514
H	 1.927279502	 0.8231150642	-0.8593908075	 0.115887
H	 1.8541921722	 0.9344285025	 0.9617017784	 0.125111
H	-0.1366638498	-0.5562961495	-0.8864226521	 0.105533
H	-0.2582377323	-2.4656702575	 3.9652328356	 0.105533
H	-2.065175557	-1.5138706322	 5.3798239278	 0.115514
H	-2.6641147919	-0.5116444897	 3.9757282906	 0.124045
H	-3.0502623607	-2.6053828	 2.6286749745	 0.125111
H	-2.4535991835	-3.6234741099	 4.0220854715	 0.115887
27.2305	94.9305	97.0581	199.0581	218.7741	408.2698	463.8283	519.4959	541.9079	650.5764	783.0615	796.0359	819.3715	822.774	849.3781	894.1131	896.9114	931.4811	1027.8767	1061.172	1061.6658	1079.2645	1079.3237	1111.1626	1119.8633	1120.3269	1188.8892	1201.2377	1201.6952	1214.9745	1244.7447	1370.4855	1413.7784	1466.6242	1467.0816	1495.6674	1498.8404	2354.398	3135.5275	3135.7883	3139.6979	3139.7138	3145.032	3145.4078	3224.5586	3224.5708	3239.7375	3239.7439
C1CC1C#CC1CC1	C1CC1C#CC1CC1	
InChI=1S/C8H10/c1-2-7(1)5-6-8-3-4-8/h7-8H,1-4H2	InChI=1S/C8H10/c1-2-7(1)5-6-8-3-4-8/h7-8H,1-4H2
