15
gdb 11649	3.35117	1.88346	1.49566	1.9467	69.07	-0.2407	0.0243	0.265	861.3281	0.118574	-362.551858	-362.544721	-362.543777	-362.58293	27.886	
O	 0.162854541	 1.448670211	 0.0796231888	-0.428674
C	 0.0383418723	 0.0586739991	 0.0339524851	 0.099741
C	-0.084619447	-0.6831709084	 1.382456118	-0.067992
C	-1.5212221416	-0.1235431202	 1.5345730384	-0.23409
C	-1.3813847393	-0.633142787	 0.0679645317	 0.215468
N	-0.7066072962	-1.86694832	 0.6592481611	-0.343745
C	-2.3621518639	-0.6888035226	-0.9739449889	 0.040151
C	-3.1658478832	-0.7037187127	-1.8692042798	-0.359567
H	 0.0290015831	 1.7965112822	-0.8083935652	 0.292979
H	 0.7295151586	-0.4032431021	-0.6866232335	 0.069645
H	 0.6752015862	-0.818448132	 2.1507828847	 0.091245
H	-2.1908836851	-0.7141755784	 2.1589173537	 0.113222
H	-1.6213674274	 0.9517493045	 1.6647463247	 0.119644
H	-0.0376606439	-2.2427736825	-0.0242293906	 0.207373
H	-3.8845771736	-0.7282476808	-2.6507412781	 0.184602
125.5458	167.6594	272.4222	321.9311	331.1892	492.9691	497.8349	567.592	579.3497	623.1058	633.8198	663.5708	773.9443	840.034	914.5378	924.4161	953.2602	971.9649	1049.9448	1087.2456	1120.4353	1152.8889	1173.8378	1204.1274	1221.7285	1252.3046	1282.1716	1303.0264	1311.6563	1423.2814	1490.1236	2231.8443	2999.4993	3101.3519	3132.748	3187.2904	3354.7783	3499.6994	3812.7327
OC1C2CC1(N2)C#C	O[C@H]1[C@H]2C[C@@]1(N2)C#C	
InChI=1S/C6H7NO/c1-2-6-3-4(7-6)5(6)8/h1,4-5,7-8H,3H2	InChI=1S/C6H7NO/c1-2-6-3-4(7-6)5(6)8/h1,4-5,7-8H,3H2/t4-,5+,6+/m1/s1
