16
gdb 43811	2.06953	1.70711	1.05004	5.0833	74.31	-0.2677	-0.0474	0.2202	1121.7976	0.123149	-400.752139	-400.743932	-400.742988	-400.785608	30.41	
O	 0.0415404534	 0.0415231766	-0.292153549	-0.261277
C	-0.0147892673	 1.1980094905	-0.0222354356	 0.410579
C	-1.1327145296	 2.1729110546	 0.3685049096	-0.429587
C	-0.0452730741	 3.2031398394	 0.7199810949	 0.343196
C	-0.125689447	 4.6971534851	 0.6768340097	-0.322559
C	 0.0557439732	 3.9809464772	 1.9964313945	-0.317386
C	 1.0799443861	 2.3173624947	 0.1214905867	-0.359294
C	 2.2454201302	 2.03126252	 0.9315985757	 0.299239
N	 3.1576961126	 1.8166352154	 1.6091933443	-0.327725
H	-1.7654190934	 2.4397570143	-0.4856790644	 0.143365
H	-1.7745963075	 1.8232036249	 1.1821625267	 0.148204
H	 0.7206097279	 5.2438880568	 0.2737756128	 0.128379
H	-1.0903776519	 5.1458885305	 0.4630438522	 0.124417
H	-0.7868075787	 3.9403118543	 2.6787477719	 0.124496
H	 1.025127454	 4.0356887047	 2.4807181349	 0.145419
H	 1.391864122	 2.649487501	-0.8764238448	 0.150534
45.2668	116.2607	148.4698	250.3133	298.5738	360.8421	409.6636	430.1772	503.0765	534.1382	602.0655	725.2992	768.3326	784.3269	856.7384	885.1202	943.1918	977.1074	1015.9382	1041.4168	1054.1211	1066.1754	1087.6652	1093.8059	1177.5466	1188.3196	1212.202	1240.0917	1299.4686	1373.5697	1439.5243	1465.631	1504.2183	1916.5724	2352.7214	3042.6438	3048.1787	3103.006	3128.4515	3133.0838	3208.8858	3223.82
O=C1CC2(CC2)C1C#N	O=C1CC2(CC2)[C@H]1C#N	
InChI=1S/C7H7NO/c8-4-5-6(9)3-7(5)1-2-7/h5H,1-3H2	InChI=1S/C7H7NO/c8-4-5-6(9)3-7(5)1-2-7/h5H,1-3H2/t5-/m0/s1
