20
gdb 74398	2.90179	1.57876	1.23121	1.3841	79.8	-0.2401	0.0256	0.2657	1090.523	0.171496	-403.166518	-403.158382	-403.157438	-403.198634	32.506	
C	 0.0156563536	 1.4294354705	 0.0007508385	-0.465868
C	-0.063119154	-0.0645441926	 0.0139942167	 0.383819
N	-1.1528788645	-0.7156439038	-0.0663513422	-0.334946
C	-0.99710751	-2.1809165158	-0.0342007716	 0.323568
C	-2.341429934	-2.8633967614	-0.1352180064	-0.464119
C	-0.0069267285	-2.5310154387	 1.1245324695	-0.270501
C	 1.0941960901	-2.083981681	 0.1355782313	 0.106464
C	 0.167453583	-2.5592818037	-1.0070286338	-0.270495
O	 1.1665189208	-0.6458467405	 0.1223278633	-0.272029
H	 0.6319909773	 1.7705638112	-0.8373339363	 0.138239
H	-0.9869321336	 1.8463075777	-0.086985149	 0.145822
H	 0.4881470839	 1.7938045353	 0.9186456133	 0.138253
H	-2.8431623226	-2.5815549635	-1.0665932637	 0.121726
H	-2.2331589453	-3.952519314	-0.1111851887	 0.101387
H	-2.9879003099	-2.5570607008	 0.6935478697	 0.121743
H	-0.1069085217	-1.982398642	 2.0635839028	 0.10476
H	 0.0461246825	-3.6061601812	 1.3112975353	 0.10184
H	 2.1193162783	-2.4413928355	 0.2242064149	 0.083739
H	 0.2478889384	-3.6388333841	-1.1543920183	 0.101838
H	 0.2225315863	-2.0357041961	-1.9639152751	 0.104761
135.7129	175.9176	224.9137	244.8684	258.2482	376.6477	400.6211	446.5628	463.5032	475.2736	625.8883	655.1216	660.7829	831.9398	840.7026	862.1584	889.4575	899.6015	943.9085	986.627	1007.5636	1012.0331	1058.0734	1059.3189	1066.3594	1124.7998	1170.9794	1200.8944	1200.9318	1245.2344	1258.329	1277.6567	1324.8119	1374.1423	1407.1253	1415.2457	1465.652	1475.6992	1476.1308	1481.5861	1490.6905	1497.4028	1720.8081	3032.5267	3047.0153	3061.4166	3067.9337	3103.492	3104.6389	3107.0773	3122.2987	3126.5541	3129.9703	3165.167
CC1=NC2(C)CC(C2)O1	C[C]1[N][C@]2(C)C[C@@H](C2)O1	
InChI=1S/C7H11NO/c1-5-8-7(2)3-6(4-7)9-5/h6H,3-4H2,1-2H3	InChI=1S/C7H11NO/c1-5-8-7(2)3-6(4-7)9-5/h6H,3-4H2,1-2H3/t6-,7+
