22
gdb 97588	2.46754	0.88946	0.75967	1.5992	91.69	-0.2309	0.0483	0.2792	1644.0603	0.192383	-367.160997	-367.150403	-367.149458	-367.198043	37.853	
C	-0.5020272674	 1.6239799917	 0.3255239602	-0.364957
C	-0.8976899368	 0.7389047781	-0.8704152179	-0.314957
C	-1.9348272303	-0.2366287109	-0.5465216378	 0.023016
C	-2.7804737756	-1.0496189152	-0.2649712794	 0.08951
C	-3.8206575408	-2.0293721702	 0.0836636239	-0.1029
C	-3.2973602478	-3.0605719067	 1.0951100066	-0.374171
N	-5.0801734638	-1.4648420965	 0.6045650801	-0.071974
C	-5.0219704098	-0.2887517221	 1.4663909923	-0.222746
C	-5.5590324453	-0.1928028103	 0.0799457988	-0.224253
H	 0.278119094	 2.3334038956	 0.0338652155	 0.11513
H	-1.3629009447	 2.1904952705	 0.6911714647	 0.127578
H	-0.1238236715	 1.0149523673	 1.1510041893	 0.128508
H	-1.2372299182	 1.3730899214	-1.6993974579	 0.128741
H	-0.0110525724	 0.2093695835	-1.242405704	 0.130933
H	-4.1012177142	-2.562795321	-0.8345114396	 0.108369
H	-2.4218251318	-3.5802185797	 0.6976415821	 0.119043
H	-3.009545424	-2.5673866779	 2.0280626132	 0.122542
H	-4.0829599618	-3.7883430957	 1.3129628434	 0.123451
H	-5.6899518396	-0.3054039088	 2.3229089354	 0.11156
H	-4.0518580164	 0.171384569	 1.641349848	 0.117968
H	-4.9371482247	 0.3296231838	-0.6436925661	 0.118099
H	-6.6290607172	-0.137623866	-0.1002748109	 0.11151
25.1291	74.3584	85.4729	108.9044	206.9486	219.874	231.8063	255.6421	317.1464	350.105	404.1905	480.8391	554.2489	576.4604	718.8408	737.5593	785.7219	827.2757	897.1884	919.6785	970.3072	1025.3927	1027.1534	1077.8747	1091.209	1104.1351	1113.8387	1115.7348	1125.7064	1167.5983	1178.6263	1191.819	1286.8728	1308.3787	1330.6161	1347.5566	1351.0279	1399.9531	1409.2057	1474.9314	1480.6299	1486.0727	1494.6547	1495.6334	1505.3265	1509.7888	2348.5955	3014.4957	3020.0752	3044.1145	3046.758	3047.0722	3101.4938	3103.7375	3117.4962	3122.8057	3123.132	3131.2559	3182.2826	3195.7842
CCC#CC(C)N1CC1	CCC#C[C@@H](C)N1CC1	
InChI=1S/C8H13N/c1-3-4-5-8(2)9-6-7-9/h8H,3,6-7H2,1-2H3	InChI=1S/C8H13N/c1-3-4-5-8(2)9-6-7-9/h8H,3,6-7H2,1-2H3/t8-/m1/s1
