21
gdb 96177	2.24452	1.85029	1.17108	1.6376	78.39	-0.2453	0.0808	0.3261	1106.9561	0.184234	-424.217083	-424.208957	-424.208012	-424.249612	31.771	
C	-0.078634394	 1.5773755147	 0.0298909601	-0.403909
C	 0.0652342654	 0.0531401915	-0.026251787	-0.008904
C	 0.7498503012	-0.4396653455	-1.3097091641	-0.209411
C	 1.0190206427	-1.9389739091	-1.2155368623	-0.080205
O	 1.9477329877	-2.219733585	-0.177968306	-0.265373
C	 1.5362685513	-1.8341552775	 1.1163195043	 0.058013
C	 2.6705304822	-1.0640911129	 1.8087208883	-0.08642
O	 2.0318598153	 0.2004953668	 1.5230730243	-0.29678
C	 0.7899397166	-0.4769826629	 1.2059583689	 0.121082
H	 0.9060077072	 2.0506451687	 0.0760742532	 0.139963
H	-0.6010993121	 1.9503343402	-0.8569288118	 0.108884
H	-0.644012627	 1.8922652439	 0.913306321	 0.111915
H	-0.9391309809	-0.3964803078	 0.0007889019	 0.071028
H	 0.1202621274	-0.2211856364	-2.1800736228	 0.091897
H	 1.705457741	 0.0780445714	-1.4524263402	 0.114142
H	 0.0754727198	-2.4899362306	-1.0573690649	 0.082027
H	 1.4786661969	-2.3242859972	-2.129973516	 0.108148
H	 1.0848149463	-2.6817941374	 1.6476318451	 0.070476
H	 2.7515034946	-1.2439958964	 2.8891038382	 0.093662
H	 3.6507005924	-1.1574828554	 1.3330232517	 0.115519
H	 0.1207256859	-0.4485081331	 2.0798510081	 0.064248
110.1877	134.8133	216.3387	230.6674	280.2503	328.1983	391.4978	406.9929	470.9356	581.2376	609.4186	769.9898	813.1635	851.2816	874.5602	914.482	943.229	977.9578	1000.7868	1006.0888	1009.2792	1043.5638	1076.7073	1093.5631	1140.6096	1153.5668	1185.9386	1211.3101	1233.005	1250.1605	1282.0797	1292.3176	1327.3804	1338.429	1357.4779	1367.6359	1379.9146	1399.4154	1408.0969	1415.6953	1474.481	1493.1211	1501.7694	1505.0958	1506.3917	2955.8409	2973.82	2993.6685	3008.7436	3025.9751	3033.2154	3036.6389	3080.6299	3086.6912	3094.6663	3100.2741	3120.3066
CC1CCOC2COC12	C[C@H]1CCO[C@H]2CO[C@@H]12	
InChI=1S/C7H12O2/c1-5-2-3-8-6-4-9-7(5)6/h5-7H,2-4H2,1H3	InChI=1S/C7H12O2/c1-5-2-3-8-6-4-9-7(5)6/h5-7H,2-4H2,1H3/t5-,6-,7-/m0/s1
