25
gdb 122111	2.97371	0.66053	0.56929	2.6712	90.75	-0.2446	-0.0181	0.2265	2067.5255	0.225788	-389.518341	-389.506523	-389.505579	-389.557076	41.026	
C	 0.0763015108	 1.5829189566	-0.0225690235	-0.38086
C	 0.0205276341	 0.053144324	 0.0054774559	-0.165129
C	-1.410146045	-0.4959213776	 0.0099566782	-0.172934
C	-1.4687291783	-2.0280531822	 0.0297305857	-0.212266
C	-2.8996782609	-2.6039372855	 0.032370881	-0.055034
C	-2.8901080821	-4.1418242208	-0.1094216909	-0.196419
C	-4.2810064648	-4.7557532758	-0.2966211119	-0.391718
C	-3.5913475033	-2.2311013837	 1.3283789069	 0.174208
O	-4.6164716315	-1.6088679393	 1.4331879725	-0.257879
H	 1.1089439744	 1.9454191724	-0.0237088084	 0.111679
H	-0.4174209951	 1.9804588768	-0.9162267997	 0.115135
H	-0.4272457842	 2.0131244619	 0.8502220279	 0.11682
H	 0.5603150003	-0.3501591566	-0.8617922394	 0.094356
H	 0.5532001669	-0.3174825993	 0.8914094208	 0.094749
H	-1.9507513248	-0.0909450022	 0.8761130653	 0.105887
H	-1.9461389454	-0.1252560361	-0.8744320769	 0.099251
H	-0.9375313997	-2.4267468914	-0.8437896288	 0.099371
H	-0.9278820467	-2.4069181993	 0.9091383598	 0.097016
H	-3.4803768613	-2.1628764712	-0.7865722799	 0.088316
H	-2.2522706448	-4.4021270397	-0.9624225003	 0.102848
H	-2.4047837798	-4.5786433728	 0.7743256845	 0.100166
H	-4.2184836517	-5.8443196248	-0.3871848594	 0.115425
H	-4.9418731697	-4.5273995294	 0.5457045043	 0.130219
H	-4.7619941437	-4.3708658675	-1.2020628392	 0.122197
H	-3.0532384037	-2.6037095166	 2.2361768055	 0.064597
44.8255	52.0162	68.8399	90.9334	107.7382	136.5709	214.7242	234.7387	245.8627	283.872	306.5098	345.6849	435.5131	455.6524	557.1923	730.1867	770.7083	780.3441	874.9425	901.5335	913.6703	958.0829	991.0584	1010.6414	1040.2328	1047.2371	1067.718	1088.9675	1135.8803	1152.458	1181.2122	1236.0056	1261.5777	1278.0668	1305.9993	1322.3346	1332.6144	1360.0798	1368.8942	1372.5023	1400.5315	1414.3861	1416.7032	1426.053	1478.3549	1484.8306	1490.0427	1498.9541	1499.6974	1500.2479	1504.7912	1512.3064	1833.1354	2818.5155	3003.4697	3008.7186	3015.6331	3018.6387	3030.1084	3030.577	3036.6238	3040.981	3046.0942	3056.8407	3065.5886	3097.1331	3102.6052	3105.0438	3109.1476
CCCCC(CC)C=O	CCCC[C@@H](CC)C=O	
InChI=1S/C8H16O/c1-3-5-6-8(4-2)7-9/h7-8H,3-6H2,1-2H3	InChI=1S/C8H16O/c1-3-5-6-8(4-2)7-9/h7-8H,3-6H2,1-2H3/t8-/m1/s1
