12
gdb 131921	4.17838	1.3414	1.05846	6.1027	64.86	-0.28	-0.0903	0.1898	1036.0362	0.079096	-468.765362	-468.758655	-468.757711	-468.797669	23.867	
O	-0.0464073908	 0.0824349334	-0.421985032	-0.334355
N	-0.0281644723	 1.2218304663	 0.0072396802	 0.400848
O	 0.9380837585	 1.831155676	 0.4289945747	-0.334354
C	-1.3405243899	 1.9556312105	 0.0175786406	 0.431756
N	-1.2615661802	 3.2430810259	-0.251834298	-0.24753
C	-2.4342293088	 3.8842481517	-0.25503785	 0.015045
C	-3.6301269761	 3.2358714527	 0.035623308	-0.116311
C	-3.5528675031	 1.8756044985	 0.3162497282	 0.015044
N	-2.3927333725	 1.212378626	 0.2946620355	-0.247532
H	-2.4048259019	 4.9437820596	-0.4938040444	 0.14255
H	-4.5752201967	 3.7643241932	 0.043072948	 0.132291
H	-4.4372275261	 1.2941227162	 0.5617539091	 0.14255
37.2797	141.1752	245.1068	388.1671	397.4526	415.9643	564.384	633.1312	731.363	741.2699	827.5152	861.4616	874.5865	1007.9409	1014.6703	1020.3307	1090.887	1124.0103	1227.8591	1257.0007	1328.5046	1413.8869	1436.2358	1473.6794	1603.2046	1622.0789	1670.6422	3173.7299	3176.431	3219.0601
O=N(=O)C1=NC=CC=N1	O=N(=O)c1ncccn1	
InChI=1S/C4H3N3O2/c8-7(9)4-5-2-1-3-6-4/h1-3H	InChI=1S/C4H3N3O2/c8-7(9)4-5-2-1-3-6-4/h1-3H
