18
gdb 88501	2.27316	1.45564	1.19667	3.652	76.99	-0.2397	0.0118	0.2514	1120.6297	0.14733	-398.071923	-398.063043	-398.062099	-398.105829	32.674	
C	 0.048213889	 1.5656091903	-0.4523621086	-0.337187
N	-0.0128834887	 0.1577917682	-0.0740575068	-0.083505
C	 1.1961291749	-0.6499096488	-0.1662264932	-0.272272
C	 0.6073346497	-0.3086271381	 1.160153918	-0.062151
C	 1.3097360545	 0.5828438769	 2.1622236176	 0.152526
C	 0.4809243174	 1.1816094743	 3.2605308026	-0.257996
N	 1.4210990684	 0.1063214134	 3.5608112947	-0.335546
C	 2.4858393353	 1.3022740892	 1.7176651302	 0.283467
N	 3.4152907208	 1.8811731209	 1.3460008008	-0.3575
H	 1.0158829982	 2.050797356	-0.2674104985	 0.135835
H	-0.1702196483	 1.6403639855	-1.5216789794	 0.132533
H	-0.7281684925	 2.1159653585	 0.0882366415	 0.124826
H	 1.0790244306	-1.6475373944	-0.5815861799	 0.121521
H	 2.1279750402	-0.1505695702	-0.4282722146	 0.138711
H	 0.0090443976	-1.0620361096	 1.6755548489	 0.089142
H	 0.7480143409	 2.1521114081	 3.6662048475	 0.147144
H	-0.5841778295	 0.9668613484	 3.2269903876	 0.133484
H	 0.9414853413	-0.7874227186	 3.6473272316	 0.246966
46.8469	140.5013	153.1115	207.3198	235.9061	261.1656	314.1002	346.1423	426.2293	496.6627	579.4489	604.2624	675.103	759.8344	843.5167	878.9095	911.5701	941.6369	981.8582	988.9079	1042.7877	1097.8426	1103.7931	1130.3799	1137.8355	1145.9166	1171.1071	1206.5852	1243.5265	1295.7071	1320.8014	1367.3183	1407.2078	1453.6048	1493.1222	1503.1965	1505.1055	1515.9583	2355.1298	3013.0162	3082.7035	3084.4303	3094.3113	3107.9908	3113.8082	3180.9698	3209.1664	3493.9504
CN1CC1C1(CN1)C#N	CN1C[C@H]1[C@]1(CN1)C#N	
InChI=1S/C6H9N3/c1-9-2-5(9)6(3-7)4-8-6/h5,8H,2,4H2,1H3	InChI=1S/C6H9N3/c1-9-2-5(9)6(3-7)4-8-6/h5,8H,2,4H2,1H3/t5-,6+,9?/m0/s1
