20
gdb 15083	2.63545	1.49389	1.04628	3.2308	71.09	-0.2522	0.079	0.3312	1169.5412	0.175931	-386.116675	-386.107502	-386.106558	-386.150845	33.168	
C	-0.3297809165	 1.4734258043	-0.2583245304	-0.390935
C	 0.014006923	-0.0161181374	-0.155922766	-0.190095
C	 1.0546955512	-0.4997873494	-1.184324797	-0.039171
C	 2.478702745	 0.0080478902	-0.8862858708	-0.047136
O	 3.3593466296	-0.1747782327	-1.9750376227	-0.434846
C	 1.0502814642	-2.0165762564	-1.2338828827	 0.085569
C	 0.5338009519	-2.7792562025	-2.3768150958	-0.18557
O	 1.945059428	-2.6468070179	-2.171054386	-0.255664
H	 0.5415218609	 2.1103280209	-0.0798756938	 0.126457
H	-0.7215917801	 1.7190375795	-1.2512872312	 0.119426
H	-1.0919910425	 1.747041562	 0.4775419052	 0.115831
H	 0.3756309523	-0.2446529908	 0.8560329065	 0.100401
H	-0.9049253694	-0.6023446505	-0.2845048294	 0.098723
H	 0.7855074354	-0.1185158499	-2.1781513137	 0.080087
H	 2.4612196821	 1.0833457126	-0.6818765936	 0.101895
H	 2.8518109694	-0.4863732406	 0.0290455309	 0.078841
H	 3.2353228451	-1.0796827586	-2.288913747	 0.295829
H	 1.0485421914	-2.5080924457	-0.258613575	 0.097188
H	 0.1447005165	-3.7856227077	-2.2331998892	 0.121223
H	 0.1367359922	-2.2442336794	-3.2379987283	 0.121949
68.597	83.2393	140.43	192.1149	204.9126	245.3701	272.7772	382.736	394.8352	461.4202	488.419	532.9009	766.7575	811.8617	842.5846	913.0193	929.3391	962.4753	985.2322	1044.0492	1085.3063	1094.8553	1113.4534	1152.8097	1158.3261	1161.7185	1186.0677	1241.9806	1268.0303	1295.7718	1308.3474	1336.8081	1378.6725	1390.0533	1415.0624	1446.9016	1461.3314	1488.2292	1501.1135	1505.2262	1513.7114	1526.405	2940.1038	3011.6778	3024.9201	3037.5318	3046.1249	3069.8921	3088.193	3092.2961	3103.9906	3112.0009	3178.8298	3765.9998
CCC(CO)C1CO1	CC[C@@H](CO)[C@H]1CO1	
InChI=1S/C6H12O2/c1-2-5(3-7)6-4-8-6/h5-7H,2-4H2,1H3	InChI=1S/C6H12O2/c1-2-5(3-7)6-4-8-6/h5-7H,2-4H2,1H3/t5-,6+/m0/s1
