18
gdb 47539	2.65441	1.68744	1.14748	1.8023	73.43	-0.2546	0.0083	0.2629	1063.3705	0.149006	-439.06478	-439.057169	-439.056225	-439.096979	29.774	
N	-0.0429127035	 1.3460372829	-0.1383161672	-0.470649
C	 0.0219581673	 0.0935603725	 0.0099390226	 0.355788
C	-1.208088339	-0.7768171397	 0.0425293379	-0.239762
C	-1.3461543885	-1.7002953631	 1.2608328348	-0.095206
O	-0.2971008347	-2.6564437602	 1.3386263605	-0.242437
C	 0.8453868905	-2.1608876591	 1.9558916167	 0.081346
C	 2.1637829287	-2.4864436681	 1.3109062224	-0.343711
C	 1.6444304559	-1.0764342699	 1.2690595495	 0.056736
O	 1.2296375704	-0.5943373457	 0.0158147449	-0.256812
H	 0.9013851873	 1.7362537454	-0.1890611011	 0.222901
H	-2.0827976718	-0.1249495436	-0.0245369363	 0.127682
H	-1.1837835537	-1.4122751207	-0.8514712526	 0.13116
H	-1.4052299832	-1.1156461547	 2.1899124508	 0.103305
H	-2.2733027464	-2.2733380598	 1.1649105912	 0.115662
H	 0.7914171767	-2.1216178588	 3.0449750957	 0.092038
H	 3.0199334692	-2.7178115492	 1.9336384951	 0.120837
H	 2.0993265632	-3.0313573131	 0.3762470649	 0.141422
H	 2.1177706617	-0.3178903048	 1.8898648302	 0.099701
86.481	137.2101	250.0752	299.2177	321.9569	370.4578	454.9558	479.4132	536.5762	658.0644	699.295	775.9372	784.8519	809.5121	862.7132	912.0323	953.0567	960.1845	1029.8646	1050.8153	1067.6003	1092.3614	1096.6314	1113.441	1127.7436	1159.0947	1174.0159	1238.3881	1258.1228	1300.5396	1312.6575	1360.7787	1385.9766	1394.4752	1418.9485	1458.5362	1471.7828	1501.4373	1750.1545	3006.4431	3039.3311	3085.6863	3087.5975	3111.4761	3118.3494	3146.1982	3241.2853	3454.3626
N=C1CCOC2CC2O1	[NH][C]1CCO[C@H]2C[C@H]2O1	
InChI=1S/C6H9NO2/c7-6-1-2-8-4-3-5(4)9-6/h4-5,7H,1-3H2	InChI=1S/C6H9NO2/c7-6-1-2-8-4-3-5(4)9-6/h4-5,7H,1-3H2/t4-,5+/m0/s1
