15
gdb 31478	6.43828	0.87678	0.77768	4.0125	78.52	-0.2092	0.0111	0.2203	1389.7743	0.112643	-416.811012	-416.802457	-416.801513	-416.844706	31.132	
O	-0.1175056176	 1.3983799574	 0.2668330034	-0.431606
C	-0.0053390328	 0.0064099611	-0.0045442287	-0.202816
C	-1.3880324544	-0.5651652593	 0.0177982617	 0.35448
N	-1.7086919236	-1.834398463	 0.0658731932	-0.364729
C	-3.0960297321	-1.8627449414	 0.029648585	 0.130942
C	-3.5912442384	-0.5773547272	-0.0362150726	-0.195976
N	-2.4888062579	 0.2365131378	-0.048891637	-0.25175
C	-3.841843591	-3.0654838944	 0.0638191963	 0.234967
C	-4.4872388337	-4.0814995217	 0.0914242632	-0.422936
H	 0.7334425565	 1.8104243538	 0.0958836999	 0.299689
H	 0.4535179534	-0.1711788675	-0.9893489558	 0.120526
H	 0.6097785923	-0.5147647955	 0.7418008021	 0.129644
H	-4.5971627694	-0.1953041338	-0.0664575407	 0.137949
H	-2.456221394	 1.2427175867	-0.0584029653	 0.27886
H	-5.0496906673	-4.9812333429	 0.1170315752	 0.182756
46.0703	129.4942	139.0776	218.6571	229.4578	271.1339	418.1158	466.7305	548.6301	553.1694	599.8486	615.5621	658.6017	679.2711	709.9993	724.0851	763.6982	997.1186	1006.7767	1037.1273	1083.6633	1110.6671	1194.5285	1226.7252	1249.5382	1279.5526	1366.7205	1444.5666	1461.6739	1514.2048	1553.8871	1592.6119	2236.3886	2983.9769	3025.9611	3284.6111	3506.669	3667.0883	3848.6868
OCC1=NC(=CN1)C#C	OCc1nc(c[nH]1)C#C	
InChI=1S/C6H6N2O/c1-2-5-3-7-6(4-9)8-5/h1,3,9H,4H2,(H,7,8)	InChI=1S/C6H6N2O/c1-2-5-3-7-6(4-9)8-5/h1,3,9H,4H2,(H,7,8)
