20
gdb 72794	2.53114	1.7274	1.30167	3.6759	79.22	-0.2375	0.0312	0.2687	1049.0047	0.17318	-403.152547	-403.144587	-403.143643	-403.184661	31.413	
C	-0.1088681165	 1.5331046406	-0.0195063599	-0.448769
C	-0.0622575963	 0.0004199787	-0.0154446991	 0.1851
C	 1.0623324873	-0.5211392199	-0.9528852965	-0.160524
O	 1.920729341	-0.7792258256	 0.2132375526	-0.27241
C	 0.8282386713	-0.6173022631	 1.0361093456	 0.412307
N	 0.6282289246	-1.1196508459	 2.1652106641	-0.308495
C	-0.7694151232	-1.0724411359	 2.6169070225	-0.149515
C	-1.8291741909	-0.5085021542	 1.6245936759	-0.220882
C	-1.4385184542	-0.6545663897	 0.1336015587	-0.288835
H	 0.8982158129	 1.9564687007	 0.0380274841	 0.132385
H	-0.5765401737	 1.8893339266	-0.9443733135	 0.120101
H	-0.6841204228	 1.9281962187	 0.8211646982	 0.128341
H	 0.8461377096	-1.4594082344	-1.4725220533	 0.118479
H	 1.5172953357	 0.202766564	-1.6326266298	 0.115615
H	-1.0262411657	-2.108549465	 2.87172767	 0.114363
H	-0.8231942434	-0.5169407685	 3.5604104674	 0.111193
H	-2.7840298029	-1.0099099243	 1.8118002263	 0.102179
H	-1.99950346	 0.5523138897	 1.8357850464	 0.107022
H	-2.1976022359	-0.1928924418	-0.5072889176	 0.096969
H	-1.3789341068	-1.7150528906	-0.138682742	 0.105376
108.1696	204.1601	229.2215	252.7105	265.204	341.2486	356.8619	452.8688	476.3632	593.6456	672.5102	686.0638	762.1075	841.9349	853.6558	884.5831	926.7117	945.3831	955.9087	973.5655	1017.679	1032.6323	1080.3776	1148.4361	1150.1354	1164.8896	1173.5094	1234.9564	1252.2579	1269.7073	1295.9437	1348.9097	1362.1994	1366.4275	1374.2519	1411.5028	1482.4576	1487.0174	1497.539	1500.5977	1504.9251	1516.3732	1823.8159	3022.3224	3029.7303	3034.6765	3041.3061	3052.0393	3054.2186	3072.9314	3086.9318	3102.9276	3117.4949	3123.1388
CC12COC1=NCCC2	C[C@@]12CO[C]1[N]CCC2	
InChI=1S/C7H11NO/c1-7-3-2-4-8-6(7)9-5-7/h2-5H2,1H3	InChI=1S/C7H11NO/c1-7-3-2-4-8-6(7)9-5-7/h2-5H2,1H3/t7-/m1/s1
