21
gdb 39410	2.38933	1.89348	1.33354	2.1278	81.89	-0.2127	0.0691	0.2818	1033.0348	0.186656	-383.217956	-383.210428	-383.209484	-383.249649	30.756	
C	 0.0923794656	 1.4621129649	-0.122248334	-0.259426
C	 1.2629717213	 0.5473585067	-0.0281725654	 0.001723
C	 2.3004671179	 0.594193741	 1.0540475829	-0.036217
N	 1.9098734983	 0.7218915957	 2.4684973719	-0.346675
C	 2.4694819802	-0.5560153095	 1.982395692	-0.018565
C	 1.5696669016	-1.7795020433	 1.8766463895	-0.216225
C	 0.0448339835	-1.5901837564	 2.0528133993	-0.193251
C	-0.5885919137	-0.3136491987	 1.4763772125	-0.143014
N	-0.0999480574	 0.0359814616	 0.1369066277	-0.102385
H	-0.0620870045	 2.1431756707	 0.7135919207	 0.112663
H	-0.2468804047	 1.8328369399	-1.086647663	 0.106458
H	 1.7093266092	 0.2205820804	-0.9692760345	 0.086271
H	 3.2094519499	 1.1090041626	 0.7435647393	 0.080038
H	 2.6165513962	 1.2471579197	 2.9753161246	 0.230882
H	 3.4914858584	-0.781833811	 2.2828394666	 0.080558
H	 1.7623879859	-2.2300466427	 0.8947463251	 0.112064
H	 1.8996648381	-2.5233236444	 2.6113894545	 0.096165
H	-0.4381621265	-2.4729666143	 1.6190055914	 0.099099
H	-0.1976521262	-1.6017694093	 3.1213750933	 0.100666
H	-1.6695269479	-0.472847101	 1.3783359244	 0.089631
H	-0.4373118249	 0.5037634874	 2.187148861	 0.119542
112.1309	206.1315	226.6125	274.3369	327.5815	392.4023	462.9687	501.7294	630.6398	654.7977	719.3895	750.1433	768.1957	825.754	881.5848	885.6545	896.8507	945.6642	974.9341	1006.7185	1046.4144	1067.9985	1090.323	1104.7338	1109.6376	1129.0006	1135.6483	1166.835	1176.1761	1209.4249	1238.6244	1271.8384	1275.3589	1313.149	1333.3424	1372.7378	1377.1762	1405.7353	1419.691	1426.4122	1466.9219	1481.9295	1495.9806	1499.9613	1519.2667	3021.1632	3024.1447	3038.1139	3051.2407	3065.9952	3079.8583	3084.8228	3088.0791	3102.9373	3116.8139	3173.0813	3507.6181
C1C2C3NC3CCCN12	C1[C@H]2[C@H]3N[C@H]3CCCN12	
InChI=1S/C7H12N2/c1-2-5-7(8-5)6-4-9(6)3-1/h5-8H,1-4H2	InChI=1S/C7H12N2/c1-2-5-7(8-5)6-4-9(6)3-1/h5-8H,1-4H2/t5-,6-,7-,9?/m0/s1
