15
gdb 31862	5.13342	1.06681	0.88818	3.081	72.2	-0.2257	-0.0401	0.1855	1241.7307	0.113641	-453.994954	-453.987111	-453.986167	-454.027417	28.923	
C	-0.0150317526	 1.3990446786	 0.0259883753	-0.224627
O	-0.0341245087	-0.0254428263	 0.0440230987	-0.243803
C	-1.2345684681	-0.6232571769	 0.0162603698	 0.466686
N	-2.3343295839	 0.122389382	-0.0260599673	-0.3333
C	-3.496301354	-0.5366583413	-0.0517980358	-0.115899
C	-3.5642938395	-1.9224384625	-0.0356313811	 0.296415
O	-4.7156604414	-2.6484130372	-0.0601745791	-0.438701
C	-2.3380993722	-2.5956140881	 0.0094992089	-0.038436
N	-1.1769773853	-1.9598972386	 0.0355245911	-0.297091
H	 1.0398066014	 1.6755792338	 0.0537296096	 0.130627
H	-0.4853047531	 1.7903341868	-0.8810869804	 0.131853
H	-0.5380415754	 1.8135080901	 0.8930103615	 0.131857
H	-4.402634436	 0.0689145003	-0.0865687547	 0.104309
H	-5.4708584475	-2.0510396582	-0.0905018281	 0.302135
H	-2.3199927537	-3.6832123525	 0.0243063418	 0.127975
93.0227	151.2383	197.2237	231.1749	318.7837	374.8689	397.9853	438.0916	475.8885	545.6	575.1989	662.7127	777.1793	820.5675	877.4026	936.5815	979.9794	1041.2101	1086.175	1180.01	1183.8513	1205.7113	1285.6119	1298.163	1316.8764	1375.4248	1444.0278	1468.346	1480.7126	1497.7199	1521.0153	1604.2915	1653.3477	3039.0037	3107.9362	3120.6019	3146.3225	3159.3858	3813.501
COC1=NC=C(O)C=N1	COc1ncc(O)cn1	
InChI=1S/C5H6N2O2/c1-9-5-6-2-4(8)3-7-5/h2-3,8H,1H3	InChI=1S/C5H6N2O2/c1-9-5-6-2-4(8)3-7-5/h2-3,8H,1H3
