18
gdb 83013	2.81359	1.31952	1.12883	4.615	83.75	-0.2489	-0.0419	0.207	1140.9409	0.148958	-364.835072	-364.827054	-364.82611	-364.86758	30.813	
C	-0.0984605297	 1.5591067116	 0.0477602862	-0.420468
C	 0.0636062354	 0.0584145962	-0.0304640255	 0.0003
C	 0.7163678355	-0.6718304438	-1.1794262793	-0.077149
C	 1.6471278193	 0.0937114364	-2.1233575891	-0.272533
C	 2.7832890979	 0.542795811	-1.2382795509	-0.169194
C	 2.63818462	 0.0960681134	 0.0209844109	 0.225817
C	 3.5478336866	 0.3373454155	 1.0876996313	 0.194935
N	 4.2755247864	 0.5107288046	 1.972384795	-0.339892
C	 1.373121948	-0.6839608827	 0.1979666634	-0.174845
H	 0.790420739	 2.094803722	-0.2933747709	 0.12453
H	-0.9433329566	 1.8862272166	-0.568366769	 0.120333
H	-0.2969922473	 1.8724880068	 1.0778850593	 0.127587
H	-0.786958376	-0.4827341126	 0.3779836877	 0.094574
H	 0.2271100687	-1.5601395431	-1.5608644878	 0.093513
H	 2.0137516532	-0.5461871412	-2.9364384126	 0.124228
H	 1.1549016471	 0.9476362372	-2.6078432908	 0.124737
H	 3.5958721861	 1.1717840096	-1.5816987537	 0.120748
H	 1.3812251365	-1.5532299874	 0.8450975557	 0.102778
100.7188	162.0196	184.8732	217.2258	235.2774	354.5298	450.4922	503.5853	516.1215	562.0326	675.2263	717.8078	742.8756	794.2373	842.6945	850.5556	933.2701	938.6261	975.9427	992.2148	1022.978	1065.8436	1088.3863	1118.653	1136.1328	1167.909	1185.6982	1226.5029	1264.1918	1315.932	1355.9662	1365.3736	1414.3084	1428.028	1467.9436	1498.0331	1501.366	1656.1781	2337.6057	3019.2647	3037.043	3043.7196	3094.7257	3117.5001	3136.0811	3174.4074	3183.6015	3211.253
CC1C2CC=C(C#N)C12	C[C@H]1[C@H]2CC=C(C#N)[C@@H]12	
InChI=1S/C8H9N/c1-5-7-3-2-6(4-9)8(5)7/h2,5,7-8H,3H2,1H3	InChI=1S/C8H9N/c1-5-7-3-2-6(4-9)8(5)7/h2,5,7-8H,3H2,1H3/t5-,7+,8+/m0/s1
