21
gdb 69927	3.27663	1.48767	1.30094	0.2612	86.84	-0.2335	0.0276	0.2611	1072.9378	0.184375	-349.941916	-349.93425	-349.933306	-349.973568	31.553	
C	 0.0156477885	 1.5800047132	 0.0697679288	-0.502366
C	 0.0230150695	 0.0791734943	 0.0229956152	 0.365807
C	-0.8930185128	-0.7820857637	 0.8441796751	-0.342588
C	 0.5956171692	-0.9452494712	 1.0126618623	-0.112326
C	 1.2195598867	-1.764860365	-0.1310327293	-0.012401
C	 0.649322977	-3.1579303309	-0.4922701467	-0.285148
C	-0.2664496613	-2.8659614344	-1.6655444185	-0.062851
C	-0.2789730383	-1.5795415564	-2.0256124816	-0.082466
C	 0.6198812326	-0.7470229282	-1.1578040418	-0.115284
H	 0.9895288834	 1.9949523637	-0.216731555	 0.112556
H	-0.7340338781	 1.9985356906	-0.6136620301	 0.117196
H	-0.2192145695	 1.9443010259	 1.0756404097	 0.115319
H	-1.3835870641	-0.2660647842	 1.6644384452	 0.103334
H	-1.4998147049	-1.5584432451	 0.3869195496	 0.110634
H	 1.0725056249	-0.7633964001	 1.9698549892	 0.076362
H	 2.3098474592	-1.754793901	-0.0896550139	 0.068403
H	 1.4346879343	-3.8737807055	-0.7671353889	 0.099382
H	 0.102127467	-3.6107737492	 0.3454233319	 0.105392
H	-0.8478236308	-3.647086736	-2.146359683	 0.088011
H	-0.8751231757	-1.1712625901	-2.8352826671	 0.087266
H	 1.3556151733	-0.1614131767	-1.7186597212	 0.065769
136.0215	194.9589	216.3364	234.0977	326.3419	378.1955	473.692	508.7865	577.7598	695.7342	719.7699	750.3503	791.8455	805.8552	838.2329	887.8394	920.1347	942.6952	963.9252	975.1597	984.7219	996.9454	1021.2384	1028.7912	1072.5403	1083.8011	1100.7888	1111.5362	1128.0775	1168.0305	1186.1153	1220.7156	1252.3011	1271.1658	1296.5432	1313.6921	1332.3719	1375.3603	1396.8011	1422.0459	1481.7266	1485.1591	1494.674	1499.9758	1668.4564	3013.5664	3014.3167	3038.5006	3048.6469	3069.8537	3089.8339	3092.5089	3113.953	3162.9212	3167.1767	3193.7608	3195.0065
CC12CC1C1CC=CC21	C[C@]12C[C@H]1[C@H]1CC=C[C@@H]21	
InChI=1S/C9H12/c1-9-5-8(9)6-3-2-4-7(6)9/h2,4,6-8H,3,5H2,1H3	InChI=1S/C9H12/c1-9-5-8(9)6-3-2-4-7(6)9/h2,4,6-8H,3,5H2,1H3/t6-,7+,8-,9+/m0/s1
