18
gdb 43853	2.79802	1.45126	1.09279	2.1176	78.73	-0.2365	-0.0516	0.1849	1114.7008	0.149335	-401.960484	-401.952852	-401.951907	-401.99269	30.025	
O	 0.018130084	-0.0425825152	 0.1818238189	-0.331012
C	 0.0068981159	 1.1619952068	 0.0329514788	 0.377366
C	-1.2996862329	 1.9520525796	-0.0666895924	-0.406446
C	-1.1551033249	 3.1765728404	-0.9499472463	 0.333056
C	-1.5358448164	 3.0712773471	-2.3829604139	-0.278837
N	-2.3468424376	 3.8725989996	-1.4426156893	-0.369982
C	-0.0033211393	 4.0740219121	-0.534145891	-0.314603
C	 1.2432641987	 3.281613291	-0.2556468173	-0.048096
C	 1.2482357281	 1.9631550214	-0.018426766	-0.145093
H	-2.086477222	 1.2780281973	-0.417142993	 0.118463
H	-1.5672456656	 2.2635254754	 0.9547200695	 0.125901
H	-1.0054422232	 3.649338713	-3.1348325483	 0.118544
H	-1.932262458	 2.1235748185	-2.7383874611	 0.118355
H	-3.1878552184	 3.3611100465	-1.1845858526	 0.231844
H	 0.1878895023	 4.8298024318	-1.3032728795	 0.122856
H	-0.2824998178	 4.6391014717	 0.3688403799	 0.127412
H	 2.1823249259	 3.8305514485	-0.2502720461	 0.112018
H	 2.1681530511	 1.4158684146	 0.1612460496	 0.108252
92.2216	118.1147	298.269	304.1871	353.8678	366.3387	457.1402	476.0563	487.5005	584.021	661.7078	754.7855	788.7058	830.5122	900.0521	924.9273	948.5685	960.918	965.074	993.5976	1010.8758	1032.0921	1074.2052	1122.9582	1148.64	1181.3512	1188.2487	1250.5892	1265.9326	1301.5819	1328.2033	1357.2675	1404.6411	1417.7621	1455.3814	1471.7869	1517.1832	1679.7332	1781.054	2996.2356	3001.4803	3068.685	3091.7969	3106.4221	3154.1077	3191.0547	3191.6565	3492.9368
O=C1CC2(CN2)CC=C1	O=C1C[C@]2(CN2)CC=C1	
InChI=1S/C7H9NO/c9-6-2-1-3-7(4-6)5-8-7/h1-2,8H,3-5H2	InChI=1S/C7H9NO/c9-6-2-1-3-7(4-6)5-8-7/h1-2,8H,3-5H2/t7-/m0/s1
