25
gdb 111920	2.278	1.16995	0.86927	0.2378	95.75	-0.2229	0.0334	0.2563	1486.9537	0.228682	-352.38712	-352.376924	-352.37598	-352.421865	38.916	
C	-0.1607012126	 1.64892417	-0.0368827682	-0.390128
C	-0.0913001126	 0.118273699	 0.0040972987	-0.185686
C	 0.7416363422	-0.4831031197	-1.1390525285	-0.002265
C	 2.2314033416	-0.2171945819	-1.0788866023	-0.169918
C	 2.9568814128	-1.2462545027	-1.5213087627	 0.329056
C	 4.4440980969	-1.3223320808	-1.6626661658	-0.493304
C	 2.0538414255	-2.3881667633	-1.9431959825	-0.309203
C	 0.6885845195	-2.0399132286	-1.2920100327	-0.011556
C	 0.5253473579	-2.789562925	 0.0375820282	-0.387703
H	 0.8306411714	 2.1029742096	 0.0625888315	 0.117148
H	-0.5901176747	 1.999796789	-0.9822279164	 0.112646
H	-0.7828108011	 2.0379054543	 0.7754291244	 0.109282
H	 0.3141508238	-0.2025792795	 0.9707689218	 0.096645
H	-1.1116924664	-0.2829377073	-0.0508892357	 0.091456
H	 0.3513874253	-0.0421990706	-2.0724872621	 0.069189
H	 2.6480145955	 0.7314879298	-0.7554974201	 0.078897
H	 4.9311944404	-0.4022149246	-1.3277593345	 0.11977
H	 4.8565647972	-2.1582462715	-1.0828126831	 0.121866
H	 4.734517659	-1.4992113069	-2.7066909091	 0.122263
H	 1.9835972003	-2.4304478512	-3.0404434129	 0.09605
H	 2.4302379412	-3.3686514401	-1.6238939333	 0.090463
H	-0.1418498932	-2.3237546765	-1.9475793403	 0.060502
H	 1.3435763576	-2.5559239653	 0.7276291839	 0.117192
H	-0.4164399905	-2.5453829716	 0.5369846448	 0.111318
H	 0.5359130231	-3.8707524447	-0.1362638932	 0.10602
88.9325	113.8652	140.867	172.5782	193.7375	240.9345	269.443	292.6418	331.5499	363.6266	413.7114	439.7727	495.1646	593.6027	703.2333	782.1002	796.3395	853.3342	871.6537	887.3584	933.2536	953.0352	984.2534	1022.543	1032.0121	1044.8745	1047.5764	1073.5273	1112.2084	1137.108	1146.91	1193.3152	1226.0694	1265.4021	1278.5722	1292.516	1300.7607	1345.399	1361.2644	1374.4819	1385.7374	1406.0366	1411.8964	1414.2452	1479.5043	1484.1262	1486.4773	1490.1762	1500.0092	1501.5731	1504.2814	1508.3624	1721.3477	2944.747	2994.063	3013.3521	3019.0227	3030.2501	3031.0424	3035.9131	3042.832	3057.1735	3059.4462	3095.6568	3097.5451	3101.651	3106.8466	3108.6181	3178.2101
CCC1C=C(C)CC1C	CC[C@H]1C=C(C)C[C@H]1C	
InChI=1S/C9H16/c1-4-9-6-7(2)5-8(9)3/h6,8-9H,4-5H2,1-3H3	InChI=1S/C9H16/c1-4-9-6-7(2)5-8(9)3/h6,8-9H,4-5H2,1-3H3/t8-,9+/m1/s1
