19
gdb 126898	2.73987	1.19375	0.94593	5.6628	79.24	-0.2011	0.0218	0.2229	1303.6176	0.159798	-415.389429	-415.379928	-415.378984	-415.424931	33.898	
C	-0.8341321202	 0.7277462088	-0.529116105	-0.378783
C	 0.3556120858	 0.1312928653	 0.2318978537	-0.164885
N	 1.3649529489	-0.5233108696	-0.6008180078	-0.387965
C	 1.0455255581	-1.658278737	-1.3253372587	 0.32438
C	 1.5383494741	-2.1491089853	-2.5240250179	 0.233176
C	 2.5425879166	-1.5472240561	-3.4506489395	-0.515929
N	 0.9447312555	-3.3554729706	-2.7578293242	-0.241429
N	 0.1190534964	-3.6484534516	-1.802805804	-0.145744
N	 0.1748385669	-2.6129729017	-0.9153259025	-0.242654
H	-0.5000864453	 1.4979484186	-1.2320813416	 0.121309
H	-1.3655200389	-0.0402972595	-1.0986717739	 0.136898
H	-1.5426844275	 1.1891923893	 0.1662028397	 0.122636
H	 0.8713156133	 0.9119669771	 0.7997635386	 0.119757
H	 0.0056136403	-0.592851976	 0.9777478964	 0.111043
H	 1.9046528241	 0.128379099	-1.153638231	 0.244333
H	 3.5534503439	-1.5359232363	-3.0244246759	 0.12692
H	 2.5758419574	-2.1345850331	-4.3708631441	 0.151424
H	 2.2895455733	-0.5141294543	-3.7213175745	 0.113294
H	-0.3839889426	-2.6507580769	-0.0797698481	 0.272219
31.8166	77.1775	91.1982	169.297	231.896	244.5781	291.962	308.9325	414.9367	488.069	509.3383	580.6896	647.1265	705.3465	730.8447	743.7609	831.1547	901.6669	977.9719	1024.1384	1027.1912	1060.105	1066.9071	1120.1232	1146.5808	1230.9495	1267.7684	1313.1954	1323.4277	1375.5971	1400.5821	1410.8806	1417.6162	1475.4661	1483.9569	1490.1055	1493.691	1498.2445	1510.011	1547.299	1643.7998	3015.367	3034.1198	3037.6163	3059.1907	3077.4291	3108.3503	3118.96	3127.5345	3586.1231	3672.9218
CCNC1=C(C)N=NN1	CCNc1c(C)nn[nH]1	
InChI=1S/C5H10N4/c1-3-6-5-4(2)7-9-8-5/h3H2,1-2H3,(H2,6,7,8,9)	InChI=1S/C5H10N4/c1-3-6-5-4(2)7-9-8-5/h3H2,1-2H3,(H2,6,7,8,9)
