21
gdb 96033	3.10007	1.03731	0.86781	2.0788	83.75	-0.2532	0.0603	0.3135	1383.3542	0.182093	-387.072596	-387.062946	-387.062002	-387.108279	35.827	
O	-0.1223732933	 1.4874263856	 0.5543083662	-0.440847
C	-0.0107930508	 0.1430410134	 0.0882402626	 0.100995
C	 0.7363656983	-0.755283101	 1.0912062294	-0.235757
C	-0.3358506866	-1.2321912936	 2.1151149921	-0.204765
C	-1.6946728861	-0.7341406486	 1.5628614634	-0.200625
C	-1.4290583179	-0.4474910707	 0.0729515016	 0.032866
C	-2.4720191266	 0.4447378216	-0.6231278254	-0.380263
C	-3.7975897922	-0.1614115918	-0.6727425642	 0.300973
C	-4.8813289697	-0.6810643953	-0.7095769618	-0.449668
H	 0.7659152695	 1.8384376312	 0.6668602178	 0.28313
H	 0.4539444386	 0.1276667387	-0.90898737	 0.055535
H	 1.1761894895	-1.6073318114	 0.5617284738	 0.099282
H	 1.5654830265	-0.2148451411	 1.5600241222	 0.086593
H	-0.3213735175	-2.3228508395	 2.1984858494	 0.099673
H	-0.1455341626	-0.8405499326	 3.11738117	 0.10167
H	-2.5058049468	-1.4501561577	 1.7105775115	 0.103662
H	-1.9849925121	 0.198430818	 2.0568896637	 0.110389
H	-1.3741414458	-1.4015946769	-0.4672835607	 0.078748
H	-2.5176996274	 1.4077014988	-0.1034441538	 0.147056
H	-2.1381515511	 0.6665082064	-1.6454316936	 0.121928
H	-5.8441052959	-1.1267289336	-0.7447668742	 0.189424
25.4418	67.0828	109.477	153.9309	245.8245	275.8804	318.393	352.7411	367.061	457.0395	531.159	612.0584	629.416	639.0528	745.1105	759.7992	834.2908	866.3665	881.478	898.285	957.4976	976.8224	1001.2819	1034.7174	1054.6629	1090.0649	1106.5596	1170.4242	1190.855	1215.699	1252.1441	1258.8157	1292.0823	1299.352	1316.5636	1336.9947	1351.4973	1367.3989	1386.9422	1422.5749	1472.8816	1479.5059	1489.5243	1510.2658	2236.1448	2985.1664	3022.2355	3024.7887	3040.3446	3056.4304	3060.3144	3074.056	3076.4173	3097.9237	3115.5349	3507.7237	3827.4561
OC1CCCC1CC#C	O[C@H]1CCC[C@H]1CC#C	
InChI=1S/C8H12O/c1-2-4-7-5-3-6-8(7)9/h1,7-9H,3-6H2	InChI=1S/C8H12O/c1-2-4-7-5-3-6-8(7)9/h1,7-9H,3-6H2/t7-,8+/m1/s1
