14
gdb 84336	3.16412	1.45135	1.027	1.4679	66.11	-0.287	-0.0723	0.2147	1071.6835	0.101125	-473.868031	-473.860509	-473.859565	-473.900336	28.298	
O	 0.4362597539	 0.9539652906	 0.6934230856	-0.431656
C	-0.0358554359	-0.1823472017	 0.0237711944	 0.014478
C	-1.5111014219	-0.0805143954	-0.2500797	-0.074478
C	-2.0551411697	-0.6742195187	-1.311531896	-0.208044
C	-1.2380416109	-1.4327814017	-2.2736111607	 0.430428
O	-1.6571758297	-2.1528090618	-3.1302964419	-0.302982
O	 0.1475241345	-1.2714611985	-2.1786358042	-0.244592
C	 0.7139972002	-0.4152187221	-1.2723988927	 0.378523
N	 1.8307380057	 0.1372457714	-1.4552449801	-0.520398
H	 1.2909308646	 1.1615873975	 0.2831606515	 0.304624
H	 0.1211325039	-1.0863074371	 0.6455064592	 0.124288
H	-2.1021393437	 0.4617924043	 0.4807835345	 0.143637
H	-3.1181989946	-0.6737913785	-1.5178158985	 0.139724
H	 2.2391877035	-0.1002921283	-2.3588552211	 0.24645
79.9832	122.8323	257.617	308.3575	381.1091	415.0263	428.0996	461.3066	488.7772	581.1621	651.1689	694.4536	770.0955	822.1727	887.2754	902.7015	923.1494	1006.849	1025.3615	1096.0263	1111.537	1152.4454	1204.7769	1256.8733	1316.086	1360.0416	1390.0048	1449.2516	1697.2554	1763.6758	1865.3971	2906.2966	3193.3459	3221.3237	3502.9571	3694.09
OC1C=CC(=O)OC1=N	O[C@H]1C=CC(=O)O[C]1[NH]	
InChI=1S/C5H5NO3/c6-5-3(7)1-2-4(8)9-5/h1-3,6-7H	InChI=1S/C5H5NO3/c6-5-3(7)1-2-4(8)9-5/h1-3,6-7H/t3-/m0/s1
