21
gdb 36031	2.99654	1.09506	0.92478	0.5655	88.21	-0.2469	0.0538	0.3007	1341.5281	0.181076	-349.891646	-349.882272	-349.881328	-349.926267	36.07	
C	-0.0938549974	-1.2850120641	-0.0049370786	-0.434249
C	-0.0413258398	-0.0838771779	 0.0014035348	 0.292012
C	 0.0113449794	 1.3729515834	 0.0096759902	-0.457389
C	 1.4207034983	 1.975929378	-0.000689446	 0.357138
C	 2.5238028956	 1.2542844962	 0.7384060737	-0.302788
C	 2.5082053824	 1.2642485199	-0.7718575436	-0.302863
C	 1.4890885138	 3.4823251081	 0.008679922	-0.034368
C	 0.5231778374	 4.3777177711	-0.7293988177	-0.280621
C	 0.5409732737	 4.3673127491	 0.7815653881	-0.280627
H	-0.1475701025	-2.3453768464	-0.0110008799	 0.194956
H	-0.5473377926	 1.7426079269	-0.8602884185	 0.134121
H	-0.5299842692	 1.7320246504	 0.8949156889	 0.134101
H	 3.2633620441	 1.8582478253	 1.2532689313	 0.105616
H	 2.2803132027	 0.3205641715	 1.2325627481	 0.122868
H	 2.2543911481	 0.3370912149	-1.2731330165	 0.122846
H	 3.2370827679	 1.8749943715	-1.2939025016	 0.105624
H	 2.5179658595	 3.8338451517	-0.0009960403	 0.078051
H	 0.9239010051	 5.2416421316	-1.2482032953	 0.110134
H	-0.3319421592	 3.9307983589	-1.2240461137	 0.112641
H	-0.3022963418	 3.913429855	 1.2900399879	 0.112647
H	 0.9539310643	 5.2240815651	 1.302638567	 0.110151
37.9256	83.363	137.0919	220.5692	236.7633	324.9145	326.62	349.0686	401.3479	490.1945	512.777	611.8335	639.8614	680.9241	781.7751	786.3378	821.5229	846.5279	846.6796	900.0194	948.8965	981.4221	984.5365	1003.2272	1022.6024	1057.1723	1064.0312	1076.9617	1086.725	1093.0363	1142.3752	1191.4249	1196.1928	1217.3159	1253.1243	1265.6123	1311.45	1360.9602	1425.2261	1462.1798	1471.8419	1475.1299	1500.2706	1512.0516	2236.7577	3013.492	3042.7451	3126.837	3132.3658	3134.7525	3135.7646	3139.9076	3209.6594	3213.8071	3224.7322	3226.505	3505.9715
C#CCC1(CC1)C1CC1	C#CCC1(CC1)C1CC1	
InChI=1S/C9H12/c1-2-5-9(6-7-9)8-3-4-8/h1,8H,3-7H2	InChI=1S/C9H12/c1-2-5-9(6-7-9)8-3-4-8/h1,8H,3-7H2
