18
gdb 115695	2.50328	1.19705	0.99719	4.4495	68.06	-0.2474	0.0114	0.2588	1233.3734	0.14719	-476.227407	-476.217851	-476.216907	-476.263031	33.721	
N	 0.6366672013	 0.7268892188	 0.5062894721	-0.527615
C	 0.2353335569	-0.041052498	-0.5463141853	 0.406623
O	 0.878338879	-0.1227953657	-1.5767538162	-0.358361
C	-1.058460321	-0.808513741	-0.3206626315	-0.188183
C	-1.7647443352	-1.3277008297	-1.5860683794	-0.082576
O	-1.7221855952	-2.6964990337	-1.1188186905	-0.302405
C	-0.9409130919	-2.3236471028	 0.0415799772	 0.113827
C	 0.4197481737	-3.0028634475	-0.0154633616	-0.085212
O	 0.2379123294	-4.4052539925	-0.0687733347	-0.425772
H	 1.5067005303	 1.2282158523	 0.4296076146	 0.265564
H	 0.1044798799	 0.8050254914	 1.3546023048	 0.261466
H	-1.717900784	-0.27305727	 0.3657684809	 0.082991
H	-2.7928251708	-0.9842887303	-1.7396995511	 0.104885
H	-1.1739232365	-1.1812821321	-2.4951743477	 0.134346
H	-1.4601824392	-2.611546348	 0.9638745687	 0.085967
H	 0.9850906128	-2.6295865247	-0.8800880257	 0.118544
H	 0.9963692761	-2.7853088035	 0.8908678605	 0.102616
H	-0.3470151456	-4.5632764831	-0.8205167551	 0.293297
35.3911	80.3293	116.6813	129.662	159.536	235.4945	273.4568	392.9821	417.7506	462.2937	488.9514	587.017	615.6171	698.3124	797.1289	820.1145	887.282	920.8463	997.8598	1028.6499	1052.3201	1073.0149	1083.4042	1111.6238	1128.4178	1177.0867	1199.7126	1230.4024	1276.021	1281.0627	1336.1174	1360.7916	1401.878	1414.758	1437.0177	1507.185	1517.471	1618.2533	1788.162	3016.54	3030.372	3040.6341	3074.8304	3080.9671	3101.3194	3602.8143	3740.4544	3781.1647
NC(=O)C1COC1CO	NC(=O)[C@H]1CO[C@H]1CO	
InChI=1S/C5H9NO3/c6-5(8)3-2-9-4(3)1-7/h3-4,7H,1-2H2,(H2,6,8)	InChI=1S/C5H9NO3/c6-5(8)3-2-9-4(3)1-7/h3-4,7H,1-2H2,(H2,6,8)/t3-,4-/m0/s1
