13
gdb 129088	3.08558	1.48582	1.00289	0.4628	78.73	-0.2358	-0.0654	0.1704	1080.9405	0.08908	-415.545582	-415.538158	-415.537214	-415.577655	27.954	
N	-0.0536642675	 1.3122636983	-0.2049448059	-0.51901
C	-0.0175188538	 0.0426987697	-0.0339523368	 0.194013
C	 1.2049164216	-0.7493176074	 0.1622700723	 0.001545
N	 1.3112782431	-2.0162468363	 0.3381243048	-0.065532
O	 0.124343147	-2.7479142605	 0.3464831098	-0.23363
C	-1.0530026884	-2.121815511	 0.1756262758	 0.032891
C	-1.2202914143	-0.7913954981	-0.0131889758	 0.001556
C	-2.5156965393	-0.2420288842	-0.1827115672	 0.251256
C	-3.6177733463	 0.2192575752	-0.3260435915	-0.382168
H	 0.8905549482	 1.7045427615	-0.1864680936	 0.21739
H	 2.163338153	-0.2327001281	 0.1653521253	 0.143468
H	-1.8708903152	-2.8313308686	 0.2086061969	 0.158402
H	-4.5845904179	 0.6394352996	-0.4536223142	 0.199819
92.2372	139.0501	194.7791	370.2918	385.1351	417.3879	443.2987	540.7843	556.0473	597.9279	599.836	661.9024	743.3806	767.9403	844.3573	869.8306	892.2359	922.1806	961.628	1102.5928	1166.1421	1228.1168	1314.1206	1335.6341	1436.0307	1628.0691	1641.9174	1690.8557	2234.1933	3155.8148	3220.7782	3443.3215	3503.7794
N=C1C=NOC=C1C#C	[NH]C1=C([CH]ON=C1)C#C	
InChI=1S/C6H4N2O/c1-2-5-4-9-8-3-6(5)7/h1,3-4,7H	InChI=1S/C6H4N2O/c1-2-5-4-9-8-3-6(5)7/h1,3-4,7H
