23
gdb 115485	4.7969	0.79134	0.72724	1.7308	89.94	-0.2241	0.0231	0.2472	1679.0208	0.204837	-388.310217	-388.300063	-388.299119	-388.346095	36.805	
C	-0.2720138669	 1.5702291763	 0.1399433597	-0.379848
C	-0.1422105588	 0.0481587103	 0.0474167237	-0.171931
C	 0.878492021	-0.5210438733	 1.0411606638	 0.106155
O	 0.4933621533	-0.1999499221	 2.3859671823	-0.281258
C	 0.4012215533	-1.3815585322	 3.1710228129	-0.157822
C	 0.7088013193	-2.5254289325	 2.2338337786	 0.309736
C	 0.6769044676	-3.9607474217	 2.6642110821	-0.291383
C	 1.7344286054	-4.3103243367	 3.72708067	-0.374778
C	 0.9876823	-2.020444495	 1.0346302534	-0.233091
H	 0.6794943836	 2.0625256214	-0.091430246	 0.109659
H	-1.0226063034	 1.9475957789	-0.5611587914	 0.106427
H	-0.5644860569	 1.8664545547	 1.1506752634	 0.13485
H	-1.1107785214	-0.4292321186	 0.2388256575	 0.095138
H	 0.1636564135	-0.2452892063	-0.9654994886	 0.088032
H	 1.8563629448	-0.0477118744	 0.8387050304	 0.072806
H	 1.1111144725	-1.3266853607	 4.0123478597	 0.100425
H	-0.6065059502	-1.4662853401	 3.6102548977	 0.098739
H	-0.3183734867	-4.1947463421	 3.0678029759	 0.106433
H	 0.8142342836	-4.6020942376	 1.7869498539	 0.105836
H	 1.5921475918	-3.7292265085	 4.6434595895	 0.12224
H	 1.6775512646	-5.369963446	 3.9936159443	 0.115947
H	 2.743299454	-4.1063433177	 3.3553368718	 0.123144
H	 1.2478758158	-2.5847924862	 0.1468548155	 0.094544
46.802	76.8577	103.413	115.3108	199.9882	223.5834	226.6755	281.2651	316.7525	428.7046	479.5662	504.5767	609.1078	729.4026	782.0276	797.4555	845.4889	881.9589	898.2798	937.1197	966.9615	1000.6801	1027.1351	1046.0975	1060.4813	1087.079	1103.5455	1121.5327	1139.6026	1201.2525	1214.8742	1264.3189	1286.5396	1298.6445	1330.3668	1354.2276	1357.7574	1390.2667	1392.5995	1406.0144	1408.6926	1475.8404	1480.182	1495.7459	1498.7673	1506.4129	1508.9877	1524.444	1727.8892	2933.2574	2963.8198	2977.2951	3009.8167	3020.5767	3034.3788	3039.0308	3061.6171	3064.5098	3099.4439	3110.4013	3112.3101	3122.3165	3202.8846
CCC1OCC(CC)=C1	CC[C@H]1OCC(=C1)CC	
InChI=1S/C8H14O/c1-3-7-5-8(4-2)9-6-7/h5,8H,3-4,6H2,1-2H3	InChI=1S/C8H14O/c1-3-7-5-8(4-2)9-6-7/h5,8H,3-4,6H2,1-2H3/t8-/m1/s1
