20
gdb 99052	3.98553	0.72877	0.67107	3.9581	80.47	-0.2633	-0.0281	0.2352	1714.4096	0.168069	-403.198116	-403.187455	-403.186511	-403.235003	37.023	
C	-0.22654663	 1.526077829	 0.0924341501	-0.377522
C	 0.1391126267	 0.0453184271	 0.0260186366	-0.278864
C	 0.7071968127	-0.3840352089	-1.3174764826	 0.378381
O	 0.9546166965	 0.4067197266	-2.1998640499	-0.299118
C	 0.932149331	-1.8840584539	-1.5014353228	-0.310369
C	 1.7494668394	-2.2142083046	-2.7664016396	-0.132517
C	 3.2394317804	-1.8472107468	-2.6208865982	-0.399141
C	 1.5961301881	-3.6314939473	-3.1066538522	 0.262277
N	 1.4782309925	-4.7525276243	-3.3628934546	-0.324872
H	 0.6429752543	 2.1510803589	-0.1239630731	 0.136151
H	-0.9958830507	 1.7726985066	-0.6439208687	 0.13238
H	-0.6036376751	 1.7848926912	 1.0853668059	 0.115527
H	 0.8881127835	-0.2108812986	 0.7892552547	 0.128991
H	-0.7240049308	-0.5945420381	 0.2543218345	 0.124949
H	 1.4085404524	-2.3028604722	-0.6070547596	 0.132167
H	-0.0587803909	-2.3534006259	-1.5546179007	 0.148064
H	 1.3296222563	-1.6242347754	-3.5887314839	 0.148248
H	 3.7876825611	-2.0803050465	-3.5366110224	 0.139891
H	 3.3310905586	-0.777316655	-2.4251143525	 0.145587
H	 3.6987326141	-2.4036668921	-1.798374621	 0.129788
48.8682	52.3448	80.1694	119.2857	185.7693	198.773	225.6423	252.3712	300.4777	332.6856	377.5515	467.1427	544.1999	573.3192	650.6646	734.9972	802.7796	855.0657	881.3571	935.9381	996.6111	1019.6079	1027.0087	1090.7349	1120.1487	1129.4511	1146.5805	1237.4898	1279.9882	1291.4183	1338.594	1361.5329	1382.6099	1406.9289	1415.0824	1444.7109	1454.8644	1493.612	1496.5454	1498.3671	1503.4358	1803.5563	2356.2411	3015.2523	3034.4157	3044.8956	3050.7223	3053.8826	3058.616	3075.2283	3124.8523	3125.5974	3131.4837	3144.2877
CCC(=O)CC(C)C#N	CCC(=O)C[C@@H](C)C#N	
InChI=1S/C7H11NO/c1-3-7(9)4-6(2)5-8/h6H,3-4H2,1-2H3	InChI=1S/C7H11NO/c1-3-7(9)4-6(2)5-8/h6H,3-4H2,1-2H3/t6-/m1/s1
