18
gdb 29576	2.82792	1.44626	1.00985	1.4749	78.76	-0.2015	0.0293	0.2308	1171.8131	0.148147	-401.943515	-401.935256	-401.934311	-401.976638	30.969	
C	 0.2762868685	 1.4252662809	 0.227281228	-0.504744
C	 0.0930660587	-0.0489647071	 0.0559488556	 0.169844
C	 0.0479097737	-0.7647592047	-1.0982224963	-0.09305
O	-0.1566688076	-2.0857226114	-0.85780829	-0.153002
C	-0.2379631486	-2.2305442953	 0.496189549	-0.091354
C	-0.0947850597	-1.0206927635	 1.1075708686	 0.1497
N	-0.1979991368	-0.7066123995	 2.4729088348	-0.150261
C	 0.277268691	-1.6745708877	 3.4517305229	-0.229925
C	 1.0266019689	-0.4078421405	 3.2211121862	-0.225361
H	 1.2020863195	 1.6614539866	 0.7651270359	 0.125449
H	 0.315955436	 1.9324515315	-0.7405880908	 0.12265
H	-0.5462261565	 1.8591610807	 0.8062710279	 0.137642
H	 0.1388231723	-0.4842890783	-2.1353911021	 0.130553
H	-0.4292026904	-3.2262423944	 0.8579819829	 0.128909
H	-0.3446157775	-1.7937279634	 4.3337419642	 0.121454
H	 0.7331222478	-2.5892740925	 3.0790091253	 0.119107
H	 1.9729122023	-0.4841014055	 2.6908422026	 0.121493
H	 0.9521782484	 0.4129187541	 3.9279227752	 0.120899
78.4557	133.2601	158.4492	178.4754	256.8232	289.2114	407.0901	506.5639	553.8416	611.7225	671.3966	685.3639	739.41	763.2248	824.6381	881.3765	907.0271	922.4704	1011.7284	1038.9926	1067.6814	1079.8353	1109.6717	1131.3795	1149.6092	1171.6338	1191.3491	1192.6819	1252.813	1278.0066	1362.2553	1398.6717	1420.3351	1480.0099	1488.0096	1497.095	1514.1813	1589.2684	1659.0506	3028.1247	3078.7241	3104.9166	3109.0362	3112.0025	3189.5497	3203.9645	3266.4277	3283.1051
CC1=COC=C1N1CC1	Cc1cocc1N1CC1	
InChI=1S/C7H9NO/c1-6-4-9-5-7(6)8-2-3-8/h4-5H,2-3H2,1H3	InChI=1S/C7H9NO/c1-6-4-9-5-7(6)8-2-3-8/h4-5H,2-3H2,1H3
