15
gdb 47028	3.98089	1.34518	1.05002	3.6243	68.64	-0.2656	-0.055	0.2106	1067.5322	0.113932	-457.766279	-457.759324	-457.75838	-457.797801	26.558	
O	-0.0313463949	-0.0130902837	-0.1950322204	-0.329044
C	-0.0040415243	 1.1738277011	-0.0142586898	 0.448937
O	-1.1895056423	 1.8530533192	 0.1258800278	-0.25112
C	-1.2079636179	 3.2064976999	 0.6275202934	-0.110875
C	-0.1944288943	 4.000376023	-0.1793964917	 0.065418
O	 0.4241711438	 5.174813091	 0.41517296	-0.299941
C	 1.7578620161	 4.6156156469	 0.2147839556	-0.164239
C	 1.1187351338	 3.2894804618	-0.0983491225	 0.273312
C	 1.2430721129	 1.9804238323	 0.0710006313	-0.392255
H	-2.2399097784	 3.5436924382	 0.5143626135	 0.131149
H	-0.9334659275	 3.224965218	 1.6888608697	 0.123905
H	-0.5644387594	 4.2183321115	-1.189990296	 0.107826
H	 2.2777966953	 5.1058420284	-0.6185672662	 0.127789
H	 2.3787529881	 4.6669631046	 1.1152743296	 0.137636
H	 2.162734429	 1.4481469275	 0.2800447156	 0.131504
114.4246	196.9461	219.2231	316.0723	357.6251	446.0211	457.8104	545.1786	658.9951	730.6097	796.5903	811.5395	862.1699	874.9773	960.4818	983.9687	1008.6447	1053.4759	1068.1214	1102.1414	1126.3887	1139.3025	1183.4693	1233.6983	1248.7376	1301.7516	1328.377	1376.008	1397.2774	1501.9257	1507.2336	1769.1283	1835.6868	3015.6653	3023.1026	3043.6369	3078.5003	3120.6245	3214.7979
O=C1OCC2OCC2=C1	O=C1OC[C@H]2OC[C]2[CH]1	
InChI=1S/C6H6O3/c7-6-1-4-2-8-5(4)3-9-6/h1,5H,2-3H2	InChI=1S/C6H6O3/c7-6-1-4-2-8-5(4)3-9-6/h1,5H,2-3H2/t5-/m1/s1
