19
gdb 86253	2.93962	1.13909	0.8784	3.2536	80.53	-0.2498	-0.0595	0.1903	1314.8476	0.158351	-423.05286	-423.043718	-423.042774	-423.086907	33.745	
C	 0.0146595023	 1.6204373925	-0.114074348	-0.406617
C	 0.0644598585	 0.0928234075	 0.0064502624	-0.094982
C	 0.7857454919	-0.6031012336	-1.178232159	-0.237428
C	 1.5371914655	-1.8131097709	-0.5893886551	 0.083646
O	 2.7864812656	-1.9620378253	-1.2526228801	-0.426459
C	 1.6418021896	-1.4560194536	 0.8752436949	-0.197613
C	 0.8383489568	-0.4354170107	 1.2054714632	 0.242344
C	 0.6813854744	 0.0325339153	 2.5887351502	 0.079019
O	-0.1171275963	 0.8658694976	 2.9571968552	-0.271786
H	 1.0260775757	 2.0393511662	-0.159009561	 0.11278
H	-0.5088317489	 1.9118705894	-1.0306440865	 0.111039
H	-0.5016949268	 2.0620033166	 0.7398290791	 0.147266
H	-0.968929806	-0.2742575571	 0.0795667711	 0.091429
H	 0.1113871742	-0.8771542051	-1.9923815052	 0.104089
H	 1.5472754863	 0.0688517259	-1.5888151729	 0.122156
H	 0.9451712039	-2.7381224296	-0.6955317985	 0.081009
H	 3.1651723894	-2.8112648955	-1.0045877722	 0.284614
H	 2.2687962943	-2.0055417906	 1.5721012251	 0.105541
H	 1.3664592397	-0.461135759	 3.3149261573	 0.069952
76.1702	92.5143	181.7188	219.0553	243.4522	249.3508	275.0508	321.156	400.1452	449.7867	489.591	590.019	616.1729	724.4637	774.3637	868.663	899.0388	919.8651	946.0568	1029.2223	1037.512	1044.938	1072.9051	1118.8794	1124.3716	1175.9594	1214.1571	1266.1736	1281.7929	1302.6786	1328.4103	1343.8164	1369.4047	1406.6298	1408.5436	1430.2933	1487.0854	1495.4623	1508.0673	1675.663	1784.7242	2871.9992	2950.6413	3005.3058	3035.066	3055.8355	3097.4455	3112.3134	3140.8269	3174.3275	3821.1154
CC1CC(O)C=C1C=O	C[C@H]1C[C@@H](O)C=C1C=O	
InChI=1S/C7H10O2/c1-5-2-7(9)3-6(5)4-8/h3-5,7,9H,2H2,1H3	InChI=1S/C7H10O2/c1-5-2-7(9)3-6(5)4-8/h3-5,7,9H,2H2,1H3/t5-,7+/m0/s1
