12
gdb 129127	2.88972	1.71897	1.08029	2.9377	66.27	-0.2751	-0.1248	0.1503	996.1843	0.077862	-464.961718	-464.954441	-464.953497	-464.994724	25.516	
N	-0.0479914796	 1.3409146641	-0.091564632	-0.536022
C	 0.0416842138	 0.0793755971	-0.011904392	 0.47078
N	 1.2306955789	-0.6494208923	 0.0800004906	-0.271984
C	 1.1379756765	-1.9250929901	 0.0149383772	 0.111912
N	-0.0370637201	-2.6845316381	-0.1106840965	-0.182745
N	-1.1384095064	-2.0660366243	-0.0986992102	 0.007137
N	-1.1407924365	-0.7148586406	-0.0135688874	-0.133573
C	-2.4438337406	-0.1025021172	 0.0609082615	 0.192733
O	-3.4589187984	-0.725049325	 0.0060394265	-0.233826
H	 0.8869899241	 1.7445975901	-0.0525408862	 0.244868
H	 2.0403255592	-2.5285049353	 0.0690546033	 0.159671
H	-2.341248801	 0.9831493415	 0.1741566951	 0.17105
33.0047	110.812	230.5841	250.6805	335.1563	394.1689	509.2862	560.3511	604.5108	661.0662	778.7023	812.6623	867.6916	915.6827	984.1649	1004.1699	1043.7571	1075.5689	1147.4296	1189.5201	1303.6779	1406.5569	1416.717	1511.2049	1660.7506	1735.1708	1853.9384	3089.5709	3180.6008	3510.3814
N=C1N=CN=NN1C=O	[NH]c1ncnnn1C=O	
InChI=1S/C3H3N5O/c4-3-5-1-6-7-8(3)2-9/h1-2,4H	InChI=1S/C3H8N5O/c4-3-5-1-6-7-8(3)2-9/h2-7H,1H2
