18
gdb 12938	2.57523	2.0759	1.65231	3.1616	72.79	-0.2346	-0.0056	0.229	899.6913	0.152624	-347.806752	-347.798561	-347.797617	-347.839062	30.572	
C	-0.0158662571	 1.5608633242	 0.0482748776	-0.420745
C	 0.112359653	 0.0502607745	 0.0649708333	-0.044362
C	 1.3509754619	-0.7295280458	-0.2275334044	-0.116154
C	 2.5983114017	-0.0086751161	 0.3000545227	-0.361616
C	 1.9591979738	-0.1081148734	 1.709728541	 0.357458
O	 2.3950724362	 0.0613490583	 2.815195103	-0.319157
C	 0.7121554054	-0.774090468	 1.203281092	 0.197911
C	-0.0541834329	-1.8300867013	 1.9485371898	-0.49711
H	 0.8701747005	 2.0640708618	 0.4420976964	 0.130703
H	-0.1804076477	 1.9224523354	-0.9727954801	 0.120917
H	-0.8696783085	 1.8789389753	 0.6554332424	 0.125716
H	-0.7812500813	-0.4481884559	-0.3097594799	 0.093549
H	 1.3713187623	-1.545125391	-0.9396359117	 0.099117
H	 3.5053065856	-0.6197780591	 0.2681382976	 0.129446
H	 2.8259598621	 0.9820577489	-0.1021527422	 0.118431
H	-0.6570492636	-1.3843431561	 2.7472111618	 0.13583
H	-0.7333654735	-2.369940887	 1.2811836847	 0.119381
H	 0.6205675621	-2.5566982948	 2.4124613559	 0.130686
99.1442	147.2634	180.5313	209.3742	237.4159	276.8217	368.4176	466.796	510.1634	583.8716	650.9443	668.9801	735.3547	819.2781	877.3543	924.6932	952.1969	986.8952	1013.4376	1038.5889	1062.6275	1091.4356	1120.9417	1132.8417	1163.4583	1216.8007	1253.753	1306.4222	1341.1633	1413.8452	1417.0872	1448.5225	1470.0617	1482.1014	1494.255	1496.5628	1504.6143	1868.2274	3031.6747	3036.896	3059.3533	3094.9906	3095.9813	3104.188	3107.5345	3110.559	3127.9571	3192.8475
CC1C2CC(=O)C12C	C[C@H]1[C@H]2CC(=O)[C@@]12C	
InChI=1S/C7H10O/c1-4-5-3-6(8)7(4,5)2/h4-5H,3H2,1-2H3	InChI=1S/C7H10O/c1-4-5-3-6(8)7(4,5)2/h4-5H,3H2,1-2H3/t4-,5+,7-/m0/s1
