13
gdb 26744	3.48506	1.3008	0.94724	2.6416	63.5	-0.2028	-0.0475	0.1553	1118.7362	0.088748	-489.926105	-489.917788	-489.916844	-489.959109	29.362	
O	 0.1444689673	 1.3774051904	-0.068446843	-0.450133
C	 0.1039825575	 0.0224022088	-0.0637945226	 0.225934
C	 0.0858843663	-0.7845524901	-1.158140718	 0.285943
O	 0.0978400549	-0.578950946	-2.4973965453	-0.447592
N	 0.0455156999	-2.0884397731	-0.6604870224	-0.112946
C	 0.0158201409	-3.2744173348	-1.3987799852	 0.176731
O	-0.0183809227	-4.3642755006	-0.8930026235	-0.286491
C	 0.0417789124	-1.9721040866	 0.7221386515	 0.017534
N	 0.0765342421	-0.7228400306	 1.0948167948	-0.337121
H	 0.1457662417	 1.6597707213	 0.8536287344	 0.308282
H	 0.137677848	 0.3716628793	-2.6504319684	 0.321794
H	 0.0276030785	-3.0845167109	-2.4833622798	 0.12949
H	 0.0126757834	-2.8443891573	 1.3529172975	 0.168575
103.2892	153.7632	191.6043	199.0713	248.7723	261.7098	307.7182	348.7505	415.2782	551.6992	632.8651	683.4829	696.9132	787.4573	793.346	841.1518	1030.2196	1042.0833	1119.8143	1229.5948	1245.4421	1296.5952	1357.3526	1412.8398	1437.9029	1503.5622	1534.6396	1741.2957	1826.2873	3027.3831	3291.2828	3815.1642	3827.5435
OC1=C(O)N(C=O)C=N1	Oc1c(O)n(C=O)cn1	
InChI=1S/C4H4N2O3/c7-2-6-1-5-3(8)4(6)9/h1-2,8-9H	InChI=1S/C4H4N2O3/c7-2-6-1-5-3(8)4(6)9/h1-2,8-9H
