16
gdb 56467	2.43956	1.13532	0.80663	2.4192	74.39	-0.2753	-0.0361	0.2392	1372.6304	0.123892	-434.12098	-434.111566	-434.110622	-434.156388	32.691	
C	 0.597915029	 1.6239913281	-0.6486987621	-0.3884
C	-0.0769756316	 0.4551809157	 0.0996997726	-0.287446
C	-0.0377908229	-0.7844135819	-0.673656444	 0.284166
N	 0.0120995732	-1.7799368563	-1.2598092206	-0.321405
C	 0.5199353474	 0.3189519502	 1.5238441118	 0.471595
O	 0.6333418838	 1.3031871451	 2.2217878966	-0.357289
N	 0.8735691598	-0.9432681886	 1.9234452333	-0.336426
C	 1.3988093437	-1.2231128	 3.1822382716	 0.098115
N	 1.7081485954	-2.415235496	 3.4813347843	-0.448345
H	 1.6395098135	 1.3869505688	-0.8788208714	 0.144914
H	 0.0728446064	 1.8315786401	-1.5829898426	 0.140695
H	 0.5689019024	 2.5051036941	-0.0069489621	 0.161576
H	-1.1323826201	 0.7100894952	 0.2610911368	 0.166112
H	 0.7710185021	-1.7290012714	 1.2930993015	 0.287418
H	 1.4879213672	-0.3287737485	 3.8011264227	 0.145274
H	 2.0770103309	-2.4602976145	 4.4295220615	 0.239446
28.3485	114.856	125.4582	173.1436	200.0734	230.874	253.6172	294.0069	375.0137	485.9957	536.4789	544.5777	608.7618	686.1643	761.4127	838.7262	853.327	949.3912	1022.1676	1073.9768	1090.652	1099.1946	1128.5475	1211.8442	1274.9691	1296.099	1318.5325	1391.1579	1404.2919	1494.3575	1499.683	1512.9737	1732.2165	1797.655	2351.8083	3039.8982	3062.4503	3128.5114	3139.7564	3160.8466	3509.4404	3581.2189
CC(C#N)C(=O)NC=N	C[C@@H](C#N)C(=O)NC=N	
InChI=1S/C5H7N3O/c1-4(2-6)5(9)8-3-7/h3-4H,1H3,(H2,7,8,9)	InChI=1S/C5H7N3O/c1-4(2-6)5(9)8-3-7/h3-4H,1H3,(H2,7,8,9)/t4-/m0/s1
