18
gdb 50047	3.80748	1.0674	0.96689	2.2248	73.41	-0.2557	-0.0067	0.249	1233.5724	0.148015	-439.077712	-439.069456	-439.068512	-439.111484	30.167	
O	 0.0940836435	 0.2344134921	-0.5729784069	-0.284492
C	 0.0664318763	 1.3516782559	-0.1182601391	 0.133987
N	 1.1097219836	 1.9600229367	 0.5568100817	-0.099603
C	 2.5031753515	 1.8049656138	 0.1986125905	-0.29738
C	 1.8459824598	 3.1514290185	 0.1538029516	 0.271199
C	 1.563692915	 3.8975574469	-1.1511316866	-0.299477
C	 1.1263932293	 5.27022884	-0.6261312046	-0.081334
O	 1.9445044292	 5.4887450169	 0.5161157864	-0.24699
C	 2.0543473365	 4.2523572148	 1.2066634355	-0.131493
H	-0.8386091457	 1.9892777464	-0.1339027682	 0.084649
H	 3.1793881208	 1.5609430011	 1.01428215	 0.127795
H	 2.7142956092	 1.301691502	-0.7424860502	 0.137381
H	 2.4900010172	 3.9997484827	-1.7251160711	 0.125275
H	 0.82068193	 3.4039180195	-1.7812912961	 0.120001
H	 1.299732702	 6.0913987106	-1.3250305754	 0.117809
H	 0.0584421533	 5.2633023252	-0.3517586322	 0.095024
H	 1.2861427933	 4.1570024223	 1.98784439	 0.110134
H	 3.0403529151	 4.2161305546	 1.6793563948	 0.117514
45.7893	89.9771	159.7329	213.9078	270.0234	326.6982	363.4132	446.5161	482.9563	607.0591	681.6046	757.2949	848.3012	882.736	920.0118	947.532	960.8142	977.5485	1030.7412	1040.4653	1099.9526	1118.4746	1127.2379	1138.8987	1182.4883	1221.227	1229.5543	1239.1374	1261.4809	1312.2818	1349.1145	1390.9148	1416.299	1435.4533	1480.9091	1507.1185	1515.5805	1521.4001	1798.3415	2947.6435	2969.8666	3000.8709	3058.1917	3080.2006	3102.3962	3105.5078	3117.2411	3190.0989
O=CN1CC11CCOC1	O=CN1C[C@]21CCOC2	
InChI=1S/C6H9NO2/c8-5-7-3-6(7)1-2-9-4-6/h5H,1-4H2	InChI=1S/C6H9NO2/c8-5-7-3-6(7)1-2-9-4-6/h5H,1-4H2/t6-,7?/m1/s1
