16
gdb 20245	4.01795	2.97061	2.45047	1.3983	72.83	-0.1939	-0.0168	0.1771	639.324	0.132961	-309.364012	-309.358906	-309.357962	-309.392647	22.811	
C	-0.2066250294	 1.3073235685	 0.1091203347	-0.271464
C	 1.3804539019	 1.2387430453	 0.0462520471	-0.021335
C	 2.2060050844	 0.1029879404	 0.7404987458	-0.102919
C	 1.536479034	-1.3128640437	 0.5113568505	-0.074428
C	 0.0950251345	-1.0925549558	 0.3073810244	-0.103221
C	-0.0507206939	-0.0653543321	-0.5649017049	 0.008181
C	 1.3177446957	 0.2942538661	-1.1868592337	-0.061703
C	 2.3526196899	-0.6539703603	-0.5667757416	-0.087768
H	-0.7136284413	 1.3292711291	 1.0756347579	 0.103898
H	-0.5522342474	 2.1372887878	-0.5182571347	 0.09972
H	 1.926446268	 2.1833152424	-0.0142727866	 0.083073
H	 2.9174517747	 0.2284553099	 1.5455108804	 0.091258
H	 1.963206212	-2.1292556444	 1.0842248963	 0.086704
H	-0.6079689938	-1.2742655614	 1.1158128386	 0.091601
H	 1.3700987281	 0.6629450476	-2.2086990265	 0.069463
H	 3.2237500026	-1.0972424493	-1.0292411777	 0.08894
339.985	459.5196	512.063	636.0345	664.1264	696.1791	723.2709	760.1079	786.8544	812.9249	853.1623	868.5621	884.2819	910.8065	932.83	951.4836	980.91	997.4964	1025.9653	1030.3639	1057.351	1077.2833	1095.7718	1108.1412	1174.8375	1190.4589	1228.0615	1239.2713	1250.1366	1275.1074	1321.3939	1354.2738	1492.4513	1564.9683	3031.6583	3083.8483	3113.4981	3134.648	3157.6596	3172.6546	3200.2627	3212.5223
C1C2C3C4C=C1C2C34	C1[C@H]2[C@H]3[C@H]4[CH][C]1[C@@H]2[C@@H]34	
InChI=1S/C8H8/c1-3-2-5-7-4(1)6(3)8(5)7/h2,4-8H,1H2	InChI=1S/C8H8/c1-3-2-5-7-4(1)6(3)8(5)7/h2,4-8H,1H2/t4-,5-,6+,7+,8+/m1/s1
