22
gdb 60568	2.42436	1.24728	0.91666	2.1743	82.62	-0.229	0.0811	0.3101	1339.9031	0.192394	-404.295718	-404.285938	-404.284994	-404.330602	36.359	
C	-1.0083644178	 1.5698736862	 2.1218769265	-0.391744
C	-0.9842501104	 0.3309173361	 1.2216413834	 0.015029
C	-0.8535056146	 0.7461010025	-0.2322314626	 0.10794
C	-1.6282167603	 0.1310372103	-1.3166500502	-0.185978
O	-1.982393966	 1.4145092448	-0.797286406	-0.242321
N	 0.1771513948	-0.4880062491	 1.5648199595	-0.088243
C	 0.1234337767	-1.3076201399	 2.7694215606	-0.251278
C	 0.1724665385	-1.9469797642	 1.4227857553	 0.026941
C	-0.9983532648	-2.7512483857	 0.9011697363	-0.417702
H	-0.0657235226	 2.1195461814	 2.0371538484	 0.122799
H	-1.8301675767	 2.2282461547	 1.8292039595	 0.132634
H	-1.1437016261	 1.2867180306	 3.1698577355	 0.112417
H	-1.9426565452	-0.2010634743	 1.3401308567	 0.059612
H	 0.1099953051	 1.1948441829	-0.4792564313	 0.096943
H	-1.2347408758	 0.1298099917	-2.3324420495	 0.114268
H	-2.3304197968	-0.6704716625	-1.0912639973	 0.110565
H	 0.9967964848	-1.2730885847	 3.4161873702	 0.111932
H	-0.8271811592	-1.3717359618	 3.2999133392	 0.104914
H	 1.1372438763	-2.3246783461	 1.0854504484	 0.089501
H	-1.9553333012	-2.411626851	 1.3044970285	 0.122853
H	-1.0533936946	-2.7132813413	-0.1919460074	 0.124644
H	-0.876590764	-3.8012585705	 1.1882332165	 0.124273
56.2414	85.6745	150.475	200.7422	223.7367	233.2942	252.0965	294.3019	366.8775	411.1484	434.8819	465.5146	561.7273	758.7183	790.0685	822.8414	870.2861	908.2144	929.3427	957.4844	970.0157	1018.8866	1043.8247	1067.7224	1103.2109	1120.6235	1126.9879	1148.4755	1153.18	1171.826	1176.6193	1195.4675	1198.9881	1282.5416	1307.8963	1339.0634	1353.6216	1400.4298	1403.6814	1419.3214	1446.6673	1492.226	1494.7363	1497.9004	1500.2523	1511.7854	1530.0136	2963.1288	3037.3317	3041.7493	3080.095	3081.5133	3095.0035	3100.2113	3102.9863	3112.5788	3124.9676	3127.9643	3166.2629	3167.6092
CC(C1CO1)N1CC1C	C[C@@H]([C@H]1CO1)N1C[C@H]1C	
InChI=1S/C7H13NO/c1-5-3-8(5)6(2)7-4-9-7/h5-7H,3-4H2,1-2H3	InChI=1S/C7H13NO/c1-5-3-8(5)6(2)7-4-9-7/h5-7H,3-4H2,1-2H3/t5-,6+,7-,8?/m1/s1
