16
gdb 60661	3.23052	0.88727	0.7752	6.2978	81.41	-0.2571	-0.0357	0.2214	1456.9842	0.121802	-396.906743	-396.896888	-396.895944	-396.941753	35.441	
C	-0.0281180338	 1.0677903479	-0.2725309046	-0.383455
C	-0.2686548339	-0.433555805	-0.000701815	-0.139786
N	 0.4717681002	-0.8840412204	 1.1650896237	-0.272733
C	 1.6841325307	-1.2734717225	 1.0187702135	 0.202486
N	 2.4381858473	-1.299265187	-0.1417324035	-0.554314
C	 2.4110556104	-1.6987774482	 2.1867529222	 0.28163
C	 3.0476640015	-2.0710392431	 3.1356143353	-0.374159
C	-1.7058653315	-0.6792611073	 0.2253936467	 0.300976
N	-2.8390680089	-0.8568617578	 0.359737564	-0.324834
H	 1.0265021448	 1.2338374664	-0.5058355575	 0.131052
H	-0.6385770305	 1.4120567858	-1.1112829999	 0.136002
H	-0.2853243589	 1.6470616402	 0.616459435	 0.154204
H	-0.0195748362	-0.9987926976	-0.9167276279	 0.098562
H	 1.9566667978	-1.2702774157	-1.0264768342	 0.26376
H	 3.2614161482	-1.8800075735	-0.130003385	 0.26897
H	 3.5878176227	-2.3928725921	 3.9923075672	 0.211639
58.7626	87.4477	122.338	192.6577	210.6945	236.3035	283.8515	316.7439	393.2917	448.065	456.9887	486.0167	535.3049	575.8493	622.4743	652.9721	670.7704	726.5694	830.0737	850.2451	935.9624	1036.6704	1088.5123	1110.489	1159.6696	1292.813	1336.4252	1373.4966	1401.2925	1487.0116	1496.1101	1635.5191	1698.7367	2241.6917	2365.6677	2930.5406	3052.9612	3131.5618	3144.1201	3498.7687	3588.0623	3701.4109
CC(N=C(N)C#C)C#N	C[C@@H](N=C(N)C#C)C#N	
InChI=1S/C6H7N3/c1-3-6(8)9-5(2)4-7/h1,5H,2H3,(H2,8,9)	InChI=1S/C6H7N3/c1-3-6(8)9-5(2)4-7/h1,5H,2H3,(H2,8,9)/t5-/m1/s1
