12
gdb 132402	2.06605	1.83771	0.9726	3.3397	59.5	-0.2571	-0.0218	0.2354	1066.0252	0.07906	-513.995877	-513.989175	-513.98823	-514.027141	25.809	
O	 0.1132882588	 1.3019789395	 0.0311176734	-0.402981
C	 0.0892913579	-0.0357732729	 0.0375819426	 0.465317
N	 0.1344378641	-0.6590858533	-1.1396470146	-0.452725
C	 0.1084371704	-1.9933322385	-1.0899662068	 0.462908
O	 0.152556736	-2.6460012301	-2.2556753562	-0.382837
N	 0.0431887717	-2.7587457119	-0.006678039	-0.353739
C	 0.0007602606	-2.0912045038	 1.1296797159	 0.365076
F	-0.0645365649	-2.8266487214	 2.2257348539	-0.054886
C	 0.0192347433	-0.7124283671	 1.2543075906	-0.392692
H	 0.1623751729	 1.5750992173	-0.8960499728	 0.305986
H	 0.1975477992	-1.973569983	-2.9486956803	 0.30851
H	-0.0171635701	-0.2041145647	 2.2056668733	 0.132065
192.2093	219.8243	244.4467	351.9033	362.8848	531.0059	545.6029	561.8943	566.1896	612.5007	651.3983	714.9134	727.0533	808.3497	838.0955	998.1505	1028.2748	1100.1424	1180.3453	1243.086	1257.6754	1354.4859	1477.0536	1500.722	1522.3456	1639.1563	1669.2874	3251.9089	3764.469	3788.0538
OC1=NC(O)=NC(F)=C1	Oc1nc(O)nc(F)c1	
InChI=1S/C4H3FN2O2/c5-2-1-3(8)7-4(9)6-2/h1H,(H2,6,7,8,9)	InChI=1S/C4H3FN2O2/c5-2-1-3(8)7-4(9)6-2/h1H,(H2,6,7,8,9)
