19
gdb 62981	2.23741	1.58621	1.25652	0.6757	80.96	-0.2421	0.0452	0.2872	1090.2561	0.15688	-385.827796	-385.81882	-385.817876	-385.860779	35.34	
C	-0.1838361714	 1.5747627766	-0.1134011719	-0.460035
C	 0.0116927747	 0.0689063909	-0.0522672285	 0.394137
O	-1.2172987121	-0.5932147287	 0.1904110503	-0.475635
C	 0.6821756537	-0.6437621636	-1.229746281	-0.065315
C	 2.1202662769	-0.2320666924	-1.3844686169	-0.302334
C	 1.7612055424	-1.2282487612	-0.3244257742	-0.053244
C	 1.1590197662	-0.5145540585	 0.9035273267	-0.264761
C	 2.0024146116	 0.3904670669	 1.6586398216	 0.338635
C	 2.6889631581	 1.1674399881	 2.2701940552	-0.47081
H	 0.7478518108	 2.0997861607	-0.3336507244	 0.129705
H	-0.9198396368	 1.8202364207	-0.8851069248	 0.123104
H	-0.5474944096	 1.9555053463	 0.8490580801	 0.112152
H	-1.6408687827	-0.1651183661	 0.9428292162	 0.276898
H	 0.1188073047	-1.1234683465	-2.0202960383	 0.094197
H	 2.6188697368	-0.6436807307	-2.2560046468	 0.115719
H	 2.458343405	 0.7637216474	-1.1119621164	 0.118206
H	 2.1700553565	-2.2303493079	-0.3024567964	 0.092824
H	 0.6707736099	-1.2331371108	 1.5670666656	 0.103594
H	 3.3013562653	 1.8406120692	 2.8172081039	 0.192963
105.0042	136.4622	207.877	222.7084	260.2244	308.4753	362.1318	376.6723	392.603	478.1966	539.3898	550.2925	620.9577	627.1478	636.8704	755.6812	799.9827	830.3892	889.0498	951.1954	964.9825	983.5544	1002.4348	1012.198	1065.2325	1074.9915	1088.2543	1113.3077	1136.1262	1163.0911	1184.7993	1233.0989	1277.0061	1316.7227	1355.1851	1393.4903	1410.4554	1481.9768	1489.2242	1497.1181	2223.9897	3030.0762	3073.5064	3097.4101	3120.88	3131.0802	3186.4969	3194.2369	3208.3107	3502.9361	3798.956
CC1(O)C2CC2C1C#C	C[C@@]1(O)[C@H]2C[C@H]2[C@H]1C#C	
InChI=1S/C8H10O/c1-3-6-5-4-7(5)8(6,2)9/h1,5-7,9H,4H2,2H3	InChI=1S/C8H10O/c1-3-6-5-4-7(5)8(6,2)9/h1,5-7,9H,4H2,2H3/t5-,6+,7-,8-/m0/s1
