15
gdb 126108	7.04573	0.67765	0.62297	3.1591	82.12	-0.2621	-0.0531	0.209	1742.3727	0.112718	-416.787615	-416.779237	-416.778293	-416.822472	28.879	
C	-0.0454706957	 1.5253383835	 0.0790388029	-0.370431
C	 0.0162731493	-0.0090618609	-0.0365213177	-0.338346
C	 0.7015991368	-0.4636155669	-1.2371006572	 0.345009
C	 1.2725232482	-0.819254752	-2.2379591345	-0.121546
C	 1.9368605335	-1.2485901256	-3.4021043934	 0.248864
N	 2.4599049338	-0.5271561145	-4.359232612	-0.31492
C	 2.9514712576	-1.4906176269	-5.1968271288	 0.003169
N	 2.7586247688	-2.7236055007	-4.8107330742	-0.096832
O	 2.0762822045	-2.5758190205	-3.6052013598	-0.19655
H	 0.9593475162	 1.954122802	 0.1071160871	 0.138606
H	-0.5758171138	 1.9585270989	-0.7726255313	 0.138705
H	-0.569619365	 1.8101792772	 0.9952459289	 0.124863
H	 0.5225936427	-0.4313993088	 0.8408412129	 0.146744
H	-0.9986068758	-0.4268793492	-0.0295959104	 0.14678
H	 3.4666197987	-1.2674626556	-6.1198861725	 0.145887
28.2636	73.2461	100.1689	186.7951	216.9202	316.83	434.4416	464.2025	502.2834	579.1564	653.8037	770.8582	784.2321	895.9145	929.8215	932.1788	979.138	1002.1085	1058.7459	1091.3602	1101.7151	1189.1737	1257.8246	1282.2669	1305.4136	1348.0857	1413.6668	1466.0975	1495.8613	1500.8898	1506.4173	1595.5337	2362.0077	3025.5815	3051.5986	3054.7799	3127.5158	3131.9341	3260.6895
CCC#CC1=NC=NO1	CCC#Cc1ncno1	
InChI=1S/C6H6N2O/c1-2-3-4-6-7-5-8-9-6/h5H,2H2,1H3	InChI=1S/C6H6N2O/c1-2-3-4-6-7-5-8-9-6/h5H,2H2,1H3
