16
gdb 107779	2.84776	1.70232	1.30416	2.9121	68.35	-0.2555	-0.0232	0.2323	970.1342	0.124894	-437.837661	-437.830208	-437.829264	-437.869733	28.497	
O	 0.0590888645	 1.3739605344	-0.1304274559	-0.419019
C	 0.0928608875	-0.0206311132	 0.1174189092	-0.193001
C	-1.3171640316	-0.5539344809	 0.1364111932	 0.186124
C	-2.3230567694	-0.4258917563	 1.2989029862	-0.291268
C	-2.920002846	-1.6961167686	 0.7085915793	-0.025211
C	-2.8893931398	-1.6353000663	-0.7948881771	-0.182845
N	-1.6689434069	-2.0954288692	 0.0242698088	-0.181813
C	-2.1573206093	-0.3866330018	-1.1273770242	 0.451031
O	-2.0387426018	 0.3219148376	-2.0929279612	-0.364658
H	-0.3651957174	 1.4910500462	-0.9913444678	 0.302395
H	 0.672235326	-0.5668142007	-0.6428061868	 0.110231
H	 0.5902956083	-0.1656819706	 1.0815328461	 0.116466
H	-1.8493182463	-0.6362171501	 2.2617996791	 0.123859
H	-2.9235279784	 0.4847445017	 1.3667827801	 0.124262
H	-3.5455424389	-2.4355817048	 1.1971178609	 0.11585
H	-3.4469172505	-2.3125151873	-1.42855693	 0.127596
90.3564	140.6043	192.9882	260.5958	368.2704	399.2174	477.8488	516.8022	623.5806	705.858	716.5448	772.1059	818.832	829.295	851.1907	903.0004	989.4555	992.806	1015.636	1036.0182	1069.681	1074.6201	1112.4727	1125.7044	1173.6997	1232.1617	1257.7396	1302.8583	1340.3657	1347.956	1380.1352	1442.1177	1497.5013	1507.3523	1864.1215	2991.7159	3059.1048	3077.9189	3114.9323	3175.9948	3215.4762	3757.3137
OCC12CC3C(N13)C2=O	OC[C@]12C[C@H]3[C@H](N13)C2=O	
InChI=1S/C6H7NO2/c8-2-6-1-3-4(5(6)9)7(3)6/h3-4,8H,1-2H2	InChI=1S/C6H7NO2/c8-2-6-1-3-4(5(6)9)7(3)6/h3-4,8H,1-2H2/t3-,4-,6-,7?/m0/s1
