21
gdb 76812	2.72276	1.58078	1.32405	1.6132	84.2	-0.2256	0.0619	0.2875	1066.2065	0.182748	-386.969701	-386.961558	-386.960613	-387.001749	33.084	
C	 0.0320435905	 1.5961135128	 0.1502101125	-0.423638
C	 0.0665662262	 0.0823216912	 0.0238566339	-0.122439
C	 1.1767575519	-0.5962505956	-0.9300104101	 0.024465
O	 2.3315402962	 0.1659454968	-1.1985986354	-0.408698
C	 1.3112332881	-1.7435208573	 0.141785414	-0.001792
C	 2.0953428778	-1.9631783763	 1.4799373202	-0.092336
C	 2.125590513	-0.4343471928	 1.6695657885	-0.247672
C	 0.6837341691	-0.7756102206	 1.1528208187	 0.286034
C	 0.668132924	-1.94034907	 2.193996833	-0.312522
H	 1.0184385322	 1.9902023621	 0.4115747688	 0.127442
H	-0.2836004852	 2.0675111588	-0.7887094564	 0.104351
H	-0.6734798249	 1.9095156017	 0.92679194	 0.121126
H	-0.913146246	-0.3068780816	-0.2758239797	 0.074745
H	 0.7510716312	-0.980954347	-1.867238058	 0.069238
H	 2.0859018579	 0.8762504057	-1.8008906253	 0.286391
H	 0.6856122299	-2.5893282882	-0.1595300632	 0.063166
H	 2.8992066368	-2.6742810381	 1.6933086013	 0.066816
H	 2.1815764449	-0.072208279	 2.7004679165	 0.077772
H	 2.7768452981	 0.1265874146	 1.0043968413	 0.12589
H	-0.0005452482	-2.7776714281	 1.975577794	 0.09249
H	 0.6725882164	-1.6943153291	 3.2610578554	 0.089172
157.5602	195.4028	206.6135	239.0136	252.1123	274.8653	403.1103	494.8403	531.3132	553.2838	616.1687	683.0496	741.3532	781.8898	818.2718	841.6758	875.7305	934.7415	960.914	979.9493	1013.477	1018.4794	1037.9263	1051.8872	1093.9319	1096.2942	1133.2949	1143.0487	1147.9773	1175.2894	1184.111	1198.5171	1213.3017	1226.5968	1252.2264	1262.9594	1297.2711	1349.5933	1377.7201	1400.1824	1420.7064	1492.7306	1497.052	1498.8548	1538.6899	2990.3544	3024.7125	3035.869	3044.3373	3050.5966	3053.7057	3066.7905	3087.2715	3109.657	3111.4027	3173.3539	3805.0802
CC1C(O)C2C3CC12C3	C[C@H]1[C@@H](O)[C@H]2[C@H]3C[C@@]12C3	
InChI=1S/C8H12O/c1-4-7(9)6-5-2-8(4,6)3-5/h4-7,9H,2-3H2,1H3	InChI=1S/C8H12O/c1-4-7(9)6-5-2-8(4,6)3-5/h4-7,9H,2-3H2,1H3/t4-,5-,6+,7+,8+/m0/s1
