17
gdb 74888	2.87049	1.62218	1.1367	4.4458	75.8	-0.2516	-0.0412	0.2104	1069.8465	0.13654	-421.863106	-421.855342	-421.854398	-421.895373	29.86	
C	 0.0118254787	 1.4826160589	-0.1564932375	-0.467778
C	 0.0011569048	-0.0152292235	-0.0415252078	 0.123783
C	-1.1144247515	-0.7598743345	-0.0507800058	-0.14055
C	-1.0856144328	-2.2282227115	 0.0255595967	-0.12251
C	-0.3926986592	-3.0062094955	-1.0983760299	-0.317496
C	 0.2831814019	-2.8296050865	 0.2211952935	 0.119379
O	 1.4008495684	-1.9913405938	 0.358644586	-0.237143
C	 1.3350185755	-0.6437906312	 0.1453508724	 0.375743
O	 2.3610271011	-0.0127939302	 0.1661322408	-0.329876
H	 0.5945592754	 1.8026724464	-1.0262291756	 0.143555
H	-1.0044105488	 1.8738858301	-0.2494640893	 0.11404
H	 0.490418154	 1.9374056314	 0.7162639123	 0.145317
H	-2.0856180381	-0.2749564874	-0.1199882273	 0.106435
H	-1.93297085	-2.7060265098	 0.5059174383	 0.104734
H	-0.7733359796	-3.9912262645	-1.3438653129	 0.127269
H	-0.0294154024	-2.4236850175	-1.9374438618	 0.135263
H	 0.3999117325	-3.6916218509	 0.8673638778	 0.119835
102.3174	137.2709	170.5354	299.9919	334.7069	377.493	425.9309	470.4215	519.7287	576.7629	686.9979	747.5836	775.9899	800.4233	835.7782	885.0287	926.9097	993.2804	1018.4078	1032.7359	1044.9522	1074.8801	1087.2215	1125.3763	1129.5149	1184.7839	1233.5315	1249.1047	1371.9708	1386.969	1416.9601	1423.7942	1470.3747	1472.5841	1487.1485	1709.8225	1812.2266	3042.0779	3100.5958	3124.0023	3137.765	3150.1548	3164.2704	3181.9533	3233.9425
CC1=CC2CC2OC1=O	CC1=C[C@H]2C[C@H]2OC1=O	
InChI=1S/C7H8O2/c1-4-2-5-3-6(5)9-7(4)8/h2,5-6H,3H2,1H3	InChI=1S/C7H8O2/c1-4-2-5-3-6(5)9-7(4)8/h2,5-6H,3H2,1H3/t5-,6+/m0/s1
