18
gdb 23320	3.33504	1.24174	1.05351	1.352	75.15	-0.2433	0.0023	0.2456	1159.9643	0.148318	-439.026501	-439.018496	-439.017552	-439.059332	31.021	
O	-0.0552378	 1.4085627855	 0.0660532263	-0.394972
N	 0.0766012118	 0.0146333665	-0.0382352026	-0.194674
C	-1.044829085	-0.5922131064	-0.0068731874	 0.358746
C	-2.4156223224	 0.0387004379	 0.0441415499	-0.163586
O	-3.1657215378	-0.3543889116	-1.1017385016	-0.255619
C	-3.3125388422	-1.7369902077	-1.2729135669	 0.10148
C	-2.4186895056	-2.3922733273	-2.2913063809	-0.303803
C	-2.2151307599	-2.6673663024	-0.8169353624	-0.055155
C	-1.0337698062	-2.1003298999	-0.0405927197	-0.305782
H	 0.8579484207	 1.7019756389	-0.0165008019	 0.307677
H	-2.928856795	-0.262156669	 0.9719908886	 0.098101
H	-2.353577797	 1.1245917904	 0.0112242132	 0.144195
H	-4.3465779412	-2.063845078	-1.1848745492	 0.091282
H	-2.8148355806	-3.1864179944	-2.9143464657	 0.111637
H	-1.7121127192	-1.7315449193	-2.782760024	 0.127146
H	-2.541307789	-3.6448406871	-0.4751563336	 0.091725
H	-0.0733623446	-2.4588108788	-0.4221784821	 0.123732
H	-1.1143686767	-2.4526643272	 0.9980825598	 0.11787
51.7575	150.9323	255.2694	276.7097	313.7652	353.0368	410.0597	422.3385	467.9216	578.4364	585.0105	726.6332	761.8891	811.0858	849.5751	859.7993	885.9925	970.5875	986.0564	1031.2488	1045.362	1055.5364	1068.9157	1111.7265	1127.1953	1185.8495	1227.4044	1241.8111	1258.9267	1284.7863	1323.4787	1360.5429	1381.946	1407.9919	1419.2643	1469.3093	1482.332	1492.9301	1742.6047	2973.0918	3003.3181	3082.7116	3120.0692	3132.7717	3151.3015	3157.3261	3223.3789	3823.9682
ON=C1COC2CC2C1	ON=C1CO[C@H]2C[C@H]2C1	
InChI=1S/C6H9NO2/c8-7-5-1-4-2-6(4)9-3-5/h4,6,8H,1-3H2	InChI=1S/C6H9NO2/c8-7-5-1-4-2-6(4)9-3-5/h4,6,8H,1-3H2/t4-,6+/m1/s1
