12
gdb 132413	4.09482	1.13325	0.88761	2.4144	64.55	-0.2748	-0.099	0.1757	1154.4197	0.077923	-476.829696	-476.822793	-476.821849	-476.861665	24.766	
F	-0.0117618988	 0.0537560092	 0.0032938957	-0.049944
C	-0.0215743558	 1.3746061577	 0.0104657157	 0.38025
C	-1.2435229157	 2.0443292905	 0.0310609844	-0.328612
C	-1.1600912254	 3.4303604561	 0.0372877567	 0.243105
C	-2.4279140908	 4.2372981989	 0.0592327948	 0.116516
O	-2.4713315415	 5.4367870036	 0.0662008609	-0.224643
N	 0.0133859785	 4.0824852914	 0.0244273491	-0.282142
C	 1.0965225358	 3.3201435621	 0.0053023319	 0.072598
N	 1.1418823052	 1.9780633302	-0.0025066971	-0.294721
H	-2.186623362	 1.5117769195	 0.0413570352	 0.1384
H	-3.349834077	 3.6138143676	 0.068745648	 0.086438
H	 2.0569928273	 3.8279770732	-0.0053962852	 0.142756
83.7092	200.2374	220.9383	225.4389	386.4515	451.3902	468.1285	564.1071	638.4992	715.4714	792.0702	841.707	893.5835	959.7172	1001.1422	1003.1062	1034.6526	1144.9792	1265.6783	1301.1513	1348.5673	1389.2402	1434.5984	1500.3773	1607.5475	1620.2758	1834.475	2885.3842	3180.958	3210.7662
FC1=CC(C=O)=NC=N1	Fc1cc(C=O)ncn1	
InChI=1S/C5H3FN2O/c6-5-1-4(2-9)7-3-8-5/h1-3H	InChI=1S/C5H3FN2O/c6-5-1-4(2-9)7-3-8-5/h1-3H
