20
gdb 5981	2.92344	1.32474	1.15082	1.7351	72.3	-0.2498	-0.0204	0.2295	1152.9098	0.173076	-386.146306	-386.136147	-386.135203	-386.181357	35.334	
C	 0.1494814997	 1.3862800827	-0.0821884849	-0.226512
O	 0.0382908078	-0.0159290432	-0.0347741476	-0.247501
C	 0.7760076573	-0.6588747995	-1.0533833297	-0.060453
C	 0.5880034938	-2.1729117258	-0.913680711	 0.120141
C	 1.1141472648	-2.6714095565	 0.4494250834	-0.420633
C	-0.8970253814	-2.5624305942	-1.0759823152	-0.420631
C	 1.3747212115	-2.8837732047	-2.0017218213	 0.150405
O	 2.0451886096	-2.3485140314	-2.847514966	-0.260437
H	 1.1925694191	 1.7173846874	 0.0419070723	 0.106535
H	-0.2266432991	 1.7935319601	-1.0338902657	 0.106535
H	-0.4498848798	 1.7907029243	 0.7371523361	 0.12603
H	 0.4370099878	-0.3272951704	-2.0474309723	 0.095926
H	 1.8448349568	-0.4035837796	-0.979664866	 0.095931
H	 0.5507937412	-2.1949791078	 1.2546414205	 0.143222
H	 1.0032615479	-3.756734183	 0.5429061038	 0.114471
H	 2.1726385589	-2.4239968348	 0.5808277292	 0.121912
H	-1.2892325491	-2.2364164072	-2.0448846808	 0.12191
H	-1.0317684822	-3.6464619045	-1.0005914391	 0.114472
H	-1.4876935803	-2.0845140997	-0.2914875499	 0.143217
H	 1.2846180656	-3.9956959022	-1.9622585457	 0.075458
78.2351	89.3656	107.7851	146.1992	192.7509	228.5309	232.3886	272.7907	320.7667	327.6955	363.1791	397.575	488.7929	627.7029	778.973	900.6937	932.8761	959.7604	967.3261	990.7345	1020.3674	1071.2469	1158.2212	1174.0519	1201.8136	1216.1644	1246.1583	1276.6892	1288.163	1390.4038	1403.8771	1413.8872	1435.2403	1480.1731	1481.0593	1484.5396	1489.3731	1494.5429	1504.8001	1515.0261	1523.1259	1825.5213	2849.67	2967.7485	2979.4892	3006.6633	3017.0255	3034.6351	3038.4358	3100.8561	3103.6131	3113.6949	3129.5713	3131.6286
COCC(C)(C)C=O	COCC(C)(C)C=O	
InChI=1S/C6H12O2/c1-6(2,4-7)5-8-3/h4H,5H2,1-3H3	InChI=1S/C6H12O2/c1-6(2,4-7)5-8-3/h4H,5H2,1-3H3
