17
gdb 38747	2.54633	2.3526	1.87357	0.7397	70.04	-0.2398	-0.0065	0.2333	816.5822	0.139901	-421.819789	-421.813935	-421.812991	-421.849643	25.324	
C	-0.0076245748	 1.5743842775	-0.0009395351	-0.241093
C	 1.4929457338	 1.9213348654	 0.0095888129	 0.079686
O	 2.0838349076	 1.9122405018	 1.325473915	-0.306301
C	 2.4504633396	 0.5018391074	 1.2013666555	 0.009112
C	 1.4846992515	-0.3875286101	 1.9316251253	-0.044886
C	 0.2765744899	-0.5675322034	 1.3947387092	-0.070627
C	 0.0087652949	 0.0175624044	 0.0238522383	 0.013595
O	 1.1470103992	-0.3024132479	-0.8049920483	-0.253526
C	 2.1428322624	 0.5634223267	-0.3411410027	 0.054724
H	-0.536415497	 2.0169473021	 0.8445476876	 0.118711
H	-0.4649015005	 1.9197553682	-0.9333188184	 0.105487
H	 1.7461303302	 2.8262697336	-0.5477270389	 0.08167
H	 3.4912943552	 0.3503674769	 1.4994796605	 0.07589
H	 1.7742488846	-0.834970035	 2.8769432348	 0.099152
H	-0.495047159	-1.1564895572	 1.8802631731	 0.10021
H	-0.8706127519	-0.4276862027	-0.4442415859	 0.083916
H	 3.0066048942	 0.5226435223	-1.0023406729	 0.09428
235.5263	316.2282	417.7871	443.5519	530.4568	573.7291	652.7971	681.5804	722.3559	795.7585	828.0312	843.1576	863.2183	905.5355	941.4247	951.3239	977.0875	983.0272	989.628	1020.1663	1027.2376	1070.15	1106.5072	1165.4086	1174.7669	1192.4408	1225.0049	1260.7917	1294.572	1307.5845	1326.8873	1343.0308	1354.982	1384.2636	1401.7898	1467.1063	1691.6914	3058.159	3071.279	3083.7045	3102.4462	3130.9663	3136.4919	3168.4843	3191.1256
C1C2OC3C=CC1OC23	C1[C@H]2O[C@H]3C=C[C@@H]1O[C@@H]23	
InChI=1S/C7H8O2/c1-2-5-7-6(9-5)3-4(1)8-7/h1-2,4-7H,3H2	InChI=1S/C7H8O2/c1-2-5-7-6(9-5)3-4(1)8-7/h1-2,4-7H,3H2/t4-,5-,6+,7+/m0/s1
