18
gdb 99981	2.81228	1.12318	0.9852	5.1996	68.02	-0.2785	0.0113	0.2898	1236.1198	0.144239	-476.221403	-476.210936	-476.209992	-476.256443	37.85	
C	-0.0048823937	 1.5814122379	 0.0939124744	-0.450034
C	-0.0330528607	 0.0510457247	-0.0077358972	 0.346024
O	 0.6540983565	-0.5429096052	 1.081194226	-0.472451
C	-1.4775416519	-0.4752659241	-0.0305529316	-0.118637
O	-2.0110784546	-0.193178409	 1.260185182	-0.436669
C	 0.7037968663	-0.4682142719	-1.2688306163	-0.036968
O	 0.0620430351	-0.0999848943	-2.4759148229	-0.419047
C	 2.1199912531	-0.053191477	-1.270087805	 0.275324
N	 3.2152438603	 0.3107314596	-1.3216248269	-0.327027
H	 1.0228791852	 1.932720057	 0.2104660714	 0.148203
H	-0.4473495536	 2.0523983491	-0.7912204378	 0.104577
H	-0.5873588714	 1.9005956246	 0.9611081831	 0.140749
H	 0.0391549697	-0.5182675241	 1.8261451163	 0.29344
H	-2.0563350003	 0.0106368731	-0.8249541969	 0.109616
H	-1.4636461961	-1.557962391	-0.2205489175	 0.097686
H	-2.8441156491	-0.6615250827	 1.3602753461	 0.299996
H	 0.6785231729	-1.5621040098	-1.2311497401	 0.144226
H	 0.2506474022	 0.8285319929	-2.652042527	 0.300993
68.0611	123.5808	130.9236	208.2587	230.1283	232.678	247.553	271.7768	311.4353	340.1219	353.5333	412.5212	430.3015	464.5295	486.8031	613.5298	674.839	773.0928	881.4166	937.9128	972.6022	1009.7858	1065.8568	1083.5245	1124.137	1167.0566	1199.142	1245.0946	1258.5565	1283.5304	1337.5388	1391.5697	1405.4113	1411.0414	1449.5884	1490.5418	1503.8195	1513.5137	2358.3538	2999.7284	3038.5232	3058.4044	3071.1046	3113.2206	3140.2602	3769.4226	3811.7924	3847.665
CC(O)(CO)C(O)C#N	C[C@@](O)(CO)[C@@H](O)C#N	
InChI=1S/C5H9NO3/c1-5(9,3-7)4(8)2-6/h4,7-9H,3H2,1H3	InChI=1S/C5H9NO3/c1-5(9,3-7)4(8)2-6/h4,7-9H,3H2,1H3/t4-,5+/m0/s1
