20
gdb 14752	12.58178	0.59135	0.5749	1.0616	79.	-0.256	0.0556	0.3116	1933.944	0.174069	-348.969622	-348.959488	-348.958544	-349.005543	34.918	
C	-0.0609551838	 1.4872207111	 0.0863917722	-0.382556
C	 0.0173052814	-0.0378916387	-0.0173859027	-0.182831
C	 0.7301017686	-0.4979532718	-1.2814610117	-0.032636
O	 0.7596487127	-1.9106382122	-1.3001252123	-0.244904
C	 1.4003015945	-2.4421394439	-2.434919703	-0.048339
C	 1.3572725206	-3.9698345115	-2.3178092352	-0.350122
C	 1.9978105242	-4.6294477329	-3.4472906162	 0.288076
C	 2.5320264884	-5.147618672	-4.3909357621	-0.450527
H	 0.9372838999	 1.9385336755	 0.10192549	 0.116771
H	-0.6056634642	 1.9180654585	-0.7610009228	 0.116766
H	-0.5766674416	 1.79257533	 1.0012541557	 0.118073
H	 0.5446418205	-0.4521409212	 0.849554766	 0.106955
H	-0.9888255212	-0.4724942483	-0.0077091174	 0.106946
H	 0.2097133255	-0.115116731	-2.1768269712	 0.084354
H	 1.757296658	-0.0942036449	-1.3117787808	 0.084362
H	 0.8960825637	-2.1213665577	-3.3608781256	 0.097737
H	 2.4456786375	-2.0987311457	-2.4966338151	 0.097727
H	 1.8438386543	-4.2623405972	-1.3797661568	 0.139342
H	 0.3101128662	-4.2846157081	-2.2363028	 0.139348
H	 3.0001954849	-5.618445628	-5.2191670612	 0.195461
46.3292	70.5264	80.1491	128.5679	154.5635	177.5783	231.0089	283.8489	355.7235	373.3567	474.5363	544.3051	620.7202	646.1973	766.0792	796.7184	902.1676	907.7169	963.1647	1020.1908	1057.4943	1062.903	1090.1363	1154.1164	1162.9422	1190.8749	1231.3825	1271.1079	1298.8167	1303.3632	1316.176	1335.8106	1399.2478	1412.8976	1451.2636	1476.6796	1492.5144	1500.064	1506.9568	1517.6685	1538.0063	2241.8495	2944.955	2969.1899	2971.671	2997.1509	3032.1394	3034.8435	3039.5462	3071.9845	3072.1438	3100.31	3108.7307	3509.2573
CCCOCCC#C	CCCOCCC#C	
InChI=1S/C7H12O/c1-3-5-7-8-6-4-2/h1H,4-7H2,2H3	InChI=1S/C7H12O/c1-3-5-7-8-6-4-2/h1H,4-7H2,2H3
