20
gdb 88476	3.02099	1.17421	1.13917	1.9034	75.43	-0.2219	0.0537	0.2756	1189.2183	0.169422	-440.217305	-440.208067	-440.207123	-440.251462	34.355	
C	-0.7359036138	 1.0056426346	 0.2497114282	-0.325227
N	 0.0997849225	-0.1823227096	 0.1078912441	-0.096612
C	 1.3940419658	-0.052812178	-0.552110117	-0.266293
C	 1.31172758	-0.3559588786	 0.9048532771	-0.006428
C	 1.8078711885	 0.6135048022	 1.9591594551	 0.301922
O	 1.948265826	 1.9007704943	 1.4108414474	-0.467497
C	 1.0665886176	 0.4806323542	 3.3220050411	-0.127376
O	 2.1600289122	-0.2727842375	 3.8786206185	-0.269344
C	 3.0127949364	 0.0506041547	 2.7643478934	-0.124788
H	-0.1793561704	 1.936081774	 0.413282113	 0.124726
H	-1.3381176004	 1.1083943429	-0.6587938308	 0.119503
H	-1.4262543485	 0.8576649643	 1.0874493053	 0.114718
H	 1.6485709402	-0.8328618034	-1.2657694842	 0.109554
H	 1.7331761454	 0.9462778234	-0.8156551584	 0.126319
H	 1.4490212968	-1.3866740574	 1.2306045017	 0.098348
H	 2.2007977967	 2.5065472848	 2.1160229899	 0.282674
H	 0.9240685485	 1.4471098888	 3.8303215873	 0.086221
H	 0.1249380856	-0.0777681974	 3.3375256769	 0.119124
H	 3.5331080908	-0.8269711834	 2.3658653407	 0.112802
H	 3.7512211002	 0.8275552573	 3.0139076508	 0.087653
61.5512	94.959	156.0245	206.8199	237.866	284.2368	288.7674	345.9416	389.3587	394.6818	473.0561	550.1876	708.2974	763.2917	793.3173	876.2452	922.1735	946.4518	988.337	1012.9626	1030.2925	1044.7112	1054.7523	1100.7945	1122.5304	1130.9631	1146.9025	1156.4632	1163.9596	1173.273	1209.4211	1232.5201	1292.8335	1340.1614	1361.359	1372.2191	1443.677	1448.4385	1490.8133	1501.9636	1508.8811	1512.5331	1529.5647	2977.7123	2991.3952	3017.6403	3067.0964	3073.1373	3084.7285	3093.7888	3098.9902	3108.0985	3186.7225	3804.9453
CN1CC1C1(O)COC1	CN1C[C@H]1C1(O)COC1	
InChI=1S/C6H11NO2/c1-7-2-5(7)6(8)3-9-4-6/h5,8H,2-4H2,1H3	InChI=1S/C6H11NO2/c1-7-2-5(7)6(8)3-9-4-6/h5,8H,2-4H2,1H3/t5-,7?/m0/s1
