21
gdb 100804	2.53437	1.02317	0.85179	4.1988	80.07	-0.2468	0.0172	0.264	1422.6927	0.181365	-420.396663	-420.386391	-420.385447	-420.432265	37.431	
C	-1.0847857266	 0.9618410701	 0.1014915198	-0.412788
C	-0.2294304381	-0.3069710788	 0.0550279874	 0.031528
C	 0.5688451368	-0.3405121126	-1.265448347	-0.051688
O	 1.5136190141	 0.7043645811	-1.3137140794	-0.416834
N	 0.7506386038	-0.3851485178	 1.1688759998	-0.087225
C	 0.3453551739	 0.2094099543	 2.4411658533	-0.345782
C	 1.1997700209	-1.7618046414	 1.3702136519	-0.28504
C	 2.4512003693	-1.8298339255	 2.1348609999	 0.274281
N	 3.4314618809	-1.8914756747	 2.7426971869	-0.305497
H	-0.4584686241	 1.8550016933	 0.0348907702	 0.140868
H	-1.7567088927	 0.9621697656	-0.761410863	 0.122887
H	-1.7026381547	 1.0197902205	 0.9995473011	 0.120348
H	-0.9079082703	-1.179608639	 0.0828654214	 0.062062
H	 1.051948338	-1.3221109095	-1.4049729731	 0.082631
H	-0.1160657362	-0.2060769885	-2.1092115144	 0.108569
H	 1.941451142	 0.6929114052	-0.4454275484	 0.281509
H	-0.5517134278	-0.2663579841	 2.8759022578	 0.102468
H	 1.1651357963	 0.1009245611	 3.1564664559	 0.149255
H	 0.1517054655	 1.274838969	 2.3210462786	 0.138557
H	 0.4448650809	-2.3792524501	 1.8925008038	 0.133046
H	 1.3777575081	-2.2376744682	 0.4023251875	 0.156843
54.5458	68.8276	122.9531	153.8887	242.6654	258.214	271.3157	309.7803	358.3302	386.6964	397.9516	414.7333	442.8116	508.6858	571.5149	662.6483	784.4212	871.5337	927.3868	943.8223	973.3589	1007.3411	1030.0145	1079.3283	1108.0804	1146.8853	1151.5685	1198.8317	1217.4103	1255.7311	1301.3305	1331.4955	1359.9486	1386.295	1394.5993	1417.1911	1437.7754	1463.6402	1473.7627	1492.272	1497.9473	1509.3946	1513.1002	1521.6681	2365.4562	2925.5379	2933.1845	2951.6005	2961.9542	3053.8333	3072.0509	3091.6402	3094.4659	3121.0159	3137.9979	3148.4223	3731.0752
CC(CO)N(C)CC#N	C[C@@H](CO)N(C)CC#N	
InChI=1S/C6H12N2O/c1-6(5-9)8(2)4-3-7/h6,9H,4-5H2,1-2H3	InChI=1S/C6H12N2O/c1-6(5-9)8(2)4-3-7/h6,9H,4-5H2,1-2H3/t6-/m0/s1
