15
gdb 31902	3.81645	1.04989	0.82776	5.1434	79.21	-0.208	-0.012	0.196	1307.8169	0.113702	-416.849071	-416.840776	-416.839832	-416.882505	29.932	
C	 0.0103819785	 1.4248901657	-0.0289228472	-0.270683
O	 0.0089043116	 0.005929685	-0.0105048846	-0.257753
C	 0.5949016225	-0.6323730052	-1.0360797826	 0.440232
C	 0.7023508972	-2.0012887382	-1.2084447867	-0.261139
C	 1.3918987619	-2.2077771216	-2.4221805789	-0.220785
C	 1.6911795655	-0.9708861192	-2.9658139443	 0.20047
N	 1.1888570244	-0.00614488	-2.091708062	-0.406766
C	 2.3589598699	-0.6094358109	-4.1483624421	 0.194861
N	 2.9076160466	-0.2889360291	-5.1203447147	-0.358446
H	 1.0328380937	 1.8248997183	-0.0173244778	 0.132241
H	-0.5288582924	 1.8150582943	-0.9021768242	 0.132182
H	-0.5052357261	 1.7420828997	 0.8774775178	 0.156135
H	 0.3219759341	-2.7445694074	-0.5277944295	 0.11688
H	 1.6506558976	-3.155855484	-2.866367378	 0.124232
H	 1.2638459151	 0.9848170424	-2.2388353154	 0.278339
62.6635	131.5379	136.2852	216.3887	258.9857	303.5483	412.2954	477.3791	507.5861	538.3505	585.9104	645.3161	677.8311	692.59	772.8364	861.4662	990.4483	999.2399	1061.1291	1083.4007	1174.7288	1203.0064	1241.2875	1260.6111	1327.522	1405.1449	1455.6386	1471.7813	1494.5849	1507.2401	1548.8769	1632.8317	2322.0707	3002.7313	3063.8482	3150.3323	3262.5169	3277.5769	3691.7425
COC1=CC=C(N1)C#N	COc1ccc([nH]1)C#N	
InChI=1S/C6H6N2O/c1-9-6-3-2-5(4-7)8-6/h2-3,8H,1H3	InChI=1S/C6H6N2O/c1-9-6-3-2-5(4-7)8-6/h2-3,8H,1H3
