18
gdb 97542	2.59528	0.82948	0.72741	4.0869	82.15	-0.2744	-0.0001	0.2743	1646.3399	0.144253	-401.934459	-401.923754	-401.92281	-401.971437	37.345	
C	 0.0493304613	 1.490091028	-0.3767575878	-0.367301
C	-0.0488985209	 0.0966630659	 0.2710015125	-0.320422
C	-1.3876035689	-0.477156152	 0.192989982	 0.05425
C	-2.4994712023	-0.9329161447	 0.1123798608	 0.09035
C	-3.8587840677	-1.4848653893	 0.0477600084	 0.018608
C	-3.8445363039	-3.0106299991	-0.1463612582	-0.388696
O	-4.5837083277	-1.2486862424	 1.2499574935	-0.41565
C	-4.5771471929	-0.8482585142	-1.0931574833	 0.275106
N	-5.1510177256	-0.3493929373	-1.9631016508	-0.340502
H	 1.0702026416	 1.873335063	-0.2936335242	 0.121133
H	-0.2189784649	 1.4466185066	-1.4353710412	 0.137685
H	-0.6255435164	 2.1961277227	 0.1141260714	 0.131495
H	 0.6609311345	-0.5874656033	-0.2107502226	 0.139224
H	 0.2546294154	 0.1537053645	 1.3239640787	 0.138025
H	-3.3164888554	-3.4606629788	 0.6962445551	 0.142754
H	-4.8717957176	-3.380343215	-0.1710157969	 0.145864
H	-3.3387827186	-3.2733971773	-1.0768465037	 0.14284
H	-4.4999228699	-0.3130280973	 1.4681829463	 0.295238
24.7857	66.6596	103.8608	167.5278	183.0779	214.8529	224.0476	253.9524	320.8963	352.3334	377.5169	455.4482	469.7793	523.215	577.0552	611.5459	659.5198	784.9832	840.1559	932.4255	955.8985	1032.3249	1075.315	1097.7607	1104.9907	1161.0405	1229.1499	1285.5182	1348.7265	1365.3703	1402.2353	1412.1269	1471.2877	1479.214	1485.8037	1495.4395	1504.9707	2353.3934	2363.5041	3026.2252	3048.9684	3055.0887	3062.0783	3123.6461	3129.13	3149.0465	3154.6503	3803.0569
CCC#CC(C)(O)C#N	CCC#C[C@@](C)(O)C#N	
InChI=1S/C7H9NO/c1-3-4-5-7(2,9)6-8/h9H,3H2,1-2H3	InChI=1S/C7H9NO/c1-3-4-5-7(2,9)6-8/h9H,3H2,1-2H3/t7-/m1/s1
