19
gdb 40239	2.79701	1.62346	1.24307	1.1436	75.09	-0.2505	0.0807	0.3312	1047.8708	0.160826	-422.994516	-422.987048	-422.986104	-423.026298	29.909	
C	 0.0328806402	 1.5131543573	-0.013270273	-0.316366
C	 1.3151630068	 0.7191841508	-0.0178452348	-0.308047
C	-0.015705982	 0.006583535	-0.0028676912	 0.355833
C	-0.4647276598	-0.7154358785	 1.2545337486	-0.17638
O	-0.0555947819	-2.0737582926	 1.2261995401	-0.24967
C	-0.7214413817	-2.829469947	 0.2297522458	-0.103466
C	-0.7725838657	-2.150658714	-1.1302943966	 0.012377
O	-1.7902411353	-1.1518616136	-1.3015805951	-0.265824
C	-0.423132479	-0.7257038031	-1.2404097767	-0.020848
H	-0.2455613721	 2.0327619659	 0.8980450078	 0.115872
H	-0.2591420395	 2.0276240757	-0.9227129837	 0.117615
H	 1.8984039694	 0.69655207	-0.9329019294	 0.113947
H	 1.9112126956	 0.6919399103	 0.8878898185	 0.119078
H	-0.0044680994	-0.2710933611	 2.1418260253	 0.103317
H	-1.5586248249	-0.6449533209	 1.3562467767	 0.103864
H	-0.1711485965	-3.7722928356	 0.1514983022	 0.111617
H	-1.7534814303	-3.0609816895	 0.5418954248	 0.104155
H	-0.6432719883	-2.8024458071	-1.9942166383	 0.096493
H	-0.0254379855	-0.3438511621	-2.181871321	 0.086432
102.2276	203.9502	236.8663	283.2283	351.3582	376.6584	440.4933	483.3929	533.1594	680.5031	775.3929	787.8509	808.9519	851.0145	905.731	934.3291	945.528	965.5205	973.8426	987.8219	1039.8694	1054.0231	1065.8619	1082.8801	1097.2483	1134.2529	1166.324	1187.25	1254.8726	1274.6539	1296.7374	1328.6378	1345.5059	1371.8101	1394.4271	1420.7923	1469.0321	1472.4387	1484.3169	1495.0215	1510.0668	2970.694	2990.9527	3078.0687	3085.2892	3096.3556	3114.2806	3127.7189	3131.7129	3205.6303	3219.7007
C1CC11COCC2OC12	C1CC21COC[C@H]1O[C@@H]21	
InChI=1S/C7H10O2/c1-2-7(1)4-8-3-5-6(7)9-5/h5-6H,1-4H2	InChI=1S/C7H10O2/c1-2-7(1)4-8-3-5-6(7)9-5/h5-6H,1-4H2/t5-,6-/m1/s1
