19
gdb 70395	2.3897	1.51223	1.32513	1.2879	81.1	-0.2461	0.0468	0.2929	1080.9609	0.156028	-385.830342	-385.821101	-385.820157	-385.86358	35.545	
C	-0.1641765669	 1.5271672664	 0.1090378443	-0.513052
C	 0.1165196867	 0.0626773623	 0.0455410449	 0.394486
O	-0.7587197751	-0.8389403167	 0.7300575651	-0.295091
C	 0.6511007137	-0.9146204304	 1.005902401	-0.028313
C	 1.2761143317	-1.77570861	-0.0911188331	-0.30264
C	 0.7083539274	-0.7494851179	-1.1633941124	 0.072029
C	-0.3272911629	-1.3002114803	-2.1488055361	-0.459589
C	 1.7728604633	-0.0255302035	-1.8392168293	 0.27715
C	 2.646649102	 0.5856467456	-2.396814252	-0.4603
H	 0.6970878245	 2.0969024607	-0.2497587931	 0.140432
H	-1.0259894431	 1.783508859	-0.5175201688	 0.131524
H	-0.3900815423	 1.8258940225	 1.1360349335	 0.132909
H	 0.9561197072	-0.7950735493	 2.0394648747	 0.103047
H	 2.3667065228	-1.7908139794	-0.0743073806	 0.120625
H	 0.886367268	-2.7941372184	-0.1624940318	 0.111639
H	-1.1359164412	-1.7832008911	-1.595779592	 0.136096
H	-0.746733788	-0.4982272727	-2.7638246383	 0.122306
H	 0.131640586	-2.0326564144	-2.8193779265	 0.123542
H	 3.4191675562	 1.1184163575	-2.8939064293	 0.193199
122.0716	134.1333	185.311	200.3551	225.3707	244.0295	306.8856	343.7686	442.557	482.8518	518.9848	529.5669	621.353	629.607	637.9485	659.5295	768.4778	842.4915	868.6703	916.714	932.0407	968.8584	990.5814	1046.1994	1093.7925	1115.5303	1125.8547	1167.0532	1198.5977	1255.4091	1264.3384	1273.5657	1397.5963	1402.2294	1456.0463	1474.4443	1481.9934	1491.1967	1496.2246	1499.6181	2226.9531	3038.3269	3042.6656	3069.796	3104.5086	3111.1156	3129.1011	3132.8918	3137.4044	3182.7647	3500.9557
CC12OC1CC2(C)C#C	C[C@]12O[C@H]1C[C@]2(C)C#C	
InChI=1S/C8H10O/c1-4-7(2)5-6-8(7,3)9-6/h1,6H,5H2,2-3H3	InChI=1S/C8H10O/c1-4-7(2)5-6-8(7,3)9-6/h1,6H,5H2,2-3H3/t6-,7-,8-/m0/s1
