18
gdb 52222	4.08474	0.62718	0.57297	2.7867	75.64	-0.2545	-0.0364	0.2181	1846.4518	0.145113	-439.07344	-439.063813	-439.062869	-439.109873	33.006	
O	-0.4722945771	 0.6862036206	 0.8942632291	-0.232814
C	 0.0725003941	 1.0134751386	-0.1275263132	 0.155405
C	 1.3478788836	 1.8207701049	-0.2105877875	-0.269192
C	 1.1689682482	 3.0934141532	-1.0599078177	-0.214584
C	 2.4814167063	 3.8307126367	-1.2195359827	-0.006054
N	 3.4051830566	 3.3396145047	-2.2316165859	-0.331335
C	 2.8374595709	 4.6954272286	-2.398414172	-0.134554
C	 1.9251630769	 4.8798830169	-3.5627449282	 0.172693
O	 1.6773633554	 5.954600089	-4.0483281046	-0.253274
H	-0.3530248804	 0.7309954604	-1.1197014297	 0.074519
H	 1.6807303848	 2.0536947314	 0.8053755431	 0.120604
H	 2.111301919	 1.1928824088	-0.6916803622	 0.134144
H	 0.7750625792	 2.8200051267	-2.0434820854	 0.114564
H	 0.4349588722	 3.7580345353	-0.5891566528	 0.12358
H	 2.9107280686	 4.1754321148	-0.2783956379	 0.102671
H	 4.3718547417	 3.3999236741	-1.9252993156	 0.246987
H	 3.457816775	 5.5637390926	-2.1895818444	 0.109701
H	 1.4937926652	 3.9375029928	-3.9639190722	 0.086938
47.7843	63.0965	80.1945	88.3759	146.6823	242.7839	281.7582	333.457	424.7774	451.6656	514.9526	544.2391	762.2008	815.6504	828.87	891.4052	920.3382	977.6551	998.6861	1021.1298	1041.0647	1070.4003	1088.6485	1143.3453	1181.7209	1219.3267	1234.1452	1254.9604	1270.9715	1317.9649	1356.7114	1372.5514	1420.6796	1431.1546	1462.8395	1470.5045	1486.0991	1823.4377	1838.2398	2852.8224	2902.3868	3018.4179	3043.7137	3083.6021	3098.5797	3110.8002	3148.1725	3518.4736
O=CCCC1NC1C=O	O=CCC[C@H]1N[C@H]1C=O	
InChI=1S/C6H9NO2/c8-3-1-2-5-6(4-9)7-5/h3-7H,1-2H2	InChI=1S/C6H9NO2/c8-3-1-2-5-6(4-9)7-5/h3-7H,1-2H2/t5-,6+/m1/s1
