14
gdb 8730	3.50241	1.42295	1.19601	0.8835	64.5	-0.2535	-0.1027	0.1508	1005.5563	0.103008	-382.521074	-382.512243	-382.511299	-382.55504	30.308	
C	 0.1759053831	 1.2445056142	-0.3796890141	-0.403285
C	-0.1353083128	-0.2073137533	 0.0800356135	-0.291968
C	 0.6145248583	-0.5723551715	 1.2726892699	 0.337586
C	 1.2463838638	-0.8597266901	 2.2525773541	-0.435112
C	-1.6445576548	-0.333716489	 0.289112154	 0.299069
O	-2.2164215962	-0.2786771561	 1.3483657261	-0.263688
C	-2.4937588782	-0.5251886823	-0.9791333844	 0.088345
O	-2.0319628209	-0.6440979915	-2.0831432715	-0.217813
H	 1.246649829	 1.3428313635	-0.56936971	 0.143805
H	-0.3643394319	 1.4777915305	-1.3002040879	 0.140172
H	-0.1061003398	 1.9585012248	 0.397975768	 0.143573
H	 0.1255693431	-0.8743328713	-0.7506915882	 0.139728
H	 1.8006614334	-1.1224229866	 3.1194886477	 0.201439
H	-3.5814436861	-0.5562738211	-0.7599277274	 0.118149
43.0372	122.6696	134.4088	176.1471	220.1772	222.7943	261.1296	394.0498	500.8638	525.851	603.3721	629.4131	637.764	649.35	773.6991	880.6448	983.5494	1029.2924	1073.4352	1108.234	1155.4626	1289.543	1354.6372	1361.4394	1400.0731	1495.1474	1497.2439	1812.3772	1822.644	2245.8311	2931.4197	3043.507	3054.5931	3138.0304	3138.8935	3504.5152
CC(C#C)C(=O)C=O	C[C@@H](C#C)C(=O)C=O	
InChI=1S/C6H6O2/c1-3-5(2)6(8)4-7/h1,4-5H,2H3	InChI=1S/C6H6O2/c1-3-5(2)6(8)4-7/h1,4-5H,2H3/t5-/m0/s1
