17
gdb 91850	3.71391	1.19192	1.08957	2.9083	75.13	-0.2495	0.0268	0.2763	1138.4083	0.134616	-421.780733	-421.772434	-421.77149	-421.813376	32.089	
O	-0.7122765143	 1.2115703747	 0.8377522957	-0.426299
C	 0.0119833895	 0.2137980449	 0.1355694626	 0.108895
C	 0.8667181283	-0.6893144708	 1.0694471572	-0.276527
C	-0.0031637912	-1.8928948399	 1.3619691238	-0.011467
O	-1.3266115368	-1.5631426926	 1.7778103093	-0.282798
C	-1.1251920454	-1.9323108586	 0.3979319255	 0.2565
C	-1.0210003239	-0.726152061	-0.5261939187	-0.299479
C	-1.7581122795	-3.1386013557	-0.0539126738	 0.180985
C	-2.2967912853	-4.1283941789	-0.4725506024	-0.350889
H	-0.0801867098	 1.773185909	 1.2973779823	 0.28027
H	 0.6490235574	 0.6823751317	-0.6278019258	 0.066884
H	 1.7845303299	-1.0179082731	 0.5670938725	 0.106877
H	 1.159506689	-0.1549854437	 1.9797421283	 0.106949
H	 0.4146464274	-2.7974017236	 1.7979099732	 0.102416
H	-1.9769248561	-0.2114900106	-0.64663236	 0.135245
H	-0.6818905458	-1.0584782992	-1.5124096131	 0.112072
H	-2.7734306235	-5.0081019727	-0.8285235563	 0.190364
106.1863	132.46	163.4834	255.3924	290.2715	381.6385	394.8104	424.0617	505.9247	539.8046	569.5114	617.8456	669.8605	688.9505	767.9072	820.2886	861.8172	907.6933	932.1728	965.3614	976.6934	1025.8571	1056.0674	1128.2967	1174.1982	1193.8394	1220.5466	1251.8292	1275.2554	1306.7023	1329.07	1362.9551	1423.0315	1434.453	1460.9859	1475.6881	2241.7236	2990.9665	3037.1079	3063.1284	3081.4713	3119.2862	3144.2989	3502.4626	3818.0573
OC1CC2OC2(C1)C#C	O[C@H]1C[C@H]2O[C@]2(C1)C#C	
InChI=1S/C7H8O2/c1-2-7-4-5(8)3-6(7)9-7/h1,5-6,8H,3-4H2	InChI=1S/C7H8O2/c1-2-7-4-5(8)3-6(7)9-7/h1,5-6,8H,3-4H2/t5-,6+,7-/m0/s1
