17
gdb 10129	2.30521	1.62752	1.01425	2.8932	75.17	-0.2398	-0.0366	0.2032	1172.7357	0.14092	-360.059585	-360.049983	-360.049039	-360.094528	32.63	
C	 0.04322803	 1.5663339291	 0.0521679099	-0.360565
C	 0.0087891253	 0.0357169826	 0.0007676497	-0.155995
N	 0.6898929496	-0.450657942	-1.1841049784	-0.297034
C	 1.7191019599	-1.1965603816	-1.0974010012	 0.309979
N	 2.4299659025	-1.5988375035	-2.1993934285	-0.333282
C	 1.9302043165	-1.31782095	-3.5318395494	-0.316269
C	 2.2860581331	-1.6874969277	 0.1570881359	 0.229271
N	 2.7189066207	-2.0806513614	 1.1546701696	-0.334719
H	 1.0705752972	 1.9284373992	 0.1577284386	 0.119927
H	-0.3737333572	 1.9905557524	-0.8654936069	 0.125625
H	-0.5388740667	 1.9329247544	 0.9032795011	 0.11447
H	 0.4211831298	-0.3778257117	 0.9334703052	 0.111321
H	-1.0362393596	-0.2940446267	-0.0626726356	 0.111121
H	 3.0468816032	-2.3847745064	-2.0792306515	 0.261353
H	 0.9578437664	-1.7910954269	-3.7191843532	 0.1346
H	 1.8023847063	-0.2399975739	-3.6579621567	 0.15353
H	 2.6573807229	-1.6808097058	-4.2604921287	 0.126669
48.6358	108.259	129.1884	148.9642	151.3173	199.2032	257.7392	326.2831	354.3283	389.2318	439.425	534.8346	628.5401	719.6797	761.9641	817.8728	940.0333	1055.7907	1072.8598	1116.7103	1152.7497	1172.3041	1209.2504	1283.307	1313.7195	1385.1007	1404.2361	1454.9258	1472.3159	1488.6703	1491.5423	1504.8429	1512.3444	1536.9475	1713.5493	2343.4459	2990.5161	3023.5454	3037.3049	3040.3717	3097.7827	3112.6876	3120.237	3140.7704	3653.5031
CCN=C(NC)C#N	CCN=C(NC)C#N	
InChI=1S/C5H9N3/c1-3-8-5(4-6)7-2/h3H2,1-2H3,(H,7,8)	InChI=1S/C5H9N3/c1-3-8-5(4-6)7-2/h3H2,1-2H3,(H,7,8)
