21
gdb 41492	3.18138	1.36617	1.00622	2.0704	84.61	-0.2183	0.029	0.2472	1209.3507	0.185665	-387.122505	-387.114609	-387.113665	-387.155001	30.77	
C	-0.0299864632	 1.5123530165	 0.0804295739	-0.163168
O	 1.2732328286	 1.9387880536	-0.3105241642	-0.268877
C	 2.0928692624	 0.805856021	-0.58931782	-0.163176
C	 1.2197604236	-0.3925996925	-0.3450458309	 0.2109
C	 0.006111932	 0.0108321302	 0.0312589922	 0.210935
C	-1.1373659353	-0.9054684124	 0.3459585168	-0.318011
C	-0.8369463905	-2.3330111262	-0.14969031	-0.194288
C	 0.603930591	-2.7558222527	 0.1771950177	-0.194292
C	 1.6350351476	-1.8253660336	-0.4897668392	-0.318009
H	-0.2631160226	 1.897453808	 1.0873435115	 0.097572
H	-0.7834631693	 1.9366361052	-0.6043042689	 0.096793
H	 2.4608422288	 0.8568932763	-1.6278444046	 0.097559
H	 2.9817514682	 0.8175668094	 0.0636269357	 0.096807
H	-1.325238613	-0.9100767683	 1.430256978	 0.107983
H	-2.0644649999	-0.5333432757	-0.1096993515	 0.102908
H	-1.549320227	-3.0398853032	 0.288588372	 0.093715
H	-0.9836961827	-2.3714410705	-1.2367914828	 0.100028
H	 0.7479505143	-2.7263929723	 1.264940649	 0.100029
H	 0.7762807128	-3.7913603284	-0.1345659118	 0.09371
H	 1.7427461535	-2.0776027309	-1.5555039587	 0.107985
H	 2.6286333406	-1.9836360435	-0.0500915243	 0.102897
101.5874	125.8863	183.1669	273.6555	296.8031	332.0853	424.7106	477.6158	506.9132	646.0873	651.504	824.3636	834.4679	858.7756	886.4642	905.2804	939.9919	955.1537	1006.8312	1042.869	1064.5312	1086.7089	1114.5149	1124.2514	1140.7063	1158.2956	1186.9788	1211.611	1220.2597	1223.0909	1265.2849	1296.4995	1341.5657	1369.2637	1371.4572	1387.2202	1395.8024	1408.204	1475.1383	1481.5602	1490.3371	1500.0532	1516.8202	1529.0136	1753.1281	2953.0876	2961.6777	2968.4234	2971.2445	2995.4239	2995.7287	3019.5098	3023.1811	3037.0215	3037.8043	3071.9422	3075.8701
C1OCC2=C1CCCC2	C1OCC2=C1CCCC2	
InChI=1S/C8H12O/c1-2-4-8-6-9-5-7(8)3-1/h1-6H2	InChI=1S/C8H12O/c1-2-4-8-6-9-5-7(8)3-1/h1-6H2
