17
gdb 84642	2.74082	1.75017	1.1706	2.8241	75.88	-0.2124	-0.0093	0.2031	1039.8364	0.138083	-418.024199	-418.016372	-418.015428	-418.056847	29.587	
C	 0.0563923422	 1.4700560533	-0.0081327153	-0.357817
N	 0.0754209729	 0.0112338701	-0.0006804842	-0.141508
C	 0.0598071417	-0.6576292553	-1.2280156078	 0.03722
C	 0.0017752378	-1.9859355588	-1.3672234188	-0.128413
C	 0.0544090493	-2.8464987968	-0.171307195	-0.095891
N	 1.2876268143	-2.7312293384	 0.6435890369	-0.332231
C	 0.0287670672	-2.1459224697	 1.152441987	-0.179603
C	-0.038991284	-0.6492849822	 1.2136641804	 0.48255
O	-0.2126087281	-0.0636338752	 2.2669888729	-0.385439
H	 0.9477395749	 1.8601337947	-0.5095602703	 0.133344
H	-0.8342047609	 1.8455713554	-0.5240154134	 0.130375
H	 0.0394390316	 1.8083464984	 1.0261032043	 0.17398
H	 0.0783818831	 0.0073168353	-2.083866594	 0.116864
H	-0.0411803916	-2.424753782	-2.355593071	 0.101524
H	-0.4133739296	-3.8254212233	-0.2315353968	 0.094215
H	 1.4486281739	-3.6057434531	 1.1384704464	 0.239775
H	-0.4477472246	-2.6114595525	 2.0088739987	 0.111054
73.1819	111.6162	164.7568	297.5287	322.188	360.672	431.5081	503.5589	554.8548	614.9156	706.1501	719.6174	744.1492	829.2905	832.9665	896.9301	933.9297	939.587	967.6237	1030.6454	1059.605	1138.8057	1156.3544	1168.7187	1193.8633	1210.9873	1256.2813	1281.624	1362.8711	1403.533	1417.6087	1440.2581	1467.0953	1502.542	1509.8588	1714.1202	1769.911	3033.4202	3090.9411	3143.5879	3170.4847	3175.6148	3193.7491	3218.2784	3495.4878
CN1C=CC2NC2C1=O	CN1C=C[C@H]2N[C@H]2C1=O	
InChI=1S/C6H8N2O/c1-8-3-2-4-5(7-4)6(8)9/h2-5,7H,1H3	InChI=1S/C6H8N2O/c1-8-3-2-4-5(7-4)6(8)9/h2-5,7H,1H3/t4-,5-/m1/s1
