15
gdb 27340	3.20325	1.34783	0.95039	6.3314	75.28	-0.1888	-0.0024	0.1864	1147.2715	0.113805	-453.967619	-453.959665	-453.958721	-453.999718	31.068	
O	 0.0450428404	 1.3603754106	 0.1357202379	-0.428345
C	 0.0144068277	 0.0034313445	 0.0416298565	 0.444252
C	-1.1432062792	-0.6920188366	 0.0262477031	-0.314526
C	-1.1769004486	-2.1474675072	 0.0158588644	 0.255401
N	-2.2207094313	-2.9033907785	 0.0193845344	-0.548488
C	 0.160416503	-2.770145688	-0.0322269478	 0.323251
O	 0.1683128254	-4.1252620017	-0.0884025133	-0.411612
C	 1.2827464694	-2.0198562283	-0.0288830283	-0.158425
N	 1.2363935699	-0.6212829593	-0.027120831	-0.415284
H	 0.7528883296	 1.7017614675	-0.4239646116	 0.299516
H	-2.0749308455	-0.1404303511	 0.0026600675	 0.102078
H	-3.0624425722	-2.3236745955	 0.0502530884	 0.19988
H	 1.0793289919	-4.437728009	-0.1158443416	 0.292183
H	 2.2772918333	-2.4482233109	-0.0675702294	 0.107152
H	 2.0153412263	-0.1358918765	 0.3934679711	 0.252968
114.9087	189.63	277.4017	332.8492	346.9533	354.9029	385.2648	424.8895	443.5482	467.753	518.4335	601.0195	647.8923	739.986	748.7507	792.9924	795.9422	824.1415	884.2503	990.4757	1103.3279	1175.7091	1205.136	1213.7527	1257.9534	1302.2757	1340.0669	1381.6305	1469.938	1531.3132	1643.4602	1684.0603	1724.8344	3193.7514	3207.2116	3438.4491	3602.5255	3787.5472	3809.8272
OC1=CC(=N)C(O)=CN1	O[C@@H]1C=C([NH])C(=CN1)O	
InChI=1S/C5H6N2O2/c6-3-1-5(9)7-2-4(3)8/h1-2,8H,(H3,6,7,9)	InChI=1S/C5H7N2O2/c6-3-1-5(9)7-2-4(3)8/h1-2,5-9H/t5-/m1/s1
