22
gdb 78308	2.92076	1.48755	1.22769	1.0798	86.88	-0.2119	0.0951	0.307	1132.8434	0.195312	-367.163578	-367.15556	-367.154616	-367.195382	33.249	
C	-0.0803219541	 1.4173520836	-0.0032400952	-0.320096
N	 0.0128912037	-0.0362319726	 0.0201330953	-0.104937
C	 1.3734745726	-0.5595943543	-0.2018896843	-0.017751
C	 0.7777387666	-0.5778111909	 1.1578966862	-0.055696
C	 0.6460854026	-2.0993753728	 1.4110617312	 0.316556
C	 0.067996391	-2.5566054178	 2.7309539124	-0.507013
C	 2.0646123954	-2.5514124758	 0.8910533383	-0.249221
C	 1.4802408193	-2.0710021144	-0.4823420743	-0.07459
C	 0.1230795464	-2.6189287295	 0.0372825266	-0.258073
H	 0.8136385523	 1.9286358382	 0.3949844745	 0.094665
H	-0.2322051788	 1.7522001737	-1.034434735	 0.12209
H	-0.944741021	 1.7330305114	 0.5898021656	 0.121488
H	 2.161564807	 0.1276434605	-0.4930771654	 0.081482
H	 1.0880992135	 0.092316167	 1.954398524	 0.077195
H	-0.9702393977	-2.2235402613	 2.8409910696	 0.121148
H	 0.0796446739	-3.6483345608	 2.8151911622	 0.111942
H	 0.6366957063	-2.1517519255	 3.5767431176	 0.110905
H	 2.9421666457	-2.0273401948	 1.2839683812	 0.082154
H	 2.2119731939	-3.6338978751	 0.9435672247	 0.090239
H	 1.9040542723	-2.3869511167	-1.4353738077	 0.058723
H	 0.0981454052	-3.7108489432	 0.0140461095	 0.083722
H	-0.7953147764	-2.1923255591	-0.3608189271	 0.115068
189.1159	204.8121	229.8554	233.3447	275.1791	330.5728	417.167	440.6386	490.0074	569.3796	593.0266	692.6706	776.8991	816.9904	847.7731	855.011	863.8389	911.5608	931.2948	939.824	966.3073	994.2997	1034.6539	1049.0325	1073.9011	1085.6822	1110.6666	1135.5059	1141.5333	1166.3006	1194.5303	1217.7717	1225.8322	1237.3954	1252.5934	1265.5315	1295.2034	1336.7939	1386.7301	1412.2184	1453.2332	1474.672	1491.8544	1492.3331	1494.4657	1498.8616	1513.5537	2949.7948	3021.6607	3041.4527	3062.6619	3076.5227	3083.7553	3093.7568	3100.8486	3105.101	3115.2119	3148.8556	3157.364	3164.7662
CN1C2C1C1(C)CC2C1	CN1[C@H]2[C@@H]1[C@]1(C)C[C@H]2C1	
InChI=1S/C8H13N/c1-8-3-5(4-8)6-7(8)9(6)2/h5-7H,3-4H2,1-2H3	InChI=1S/C8H13N/c1-8-3-5(4-8)6-7(8)9(6)2/h5-7H,3-4H2,1-2H3/t5-,6-,7-,8+,9?/m1/s1
