17
gdb 14652	13.1281	0.59963	0.57997	2.8499	79.92	-0.2466	0.0204	0.267	1917.6031	0.138557	-363.826904	-363.816736	-363.815792	-363.865319	32.605	
C	 0.1621476102	 1.4501352069	 0.0300220714	-0.316121
N	 0.1412957552	 0.006402801	 0.1287752665	-0.20122
C	 0.4898120476	-0.6488001703	-0.8852477765	 0.149092
O	 0.5068151302	-1.9979589582	-0.8611442299	-0.204185
C	 0.8645805391	-2.6217245482	-2.1026273065	-0.227824
C	 0.9669226003	-4.057873094	-1.9134409639	 0.012425
C	 1.0559093572	-5.2502063594	-1.7828246211	 0.136992
C	 1.1610183959	-6.6909303885	-1.6112656933	-0.498932
H	 0.8343089503	 1.861564181	 0.7918049803	 0.128496
H	 0.4834444124	 1.8294618222	-0.954474342	 0.09413
H	-0.8371983538	 1.8475485705	 0.2412633965	 0.128296
H	 0.8053330897	-0.2025193791	-1.8428568631	 0.070717
H	 0.1054631787	-2.3910102833	-2.8640340582	 0.133742
H	 1.8221662016	-2.2156896483	-2.4598631615	 0.132124
H	 2.1655191123	-7.0501863237	-1.8594268671	 0.151522
H	 0.9536765844	-6.9735437931	-0.5735444553	 0.159017
H	 0.4467962088	-7.2220188355	-2.2496055163	 0.151727
11.0327	20.7839	71.2408	92.6765	191.6873	193.164	209.587	302.7979	307.2896	372.7656	423.7228	438.5239	629.0234	798.9423	978.6007	1008.7302	1019.8143	1050.481	1056.9674	1079.0069	1141.0579	1152.4385	1184.5107	1239.7934	1256.9884	1386.7444	1413.7948	1428.7693	1450.8065	1475.3399	1477.6856	1480.6062	1497.2504	1505.9689	1783.7978	2383.6579	2962.5602	2975.414	2993.1108	3019.3771	3030.9278	3057.0921	3076.9608	3093.0792	3095.1019
CN=COCC#CC	CN=COCC#CC	
InChI=1S/C6H9NO/c1-3-4-5-8-6-7-2/h6H,5H2,1-2H3	InChI=1S/C6H9NO/c1-3-4-5-8-6-7-2/h6H,5H2,1-2H3
