16
gdb 26822	3.41414	1.13404	0.85678	5.2673	81.33	-0.2077	-0.05	0.1576	1292.9925	0.123508	-437.930724	-437.921838	-437.920894	-437.964644	31.764	
C	 0.1177263555	 1.4586686201	 0.0434538737	-0.502105
C	-0.0562880444	-0.016095216	 0.0193603617	 0.309106
C	-1.169790279	-0.8268392839	-0.0119476653	 0.154468
N	-2.5159238999	-0.4397511084	 0.0278669847	-0.609655
C	-0.679118418	-2.1621003649	-0.0000449337	-0.30594
C	 0.6906907356	-2.0785011916	 0.0376402964	 0.260754
O	 1.072018496	-0.7738671753	 0.0555943201	-0.194446
C	 1.6971490869	-3.1214573366	 0.0565802047	 0.062691
O	 2.8969632136	-2.9522839347	 0.0892999369	-0.288452
H	 0.9541743894	 1.757979041	-0.595331089	 0.153194
H	-0.7841667399	 1.9602671866	-0.3200590824	 0.125265
H	 0.3215486055	 1.8348234591	 1.0537524755	 0.149577
H	-2.6618031356	 0.5262481262	-0.2349435469	 0.244014
H	-3.1122085675	-1.0326500082	-0.534847158	 0.24947
H	-1.2606594951	-3.0719786381	-0.0134033661	 0.121741
H	 1.2477935268	-4.1395928352	 0.0376112477	 0.07032
75.977	108.5121	160.3521	176.539	208.5096	263.6125	294.3621	372.5146	396.9659	509.2219	633.0897	649.5608	655.2807	709.338	747.9452	821.6511	828.362	970.6701	1013.9087	1027.7329	1053.5618	1067.4653	1170.5853	1235.4474	1268.9089	1351.7372	1408.8017	1412.6927	1467.0899	1486.4813	1490.564	1559.6924	1646.7226	1671.704	1782.2196	2878.9345	3025.0441	3083.3987	3113.95	3247.0866	3538.9526	3628.7299
CC1=C(N)C=C(O1)C=O	Cc1c(N)cc(o1)C=O	
InChI=1S/C6H7NO2/c1-4-6(7)2-5(3-8)9-4/h2-3H,7H2,1H3	InChI=1S/C6H7NO2/c1-4-6(7)2-5(3-8)9-4/h2-3H,7H2,1H3
