18
gdb 9496	2.45322	1.97982	1.74895	3.2519	72.43	-0.234	0.026	0.26	899.0723	0.153117	-343.980773	-343.972235	-343.971291	-344.013318	31.296	
C	-0.0377808707	 1.4914068611	-0.1120553148	-0.340246
N	-0.0482127235	 0.0587004198	 0.1015107515	-0.078286
C	-1.3031103734	-0.6220324296	 0.4687242923	-0.166972
C	-0.4754591443	-1.6123632461	 1.3186945862	-0.268012
C	 0.677897131	-0.558929889	 1.2383727946	 0.162955
C	 2.0902873908	-1.0404884692	 0.9160818281	-0.441711
C	 0.690498957	 0.2949072262	 2.4460836788	 0.249214
N	 0.6863437695	 0.9989843685	 3.3639225562	-0.348526
H	 0.9832963867	 1.8299509407	-0.3153181044	 0.127869
H	-0.6464730037	 1.7210086662	-0.9924214694	 0.126444
H	-0.4294441691	 2.0668725715	 0.7434221632	 0.120647
H	-1.9733271757	-0.0047263749	 1.0874424219	 0.10389
H	-1.8683502197	-1.0188814699	-0.380150505	 0.10858
H	-0.8470183874	-1.8581373374	 2.3121646735	 0.126745
H	-0.2088549794	-2.5235621277	 0.7811808847	 0.119702
H	 2.0566382988	-1.6704727762	 0.0242568318	 0.128529
H	 2.7564706993	-0.1945908718	 0.7216155594	 0.135362
H	 2.5054472239	-1.6138427622	 1.7504884713	 0.133817
115.8424	140.4624	194.294	202.7402	219.4082	253.4919	299.9463	367.8985	415.8721	527.0279	604.4755	632.6155	694.4217	766.3803	874.6369	909.2656	964.8876	979.4289	1010.7269	1120.1411	1122.8277	1173.7108	1176.5159	1203.8859	1215.0808	1244.0852	1265.6302	1276.7184	1333.9724	1404.9637	1451.0441	1481.502	1482.3572	1486.7601	1493.1231	1501.8521	1527.7149	2337.0528	2968.4531	2983.2171	3042.8909	3067.5323	3069.4631	3093.4721	3105.3166	3115.8479	3132.2717	3159.5491
CN1CCC1(C)C#N	CN1CC[C@]1(C)C#N	
InChI=1S/C6H10N2/c1-6(5-7)3-4-8(6)2/h3-4H2,1-2H3	InChI=1S/C6H10N2/c1-6(5-7)3-4-8(6)2/h3-4H2,1-2H3/t6-/m1/s1
