16
gdb 84268	3.07537	1.51426	1.07973	4.6518	72.49	-0.2195	-0.0182	0.2013	1078.7531	0.124887	-437.886321	-437.87844	-437.877496	-437.918986	29.361	
O	 0.3522911824	 1.3310775859	-0.2802271076	-0.409945
C	 0.0974602276	-0.0309018235	-0.0352790687	 0.014883
C	 0.6555229623	-0.6071594197	 1.26347625	-0.381546
C	-0.3248739957	-1.344001712	 1.785305381	 0.383365
C	-1.0018540531	-2.0813293779	 2.9285522894	-0.369751
C	-2.343426354	-1.8384530572	 2.1383158623	-0.175153
N	-1.5075246023	-1.3377214989	 1.0228653494	-0.09725
C	-1.4480880888	-0.3689227523	 0.034850735	 0.306468
O	-2.3433029866	 0.1218111135	-0.6016206375	-0.339673
H	-0.0842783151	 1.8445270184	 0.4082862024	 0.283406
H	 0.4988460738	-0.5596465288	-0.9103352683	 0.128078
H	 1.6502144745	-0.4227323299	 1.6379634353	 0.112877
H	-0.7341032298	-3.1368990529	 3.013036817	 0.13906
H	-0.924552411	-1.6115118037	 3.9101188262	 0.137139
H	-2.9316132626	-2.7239177927	 1.8905672773	 0.132878
H	-2.9916982018	-1.0709177082	 2.570757937	 0.135164
90.5681	116.9382	176.4874	218.9712	302.627	328.3403	418.649	533.663	555.3732	637.2692	672.6004	716.8707	781.8041	798.1058	824.6294	896.274	946.3817	989.0649	1047.0056	1061.1601	1105.2819	1137.8306	1171.1707	1192.6363	1221.319	1227.1661	1262.7783	1279.0285	1299.0049	1354.8914	1416.8832	1471.4314	1511.7851	1721.0319	1846.0282	3026.5219	3062.1321	3080.9812	3118.6603	3137.9074	3255.2346	3806.4161
OC1C=C2CCN2C1=O	O[C@H]1[CH][C]2CCN2C1=O	
InChI=1S/C6H7NO2/c8-5-3-4-1-2-7(4)6(5)9/h3,5,8H,1-2H2	InChI=1S/C6H7NO2/c8-5-3-4-1-2-7(4)6(5)9/h3,5,8H,1-2H2/t5-/m0/s1
