22
gdb 85048	2.25607	1.50268	0.97734	2.7464	83.21	-0.2224	-0.0151	0.2072	1269.4103	0.192752	-404.38059	-404.370836	-404.369892	-404.414969	36.642	
C	-0.1460821075	 1.4998713488	-0.0748570995	-0.409438
C	 0.0255810288	-0.0163602858	-0.0804807136	 0.073575
C	 0.8403538506	-0.5416893092	-1.2691143073	-0.345907
C	 1.4585324516	-1.830888869	-0.7464270321	 0.395314
O	 2.0278083515	-2.675998042	-1.3869735637	-0.321198
C	 1.2227838254	-1.8732087323	 0.7669517921	-0.044541
C	 2.4493319109	-2.3493236409	 1.5398299833	-0.405826
N	 0.7854022003	-0.5134575745	 1.0807054917	-0.081074
C	 0.0901434938	-0.3990258607	 2.3489934414	-0.330373
H	 0.8288825015	 1.990713898	 0.007724745	 0.123491
H	-0.6244382309	 1.8276781467	-1.0031131359	 0.118459
H	-0.7736231727	 1.8402471194	 0.7534640054	 0.118812
H	-0.9794146217	-0.4855364481	-0.1097002359	 0.054676
H	 0.2618816596	-0.7105599307	-2.1797621704	 0.128797
H	 1.6569865647	 0.1492682558	-1.5150088659	 0.13398
H	 0.3995468294	-2.6066996326	 0.9179568376	 0.074772
H	 3.246916693	-1.6033841258	 1.4790868714	 0.123234
H	 2.2219042364	-2.528777723	 2.5940458325	 0.114669
H	 2.8072657983	-3.2840242007	 1.1001205797	 0.139507
H	 0.7272868364	-0.7633289589	 3.1593524534	 0.124494
H	-0.1446886892	 0.6464453089	 2.5637696419	 0.122941
H	-0.8550302103	-0.9761103933	 2.3722948987	 0.091637
68.3104	99.8595	199.5957	206.9842	213.0478	252.2654	259.4403	303.1123	327.866	424.3417	467.7679	500.1747	539.5175	548.2882	635.1418	741.439	788.9513	888.669	898.0731	950.4538	996.6708	1057.6537	1068.3098	1089.3205	1117.4541	1139.7241	1145.9535	1177.4453	1209.1042	1220.4447	1256.6073	1275.0557	1322.699	1340.9982	1371.0106	1388.8972	1399.2853	1412.1891	1444.3048	1460.3013	1486.2762	1490.5146	1495.7571	1500.9632	1503.2433	1506.8291	1852.2852	2853.3921	2884.7478	2919.5246	3037.9624	3040.2307	3045.3257	3079.002	3109.6108	3112.5255	3115.3287	3118.0857	3121.5461	3128.5838
CC1CC(=O)C(C)N1C	C[C@H]1CC(=O)[C@@H](C)N1C	
InChI=1S/C7H13NO/c1-5-4-7(9)6(2)8(5)3/h5-6H,4H2,1-3H3	InChI=1S/C7H13NO/c1-5-4-7(9)6(2)8(5)3/h5-6H,4H2,1-3H3/t5-,6+/m0/s1
