17
gdb 8346	5.52892	1.2915	1.26267	3.4805	71.32	-0.2593	0.0209	0.2802	1010.4874	0.14296	-363.81051	-363.803308	-363.802363	-363.843	26.974	
N	-0.1310465248	 1.2536071594	 0.0098534325	-0.443439
C	-0.0486898343	-0.0054207195	 0.0028326463	 0.107608
O	-1.1749009064	-0.7505812586	 0.0078342681	-0.234999
C	-1.018522709	-2.1381519491	 0.0000595271	 0.434941
C	-0.346449194	-3.0443746873	 1.0755588474	-0.274503
C	-0.9405803077	-3.989799001	-0.0093159061	-0.053276
C	-2.2214061419	-3.0996624818	 0.0046545988	-0.268406
C	-0.362962747	-3.0340921059	-1.0940968309	-0.274506
H	 0.8023069132	 1.660157902	 0.0045268035	 0.229067
H	 0.8729215274	-0.5998049519	-0.0074539898	 0.088271
H	 0.7436180591	-3.009351338	 1.1484714665	 0.093786
H	-0.8210915129	-3.0645080515	 2.0593695664	 0.103451
H	-0.8994328435	-5.0752485376	-0.0147744017	 0.09082
H	-2.8245877179	-3.1200770692	 0.9151255614	 0.101976
H	-2.8383818495	-3.1114865873	-0.8966799937	 0.101974
H	-0.8525281916	-3.0449267996	-2.0707147075	 0.103449
H	 0.7258713308	-2.9983145431	-1.1832601783	 0.093787
39.7653	87.0824	170.633	370.3076	406.6693	455.4528	552.7492	555.4121	745.1266	777.6842	808.3172	826.0447	901.2203	948.2252	958.7351	961.3229	972.7758	988.9212	1045.1916	1077.9644	1097.2628	1101.8015	1135.4393	1137.8527	1170.5646	1181.2396	1228.3163	1232.7353	1234.4325	1285.698	1295.0711	1423.0814	1495.486	1499.0803	1556.8542	1745.3247	3045.5499	3054.0594	3058.251	3066.1417	3123.4722	3127.8142	3133.0471	3158.5944	3515.4602
N=COC12CC(C1)C2	[NH][CH]O[C@@]12C[C@@H](C1)C2	
InChI=1S/C6H9NO/c7-4-8-6-1-5(2-6)3-6/h4-5,7H,1-3H2	InChI=1S/C6H9NO/c7-4-8-6-1-5(2-6)3-6/h4-5,7H,1-3H2/t5-,6-
