15
gdb 35310	5.57112	0.96285	0.90404	1.0398	75.58	-0.2942	-0.0127	0.2815	1229.8597	0.113752	-379.672612	-379.664859	-379.663915	-379.705181	28.719	
N	 0.0265118821	-1.1835931043	-0.1540126814	-0.320617
C	 0.0154893503	-0.0302892026	-0.0761407606	 0.279609
C	 0.0164899272	 1.4216288142	 0.0496989963	-0.156102
C	-0.2383135628	 2.029694154	 1.4791444222	-0.309607
C	 1.1192868775	 2.7486413283	 1.3916909504	 0.225699
C	 2.2263583124	 1.7397258728	 1.1794857997	-0.321615
C	 1.38712421	 2.12371081	 0.0052194863	-0.098237
C	 1.3631828233	 4.0820276818	 1.8331740683	 0.182838
N	 1.5446257889	 5.1670324934	 2.1931844752	-0.338095
H	-0.6782968823	 1.8453092053	-0.678042964	 0.14258
H	-1.0895186963	 2.7099082052	 1.4796891032	 0.144951
H	-0.3394040575	 1.3157438209	 2.2988992215	 0.138146
H	 3.2288239141	 2.1520693789	 1.1818494702	 0.15197
H	 2.136746819	 0.7540962839	 1.6281326558	 0.14737
H	 1.7998850339	 2.6012661081	-0.8733924431	 0.131109
81.6014	115.9445	182.675	215.918	315.0191	395.4582	471.2982	524.7691	566.0457	586.1042	613.7664	697.6533	808.1105	849.9784	894.1232	960.9307	966.8313	981.3905	1036.1868	1064.9998	1082.5563	1099.0969	1138.7475	1203.279	1229.9526	1259.1079	1290.188	1335.2892	1388.1219	1480.5656	1496.2316	2349.557	2356.6429	3083.9641	3096.2663	3126.2033	3150.8292	3209.3311	3226.6916
N#CC1CC2(CC12)C#N	N#C[C@H]1C[C@]2(C[C@@H]12)C#N	
InChI=1S/C7H6N2/c8-3-5-1-7(4-9)2-6(5)7/h5-6H,1-2H2	InChI=1S/C7H6N2/c8-3-5-1-7(4-9)2-6(5)7/h5-6H,1-2H2/t5-,6+,7+/m1/s1
