19
gdb 62236	4.79532	0.56026	0.5202	2.6055	78.46	-0.2542	-0.0336	0.2206	2023.8409	0.156959	-419.216131	-419.205645	-419.2047	-419.253435	35.652	
C	-0.142644117	 1.5350903021	 0.1536132513	-0.396523
C	 0.0122427332	 0.002706631	 0.0430412392	-0.099939
N	 0.6090952504	-0.5019359437	-1.1936805957	-0.292056
C	-0.205930875	-0.3290651864	-2.3909941506	-0.144666
C	 0.4778487142	-0.9954240122	-3.5927311106	-0.284735
C	-0.4238350791	-1.0250565311	-4.8067439167	 0.156804
O	-0.1498489591	-0.5579843765	-5.8808898593	-0.229027
C	 0.8037377701	-0.5000118689	 1.1803682899	 0.278273
N	 1.4331336956	-0.8632921145	 2.0782395112	-0.315034
H	 0.833863802	 2.024226664	 0.0891304509	 0.134685
H	-0.7775129142	 1.9102450719	-0.6527852398	 0.131209
H	-0.6005592903	 1.811004589	 1.1074689122	 0.143114
H	-0.9827210668	-0.4550789536	 0.1239365872	 0.134032
H	 1.5275380623	-0.0886093567	-1.3247805955	 0.229049
H	-1.1741883349	-0.8139632258	-2.2069425465	 0.113288
H	-0.4227190919	 0.7239789879	-2.6384955144	 0.104848
H	 1.4068161407	-0.4831402395	-3.8610828861	 0.123175
H	 0.7182998006	-2.0306473211	-3.3160803481	 0.138225
H	-1.4036194407	-1.5310066956	-4.6353355988	 0.075277
43.9484	49.9715	80.9776	102.3448	138.3742	191.8302	224.5246	269.5952	313.9047	364.2124	410.0896	528.2058	563.9443	585.1018	736.2839	783.6968	844.2923	869.8438	920.5999	1004.6439	1044.5827	1071.6781	1101.8	1105.2838	1148.6247	1177.3069	1226.7434	1267.3186	1318.3596	1328.8847	1344.635	1402.9478	1414.2824	1429.0843	1467.425	1488.1102	1491.5653	1505.9909	1519.7008	1839.8905	2363.2978	2852.2217	2957.0887	3028.0554	3030.2634	3031.3234	3046.8805	3099.7113	3123.2698	3129.4832	3514.8706
CC(NCCC=O)C#N	C[C@@H](NCCC=O)C#N	
InChI=1S/C6H10N2O/c1-6(5-7)8-3-2-4-9/h4,6,8H,2-3H2,1H3	InChI=1S/C6H10N2O/c1-6(5-7)8-3-2-4-9/h4,6,8H,2-3H2,1H3/t6-/m1/s1
