20
gdb 119586	2.93095	1.02093	0.87513	2.6876	75.33	-0.2329	0.0591	0.2919	1375.0265	0.170033	-440.226927	-440.217462	-440.216518	-440.261673	34.853	
O	-0.1513260649	 1.5038808187	-0.0188687791	-0.420552
C	-0.0233606211	 0.1036608316	-0.2130044513	-0.069219
C	-1.3522757054	-0.5414059184	 0.1770184301	-0.30996
C	-1.2957508676	-2.037697254	 0.0725013475	 0.354962
C	-1.5799706891	-2.7897499141	-1.1696823632	-0.281773
N	-2.5281374558	-2.9351728701	-0.0493636028	-0.179315
C	-1.8619146288	-3.9165795058	 0.8783062969	-0.200514
C	-0.655459396	-2.9608405164	 1.0993644126	 0.03502
O	 0.6509955916	-3.3754282314	 0.7584771859	-0.435545
H	 0.6825040802	 1.9172720581	-0.2602948895	 0.285311
H	 0.2087132411	-0.1385528587	-1.2621727214	 0.090237
H	 0.788123588	-0.3165256027	 0.4017590316	 0.098004
H	-1.6004471332	-0.2387742905	 1.2015860761	 0.106168
H	-2.1461051537	-0.1539877167	-0.4705407531	 0.115933
H	-1.9902094119	-2.2220224003	-1.9995560793	 0.118504
H	-0.960909229	-3.6369534225	-1.4542891684	 0.120528
H	-2.4751107653	-4.0812505197	 1.7668186682	 0.106853
H	-1.6263833377	-4.877146694	 0.4082071184	 0.104372
H	-0.6776685719	-2.5147915064	 2.1024556615	 0.076026
H	 1.0032176304	-3.9015228466	 1.4836955292	 0.284959
65.8022	92.8584	103.0273	174.7779	260.3776	272.6773	292.6031	320.3443	341.2348	407.5958	491.2873	552.4328	703.0855	748.3683	788.6466	806.0957	867.8464	894.3595	963.5887	993.0579	1016.1486	1036.5439	1074.2757	1084.9651	1108.8299	1121.2688	1139.3951	1195.6322	1203.9709	1206.8943	1244.1094	1268.557	1286.3293	1304.7439	1323.2733	1350.4313	1392.7661	1443.1077	1463.2317	1484.6956	1490.7506	1512.3081	1527.9532	2972.0877	2999.0803	3012.293	3035.66	3046.5423	3083.5386	3109.1125	3113.2931	3198.9821	3813.5464	3831.5541
OCCC12CN1CC2O	OCC[C@]12CN1C[C@H]2O	
InChI=1S/C6H11NO2/c8-2-1-6-4-7(6)3-5(6)9/h5,8-9H,1-4H2	InChI=1S/C6H11NO2/c8-2-1-6-4-7(6)3-5(6)9/h5,8-9H,1-4H2/t5-,6-,7?/m1/s1
