19
gdb 95970	2.71796	1.44643	1.21097	2.1583	70.37	-0.2474	0.06	0.3074	1080.0167	0.159487	-460.131516	-460.122928	-460.121984	-460.165689	31.246	
O	-0.2074991745	 1.525361628	 0.6815790084	-0.439875
C	-0.0350364795	 0.2261483501	 0.127756685	 0.011903
C	 0.6660215697	-0.7421327097	 1.0954125519	-0.086432
O	-0.3505089219	-1.3684773463	 1.8742228731	-0.266289
C	-1.6258386093	-0.8849279543	 1.4595789279	-0.135365
C	-1.4319681259	-0.3916340631	 0.0295196423	 0.27869
C	-2.5384229309	 0.423438967	-0.6614944637	-0.139845
O	-2.6449319494	-0.5413769685	-1.7313471795	-0.274906
C	-1.6601103271	-1.3976194661	-1.1231405657	-0.12837
H	 0.6612132389	 1.8969245742	 0.8634052071	 0.287785
H	 0.4732886363	 0.2797426943	-0.8446722474	 0.073657
H	 1.230529333	-1.5120282041	 0.5507329665	 0.100554
H	 1.3673565876	-0.206303347	 1.7497741166	 0.091232
H	-2.347743075	-1.7035742594	 1.5427050856	 0.107273
H	-1.9569720555	-0.0564511401	 2.1032176271	 0.104296
H	-3.474111911	 0.5114535956	-0.0938022334	 0.099989
H	-2.2404632788	 1.415203952	-1.0163943963	 0.116883
H	-0.8037200531	-1.5782659828	-1.7865110731	 0.097548
H	-2.0814444436	-2.36443482	-0.8179175324	 0.101272
49.6375	73.8925	118.1748	205.8427	258.0538	304.8111	331.1511	396.0702	470.1944	521.9013	731.7876	801.5918	855.8551	869.8348	914.2084	937.8745	962.8707	975.9834	992.7318	1019.7583	1037.5191	1101.369	1104.9633	1147.3645	1154.4486	1159.1925	1177.304	1201.0946	1228.2781	1271.3932	1286.2726	1308.8645	1328.7745	1360.1467	1386.8063	1387.8721	1430.7484	1505.225	1511.8239	1519.8379	1538.1278	2991.9529	2997.6657	2999.0653	3012.4019	3016.6316	3032.7714	3042.6733	3074.4739	3075.2647	3824.285
OC1COCC11COC1	O[C@H]1COCC21COC2	
InChI=1S/C6H10O3/c7-5-1-8-2-6(5)3-9-4-6/h5,7H,1-4H2	InChI=1S/C6H10O3/c7-5-1-8-2-6(5)3-9-4-6/h5,7H,1-4H2/t5-/m0/s1
