16
gdb 30232	3.76777	1.31137	1.02829	3.8188	73.4	-0.1918	0.0136	0.2055	1123.5731	0.12641	-434.037071	-434.02937	-434.028426	-434.06948	29.303	
N	 0.2356084143	 1.4026123357	 0.3639260897	-0.494342
C	 0.0207490102	 0.0209521614	-0.0053469893	-0.137588
C	-1.5004958994	-0.3900053014	-0.1112451581	-0.168518
N	-1.2792734391	-0.6055057431	-1.554695472	-0.092612
C	 0.1034862331	-0.4457500548	-1.4731919951	 0.251319
C	 0.6480357421	-1.043999939	-2.5359030249	-0.197235
O	-0.394566685	-1.5889500883	-3.2963235383	-0.232962
C	-1.6002184246	-1.4408183427	-2.6017513537	 0.44186
N	-2.7234873094	-1.9379800994	-2.9048727963	-0.596758
H	 1.2280318282	 1.6162145835	 0.3763057446	 0.237813
H	-0.1876784724	 2.0222902269	-0.3213582009	 0.238433
H	 0.5953339919	-0.6144967553	 0.6716602746	 0.111948
H	-1.7649754874	-1.3020275416	 0.430613957	 0.137533
H	-2.2122731625	 0.4057887967	 0.1186527231	 0.131963
H	 1.6434860146	-1.1979682041	-2.9114062597	 0.143617
H	-2.6483187646	-2.5132461844	-3.7399817907	 0.225528
98.608	104.2718	222.5715	254.9087	287.6853	380.3785	449.3196	545.7483	631.9804	675.3542	693.6828	716.6564	738.746	755.6667	802.056	873.1657	882.7877	942.8756	980.9281	1016.6653	1042.5421	1136.1021	1145.0972	1173.8	1211.8532	1240.0793	1243.8666	1275.6965	1337.5791	1378.4179	1420.1016	1509.5946	1664.4316	1681.2719	1785.5784	3062.6473	3095.4883	3123.8099	3301.4383	3493.7562	3536.2357	3574.098
NC1CN2C1=COC2=N	N[C@H]1CN2[C@@H]1CO[C@@H]2[NH]	
InChI=1S/C5H7N3O/c6-3-1-8-4(3)2-9-5(8)7/h2-3,7H,1,6H2	InChI=1S/C5H10N3O/c6-3-1-8-4(3)2-9-5(8)7/h3-5,7H,1-2,6H2/t3-,4+,5+/m0/s1
