22
gdb 121749	2.59163	0.76248	0.61808	3.5214	81.81	-0.24	0.0405	0.2805	1885.4935	0.191992	-441.519765	-441.50848	-441.507535	-441.558504	38.453	
C	 1.0536227571	 0.6525670288	 0.2593827031	-0.371271
C	-0.0523796342	-0.3379342264	-0.1112926289	-0.14472
N	 0.3473717707	-1.2600637246	-1.1592785814	-0.299105
C	-0.1996561203	-1.2533836283	-2.3988931185	 0.360818
O	-1.0920199512	-0.5101014877	-2.7698202002	-0.388013
C	 0.3868140932	-2.2870378959	-3.3613710982	-0.156054
O	 1.416257889	-3.0349954335	-2.7547783777	-0.257457
C	 1.991822272	-4.0096835787	-3.6064484817	-0.029693
C	 3.0743188579	-4.7476379986	-2.8383910819	-0.389514
H	 1.9519175656	 0.1334024029	 0.6113135202	 0.111613
H	 1.3310661434	 1.2640231528	-0.6040777174	 0.130939
H	 0.7169874045	 1.3185958578	 1.0602418693	 0.118377
H	-0.3606431232	-0.9069474162	 0.7750274707	 0.104236
H	-0.9312563078	 0.1884344905	-0.4902027638	 0.147932
H	 1.0918511969	-1.921430325	-0.9992203052	 0.256567
H	-0.4378451581	-2.9354294634	-3.695533799	 0.120084
H	 0.7513994929	-1.74549049	-4.2477057344	 0.119922
H	 1.2139553018	-4.7093993912	-3.9531804891	 0.094458
H	 2.4117824074	-3.5230777802	-4.5018728864	 0.094448
H	 3.537352048	-5.5092250523	-3.4725064135	 0.121255
H	 3.8520990853	-4.0537770739	-2.5067705557	 0.127554
H	 2.6529147091	-5.2401120469	-1.9573790501	 0.127623
32.7255	47.3265	61.0522	89.8824	111.7574	142.5428	209.098	249.6408	274.6955	329.0477	366.2459	412.0387	523.958	543.1048	638.6989	654.8455	784.0038	822.3455	892.9586	910.8737	949.6915	1032.6935	1049.2175	1084.8549	1131.4501	1150.9455	1157.8263	1180.4947	1188.6872	1245.5984	1263.2731	1299.3052	1322.871	1363.9136	1392.6607	1403.3163	1410.5892	1438.7183	1484.7412	1487.3789	1491.494	1492.5625	1500.8326	1503.6243	1532.189	1561.4531	1783.6835	2966.0112	2986.9193	2994.2794	3017.9176	3024.6881	3034.2175	3045.6055	3095.9997	3115.0238	3121.1942	3121.7202	3123.976	3626.2593
CCNC(=O)COCC	CCNC(=O)COCC	
InChI=1S/C6H13NO2/c1-3-7-6(8)5-9-4-2/h3-5H2,1-2H3,(H,7,8)	InChI=1S/C6H13NO2/c1-3-7-6(8)5-9-4-2/h3-5H2,1-2H3,(H,7,8)
