19
gdb 39321	2.90858	1.77533	1.33121	2.3048	74.45	-0.2484	0.079	0.3274	990.6587	0.161593	-422.999111	-422.99207	-422.991126	-423.030481	28.538	
C	 0.0081785668	 1.5496805065	 0.1260765931	-0.240958
C	 1.545566329	 1.5476612403	-0.1075422043	-0.236623
C	 1.4267989915	 0.0843702261	-0.6297703151	-0.03286
C	 2.4124265576	-0.9639073241	-0.1756281234	 0.023241
O	 2.849146633	-0.8991141381	 1.190421851	-0.246327
C	 1.9678487761	-1.9547865789	 0.8163281956	 0.038822
C	 0.5569096813	-1.8612775805	 1.3637033837	-0.119082
O	 0.0441008284	-0.5471450272	 1.3224312687	-0.256233
C	 0.0122169984	 0.0103301776	 0.0214306518	 0.114408
H	-0.3594517252	 1.9459368234	 1.0742727658	 0.113168
H	-0.5444274676	 2.011123615	-0.6965623975	 0.099929
H	 1.9536217473	 2.2907102535	-0.7955133116	 0.095614
H	 2.1018306312	 1.5768449127	 0.8305714917	 0.130648
H	 1.3460884601	 0.0546066932	-1.720936274	 0.070881
H	 3.2053218671	-1.2351037981	-0.8726634136	 0.089532
H	 2.4053579871	-2.9541680279	 0.8214866491	 0.090993
H	-0.0852148271	-2.5649111703	 0.8040259003	 0.088584
H	 0.5401306126	-2.1591262258	 2.417334118	 0.119582
H	-0.7789612476	-0.4700553174	-0.5737100792	 0.056682
107.8113	194.9656	262.8015	335.7219	369.087	439.8954	465.5663	635.3907	663.6908	732.6994	759.2773	808.8748	837.6589	876.881	901.1861	925.5698	947.6393	965.54	1001.6118	1026.6912	1064.4526	1080.1682	1106.0244	1130.7356	1154.8091	1169.6839	1214.7433	1249.4771	1256.8583	1269.8776	1283.4023	1288.4911	1302.8905	1353.3076	1358.8854	1381.8571	1407.3449	1468.2632	1470.7644	1486.8409	1490.7427	2952.136	2981.7546	3057.9404	3067.4107	3072.126	3077.1341	3098.5212	3111.4893	3122.8071	3141.544
C1CC2C3OC3COC12	C1C[C@H]2[C@H]3O[C@H]3CO[C@@H]12	
InChI=1S/C7H10O2/c1-2-5-4(1)7-6(9-7)3-8-5/h4-7H,1-3H2	InChI=1S/C7H10O2/c1-2-5-4(1)7-6(9-7)3-8-5/h4-7H,1-3H2/t4-,5+,6+,7-/m1/s1
