19
gdb 9951	3.12909	1.47224	1.367	3.3397	73.49	-0.2285	-0.0185	0.21	1026.0134	0.162194	-365.048788	-365.039217	-365.038273	-365.082883	33.874	
C	 2.0053068023	-3.7554275759	 1.5516475519	-0.421549
C	 1.0266253918	-2.7738254756	 0.9438232335	-0.030194
N	-0.0149550944	-2.085149832	 1.6825480517	-0.1348
C	-0.1795046176	-2.2798203087	 3.1162772472	-0.317069
C	 1.1163038412	-1.2767575481	 1.1795869956	 0.185403
C	 2.1663772252	-0.6500962333	 2.0710018	-0.480995
C	 0.6968943678	-0.4293288042	 0.0169305889	 0.143209
O	 1.2656417572	 0.5688581066	-0.3491542285	-0.268404
H	 2.357944388	-3.4657264785	 2.5420610901	 0.12594
H	 1.5378920101	-4.7423590749	 1.6391180503	 0.130322
H	 2.8793341065	-3.8610428654	 0.9009723765	 0.132923
H	 0.6916383954	-3.0856490639	-0.0471527641	 0.091928
H	 0.7481906607	-2.3843574893	 3.6940565261	 0.106703
H	-0.7348247539	-1.4287532079	 3.5218086585	 0.131487
H	-0.7827884032	-3.1791076476	 3.275471339	 0.129414
H	 2.9264125725	-0.1820569096	 1.440758454	 0.14823
H	 1.7274163871	 0.1424376622	 2.6861649278	 0.130927
H	 2.6559984843	-1.3638772754	 2.7332398116	 0.117257
H	-0.210394991	-0.8161544083	-0.4982836899	 0.079269
82.9142	104.0644	136.7582	159.0353	206.3322	230.7529	252.1901	287.2177	318.4872	415.3421	462.2659	532.2563	578.9557	698.9748	752.0137	801.7759	946.2439	991.5362	1023.687	1046.59	1093.7666	1109.031	1142.2558	1151.0843	1165.8893	1183.8253	1307.9517	1350.1381	1395.082	1410.2858	1417.979	1424.9775	1459.2402	1478.6781	1486.3655	1487.8229	1497.5468	1507.212	1514.2762	1819.9468	2891.9987	3009.7907	3041.9565	3052.1564	3077.9823	3079.0251	3098.7802	3106.0798	3115.5183	3139.7879	3151.2113
CC1N(C)C1(C)C=O	C[C@H]1N(C)[C@]1(C)C=O	
InChI=1S/C6H11NO/c1-5-6(2,4-8)7(5)3/h4-5H,1-3H3	InChI=1S/C6H11NO/c1-5-6(2,4-8)7(5)3/h4-5H,1-3H3/t5-,6-,7?/m1/s1
