14
gdb 129739	3.44728	1.15502	0.87316	3.6403	68.45	-0.2206	-0.0064	0.2142	1236.4196	0.1022	-466.167486	-466.159204	-466.158259	-466.201349	29.128	
N	 0.0384462594	 1.40586535	 0.2210043624	-0.613691
C	-0.0369115686	 0.0280659456	 0.0384207086	 0.22583
C	-1.0956434439	-0.8415619115	-0.124926635	 0.366065
O	-2.3944103397	-0.4535346317	-0.2450213166	-0.234416
C	-3.3679705954	-1.3471103726	 0.1012813189	 0.107485
N	-4.5698447509	-1.0070482264	-0.052056784	-0.436228
N	-0.6463165073	-2.113836215	-0.1783157783	-0.268965
N	 0.6551518122	-2.1075160585	-0.0584055038	-0.132413
N	 1.0249185449	-0.8148156829	 0.0810124153	-0.206333
H	 0.5750076328	 1.8814303528	-0.4967667046	 0.259656
H	-0.8913933692	 1.8074178177	 0.2533497051	 0.27162
H	-2.9668871405	-2.2889657746	 0.4812997472	 0.139736
H	-5.1819454458	-1.7612776361	 0.2529521798	 0.237325
H	 1.997817532	-0.5873917169	 0.210857515	 0.28433
50.8041	98.0819	146.9089	183.4147	273.3283	276.6878	377.9226	471.2909	524.5416	552.3264	684.3918	702.8873	730.908	799.0239	827.9818	848.1413	1003.2298	1050.7708	1054.742	1073.6351	1123.8791	1239.0919	1264.5839	1315.6858	1355.4649	1398.1547	1409.2883	1534.8189	1647.9635	1681.0011	1748.6417	3115.6396	3514.2626	3519.4778	3603.5966	3658.0697
NC1=C(OC=N)N=NN1	Nc1c(O[CH][NH])nn[nH]1	
InChI=1S/C3H5N5O/c4-1-9-3-2(5)6-8-7-3/h1,4H,(H3,5,6,7,8)	InChI=1S/C3H5N5O/c4-1-9-3-2(5)6-8-7-3/h1,4H,(H3,5,6,7,8)
