15
gdb 66495	3.68675	1.98554	1.70101	4.1588	67.33	-0.2177	-0.0692	0.1485	811.494	0.110718	-416.633424	-416.626837	-416.625892	-416.663833	27.146	
C	-0.0217858424	 1.5361794931	-0.0403201104	-0.523244
C	 0.0341242748	 0.0465001408	 0.0056150276	 0.361384
C	 0.3060101639	-1.0036521019	-1.0268276608	-0.128299
C	 0.775875698	-2.0682414875	-0.0311405135	 0.023456
O	-0.3624355007	-2.9422861424	 0.151032046	-0.229608
C	-0.9895452949	-1.788637827	 0.6370944153	 0.348056
N	-0.8508203542	-1.3935789452	 1.8562720662	-0.347171
C	 0.4195508776	-0.8920995472	 1.1996370048	-0.11707
N	-1.0675509071	-0.8170413622	-0.4874640383	-0.168679
H	 0.9787260887	 1.9664319459	 0.0743876812	 0.128308
H	-0.4400295141	 1.8784868198	-0.9906780196	 0.141102
H	-0.6529799218	 1.9143468188	 0.7696346269	 0.152074
H	 0.4791645242	-0.9430648133	-2.0940310972	 0.118131
H	 1.7087422077	-2.6210123501	-0.0688360262	 0.118854
H	 1.1790452702	-0.7060212017	 1.9535122382	 0.122705
194.5196	222.2369	258.7077	417.4096	453.0942	510.8876	585.8897	596.0654	616.0634	685.2524	728.7109	786.698	824.1429	831.45	851.779	891.1634	940.3162	949.0976	1011.6252	1021.1079	1047.9827	1066.4806	1078.5324	1102.4846	1124.3965	1204.1033	1225.4806	1271.3033	1394.8064	1439.6836	1476.7134	1482.8647	1491.2445	3039.5016	3107.5146	3122.4237	3163.0722	3185.6344	3199.3351
CC12C3C4OC(=NC14)N23	C[C@@]12[C@H]3[C@@H]4O[C]([N][C@H]14)N23	
InChI=1S/C6H6N2O/c1-6-3-2-4(6)8(6)5(7-3)9-2/h2-4H,1H3	InChI=1S/C6H6N2O/c1-6-3-2-4(6)8(6)5(7-3)9-2/h2-4H,1H3/t2-,3+,4-,6+,8?/m1/s1
