18
gdb 82345	2.32049	1.68862	1.34616	4.1261	74.05	-0.2248	0.0218	0.2466	1017.4775	0.150503	-398.113521	-398.105482	-398.104537	-398.145933	31.369	
N	-0.1602362135	 1.522399707	 0.0017085609	-0.508202
C	-0.0680193495	 0.0773593048	-0.073887529	 0.007696
C	-1.4117526995	-0.6273615053	-0.0229396392	-0.037796
C	-2.2398678418	-0.6639745523	-1.2973643003	-0.311817
C	-1.3347831411	-1.8104855732	-0.9539112861	 0.000378
N	-0.0407148516	-1.8548137482	-1.631521681	-0.287677
C	 0.6217173756	-0.5677705946	-1.3617846697	-0.222903
C	 0.5324108339	 0.3361128024	-2.520515803	 0.32638
N	 0.4702692492	 1.0776159868	-3.4055182555	-0.343685
H	 0.7589519438	 1.9516207088	-0.0429702043	 0.232361
H	-0.6922519249	 1.8877012364	-0.7829251115	 0.242892
H	 0.5229358418	-0.2559074272	 0.7883618027	 0.089806
H	-1.9174511495	-0.6702637462	 0.9339796155	 0.096974
H	-3.3051998535	-0.825025677	-1.1761093863	 0.120535
H	-1.9845920649	-0.0243503333	-2.1351668193	 0.142757
H	-1.7537690056	-2.7818998545	-0.7212904075	 0.097586
H	 0.516460086	-2.5984362084	-1.2262773105	 0.230741
H	 1.6884227552	-0.7294330362	-1.1787033858	 0.123973
92.7864	153.0045	184.2711	256.8676	298.5321	348.7293	403.5819	487.6567	497.6841	593.8074	661.1357	715.7395	739.5551	776.9359	800.1576	855.5565	879.1354	937.5062	941.9639	974.3657	1013.4235	1061.2781	1065.7719	1083.1009	1098.6909	1141.6271	1153.2633	1192.6675	1212.1862	1241.6788	1302.142	1333.2776	1345.1854	1398.4149	1427.4067	1456.8699	1497.9298	1656.9054	2349.5253	3025.9978	3066.9351	3139.0803	3181.5168	3189.6866	3224.2138	3494.9069	3535.0872	3575.3895
NC1C2CC2NC1C#N	N[C@H]1[C@H]2C[C@H]2N[C@H]1C#N	
InChI=1S/C6H9N3/c7-2-5-6(8)3-1-4(3)9-5/h3-6,9H,1,8H2	InChI=1S/C6H9N3/c7-2-5-6(8)3-1-4(3)9-5/h3-6,9H,1,8H2/t3-,4+,5-,6-/m0/s1
