19
gdb 70340	2.17784	2.05239	1.37152	1.0076	73.84	-0.226	0.0678	0.2938	992.2816	0.159486	-422.997749	-422.98984	-422.988895	-423.029414	32.718	
O	 0.3327971058	 1.3676572424	-0.2741518883	-0.469084
C	 0.1949995684	-0.0173754451	-0.1268892776	 0.311599
C	-0.4505930971	-0.6023032332	 1.0985389896	-0.363053
C	 1.045173793	-0.7608106905	 0.8582557821	-0.076444
C	 1.6016959768	-2.0214262879	 0.1813870471	-0.254684
C	 1.08862784	-2.0129624268	-1.2614520557	-0.109801
C	-0.404275328	-2.1613159625	-1.5236329659	-0.348717
C	 0.1965336806	-0.7982743564	-1.4495856372	 0.363776
O	 0.1541969773	-0.0151360901	-2.5977484113	-0.474214
H	-0.5333923752	 1.7245986863	-0.5035448989	 0.288642
H	-0.7209127185	 0.1037174195	 1.8775117167	 0.112536
H	-1.1177938697	-1.4532327614	 1.0173500014	 0.113987
H	 1.6942122707	-0.2111273832	 1.5307658456	 0.096322
H	 2.6957881643	-1.9737385145	 0.1796381024	 0.106208
H	 1.3270405863	-2.9360136528	 0.7206331599	 0.103078
H	 1.7553899186	-2.3400138484	-2.0515289966	 0.089883
H	-0.6702848846	-2.4923406113	-2.5223514076	 0.119607
H	-1.0686070529	-2.5247595024	-0.7467109796	 0.108534
H	 0.7034443244	 0.7578881483	-2.4138714261	 0.281825
149.6316	214.61	242.0416	295.9671	342.994	377.22	431.5584	447.9011	462.2089	504.5457	596.3001	610.4703	668.4775	794.9562	818.7037	834.9244	854.3733	912.7472	922.8934	949.6366	961.4776	1026.3496	1033.1415	1047.7773	1062.1367	1083.5644	1089.5696	1119.279	1162.2782	1223.6116	1238.5785	1250.9038	1286.8298	1313.9686	1329.23	1363.9222	1400.3423	1428.735	1483.8349	1489.7568	1503.4182	3030.7634	3069.7373	3123.152	3130.7062	3170.131	3172.5766	3208.5865	3214.9897	3768.9531	3785.689
OC12CC1CC1CC21O	O[C@]12C[C@H]1C[C@H]1C[C@@]21O	
InChI=1S/C7H10O2/c8-6-2-4(6)1-5-3-7(5,6)9/h4-5,8-9H,1-3H2	InChI=1S/C7H10O2/c8-6-2-4(6)1-5-3-7(5,6)9/h4-5,8-9H,1-3H2/t4-,5+,6-,7+
