13
gdb 9447	2.82301	1.82069	1.71779	3.6478	59.47	-0.2828	-0.0615	0.2213	834.7123	0.093181	-398.602885	-398.595124	-398.59418	-398.635172	27.135	
C	-0.204427426	 1.6052370157	 0.0956465505	-0.429846
C	 0.0146160105	 0.0990593645	 0.0303156195	 0.133167
O	 1.1242305869	-0.2855688084	-0.8185484031	-0.299128
C	 1.8634655886	-0.9430241603	 0.2346963549	-0.189819
C	 0.7871017796	-0.5344044792	 1.2393899052	 0.31765
O	 0.6110831279	-0.5969773358	 2.4104694386	-0.245748
C	-1.207698456	-0.6288351316	-0.3224388901	 0.276074
N	-2.169636174	-1.2144563436	-0.5826231038	-0.3203
H	 0.7233611885	 2.1008377535	 0.3909699908	 0.138193
H	-0.5120509578	 1.980752904	-0.8834587814	 0.157294
H	-0.9840415101	 1.8375136091	 0.8258796314	 0.158324
H	 1.9529512671	-2.0254177411	 0.0810936379	 0.155024
H	 2.8570581048	-0.5095802068	 0.3951757295	 0.149114
92.0992	126.1045	190.9472	199.1301	216.2757	345.619	406.069	508.264	550.6384	585.1144	651.616	718.1725	868.158	923.3011	968.8673	1006.3879	1034.0842	1120.0445	1138.8906	1172.2373	1205.5298	1299.5905	1401.7389	1475.1886	1478.4544	1486.5672	1942.3458	2351.3527	3030.7416	3051.8872	3082.6435	3136.1243	3137.4605
CC1(OCC1=O)C#N	C[C@]1(OCC1=O)C#N	
InChI=1S/C5H5NO2/c1-5(3-6)4(7)2-8-5/h2H2,1H3	InChI=1S/C5H5NO2/c1-5(3-6)4(7)2-8-5/h2H2,1H3/t5-/m0/s1
