19
gdb 124490	2.47421	1.31574	1.05512	3.7846	78.97	-0.2089	0.0003	0.2092	1226.7611	0.159047	-419.206835	-419.197423	-419.196479	-419.241513	34.386	
C	 0.0009436583	 1.5352130318	 0.0086434031	-0.38132
C	-0.0508897062	-0.0054238318	-0.0258412849	-0.099111
C	-1.5044525514	-0.5153718789	-0.0445487437	-0.381493
C	 0.7359378964	-0.5513060395	-1.1754297561	 0.408849
C	 1.9035916621	-1.2549889604	-1.2712523853	 0.014402
N	 2.8006395774	-1.654054586	-0.2672829121	-0.612608
C	 2.0741991408	-1.4216212716	-2.6754857333	-0.001199
N	 1.1017275119	-0.8767462034	-3.3636908173	-0.146144
O	 0.2562040304	-0.3158640424	-2.4236667226	-0.232784
H	 1.031912665	 1.8950376744	 0.0700327635	 0.122937
H	-0.4489650551	 1.9529576415	-0.8968627547	 0.13628
H	-0.5505478844	 1.918236602	 0.8731105931	 0.112214
H	 0.4303951705	-0.3797119435	 0.8878888096	 0.074609
H	-2.0168197707	-0.1815311302	-0.9511933495	 0.139078
H	-1.542065918	-1.608355433	-0.0205507715	 0.1173
H	-2.0546604474	-0.1324341176	 0.8204694373	 0.112263
H	 2.3855320618	-1.6330403678	 0.6556680127	 0.2446
H	 3.1779738718	-2.5792085015	-0.4316826123	 0.248538
H	 2.8768931269	-1.9242834021	-3.1976961062	 0.123589
36.6307	127.1067	158.832	169.5958	225.8682	251.8104	279.3802	296.2526	381.1924	417.9161	517.1743	616.6033	651.6743	706.4715	719.1891	776.564	881.4108	892.7185	929.4556	948.5089	963.3281	967.8903	1067.6553	1071.0736	1120.7846	1173.5898	1213.1159	1233.5245	1269.0704	1323.985	1370.089	1396.4842	1417.9533	1452.993	1486.1064	1491.5933	1500.4509	1504.2775	1524.7938	1650.8834	1693.958	3011.6895	3037.3679	3041.3571	3109.3451	3112.8221	3117.4802	3122.0379	3236.0654	3530.1594	3617.1575
CC(C)C1=C(N)C=NO1	CC(C)c1c(N)cno1	
InChI=1S/C6H10N2O/c1-4(2)6-5(7)3-8-9-6/h3-4H,7H2,1-2H3	InChI=1S/C6H10N2O/c1-4(2)6-5(7)3-8-9-6/h3-4H,7H2,1-2H3
