23
gdb 118134	3.15064	0.78469	0.71967	1.0355	83.58	-0.2528	0.0879	0.3407	1706.0121	0.202648	-425.402919	-425.391906	-425.390962	-425.439856	38.832	
C	-1.5168801078	-1.3112473529	-1.8674192006	-0.228164
O	-1.5950710888	-2.1492483505	-0.7404561813	-0.23705
C	-0.4209411142	-2.1287474328	 0.0428364402	-0.049572
C	-0.610696145	-3.0636959479	 1.2400146281	-0.038298
C	-0.848439008	-4.5138423912	 0.7970824438	-0.399862
C	 0.6006755654	-2.9703479876	 2.1430326902	 0.058652
O	 0.8020238755	-1.7504594708	 2.8690586061	-0.27254
C	 0.5654667418	-2.950441459	 3.6159518936	 0.074862
C	-0.6832810497	-3.0118026445	 4.4579264914	-0.421627
H	-0.7017330262	-1.6114717665	-2.5453873015	 0.102516
H	-2.4668441472	-1.3900312623	-2.4019809575	 0.125271
H	-1.3542253855	-0.2591314021	-1.584327015	 0.105234
H	 0.4476011703	-2.452485997	-0.5596828815	 0.077611
H	-0.2112671014	-1.1079686246	 0.3997435604	 0.104512
H	-1.4913421211	-2.7051447685	 1.7824768136	 0.086822
H	-1.0666067003	-5.1596285154	 1.6532437671	 0.11206
H	-1.6873906363	-4.5619907444	 0.1001387827	 0.13743
H	 0.0353836037	-4.9184319674	 0.2891144808	 0.110384
H	 1.517460365	-3.3546233094	 1.6852192766	 0.082195
H	 1.4594400914	-3.3228408186	 4.122094519	 0.085584
H	-0.5582326807	-2.3999779967	 5.357532824	 0.129746
H	-1.5585087681	-2.6431693543	 3.9198835957	 0.132314
H	-0.8760851327	-4.0412172156	 4.7793639641	 0.121921
42.5644	88.9735	94.5095	115.0853	169.3282	201.2458	219.4293	225.9325	245.541	334.8962	381.8576	392.5546	426.4534	514.95	573.757	779.755	823.3152	886.3218	933.3412	942.0495	988.0688	993.802	1003.9153	1082.9693	1126.2829	1144.9485	1157.3681	1170.7309	1176.8289	1193.0891	1199.1894	1228.6898	1267.4896	1290.4552	1309.1881	1353.2073	1394.2436	1404.1869	1420.0791	1422.6195	1469.5862	1480.3534	1485.4571	1489.4087	1494.677	1502.9285	1503.7859	1514.4405	1529.424	2937.7585	2968.8812	2995.7702	3011.7015	3031.8076	3038.9611	3053.2039	3066.7692	3079.1236	3097.5657	3098.9926	3111.6575	3133.5024	3137.1289
COCC(C)C1OC1C	COC[C@@H](C)[C@H]1O[C@H]1C	
InChI=1S/C7H14O2/c1-5(4-8-3)7-6(2)9-7/h5-7H,4H2,1-3H3	InChI=1S/C7H14O2/c1-5(4-8-3)7-6(2)9-7/h5-7H,4H2,1-3H3/t5-,6+,7-/m1/s1
