15
gdb 11648	3.28306	1.92359	1.51176	5.2297	66.75	-0.2822	0.0262	0.3085	850.6859	0.119868	-362.624166	-362.617218	-362.616273	-362.655195	26.574	
O	-0.0235051771	 1.4396070943	-0.0583113016	-0.433719
C	 0.0180486588	 0.0461287454	 0.0146871019	 0.133298
C	-0.0537125924	-0.6706386027	 1.4049821704	-0.122229
C	-1.5133843516	-0.1377998469	 1.5256215095	-0.255184
C	-1.3739903924	-0.6499681758	 0.0523017822	 0.205062
C	-0.6307928284	-1.8917593004	 0.6363623803	-0.260317
C	-2.3769585426	-0.6411228597	-0.9825041054	 0.155339
N	-3.1798886976	-0.6404229944	-1.8146925951	-0.35096
H	 0.8775640798	 1.7757512416	-0.0431650377	 0.294481
H	 0.7277854885	-0.3847116585	-0.7028902078	 0.081833
H	 0.7094306466	-0.6867499509	 2.1815874092	 0.086416
H	-2.1907515265	-0.7110946676	 2.1614728882	 0.107392
H	-1.6379869111	 0.9366047063	 1.6439303713	 0.131619
H	 0.0372186331	-2.4235168612	-0.0459701378	 0.10919
H	-1.2516913571	-2.5770884395	 1.2144816823	 0.11778
134.3283	174.0703	210.4455	323.4016	341.3494	512.3584	520.39	545.4563	571.7752	639.6883	775.8839	830.0181	891.5665	930.2161	950.9285	966.0286	1019.2023	1048.4263	1076.8512	1138.4468	1158.1102	1165.3682	1171.1337	1214.8162	1219.0971	1242.6937	1261.0785	1308.6511	1438.7503	1493.4866	1533.6523	2352.3483	3027.2883	3067.9044	3083.5888	3130.4775	3142.6548	3171.2114	3832.6505
OC1C2CC1(C2)C#N	O[C@H]1[C@H]2C[C@@]1(C2)C#N	
InChI=1S/C6H7NO/c7-3-6-1-4(2-6)5(6)8/h4-5,8H,1-2H2	InChI=1S/C6H7NO/c7-3-6-1-4(2-6)5(6)8/h4-5,8H,1-2H2/t4-,5-,6+/m0/s1
