18
gdb 12192	3.37263	1.45375	1.15182	3.7189	73.96	-0.2338	0.0255	0.2594	1072.4777	0.153426	-343.982838	-343.974359	-343.973414	-344.015733	30.755	
C	 0.0207306363	 1.5699448496	 0.0803660461	-0.410185
C	 0.035187603	 0.0604975474	-0.0597229053	 0.068333
C	 0.7769857065	-0.5821704489	-1.2760089085	-0.171405
C	 1.2853557178	-1.632358234	-0.2476615384	-0.180299
N	 0.9618823011	-0.6780566079	 0.8240786568	-0.080019
C	 0.4602846564	-1.1964791929	 2.0783534944	-0.328511
C	-0.0092590065	-1.0362002892	-2.4054619663	 0.268254
N	-0.64637103	-1.399298406	-3.2996441916	-0.329048
H	 1.0351554288	 1.9731433172	 0.0105874384	 0.124306
H	-0.5978444802	 2.0239782979	-0.7008300739	 0.129805
H	-0.3967286859	 1.864130033	 1.0490975253	 0.125502
H	-0.9911337198	-0.3418726529	-0.0056997932	 0.077563
H	 1.5887103387	 0.0628611427	-1.6211894088	 0.128882
H	 0.6486395939	-2.5312751439	-0.2470066579	 0.106239
H	 2.3353525708	-1.9320002778	-0.3111438468	 0.118007
H	 1.2454171651	-1.7701388772	 2.5815797563	 0.127347
H	 0.1797530602	-0.3681901003	 2.7369024222	 0.126685
H	-0.4208437763	-1.8534918268	 1.9543061013	 0.098544
83.4827	140.8833	198.0154	209.9133	215.9658	267.8886	298.393	369.0835	468.1305	517.8926	552.6543	603.137	780.7406	828.586	921.376	980.3053	1010.4017	1052.3664	1074.7005	1098.1574	1131.837	1151.7744	1181.6717	1214.3575	1229.4615	1234.2382	1292.9087	1323.0256	1355.3885	1393.3449	1411.5215	1452.5121	1484.7523	1487.387	1494.7624	1497.8275	1521.2171	2355.9264	2933.9118	2954.092	2983.6119	3035.4075	3062.8055	3075.796	3089.4309	3102.8054	3104.9958	3117.1858
CC1C(CN1C)C#N	C[C@H]1[C@@H](CN1C)C#N	
InChI=1S/C6H10N2/c1-5-6(3-7)4-8(5)2/h5-6H,4H2,1-2H3	InChI=1S/C6H10N2/c1-5-6(3-7)4-8(5)2/h5-6H,4H2,1-2H3/t5-,6+/m0/s1
