19
gdb 8678	2.45918	1.71063	1.3478	3.3447	71.92	-0.2793	0.0239	0.3032	1033.9485	0.162712	-365.073818	-365.064025	-365.06308	-365.107975	34.787	
C	 0.0415142978	 1.5629672712	-0.0791669851	-0.405777
C	-0.0393772536	 0.0366118252	 0.0020398077	-0.186559
C	-1.4828527303	-0.5138439517	 0.0748320259	 0.210398
C	-2.2431109693	-0.0147715492	 1.3182139326	-0.430796
O	-2.1015732384	-0.1186066766	-1.1401982171	-0.262037
C	-3.4277030289	-0.5670900639	-1.3645526495	-0.257888
C	-1.4025492264	-1.9993936355	 0.1320335359	 0.265695
N	-1.3475503768	-3.153210436	 0.1726212293	-0.346875
H	 1.0800431754	 1.8714111293	-0.2295566494	 0.120558
H	-0.5512261347	 1.9383547927	-0.9163321999	 0.139997
H	-0.3130672148	 2.0441483211	 0.837121991	 0.11861
H	 0.4269279047	-0.4058204995	-0.8835734183	 0.124816
H	 0.5115587773	-0.3341513602	 0.8728129264	 0.113634
H	-2.4122450789	 1.0609854876	 1.2343665743	 0.136438
H	-3.2079560133	-0.5142343053	 1.4269381081	 0.136443
H	-1.6601868291	-0.2139166422	 2.2212626107	 0.136633
H	-3.6784708995	-0.2726015064	-2.3856206635	 0.13721
H	-3.50658539	-1.6589030534	-1.2794752941	 0.134758
H	-4.1466257312	-0.1018489471	-0.6780185649	 0.114742
95.1662	105.3319	148.6773	166.9283	193.7458	205.8426	269.2136	275.8072	327.2598	365.7285	414.7093	475.3361	572.9454	602.0255	692.4872	778.9611	885.9569	901.7881	995.5155	1008.6335	1065.4483	1116.6731	1173.3814	1183.0333	1188.5872	1202.9643	1239.7373	1320.1131	1372.6247	1402.9471	1406.7947	1473.3467	1478.6535	1483.2349	1490.172	1500.6813	1507.0466	1510.087	1511.3707	2347.8125	3005.7382	3047.7935	3050.7242	3056.9834	3065.9642	3090.6942	3113.2544	3126.8123	3132.6795	3133.8588	3141.247
CCC(C)(OC)C#N	CC[C@@](C)(OC)C#N	
InChI=1S/C6H11NO/c1-4-6(2,5-7)8-3/h4H2,1-3H3	InChI=1S/C6H11NO/c1-4-6(2,5-7)8-3/h4H2,1-3H3/t6-/m1/s1
