20
gdb 68333	2.9203	1.14212	0.96934	1.7317	80.28	-0.2349	-0.0272	0.2078	1274.4905	0.169971	-403.079783	-403.070914	-403.06997	-403.114649	32.874	
C	 0.2047172639	 1.3484007829	 0.2918441609	-0.52326
C	 0.1417906609	-0.1500647189	 0.1343218076	 0.29673
C	 0.6129088524	-1.0429457697	-1.0416003056	-0.202819
N	 0.0482497461	-2.0922157596	-0.0670609965	-0.163462
C	 0.7836119417	-1.2626148893	 1.0020967637	-0.21401
C	-1.1064842349	-1.0824551231	 0.1052035221	 0.027013
C	-2.0502884366	-1.2643344029	 1.2916328148	-0.331152
C	-3.1829501462	-0.2619581053	 1.2284111702	 0.158447
O	-3.4283685289	 0.5515203334	 2.0810229361	-0.235827
H	 1.2415690162	 1.7013533562	 0.2889787428	 0.122794
H	-0.3234278829	 1.8519056233	-0.5252728607	 0.122415
H	-0.2571999113	 1.6635223088	 1.2335377291	 0.136258
H	 0.0670966677	-0.984904355	-1.9883291091	 0.098147
H	 1.6885826022	-1.1457654919	-1.2073774527	 0.100624
H	 1.8705525877	-1.3732593309	 0.9552639617	 0.100724
H	 0.4296382214	-1.4220915371	 2.021295737	 0.104043
H	-1.7012148302	-1.0221791672	-0.8157297581	 0.069885
H	-2.4858563089	-2.2715232696	 1.2177882511	 0.133891
H	-1.5655624013	-1.1676590584	 2.2641083161	 0.123932
H	-3.7981174589	-0.3195056557	 0.2995332596	 0.075627
28.0123	62.6874	157.7218	192.8882	249.16	298.9687	345.6918	368.2261	480.734	599.5422	612.8557	623.5881	753.8043	773.5437	814.232	894.4837	903.208	907.2652	928.4683	994.0068	1029.9331	1036.6276	1055.1306	1081.3581	1137.2265	1159.6928	1172.7196	1194.3677	1195.4551	1209.8435	1232.481	1263.5019	1285.0184	1337.825	1410.058	1428.188	1442.3333	1461.7331	1489.1829	1489.7902	1517.7594	1558.7606	1834.3398	2854.6562	3015.23	3019.0164	3028.9944	3045.7286	3064.1549	3097.5926	3101.314	3112.8686	3121.2253	3135.2496
CC12CN(C1)C2CC=O	C[C@@]12CN(C1)[C@H]2CC=O	
InChI=1S/C7H11NO/c1-7-4-8(5-7)6(7)2-3-9/h3,6H,2,4-5H2,1H3	InChI=1S/C7H11NO/c1-7-4-8(5-7)6(7)2-3-9/h3,6H,2,4-5H2,1H3/t6-/m0/s1
