15
gdb 24244	4.09404	1.64195	1.27929	2.4415	70.	-0.189	0.0384	0.2273	936.6102	0.116073	-416.805938	-416.799661	-416.798717	-416.83638	25.702	
C	-0.0051417529	 1.4738961565	 0.1106184656	-0.316462
C	 1.2949341578	 0.7293665709	 0.0315747069	 0.07544
O	 2.0195666193	 0.4316308564	 1.2450869176	-0.2774
C	 1.1762615537	-0.3992404088	 1.8994573494	 0.415644
C	 0.0249278633	-0.7619347589	 1.2798005072	 0.196127
N	-0.7009502779	-1.6131913226	 2.0790213246	-0.339819
C	 0.0272585434	-1.7440765745	 3.1667441381	-0.023521
N	 1.2040351767	-1.0008956958	 3.1198287279	-0.394024
C	-0.0304636678	-0.0466824716	-0.0193148414	-0.199658
H	-0.3118283572	 1.9047571182	 1.0571021708	 0.127133
H	-0.257765593	 2.0618075263	-0.7659327125	 0.118879
H	 1.9718211074	 0.8578643956	-0.8023326925	 0.111939
H	-0.2142832124	-2.3519187919	 4.0246584525	 0.127937
H	 1.9183299256	-0.9484183136	 3.8254876691	 0.273778
H	-0.395035946	-0.5114383061	-0.9281317533	 0.104009
149.218	269.1661	369.8727	443.1702	450.7847	467.1465	625.1871	655.5542	704.3828	714.1072	751.6811	771.1361	784.2286	811.3321	940.7627	947.9853	965.8103	1031.9389	1054.8406	1061.2323	1079.7432	1119.5599	1155.6492	1184.6661	1238.26	1285.9849	1353.0545	1357.6859	1408.8317	1461.6699	1476.8134	1549.5892	1636.2239	3130.8118	3174.5701	3205.5614	3224.0506	3261.0822	3676.9293
C1C2OC3=C(N=CN3)C12	C1[C@H]2Oc3c(nc[nH]3)[C@@H]12	
InChI=1S/C6H6N2O/c1-3-4(1)9-6-5(3)7-2-8-6/h2-4H,1H2,(H,7,8)	InChI=1S/C6H6N2O/c1-3-4(1)9-6-5(3)7-2-8-6/h2-4H,1H2,(H,7,8)/t3-,4+/m0/s1
