21
gdb 106376	3.3927	1.20013	1.10387	2.1341	78.28	-0.241	0.079	0.3201	1191.0064	0.183035	-424.205129	-424.196547	-424.195603	-424.238136	33.693	
C	-0.1536347384	 1.351551172	 0.0225043326	-0.261415
O	 0.1101009489	-0.0347337331	-0.0371736353	-0.298226
C	 0.7268259335	-0.5629669923	 1.0900074425	 0.457479
C	 0.0444927212	-0.6115946816	 2.5003024719	-0.300848
C	 1.0472786523	-1.7829771581	 2.6964856183	-0.035718
C	 0.8416069937	-2.1026908007	 1.1896576943	-0.281531
C	 2.3958021572	-1.0460734922	 2.6861593642	 0.144958
O	 3.4434034159	-1.9841588755	 2.5123419787	-0.442718
C	 2.159437301	-0.1020061533	 1.4594655478	-0.324486
H	 0.7677390806	 1.9499526556	 0.0600578032	 0.108712
H	-0.7009382766	 1.6110778095	-0.886604775	 0.127236
H	-0.7723321456	 1.6114206559	 0.8938842918	 0.109365
H	 0.1292856497	 0.2576157754	 3.1600195929	 0.085142
H	-0.9913200546	-0.9529032008	 2.4449673844	 0.103119
H	 0.9119105311	-2.5358076016	 3.4706740677	 0.070122
H	-0.1142510102	-2.5903916169	 0.9896003415	 0.09932
H	 1.6552281626	-2.5976556414	 0.6569839097	 0.106403
H	 2.5438318586	-0.4749181932	 3.6142045108	 0.060584
H	 4.2701965233	-1.4985880282	 2.4326912289	 0.281194
H	 2.8742039368	-0.3069608303	 0.6571773062	 0.100108
H	 2.2155875089	 0.9578624504	 1.7230544829	 0.091202
80.6324	145.8673	188.5064	224.4782	277.5371	303.0136	379.9463	439.3756	447.9882	495.4356	521.7738	608.6634	681.1336	814.6845	842.4699	848.9674	910.8774	929.8275	962.4686	984.3492	995.8328	1020.0834	1035.7584	1072.3325	1102.398	1127.9085	1151.3672	1175.6464	1182.1214	1202.9567	1211.8131	1221.4731	1235.4233	1250.7374	1268.4525	1293.6164	1333.8197	1350.6486	1422.6415	1481.5622	1482.633	1484.1471	1490.3121	1508.6425	1525.448	2987.2653	2987.8991	3036.361	3048.5982	3053.6305	3076.0974	3103.2187	3116.8576	3120.5257	3135.1975	3140.4388	3821.1127
COC12CC(C1)C(O)C2	CO[C@@]12C[C@@H](C1)[C@@H](O)C2	
InChI=1S/C7H12O2/c1-9-7-2-5(3-7)6(8)4-7/h5-6,8H,2-4H2,1H3	InChI=1S/C7H12O2/c1-9-7-2-5(3-7)6(8)4-7/h5-6,8H,2-4H2,1H3/t5-,6-,7-/m0/s1
