18
gdb 17260	3.18527	2.064	1.76557	1.7941	72.6	-0.2279	0.0893	0.3173	847.1289	0.152697	-347.720761	-347.713382	-347.712438	-347.751886	29.192	
C	 0.0266424041	 1.4784225056	 0.0679869413	-0.517245
C	-0.0216348825	-0.0100315756	-0.0654378284	 0.314013
C	 0.6577658442	-0.9528537816	-1.1010914102	-0.256503
C	 0.0535653416	-1.8126835463	 0.0337333047	-0.046091
O	 0.5947059443	-0.8410917339	 1.0141337993	-0.345808
C	-1.2247939145	-0.9740737422	-0.0378618326	 0.433446
C	-2.4855073914	-0.9795952155	 0.7411280126	-0.361191
C	-2.5090470443	-1.0661887205	-0.7859235326	-0.363412
H	 1.0628686272	 1.8247995515	 0.1230441859	 0.136165
H	-0.4512444144	 1.9531051878	-0.7950009998	 0.126555
H	-0.4945475482	 1.7989393049	 0.9753365539	 0.134632
H	 0.2144742289	-1.0255937891	-2.0974703714	 0.094589
H	 1.7481096262	-0.9094833985	-1.1110038292	 0.099718
H	 0.1830489343	-2.8730200973	 0.2502274373	 0.091816
H	-2.7467919384	-1.870065045	 1.3038051677	 0.11728
H	-2.8178357014	-0.053216632	 1.1994512784	 0.114716
H	-2.8563676276	-0.1973063819	-1.3369603571	 0.112757
H	-2.7856722381	-2.0146730403	-1.2359293698	 0.114564
168.4383	174.6179	210.0182	221.2319	333.4606	368.7455	482.7461	586.233	636.1099	681.3492	702.9898	765.5864	783.0836	866.334	908.6334	915.3912	935.7973	981.3309	992.6981	1023.0646	1046.4281	1067.4355	1078.188	1102.9536	1146.7725	1167.5698	1178.4346	1208.685	1223.1695	1230.6958	1324.6625	1403.3254	1428.1564	1461.1103	1476.4257	1483.7421	1488.8501	1527.9029	3038.5577	3060.6878	3111.644	3115.5901	3119.4804	3122.0041	3124.9823	3143.0573	3196.603	3211.1918
CC12CC(O1)C21CC1	C[C@@]12C[C@@H](O1)C12CC1	
InChI=1S/C7H10O/c1-6-4-5(8-6)7(6)2-3-7/h5H,2-4H2,1H3	InChI=1S/C7H10O/c1-6-4-5(8-6)7(6)2-3-7/h5H,2-4H2,1H3/t5-,6+/m1/s1
