17
gdb 17339	3.64334	2.19256	1.80245	1.3365	66.92	-0.2232	0.0722	0.2955	794.1865	0.143023	-363.826235	-363.81953	-363.818586	-363.856641	26.829	
C	-0.0809805767	 1.5061906049	 0.0331497932	-0.497648
C	 0.1405721795	 0.0216551494	-0.0400175443	 0.417611
O	-0.5316198551	-0.7852141223	 0.9465226159	-0.295264
C	 0.903898316	-0.7899796364	 0.9255599677	-0.027872
C	 1.5075381773	-1.972966791	 0.1884953755	-0.196061
N	 1.097852714	-1.8822168249	-1.233416156	-0.109238
C	-0.3369485185	-2.0250639592	-1.5114795393	-0.242452
C	 0.2616558809	-0.6703721961	-1.3846280628	-0.099972
H	 0.6929193238	 2.0416107908	-0.5267349115	 0.127633
H	-1.0524583518	 1.7748495577	-0.3955390129	 0.133433
H	-0.0615979278	 1.8459383249	 1.0712321916	 0.132623
H	 1.3869989223	-0.3790750069	 1.8109523571	 0.09389
H	 2.6015355144	-1.9134346935	 0.2323015144	 0.111797
H	 1.2061057182	-2.9332423713	 0.6197407908	 0.119554
H	-0.5607746714	-2.4274761231	-2.4961238296	 0.110323
H	-0.9974437482	-2.3419710755	-0.7111011151	 0.134071
H	 0.4466479631	-0.0446208175	-2.2536796044	 0.087571
185.1738	207.1708	268.8753	306.788	376.7465	450.0042	534.3804	597.1159	703.4981	712.372	781.7188	822.1541	854.4634	880.4399	936.1546	957.5671	1001.6809	1038.4294	1053.2529	1087.0777	1103.8769	1118.1624	1125.6187	1156.0048	1226.0057	1232.9554	1276.3433	1293.9618	1331.1909	1368.2531	1411.179	1452.1231	1480.2224	1486.4272	1493.626	1500.4064	3035.9037	3037.5325	3081.6706	3099.8674	3110.8622	3123.0682	3127.2837	3144.1582	3208.2631
CC12OC1CN1CC21	C[C@]12O[C@H]1CN1C[C@@H]21	
InChI=1S/C6H9NO/c1-6-4-2-7(4)3-5(6)8-6/h4-5H,2-3H2,1H3	InChI=1S/C6H9NO/c1-6-4-2-7(4)3-5(6)8-6/h4-5H,2-3H2,1H3/t4-,5-,6+,7?/m0/s1
