20
gdb 109801	2.18079	1.42828	1.03965	2.8063	76.74	-0.2274	0.0685	0.2959	1227.6268	0.168966	-440.204992	-440.195383	-440.194439	-440.239915	34.846	
C	-0.5092036404	 0.84425989	-0.0302182475	-0.23253
O	 0.6065160254	-0.0219209669	 0.0921832087	-0.245931
C	 1.022403676	-0.5845486493	-1.1081168106	 0.01423
C	 1.6031641873	-1.9623639917	-0.9446143505	 0.080738
O	 1.6502804015	-2.5208620799	 0.3249758555	-0.426496
C	 0.2711141051	-1.8003479056	-1.6619691608	-0.074027
N	-0.8985678484	-2.2441831561	-0.9640464297	-0.061221
C	-2.1398424421	-2.3303528456	-1.7281570188	-0.225634
C	-1.4099154524	-3.563777687	-1.322298803	-0.208933
H	-0.2861141199	 1.6832758029	-0.705007479	 0.106423
H	-1.3908087722	 0.3092842057	-0.4002271478	 0.127759
H	-0.7152770538	 1.238426057	 0.9676520197	 0.127781
H	 1.4586653203	 0.1193486301	-1.818582454	 0.086381
H	 2.4701065566	-2.2418495883	-1.534689064	 0.102901
H	 1.0756942719	-1.9761229674	 0.879330586	 0.29772
H	 0.2801711765	-1.9210874504	-2.7498145737	 0.069534
H	-3.0417969521	-2.0246859434	-1.2047712127	 0.116247
H	-2.1092532769	-2.0553027664	-2.781246211	 0.111092
H	-0.8893171133	-4.1138605108	-2.1037160715	 0.113312
H	-1.765689079	-4.1714048469	-0.4955034353	 0.120654
60.8586	96.6428	125.3152	146.0815	180.931	229.2023	283.0778	323.5741	336.4395	371.5186	601.3624	629.7211	660.1679	754.7046	760.2935	811.3849	877.9829	899.3602	954.385	1025.2437	1044.3797	1072.4012	1087.7493	1096.5921	1116.8326	1120.2228	1122.3425	1162.3165	1175.4973	1178.9232	1198.613	1226.3654	1254.8024	1314.5983	1335.1987	1367.489	1390.2348	1472.6886	1482.2227	1486.6416	1491.6503	1503.6147	1519.4303	2999.3179	3039.5374	3073.4526	3085.5854	3093.8478	3102.7054	3123.5522	3161.5805	3176.3115	3194.1412	3768.2588
COC1C(O)C1N1CC1	CO[C@H]1[C@@H](O)[C@H]1N1CC1	
InChI=1S/C6H11NO2/c1-9-6-4(5(6)8)7-2-3-7/h4-6,8H,2-3H2,1H3	InChI=1S/C6H11NO2/c1-9-6-4(5(6)8)7-2-3-7/h4-6,8H,2-3H2,1H3/t4-,5+,6-/m1/s1
