18
gdb 105562	1.96418	1.50629	1.33238	2.6907	79.09	-0.2307	-0.0268	0.2039	1113.2395	0.145143	-401.905295	-401.895759	-401.894815	-401.939638	34.951	
C	-0.0982293287	 1.5028152972	-0.0647237128	-0.335641
N	 0.0345600915	 0.0440431418	-0.0659204498	-0.326991
C	 0.7885160942	-0.5024089943	-1.1992122416	 0.008682
C	 0.6443724566	-2.064056416	-1.2222074618	-0.27814
C	-0.5407826397	-1.9698995518	-2.226212303	-0.337167
C	-0.1912771541	-0.4929034292	-2.428253267	 0.400859
O	-0.4901491017	 0.3427453233	-3.2254774386	-0.291642
C	 2.1239365939	 0.0438247279	-1.3942691395	 0.286239
C	 3.2251915845	 0.5034238812	-1.550783667	-0.448419
H	 0.8640946655	 2.0355674492	-0.050371663	 0.115775
H	-0.6444351141	 1.8177229368	-0.9577285069	 0.149459
H	-0.679346725	 1.7990491268	 0.8128510403	 0.118865
H	 0.487128145	-0.2590358686	 0.7919052788	 0.224434
H	 1.5248758928	-2.5459897324	-1.6483513892	 0.123873
H	 0.4186755528	-2.5021653445	-0.2496110216	 0.112625
H	-0.4922662989	-2.5841717808	-3.1281495807	 0.133537
H	-1.524040589	-2.0960224703	-1.765811148	 0.146544
H	 4.1958502043	 0.9097549038	-1.6953687585	 0.197109
76.2116	113.3315	122.2487	160.6882	174.861	253.0919	271.9682	369.9232	398.3026	481.9645	524.1449	579.9184	627.13	643.8486	649.2241	714.9645	743.9938	767.6116	908.0107	936.837	971.1724	1038.9515	1062.9206	1077.0208	1147.4013	1154.4685	1179.8643	1200.2212	1230.2047	1248.8976	1273.0114	1435.3192	1456.3994	1464.4932	1480.7072	1491.5227	1522.2686	1896.2854	2218.3388	2996.8579	3072.9825	3085.2499	3088.8235	3124.6873	3124.7201	3150.6273	3499.1413	3499.6089
CNC1(CCC1=O)C#C	CN[C@]1(CCC1=O)C#C	
InChI=1S/C7H9NO/c1-3-7(8-2)5-4-6(7)9/h1,8H,4-5H2,2H3	InChI=1S/C7H9NO/c1-3-7(8-2)5-4-6(7)9/h1,8H,4-5H2,2H3/t7-/m0/s1
