14
gdb 43519	2.53997	1.48756	1.05274	0.7594	70.89	-0.2467	-0.0112	0.2355	1097.4393	0.101686	-432.882466	-432.874466	-432.873521	-432.915325	29.961	
N	-0.1410653094	 1.3005924494	-0.1047768757	-0.563487
C	-0.0136277624	 0.0439131675	 0.0083199084	 0.437219
N	-1.069816053	-0.8367004316	 0.1794746613	-0.308608
C	-0.65480984	-2.2253153151	 0.007407773	-0.275415
C	-1.1271518135	-2.8434871371	-1.2277814682	 0.343185
C	-1.5403952458	-3.3307036339	-2.2447342999	-0.45997
C	 0.8961303844	-2.1052301613	 0.0325802685	 0.425653
O	 1.6974304092	-2.9992939024	 0.0640336789	-0.344649
N	 1.1448241431	-0.7527048288	 0.0141633299	-0.371627
H	 0.7568209682	 1.7675643285	-0.2021652108	 0.217073
H	-1.9658452606	-0.53480687	-0.1699209431	 0.267805
H	-0.9549500289	-2.8410457828	 0.8646463565	 0.147541
H	-1.8970683802	-3.7700530186	-3.1439591895	 0.212827
H	 2.0790841689	-0.3757609535	 0.0153185208	 0.272454
74.902	133.5989	135.9361	252.9911	360.7666	413.2607	453.3664	487.5714	547.3446	571.501	633.5925	641.9378	673.0354	703.7383	720.1807	732.2363	769.6588	892.2724	985.2034	1005.6782	1082.5667	1126.2602	1224.0914	1248.4681	1330.8911	1355.7692	1401.5608	1425.9242	1783.0151	1873.1003	2240.5696	3028.8563	3500.3327	3526.5897	3643.1699	3655.0543
N=C1NC(C#C)C(=O)N1	[NH][C]1N[C@@H](C#C)C(=O)N1	
InChI=1S/C5H5N3O/c1-2-3-4(9)8-5(6)7-3/h1,3H,(H3,6,7,8,9)	InChI=1S/C5H5N3O/c1-2-3-4(9)8-5(6)7-3/h1,3H,(H3,6,7,8,9)/t3-/m0/s1
