15
gdb 73909	2.30111	1.46232	0.89957	6.0342	75.03	-0.2031	-0.0543	0.1488	1202.5679	0.112609	-454.007803	-453.999406	-453.998462	-454.040831	31.191	
N	 0.0955156649	 1.372650414	 0.1422781672	-0.583827
C	 0.0084745947	 0.0142159205	 0.0361876949	 0.242837
C	-1.0940534712	-0.7909460213	 0.0183237374	 0.205937
N	-0.6882685168	-2.1497497136	-0.0099955312	-0.38633
C	 0.6701046995	-2.2999428915	-0.0243852821	 0.421861
O	 1.3027660959	-3.3298745656	-0.0615342612	-0.37383
C	 1.2351010989	-0.8596870471	 0.0141422899	-0.445026
C	-2.4918336484	-0.4602155017	 0.0162746358	 0.059111
O	-3.3840375754	-1.2919774095	-0.0038734176	-0.316159
H	 0.9466470802	 1.805539197	-0.1791467331	 0.267518
H	-0.7334517802	 1.9228965736	-0.0192467387	 0.268133
H	-1.3553170461	-2.904154244	-0.0373908507	 0.274669
H	 1.8702843968	-0.6853844766	-0.8617004519	 0.152817
H	 1.8620068625	-0.7251817187	 0.9020086144	 0.162226
H	-2.7220305254	 0.6280072745	 0.0302453767	 0.050061
104.4601	140.6571	163.75	214.3285	295.3149	353.9207	379.6347	451.8668	452.1868	495.2392	555.6301	580.5345	588.6541	608.7934	679.3285	858.4111	876.1022	951.0573	991.3477	998.9234	1147.0901	1180.4106	1221.9552	1245.9393	1318.9968	1359.4184	1419.4397	1426.8993	1495.3231	1639.9189	1690.7989	1743.6745	1842.7715	2874.1746	3052.5131	3092.9598	3585.156	3659.19	3693.0845
NC1=C(NC(=O)C1)C=O	NC1=C(NC(=O)C1)C=O	
InChI=1S/C5H6N2O2/c6-3-1-5(9)7-4(3)2-8/h2H,1,6H2,(H,7,9)	InChI=1S/C5H6N2O2/c6-3-1-5(9)7-4(3)2-8/h2H,1,6H2,(H,7,9)
