15
gdb 73779	2.44309	1.67598	1.00055	3.2893	72.37	-0.2252	-0.0649	0.1602	1110.0581	0.1127	-454.044	-454.035143	-454.034199	-454.077751	31.871	
C	 0.0579589842	 1.5451878611	 0.0194166977	-0.531469
C	-0.0102489283	 0.0521960224	 0.0131936231	 0.063288
C	-1.0798402947	-0.7787890814	 0.035792059	 0.166142
N	-2.4137856942	-0.5739339325	 0.0990410094	-0.596596
C	-0.6065439663	-2.214528554	 0.0111859431	 0.421834
O	-1.3162638617	-3.1944745959	-0.0064376269	-0.368029
N	 0.7641680347	-2.1425824099	-0.0001228868	-0.424637
C	 1.2010030203	-0.7921559114	-0.0137770967	 0.392288
O	 2.3617013386	-0.4588420104	-0.0440673287	-0.355084
H	 1.103360458	 1.8588408073	-0.0319439163	 0.159404
H	-0.4691024941	 1.9863093758	-0.835823687	 0.12393
H	-0.3798591044	 1.9735356099	 0.9293156157	 0.130407
H	-2.8076772333	 0.3305746102	-0.0928167925	 0.268905
H	-2.9983918028	-1.3838280129	-0.0431116633	 0.277501
H	 1.384822444	-2.9341432184	-0.0409073898	 0.272119
63.9439	123.7366	139.5029	224.4283	253.6446	267.1223	294.7544	385.7208	472.5477	484.1271	520.4373	572.8608	645.4472	667.6366	711.6343	759.5086	799.3499	865.812	983.4275	1053.5058	1057.1969	1206.6717	1226.3499	1321.8938	1363.9367	1390.6333	1426.4092	1491.2836	1492.6828	1618.8249	1733.0027	1817.5507	1853.5392	3017.6073	3063.6839	3123.5516	3588.4965	3667.3463	3719.8256
CC1=C(N)C(=O)NC1=O	CC1=C(N)C(=O)NC1=O	
InChI=1S/C5H6N2O2/c1-2-3(6)5(9)7-4(2)8/h1H3,(H3,6,7,8,9)	InChI=1S/C5H6N2O2/c1-2-3(6)5(9)7-4(2)8/h1H3,(H3,6,7,8,9)
