20
gdb 37964	2.62428	1.89422	1.39933	0.8995	77.55	-0.2246	0.0821	0.3067	981.4489	0.174549	-403.102094	-403.095067	-403.094122	-403.13319	29.097	
C	 0.0122430799	 1.5673908514	-0.0373649675	-0.287384
C	 1.5360407778	 1.4536469908	-0.0681860866	-0.040132
C	 2.0611955151	 0.778046397	 1.1346403557	-0.003477
C	 1.500220696	 0.9224356574	 2.5473916125	-0.244693
C	 0.5770320509	-0.2037736503	 3.0210670439	-0.072874
O	-0.700292378	-0.1596188151	 2.4139265705	-0.238598
C	-0.7576437369	-0.7273449773	 1.1224584324	-0.101976
C	 0.0012976171	 0.0181255354	 0.0367363387	 0.051549
N	 1.5123978199	-0.0685236793	 0.0426121574	-0.177329
H	-0.4099653676	 2.1021365988	 0.8182396594	 0.113533
H	-0.4260091931	 1.9624803541	-0.9547362445	 0.107894
H	 2.1794893838	 1.9574081609	-0.783161498	 0.091247
H	 3.14285488	 0.6617528338	 1.1187781714	 0.096016
H	 2.3477146979	 0.9764494731	 3.240880293	 0.100995
H	 0.9545104916	 1.8671390868	 2.6546877453	 0.114384
H	 1.0489283128	-1.1850632632	 2.8549661703	 0.096436
H	 0.3998635479	-0.0928308996	 4.0963071792	 0.103733
H	-0.3943633926	-1.7694541302	 1.1424570038	 0.096609
H	-1.8218994088	-0.7492540114	 0.8606802564	 0.106589
H	-0.3137302739	-0.4082486932	-0.9220714732	 0.087478
158.0942	198.579	279.7802	326.6355	386.7099	407.6027	498.1555	575.3153	651.399	699.0388	719.8963	759.9832	817.0977	839.0195	896.2221	928.1952	947.153	981.4694	1010.3244	1046.0184	1059.9601	1073.6451	1096.5306	1115.4905	1134.649	1150.5099	1184.1408	1240.0374	1250.8024	1267.7387	1284.8818	1302.4879	1339.1396	1350.8529	1372.7803	1377.2841	1395.5636	1423.9652	1434.7761	1473.3894	1475.0018	1495.6228	1500.6	2962.0725	2984.7989	3031.0283	3041.9894	3062.4199	3064.0583	3068.5471	3071.1811	3123.9845	3126.1621	3155.3205
C1C2C3CCOCC1N23	C1[C@H]2[C@H]3CCOC[C@@H]1N23	
InChI=1S/C7H11NO/c1-2-9-4-5-3-7-6(1)8(5)7/h5-7H,1-4H2	InChI=1S/C7H11NO/c1-2-9-4-5-3-7-6(1)8(5)7/h5-7H,1-4H2/t5-,6-,7+,8?/m1/s1
