17
gdb 45543	4.39268	1.2586	1.02157	5.952	77.19	-0.2142	0.0008	0.215	1126.4728	0.14013	-418.063948	-418.056834	-418.05589	-418.095356	28.414	
O	-0.0194492096	-0.0623959384	-0.3345993874	-0.387169
C	 0.0066673107	 1.1265462527	-0.1059696027	 0.417602
N	-1.152672116	 1.9109148651	 0.136108537	-0.369822
C	-0.8107345488	 3.3126011444	 0.0794732244	-0.023358
C	-1.1782956881	 4.2932074678	 1.2089278129	-0.245705
C	-0.0016791879	 5.3034102032	 1.1309039457	-0.173046
N	 1.1272386676	 4.5030243568	 0.6111765681	-0.386641
C	 0.6937111679	 3.2758110883	 0.2151328156	 0.447584
C	 1.1693499244	 2.0296705887	 0.035880179	-0.440465
H	-1.9979903339	 1.5805782913	-0.3058273941	 0.237832
H	-1.0838302251	 3.7604903544	-0.889626834	 0.099059
H	-2.1504200739	 4.7760377633	 1.0887713841	 0.107404
H	-1.164066591	 3.761165345	 2.1650511239	 0.123928
H	-0.2327909522	 6.130471006	 0.4476611988	 0.117553
H	 0.2461023155	 5.73787932	 2.1034766525	 0.119776
H	 2.0436281778	 4.6180216263	 1.011395757	 0.253084
H	 2.1843176927	 1.6678119952	 0.0910651892	 0.102384
132.3706	194.4748	218.1668	341.2222	384.0017	471.7512	516.3979	549.3828	569.0283	658.5074	713.2269	742.8239	767.0356	815.4283	845.591	878.3227	910.391	937.0625	1008.1601	1017.2281	1098.445	1139.0229	1164.5785	1194.8109	1207.3131	1230.8749	1284.6397	1289.5107	1311.1376	1370.6471	1388.4668	1409.3682	1423.5513	1492.5089	1522.1787	1713.0525	1821.0719	2972.7602	3022.9865	3062.6855	3084.1361	3122.2192	3252.393	3614.8411	3646.2785
O=C1NC2CCNC2=C1	O=C1N[C@H]2CCNC2=C1	
InChI=1S/C6H8N2O/c9-6-3-5-4(8-6)1-2-7-5/h3-4,7H,1-2H2,(H,8,9)	InChI=1S/C6H8N2O/c9-6-3-5-4(8-6)1-2-7-5/h3-4,7H,1-2H2,(H,8,9)/t4-/m0/s1
