21
gdb 79633	2.05907	1.89513	1.51504	1.4518	80.53	-0.2342	0.064	0.2982	1021.0038	0.184171	-387.060406	-387.052316	-387.051371	-387.092413	33.048	
C	-0.3037804819	 1.5626820079	-0.0455820956	-0.399378
C	 0.0383908605	 0.0652956377	-0.0279412244	 0.002972
C	 0.6800358892	-0.4733182082	-1.3179792554	-0.05177
C	 2.0207965118	 0.0264993836	-1.7967648659	-0.304524
C	 1.9398612372	-1.2283925117	-0.954105764	-0.040181
C	 2.1106746018	-1.1818642952	 0.5533976342	-0.087513
C	 2.3534070201	 0.0860608895	 1.3260211642	 0.080836
O	 2.8997391013	 1.2310401866	 0.7295015543	-0.408525
C	 0.934097721	-0.3937660782	 1.1386288883	-0.126362
H	 0.590086525	 2.1702238041	-0.2065103889	 0.115643
H	-1.0103352991	 1.7907791134	-0.8504585699	 0.111962
H	-0.7648350884	 1.8733865271	 0.8984189456	 0.104194
H	-0.9051581371	-0.4821387563	 0.0949458847	 0.075279
H	 0.0000732309	-0.8584887375	-2.0714735626	 0.075744
H	 2.2284090112	-0.1200089889	-2.8524580383	 0.09707
H	 2.4602324206	 0.9136377117	-1.3684497732	 0.14523
H	 2.18052594	-2.1755336371	-1.4236518195	 0.078143
H	 2.4606867714	-2.0992662481	 1.0146839362	 0.081646
H	 2.7415274235	-0.0859603384	 2.332077356	 0.083989
H	 2.5623914789	 1.9946818632	 1.2092838512	 0.288645
H	 0.4185718819	-0.7252042351	 2.0357887028	 0.076899
138.4412	172.7713	228.8748	254.1393	285.4668	325.493	354.7702	467.5835	548.0199	628.7531	672.5176	687.6421	713.5493	745.4043	788.4687	809.5627	826.3919	934.0877	953.9621	977.0982	1010.2907	1035.2375	1052.3858	1058.1687	1073.0711	1087.0782	1096.7165	1111.6066	1123.0328	1146.0278	1151.3555	1219.5551	1255.4712	1280.8307	1306.8549	1328.0356	1348.1975	1360.6714	1378.7289	1386.9708	1406.5822	1461.0482	1485.5295	1499.9294	1505.1894	3012.3832	3033.636	3070.3347	3094.067	3119.8647	3136.9564	3137.6158	3149.505	3156.8507	3173.0475	3267.7807	3807.9443
CC1C2CC2C2C(O)C12	C[C@H]1[C@H]2C[C@H]2[C@H]2[C@@H](O)[C@@H]12	
InChI=1S/C8H12O/c1-3-4-2-5(4)7-6(3)8(7)9/h3-9H,2H2,1H3	InChI=1S/C8H12O/c1-3-4-2-5(4)7-6(3)8(7)9/h3-9H,2H2,1H3/t3-,4+,5+,6-,7+,8-/m0/s1
