19
gdb 95900	2.16868	1.60345	1.29839	1.5795	76.47	-0.2452	0.0487	0.2939	1078.511	0.157322	-422.990405	-422.980919	-422.979975	-423.024333	35.383	
C	-0.3016948764	 1.6173846211	 0.0345753525	-0.449643
C	 0.0301558305	 0.1164222461	 0.0419393887	 0.037128
C	 1.0201537413	-0.2953257427	-1.0772117301	-0.075751
O	 1.6306787047	-1.5050615292	-0.6500703151	-0.266881
C	 1.4841692132	-1.645513421	 0.7600500773	-0.09399
C	 0.8483469761	-0.3505584476	 1.2806253097	 0.083927
O	 1.8146063108	 0.6546371184	 1.5493645293	-0.444715
C	-1.19686534	-0.6774997935	-0.0438507991	 0.334384
C	-2.2132452689	-1.3165673481	-0.1075015379	-0.484368
H	 0.608956732	 2.206169855	 0.1500254713	 0.14095
H	-0.7904391789	 1.8892808091	-0.905334538	 0.122609
H	-0.9842654015	 1.8653474992	 0.8516284719	 0.126029
H	 0.5213186353	-0.4726110551	-2.0338078	 0.110961
H	 1.7727608997	 0.4954616647	-1.2033729011	 0.099202
H	 0.8462247261	-2.5117264139	 0.9793162593	 0.109937
H	 2.4672753654	-1.8170316074	 1.2194580629	 0.087478
H	 0.2043663711	-0.5250852369	 2.1519031897	 0.0799
H	 2.4493975653	 0.2996927719	 2.178941106	 0.287299
H	-3.109143046	-1.8830635402	-0.1725888872	 0.195545
88.7711	118.7273	144.6963	200.225	214.28	231.8185	280.0729	325.4825	388.5385	445.5627	495.8396	534.9585	617.9612	631.1842	641.9644	750.8129	807.9081	869.8314	900.137	939.6355	947.8838	1011.1572	1022.7827	1109.2833	1111.7874	1155.2492	1159.2034	1200.8608	1212.1721	1247.0249	1287.4747	1331.1063	1361.6985	1387.3025	1398.2663	1424.1412	1490.8398	1497.147	1504.75	1516.4895	2232.5015	3000.8124	3008.2309	3026.1273	3043.071	3051.9245	3090.7766	3118.6857	3150.5055	3501.5234	3826.9957
CC1(COCC1O)C#C	C[C@]1(COC[C@H]1O)C#C	
InChI=1S/C7H10O2/c1-3-7(2)5-9-4-6(7)8/h1,6,8H,4-5H2,2H3	InChI=1S/C7H10O2/c1-3-7(2)5-9-4-6(7)8/h1,6,8H,4-5H2,2H3/t6-,7-/m1/s1
