19
gdb 43176	2.15259	1.81099	1.75013	2.4466	73.76	-0.2324	-0.0195	0.2129	949.3797	0.162261	-423.060967	-423.05371	-423.052766	-423.09247	29.071	
O	 0.0140813198	 0.0694144585	-0.054783275	-0.329441
C	-0.0171464686	 1.2680734246	 0.0233759293	 0.412581
C	-1.2191185999	 2.2047255818	 0.0665526851	-0.141824
C	-0.7113879828	 3.2447980148	 1.0704028795	-0.088927
O	 0.7247766991	 3.2914914293	 0.912326692	-0.284437
C	 1.1438753928	 2.2573197319	 0.0212636713	 0.007623
C	 1.2471317863	 2.7923670759	-1.4261044209	-0.226023
C	-0.048775239	 3.5451524161	-1.7864861133	-0.196555
C	-1.3252838116	 2.7805522704	-1.3764008187	-0.226435
H	-2.1387726548	 1.7043424692	 0.3713879835	 0.092916
H	-1.1141180767	 4.2488706472	 0.8946749198	 0.106765
H	-0.9512153081	 2.9530480035	 2.1012278501	 0.108896
H	 2.0806157755	 1.8260728064	 0.380402147	 0.097211
H	 2.1118675031	 3.4576722867	-1.5161912826	 0.109679
H	 1.4172391935	 1.9431855134	-2.1000323118	 0.11414
H	-0.0317160169	 4.5133974914	-1.2762284928	 0.119307
H	-0.075304838	 3.7605514346	-2.8593145138	 0.10144
H	-1.5095050574	 1.9473177673	-2.0648935916	 0.116887
H	-2.1955311663	 3.443289237	-1.4403553771	 0.106198
133.4135	159.3165	256.6125	280.2505	355.2966	442.8505	460.8013	498.2381	658.4353	710.1367	746.3884	793.9745	814.2385	844.2355	868.0696	902.6251	943.9618	976.7841	995.1768	1033.3527	1071.3556	1072.2545	1088.9221	1114.6477	1180.2148	1189.9668	1209.8982	1239.4461	1280.8568	1291.3147	1308.5009	1318.2008	1351.0759	1373.6339	1375.4984	1392.3599	1477.5262	1485.9797	1496.7054	1527.5736	1867.2932	3013.6769	3031.8521	3032.3887	3049.3165	3055.4819	3071.0782	3078.4267	3094.3444	3096.7391	3113.5802
O=C1C2COC1CCC2	O=C1[C@H]2CO[C@@H]1CCC2	
InChI=1S/C7H10O2/c8-7-5-2-1-3-6(7)9-4-5/h5-6H,1-4H2	InChI=1S/C7H10O2/c8-7-5-2-1-3-6(7)9-4-5/h5-6H,1-4H2/t5-,6-/m1/s1
