21
gdb 106815	2.44098	1.49359	1.08721	2.5038	78.42	-0.248	0.0792	0.3273	1199.0377	0.181265	-424.226746	-424.217423	-424.216479	-424.260785	34.855	
C	-0.4117963325	 1.4581654077	-0.2183856696	-0.379807
C	 0.1768978906	 0.0807076268	 0.119135049	-0.285885
C	 0.9540243186	-0.5118711497	-1.0277105108	 0.329682
C	 2.2891424537	 0.0799648458	-1.4514403129	-0.13819
O	 2.8679261952	-0.8521829734	-2.354386015	-0.254695
C	 2.3317665571	-2.1440719765	-2.1086108959	-0.133027
C	 0.9825927444	-1.9246152424	-1.4472762478	 0.306889
C	 0.2546953016	-3.0775431437	-0.8166981659	-0.491741
O	 0.2012585127	-0.9581988211	-2.1730003801	-0.332393
H	 0.3727398202	 2.190888309	-0.4330187931	 0.120088
H	-1.0590133185	 1.3906614968	-1.0975693771	 0.138193
H	-1.0059144534	 1.8419478304	 0.6158800377	 0.114785
H	 0.8370582917	 0.1574017781	 0.9924515434	 0.101771
H	-0.6330475159	-0.6027217581	 0.3927902617	 0.106568
H	 2.194937675	 1.0360614674	-1.9767584356	 0.11586
H	 2.9231577684	 0.231459239	-0.5611690253	 0.088175
H	 2.2586797666	-2.6662463454	-3.0690104576	 0.113885
H	 2.9802832965	-2.7339365648	-1.4388672824	 0.088096
H	 0.8815909369	-3.571834739	-0.0672161655	 0.124752
H	-0.6687112531	-2.7451127392	-0.3379711965	 0.134118
H	-0.0115236958	-3.8218056677	-1.5752564906	 0.132877
62.5073	142.5309	168.2007	200.527	201.8243	231.9126	277.8654	336.0452	354.9212	461.291	506.0246	566.1099	655.0335	700.3087	778.5927	782.5328	892.9219	920.1455	960.7857	968.8882	985.2254	1018.4886	1046.5344	1088.8685	1116.0038	1126.8121	1151.4134	1219.9926	1227.5302	1250.2842	1252.3683	1310.8248	1353.9798	1374.3065	1383.6393	1409.2291	1414.3893	1469.5011	1472.6268	1492.0873	1498.5808	1499.774	1501.73	1511.854	1515.0019	2959.969	2967.5172	3031.1558	3038.2897	3040.5416	3063.6826	3069.6631	3076.9157	3098.2026	3110.325	3119.7784	3130.1549
CCC12COCC1(C)O2	CC[C@@]12COC[C@]1(C)O2	
InChI=1S/C7H12O2/c1-3-7-5-8-4-6(7,2)9-7/h3-5H2,1-2H3	InChI=1S/C7H12O2/c1-3-7-5-8-4-6(7,2)9-7/h3-5H2,1-2H3/t6-,7+/m0/s1
