19
gdb 90524	4.45478	1.05301	0.96061	1.7855	82.11	-0.2528	0.0225	0.2753	1271.2902	0.158164	-385.822539	-385.813966	-385.813022	-385.855918	32.742	
C	 0.3885519655	 1.62469773	-0.0401637745	-0.405031
C	 0.0856979514	 0.1353215978	-0.0646262149	 0.023282
C	 0.9925763762	-0.8091455306	-0.9251273985	-0.273339
C	 1.2161224251	-1.7262724147	 0.3094698057	-0.08274
C	 2.4452010924	-1.3237300528	 1.1605910658	-0.070418
O	 1.6738969001	-0.2866629659	 1.8308061087	-0.296923
C	 0.4464663863	-0.7036834084	 1.1874363219	 0.107557
C	 2.9475821146	-2.3323742921	 2.080885286	 0.321193
C	 3.3570956331	-3.1811444616	 2.8273031335	-0.428416
H	 1.4099432932	 1.801752183	 0.3078126677	 0.130659
H	 0.2811434233	 2.0621627081	-1.0384843389	 0.111738
H	-0.2906618518	 2.1578877421	 0.6340220934	 0.115895
H	-0.9679120049	-0.0355362938	-0.3142770387	 0.073238
H	 0.4801407474	-1.2903351747	-1.7605673553	 0.103343
H	 1.9081242041	-0.3461758961	-1.3067591985	 0.100465
H	 0.9826741168	-2.7854566909	 0.2298334832	 0.089261
H	 3.277475745	-0.8895097606	 0.5909874776	 0.103824
H	-0.3337703976	-0.9368135203	 1.9168489762	 0.076865
H	 3.72502279	-3.9235312487	 3.4917981894	 0.199549
58.0525	126.2794	158.3407	211.7625	254.3403	322.9659	352.4645	444.2779	490.7286	558.4804	622.8066	667.0873	685.6198	771.7764	828.9709	870.6076	878.5535	889.2216	946.4225	951.4397	966.8217	1001.37	1046.7795	1087.5068	1101.3267	1127.0243	1164.155	1198.0917	1220.3212	1234.2182	1269.5959	1289.3622	1294.1142	1322.0957	1354.6522	1367.9785	1406.8868	1483.5167	1490.3483	1500.8568	2233.2796	3014.915	3031.5917	3037.4167	3051.9881	3073.2255	3095.1207	3110.1164	3117.3037	3141.0999	3502.5104
CC1CC2C(OC12)C#C	C[C@H]1C[C@H]2[C@@H](O[C@@H]12)C#C	
InChI=1S/C8H10O/c1-3-7-6-4-5(2)8(6)9-7/h1,5-8H,4H2,2H3	InChI=1S/C8H10O/c1-3-7-6-4-5(2)8(6)9-7/h1,5-8H,4H2,2H3/t5-,6-,7-,8-/m0/s1
