16
gdb 21946	6.75459	1.01237	0.9416	2.2791	66.32	-0.2358	0.0238	0.2596	1197.2513	0.132446	-379.93514	-379.92734	-379.926396	-379.968347	27.722	
O	-0.0705326302	 1.478276937	 0.0505813181	-0.418203
C	 0.0320748539	 0.0634430181	 0.0638041467	-0.05896
C	-1.3833481332	-0.5065589696	-0.0553805743	-0.311388
C	-1.4058904426	-2.0053515947	-0.0419383942	 0.199541
C	-1.493565047	-2.8670716435	-1.1188510749	-0.129074
N	-1.4473389327	-4.1256266461	-0.6174835653	-0.175647
N	-1.3368335084	-4.1574564619	 0.7231106234	-0.225001
C	-1.3095654634	-2.8748866885	 1.0726808568	-0.079284
H	 0.8138334957	 1.8455268484	 0.1365884609	 0.286183
H	 0.6466133299	-0.3060544267	-0.772528603	 0.086077
H	 0.4973635324	-0.299320826	 0.9939959441	 0.089881
H	-1.9812664263	-0.1051903065	 0.7706091882	 0.115433
H	-1.8302428431	-0.1236036673	-0.9789290356	 0.108922
H	-1.5899870756	-2.6792028639	-2.1770414504	 0.131061
H	-1.5007863362	-4.9934768807	-1.1226196544	 0.273648
H	-1.2286065032	-2.6083809882	 2.1172267239	 0.106812
43.5086	95.5662	120.6316	253.3729	320.7401	345.6764	374.8966	511.8969	657.4197	697.4624	748.2167	793.5173	800.907	888.9112	952.4657	1004.6989	1016.9638	1047.9344	1071.4771	1078.6378	1168.6527	1210.8664	1238.0375	1246.4655	1300.5255	1313.4888	1350.4716	1391.6638	1417.3153	1453.5638	1492.3152	1494.8258	1526.2315	1613.4856	2968.5388	2997.2018	3041.3355	3084.6202	3236.5983	3256.2556	3677.2896	3832.231
OCCC1=CNN=C1	OCCc1c[nH]nc1	
InChI=1S/C5H8N2O/c8-2-1-5-3-6-7-4-5/h3-4,8H,1-2H2,(H,6,7)	InChI=1S/C5H8N2O/c8-2-1-5-3-6-7-4-5/h3-4,8H,1-2H2,(H,6,7)
