23
gdb 72653	1.95425	1.79966	1.53062	1.2594	84.13	-0.2485	0.0778	0.3263	1071.2269	0.206349	-388.306499	-388.29759	-388.296645	-388.339316	35.969	
C	-0.2104931434	 1.5300030471	 0.1575600878	-0.469423
C	-0.0252886526	 0.0260222184	 0.0308561902	 0.331553
C	 1.1056931544	-0.4106438765	-0.956578438	-0.271096
C	 1.9195893478	-1.0218261725	 0.2173582017	-0.281469
C	 0.7551867109	-0.697050547	 1.1975932112	 0.393743
O	 1.0868780256	 0.1594912967	 2.2726334157	-0.488206
C	-0.1158753305	-1.8941776526	 1.6162557587	-0.282347
C	-1.0258562595	-2.1706635931	 0.4057886017	-0.219664
C	-1.3359037976	-0.762344449	-0.1377617436	-0.264337
H	 0.7426917183	 2.0332078182	 0.3442770119	 0.118059
H	-0.6386947908	 1.9428592743	-0.7635996537	 0.104175
H	-0.8810155769	 1.7796822796	 0.9859743296	 0.115979
H	 0.785640598	-1.1345695489	-1.7110721085	 0.093601
H	 1.5961100358	 0.4195055886	-1.4707582319	 0.09586
H	 2.1845097039	-2.0792511745	 0.1219518314	 0.087807
H	 2.8194018164	-0.4535391558	 0.4643598725	 0.099625
H	 1.6061480685	-0.3459154378	 2.907222648	 0.272984
H	 0.4716626561	-2.7662532762	 1.9253069362	 0.083477
H	-0.72156405	-1.5759679646	 2.4731595156	 0.100567
H	-0.4897308011	-2.7612385991	-0.3467678836	 0.100049
H	-1.9245407337	-2.7346632938	 0.6706839067	 0.095663
H	-2.1229106063	-0.298086377	 0.4704569337	 0.093288
H	-1.6896791833	-0.7701180345	-1.1744134132	 0.090111
86.8654	211.8848	222.7734	232.8856	245.7229	279.9982	335.2497	368.8411	407.7003	486.9739	531.8388	565.8048	598.9688	676.4541	754.7958	821.2876	842.5267	885.397	915.3615	921.9356	944.5647	968.2317	971.8129	1004.3727	1015.7118	1043.7137	1073.7247	1136.8308	1184.4993	1204.384	1217.5439	1226.9171	1233.9348	1246.3565	1267.3164	1269.1612	1290.2332	1312.2431	1343.5582	1346.7983	1376.7841	1411.9902	1469.1353	1480.7558	1486.6894	1488.5811	1492.2182	1495.5933	1509.7319	3021.4419	3027.2194	3028.8341	3035.1301	3047.3903	3056.6911	3071.0123	3073.7582	3091.72	3093.3671	3096.1302	3107.9267	3116.4797	3802.9632
CC12CCC1(O)CCC2	C[C@@]12CC[C@]1(O)CCC2	
InChI=1S/C8H14O/c1-7-3-2-4-8(7,9)6-5-7/h9H,2-6H2,1H3	InChI=1S/C8H14O/c1-7-3-2-4-8(7,9)6-5-7/h9H,2-6H2,1H3/t7-,8-/m1/s1
