21
gdb 115922	3.6256	1.17205	0.98888	1.5843	78.78	-0.2501	0.0827	0.3328	1259.3099	0.183777	-424.215399	-424.206884	-424.20594	-424.248698	32.624	
C	 0.0293219772	 1.355600245	 0.1400400778	-0.241568
O	-0.0240274831	-0.0604541219	 0.1018474684	-0.238923
C	-1.3061063185	-0.5794294915	 0.0305271969	 0.237691
C	-1.206558008	-2.0869235663	-0.1907657887	-0.259166
C	-2.5097413504	-2.8052011304	 0.1561686238	-0.033703
C	-2.8518273341	-3.0794840939	 1.6029203671	-0.279995
C	-3.6215618881	-2.0354596426	 0.8416904828	-0.030564
C	-3.3744641519	-0.570356859	 1.1432936056	-0.104113
O	-1.9896423394	-0.285008024	 1.244170075	-0.263845
H	 1.0858349582	 1.6315716344	 0.144682136	 0.126133
H	-0.4511261783	 1.7953581637	-0.7471771262	 0.102664
H	-0.4565411829	 1.7517873066	 1.0377935988	 0.129586
H	-1.8734998825	-0.1013560046	-0.7953003544	 0.044333
H	-0.9383399162	-2.2677005599	-1.2361638259	 0.103518
H	-0.3769591038	-2.4560259585	 0.4214795386	 0.117625
H	-2.8183548416	-3.563510723	-0.5558048365	 0.083552
H	-3.3481018237	-4.0112741583	 1.8506809493	 0.105861
H	-2.1446531608	-2.7267152602	 2.3469646975	 0.123102
H	-4.6432910683	-2.2700695511	 0.5574900051	 0.082291
H	-3.831813353	 0.0547236801	 0.3564263743	 0.086923
H	-3.8165055405	-0.2780320048	 2.1017553446	 0.108599
76.9006	113.2169	163.3887	202.6537	275.3778	346.0676	349.3641	404.5723	497.8122	512.1999	553.5095	709.8216	771.4967	801.1739	830.4058	856.5306	938.1137	971.3015	1013.0503	1044.5921	1050.3771	1073.1869	1101.7954	1104.3782	1127.6432	1134.4245	1150.0961	1174.3685	1180.696	1217.2076	1225.2975	1260.4271	1294.8629	1322.3145	1364.8306	1383.9498	1403.532	1415.3162	1424.6667	1476.0261	1482.5193	1484.4905	1490.9497	1499.5802	1512.2411	2879.5654	2953.2203	2992.4202	3047.5438	3064.2644	3075.105	3090.4066	3128.1279	3128.8732	3146.7447	3157.9169	3217.7116
COC1CC2CC2CO1	CO[C@H]1C[C@H]2C[C@H]2CO1	
InChI=1S/C7H12O2/c1-8-7-3-5-2-6(5)4-9-7/h5-7H,2-4H2,1H3	InChI=1S/C7H12O2/c1-8-7-3-5-2-6(5)4-9-7/h5-7H,2-4H2,1H3/t5-,6+,7-/m1/s1
