20
gdb 93775	2.41904	1.48637	1.11882	1.4178	76.64	-0.2405	0.0213	0.2617	1172.1576	0.170256	-440.311136	-440.301606	-440.300662	-440.346067	34.976	
C	-0.0826282038	 1.5423740133	 0.0265669648	-0.380944
C	 0.0539617873	 0.0199862202	 0.0276453486	 0.022971
N	 0.7001785508	-0.4092627148	-1.219436771	-0.313486
C	 1.475735776	-1.412466645	-1.2161776002	 0.366655
C	 2.1916741057	-1.8750560436	-2.4512479382	-0.450963
O	 1.8017569047	-2.2093095278	-0.1531101461	-0.267422
C	 1.0561686537	-1.9980919116	 1.0556719494	-0.097243
C	 0.7934927059	-0.5121281541	 1.2686813689	 0.0913
O	 2.00383	 0.1817953261	 1.5368781217	-0.437935
H	 0.9012437658	 2.0154997362	 0.0654088593	 0.122161
H	-0.5910963695	 1.8674312137	-0.8841379969	 0.120926
H	-0.6569475251	 1.8815592135	 0.8948482821	 0.105795
H	-0.9578969641	-0.4113848977	 0.0374584163	 0.083681
H	 3.2710921595	-1.9142906765	-2.2734357591	 0.136598
H	 1.8730324929	-2.8886766348	-2.715295144	 0.139182
H	 1.9758607895	-1.1955669895	-3.2744683868	 0.145531
H	 0.1147659559	-2.5596004719	 0.9999863353	 0.108039
H	 1.6704616655	-2.4082997558	 1.859889807	 0.122637
H	 0.1757882686	-0.3782928701	 2.1629808562	 0.091215
H	 2.5851271907	 0.0667002301	 0.776814303	 0.291302
26.6012	126.5026	154.6525	189.3706	235.0987	248.3581	263.6935	313.844	366.6884	420.3082	450.2398	574.0688	593.4202	652.9403	745.699	837.3288	861.7979	878.7673	934.974	980.9031	1023.7209	1037.5196	1061.957	1091.1066	1109.291	1149.073	1186.5249	1242.7538	1244.1215	1283.3005	1311.0604	1349.783	1355.4053	1399.5197	1403.9588	1409.9309	1425.5304	1475.1959	1477.5489	1487.1889	1494.7434	1497.507	1742.1178	2991.4887	3026.812	3045.4309	3047.8186	3063.0429	3104.3881	3111.9208	3118.0429	3135.0777	3168.3955	3807.2937
CC1N=C(C)OCC1O	C[C@H]1N=C(C)OC[C@H]1O	
InChI=1S/C6H11NO2/c1-4-6(8)3-9-5(2)7-4/h4,6,8H,3H2,1-2H3	InChI=1S/C6H11NO2/c1-4-6(8)3-9-5(2)7-4/h4,6,8H,3H2,1-2H3/t4-,6-/m1/s1
