16
gdb 32128	4.0029	1.19481	0.92571	2.2964	77.18	-0.2274	-0.0068	0.2207	1223.6641	0.127406	-430.332122	-430.323579	-430.322634	-430.366249	30.534	
C	 0.0262868821	 1.4441937055	 0.0674376801	-0.332276
N	-0.0926649035	 0.0034799856	 0.1181554872	-0.351012
C	-1.2488829853	-0.6926397084	 0.0391481293	 0.47131
N	-2.4041392812	-0.0123865125	-0.1114258368	-0.335934
C	-3.475770835	-0.794509426	-0.1832633077	 0.071939
N	-3.518322569	-2.1192282153	-0.1193575785	-0.331713
C	-2.2991569548	-2.6822631345	 0.0370035072	 0.440993
N	-2.2663566466	-4.033301336	 0.1431377486	-0.555433
N	-1.1380930264	-2.0296836985	 0.115997256	-0.393304
H	 0.6754111654	 1.7577837835	-0.7584354462	 0.124088
H	-0.9685577578	 1.8605125782	-0.085995622	 0.175755
H	 0.437818502	 1.8437085253	 1.0021545438	 0.124338
H	 0.731363695	-0.562876709	 0.2386279558	 0.25043
H	-4.4315632083	-0.2875691426	-0.3106046924	 0.113222
H	-3.1034428471	-4.5406693844	-0.0844823852	 0.265648
H	-1.3754087794	-4.4947822609	 0.0876950407	 0.261951
31.1961	102.089	179.0448	204.94	225.9938	271.8907	379.0171	464.0427	501.2497	541.0859	554.3622	593.9981	653.2517	763.9667	833.2283	846.3777	972.7525	991.751	1026.3146	1064.5562	1113.5811	1157.2459	1189.6926	1287.7045	1347.086	1380.8124	1407.6722	1449.4738	1487.3916	1499.5453	1508.222	1583.2932	1601.8761	1640.4712	1650.4757	3020.7117	3067.8919	3142.1916	3164.2197	3620.6478	3647.2704	3756.3475
CNC1=NC=NC(N)=N1	CNc1ncnc(N)n1	
InChI=1S/C4H7N5/c1-6-4-8-2-7-3(5)9-4/h2H,1H3,(H3,5,6,7,8,9)	InChI=1S/C4H7N5/c1-6-4-8-2-7-3(5)9-4/h2H,1H3,(H3,5,6,7,8,9)
