21
gdb 67824	2.96989	1.73299	1.42627	0.2449	85.98	-0.218	0.0204	0.2384	1010.3958	0.185345	-349.968476	-349.961142	-349.960197	-349.9996	30.945	
C	-0.0255970147	 1.5282750021	 0.0341680802	-0.495208
C	-0.0084804115	 0.0190411638	-0.041541947	 0.327499
C	 0.8989863567	-0.6598444368	-1.0201309029	-0.146545
C	 0.3839241864	-1.8123250823	-1.4516489911	-0.083321
C	-0.9126417052	-2.1409087768	-0.7256634835	-0.102107
C	-0.5860186716	-3.0931072579	 0.458289802	-0.188679
C	 0.1765065429	-2.1868598065	 1.4593691928	-0.236393
C	-0.3921701347	-0.7862413203	 1.2149891433	-0.078805
C	-1.2693814721	-0.8149035121	-0.0129645085	-0.111868
H	 0.9340740744	 1.9216161406	 0.3900579783	 0.115352
H	-0.223295076	 1.9722585128	-0.9483425116	 0.117557
H	-0.8010919518	 1.8811758202	 0.7214724979	 0.113832
H	 1.858889385	-0.2451235655	-1.3093387433	 0.086603
H	 0.872581904	-2.5140936359	-2.1189890562	 0.089544
H	-1.6972146638	-2.536079924	-1.3769496081	 0.064849
H	-1.5228899053	-3.4434665307	 0.9073634808	 0.093444
H	-0.0121375724	-3.9753038839	 0.1551395974	 0.089332
H	 0.0161368822	-2.4992996096	 2.4950545679	 0.092856
H	 1.2547987567	-2.2270221598	 1.2744991929	 0.101865
H	-0.6865147642	-0.1931165509	 2.0750552622	 0.075116
H	-2.2634771851	-0.3848565865	-0.0542034934	 0.075079
192.2373	208.4818	242.3142	272.2561	331.525	385.4332	533.1764	555.4755	652.3481	686.0851	711.2047	771.5086	797.9728	834.245	847.3165	882.6171	902.2565	919.5228	926.3431	934.6305	970.5141	983.6843	1019.9136	1036.1902	1056.8385	1090.5997	1106.7281	1117.0036	1168.1488	1186.1896	1212.3392	1257.5584	1264.5537	1288.4949	1302.6828	1323.6961	1342.5878	1370.4344	1408.9014	1415.4453	1480.9506	1489.1009	1494.8178	1499.8822	1665.5412	3021.064	3030.766	3048.6189	3068.2338	3075.9409	3079.9079	3092.0626	3096.6915	3153.1968	3173.0784	3175.7553	3201.7796
CC12C=CC3CCC1C23	C[C@@]12C=C[C@H]3CC[C@@H]1[C@@H]23	
InChI=1S/C9H12/c1-9-5-4-6-2-3-7(9)8(6)9/h4-8H,2-3H2,1H3	InChI=1S/C9H12/c1-9-5-4-6-2-3-7(9)8(6)9/h4-8H,2-3H2,1H3/t6-,7-,8+,9-/m1/s1
