18
gdb 102924	2.37801	0.99551	0.83336	3.5564	74.21	-0.2517	-0.0315	0.2203	1417.1953	0.144752	-439.03219	-439.022056	-439.021112	-439.06844	35.66	
O	 0.0909242596	 1.2581786844	-0.4101928454	-0.423303
C	-0.076409865	-0.0079720588	 0.192572782	-0.081273
C	-1.5604781485	-0.3209106254	 0.4602430299	-0.084152
N	-2.0842710752	 0.728477548	 1.3385177281	-0.30703
C	-3.4690390385	 0.5265173505	 1.7897650273	-0.324492
C	-3.6760231841	-0.6615562372	 2.6247216714	 0.311787
C	-3.7972372392	-1.6374496344	 3.3165112174	-0.45562
C	-2.300659222	-0.3018636074	-0.875578758	 0.18523
O	-2.4182578833	-1.2678117777	-1.5815526578	-0.249716
H	-0.4791925735	 1.8661612201	 0.0777665617	 0.288564
H	 0.336132225	-0.7549599116	-0.4912258124	 0.132826
H	 0.4762592281	-0.0844369762	 1.1456347747	 0.089497
H	-1.6446876606	-1.3366628252	 0.875279042	 0.099254
H	-1.4898352158	 0.7876516814	 2.1611888247	 0.231426
H	-3.7793219635	 1.4216885024	 2.3407328343	 0.142716
H	-4.1186355981	 0.4732457313	 0.9078916095	 0.149426
H	-3.9214679377	-2.5003048814	 3.9235110461	 0.206531
H	-2.6998791078	 0.6943977472	-1.1678378955	 0.088331
42.7403	70.9595	83.6235	121.4074	190.2089	217.1209	286.9338	300.2742	334.9066	403.5769	465.1615	539.4608	564.3449	633.1947	634.3716	672.674	789.1851	862.6918	921.7016	939.0872	972.5532	1028.1555	1039.2393	1098.036	1129.563	1141.6022	1221.5503	1257.585	1299.3887	1338.3093	1360.5671	1377.78	1413.4733	1431.1266	1469.3005	1492.4201	1515.5678	1839.5434	2230.4587	2890.3096	2949.0167	3000.3447	3036.182	3069.3368	3094.314	3498.5406	3502.5437	3768.3711
OCC(NCC#C)C=O	OC[C@@H](NCC#C)C=O	
InChI=1S/C6H9NO2/c1-2-3-7-6(4-8)5-9/h1,4,6-7,9H,3,5H2	InChI=1S/C6H9NO2/c1-2-3-7-6(4-8)5-9/h1,4,6-7,9H,3,5H2/t6-/m0/s1
