14
gdb 10572	2.59785	1.95853	1.31536	3.2046	69.72	-0.269	-0.0095	0.2595	936.3432	0.105423	-341.534879	-341.526726	-341.525782	-341.567232	29.547	
C	-0.0911291639	 1.5173936366	-0.0691512296	-0.405053
C	-0.0075251752	 0.0172521508	 0.0288913222	-0.022609
N	 1.2937577691	-0.6002102659	-0.1852372967	-0.340183
C	 0.7063219421	-0.6640177304	 1.1838301982	-0.021678
C	 1.3686958139	 0.0876616728	 2.2178737617	 0.30671
C	 1.8964657544	 0.7147887038	 3.0953822651	-0.41156
C	 0.1527863333	-1.9344353656	 1.6056941383	 0.231343
N	-0.2863755882	-2.9584823734	 1.9156209676	-0.335807
H	 0.8027620753	 1.9837380848	 0.3485801256	 0.147702
H	-0.1796527553	 1.8154836864	-1.1187367039	 0.133806
H	-0.9688072184	 1.8893841968	 0.4679526854	 0.133618
H	-0.8814393335	-0.526315484	-0.3263522495	 0.117089
H	 1.2081819697	-1.5111260634	-0.6311548095	 0.257188
H	 2.3736581669	 1.2644823907	 3.8691671653	 0.209434
129.6257	138.7797	159.9306	179.6107	225.4304	324.5199	402.626	484.9753	527.6559	588.5124	606.7467	622.1081	631.1988	675.8715	775.8884	875.1686	964.031	1026.1191	1045.0251	1093.2563	1126.4919	1230.434	1248.9181	1331.129	1405.8123	1442.8966	1485.4238	1492.1303	2248.7976	2352.0712	3046.3427	3112.1286	3124.932	3147.3474	3500.3783	3502.9413
CC1NC1(C#C)C#N	C[C@H]1N[C@]1(C#C)C#N	
InChI=1S/C6H6N2/c1-3-6(4-7)5(2)8-6/h1,5,8H,2H3	InChI=1S/C6H6N2/c1-3-6(4-7)5(2)8-6/h1,5,8H,2H3/t5-,6-/m1/s1
