16
gdb 43768	4.98496	1.03446	0.97684	3.6709	70.36	-0.2404	-0.0214	0.219	1191.8052	0.123753	-437.826653	-437.818977	-437.818033	-437.859249	28.937	
O	 0.4401516201	 0.0515280449	-0.0955654487	-0.303722
C	 0.1633042843	 1.2072877413	 0.0268849032	 0.460553
C	-1.1821109982	 1.9956871768	-0.0274372191	-0.415045
C	-0.3255888043	 3.2729043466	-0.0765900888	 0.352484
N	 0.4179071684	 3.3043041236	 1.1799684122	-0.372139
C	 0.9633539493	 2.488923946	 0.0329476084	-0.241323
C	-0.5803012888	 4.4986372297	-0.8712448923	-0.074779
C	-1.0054243032	 5.7557714858	-0.2355339673	-0.177659
O	 0.3484294057	 5.5653078426	-0.6654216778	-0.235188
H	-1.7111261145	 1.7677607048	-0.9577610037	 0.132244
H	-1.85745761	 1.906026196	 0.8254967462	 0.133898
H	 0.9693899952	 4.1665109713	 1.1607553266	 0.250314
H	 1.9535700237	 2.6916872408	-0.3548993869	 0.123798
H	-0.8574103058	 4.33159912	-1.9125901269	 0.107412
H	-1.5751707092	 6.4826452524	-0.8107828396	 0.128776
H	-1.1500349225	 5.7848498074	 0.8424827643	 0.130377
79.9131	104.5297	188.2427	234.9119	359.2303	408.2487	442.4854	513.5277	562.6423	652.652	668.9282	770.8179	843.5264	854.5021	887.9501	948.0586	966.0488	974.0256	1023.7594	1043.7227	1079.1029	1100.2409	1116.4861	1139.0482	1159.6369	1170.7417	1200.7907	1262.0619	1293.062	1323.2493	1382.0562	1437.7244	1472.8847	1524.3017	1898.7954	3065.9444	3096.0112	3108.4044	3130.9259	3189.8614	3206.4752	3435.7346
O=C1CC2(NC12)C1CO1	O=C1C[C@]2(N[C@@H]12)[C@H]1CO1	
InChI=1S/C6H7NO2/c8-3-1-6(4-2-9-4)5(3)7-6/h4-5,7H,1-2H2	InChI=1S/C6H7NO2/c8-3-1-6(4-2-9-4)5(3)7-6/h4-5,7H,1-2H2/t4-,5+,6+/m1/s1
