23
gdb 80566	2.32456	1.44309	1.17331	1.3588	85.75	-0.2306	0.0855	0.3161	1215.6652	0.205226	-388.295354	-388.285901	-388.284957	-388.328956	36.638	
C	-0.0375605552	 1.5914391972	 0.0258293301	-0.420806
C	 0.0433239916	 0.0828053217	 0.0712928522	-0.081834
C	 1.3351994324	-0.6624049208	-0.1833245248	 0.032353
O	 2.5158185835	 0.0950345888	-0.1285529346	-0.275405
C	 2.978826553	 0.1040184488	 1.2336737694	 0.170799
C	 3.862891874	 1.3185761581	 1.4498445825	-0.408927
C	 1.6967037459	 0.0311205489	 2.092311072	-0.327491
C	 0.7094705964	-0.7170643779	 1.1876638098	 0.304528
C	 0.0258143207	-1.9495770706	 1.7322537663	-0.485778
H	 0.9414037527	 2.0481060004	 0.184562101	 0.130471
H	-0.3936853883	 1.9219844775	-0.9556577704	 0.116699
H	-0.7301980656	 1.983187899	 0.7791159776	 0.111285
H	-0.8350192318	-0.418361036	-0.3324993803	 0.076304
H	 1.374701231	-1.515276122	-0.8565411109	 0.084521
H	 3.5695617494	-0.8118522072	 1.4029971457	 0.066408
H	 3.295120471	 2.2436268652	 1.3085873442	 0.122224
H	 4.2708252629	 1.3148312485	 2.465675681	 0.114667
H	 4.6986589657	 1.3169768399	 0.7446191169	 0.1264
H	 1.8695361247	-0.5147349595	 3.0245758547	 0.098332
H	 1.3472780166	 1.0344986485	 2.3600949938	 0.100092
H	-0.6867413143	-1.6936385939	 2.5256118407	 0.117353
H	-0.5310506368	-2.4742574124	 0.9491098808	 0.114601
H	 0.7519100106	-2.6551727321	 2.1538106422	 0.113205
92.2354	171.4916	202.5914	204.3955	218.635	240.7446	260.1876	281.5295	365.7044	455.0172	467.2882	553.0657	564.4723	649.6154	754.5991	791.9102	829.5566	875.2262	904.0688	931.3212	964.1438	976.5801	1019.622	1049.929	1067.5158	1091.925	1120.9052	1141.0247	1150.7952	1156.6027	1161.9405	1211.9794	1263.9932	1287.4565	1305.9575	1340.2296	1368.3026	1388.248	1409.69	1414.9376	1418.1987	1447.5706	1484.3581	1488.5161	1491.6689	1495.5822	1498.3025	1502.9639	1508.8241	2956.7781	3017.429	3033.9521	3038.1346	3042.2145	3075.8091	3086.857	3088.9504	3093.8921	3111.0841	3113.1848	3117.8661	3130.3368	3135.9242
CC1C2OC(C)CC12C	C[C@H]1[C@H]2O[C@@H](C)C[C@@]12C	
InChI=1S/C8H14O/c1-5-4-8(3)6(2)7(8)9-5/h5-7H,4H2,1-3H3	InChI=1S/C8H14O/c1-5-4-8(3)6(2)7(8)9-5/h5-7H,4H2,1-3H3/t5-,6-,7+,8-/m0/s1
