17
gdb 14401	3.37682	2.576	2.049	1.1974	66.82	-0.2272	0.0756	0.3028	736.475	0.144249	-363.807191	-363.801027	-363.800083	-363.837027	25.573	
C	 0.0257890599	 1.5260856029	-0.0710490283	-0.523971
C	-0.0356265709	 0.0270773516	-0.0643023747	 0.31828
N	 0.4657973293	-0.77340795	-1.2181958908	-0.362663
C	-0.2827196976	-1.9087903213	-0.5642354012	-0.075153
C	 0.6523904275	-2.1677479579	 0.6297245086	-0.187971
C	 0.3435472749	-0.7947924978	 1.2503672752	 0.035936
O	-1.0750385707	-0.9367020489	 1.5709391754	-0.297405
C	-1.2696957432	-0.8685879033	 0.1557681777	 0.046577
H	 1.0644425132	 1.8721557774	-0.1018754667	 0.131505
H	-0.4948778806	 1.9433626211	-0.9400656203	 0.116337
H	-0.4451544127	 1.9274209016	 0.8315724917	 0.136975
H	-0.0627566889	-0.4675175061	-2.0369361035	 0.210475
H	-0.609987905	-2.7351711425	-1.1919664809	 0.072447
H	 0.3411754783	-2.9718214542	 1.2987911187	 0.105584
H	 1.6825902414	-2.3039750571	 0.29784898	 0.110703
H	 0.9427439579	-0.3948070756	 2.0669547678	 0.081114
H	-2.2936754328	-0.7111213798	-0.1849720685	 0.08123
216.1635	240.2508	269.5383	439.2534	510.4497	516.468	620.0447	696.7297	747.3241	784.6108	844.8975	855.9937	884.4221	922.0457	927.1228	932.1481	960.3238	1001.6565	1019.1717	1028.8853	1094.7976	1114.4598	1141.3469	1170.0412	1188.612	1220.7034	1240.8445	1259.1837	1284.8895	1301.4553	1346.8653	1380.0847	1412.8356	1467.1285	1487.0977	1492.3792	3030.5252	3082.1781	3094.7845	3110.0923	3114.8817	3135.4555	3142.7136	3146.4141	3440.6352
CC12NC3CC1OC23	C[C@@]12N[C@H]3C[C@@H]1O[C@@H]23	
InChI=1S/C6H9NO/c1-6-4-2-3(7-6)5(6)8-4/h3-5,7H,2H2,1H3	InChI=1S/C6H9NO/c1-6-4-2-3(7-6)5(6)8-4/h3-5,7H,2H2,1H3/t3-,4-,5+,6+/m0/s1
