13
gdb 5150	6.31314	1.33345	1.10839	4.3145	62.85	-0.238	0.0169	0.255	980.9294	0.098	-357.698849	-357.692033	-357.691089	-357.730745	24.398	
N	-0.6977211711	-0.2726727982	-1.3561887297	-0.318111
C	-0.2937346597	 0.3555513906	-0.4748499906	 0.272776
C	 0.2350429789	 1.1567061291	 0.6273528826	-0.449436
C	 1.5120229439	 1.8666018362	 0.2708680746	 0.281406
C	 2.2116096509	 1.8561902762	-0.9067913771	-0.159582
N	 3.2973128518	 2.6736036973	-0.6837953487	-0.241194
C	 3.2052847415	 3.1314775872	 0.5952706163	 0.016403
N	 2.1386019551	 2.6637779501	 1.201080999	-0.308289
H	-0.5281181847	 1.8826741689	 0.9333605149	 0.169246
H	 0.3953588897	 0.5029014704	 1.493330945	 0.169251
H	 2.0415716822	 1.3608826122	-1.8475533241	 0.157075
H	 4.0225586629	 2.8886689672	-1.3472705052	 0.272902
H	 3.9383289186	 3.7969059427	 1.025876393	 0.137553
43.0119	121.1676	249.7235	334.4864	382.2426	489.7962	533.9551	652.5545	686.6808	732.7416	752.7776	826.8559	944.4724	955.6708	959.1399	989.5455	1097.8985	1137.272	1213.089	1230.5158	1251.8633	1345.4551	1363.7428	1454.5178	1461.5369	1527.8871	1602.0858	2367.0736	3036.1453	3064.7448	3255.3078	3284.8285	3668.2589
N#CCC1=CNC=N1	N#CCc1c[nH]cn1	
InChI=1S/C5H5N3/c6-2-1-5-3-7-4-8-5/h3-4H,1H2,(H,7,8)	InChI=1S/C5H5N3/c6-2-1-5-3-7-4-8-5/h3-4H,1H2,(H,7,8)
