12
gdb 132256	3.62445	1.2565	0.93304	3.6946	72.72	-0.2738	-0.0753	0.1985	1123.2978	0.077886	-439.658733	-439.651817	-439.650873	-439.690357	25.857	
F	 0.0003970821	 0.0764928001	 0.0031503151	-0.049903
C	-0.0100303434	 1.394145815	 0.0105888954	 0.339847
N	-1.2062688718	 1.9475612041	 0.0298998106	-0.353656
C	-1.2172976598	 3.292480623	 0.0374459241	 0.176027
C	-0.0282654652	 4.0304971074	 0.0253199148	-0.182444
C	 1.1541250432	 3.3045772643	 0.0052326612	 0.019585
N	 1.1816145293	 1.9692900173	-0.0024818864	-0.299758
C	-2.4858928156	 3.9469914578	 0.0583020399	 0.223751
C	-3.5385024452	 4.5286871081	 0.0758162142	-0.343713
H	-0.0386402895	 5.1118263399	 0.0314046184	 0.125882
H	 2.118512446	 3.8057445035	-0.0051403213	 0.134583
H	-4.4764283701	 5.0280909795	 0.091310974	 0.209798
134.3134	146.3554	200.0566	362.9001	436.8152	479.7061	484.4915	587.6497	594.0108	659.3945	661.8403	721.4556	752.7777	818.0988	873.8362	994.5817	1010.0722	1011.8482	1119.9574	1259.4289	1264.9481	1354.3117	1448.2408	1473.8009	1584.9706	1616.1741	2236.577	3170.1729	3231.3895	3497.7449
FC1=NC(=CC=N1)C#C	Fc1nc(ccn1)C#C	
InChI=1S/C6H3FN2/c1-2-5-3-4-8-6(7)9-5/h1,3-4H	InChI=1S/C6H3FN2/c1-2-5-3-4-8-6(7)9-5/h1,3-4H
