17
gdb 109289	2.66971	1.30065	0.91203	4.1455	71.99	-0.214	0.006	0.22	1239.0624	0.138055	-455.195857	-455.187287	-455.186343	-455.229709	31.507	
O	 0.0575629303	 1.3228524367	 0.4747874165	-0.410866
C	 0.0136878271	 0.0122867106	-0.0762634843	-0.162268
C	-1.3793486399	-0.5614062108	-0.0832865234	 0.328265
C	-1.9160686242	-1.2348831272	-1.1040486851	-0.19804
C	-3.2811874422	-1.8512431025	-0.9894722176	-0.200078
N	-3.9907650949	-1.2901769216	 0.155419216	-0.353738
C	-3.4421057972	-0.6387684828	 1.2287107403	 0.440097
O	-4.0818299866	-0.2987806128	 2.2055238561	-0.405336
N	-2.0821000413	-0.3730492801	 1.1052377424	-0.407454
H	-0.4608947533	 1.9005087895	-0.0963136644	 0.29156
H	 0.4317799425	-0.0284790063	-1.090335079	 0.108271
H	 0.6590457477	-0.5881520848	 0.5758809046	 0.132384
H	-1.3541909621	-1.389821318	-2.0161563402	 0.092998
H	-3.8660644831	-1.6570578235	-1.8994696326	 0.115886
H	-3.2040869659	-2.9500775153	-0.9061310343	 0.112345
H	-4.9571216935	-1.5373475678	 0.2947579704	 0.25375
H	-1.7168564433	 0.2933095766	 1.7687796145	 0.262224
73.3042	86.7861	122.786	184.4857	266.6474	358.8205	400.0559	488.8218	499.9209	511.1915	555.8165	591.5121	650.6499	749.274	756.7143	773.729	920.5543	945.5543	1003.1117	1021.8956	1054.677	1072.4294	1137.1155	1190.1864	1205.3772	1241.5609	1308.1063	1328.7114	1373.4705	1412.7839	1426.6988	1478.532	1490.5599	1491.5914	1534.3385	1755.5156	1816.3543	2932.1293	3003.705	3019.8835	3065.9602	3211.8902	3632.768	3649.0512	3804.0356
OCC1=CCNC(=O)N1	OCC1=CCNC(=O)N1	
InChI=1S/C5H8N2O2/c8-3-4-1-2-6-5(9)7-4/h1,8H,2-3H2,(H2,6,7,9)	InChI=1S/C5H8N2O2/c8-3-4-1-2-6-5(9)7-4/h1,8H,2-3H2,(H2,6,7,9)
