16
gdb 35560	3.7587	1.22604	1.0251	2.9088	75.96	-0.2489	-0.0182	0.2307	1133.5532	0.125528	-400.728713	-400.721313	-400.720369	-400.76091	27.974	
N	 0.2285335968	-1.1089498796	-0.1858517373	-0.324387
C	 0.0928995567	 0.0367319362	-0.1137838732	 0.291099
C	-0.0673675203	 1.4767297088	-0.012085641	-0.250774
C	-0.2270819679	 2.1323184225	 1.4279619699	-0.271803
C	 0.6946487826	 3.3078139627	 0.9270394497	 0.094182
O	 1.8419559918	 3.7462366477	 1.6170276129	-0.277874
C	 2.9974838234	 3.332693032	 0.8559744626	-0.108156
C	 2.4909111001	 2.2763145912	-0.1155853741	-0.226958
C	 1.1678788937	 2.3539797079	-0.1188214278	 0.216701
H	-0.8821917694	 1.8011003797	-0.6670672784	 0.138111
H	-1.247097083	 2.3738191929	 1.7316155234	 0.121494
H	 0.2757395569	 1.5311328036	 2.1856845044	 0.142799
H	 0.0904370507	 4.1628807389	 0.5930530461	 0.089634
H	 3.4524746954	 4.2070004367	 0.365757188	 0.114569
H	 3.7419978567	 2.9134407404	 1.5443325929	 0.123598
H	 3.126938316	 1.5258321383	-0.565825878	 0.127765
96.0213	123.3486	183.8522	285.2095	338.3739	378.8134	501.2268	537.0184	666.9146	681.7551	736.579	808.7047	824.8495	859.6732	919.1139	943.7527	974.3677	1003.1254	1018.3381	1031.7882	1085.8864	1116.6295	1128.9905	1185.0365	1199.1311	1220.1713	1239.72	1290.28	1343.4899	1344.8199	1391.2194	1468.9824	1515.1685	1730.2176	2359.4552	2987.3753	3005.4916	3042.1197	3062.8159	3082.5114	3161.2614	3226.8456
N#CC1CC2OCC=C12	N#C[C@H]1C[C@H]2OC[CH][C]12	
InChI=1S/C7H7NO/c8-4-5-3-7-6(5)1-2-9-7/h1,5,7H,2-3H2	InChI=1S/C7H7NO/c8-4-5-3-7-6(5)1-2-9-7/h1,5,7H,2-3H2/t5-,7-/m1/s1
