17
gdb 96645	2.32343	1.32715	0.86433	2.8653	76.08	-0.2341	-0.03	0.2041	1304.0301	0.135771	-451.359413	-451.350035	-451.34909	-451.393839	33.606	
C	-0.1891236585	 1.3598056	 0.2354617707	-0.33931
N	-0.1752456552	-0.0858585723	 0.1407417507	-0.313177
C	 0.5535230098	-0.7230113631	 0.9697337931	 0.461241
N	 1.3501245002	-0.2179265741	 1.9582833853	-0.569526
N	 0.6161787621	-2.1536513977	 0.8196204883	-0.184934
C	 0.9724148419	-3.0593418906	 1.814810451	 0.131449
N	 1.3551599134	-2.7264903432	 2.9832242323	-0.497783
C	 0.2615184451	-2.6998836258	-0.4346001826	 0.18054
O	 0.2205752514	-3.8840619455	-0.6550582423	-0.312503
H	 0.8116966791	 1.8018734818	 0.110507078	 0.11742
H	-0.8333936061	 1.7663044804	-0.5475649547	 0.129293
H	-0.5876361471	 1.7154284916	 1.2005250976	 0.108087
H	 1.1436553428	 0.7280135121	 2.2363209646	 0.256703
H	 1.5982683784	-0.8694229902	 2.7015874338	 0.286094
H	 0.8733749153	-4.0798800239	 1.4441723183	 0.155618
H	 1.5580295398	-3.5532790126	 3.5391478005	 0.241299
H	 0.0371082676	-1.9099764667	-1.1586901945	 0.149489
60.6086	134.5752	150.7569	184.6396	206.0049	244.3072	292.018	317.5182	358.1139	437.7751	456.129	493.1455	620.8082	685.9412	728.5485	748.5446	829.2559	844.8746	1003.1538	1046.6946	1089.4285	1109.1435	1118.7444	1156.2685	1201.601	1273.0629	1316.2856	1378.1302	1420.7305	1428.9134	1439.7701	1493.4708	1506.1014	1643.9867	1711.956	1747.0945	1814.7824	2959.205	3007.2345	3099.6652	3103.9496	3138.8295	3409.3966	3521.5308	3663.6841
CN=C(N)N(C=N)C=O	CN=C(N)N(C=N)C=O	
InChI=1S/C4H8N4O/c1-7-4(6)8(2-5)3-9/h2-3,5H,1H3,(H2,6,7)	InChI=1S/C4H8N4O/c1-7-4(6)8(2-5)3-9/h2-3,5H,1H3,(H2,6,7)
