21
gdb 111855	2.22511	1.48863	1.23493	1.2246	78.2	-0.2399	0.0872	0.3272	1163.2299	0.181608	-424.213089	-424.20385	-424.202906	-424.247595	34.317	
C	 0.4329850984	 1.0019554027	-0.4275759495	-0.375696
C	-0.4853623545	 0.350204824	 0.6126283636	-0.197106
C	 0.2813058207	-0.404014745	 1.6767240486	-0.102403
C	-0.2683419274	-1.6459272551	 2.3628489054	-0.019445
O	-1.3585340359	-2.2809923811	 1.7297350857	-0.254734
C	-0.7746200081	-3.1056756911	 0.7369710264	 0.013496
O	 0.3982348962	-2.4513104825	 0.294764811	-0.290349
C	 0.9047410415	-1.7700716713	 1.4369955521	 0.379532
C	 2.3146813602	-2.1299596864	 1.8106063472	-0.470093
H	 1.0120722059	 0.2413546183	-0.9602660932	 0.127632
H	-0.1463926244	 1.5650842463	-1.1661804987	 0.109455
H	 1.1400327932	 1.6966971496	 0.039740355	 0.107636
H	-1.0997925939	 1.1165744358	 1.1014504306	 0.095301
H	-1.1827905702	-0.3293619804	 0.1170480906	 0.113414
H	 0.8740065455	 0.2253110951	 2.3400165164	 0.081932
H	-0.2220543535	-1.7818721784	 3.4389173308	 0.099538
H	-0.5278915353	-4.0955221412	 1.1600105622	 0.088911
H	-1.469578529	-3.2090547077	-0.1010610124	 0.118934
H	 3.0118217121	-1.8413125916	 1.0169504909	 0.13144
H	 2.6134002273	-1.6114728564	 2.7265133377	 0.119732
H	 2.4144289014	-3.2079183835	 1.9758801798	 0.122872
35.1826	124.8843	170.0841	196.3811	203.8354	233.5496	279.3823	321.0644	359.8443	531.8134	576.6697	637.6595	720.1418	755.6638	772.8985	825.3327	873.58	926.5682	938.3216	995.7471	1020.105	1036.8089	1052.8611	1079.6774	1119.1356	1125.7667	1136.3745	1159.2253	1183.825	1226.5241	1231.9764	1260.504	1293.6126	1327.1988	1365.8905	1405.521	1414.9058	1420.7252	1457.0727	1479.9228	1485.2206	1497.7117	1499.2869	1506.7377	1536.9717	2946.2917	3030.7185	3031.8894	3033.0335	3085.7324	3092.026	3098.6739	3102.8716	3109.2418	3111.5908	3118.5919	3153.8869
CCC1C2OCOC12C	CC[C@H]1[C@H]2OCO[C@@]12C	
InChI=1S/C7H12O2/c1-3-5-6-7(5,2)9-4-8-6/h5-6H,3-4H2,1-2H3	InChI=1S/C7H12O2/c1-3-5-6-7(5,2)9-4-8-6/h5-6H,3-4H2,1-2H3/t5-,6+,7-/m0/s1
