18
gdb 117526	2.40541	1.06064	0.77732	2.4538	73.86	-0.2681	-0.0396	0.2285	1470.277	0.143961	-439.104942	-439.094373	-439.093429	-439.142111	35.373	
C	 0.1447580698	 1.4163727026	-0.1156771788	-0.232596
O	 0.0283186929	 0.015853033	 0.0099317132	-0.236657
C	 0.7487806775	-0.4958003521	 1.1021380448	-0.056144
C	 0.5879463213	-2.0212279729	 1.0806514173	-0.281392
C	 1.1750507248	-2.6148732027	-0.1204138119	 0.285384
N	 1.6663350636	-3.10452301	-1.0448550226	-0.326111
C	 1.1403126836	-2.6820834618	 2.3744655054	 0.387343
C	 1.2478241892	-4.188444148	 2.3795415718	-0.486125
O	 1.430415992	-1.9943463337	 3.3206372092	-0.280435
H	 1.1895185285	 1.7230301843	-0.2750734944	 0.114503
H	-0.448705727	 1.7130076354	-0.9828935346	 0.136072
H	-0.2371479828	 1.937118879	 0.7757920771	 0.110049
H	 1.8151790667	-0.2294707049	 1.0428376107	 0.112151
H	 0.3664636416	-0.1165345309	 2.0594003925	 0.119333
H	-0.4896071088	-2.2413397941	 1.0566969524	 0.15881
H	 0.3099153773	-4.6463862949	 2.047303526	 0.147977
H	 2.0197358678	-4.5071540193	 1.6712523934	 0.177032
H	 1.5014848222	-4.5319234089	 3.3824676285	 0.150805
33.9124	69.1857	87.1113	126.9464	131.9962	157.205	222.1787	244.1669	316.3463	324.1272	429.1043	460.9994	532.0322	588.9892	624.4072	795.5452	880.684	946.7233	987.587	1045.2586	1085.8679	1110.498	1164.3653	1178.9705	1188.7824	1233.6082	1243.0167	1252.3271	1325.7275	1388.8499	1409.1891	1459.1838	1471.5948	1482.2789	1486.8187	1502.7819	1524.4155	1823.8134	2357.0953	2978.293	2993.1364	3017.2856	3028.3591	3041.2189	3045.4142	3107.9954	3125.5877	3160.783
COCC(C#N)C(C)=O	COC[C@@H](C#N)C(=O)C	
InChI=1S/C6H9NO2/c1-5(8)6(3-7)4-9-2/h6H,4H2,1-2H3	InChI=1S/C6H9NO2/c1-5(8)6(3-7)4-9-2/h6H,4H2,1-2H3/t6-/m1/s1
