16
gdb 51404	3.9116	1.00947	0.89184	4.9205	71.89	-0.2444	-0.0064	0.238	1269.3345	0.124597	-437.866337	-437.858421	-437.857477	-437.90046	29.157	
O	-0.0951001547	-0.0751977506	 0.3313366152	-0.313157
C	-0.0492043851	 1.1103813861	 0.0906762731	 0.150645
N	 1.0872537735	 1.8243336883	-0.1654536683	-0.318717
C	 2.3892183638	 1.2159069721	-0.1747130072	 0.095272
C	 3.3890867558	 1.5457727218	-1.3465602633	-0.208638
C	 3.6206114761	 2.935380899	-0.648343399	-0.25792
C	 3.5827521978	 1.9326106538	 0.5621543768	-0.208922
C	 4.4613542228	 1.0650941721	-0.35462232	 0.465593
O	 5.4605377338	 0.4199086195	-0.3252041407	-0.313092
H	-0.9479938331	 1.7565703846	 0.0526277558	 0.080638
H	 0.9835760823	 2.8082531382	-0.3507130406	 0.251578
H	 2.2417516596	 0.1617984487	 0.0536338014	 0.140144
H	 3.2715643924	 1.3350860445	-2.4066129524	 0.103268
H	 4.5658432374	 3.442391199	-0.846995822	 0.127383
H	 2.7924527465	 3.6425640517	-0.7077894023	 0.102694
H	 3.6805412611	 2.151721511	 1.6225110534	 0.103231
17.6509	116.7872	168.7649	236.5409	315.278	360.685	494.6089	499.4072	511.8417	692.0028	705.4403	719.0973	777.0822	816.7751	882.2839	952.4275	955.7822	1019.442	1028.3958	1041.2643	1071.7512	1081.6804	1124.4569	1125.7853	1192.0343	1193.6397	1202.2879	1237.2025	1238.646	1391.0759	1434.2924	1522.7088	1547.8041	1811.0061	1930.1408	2942.1795	3082.9386	3143.1303	3143.704	3155.6197	3159.1578	3648.9173
O=CNC1C2CC1C2=O	O=CN[C@H]1[C@H]2C[C@@H]1C2=O	
InChI=1S/C6H7NO2/c8-2-7-5-3-1-4(5)6(3)9/h2-5H,1H2,(H,7,8)	InChI=1S/C6H7NO2/c8-2-7-5-3-1-4(5)6(3)9/h2-5H,1H2,(H,7,8)/t3-,4+,5+
