19
gdb 39374	2.79036	1.72204	1.26683	1.0418	82.26	-0.2234	-0.0111	0.2122	1021.7424	0.160103	-385.824966	-385.817335	-385.816391	-385.856646	30.97	
C	-0.0054103314	 1.5306702512	 0.0291231029	-0.349216
C	 1.324526866	 0.832189975	-0.0408389171	 0.14544
O	 2.3384231383	 0.7963952966	 0.9274702455	-0.250775
C	 2.240295274	 1.4413168054	 2.2014911228	-0.108277
C	 1.9457674243	 0.5828224196	 3.4415482429	-0.051262
C	 0.7808075294	-0.0315637486	 3.6993757002	-0.101267
C	-0.2060609731	 0.0158370285	 2.6028832672	-0.163248
C	 0.1107648701	-0.5978268809	 1.4564550808	-0.030389
C	 0.0275577474	 0.0123392615	 0.1170816866	-0.111788
H	-0.2924066051	 2.0932356165	 0.9063387448	 0.121754
H	-0.3559566532	 1.9730114126	-0.8976358796	 0.115641
H	 1.7970463255	 0.7967897621	-1.0178359669	 0.101137
H	 3.2208984429	 1.907042325	 2.3487548405	 0.105941
H	 1.5073241523	 2.2557369601	 2.1506631926	 0.109803
H	 2.7210276311	 0.6022783962	 4.2061149414	 0.090725
H	 0.5901587317	-0.4876589571	 4.6686482821	 0.094828
H	-0.9551076034	 0.8067857581	 2.6255123394	 0.094789
H	 0.8382426734	-1.4073321624	 1.5155030977	 0.097169
H	-0.28718698	-0.5733891893	-0.7414323541	 0.088996
135.1605	161.0202	239.965	289.9212	337.1459	389.7748	470.3937	492.3137	548.8317	571.9479	704.7664	726.4821	748.6126	787.9334	840.1699	863.6972	891.5451	907.6833	970.6969	1004.2249	1019.4481	1032.1359	1039.9412	1068.8824	1095.3214	1111.025	1121.5925	1157.4932	1211.1813	1233.0732	1276.0897	1303.5251	1354.0588	1369.0446	1390.1579	1400.4268	1410.6502	1466.852	1488.4145	1657.6585	1684.5128	3022.1271	3063.7584	3119.5813	3124.5294	3130.5731	3145.0308	3146.2003	3153.767	3158.0216	3239.6378
C1C2OCC=CC=CC12	C1[C@H]2OCC=C[CH][CH][C@@H]12	
InChI=1S/C8H10O/c1-2-4-7-6-8(7)9-5-3-1/h1-4,7-8H,5-6H2/b3-1-,4-2-	InChI=1S/C8H10O/c1-2-4-7-6-8(7)9-5-3-1/h1-4,7-8H,5-6H2/b3-1-,4-2?/t7-,8+/m0/s1
