19
gdb 82407	2.57251	1.66274	1.24059	3.452	75.86	-0.25	0.0283	0.2782	1052.9654	0.16176	-419.195573	-419.187557	-419.186613	-419.228129	31.135	
C	 0.8012315691	 1.5462260398	 0.0054247052	-0.392438
C	 0.1562501652	 0.147570685	 0.0508553029	-0.080801
C	 0.4598204577	-0.7215139281	-1.1704460539	-0.045418
N	 1.6473747057	-0.3993705698	-1.9779072058	-0.327083
C	 1.666033075	-1.5846420999	-1.1025820252	-0.060247
C	 2.4740763037	-1.4374195655	 0.1678172105	-0.090315
O	 1.6375747159	-1.3778242204	 1.3370089791	-0.253836
C	 0.5296415816	-0.5828710033	 1.3339462246	 0.388356
N	-0.1842753032	-0.4521316209	 2.3734258636	-0.52051
H	 1.8918056618	 1.4979888005	-0.02240333	 0.129706
H	 0.4778798166	 2.0794494327	-0.8926668912	 0.119019
H	 0.4953849498	 2.114254707	 0.8871930288	 0.13229
H	-0.9245452502	 0.2866313497	 0.1197995002	 0.108707
H	-0.4068619915	-1.117215001	-1.6922648835	 0.097296
H	 1.494614826	-0.6812767372	-2.9425489143	 0.236157
H	 1.632538407	-2.5696792735	-1.5581703106	 0.096319
H	 3.1267977118	-2.2954483102	 0.3412459782	 0.120468
H	 3.0940809094	-0.5365488673	 0.107980543	 0.128229
H	 0.2208685487	-0.9860135776	 3.1456630083	 0.214101
73.3406	169.8792	211.7069	242.2253	247.966	363.8141	418.857	466.3467	499.8549	581.6346	687.9645	723.5801	766.5305	816.6224	845.1516	907.2648	916.1195	939.0937	953.8091	987.8708	1017.7471	1053.4232	1080.0546	1094.3755	1134.6031	1151.6992	1183.9092	1223.2886	1256.8347	1280.2096	1313.4578	1316.3338	1347.9307	1387.2067	1412.0605	1420.0041	1453.3768	1490.7038	1493.9759	1507.9105	1739.6061	3048.506	3053.1853	3087.7902	3109.9244	3126.0828	3137.3191	3142.7666	3155.9084	3456.9137	3507.8484
CC1C2NC2COC1=N	C[C@H]1[C@H]2N[C@H]2CO[C]1[NH]	
InChI=1S/C6H10N2O/c1-3-5-4(8-5)2-9-6(3)7/h3-5,7-8H,2H2,1H3	InChI=1S/C6H10N2O/c1-3-5-4(8-5)2-9-6(3)7/h3-5,7-8H,2H2,1H3/t3-,4-,5+/m0/s1
