17
gdb 35720	2.46249	1.50118	1.09822	4.3872	72.06	-0.2522	0.0136	0.2658	1111.2273	0.136964	-417.965647	-417.957332	-417.956387	-417.999865	29.731	
N	-0.1759434491	-1.2230645846	-0.0364243141	-0.32239
C	-0.0992236569	-0.0711889062	 0.0217225955	 0.2978
C	-0.0286342566	 1.3765154014	 0.1005616182	-0.238539
C	 0.1635625871	 1.9966290168	 1.5099930105	-0.080165
O	 1.4241283758	 2.5825882153	 1.1338184185	-0.282637
C	 1.3409245317	 2.0735000916	-0.2148233971	 0.100802
C	 2.5297779316	 1.2312606109	-0.596093801	-0.012349
C	 3.8761768571	 1.6490299023	-0.1349955015	-0.244046
N	 3.238253958	 0.4377216178	 0.4115489968	-0.307545
H	-0.8642205444	 1.8043091892	-0.4563257073	 0.136145
H	-0.5793133299	 2.7557189738	 1.7758210504	 0.124214
H	 0.2666910603	 1.2781597061	 2.3288048416	 0.132645
H	 1.215792164	 2.8901874547	-0.9380839335	 0.099219
H	 2.4267718195	 0.7442503206	-1.5641996851	 0.107775
H	 4.7425870124	 1.4722069406	-0.7650476423	 0.123324
H	 3.9352336498	 2.5260377907	 0.5032940426	 0.128906
H	 2.8627080695	 0.6658103289	 1.3305262478	 0.236842
35.8706	92.1222	112.8106	207.2387	232.7501	264.6862	394.5186	515.805	570.4184	608.1831	736.0005	797.2642	847.3293	866.2183	898.5298	953.4146	967.9046	1002.2989	1019.5953	1058.4528	1088.9309	1099.6067	1140.2638	1141.0877	1171.2341	1182.7704	1205.4801	1262.7651	1282.427	1299.556	1343.3437	1352.2012	1377.065	1414.5419	1504.4198	1525.2312	2359.45	3016.1311	3041.0473	3089.7541	3103.1546	3116.0165	3129.1624	3205.7096	3487.4566
N#CC1COC1C1CN1	N#C[C@H]1CO[C@H]1[C@H]1CN1	
InChI=1S/C6H8N2O/c7-1-4-3-9-6(4)5-2-8-5/h4-6,8H,2-3H2	InChI=1S/C6H8N2O/c7-1-4-3-9-6(4)5-2-8-5/h4-6,8H,2-3H2/t4-,5+,6+/m0/s1
