17
gdb 56401	3.27308	0.73395	0.6485	2.8111	83.62	-0.2469	0.0093	0.2562	1722.9377	0.135388	-380.826041	-380.816461	-380.815517	-380.863987	33.162	
C	-0.0585865408	 1.4332186475	 0.7284335406	-0.380196
C	-0.0778745528	 0.2492656666	-0.2706425605	-0.305098
C	 0.8608436324	-0.8026342172	 0.159185567	 0.289596
N	 1.6087381198	-1.6114731901	 0.5063910882	-0.319869
C	-1.4212746542	-0.3018837852	-0.4596720131	 0.099831
C	-2.5328110466	-0.7403029532	-0.6125153343	 0.091158
C	-3.86406602	-1.2518020906	-0.7772004476	-0.161447
C	-4.1038719598	-2.7265808503	-0.7278471538	-0.225118
N	-4.5688690633	-1.8755801557	 0.3698775748	-0.304453
H	 0.9535819656	 1.8344333917	 0.819328789	 0.140109
H	-0.7260619414	 2.2188578726	 0.368518858	 0.139789
H	-0.3996163218	 1.1061906848	 1.7126012399	 0.14851
H	 0.287785666	 0.6152941336	-1.2402174983	 0.159415
H	-4.5171322785	-0.6486114147	-1.4025107209	 0.121608
H	-4.8899206174	-3.1504401716	-1.3459820042	 0.130058
H	-3.2409268892	-3.3667581834	-0.5718486289	 0.132568
H	-3.9238654281	-1.9451666546	 1.1536810743	 0.243539
3.785	63.74	93.806	175.2731	209.0874	224.8959	234.8709	349.0683	430.5562	456.0353	533.226	575.8089	594.9228	716.9478	809.5169	824.4972	886.6212	956.6165	976.9288	1008.7016	1066.8462	1076.1979	1114.6863	1130.4036	1162.1025	1219.2344	1257.4216	1295.1476	1299.637	1324.8815	1396.2483	1408.0004	1489.2018	1496.4629	1505.2018	2361.464	2367.6628	3016.1415	3057.5643	3117.2699	3140.3822	3141.3682	3146.4746	3209.1196	3504.2612
CC(C#N)C#CC1CN1	C[C@@H](C#N)C#C[C@H]1CN1	
InChI=1S/C7H8N2/c1-6(4-8)2-3-7-5-9-7/h6-7,9H,5H2,1H3	InChI=1S/C7H8N2/c1-6(4-8)2-3-7-5-9-7/h6-7,9H,5H2,1H3/t6-,7+/m1/s1
