22
gdb 99028	3.37219	0.88587	0.84134	4.766	80.42	-0.2459	0.021	0.2669	1512.8784	0.191668	-441.534882	-441.523928	-441.522984	-441.571201	39.899	
C	 1.7050334354	-3.3001591188	-2.3136224218	-0.337194
N	 0.8405281827	-2.7947416069	-1.2634803549	-0.308589
C	-0.5013385293	-2.6472336294	-1.4152232025	 0.43335
O	-1.0805154432	-2.9586792534	-2.4530544405	-0.398188
C	-1.2383631298	-2.0511129089	-0.2224637595	-0.353066
C	-2.6501367669	-2.6623643457	-0.0155430959	 0.369035
C	-2.560885739	-4.1757173344	 0.2538004776	-0.415808
C	-3.346788783	-1.9540359933	 1.1487282577	-0.399813
O	-3.446643432	-2.4113826872	-1.1631208538	-0.47245
H	 2.448751853	-2.5525122548	-2.6101385895	 0.129986
H	 2.2274455696	-4.2078448435	-1.9929913002	 0.129824
H	 1.0734026006	-3.5353907758	-3.1703749709	 0.175166
H	 1.2528564843	-2.5258626304	-0.3858572016	 0.249582
H	-0.6410467169	-2.1472221575	 0.6913345625	 0.091444
H	-1.3636639574	-0.979920464	-0.4220245684	 0.134257
H	-1.9724182841	-4.3937614564	 1.1524312478	 0.096835
H	-3.5669471724	-4.5801591624	 0.3940711225	 0.121188
H	-2.1050153143	-4.6947496937	-0.5941613653	 0.123957
H	-3.4147101748	-0.8793715792	 0.9563682307	 0.114625
H	-4.3634618801	-2.3422914223	 1.2569059332	 0.122939
H	-2.8124850122	-2.1112947963	 2.0911288248	 0.101266
H	-2.9007143601	-2.6707829258	-1.9243050721	 0.291654
40.2843	85.0637	102.9405	155.2034	188.9515	209.9319	255.995	288.1327	307.7549	335.5712	381.3801	403.3379	454.6331	476.7581	520.4946	625.1972	636.6079	735.6316	795.2401	881.067	899.549	928.0402	944.107	998.074	1018.2207	1072.2612	1140.0456	1157.4823	1167.1334	1174.6155	1232.8293	1245.9168	1286.9913	1355.3502	1391.5626	1409.868	1438.9157	1448.6077	1449.5284	1476.909	1489.6818	1493.0967	1500.659	1504.2515	1510.9402	1567.7296	1738.7494	3028.5836	3031.8221	3032.4565	3040.34	3076.1496	3085.8802	3103.4484	3112.9423	3117.0283	3121.5132	3159.9252	3648.8146	3652.3933
CNC(=O)CC(C)(C)O	CNC(=O)CC(C)(C)O	
InChI=1S/C6H13NO2/c1-6(2,9)4-5(8)7-3/h9H,4H2,1-3H3,(H,7,8)	InChI=1S/C6H13NO2/c1-6(2,9)4-5(8)7-3/h9H,4H2,1-3H3,(H,7,8)
