19
gdb 58746	2.5622	1.48653	1.148	2.6699	75.95	-0.251	-0.0082	0.2429	1131.9232	0.156879	-422.98073	-422.971727	-422.970782	-423.014584	33.595	
C	 0.0112849244	 1.5224102033	-0.0143447135	-0.402567
C	-0.0317082043	-0.0146729458	-0.0138865479	-0.125499
C	-1.4710736933	-0.5512234292	-0.0342582588	-0.394109
C	 0.7788460838	-0.553479865	-1.1574356102	 0.304853
C	 1.0146287391	-2.0023626917	-1.67014262	-0.286582
C	 1.5587959685	-1.074177397	-2.7779171366	-0.071567
O	 0.3820785282	-0.1926344017	-2.5666508297	-0.339672
C	 2.2100905894	-0.2075027447	-1.6709189964	 0.441995
O	 3.1613825972	 0.4581674625	-1.42255881	-0.32424
H	 1.0407915417	 1.8876785329	 0.0345620869	 0.140195
H	-0.4451496584	 1.9180216637	-0.9267466408	 0.135082
H	-0.5379890045	 1.9207149507	 0.8436692865	 0.112235
H	 0.4641978706	-0.3769295208	 0.8979747728	 0.093621
H	-1.9800430216	-0.2542505621	-0.9562838064	 0.135004
H	-1.4953305904	-1.6434984048	 0.0289781967	 0.114903
H	-2.0387329598	-0.1526905271	 0.8120074068	 0.116306
H	 1.7124895928	-2.6452122656	-1.1267885201	 0.112738
H	 0.0936191281	-2.5103525983	-1.9601853404	 0.122345
H	 1.8420432583	-1.2967597593	-3.803814619	 0.114961
53.572	135.5744	184.2882	185.8224	217.5825	256.5263	283.12	349.2604	449.1809	511.647	539.1296	621.5755	710.6666	767.0179	805.9772	837.1486	888.825	903.2047	930.2098	941.6689	971.9628	985.0345	1034.6667	1077.7664	1122.7268	1148.2772	1180.922	1186.5808	1205.5251	1214.4075	1294.8221	1329.6354	1392.0763	1399.5714	1423.0054	1475.9624	1489.1853	1491.2517	1502.4287	1516.0696	1925.0295	3011.1846	3037.8674	3043.194	3063.0278	3107.7172	3113.1663	3117.4585	3121.2822	3147.8717	3160.2147
CC(C)C12CC(O1)C2=O	CC(C)[C@@]12C[C@@H](O1)C2=O	
InChI=1S/C7H10O2/c1-4(2)7-3-5(9-7)6(7)8/h4-5H,3H2,1-2H3	InChI=1S/C7H10O2/c1-4(2)7-3-5(9-7)6(7)8/h4-5H,3H2,1-2H3/t5-,7-/m1/s1
