21
gdb 121261	4.02817	0.93759	0.83645	2.5826	79.04	-0.2462	0.0831	0.3293	1452.288	0.18246	-424.215311	-424.206412	-424.205468	-424.249634	33.147	
C	-0.1190377938	 1.5046903083	-0.0192495075	-0.384055
C	-0.0867690457	-0.0001479843	 0.1875449466	-0.03512
O	-1.3618596509	-0.5214957	-0.1373265877	-0.261377
C	-1.4497794469	-1.9261380805	-0.0772870718	 0.146953
C	-1.4480879213	-2.5268463862	 1.3542291174	-0.25603
C	-2.2720325397	-3.831241071	 1.2495491464	-0.249514
C	-3.242004983	-3.5500847553	 0.1157111575	 0.05115
O	-3.8794572837	-2.2715730998	 0.2252892879	-0.255075
C	-2.7632051504	-2.4036240105	-0.6641476647	 0.014937
H	 0.85316334	 1.944498384	 0.2228357631	 0.11266
H	-0.3616491627	 1.7440480431	-1.0584612117	 0.125717
H	-0.8773411421	 1.9620577221	 0.6224319846	 0.129795
H	 0.6838942504	-0.4634677568	-0.4526698303	 0.082139
H	 0.1762611492	-0.2366774137	 1.2306481474	 0.089817
H	-0.6339564741	-2.3737148305	-0.6748630954	 0.060307
H	-0.4423382756	-2.6977412874	 1.7435104534	 0.097196
H	-1.9534840282	-1.8137688667	 2.0096077381	 0.128295
H	-1.6400369828	-4.6848418486	 0.9752326377	 0.103342
H	-2.7781380912	-4.0872146412	 2.1855930173	 0.111999
H	-3.8497008656	-4.3413225314	-0.3163456799	 0.092306
H	-2.980072492	-2.2538190137	-1.7182709785	 0.094559
61.9805	82.137	109.2092	195.6423	246.2544	281.3577	335.2575	378.113	410.2132	559.6176	657.9258	678.114	819.0619	823.2405	839.7174	870.7898	879.2122	911.705	938.1453	971.0306	1026.5927	1044.8856	1070.2516	1090.005	1110.526	1152.4525	1161.5949	1185.4382	1194.3392	1219.9147	1263.1405	1296.0016	1299.1041	1320.7686	1337.9427	1342.5269	1377.0151	1402.4256	1436.5174	1442.4034	1480.7746	1482.8201	1492.0044	1499.7999	1528.6504	2931.3948	2955.1403	2990.8868	3036.611	3044.8905	3073.2208	3083.9513	3119.1856	3122.4735	3124.4554	3143.0149	3158.953
CCOC1CCC2OC12	CCO[C@H]1CC[C@H]2O[C@@H]12	
InChI=1S/C7H12O2/c1-2-8-5-3-4-6-7(5)9-6/h5-7H,2-4H2,1H3	InChI=1S/C7H12O2/c1-2-8-5-3-4-6-7(5)9-6/h5-7H,2-4H2,1H3/t5-,6+,7-/m0/s1
