17
gdb 43922	4.2504	1.18562	1.0865	4.8022	75.7	-0.2654	-0.0435	0.222	1133.1575	0.137093	-421.869889	-421.862539	-421.861595	-421.901846	28.661	
O	 0.3874956285	-0.0009385578	-0.0032981256	-0.343205
C	 0.2573018339	 1.1896688561	 0.0058281076	 0.389108
O	-0.9764490515	 1.8016544186	 0.0276133451	-0.269055
C	-0.831247589	 3.2168997994	 0.0340658843	 0.3918
C	-1.6575127289	 3.9928583934	-1.0343124378	-0.275861
C	-2.038422941	 5.0228279879	 0.0627356143	-0.217091
C	-1.6256660481	 3.979703737	 1.1355677972	-0.27586
C	 0.649265422	 3.4406204138	 0.0137029321	-0.123406
C	 1.2773817696	 2.2666118233	-0.0026068867	-0.244693
H	-1.1287533347	 4.3415723081	-1.9236181308	 0.109349
H	-2.5115566455	 3.3838020416	-1.338423317	 0.130209
H	-1.3800318674	 5.8954021237	 0.058363829	 0.108881
H	-3.0719842981	 5.3707546779	 0.0800137998	 0.113595
H	-2.470525799	 3.3668566202	 1.4572106475	 0.130209
H	-1.0709673699	 4.3177068361	 2.0131297688	 0.109349
H	 1.0887301859	 4.4302081328	 0.0132511802	 0.131802
H	 2.3365098932	 2.0571152679	-0.0193971981	 0.13487
110.7148	120.3052	200.2466	329.4516	335.2449	421.4837	504.2675	529.035	688.2094	713.4618	730.5457	790.3673	839.8313	839.9783	869.854	908.7596	931.538	938.6785	969.992	986.5738	1042.5243	1050.5116	1067.7232	1132.8267	1174.2059	1200.9742	1208.5979	1244.9778	1271.1725	1279.81	1307.3583	1364.2822	1471.5754	1487.8188	1507.2693	1657.6217	1871.7977	3069.5468	3071.0396	3075.3466	3118.2292	3130.9004	3139.0249	3215.2866	3257.7903
O=C1OC2(CCC2)C=C1	O=C1OC2(CCC2)C=C1	
InChI=1S/C7H8O2/c8-6-2-5-7(9-6)3-1-4-7/h2,5H,1,3-4H2	InChI=1S/C7H8O2/c8-6-2-5-7(9-6)3-1-4-7/h2,5H,1,3-4H2
