19
gdb 70828	2.28056	1.71606	1.50959	2.4865	75.84	-0.2215	0.0685	0.29	1018.5105	0.156336	-422.952856	-422.943975	-422.94303	-422.985586	34.367	
C	 0.0428576038	 1.4000570748	-0.154449811	-0.529068
C	-0.0011822217	-0.0865728575	-0.0165279017	 0.420894
O	 0.5691652755	-0.9197498908	-1.0745966999	-0.389441
C	 0.0766902365	-1.8904944384	-0.100444656	 0.38915
C	 0.2428899697	-3.3488790651	-0.3787723315	-0.534093
C	 0.4832674328	-1.0281082385	 1.1370782496	-0.18095
C	-0.9200564562	-1.1034299317	 1.7750601399	-0.356216
C	-1.2061738503	-1.0383442682	 0.2570967217	 0.284128
O	-2.4068826921	-0.9561734898	-0.411449169	-0.467121
H	 1.0757666904	 1.7481283534	-0.2502628434	 0.132535
H	-0.5139215293	 1.714974994	-1.04211738	 0.142564
H	-0.4056879059	 1.877884756	 0.7221559965	 0.127575
H	 1.299505493	-3.5983821298	-0.5175021245	 0.13728
H	-0.1452575981	-3.945480118	 0.4533376844	 0.123291
H	-0.2968078257	-3.628466606	-1.2893421249	 0.135238
H	 1.4605163769	-1.0113006904	 1.6142591507	 0.084863
H	-1.1735124574	-2.0364051096	 2.2881406446	 0.091522
H	-1.2353249334	-0.2414227621	 2.3694563895	 0.101366
H	-2.9415909284	-1.7259790226	-0.1884679249	 0.286482
179.7313	188.0487	191.356	195.298	220.0579	231.831	260.5215	326.6921	450.4019	510.5877	536.4092	595.8105	692.077	695.5644	716.3733	776.3946	802.3434	863.5137	898.9546	943.8506	987.3957	1010.5483	1054.591	1092.3372	1098.2026	1122.2019	1123.2832	1182.5056	1211.5938	1227.4779	1248.4122	1305.2163	1351.9238	1397.2751	1407.3982	1453.7328	1473.3447	1475.2978	1490.329	1495.195	1515.8958	3034.6938	3039.9045	3046.811	3103.979	3106.4701	3108.8229	3113.7292	3115.1409	3149.6463	3804.2511
CC12OC3(C)C1CC23O	C[C@@]12O[C@@]3(C)[C@@H]1C[C@@]23O	
InChI=1S/C7H10O2/c1-5-4-3-7(5,8)6(4,2)9-5/h4,8H,3H2,1-2H3	InChI=1S/C7H10O2/c1-5-4-3-7(5,8)6(4,2)9-5/h4,8H,3H2,1-2H3/t4-,5-,6+,7-
