19
gdb 78357	2.77098	1.37553	1.1236	2.2646	75.84	-0.2539	0.075	0.3289	1155.2117	0.158176	-422.973464	-422.964926	-422.963982	-423.006409	32.861	
C	-0.1459978008	 1.3816912012	 0.0080096799	-0.428848
C	 0.0726779437	-0.1139790249	 0.0835490553	-0.006457
C	 1.434530552	-0.645930814	-0.2424288643	-0.076394
C	 0.9205675857	-0.6427060628	 1.2182053772	-0.16999
C	 0.8879149555	-2.1441812393	 1.1892422355	 0.397115
C	 0.9751634326	-3.1666825642	 2.224494011	-0.271947
O	-0.2604525086	-2.9301354966	 1.5226332928	-0.284521
C	 1.4416257411	-2.1846520217	-0.2494375932	 0.036658
O	 0.6431531052	-2.8650273747	-1.1838863849	-0.44538
H	 0.7456120587	 1.931028984	 0.32895024	 0.114828
H	-0.37714262	 1.6911124097	-1.0166139809	 0.125041
H	-0.9781875234	 1.691815273	 0.6485039578	 0.122929
H	-0.7840721422	-0.7103069061	-0.2220066945	 0.093688
H	 2.2076606294	-0.0221483769	-0.6737040368	 0.086929
H	 1.2247204388	-0.0204522484	 2.0509361306	 0.089471
H	 1.4636546045	-4.1159463511	 2.0071893134	 0.120614
H	 0.9645531706	-2.8805462453	 3.2753581442	 0.12128
H	 2.4675530448	-2.573550613	-0.285902044	 0.07986
H	-0.0802400078	-3.2599220889	-0.6784762191	 0.295125
90.0295	163.7412	211.0481	217.5352	229.3176	282.9425	348.4474	365.505	471.2035	496.0692	593.3471	647.7666	762.0378	783.6235	850.6679	865.4434	901.2049	914.3495	969.9193	983.3111	999.1643	1040.9072	1077.4602	1097.3097	1116.6713	1131.1327	1143.5798	1163.5462	1191.5962	1202.452	1210.9311	1267.3275	1299.4405	1361.8127	1399.3395	1416.9008	1423.7633	1455.7288	1493.6926	1503.4876	1536.4185	3019.3954	3030.0783	3080.5951	3095.5847	3097.6487	3132.5938	3167.3133	3183.7191	3193.9222	3750.4323
CC1C2C1C1(CO1)C2O	C[C@H]1[C@H]2[C@@H]1[C@]1(CO1)[C@H]2O	
InChI=1S/C7H10O2/c1-3-4-5(3)7(2-9-7)6(4)8/h3-6,8H,2H2,1H3	InChI=1S/C7H10O2/c1-3-4-5(3)7(2-9-7)6(4)8/h3-6,8H,2H2,1H3/t3-,4-,5+,6-,7+/m0/s1
