17
gdb 61332	6.07553	0.55767	0.52402	3.4192	87.48	-0.2675	-0.0626	0.2049	1998.841	0.131891	-384.638523	-384.628118	-384.627174	-384.675813	35.479	
C	-0.0796663747	 1.5863594686	-0.0344513658	-0.386954
C	-0.0500588818	 0.0471083297	-0.0075054239	-0.157951
C	 0.7595026562	-0.4958202854	 1.2078321711	-0.361101
C	 2.1626451311	-0.1158980767	 1.1885309592	 0.075319
C	 3.3311627041	 0.1921635636	 1.1667463833	 0.055804
C	 4.7195503799	 0.5706850136	 1.1158237137	 0.01653
O	 5.530147227	 0.3258156762	 1.9797203237	-0.227449
C	-1.3989624941	-0.5131314827	 0.0148791121	 0.317598
C	-2.5096154571	-0.9704576872	 0.0602631637	-0.453194
H	 0.9387166647	 1.9831292514	-0.0607931336	 0.129566
H	-0.6183512281	 1.9444388729	-0.9147961822	 0.132662
H	-0.5837722604	 1.9773298771	 0.8545476107	 0.129316
H	 0.4557052352	-0.3044007097	-0.9159872229	 0.121099
H	 0.2957845066	-0.1398036693	 2.136354825	 0.153291
H	 0.6858081183	-1.5893137392	 1.2311289601	 0.156375
H	 5.0047390141	 1.1220621835	 0.1964579462	 0.098235
H	-3.491209251	-1.3752724964	 0.0842453595	 0.200856
24.2536	53.8459	66.9062	157.6606	173.4441	188.2592	218.7463	260.192	332.6156	408.9726	457.131	512.3801	532.036	612.698	636.0989	654.0572	817.8025	837.1669	880.9528	928.3002	1021.8404	1063.6665	1090.3311	1128.4428	1157.8052	1236.3616	1288.4751	1335.7789	1361.0045	1407.9973	1423.2174	1454.5718	1494.2311	1498.2931	1767.5256	2237.1403	2326.3811	2915.1964	3023.5499	3035.2932	3046.5754	3071.0997	3121.3839	3130.6497	3503.3305
CC(CC#CC=O)C#C	C[C@@H](CC#CC=O)C#C	
InChI=1S/C8H8O/c1-3-8(2)6-4-5-7-9/h1,7-8H,6H2,2H3	InChI=1S/C8H8O/c1-3-8(2)6-4-5-7-9/h1,7-8H,6H2,2H3/t8-/m1/s1
