17
gdb 6013	2.70875	1.6201	1.55048	3.4716	64.93	-0.2449	-0.0291	0.2158	941.7793	0.139197	-401.049564	-401.04005	-401.039106	-401.083991	33.672	
C	 0.2572953104	 1.5573906283	 0.1142169894	-0.452621
C	 0.0967537992	 0.0387040409	 0.0142437438	 0.055463
C	 0.4300794088	-0.6512624026	 1.3611014186	-0.414208
C	-1.3605074079	-0.322816957	-0.3072272139	 0.155703
O	-2.2623560007	 0.4727655438	-0.3354185569	-0.256809
C	 0.9403891284	-0.6592795125	-1.0763238915	 0.401739
N	 1.6752624171	 0.1393135672	-1.8955141314	-0.537909
O	 0.9168284135	-1.8710989501	-1.1970964084	-0.378682
H	 1.2864486679	 1.8300285037	 0.3687539032	 0.114618
H	-0.0336307828	 2.0595503618	-0.8133050894	 0.127775
H	-0.3988837704	 1.9479736888	 0.8952022978	 0.140159
H	-0.2356923898	-0.289138137	 2.1502064766	 0.124929
H	 0.3295486371	-1.7339720763	 1.2700163615	 0.151945
H	 1.4610058877	-0.4273879554	 1.6525005624	 0.126797
H	-1.5183760494	-1.4040443101	-0.4969991895	 0.111113
H	 1.7076388278	 1.1378103778	-1.804546877	 0.265021
H	 2.2176474232	-0.3050426112	-2.6182802254	 0.264967
35.4143	92.8449	172.2541	216.2423	231.919	263.472	274.2299	300.6484	331.0432	356.9837	463.5805	493.3311	581.5775	629.5901	742.7621	766.9226	849.0879	918.0671	958.9426	1022.3429	1044.4871	1090.0154	1182.2535	1195.7406	1253.7418	1349.4129	1389.1385	1395.7702	1423.9061	1485.7147	1489.3554	1500.577	1512.1541	1613.8215	1773.9293	1828.4514	2935.7455	3039.3225	3042.9717	3109.4755	3111.0943	3124.7009	3143.9557	3611.2182	3752.2282
CC(C)(C=O)C(N)=O	CC(C)(C=O)C(=O)N	
InChI=1S/C5H9NO2/c1-5(2,3-7)4(6)8/h3H,1-2H3,(H2,6,8)	InChI=1S/C5H9NO2/c1-5(2,3-7)4(6)8/h3H,1-2H3,(H2,6,8)
