17
gdb 124881	3.66988	1.3008	1.07462	3.5351	73.66	-0.2473	0.012	0.2594	1123.2426	0.138882	-414.195648	-414.187868	-414.186924	-414.228207	29.265	
C	-0.3415436213	 1.3446464504	-0.7856183866	-0.470329
C	-0.0722114699	 0.0354279933	-0.0764707095	 0.181709
C	 1.0772326705	-0.8142516615	-0.5142537138	-0.257262
N	 1.1171494354	-0.1247857109	 0.7846767622	-0.361645
C	-1.268498302	-0.6337384908	 0.4881151744	 0.383802
N	-2.4946586539	-0.6533937881	-0.0103692119	-0.343667
C	-3.1734537617	-1.4129753169	 0.8948564973	 0.017929
N	-2.4554948056	-1.8583814404	 1.9132296328	-0.21546
N	-1.2343824456	-1.3464980157	 1.6312617297	-0.236443
H	 0.5755416655	 1.7377828974	-1.2352159802	 0.110155
H	-1.0856645183	 1.2000773743	-1.5728663058	 0.15867
H	-0.7376853988	 2.0908557484	-0.0893309466	 0.133337
H	 1.0056840402	-1.8962621033	-0.4571236419	 0.12906
H	 1.6943199415	-0.4382508019	-1.325939747	 0.122482
H	 1.7007581824	 0.7059539838	 0.7316222235	 0.239037
H	-4.2246860672	-1.6412444563	 0.8009940339	 0.122691
H	-0.4452273513	-1.4700883717	 2.2455154195	 0.285934
72.9681	151.1767	191.0495	216.9013	312.0338	347.0489	415.4341	494.9059	556.367	630.736	716.2635	764.2366	828.5559	847.6422	907.7182	936.1905	977.5933	984.4625	998.056	1042.7991	1054.4067	1117.1919	1123.1263	1145.6004	1202.0678	1230.0893	1265.1763	1304.1092	1340.4463	1346.1455	1414.4097	1426.2141	1479.3362	1495.3003	1507.3445	1510.3615	1593.0053	3038.9137	3106.8223	3112.0989	3126.7645	3201.9827	3259.9468	3507.6583	3661.4421
CC1(CN1)C1=NC=NN1	C[C@]1(CN1)c1ncn[nH]1	
InChI=1S/C5H8N4/c1-5(2-7-5)4-6-3-8-9-4/h3,7H,2H2,1H3,(H,6,8,9)	InChI=1S/C5H8N4/c1-5(2-7-5)4-6-3-8-9-4/h3,7H,2H2,1H3,(H,6,8,9)/t5-/m0/s1
