18
gdb 68432	2.64625	1.60607	1.2503	4.5923	75.45	-0.2738	0.0273	0.3012	1032.8666	0.149295	-401.9565	-401.948784	-401.94784	-401.988492	30.629	
O	-0.1232715162	 1.3857079488	-0.0254638003	-0.477433
C	-0.050670876	 0.003436276	 0.0179547381	 0.426111
C	 0.3444616539	-0.8165081046	 1.2886901391	-0.297831
C	-0.4340966319	-1.9349207766	 0.5426424289	-0.021531
C	-1.3667155977	-0.8079748508	 0.0113489899	-0.267362
C	 0.4729721412	-2.2092022749	-0.6745631359	-0.23271
C	 0.7967801719	-0.7239297942	-1.0779851312	-0.221672
C	 0.4165833918	-0.3731130104	-2.4402533609	 0.278667
N	 0.114798067	-0.0992297169	-3.5222853552	-0.331781
H	 0.7673664045	 1.75294816	-0.0518679782	 0.285455
H	 1.4054214316	-0.9755675013	 1.5066431578	 0.088511
H	-0.1791739689	-0.4473960748	 2.1721180942	 0.112244
H	-0.8295602252	-2.8024244975	 1.0667561648	 0.07679
H	-2.061720662	-0.4419978046	 0.7688272421	 0.113823
H	-1.8785537377	-0.9528343237	-0.9431847377	 0.116752
H	 1.3792853335	-2.7624091296	-0.4163239193	 0.111768
H	-0.0425755903	-2.7447390452	-1.4744544602	 0.128069
H	 1.8612926805	-0.4957522699	-0.9539622461	 0.112132
111.4076	141.2394	247.3282	288.8398	347.4279	388.3996	428.6022	470.4122	511.3883	585.0399	614.4692	700.518	806.2998	830.4836	855.9159	898.6101	913.2563	951.842	987.253	996.415	1020.5491	1043.3976	1082.5803	1093.1817	1124.354	1167.4126	1182.4303	1208.7431	1232.6783	1252.8358	1277.022	1300.4869	1315.8758	1342.9816	1389.1822	1484.2345	1495.6997	1527.96	2353.8608	3044.5239	3050.7272	3068.9658	3072.0358	3120.2472	3128.1922	3136.3601	3140.1883	3801.1328
OC12CC(C1)CC2C#N	O[C@@]12C[C@@H](C1)C[C@H]2C#N	
InChI=1S/C7H9NO/c8-4-6-1-5-2-7(6,9)3-5/h5-6,9H,1-3H2	InChI=1S/C7H9NO/c8-4-6-1-5-2-7(6,9)3-5/h5-6,9H,1-3H2/t5-,6-,7-/m0/s1
