23
gdb 114390	4.00472	0.95003	0.90086	1.5128	86.74	-0.2275	0.0844	0.3119	1450.8809	0.203888	-388.263289	-388.253449	-388.252505	-388.297509	37.445	
C	-0.0908880016	 1.4898572871	-0.2444442618	-0.384955
C	-0.0312092454	-0.0040334492	 0.0856257138	-0.186099
C	-1.4120896789	-0.62948656	 0.1897219623	 0.116644
O	-2.1147496667	-0.5784469477	-1.0941763209	-0.303499
C	-2.0725713022	-2.003337413	-1.187824324	 0.053773
C	-1.4491357352	-2.1560079237	 0.1838540417	-0.186316
C	-2.8571642885	-2.6746979025	-0.0940663667	 0.291283
C	-4.0965624104	-2.0332489526	 0.4949147837	-0.465339
C	-2.9170052236	-4.1880163863	-0.2131594822	-0.455609
H	 0.9126863267	 1.9122000498	-0.3498003068	 0.110579
H	-0.6305867589	 1.6494876878	-1.1819758917	 0.137425
H	-0.608985179	 2.0497042295	 0.5420452597	 0.11216
H	 0.540302301	-0.5393657225	-0.6820213466	 0.100541
H	 0.4880991139	-0.1655332946	 1.0401710964	 0.09299
H	-1.9994377028	-0.1281293194	 0.9712845165	 0.074247
H	-1.8488027137	-2.4391100129	-2.1564439934	 0.094674
H	-0.6460439127	-2.7972211764	 0.5266280414	 0.088121
H	-4.0779445095	-0.9480214797	 0.3789780968	 0.136977
H	-4.9931347778	-2.4025744136	-0.0160523909	 0.111809
H	-4.2007381715	-2.2711579791	 1.5597648292	 0.110356
H	-3.0107792559	-4.6553702614	 0.7738250439	 0.118945
H	-3.7797815519	-4.4988014215	-0.812818578	 0.118058
H	-2.0157876656	-4.5925218682	-0.6862362524	 0.113235
89.8666	123.41	165.7033	188.2099	217.4023	237.0666	264.517	290.4605	311.9565	365.2828	439.2391	506.3728	543.7017	692.0923	757.2147	822.6782	839.2076	863.4229	899.8999	929.3295	964.6457	971.207	998.1253	1030.7722	1037.5682	1044.3995	1057.6577	1098.3948	1113.4252	1137.9076	1165.6025	1214.4494	1227.516	1281.0793	1297.5805	1302.9384	1343.3469	1400.8616	1402.5412	1406.6718	1412.899	1424.8161	1475.9193	1484.6152	1489.8478	1498.524	1504.7409	1510.0288	1512.0125	3009.5645	3018.2372	3022.659	3029.9022	3037.0742	3062.0854	3083.0695	3086.6077	3094.5141	3103.7541	3120.7902	3130.5643	3157.2942	3183.4094
CCC1OC2C1C2(C)C	CC[C@H]1O[C@H]2[C@@H]1C2(C)C	
InChI=1S/C8H14O/c1-4-5-6-7(9-5)8(6,2)3/h5-7H,4H2,1-3H3	InChI=1S/C8H14O/c1-4-5-6-7(9-5)8(6,2)3/h5-7H,4H2,1-3H3/t5-,6-,7+/m1/s1
