12
gdb 24519	4.18516	1.77721	1.24748	2.9829	66.57	-0.2642	-0.0654	0.1988	883.4175	0.08242	-431.737257	-431.731792	-431.730847	-431.767134	21.348	
O	-0.0607236645	 1.3493826296	 0.009844228	-0.200501
C	 1.2593699028	 1.7099855942	-0.0007941428	 0.076532
N	 2.1267862609	 0.757698916	-0.0142189287	-0.309529
C	 1.3393162215	-0.3949324278	-0.0128224076	 0.319401
C	-0.0070673634	-0.0153198602	 0.0020606784	 0.270967
C	-0.9887805062	-0.9838846606	 0.0062677478	-0.084899
N	-0.6010496703	-2.2631674386	-0.0042707101	-0.248781
C	 0.7147982019	-2.5272793351	-0.0182552294	 0.057621
N	 1.7339821491	-1.6623430366	-0.0233636307	-0.318933
H	 1.4480264396	 2.7733630082	 0.0030672681	 0.170165
H	-2.0527561964	-0.7659165888	 0.0175893166	 0.138863
H	 0.9825499549	-3.5801441301	-0.0264203097	 0.129095
232.8559	255.2137	429.8185	457.8048	565.8235	624.3937	646.4662	662.5112	807.4199	842.8049	897.025	908.0352	932.6181	945.6989	1001.5136	1082.9556	1126.7951	1182.886	1268.4157	1298.0636	1317.5026	1355.5768	1414.4983	1480.5531	1556.4285	1621.1903	1639.103	3174.1431	3179.7477	3270.5089
O1C=NC2=C1C=NC=N2	o1cnc2c1cncn2	
InChI=1S/C5H3N3O/c1-4-5(7-2-6-1)8-3-9-4/h1-3H	InChI=1S/C5H3N3O/c1-4-5(7-2-6-1)8-3-9-4/h1-3H
