20
gdb 86573	2.87494	1.15684	0.89015	3.6593	75.54	-0.2451	0.0291	0.2742	1323.5826	0.169787	-440.312929	-440.30289	-440.301946	-440.348426	36.578	
C	-0.2138755717	 1.4946014766	 0.047069322	-0.385422
C	 0.0343503709	-0.0077058202	-0.0589929644	-0.033285
C	 1.3008686901	-0.3901106439	-0.8926878997	-0.28642
C	 2.090057686	-0.5102640385	 0.4429513418	-0.110573
C	 0.7328961332	-0.6345294263	 1.1776829495	 0.160382
O	 0.5642343786	 0.0338003464	 2.3973994026	-0.438539
C	 3.095127368	-1.5967324842	 0.7529775433	 0.366228
N	 3.8373842046	-2.0563582097	-0.2926086178	-0.526931
O	 3.2189885545	-2.0254764581	 1.88878323	-0.378281
H	 0.6952664626	 2.0416423218	 0.3157460892	 0.117007
H	-0.5764663019	 1.8903649505	-0.9074823655	 0.107034
H	-0.9608267446	 1.7101572356	 0.8158759274	 0.131549
H	-0.8875967802	-0.5120323966	-0.3614317078	 0.07106
H	 1.1888843398	-1.3533854988	-1.3987840061	 0.103606
H	 1.6509406192	 0.3510828172	-1.6157875236	 0.10016
H	 2.546959326	 0.450051027	 0.7055273939	 0.111771
H	 0.4667656108	-1.697519968	 1.2679517504	 0.073691
H	 1.1538087707	-0.3970336655	 3.0276251151	 0.293294
H	 3.7521777022	-1.6703348613	-1.2160995472	 0.262759
H	 4.548393771	-2.747024034	-0.1149210533	 0.260911
38.1768	86.7252	128.6117	173.1283	209.6248	214.4949	252.1494	302.0716	354.6197	393.2624	479.34	500.7281	551.25	598.87	670.7195	717.505	801.434	829.3544	891.0773	920.2549	989.2302	1013.5879	1052.9301	1072.6551	1099.4454	1117.438	1141.9473	1175.9476	1215.2485	1231.4055	1246.9196	1275.2486	1300.8483	1352.995	1368.5165	1384.2803	1407.1548	1434.6249	1487.6907	1493.7435	1497.0448	1614.0782	1773.5075	2995.2232	3036.6621	3050.2888	3058.6674	3062.9063	3103.0805	3106.5063	3116.4847	3601.0883	3739.9656	3796.9378
CC1CC(C1O)C(N)=O	C[C@H]1C[C@@H]([C@H]1O)C(=O)N	
InChI=1S/C6H11NO2/c1-3-2-4(5(3)8)6(7)9/h3-5,8H,2H2,1H3,(H2,7,9)	InChI=1S/C6H11NO2/c1-3-2-4(5(3)8)6(7)9/h3-5,8H,2H2,1H3,(H2,7,9)/t3-,4-,5-/m0/s1
