18
gdb 109090	3.91351	1.15779	1.01535	3.1868	72.26	-0.2509	0.0166	0.2675	1197.7977	0.148761	-439.090378	-439.082327	-439.081382	-439.123628	29.985	
O	 0.1170325486	 1.3918145033	 0.3740299503	-0.421471
C	 0.0444478126	 0.018044955	 0.1005472489	-0.127092
C	-1.3764928468	-0.4466230083	-0.0032943738	 0.380019
N	-2.3790746603	 0.3260015116	 0.1259933188	-0.33964
C	-3.5767175378	-0.504534949	-0.0332033247	-0.012076
C	-4.2238236183	-0.4459370053	-1.4454211693	-0.225539
C	-3.5447115792	-1.8064338859	-1.8063841225	-0.244734
C	-3.0071378938	-1.9202410656	-0.3599110354	 0.080889
O	-1.5747098852	-1.7683699408	-0.236481871	-0.260678
H	-0.7990660374	 1.7016675259	 0.4256315152	 0.29671
H	 0.5595493875	-0.2248771496	-0.8420504869	 0.119817
H	 0.5437923526	-0.569628321	 0.886563465	 0.121698
H	-4.250257021	-0.3756614548	 0.8173649974	 0.085459
H	-5.3152157722	-0.4917680829	-1.425504062	 0.108121
H	-3.9183634069	 0.4162050632	-2.0408805871	 0.116127
H	-4.227063389	-2.6056051609	-2.1038253426	 0.111121
H	-2.7443313289	-1.7407332307	-2.5464433859	 0.117989
H	-3.3068525945	-2.7916719343	 0.2225954657	 0.093279
69.91	92.6112	142.3707	203.3034	301.4755	375.6151	392.5959	468.673	616.2901	663.9528	691.3596	735.8429	784.552	854.2901	903.5015	921.7505	950.3772	961.6805	1013.5596	1041.6315	1063.0404	1110.5757	1114.0736	1132.8238	1195.2781	1223.5231	1233.4658	1243.0622	1257.3593	1282.6773	1287.9731	1314.4381	1334.582	1365.7393	1467.2302	1481.6451	1485.5062	1505.3123	1718.3256	2987.606	3004.0798	3068.0078	3072.3757	3079.3008	3109.3662	3119.7352	3136.375	3719.5365
OCC1=NC2CCC2O1	OCC1=N[C@H]2CC[C@H]2O1	
InChI=1S/C6H9NO2/c8-3-6-7-4-1-2-5(4)9-6/h4-5,8H,1-3H2	InChI=1S/C6H9NO2/c8-3-6-7-4-1-2-5(4)9-6/h4-5,8H,1-3H2/t4-,5+/m0/s1
