19
gdb 8923	3.45643	1.32634	1.02594	3.8275	72.41	-0.269	0.037	0.306	1163.4519	0.163103	-365.077516	-365.067717	-365.066773	-365.112294	34.214	
C	 0.042993053	 1.3747452931	 0.125563018	-0.241952
O	-0.0654003207	-0.0181077594	-0.0706153064	-0.248387
C	 0.6528075566	-0.5226065758	-1.1846527048	 0.142152
C	 2.1482036919	-0.647492415	-0.8905085763	-0.420277
C	-0.0115403112	-1.8868707691	-1.5034077849	-0.140068
C	-1.5140420342	-1.7503997738	-1.8147636619	-0.400299
C	 0.6802784012	-2.5531787811	-2.6096895642	 0.267391
N	 1.2139514307	-3.0704899939	-3.4951006239	-0.333842
H	 1.0621142979	 1.6848163181	 0.3953051374	 0.11398
H	-0.2640313941	 1.9342511355	-0.7712117901	 0.11005
H	-0.6267699769	 1.6329069805	 0.9492017667	 0.132966
H	 0.5011088845	 0.1419845736	-2.0516961927	 0.080156
H	 2.6812467928	-1.0597838578	-1.7509930658	 0.148995
H	 2.5840463149	 0.3291075696	-0.6640938683	 0.121661
H	 2.3108343433	-1.302822924	-0.0289036233	 0.126657
H	 0.1109927436	-2.5146218292	-0.6112915779	 0.132873
H	-1.6690409746	-1.1468363786	-2.7139679902	 0.130721
H	-1.965682572	-2.7310562724	-1.9815144136	 0.133169
H	-2.0094139168	-1.2640274302	-0.9741309576	 0.144054
60.6893	72.1068	144.2305	192.1854	210.7354	213.4425	236.6192	282.5313	308.9718	385.3121	429.2143	474.6621	556.3369	584.023	816.4559	859.8162	911.1939	985.6057	1030.117	1090.7019	1099.0621	1125.537	1149.7161	1180.975	1190.7838	1224.1016	1290.2199	1327.0293	1367.7617	1379.8263	1406.0273	1410.5775	1478.68	1484.0952	1491.3907	1494.6277	1502.5245	1504.4008	1512.0856	2355.5678	2966.1949	2985.4637	3035.6483	3037.4837	3047.4539	3054.8947	3117.0206	3119.3958	3125.3241	3129.2814	3155.6584
COC(C)C(C)C#N	CO[C@@H](C)[C@@H](C)C#N	
InChI=1S/C6H11NO/c1-5(4-7)6(2)8-3/h5-6H,1-3H3	InChI=1S/C6H11NO/c1-5(4-7)6(2)8-3/h5-6H,1-3H3/t5-,6-/m0/s1
