19
gdb 33412	2.0298	1.4966	0.91869	4.3234	80.28	-0.2563	0.0282	0.2845	1278.0074	0.15907	-382.031851	-382.022974	-382.02203	-382.066009	32.748	
N	-0.4400344275	-1.0915670838	-0.0293463794	-0.325828
C	-0.2243057585	 0.0430477675	-0.0151187586	 0.31415
C	 0.0538412784	 1.4916295786	 0.0268757209	-0.16227
C	 1.5501890175	 1.7480473856	-0.0144761644	 0.038933
C	 2.1291819664	 2.9560405326	 0.6769605111	-0.280851
C	 2.3799898482	 1.5761335407	 1.2294830452	-0.268151
N	-0.6103387335	 2.1288017541	-1.1109548728	-0.061357
C	-2.0455115646	 2.3694021636	-0.976353865	-0.219044
C	-1.0768539045	 3.4963926781	-0.8946960887	-0.222208
H	-0.3405519687	 1.8596749121	 0.9933978035	 0.096992
H	 2.0011572448	 1.454674614	-0.9563201452	 0.112093
H	 2.9434146382	 3.4774336578	 0.1870632401	 0.12305
H	 1.4565393747	 3.6048088941	 1.2282174485	 0.11346
H	 1.871217393	 1.2978308607	 2.1467069623	 0.12114
H	 3.3672996721	 1.1422802565	 1.1238495441	 0.125312
H	-2.6307461732	 2.2025182987	-1.8749132596	 0.130499
H	-2.5311778074	 2.0613542996	-0.0521777613	 0.122186
H	-0.9170111854	 3.9432964847	 0.0846229819	 0.114749
H	-0.93922373	 4.1742891849	-1.7312625124	 0.127145
76.3554	84.2994	139.1825	159.4064	187.6797	328.0781	348.2492	368.2335	447.3648	524.6438	551.027	761.2766	781.7937	830.4156	864.8971	873.0264	907.6081	923.315	961.8326	996.4305	1037.3432	1060.7538	1067.447	1085.8381	1115.4978	1123.9208	1137.3574	1160.7512	1176.1536	1195.6905	1205.2014	1225.4413	1293.442	1313.9952	1334.4337	1411.7043	1471.9438	1492.6501	1506.6235	1520.5363	2363.0454	2915.1934	3103.0939	3107.4769	3135.5406	3139.5804	3172.1509	3189.2553	3203.0172	3214.4368	3228.901
N#CC(C1CC1)N1CC1	N#C[C@@H](C1CC1)N1CC1	
InChI=1S/C7H10N2/c8-5-7(6-1-2-6)9-3-4-9/h6-7H,1-4H2	InChI=1S/C7H10N2/c8-5-7(6-1-2-6)9-3-4-9/h6-7H,1-4H2/t7-/m0/s1
