18
gdb 39940	2.98453	1.5999	1.22462	1.2035	78.29	-0.2357	0.0163	0.2521	1040.1494	0.149574	-401.91562	-401.908354	-401.90741	-401.947297	29.15	
C	-0.3052629879	 1.4389627259	 0.0057671619	-0.276593
N	 1.1059485551	 1.0445844388	-0.0139502464	-0.363809
C	 0.0566575348	-0.0090027231	 0.0412485095	 0.332514
C	 0.0024152844	-0.7740473437	 1.3094177228	-0.090683
C	-0.1317495543	-2.0974158787	 1.3701902507	-0.076829
C	-0.2200929295	-3.0026024421	 0.1709455276	-0.315757
C	-0.3380446046	-2.2651530384	-1.1441873526	 0.049653
O	-1.4888990234	-1.4280933551	-1.3002861994	-0.259065
C	-0.20471802	-0.8020419641	-1.202560476	-0.068914
H	-0.6316059294	 1.9304345513	 0.9184614448	 0.122494
H	-0.7647199456	 1.8199982241	-0.9031717699	 0.118212
H	 1.4786003562	 1.1120206101	-0.9592533476	 0.231332
H	 0.0933957015	-0.1877410234	 2.2190782876	 0.093933
H	-0.1640265937	-2.5851386227	 2.3409010269	 0.093194
H	 0.6697245079	-3.6477912946	 0.1314914311	 0.11711
H	-1.0733279713	-3.6877083324	 0.2730942105	 0.123288
H	-0.0899629015	-2.8446235929	-2.0341535193	 0.090844
H	 0.1342476813	-0.3335076488	-2.1296225821	 0.079075
82.2837	217.8685	267.2029	317.5959	341.8726	427.0175	453.2221	533.4191	570.1719	699.4838	730.8448	788.3571	851.6165	872.7589	899.6406	923.3024	930.277	955.5782	976.6223	985.8124	997.9983	1034.5986	1068.0618	1095.8352	1131.7075	1144.8451	1201.5011	1238.993	1255.123	1285.4962	1306.3876	1346.9191	1375.301	1398.244	1445.4391	1463.5982	1479.5524	1508.4452	1729.8307	3004.3394	3029.0545	3076.7831	3103.0037	3104.3584	3155.5062	3179.3795	3189.441	3480.8262
C1NC11C=CCC2OC12	C1N[C@]21C=CC[C@H]1O[C@@H]21	
InChI=1S/C7H9NO/c1-2-5-6(9-5)7(3-1)4-8-7/h1,3,5-6,8H,2,4H2	InChI=1S/C7H9NO/c1-2-5-6(9-5)7(3-1)4-8-7/h1,3,5-6,8H,2,4H2/t5-,6-,7+/m1/s1
