19
gdb 100511	2.63018	1.07297	0.8414	1.8619	73.56	-0.2541	-0.0956	0.1586	1416.8433	0.154995	-460.198972	-460.188288	-460.187344	-460.235756	37.085	
C	-0.0112975914	 1.5682846774	 0.0384876696	-0.38265
C	-0.0758215165	 0.0569893316	-0.1904585583	-0.199421
C	 0.8333483411	-0.3763599463	-1.3662695512	 0.056601
O	 2.1694871914	 0.0060359039	-1.1516206004	-0.437451
C	 0.7610287188	-1.8817178657	-1.5595558727	 0.246296
O	 1.7080171349	-2.5920506775	-1.2948689078	-0.310544
C	-0.5404737371	-2.5004820797	-2.1145298534	 0.319073
C	-0.5867949611	-4.005686607	-2.1705576307	-0.475048
O	-1.4320736035	-1.7747545819	-2.4888534786	-0.274132
H	 1.0191178973	 1.8848464062	 0.2156852916	 0.140288
H	-0.3895861387	 2.1134824472	-0.8330751729	 0.118274
H	-0.6170718196	 1.8554156332	 0.9030561504	 0.11254
H	 0.2550234912	-0.4732993067	 0.7115228219	 0.099926
H	-1.1031164472	-0.2539689942	-0.4031249	 0.120121
H	 0.4599283105	 0.1044568244	-2.2813411057	 0.109424
H	 2.6535018463	-0.8100862486	-0.9551566124	 0.291293
H	-0.4715923202	-4.4208513897	-1.1635833477	 0.157184
H	-1.5321244041	-4.3281762899	-2.6068753001	 0.146196
H	 0.2570274677	-4.3860074668	-2.7543747415	 0.162027
38.7635	69.9096	90.2322	113.5714	155.9441	201.0577	238.5777	294.3406	326.1592	356.5924	374.7828	421.9282	477.0611	543.1749	597.7169	688.4715	775.1992	844.457	893.7428	927.8327	1000.2465	1019.1243	1064.6515	1074.2051	1108.8561	1161.1082	1234.921	1283.5664	1292.4626	1339.3471	1363.0122	1385.3513	1405.1888	1435.3049	1452.558	1460.6849	1479.2244	1494.5482	1509.4119	1782.7105	1805.0068	3015.2833	3032.8339	3040.0742	3049.075	3090.8787	3106.2916	3110.5594	3132.0003	3163.9967	3713.1109
CCC(O)C(=O)C(C)=O	CC[C@@H](O)C(=O)C(=O)C	
InChI=1S/C6H10O3/c1-3-5(8)6(9)4(2)7/h5,8H,3H2,1-2H3	InChI=1S/C6H10O3/c1-3-5(8)6(9)4(2)7/h5,8H,3H2,1-2H3/t5-/m1/s1
