21
gdb 68008	2.76286	1.51408	1.17365	2.9825	82.88	-0.2303	-0.0025	0.2278	1132.2771	0.182292	-387.119653	-387.111031	-387.110087	-387.152222	34.259	
C	-0.0319473779	 1.5246087615	 0.0314610528	-0.493183
C	 0.010996515	 0.0143855342	 0.0282644294	 0.334951
C	 0.9726382517	-0.7864065531	-0.9029537737	-0.303718
C	 0.7376795059	-1.9467804424	 0.1283197603	 0.216565
C	 1.6236631484	-3.1582156711	 0.2580182675	-0.500593
C	 0.6464553781	-0.8001344902	 1.196999133	-0.303719
C	-0.751096273	-2.182162415	-0.1044696471	 0.411129
O	-1.3328050617	-3.2300238029	-0.2016752041	-0.342881
C	-1.3146452158	-0.7493590358	-0.1826401506	-0.374053
H	 0.9657364875	 1.9480586855	 0.1892750954	 0.113682
H	-0.4140465642	 1.911594047	-0.9200525748	 0.11842
H	-0.6855527919	 1.9001805317	 0.8269993721	 0.118419
H	 0.6773222585	-0.9490829433	-1.9445158493	 0.098188
H	 2.0012206076	-0.4175075238	-0.8568442519	 0.100684
H	 2.6679465574	-2.875175717	 0.4220830857	 0.110204
H	 1.3014438367	-3.7854708116	 1.09545967	 0.129478
H	 1.5718979828	-3.7740799805	-0.645648605	 0.129477
H	 1.6398305075	-0.4327158156	 1.4697697576	 0.100685
H	 0.0494448078	-0.9755086177	 2.0977483359	 0.098188
H	-2.0590699911	-0.5696259715	 0.600422716	 0.119039
H	-1.7868291682	-0.5581705485	-1.1522529369	 0.119039
128.9692	173.4097	212.8896	226.9064	242.8077	272.0814	349.4666	416.7356	478.8177	500.5861	547.1406	606.5919	630.2632	684.8313	759.7369	799.5195	863.182	879.9431	937.1792	940.9379	975.356	1025.5677	1029.747	1054.1038	1069.3955	1097.8277	1122.8819	1136.8373	1198.9164	1201.3573	1231.7587	1234.7434	1266.0747	1340.0101	1354.1894	1415.9722	1420.3122	1462.5675	1485.6717	1488.547	1488.6518	1493.1827	1493.9021	1526.4453	1861.9817	3024.1568	3035.891	3040.9772	3043.5323	3048.6105	3089.1142	3091.4518	3094.1682	3103.32	3104.553	3105.2662	3108.0979
CC12CC(C)(C1)C(=O)C2	C[C@@]12C[C@@](C)(C1)C(=O)C2	
InChI=1S/C8H12O/c1-7-3-6(9)8(2,4-7)5-7/h3-5H2,1-2H3	InChI=1S/C8H12O/c1-7-3-6(9)8(2,4-7)5-7/h3-5H2,1-2H3/t7-,8+
