18
gdb 55832	3.76229	0.91611	0.81529	1.7686	74.56	-0.2514	-0.0222	0.2292	1413.9104	0.145827	-439.109104	-439.099918	-439.098974	-439.144537	32.778	
C	-0.0753325974	 1.0313973312	-0.7373314674	-0.481782
C	 0.1610827994	-0.060087977	 0.2819641744	 0.391741
O	 1.2413805437	-0.2804518215	 0.7769898205	-0.303589
C	-1.0445454062	-0.9395860622	 0.6357817995	-0.310756
C	-0.963461417	-2.2623994403	-0.1117475948	 0.139037
C	-2.1987578689	-3.1880624583	-0.1025415125	-0.388482
C	-2.2270068619	-2.9105906548	-1.5907050375	 0.442454
N	-2.9514838955	-3.272481249	-2.5455661928	-0.534584
O	-1.1214756662	-2.0792230849	-1.5644542448	-0.269782
H	 0.8569136906	 1.5507320113	-0.9613393874	 0.142397
H	-0.4931177768	 0.5856193279	-1.6472685578	 0.159375
H	-0.8183851242	 1.7449657496	-0.3621269968	 0.139121
H	-1.0055990757	-1.1499411296	 1.7095913051	 0.134612
H	-1.9921225321	-0.4438876361	 0.4014866559	 0.109015
H	-0.0104810593	-2.7578573996	 0.0909401161	 0.11809
H	-2.0172834178	-4.2294018269	 0.1669994215	 0.144176
H	-3.0647926836	-2.8142152845	 0.4470943932	 0.138839
H	-2.637565311	-2.8656339255	-3.4282579547	 0.230117
34.8537	65.977	98.9927	147.3023	174.8656	287.3604	376.5577	398.9047	468.7008	497.3441	523.4616	594.3774	716.4769	795.8864	832.5529	865.3264	871.969	918.507	954.949	984.8385	1013.6177	1052.4085	1059.1669	1092.1517	1135.3272	1188.0969	1223.8183	1237.2906	1245.2429	1298.6978	1347.0067	1378.249	1385.4067	1458.9253	1465.1739	1469.5155	1473.2584	1816.7339	1829.9722	3033.4662	3047.0476	3083.0469	3087.5182	3096.231	3107.1373	3143.0162	3155.6539	3478.4567
CC(=O)CC1CC(=N)O1	CC(=O)C[C@H]1C[C]([NH])O1	
InChI=1S/C6H9NO2/c1-4(8)2-5-3-6(7)9-5/h5,7H,2-3H2,1H3	InChI=1S/C6H9NO2/c1-4(8)2-5-3-6(7)9-5/h5,7H,2-3H2,1H3/t5-/m0/s1
