18
gdb 13102	4.13485	1.20023	0.99075	2.3962	72.33	-0.2314	0.0261	0.2575	1208.8317	0.152989	-381.106237	-381.097266	-381.096322	-381.140614	31.67	
C	-0.0221993578	 1.3480164692	 0.4860292665	-0.365833
C	-0.1632279472	 0.385332958	-0.6908133006	-0.132936
N	-1.5600484641	 0.0121148131	-0.8839794681	-0.341859
C	-1.8247719487	-1.0534146485	-1.5056998076	 0.377584
N	-1.1260121939	-2.0819759777	-2.1269171212	-0.352401
C	-2.2849980644	-3.0006726856	-2.1121297006	-0.183155
C	-3.1575094647	-1.7719955489	-1.6992357718	 0.041329
O	-3.9271428873	-1.9143817798	-0.5358567037	-0.437096
H	 1.0200496586	 1.6549603241	 0.6195200842	 0.104606
H	-0.6308681392	 2.2415440375	 0.3202298108	 0.124733
H	-0.3646403951	 0.8771539075	 1.4126581312	 0.115594
H	 0.2139023801	 0.8669929721	-1.6049607196	 0.105847
H	 0.4765912729	-0.498415854	-0.5218051018	 0.074476
H	-0.1595431098	-2.3320436526	-1.972434679	 0.245785
H	-2.4969929417	-3.4692810481	-3.0765887249	 0.111079
H	-2.2586033364	-3.7518643461	-1.3168657354	 0.12001
H	-3.7576364187	-1.3821711518	-2.5313385552	 0.095513
H	-3.6878770426	-1.1726509083	 0.0341844467	 0.296725
36.264	110.7729	123.4153	160.4833	234.2155	249.8958	295.8718	362.4152	406.6152	484.5718	540.2426	693.9326	773.2967	800.2094	853.9048	909.4562	932.3703	988.9303	1058.2927	1080.2494	1113.0331	1138.842	1145.2537	1169.8276	1196.0936	1210.4179	1293.5965	1300.2492	1352.8373	1377.5813	1385.3652	1391.1256	1411.2403	1480.5444	1487.9992	1505.4568	1514.9223	1814.9106	2944.4696	3006.1751	3024.9583	3038.9017	3049.2793	3108.1141	3109.9964	3117.2063	3594.0383	3776.7631
CCN=C1NCC1O	CCN=C1NC[C@H]1O	
InChI=1S/C5H10N2O/c1-2-6-5-4(8)3-7-5/h4,8H,2-3H2,1H3,(H,6,7)	InChI=1S/C5H10N2O/c1-2-6-5-4(8)3-7-5/h4,8H,2-3H2,1H3,(H,6,7)/t4-/m1/s1
