18
gdb 19861	3.69066	2.20409	1.99739	1.6364	69.76	-0.23	0.0858	0.3158	766.4806	0.156854	-347.772928	-347.766732	-347.765787	-347.802983	25.399	
C	 0.0082009689	 1.4805477955	 0.0207560044	-0.291377
C	 1.3285853641	 0.7597611427	 0.0767542099	-0.0608
C	 0.0137908582	-0.0234158434	 0.0850991029	-0.060798
C	 0.3692067741	-0.6694766704	-1.2705388907	-0.034742
C	-0.3462181506	-0.2168987471	-2.5457108887	-0.104654
O	 0.2650043939	 1.0180791589	-2.9261323732	-0.252308
C	 1.6455321478	 0.9694674376	-2.5583462321	-0.104652
C	 1.7147319011	 0.1319827546	-1.2790697436	-0.034742
H	-0.2723908394	 1.9615243726	 0.9531102569	 0.105863
H	-0.3114023051	 2.0075982391	-0.870374947	 0.136581
H	 2.0250567784	 0.9191281872	 0.8912119446	 0.081849
H	-0.4503489362	-0.5553876046	 0.9069214603	 0.081849
H	 0.4820996587	-1.7526551222	-1.2073970882	 0.073191
H	-0.2210129016	-0.9670155222	-3.3439434168	 0.086263
H	-1.415197191	-0.0240354756	-2.4155923452	 0.109512
H	 2.2380037733	 0.497667246	-3.3595382133	 0.086262
H	 1.9862174713	 2.0019859178	-2.4371766976	 0.109512
H	 2.613992724	-0.4827976364	-1.2209055327	 0.073192
154.4061	229.1434	278.7417	385.7107	492.1446	618.2754	726.6969	742.2354	761.8364	784.7211	841.9691	892.7886	914.8747	915.0267	940.8753	994.4436	998.4884	1016.7788	1066.337	1067.4676	1091.9851	1093.1582	1099.3525	1116.2016	1156.2916	1188.2509	1211.9948	1245.2502	1268.2155	1294.8836	1321.3833	1327.3497	1351.8325	1365.4209	1399.4833	1487.7834	1498.5613	1510.9407	2962.9694	2969.965	3080.8634	3084.0175	3093.8481	3104.9026	3129.781	3173.0875	3183.735	3216.3619
C1C2C1C1COCC21	C1[C@H]2[C@@H]1[C@H]1COC[C@@H]21	
InChI=1S/C7H10O/c1-4-5(1)7-3-8-2-6(4)7/h4-7H,1-3H2	InChI=1S/C7H10O/c1-4-5(1)7-3-8-2-6(4)7/h4-7H,1-3H2/t4-,5+,6-,7+
