23
gdb 115799	3.80055	1.03209	0.92444	1.3638	85.39	-0.2233	0.0854	0.3087	1389.6845	0.205669	-388.29329	-388.283978	-388.283034	-388.327062	36.036	
C	 0.0182213672	 1.5602699694	-0.0429066588	-0.385191
C	 0.021808447	 0.0279819412	 0.0049572643	-0.184512
C	-1.3809900037	-0.5890180451	 0.0376987587	 0.009427
C	-2.2239867268	-0.3009458255	-1.2305651378	-0.109689
O	-3.118493982	-1.3955000986	-1.4015789596	-0.297492
C	-2.5587134263	-2.5372094199	-0.78597908	 0.452663
C	-3.5979169697	-3.5750893742	-0.4746038901	-0.466067
C	-1.1396100103	-2.8885169015	-1.1638972922	-0.361721
C	-1.4352691042	-2.1089213516	 0.1131959675	-0.135671
H	 1.0373723515	 1.9587208235	-0.0314379408	 0.113545
H	-0.4709597584	 1.9356819004	-0.9481974046	 0.119589
H	-0.5129975403	 1.9812586747	 0.818246257	 0.114481
H	 0.5670711902	-0.3691354294	-0.8610217274	 0.095892
H	 0.5757214524	-0.3050632925	 0.8912931968	 0.095822
H	-1.9141938697	-0.1966387241	 0.9147416217	 0.072462
H	-2.8220949691	 0.6117346682	-1.1623122632	 0.108417
H	-1.5647491584	-0.2030704484	-2.1074306225	 0.090206
H	-4.0798795649	-3.9272706135	-1.3926981205	 0.126871
H	-3.1443827173	-4.4363150301	 0.0234213263	 0.115047
H	-4.3736604526	-3.1620231036	 0.1782572117	 0.121808
H	-0.8352724571	-3.9233701308	-1.0468482256	 0.10876
H	-0.6725987813	-2.3837160598	-2.0029339413	 0.112314
H	-1.258986886	-2.5884456689	 1.0699866804	 0.083039
86.9128	119.3758	175.7829	204.386	211.7948	248.8317	294.4246	355.8025	410.1986	431.1522	483.0705	609.2211	642.4738	716.5769	775.7767	832.0297	836.6369	911.6669	921.7449	945.8085	953.9404	984.1152	1000.6486	1034.3278	1048.7683	1055.2102	1087.1338	1114.3904	1125.3533	1141.5312	1175.6132	1238.3631	1246.5915	1277.5969	1288.5502	1312.5294	1349.8733	1373.9413	1392.9295	1402.0245	1411.1376	1429.6984	1477.1095	1484.832	1486.27	1501.1084	1504.9162	1507.5015	1525.145	2976.8608	3005.9927	3021.1335	3030.4747	3035.9759	3053.5701	3084.0627	3096.8719	3100.0344	3103.0779	3117.7972	3129.9152	3163.9762	3213.8658
CCC1COC2(C)CC12	CC[C@H]1CO[C@@]2(C)C[C@@H]12	
InChI=1S/C8H14O/c1-3-6-5-9-8(2)4-7(6)8/h6-7H,3-5H2,1-2H3	InChI=1S/C8H14O/c1-3-6-5-9-8(2)4-7(6)8/h6-7H,3-5H2,1-2H3/t6-,7-,8-/m0/s1
