15
gdb 124006	3.89542	1.65793	1.18205	5.6347	74.51	-0.2109	-0.0259	0.185	972.2671	0.116745	-412.988576	-412.981979	-412.981035	-413.019596	25.793	
C	 0.0783240702	 1.4365278822	 0.3284241773	-0.227826
N	 1.0898726136	 2.1151822598	-0.4956714297	-0.417946
C	 2.2042986595	 1.4009448024	-0.8764576449	 0.403211
C	 3.4860924699	 1.6807312825	-1.296840468	-0.187231
N	 4.0834315738	 0.5001906636	-1.653070349	-0.178298
N	 3.2687000719	-0.4880098824	-1.4835208234	-0.167705
N	 2.101589999	 0.0520268393	-1.0020231224	-0.022575
C	 0.9392616224	-0.6514156514	-0.6950999556	 0.046131
C	-0.0580121712	-0.0098285751	-0.0868337543	-0.11963
H	 0.3176446552	 1.4900369102	 1.4067286909	 0.115432
H	-0.8740241585	 1.9604084052	 0.1935065261	 0.126491
H	 1.2704601745	 3.0740338482	-0.2415202791	 0.253082
H	 3.9994111857	 2.6246507749	-1.3705029698	 0.11444
H	 0.9376192606	-1.6904947857	-0.9944056371	 0.145057
H	-0.9731344865	-0.5315044337	 0.1614409188	 0.117367
124.8831	157.9427	314.3056	393.5482	427.2657	495.0205	570.0894	619.7136	685.9981	703.9481	749.3107	759.2376	782.1813	893.6779	916.4134	961.2263	989.1295	1032.8229	1064.6297	1111.7431	1161.8377	1195.1627	1240.2723	1268.8296	1302.6268	1345.5548	1370.0675	1397.4736	1471.7578	1514.0405	1532.9783	1632.4439	1724.4242	2921.7644	3053.9018	3216.6802	3244.1201	3276.5095	3621.737
C1NC2=CN=NN2C=C1	C1Nc2cnnn2C=C1	
InChI=1S/C5H6N4/c1-2-6-5-4-7-8-9(5)3-1/h1,3-4,6H,2H2	InChI=1S/C5H6N4/c1-2-6-5-4-7-8-9(5)3-1/h1,3-4,6H,2H2
