22
gdb 88830	2.94373	1.10318	0.886	1.4906	82.88	-0.2409	0.0693	0.3102	1393.7748	0.193885	-404.306601	-404.296913	-404.295968	-404.342368	35.374	
C	 0.2299700972	 1.5687017041	-0.3638626581	-0.395724
C	-0.0356404929	 0.1356680364	 0.0298974638	 0.000039
N	 1.1008031108	-0.7994415744	 0.0126147466	-0.349648
C	 0.4293506928	-0.5042641747	 1.2942423244	-0.036169
C	 1.2591845926	 0.1971904645	 2.3313418163	 0.152599
O	 0.4413480641	 0.7580399823	 3.3884041259	-0.299203
C	 1.2175317023	 0.1000621076	 4.409558136	-0.076393
C	 2.074719245	-0.6429929297	 3.3608792297	-0.050042
C	 1.9545038144	-2.1609533283	 3.3282572406	-0.410939
H	 1.2180079726	 1.8978345217	-0.0362805123	 0.129262
H	 0.1901227867	 1.6761262682	-1.4531761249	 0.117045
H	-0.5214235975	 2.2359312084	 0.0711663932	 0.124373
H	-0.9848544025	-0.2520200193	-0.3398837711	 0.081959
H	 0.8170226403	-1.7115105197	-0.3333201605	 0.230802
H	-0.2342534573	-1.2643177684	 1.7024550137	 0.078741
H	 1.8703969066	 0.9710850254	 1.8523886655	 0.071985
H	 1.7573263845	 0.8174033052	 5.0412733864	 0.096133
H	 0.5931815784	-0.5351840599	 5.051922364	 0.095508
H	 3.129593297	-0.3584988927	 3.3812833063	 0.080166
H	 0.9101046261	-2.4875426303	 3.3652892757	 0.117378
H	 2.4072919279	-2.5748026033	 2.4216678358	 0.126925
H	 2.4665645709	-2.603047733	 4.1897559132	 0.115204
29.1257	60.5556	119.9846	174.4162	201.7705	240.9053	255.1386	354.9682	390.2399	411.6035	462.1713	550.7958	755.248	782.5713	846.4226	853.591	885.1176	920.5711	949.316	964.276	1002.4806	1018.5259	1023.3716	1045.9821	1063.3468	1107.1892	1128.6618	1154.5324	1161.6902	1189.4936	1222.2147	1258.3491	1262.0063	1268.3574	1282.58	1334.1045	1350.2817	1379.6001	1406.168	1413.0804	1435.8982	1472.6866	1492.0719	1496.633	1501.1484	1505.1139	1528.8177	3002.8651	3030.1612	3032.4159	3039.4494	3041.7062	3073.0983	3097.5512	3098.6924	3101.2363	3106.6263	3124.0896	3135.1687	3509.4953
CC1NC1C1OCC1C	C[C@H]1N[C@H]1[C@H]1OC[C@H]1C	
InChI=1S/C7H13NO/c1-4-3-9-7(4)6-5(2)8-6/h4-8H,3H2,1-2H3	InChI=1S/C7H13NO/c1-4-3-9-7(4)6-5(2)8-6/h4-8H,3H2,1-2H3/t4-,5-,6-,7+/m1/s1
