19
gdb 28311	3.04553	1.45595	1.0125	1.7931	86.08	-0.1708	0.0494	0.2202	1183.8142	0.160753	-382.071385	-382.062649	-382.061705	-382.104626	32.858	
C	-0.0225805501	 1.5063800237	 0.0131219822	-0.516446
C	-0.0297585406	 0.0096155157	 0.0035457768	 0.063717
C	-0.1207978619	-0.8637639912	-1.054544821	 0.224743
C	 0.1853042754	-1.2707138715	-2.487050913	-0.360552
C	 0.3550777352	-2.7122977511	-1.8837525447	-0.16708
N	-0.1248634507	-2.1542366423	-0.6010348071	 0.004191
C	 0.0461142929	-2.1743665584	 0.7688622557	-0.250294
C	 0.0287451794	-0.8454641729	 1.1662016063	 0.19602
N	-0.0516053433	-0.3624542358	 2.4867459169	-0.597453
H	 0.876913161	 1.914120373	 0.4948367279	 0.110792
H	-0.0510686828	 1.905507136	-1.0047165006	 0.118979
H	-0.8850392778	 1.9183805867	 0.5527285658	 0.128194
H	-0.6271937171	-1.1638504702	-3.2113604415	 0.11649
H	 1.1003614868	-0.8554420517	-2.9171446197	 0.118614
H	-0.2757964954	-3.5089416915	-2.2885575613	 0.114966
H	 1.3964680604	-3.0475036783	-1.8498451507	 0.120957
H	 0.0154199303	-3.078202722	 1.3567181068	 0.100305
H	 0.2764182451	-1.0366366629	 3.1668411665	 0.23645
H	 0.4634415831	 0.5009261647	 2.6103312046	 0.237405
101.3883	113.2571	169.9391	216.2553	224.0562	280.4136	312.6768	317.8428	547.9494	574.9864	625.5198	645.7299	650.7641	690.6091	771.9839	802.5374	828.937	857.4205	927.9071	1028.522	1051.6869	1061.3618	1086.4873	1116.9404	1134.7965	1175.8879	1185.6113	1235.2385	1243.9049	1278.707	1366.7108	1407.6989	1417.2421	1438.3359	1482.1944	1486.5723	1498.7323	1514.3557	1548.8933	1644.6234	1660.625	3004.5279	3043.5571	3046.7911	3055.8921	3089.915	3102.4992	3106.6264	3249.9932	3523.6639	3613.6093
CC1=C2CCN2C=C1N	Cc1c2CCn2cc1N	
InChI=1S/C7H10N2/c1-5-6(8)4-9-3-2-7(5)9/h4H,2-3,8H2,1H3	InChI=1S/C7H10N2/c1-5-6(8)4-9-3-2-7(5)9/h4H,2-3,8H2,1H3
