18
gdb 39937	3.01818	1.65187	1.25921	1.8787	77.29	-0.2284	0.0272	0.2557	1017.6372	0.149444	-401.931532	-401.924318	-401.923374	-401.963207	29.16	
C	-0.2269679878	 1.4067613684	 0.0892108911	-0.298307
C	 1.2099653368	 0.9973236771	-0.0870378578	-0.310005
C	 0.1311790537	-0.0631734618	-0.0032430209	 0.363716
N	 0.0920687975	-0.7666206238	 1.2447382991	-0.309811
C	-0.2011905171	-1.9952407363	 1.2716410737	 0.09924
O	-0.5260390344	-2.8334679653	 0.2517256977	-0.228284
C	-0.5376290776	-2.2928203413	-1.0493542634	 0.106849
C	-1.6385335399	-1.3492902227	-1.4389366961	-0.324806
C	-0.2197111048	-0.8390915768	-1.2425799033	-0.149243
H	-0.5342657496	 1.769897225	 1.062584106	 0.122492
H	-0.7457039294	 1.8467426209	-0.755605189	 0.112461
H	 1.6820729733	 1.1641470358	-1.0494041628	 0.110829
H	 1.8690468516	 1.0800439546	 0.7684664462	 0.125231
H	-0.2261210311	-2.5416571662	 2.211157846	 0.124503
H	-0.1830986559	-3.0324885015	-1.7572897114	 0.111509
H	-2.0373619175	-1.4134937895	-2.4452148372	 0.11743
H	-2.3646034319	-1.098112586	-0.6726968746	 0.131396
H	 0.3359238042	-0.5789772306	-2.1376627334	 0.094801
74.6517	197.5669	306.4315	307.4866	355.2568	426.1907	496.4957	565.4437	617.7572	682.1385	770.5515	779.8234	824.8703	851.7039	896.1	907.2697	927.9693	963.8697	983.842	989.7811	1020.372	1051.8159	1054.9727	1068.0107	1082.9853	1111.7283	1122.8927	1176.9695	1194.4169	1238.9707	1275.7914	1307.4112	1377.2784	1409.957	1424.2578	1453.8201	1477.9834	1491.4605	1730.6707	3132.9775	3135.3068	3138.8407	3155.3955	3172.0021	3181.2361	3223.6055	3224.5714	3237.4999
C1CC11N=COC2CC12	C1CC21N=CO[C@H]1C[C@@H]21	
InChI=1S/C7H9NO/c1-2-7(1)5-3-6(5)9-4-8-7/h4-6H,1-3H2	InChI=1S/C7H9NO/c1-2-7(1)5-3-6(5)9-4-8-7/h4-6H,1-3H2/t5-,6+/m1/s1
