12
gdb 133352	2.47743	1.81575	1.04874	4.4031	62.75	-0.2326	-0.0731	0.1595	1007.0411	0.076995	-513.892092	-513.884826	-513.883882	-513.923811	27.423	
N	 0.0221752229	 1.3748992151	 0.1470116437	-0.585946
C	-0.0405306932	 0.0040246553	 0.04682373	 0.142399
C	-1.1708206703	-0.7485295369	 0.0212980058	 0.024505
O	-1.1919055199	-2.0982615491	-0.0246944769	-0.218176
N	-0.0351033043	-2.8232792295	-0.0422501415	-0.122676
C	 1.0642806174	-2.1507810702	-0.024228241	 0.249237
F	 2.1645570568	-2.873063482	-0.0513502218	-0.028869
C	 1.2370202002	-0.6946258446	 0.0088707855	 0.236083
O	 2.3207927874	-0.1283516437	-0.0050201382	-0.376061
H	 0.9433445486	 1.7291094807	-0.0772297471	 0.274442
H	-0.7407266597	 1.9127044613	-0.2321564882	 0.258321
H	-2.181236556	-0.3585625664	 0.0364872696	 0.146742
106.1849	248.4731	290.8972	313.3943	328.6252	372.6968	466.2932	474.7161	539.2755	547.7488	584.3467	602.7745	694.898	789.4215	855.5726	878.3265	1000.1845	1037.3198	1155.	1220.0314	1347.6571	1394.0688	1463.1682	1606.2316	1619.0266	1674.7365	1739.1121	3214.3854	3553.9294	3678.5346
NC1=CON=C(F)C1=O	Nc1conc(F)c1=O	
InChI=1S/C4H3FN2O2/c5-4-3(8)2(6)1-9-7-4/h1H,6H2	InChI=1S/C4H3FN2O2/c5-4-3(8)2(6)1-9-7-4/h1H,6H2
