22
gdb 118508	2.05564	1.35411	1.118	1.6291	78.54	-0.222	0.0773	0.2993	1243.9324	0.193399	-441.426079	-441.416027	-441.415082	-441.461511	36.573	
C	 0.4090514671	 0.6656907352	 0.6993742758	-0.245014
O	-0.0556332495	 0.0508483012	-0.4911234932	-0.25394
C	-1.382861635	-0.4713663714	-0.4206676305	-0.08367
C	-1.4380541704	-1.9824065058	-0.1455158908	 0.014872
C	-0.6926150913	-2.7734051682	-1.2432539122	-0.087901
O	 0.6873370492	-2.4805671845	-1.3555719475	-0.422325
N	-1.0960830907	-2.2360111714	 1.2617206883	-0.097494
C	-1.079497076	-3.6100792285	 1.7472535799	-0.233045
C	 0.187551944	-2.8385928606	 1.6373746475	-0.226326
H	 1.4191611847	 1.028830808	 0.4946984353	 0.127962
H	-0.2266460737	 1.5208983865	 0.9692510371	 0.113937
H	 0.4355192955	-0.0324387141	 1.5428761933	 0.136507
H	-1.9567535989	 0.0584437662	 0.3490190109	 0.105758
H	-1.8428778088	-0.2716811025	-1.3963165451	 0.103942
H	-2.5000353478	-2.2533983285	-0.2462758963	 0.083516
H	-0.7728664572	-3.8511704123	-1.0600465884	 0.103672
H	-1.2186778168	-2.5818407749	-2.1947986615	 0.087403
H	 0.7735392618	-1.5216699151	-1.2461865961	 0.293653
H	-1.5528772431	-3.7682499412	 2.7130004616	 0.112743
H	-1.2316289406	-4.419040643	 1.0351726889	 0.109991
H	 0.8792055888	-3.107820858	 0.8468864957	 0.1498
H	 0.6423852286	-2.4196382972	 2.5321693773	 0.105956
58.8309	80.4942	107.1177	152.3404	183.6757	235.0051	250.147	303.1052	330.4559	373.9413	435.1212	508.9991	583.0579	671.3558	796.3693	823.15	847.3904	873.2041	914.6022	946.6151	991.2942	1013.0685	1051.8023	1100.4251	1112.6832	1133.3949	1135.4319	1146.8871	1181.2755	1184.6805	1193.8969	1213.2858	1253.2665	1307.6501	1324.0166	1336.5413	1363.2829	1387.5051	1409.2052	1471.2601	1476.4057	1484.9453	1495.5091	1497.8917	1511.3941	1514.356	1530.5312	2950.8956	2996.9785	3002.5068	3022.3002	3054.0282	3070.5902	3077.8449	3097.4847	3108.0952	3122.7439	3176.5161	3215.6509	3700.0079
COCC(CO)N1CC1	COC[C@@H](CO)N1CC1	
InChI=1S/C6H13NO2/c1-9-5-6(4-8)7-2-3-7/h6,8H,2-5H2,1H3	InChI=1S/C6H13NO2/c1-9-5-6(4-8)7-2-3-7/h6,8H,2-5H2,1H3/t6-/m1/s1
