21
gdb 73836	2.35918	1.62628	1.08859	1.8017	85.33	-0.2205	0.0147	0.2353	1180.6257	0.182669	-387.101226	-387.092341	-387.091397	-387.134484	34.075	
C	 0.1024223794	 1.5614883275	-0.0317185476	-0.486316
C	-0.0053610721	 0.0630469178	 0.0580621096	 0.188534
C	-1.1497609663	-0.6390104734	-0.0018613493	 0.24797
C	-2.5398811191	-0.0692960364	-0.1247015308	-0.503826
C	-1.1000634102	-2.1314521619	 0.0521404738	-0.030875
O	-0.2103613939	-2.823502727	-0.858532478	-0.263425
C	 0.1063344942	-2.8210005961	 0.5325108399	 0.051203
C	 1.2722526736	-1.9667747242	 0.9637755983	-0.253564
C	 1.3286242902	-0.6527995025	 0.1664678905	-0.294011
H	 0.7760217061	 1.8462633249	-0.8508235046	 0.127345
H	-0.8513596825	 2.0626232914	-0.1998499292	 0.120868
H	 0.5445600031	 1.9735537408	 0.8850582793	 0.123572
H	-2.5670935578	 1.019346676	-0.0729148844	 0.122556
H	-3.0049082669	-0.3725431738	-1.0718540306	 0.131147
H	-3.1875898442	-0.45289892	 0.6742703402	 0.123021
H	-2.0618902235	-2.6312658644	 0.1621777272	 0.081054
H	-0.0024636787	-3.7882588281	 1.0251815553	 0.08398
H	 1.1549178266	-1.7569485597	 2.0354496208	 0.103877
H	 2.2145972722	-2.5144964839	 0.8501507013	 0.105245
H	 1.695828129	-0.8688896339	-0.8445242302	 0.128008
H	 2.0677215408	 0.0157733968	 0.6224778185	 0.093638
124.1742	133.0425	142.1028	156.9071	264.6443	332.2586	343.7118	367.6269	391.5092	489.6871	521.9255	589.6365	692.2268	703.1818	791.3538	826.2446	889.9946	894.4067	953.8926	993.7202	1002.1842	1027.1662	1066.1471	1068.1679	1086.4328	1129.6214	1146.5239	1169.9946	1209.8632	1251.8421	1271.4564	1287.046	1349.6274	1380.0423	1391.4824	1405.6804	1422.3629	1461.315	1475.7093	1480.367	1484.6957	1485.881	1487.3504	1500.2759	1728.4552	3014.1206	3017.6984	3021.1524	3027.831	3055.1871	3058.1162	3059.1382	3068.3712	3097.7797	3116.2321	3130.3195	3144.6115
CC1=C(C)C2OC2CC1	CC1=C(C)[C@H]2O[C@H]2CC1	
InChI=1S/C8H12O/c1-5-3-4-7-8(9-7)6(5)2/h7-8H,3-4H2,1-2H3	InChI=1S/C8H12O/c1-5-3-4-7-8(9-7)6(5)2/h7-8H,3-4H2,1-2H3/t7-,8+/m0/s1
