14
gdb 16798	3.74588	1.95639	1.39379	4.0216	64.44	-0.2419	-0.0657	0.1762	861.5665	0.106773	-382.545447	-382.538583	-382.537639	-382.576482	25.563	
C	-0.0244855902	 1.4889614849	 0.0756080687	-0.499095
C	-0.0207772842	 0.0018717562	-0.0251892398	 0.337124
C	 0.0141427972	-0.762198311	-1.1306984106	-0.310216
C	-0.006233093	-2.2085604809	-0.7859473485	 0.412737
O	-0.0754517601	-3.1515930032	-1.5361366029	-0.320552
C	 0.0284371606	-2.2705045937	 0.7434009158	-0.093017
O	 1.2095210643	-1.6586090492	 1.2943721899	-0.245358
C	 0.0004478117	-0.881520844	 1.2010958364	-0.060203
H	 0.8553219686	 1.8376993829	 0.6307618154	 0.151416
H	-0.0269033968	 1.9630452398	-0.908203891	 0.139363
H	-0.9024430955	 1.8398164802	 0.6321788683	 0.141478
H	 0.0714648965	-0.4134885396	-2.1542317936	 0.120021
H	-0.376900035	-3.1220330969	 1.279892679	 0.117714
H	-0.4311072242	-0.5612868156	 2.1446236028	 0.108588
137.8602	175.675	196.9698	276.5641	352.2979	455.0727	564.8815	565.3704	628.3531	751.2536	826.0484	845.5994	859.3503	893.9837	920.4263	1001.1748	1029.7061	1059.1362	1083.1885	1162.2475	1186.7098	1236.1058	1281.4464	1331.879	1399.1228	1410.7764	1475.0376	1478.5554	1671.3221	1825.7979	3023.9533	3073.0198	3127.1934	3164.2046	3181.0133	3216.4219
CC1=CC(=O)C2OC12	CC1=CC(=O)[C@H]2O[C@@H]12	
InChI=1S/C6H6O2/c1-3-2-4(7)6-5(3)8-6/h2,5-6H,1H3	InChI=1S/C6H6O2/c1-3-2-4(7)6-5(3)8-6/h2,5-6H,1H3/t5-,6+/m0/s1
