27
gdb 104399	1.88666	1.41938	1.16209	0.0504	94.52	-0.2872	0.0736	0.3608	1316.9877	0.252533	-353.585837	-353.575325	-353.57438	-353.620812	40.71	
C	-0.3913119747	 1.5693729208	 0.2488229738	-0.39874
C	-0.2668218357	 0.0432737131	 0.3465200715	-0.199277
C	 0.8703160253	-0.4960078605	 1.2528444087	 0.297412
C	 2.2366091549	-0.0144479177	 0.746452206	-0.451162
C	 0.645114023	-0.1164527559	 2.7373875263	-0.229206
C	-0.4177256291	-1.1038226498	 3.2727322875	-0.219157
C	-0.3294997746	-2.3486238625	 2.3474761138	-0.222301
C	 0.8148547025	-2.0541202589	 1.3503757323	 0.044107
C	 0.7108008159	-2.83669685	 0.0408514681	-0.42579
H	 0.5065247745	 2.0275099737	-0.1766125532	 0.117211
H	-1.2318872212	 1.8398464424	-0.3984582891	 0.109881
H	-0.5704921603	 2.0340076077	 1.2235464163	 0.116755
H	-1.2263730078	-0.3625402089	 0.6894101962	 0.091863
H	-0.1203505515	-0.3530939085	-0.6653135366	 0.094044
H	 2.3408462873	 1.072091243	 0.8254456676	 0.112019
H	 3.0468263959	-0.4629510026	 1.3319336473	 0.105859
H	 2.3959681579	-0.2826895241	-0.3042687944	 0.10781
H	 1.589004709	-0.2557474388	 3.2784766383	 0.087787
H	 0.3598347302	 0.9300098175	 2.8759567059	 0.088984
H	-0.2375406158	-1.3539029733	 4.3219447035	 0.093854
H	-1.4175809129	-0.6610922715	 3.2298619437	 0.097189
H	-0.1424509901	-3.2718677329	 2.90414232	 0.09166
H	-1.2716992968	-2.5015849569	 1.8095168678	 0.093615
H	 1.7564232515	-2.3494090785	 1.8354600135	 0.060707
H	-0.2376642671	-2.6476734796	-0.4721973714	 0.114724
H	 1.5230498169	-2.5862209789	-0.650015688	 0.110628
H	 0.7664296731	-3.9136874583	 0.2332383344	 0.109522
65.0626	102.9765	136.0599	203.7708	225.4164	237.3209	258.4743	284.6393	317.3439	338.9448	361.3738	457.2882	502.6884	553.1097	618.5845	688.1056	777.107	792.0206	817.9203	881.3782	900.0293	906.2496	968.8865	983.5557	1002.1613	1023.0674	1030.7462	1040.79	1074.7052	1093.8622	1114.2009	1147.5889	1183.8215	1217.2791	1234.8771	1255.0919	1267.1447	1301.602	1322.797	1332.3189	1340.3943	1364.1787	1373.8664	1381.2615	1404.9986	1410.5752	1416.5427	1480.6279	1485.0514	1492.3127	1498.5871	1500.4804	1501.9178	1505.1964	1508.1685	1512.9679	1519.3531	2990.5753	3023.4953	3025.3193	3029.3997	3030.9911	3037.2032	3039.2586	3053.2114	3059.1513	3070.2788	3085.0413	3087.8258	3092.3139	3095.8958	3097.1869	3101.3928	3102.3087	3111.5915
CCC1(C)CCCC1C	CC[C@@]1(C)CCC[C@H]1C	
InChI=1S/C9H18/c1-4-9(3)7-5-6-8(9)2/h8H,4-7H2,1-3H3	InChI=1S/C9H18/c1-4-9(3)7-5-6-8(9)2/h8H,4-7H2,1-3H3/t8-,9+/m1/s1
