17
gdb 8227	5.40734	1.13185	0.99516	4.5844	64.37	-0.2382	0.0254	0.2637	1149.0854	0.14177	-401.010902	-401.002244	-401.0013	-401.045579	29.841	
N	-0.0589943803	 1.3168746156	 0.0757699251	-0.524081
C	 0.0118583807	-0.0223155287	 0.3290188743	 0.415772
O	 1.0030881902	-0.5439865487	 0.8040577517	-0.352303
C	-1.2462152371	-0.8150847333	-0.0248051672	-0.348373
C	-0.978287229	-2.3115484826	-0.052767367	 0.000548
C	-0.7002344254	-3.01108982	 1.2942247528	-0.065705
O	-1.8198404818	-3.9087927996	 1.1092544609	-0.275977
C	-2.2001196638	-3.2555051178	-0.1153614559	-0.098727
H	 0.7078613596	 1.8986071456	 0.3713496775	 0.262015
H	-0.9015143217	 1.7576606479	-0.2487878869	 0.258669
H	-2.0154013946	-0.5838877632	 0.7255874425	 0.127624
H	-1.6445408225	-0.4702289277	-0.9877657042	 0.112395
H	-0.2197230309	-2.5386956338	-0.8042507024	 0.090949
H	 0.2512389802	-3.5454415354	 1.3743038276	 0.111944
H	-0.8244242608	-2.3762043056	 2.1803189385	 0.098198
H	-3.1768545256	-2.7565719009	-0.0304544298	 0.088055
H	-2.235078177	-3.9513965717	-0.9627649675	 0.098997
35.6813	70.1806	90.6481	159.8125	165.907	326.4423	331.8384	439.1007	509.7237	605.822	654.7245	775.0327	841.8569	887.0749	900.0639	906.9013	983.3057	1030.6748	1037.2354	1097.0134	1105.0264	1148.9491	1153.9292	1164.5471	1238.6311	1253.4504	1289.8389	1308.3683	1359.0012	1394.3959	1408.9917	1462.233	1512.6432	1538.0457	1618.2932	1792.1602	2988.4954	3013.6322	3025.5405	3039.4911	3051.0144	3075.9064	3097.491	3602.2281	3738.3168
NC(=O)CC1COC1	NC(=O)CC1COC1	
InChI=1S/C5H9NO2/c6-5(7)1-4-2-8-3-4/h4H,1-3H2,(H2,6,7)	InChI=1S/C5H9NO2/c6-5(7)1-4-2-8-3-4/h4H,1-3H2,(H2,6,7)
