19
gdb 77713	2.8397	1.62531	1.52322	1.8335	79.52	-0.2205	0.0082	0.2286	987.4346	0.160303	-385.841491	-385.83398	-385.833036	-385.872928	30.344	
C	-0.0411088727	 1.5160493029	-0.0073161045	-0.425377
C	 0.0759393447	 0.010783511	-0.0547172934	-0.09345
C	 0.6907494288	-0.7514528751	-1.218935987	 0.123219
C	 1.9759672398	-0.0623414186	-1.694429219	-0.145193
O	 2.5073706316	 0.0412692846	-0.3416285077	-0.321995
C	 1.3785928754	-0.7147870341	 0.1376844063	 0.342983
C	 1.4428799298	-2.1140904852	 0.6218544818	-0.173415
C	 0.8225242974	-2.9250312303	-0.2479981154	-0.057247
C	 0.3044186287	-2.2006197693	-1.4916057946	-0.355767
H	 0.9006994212	 1.9931191509	-0.2869570258	 0.138557
H	-0.8278336815	 1.8717934105	-0.6808753583	 0.116199
H	-0.2891274337	 1.8471686127	 1.0064226806	 0.120267
H	-0.7634205121	-0.5254961588	 0.380979366	 0.094031
H	 2.6037677259	-0.7197584646	-2.3078189703	 0.108389
H	 1.8924462696	 0.9188375277	-2.1766851257	 0.104703
H	 1.8894896233	-2.4223952409	 1.5600011124	 0.103113
H	 0.6521084388	-3.9858839868	-0.0857428639	 0.097098
H	-0.7763191772	-2.3414739052	-1.6202523928	 0.113618
H	 0.7722134622	-2.5894177613	-2.4060577187	 0.110268
176.5178	200.6464	228.3752	247.3941	292.2142	363.0374	465.4478	492.7356	580.1911	667.8837	716.3922	749.2583	764.16	845.4267	853.6056	909.8849	926.1899	949.2511	966.3296	976.6137	993.4215	1028.6572	1102.4227	1110.1379	1119.6098	1130.6229	1155.6947	1182.2711	1210.9735	1252.3348	1284.0123	1321.1762	1332.2283	1365.7243	1407.6216	1449.0633	1476.8021	1490.3266	1502.2587	1518.2569	1636.1096	3014.7955	3017.7052	3037.8281	3044.5765	3065.3612	3097.0121	3124.5685	3148.1404	3169.0743	3204.422
CC1C23COC12C=CC3	C[C@H]1[C@@]23CO[C@@]12C=CC3	
InChI=1S/C8H10O/c1-6-7-3-2-4-8(6,7)9-5-7/h2,4,6H,3,5H2,1H3	InChI=1S/C8H10O/c1-6-7-3-2-4-8(6,7)9-5-7/h2,4,6H,3,5H2,1H3/t6-,7+,8-/m0/s1
