16
gdb 125436	3.91907	0.98408	0.86264	3.3049	76.34	-0.2525	0.0093	0.2619	1347.7095	0.12417	-396.933323	-396.924401	-396.923457	-396.969099	31.377	
C	 0.0889635385	 1.4713170256	 0.0216166348	-0.503405
C	 0.0096462556	-0.0168278966	-0.0292578338	 0.352211
N	 0.1561438407	-0.7781723785	-1.0993208561	-0.327976
C	 0.0069037506	-2.0448430168	-0.6124355973	 0.336168
C	 0.0866887966	-3.2748818967	-1.4729922181	-0.439131
C	 1.4272222754	-3.5278085778	-1.9967168993	 0.320055
C	 2.5280956073	-3.7437518592	-2.425526	-0.465337
N	-0.2276346398	-2.1160107365	 0.6869533686	-0.260405
N	-0.2211982621	-0.8064256454	 1.0439770826	-0.233051
H	 0.9928198588	 1.8062804109	 0.5422257362	 0.146694
H	 0.1186918771	 1.8563831281	-0.9980274224	 0.165862
H	-0.7740825407	 1.9047982455	 0.5370642674	 0.137857
H	-0.2491157876	-4.1290520546	-0.8760347539	 0.151191
H	-0.6145152229	-3.1679421959	-2.3098090176	 0.147539
H	 3.5015514479	-3.9290209102	-2.8061862948	 0.195219
H	-0.3799125453	-0.5507457118	 2.0046918636	 0.276508
20.3921	38.839	91.8548	212.2125	256.7738	326.8139	336.7429	398.3373	457.6045	536.3324	613.0135	632.2424	654.1262	699.4547	733.0397	826.3013	933.3858	962.0978	992.0774	1024.1817	1064.9321	1077.6458	1158.5571	1211.2835	1294.4417	1328.8365	1389.9764	1413.2262	1436.8372	1454.3182	1483.697	1499.1852	1530.8545	1592.6449	2244.2218	3033.5002	3041.1989	3083.0813	3096.2253	3153.2677	3508.3828	3662.263
CC1=NC(CC#C)=NN1	Cc1nc(CC#C)n[nH]1	
InChI=1S/C6H7N3/c1-3-4-6-7-5(2)8-9-6/h1H,4H2,2H3,(H,7,8,9)	InChI=1S/C6H7N3/c1-3-4-6-7-5(2)8-9-6/h1H,4H2,2H3,(H,7,8,9)
