16
gdb 108995	3.18424	1.20465	1.10984	3.7809	71.56	-0.2338	0.0017	0.2355	1128.6349	0.124405	-437.844517	-437.836613	-437.835669	-437.877424	29.502	
O	-0.0829134159	 1.3702067335	-0.1821795867	-0.410876
C	-0.0514573072	-0.0347146241	-0.017107163	-0.208293
C	-1.4432407926	-0.5423920852	 0.1188377021	 0.323505
C	-2.6215360762	 0.1184436925	 0.1142286304	-0.183465
C	-3.649853875	-0.9997343068	 0.0875742612	-0.17561
N	-3.0798431795	-2.0604882182	 0.9752478242	-0.287667
C	-1.8701054295	-2.0040852339	 0.1017432385	-0.243018
C	-2.9528528526	-1.8514439012	-1.0607314254	 0.458476
O	-3.123726429	-2.1818095629	-2.1813160124	-0.2961
H	 0.8234024482	 1.6894392744	-0.217543618	 0.293371
H	 0.4290385169	-0.5368726971	-0.8757081356	 0.110061
H	 0.5357979923	-0.3220626723	 0.8728478507	 0.102924
H	-2.7977260804	 1.1761855407	-0.0086531739	 0.129759
H	-4.7150203376	-0.7875968376	 0.1399628618	 0.091784
H	-2.8727436204	-1.6766530647	 1.9016741761	 0.208609
H	-1.1378137913	-2.8070729369	 0.1631009501	 0.086537
66.5604	129.3092	186.8784	223.9064	246.9424	374.6163	424.3372	519.7255	581.951	610.752	676.0122	755.0135	806.0631	841.06	854.8867	903.4161	947.3205	972.7348	1032.9368	1036.8895	1064.3461	1073.4211	1085.674	1168.2788	1186.8562	1204.6684	1246.0449	1248.3845	1279.7031	1294.873	1317.2139	1463.5871	1502.074	1638.7167	1940.286	2943.108	2956.041	3142.9962	3156.8468	3255.6663	3412.1951	3835.2669
OCC1=CC2NC1C2=O	OCC1=C[C@@H]2N[C@H]1C2=O	
InChI=1S/C6H7NO2/c8-2-3-1-4-6(9)5(3)7-4/h1,4-5,7-8H,2H2	InChI=1S/C6H7NO2/c8-2-3-1-4-6(9)5(3)7-4/h1,4-5,7-8H,2H2/t4-,5+/m0/s1
