17
gdb 46194	3.09572	1.64882	1.24297	1.1461	73.59	-0.2524	-0.036	0.2163	1005.1691	0.136323	-421.770644	-421.763504	-421.762559	-421.802305	28.059	
O	-0.1143431786	 0.0178267834	-0.2964468898	-0.285863
C	-0.0831490089	 1.1923329342	-0.0798993409	 0.250218
C	-1.0920912063	 2.2696925662	 0.3395936386	-0.19689
O	-0.0358107503	 3.2492921063	 0.3013308556	-0.349818
C	 0.9716765218	 2.2962276488	-0.0938854304	 0.407174
C	 2.3628326613	 2.267314939	 0.5915276155	-0.117599
C	 2.8399376612	 1.457160499	-0.6501621809	-0.235516
C	 1.9754809726	 2.6143271208	-1.2327922444	-0.117606
C	 2.6817359687	 3.564124724	-0.2157978323	-0.236812
H	-1.8904627976	 2.4717800799	-0.3845528183	 0.13359
H	-1.5238156066	 2.1438140079	 1.3397911658	 0.133602
H	 2.5636706335	 2.0628341468	 1.643123104	 0.084116
H	 3.9085427809	 1.5236727602	-0.8644041502	 0.100155
H	 2.4593578384	 0.4414054539	-0.7625682822	 0.129233
H	 1.7312989328	 2.8085244424	-2.2771409496	 0.084114
H	 2.1429000433	 4.4675390903	 0.0704528732	 0.122
H	 3.7409931839	 3.7593942669	-0.403567624	 0.095902
116.6126	143.34	187.1887	349.5873	355.2868	466.8844	530.6204	566.9284	624.1385	759.0865	761.4681	805.7968	883.0883	898.4494	904.6042	949.7473	1002.7236	1005.7056	1026.5335	1030.1541	1048.774	1082.9391	1088.7748	1112.8327	1133.2012	1141.2545	1190.6405	1200.3687	1221.6497	1238.8805	1246.4673	1279.0898	1296.8711	1484.2906	1498.036	1533.6496	1908.4372	3024.5411	3063.1902	3073.5463	3073.8487	3116.2809	3120.1917	3144.4411	3148.7159
O=C1COC11C2CC1C2	O=C1CO[C@]21[C@H]1C[C@@H]2C1	
InChI=1S/C7H8O2/c8-6-3-9-7(6)4-1-5(7)2-4/h4-5H,1-3H2	InChI=1S/C7H8O2/c8-6-3-9-7(6)4-1-5(7)2-4/h4-5H,1-3H2/t4-,5+,7-
