18
gdb 102155	2.28304	1.14845	0.83248	3.7455	73.57	-0.2541	-0.0376	0.2165	1377.5281	0.143991	-439.104337	-439.093889	-439.092945	-439.140832	35.472	
C	 0.0893058032	 1.4105019923	 0.1641602609	-0.248352
O	 0.0445152062	 0.0107750499	-0.0603946679	-0.22291
C	-1.2274178253	-0.5562594831	-0.0049239986	 0.018179
C	-1.1219776398	-1.9369889497	-0.6901125001	-0.370754
C	-0.7933914653	-1.8163141036	-2.1081908585	 0.278781
N	-0.5575472556	-1.7225254153	-3.2349958134	-0.301868
C	-1.7598237717	-0.7061197579	 1.4407233301	 0.356974
C	-3.164267818	-1.2640563567	 1.6020022021	-0.488254
O	-1.0840138266	-0.3790832392	 2.38404732	-0.279914
H	 1.1241384407	 1.7170860642	 0.0009918661	 0.13919
H	-0.5553268628	 1.9448842295	-0.5495040062	 0.110058
H	-0.2058757981	 1.6657986133	 1.1870056892	 0.13462
H	-1.9625068419	 0.0548450891	-0.5594144247	 0.096773
H	-0.3369610558	-2.5115902526	-0.1868532889	 0.17419
H	-2.0591883594	-2.4929707196	-0.5942521318	 0.154465
H	-3.8304763253	-0.9516348636	 0.7921552186	 0.137733
H	-3.1276083171	-2.3601083933	 1.5946842918	 0.154851
H	-3.5682008174	-0.9478410238	 2.5648389512	 0.156239
53.9769	65.9996	104.0265	123.2715	141.0789	179.1676	221.0313	257.0774	307.461	390.45	401.1861	443.3133	507.4494	599.5451	621.0796	821.6475	857.5165	929.0819	952.8706	1018.1068	1052.9506	1069.6128	1161.0406	1177.3327	1190.0004	1212.8286	1260.0314	1289.5203	1352.0404	1375.7893	1384.8846	1454.2805	1466.3412	1478.4443	1481.818	1485.2872	1510.7013	1824.2018	2368.389	2945.869	2996.4045	3037.9685	3058.4007	3081.3373	3102.6452	3106.9289	3134.5786	3149.9584
COC(CC#N)C(C)=O	CO[C@@H](CC#N)C(=O)C	
InChI=1S/C6H9NO2/c1-5(8)6(9-2)3-4-7/h6H,3H2,1-2H3	InChI=1S/C6H9NO2/c1-5(8)6(9-2)3-4-7/h6H,3H2,1-2H3/t6-/m0/s1
