15
gdb 66728	1.99375	1.88439	1.80593	2.8741	64.76	-0.2078	0.0391	0.2469	900.9526	0.109674	-457.622914	-457.614919	-457.613974	-457.654912	31.213	
O	-0.0187009502	 1.4046027014	 0.0587607045	-0.446395
C	 0.0684389377	 0.0418383056	 0.0200672869	 0.232341
C	 0.9362110007	-0.9909212876	 0.8214274694	-0.166446
C	 0.7960678997	-2.0073223404	-0.3032224651	-0.172308
C	-0.2251406179	-1.9766761507	 0.8289587222	-0.158878
C	-1.0891581992	-0.9501630494	 0.0149232895	 0.285764
O	-2.4241601072	-0.6686916695	-0.0068264985	-0.450363
C	-0.0699236688	-0.993201768	-1.1282989258	 0.187254
O	-0.3561117776	-0.8804447175	-2.4623448604	-0.452551
H	 0.7454191148	 1.7805026593	-0.3939282519	 0.28774
H	 1.7377731756	-0.8690020556	 1.5397373456	 0.089345
H	 1.4737503702	-2.7998807446	-0.5973145171	 0.088428
H	-0.4758214049	-2.7380054677	 1.5579628173	 0.089589
H	-2.8493911649	-1.2408590337	-0.6565160423	 0.296596
H	 0.3699248321	-0.4270912215	-2.9061871744	 0.289884
133.9625	158.163	233.5327	263.7338	295.2636	360.0286	380.7287	420.6311	429.3677	641.8298	648.7307	703.9333	738.5158	752.5877	768.3013	784.3037	789.9106	900.2237	902.0356	981.4804	1005.0747	1007.2516	1009.7028	1137.4877	1179.8314	1184.0629	1248.2698	1272.8747	1295.4549	1302.0395	1394.2165	1424.8928	1527.7754	3174.7649	3176.9244	3192.0558	3771.2276	3772.2514	3777.7291
OC12C3C4C3C1(O)C24O	O[C@@]12[C@@H]3[C@H]4[C@@H]3[C@]1(O)[C@@]24O	
InChI=1S/C6H6O3/c7-4-1-2-3(1)6(4,9)5(2,4)8/h1-3,7-9H	InChI=1S/C6H6O3/c7-4-1-2-3(1)6(4,9)5(2,4)8/h1-3,7-9H/t1-,2+,3-,4-,5+,6-
