22
gdb 81778	2.13171	1.67295	1.28467	0.6029	82.19	-0.2213	0.0749	0.2962	1129.3596	0.191948	-404.317446	-404.307519	-404.306575	-404.351077	38.43	
C	-0.4292659468	 1.5435778799	 0.3297548083	-0.417865
C	-0.1303988593	 0.0553501156	 0.2172770962	-0.024347
C	 0.3141023524	-0.4899849107	-1.1455787241	-0.131225
N	 1.6339431738	 0.1364872495	-1.430552111	-0.385917
C	 1.5579462953	-1.0788935385	-0.5830776393	 0.332921
C	 2.3039970261	-2.3379218722	-0.8945319993	-0.518233
C	 1.2033520993	-0.5651656378	 0.8290537232	 0.349926
C	 2.1951518289	 0.3604333277	 1.5140758527	-0.463344
O	 0.9243758024	-1.708489868	 1.6271894299	-0.484963
H	 0.3596389534	 2.1348100126	-0.1417222824	 0.136418
H	-1.3757585439	 1.7858944192	-0.1667722739	 0.109155
H	-0.5191443444	 1.8588293047	 1.3753739917	 0.104796
H	-0.9572942026	-0.545534797	 0.6080752511	 0.071412
H	-0.3114729858	-0.8430013709	-1.9578591322	 0.084403
H	 1.9187532396	-0.169979797	-2.3605882909	 0.223302
H	 2.173496298	-2.6201508441	-1.9452772632	 0.110471
H	 3.3785368096	-2.2228223665	-0.708861307	 0.122975
H	 1.94022695	-3.1567709969	-0.2685546992	 0.14598
H	 2.4926244986	 1.1702150922	 0.8453121907	 0.142942
H	 1.7582667649	 0.8045810732	 2.4175578734	 0.100493
H	 3.087088528	-0.2005088793	 1.8112145384	 0.116364
H	 0.6166753023	-1.4004863356	 2.4862638468	 0.274336
123.9597	198.5029	202.6973	213.1958	221.2069	230.06	246.0918	254.7358	298.062	373.4367	396.7286	470.7707	516.537	557.5994	632.2457	660.058	752.3471	840.775	853.9287	876.3942	947.6294	972.4113	992.4866	1017.2048	1033.2503	1066.4978	1094.7474	1110.8375	1127.0024	1136.5823	1187.0103	1203.1293	1250.8869	1279.7778	1312.5008	1362.0664	1381.1135	1396.0974	1404.974	1407.4948	1459.9933	1479.9856	1481.9425	1494.4711	1497.5712	1501.5583	1509.8033	3023.6993	3026.0365	3029.5509	3061.8851	3083.8716	3085.2245	3090.1947	3118.9037	3121.1483	3137.5057	3173.5143	3469.539	3806.1572
CC1C2NC2(C)C1(C)O	C[C@H]1[C@H]2N[C@@]2(C)[C@]1(C)O	
InChI=1S/C7H13NO/c1-4-5-6(2,8-5)7(4,3)9/h4-5,8-9H,1-3H3	InChI=1S/C7H13NO/c1-4-5-6(2,8-5)7(4,3)9/h4-5,8-9H,1-3H3/t4-,5+,6+,7+/m0/s1
