13
gdb 46834	2.79469	1.66886	1.19209	4.2641	64.98	-0.2666	-0.03	0.2366	985.8436	0.08809	-456.537795	-456.530421	-456.529477	-456.569737	27.563	
O	-0.0330892934	 0.0128657791	 0.2305797311	-0.318882
C	-0.01037244	 1.1826914411	 0.0029321564	 0.405417
O	-1.133464447	 1.9333563384	-0.1704198122	-0.232972
C	-0.8392025141	 3.2636338084	-0.6273297658	-0.106839
C	 0.6597843326	 3.4183054317	-0.5058111639	-0.06773
O	 1.1175751539	 3.1760507837	 0.8157502262	-0.277762
C	 1.2018129185	 2.0935514141	-0.1488240253	 0.125777
C	 2.4838779335	 1.5671581493	-0.4851744552	 0.213463
C	 3.5516076352	 1.0998936921	-0.7736998627	-0.357883
H	-1.1725140394	 3.3653120326	-1.6655637757	 0.133698
H	-1.3848438372	 3.9714427712	 0.0027373568	 0.1448
H	 1.2112702777	 4.1434633551	-1.0957020264	 0.132814
H	 4.4970799798	 0.6835601133	-1.0220326133	 0.206098
120.6867	135.2402	194.0594	257.6199	380.2712	397.0017	498.8635	549.1615	581.8899	637.1729	676.3236	685.3514	726.3809	795.3147	839.5093	911.0864	949.9555	1016.7118	1045.393	1099.9438	1104.0032	1227.3012	1250.554	1282.5542	1384.8336	1436.043	1500.2203	1895.2797	2253.447	3051.989	3105.7795	3177.4067	3499.4838
O=C1OCC2OC12C#C	O=C1OC[C@H]2O[C@@]12C#C	
InChI=1S/C6H4O3/c1-2-6-4(9-6)3-8-5(6)7/h1,4H,3H2	InChI=1S/C6H4O3/c1-2-6-4(9-6)3-8-5(6)7/h1,4H,3H2/t4-,6-/m1/s1
