14
gdb 44246	3.32627	1.50405	1.20862	3.3108	62.57	-0.2739	-0.0245	0.2493	984.3992	0.102613	-473.852631	-473.845712	-473.844768	-473.884528	25.704	
N	-0.0541082203	 1.2502637575	-0.385816926	-0.532559
C	-0.0148656233	 0.043362433	-0.066734905	 0.439628
O	 1.0474034077	-0.7708189578	 0.2952408982	-0.259205
C	 0.14852154	-1.9142629851	 0.4808391963	-0.030784
C	-1.0559533321	-1.0520261697	 0.0817137417	-0.201071
C	-1.9195157384	-0.9800202985	 1.3510222039	-0.09994
O	-1.1320736614	-1.535582317	 2.4196422243	-0.219803
C	-0.0319211055	-2.1990740858	 1.972898501	 0.439123
O	 0.6650637042	-2.8603141195	 2.6813352365	-0.320663
H	 0.8685970653	 1.6867957241	-0.3589835701	 0.241621
H	 0.467068088	-2.77880993	-0.0984365832	 0.129024
H	-1.6148194571	-1.2952438416	-0.8198464325	 0.12856
H	-2.1890159803	 0.0431381267	 1.619809711	 0.154357
H	-2.8308638368	-1.5776816963	 1.253268804	 0.131713
84.7548	131.1252	218.5033	263.7396	426.389	458.4773	581.3566	650.2732	713.522	750.0482	785.5171	836.1991	873.7842	897.1218	917.4916	964.7628	1003.2883	1013.9031	1063.0245	1076.8724	1180.0847	1201.3803	1204.5762	1250.3827	1283.7646	1287.4079	1323.4389	1401.3925	1518.1947	1838.6517	1890.9556	3059.0876	3120.8878	3138.6228	3146.6801	3486.1097
N=C1OC2C1COC2=O	[NH][C]1O[C@@H]2[C@H]1COC2=O	
InChI=1S/C5H5NO3/c6-4-2-1-8-5(7)3(2)9-4/h2-3,6H,1H2	InChI=1S/C5H5NO3/c6-4-2-1-8-5(7)3(2)9-4/h2-3,6H,1H2/t2-,3-/m1/s1
