19
gdb 28430	3.09893	1.30254	0.92518	1.1326	89.59	-0.1826	0.0188	0.2015	1267.0134	0.161561	-382.146301	-382.137468	-382.136523	-382.179825	34.214	
C	 0.0163276044	 1.5259953041	 0.0153900243	-0.493067
C	 0.0016590519	 0.0166479198	-0.0085799518	 0.316469
C	-0.0802920995	-0.6907676152	-1.2054155606	-0.218939
C	-0.0647722959	-2.0857770933	-1.2113306761	-0.176938
C	 0.0186992188	-2.8069662956	-0.0254764322	 0.232261
N	-0.0024390967	-4.2168362963	 0.0238432212	-0.607728
C	 0.0706206538	-2.1035694195	 1.1964302215	 0.272685
N	 0.172966739	-2.8545704745	 2.3833872567	-0.607846
C	 0.0694332406	-0.712311143	 1.1843955651	-0.278509
H	 0.989858437	 1.916026012	 0.3372333938	 0.124759
H	-0.1921097998	 1.9395869093	-0.9751875967	 0.118154
H	-0.7321046582	 1.9268089478	 0.7084883674	 0.121155
H	-0.1438615554	-0.1536366809	-2.1465123921	 0.07927
H	-0.1117725005	-2.6238054703	-2.1545847686	 0.074851
H	 0.1205503243	-4.6391459881	-0.8873983587	 0.239245
H	 0.6948128164	-4.5827160116	 0.664232864	 0.247715
H	-0.4506067388	-3.6549204212	 2.3809423723	 0.248576
H	 0.0171120903	-2.2994125747	 3.2145261171	 0.239654
H	 0.1116686785	-0.1820977986	 2.1335928735	 0.068233
44.8058	146.0412	214.5382	227.8163	287.6084	313.1471	351.1769	445.8219	450.9247	454.7004	499.6327	578.5792	599.0974	714.7032	734.4608	764.3884	793.4664	805.2551	838.7013	876.7644	901.8808	959.9703	1017.4647	1059.6788	1097.1923	1133.0589	1179.0844	1189.3836	1277.6877	1318.1908	1332.371	1381.5262	1412.8076	1466.5493	1485.4077	1502.7879	1553.2103	1619.3944	1637.3223	1654.9724	1669.8054	3022.3102	3072.397	3107.8731	3143.7493	3154.1277	3178.4497	3506.3309	3511.9483	3611.6265	3616.9003
CC1=CC=C(N)C(N)=C1	Cc1ccc(N)c(N)c1	
InChI=1S/C7H10N2/c1-5-2-3-6(8)7(9)4-5/h2-4H,8-9H2,1H3	InChI=1S/C7H10N2/c1-5-2-3-6(8)7(9)4-5/h2-4H,8-9H2,1H3
