19
gdb 97946	5.79557	0.56122	0.53282	2.9871	81.68	-0.242	0.0337	0.2757	2054.491	0.157871	-422.968192	-422.958217	-422.957272	-423.005856	34.097	
O	 0.2508851631	 1.1031532267	 0.6512671613	-0.403831
C	 0.0204223234	 0.0603331718	-0.2883114754	-0.193039
C	-1.3414209913	-0.4698852245	-0.2522555289	 0.103411
C	-2.4800189122	-0.8626644123	-0.2253559901	 0.016668
C	-3.8416692866	-1.3798482446	-0.1721407422	-0.369002
C	-3.9073598844	-2.8599431634	 0.2129232879	 0.173482
C	-5.288236741	-3.5480143206	 0.1411104901	-0.301795
C	-4.5942105714	-4.5047234306	-0.8486307211	-0.057673
O	-3.3794479172	-3.7262429405	-0.8150512582	-0.284679
H	-0.4468167562	 1.7554277503	 0.5299547667	 0.285437
H	 0.2574058002	 0.3877035479	-1.3134623358	 0.116117
H	 0.7379649247	-0.7287430544	-0.0371553566	 0.140712
H	-4.4265069529	-0.8105174736	 0.5640749898	 0.128383
H	-4.3389151597	-1.2494302957	-1.1417804729	 0.127821
H	-3.377408622	-3.0135708733	 1.1622702937	 0.085511
H	-5.6567030558	-3.9883652221	 1.0683136307	 0.112926
H	-6.0725660818	-2.928150413	-0.2995649366	 0.110006
H	-4.4355987683	-5.5235429135	-0.4729265848	 0.103492
H	-5.0172058706	-4.5621171048	-1.8580671276	 0.106052
17.5167	48.6559	71.459	97.1673	134.6673	231.3024	282.4852	324.8539	360.9171	394.5563	494.6055	556.0704	737.1071	780.0096	812.5879	869.3394	890.9966	965.5946	987.7656	1007.4476	1037.6478	1043.6665	1094.0054	1122.5464	1158.0291	1166.7853	1211.5525	1214.0453	1232.4006	1257.9073	1289.7226	1316.3938	1357.4568	1369.5358	1393.5836	1418.122	1453.5148	1490.5025	1493.3288	1532.5781	2363.5493	2974.5617	3009.8106	3012.9191	3018.9326	3052.9779	3058.2711	3061.9302	3075.6191	3133.4675	3816.8938
OCC#CCC1CCO1	OCC#CC[C@H]1CCO1	
InChI=1S/C7H10O2/c8-5-2-1-3-7-4-6-9-7/h7-8H,3-6H2	InChI=1S/C7H10O2/c8-5-2-1-3-7-4-6-9-7/h7-8H,3-6H2/t7-/m0/s1
