23
gdb 104309	2.82956	1.26056	1.17424	1.2439	84.37	-0.2566	0.0692	0.3258	1213.6653	0.206257	-388.299226	-388.290117	-388.289173	-388.332497	36.315	
C	 0.0758646038	 1.575458172	 0.0303821299	-0.407966
C	-0.0014091851	 0.0444306216	 0.0070065308	-0.2057
C	-1.4271087803	-0.5282264732	-0.0303694868	 0.390251
O	-2.1514864944	-0.1572548785	 1.1527644963	-0.488323
C	-2.241184219	-0.144100866	-1.2954703602	-0.276524
C	-3.29282519	-1.2647184155	-1.4563306298	-0.217911
C	-2.6176025195	-2.5054294666	-0.8893421661	-0.031572
C	-1.1969058977	-2.7800554016	-1.3176943077	-0.311451
C	-1.4659212276	-2.0503542584	-0.0247536433	-0.023434
H	 1.1165845347	 1.9113319552	 0.0622787109	 0.118049
H	-0.3871648403	 2.0219493697	-0.8559594527	 0.118381
H	-0.4181248011	 1.9913047448	 0.9162263513	 0.108057
H	 0.5499663025	-0.3371872299	-0.8603924764	 0.094077
H	 0.4965913897	-0.356426716	 0.8977516699	 0.098894
H	-2.2310422954	 0.802012694	 1.1603035047	 0.273916
H	-2.6961625271	 0.845490031	-1.1935522417	 0.087582
H	-1.5829370503	-0.0982512208	-2.1696362151	 0.098152
H	-4.1791077242	-1.0348740446	-0.8556759063	 0.10718
H	-3.6195218409	-1.3808159826	-2.4954687087	 0.090817
H	-3.2369747963	-3.3457193768	-0.5963858021	 0.079014
H	-0.8436673184	-3.8019432324	-1.2324540983	 0.108334
H	-0.7772497652	-2.245092398	-2.1640128958	 0.104992
H	-1.2271669779	-2.5331920073	 0.9159417372	 0.085184
92.171	135.8179	177.4082	232.8502	259.7371	306.1229	330.0826	373.9987	388.19	432.761	476.5368	609.5195	639.822	729.4324	780.2291	815.5832	821.8862	840.6804	907.4064	943.1972	954.9999	964.1285	995.9908	1014.3452	1027.9238	1054.2374	1073.2775	1083.9611	1103.9497	1111.4817	1156.3921	1187.1064	1202.2975	1214.1215	1228.1278	1300.1327	1313.4945	1329.0404	1330.9517	1361.5328	1390.5394	1400.8445	1414.6797	1476.5523	1479.4059	1486.2876	1500.716	1502.8305	1510.4212	3028.7562	3031.853	3038.42	3046.3511	3065.699	3074.6196	3091.5135	3095.3548	3105.0846	3126.8556	3167.2205	3177.8486	3208.3723	3815.2971
CCC1(O)CCC2CC12	CC[C@@]1(O)CC[C@H]2C[C@@H]12	
InChI=1S/C8H14O/c1-2-8(9)4-3-6-5-7(6)8/h6-7,9H,2-5H2,1H3	InChI=1S/C8H14O/c1-2-8(9)4-3-6-5-7(6)8/h6-7,9H,2-5H2,1H3/t6-,7+,8+/m0/s1
