19
gdb 37478	2.8974	1.68231	1.39527	2.0971	73.3	-0.2387	0.0783	0.317	979.0538	0.162035	-422.98447	-422.977438	-422.976494	-423.015903	28.412	
C	-0.0244010947	 1.3957108735	-0.0004200597	-0.079999
C	 1.4006701184	 1.9621244339	 0.0151941762	-0.22854
C	 2.2487642568	 1.3263190025	 1.1217116555	-0.02983
C	 2.2203532429	 1.8827975287	 2.5517972584	 0.017216
O	 0.9142350318	 1.6666806105	 3.1064545031	-0.244036
C	 1.8444074892	 0.5750940907	 3.108882948	 0.005868
C	 1.7708166838	-0.068182627	 1.710255613	-0.075904
C	 0.3784180089	-0.5464301185	 1.259860881	-0.093237
O	 0.0038864044	-0.0233977067	-0.0047185738	-0.247784
H	-0.5966139472	 1.7621857283	 0.8637226821	 0.107695
H	-0.5461335304	 1.6953020051	-0.9142508	 0.100099
H	 1.8596011085	 1.7456246411	-0.956071527	 0.103611
H	 1.3747146107	 3.0534593184	 0.1228686207	 0.096222
H	 3.2917033509	 1.2385431156	 0.8030938022	 0.081063
H	 2.8012364478	 2.6945228495	 2.9758411457	 0.101315
H	 2.0681763948	 0.1213934747	 4.0673338531	 0.104317
H	 2.5305188274	-0.8375964374	 1.5576504759	 0.079001
H	 0.3515423439	-1.6344526435	 1.1513676464	 0.101152
H	-0.369508868	-0.2559958494	 2.0125086593	 0.10177
122.627	138.3678	267.9601	342.4693	401.8716	467.3238	496.15	584.7174	655.4401	726.8413	776.5888	824.9009	861.8639	862.733	883.9866	918.4577	960.6105	985.9769	996.9486	1042.8379	1053.6276	1079.0204	1106.0341	1118.6558	1132.2869	1177.8482	1227.3602	1241.9232	1251.5899	1259.4358	1298.572	1326.1477	1339.2748	1349.3071	1380.8534	1385.5844	1401.6841	1428.3681	1475.4627	1489.8208	1506.0268	2995.12	3006.8558	3026.9009	3057.267	3069.6603	3075.5779	3085.8906	3093.9709	3174.5102	3191.7998
C1CC2C3OC3C2CO1	C1C[C@H]2[C@H]3O[C@H]3[C@H]2CO1	
InChI=1S/C7H10O2/c1-2-8-3-5-4(1)6-7(5)9-6/h4-7H,1-3H2	InChI=1S/C7H10O2/c1-2-8-3-5-4(1)6-7(5)9-6/h4-7H,1-3H2/t4-,5+,6-,7+/m1/s1
