23
gdb 59021	3.13532	0.92398	0.85029	1.5828	88.15	-0.2309	0.0262	0.2571	1510.4875	0.205117	-388.312609	-388.302589	-388.301645	-388.347605	37.72	
C	 0.0862653253	 1.5123433073	-0.1116964903	-0.404203
C	 0.0195490436	-0.01688978	-0.0173624075	 0.002334
O	 0.727565788	-0.4891093469	 1.1331848378	-0.43016
C	-1.3936688908	-0.53762659	-0.0418084941	 0.366951
C	-1.9780931771	-1.2150826674	-1.0315254064	-0.194788
C	-3.3930570624	-1.6195393987	-0.7008668014	-0.26111
C	-3.7210948182	-0.7684014383	 0.556243957	 0.046733
C	-4.6724477474	-1.4358349424	 1.5473303823	-0.403853
C	-2.333371588	-0.3964726056	 1.1420676958	-0.337885
H	 1.1282019234	 1.8429316868	-0.0740457866	 0.12252
H	-0.3650349632	 1.8664786784	-1.043386525	 0.121011
H	-0.4523328997	 1.9825434395	 0.7198760862	 0.108279
H	 0.5632252203	-0.4442793696	-0.8672390508	 0.089388
H	 0.3577845152	-0.0459633011	 1.9044984795	 0.279458
H	-1.4888704024	-1.4911783566	-1.9605341811	 0.083862
H	-4.1003064755	-1.4421985177	-1.5196071851	 0.098748
H	-3.4462453195	-2.6966018848	-0.4789627281	 0.10177
H	-4.1815324977	 0.1630038369	 0.2034179824	 0.075313
H	-4.2490631771	-2.373619571	 1.9256470259	 0.11413
H	-4.8716580429	-0.7890715191	 2.4087599891	 0.110357
H	-5.6347614479	-1.6703696695	 1.0795799367	 0.1123
H	-2.0383445587	-1.094665718	 1.9398446493	 0.105819
H	-2.3329099674	 0.6043250978	 1.5919553145	 0.093025
62.2082	78.9505	154.1829	174.3413	246.3175	251.4174	266.838	316.6553	319.5057	361.0022	423.763	488.888	542.5992	596.0141	660.3954	830.7848	843.4317	854.0097	905.5707	915.5493	940.482	945.7992	999.3033	1004.2256	1062.7838	1064.6548	1093.4022	1109.1306	1148.3993	1157.3267	1212.4009	1237.1377	1257.6362	1293.9959	1304.555	1332.2173	1343.9598	1365.8646	1375.523	1399.6905	1412.1826	1415.3004	1485.5731	1490.7201	1492.2722	1497.0156	1498.2143	1502.0353	1716.4312	2989.8533	2994.889	3015.7387	3024.951	3029.4831	3040.1442	3049.5451	3050.9301	3092.3864	3093.9191	3100.5536	3118.8934	3178.125	3805.942
CC(O)C1=CCC(C)C1	C[C@@H](O)C1=CC[C@@H](C)C1	
InChI=1S/C8H14O/c1-6-3-4-8(5-6)7(2)9/h4,6-7,9H,3,5H2,1-2H3	InChI=1S/C8H14O/c1-6-3-4-8(5-6)7(2)9/h4,6-7,9H,3,5H2,1-2H3/t6-,7-/m1/s1
