21
gdb 39151	2.79574	1.96534	1.41579	0.3888	86.88	-0.224	0.0207	0.2447	982.1007	0.186917	-349.960753	-349.954007	-349.953063	-349.991519	28.97	
C	-0.048994862	 1.4993754922	-0.209604754	-0.251294
C	 1.49891902	 1.5998570672	 0.0511146338	 0.010186
C	 2.0240680584	 2.4319727909	 1.2631077397	-0.22532
C	 2.2083675126	 1.412013433	 2.4463968281	-0.29936
C	 1.2684288046	 0.3308591056	 2.0040594506	 0.263577
C	 0.0666385391	-0.0609275931	 2.4311881287	-0.17786
C	-0.7949856565	-0.5743900682	 1.2864478229	-0.264063
C	-0.0243655111	-0.0508853674	 0.0524520804	-0.008652
C	 1.4402739547	 0.1241941969	 0.5145044443	-0.089767
H	-0.6599894996	 2.0626222226	 0.5013448461	 0.095263
H	-0.3548349665	 1.7815372825	-1.2199426485	 0.095668
H	 2.0608005148	 1.8012431956	-0.8634306149	 0.060009
H	 2.965061375	 2.9388243524	 1.0289514109	 0.095479
H	 1.3034196877	 3.2072065172	 1.5431456848	 0.101215
H	 3.2491575624	 1.0670910734	 2.4814578471	 0.100994
H	 1.9647258821	 1.8405751287	 3.4214471044	 0.101212
H	-0.3221984458	 0.0925173568	 3.4327471778	 0.083547
H	-0.8995404738	-1.6691259068	 1.2726253464	 0.097504
H	-1.8138761144	-0.1690554342	 1.3451060373	 0.097774
H	-0.191961424	-0.6385721338	-0.8524014227	 0.057041
H	 2.2249743124	-0.5827468216	 0.226903117	 0.056846
132.2193	262.8213	318.3216	343.1836	369.7908	549.7825	610.6207	648.8849	712.0335	732.15	795.4793	816.9546	826.4703	838.6113	893.2043	899.6305	916.9185	920.6452	954.4836	972.026	989.0526	1017.4774	1045.5544	1066.1644	1106.4732	1137.7508	1161.7832	1180.0901	1187.829	1218.7001	1230.5168	1242.9637	1262.096	1271.1274	1285.3905	1301.9815	1317.5852	1323.0131	1327.9876	1356.5641	1470.2156	1482.9747	1484.5651	1496.833	1714.7465	2997.7483	3027.3103	3035.1528	3044.5829	3049.0624	3054.9373	3074.4156	3084.9334	3088.5359	3103.1988	3112.1654	3181.2107
C1C2CCC3=CCC1C23	C1[C@H]2CC[C]3[CH]C[C@@H]1[C@@H]23	
InChI=1S/C9H12/c1-3-7-5-8-4-2-6(1)9(7)8/h1,7-9H,2-5H2	InChI=1S/C9H12/c1-3-7-5-8-4-2-6(1)9(7)8/h1,7-9H,2-5H2/t7-,8+,9-/m0/s1
