17
gdb 66964	2.57446	1.71962	1.28076	2.0857	77.49	-0.2302	0.0381	0.2683	1019.1766	0.134416	-384.587647	-384.579762	-384.578818	-384.619794	30.917	
C	 0.0376784396	 1.507121052	 0.111887601	-0.511981
C	 0.034351817	 0.013482384	 0.0085056186	 0.292185
C	-0.9096351262	-0.909324827	 0.8016815363	 0.051454
O	-1.0748135575	-2.1291695539	 0.0809969765	-0.281146
C	 0.3413661101	-2.0465615464	-0.2098475833	 0.057495
C	 0.5663118199	-1.0427037149	 0.978944422	-0.223065
C	 0.4536935344	-0.8423139697	-1.2037493289	-0.24492
C	-0.3439423897	-0.8456772204	-2.4151582204	 0.316691
C	-0.9973211239	-0.832194015	-3.4245560679	-0.440531
H	 1.0305862448	 1.9229685139	-0.0931674903	 0.122821
H	-0.6655806197	 1.9460692172	-0.6042775232	 0.137683
H	-0.2582071475	 1.8348997936	 1.1143433235	 0.121886
H	-1.7031827546	-0.5661030951	 1.452446364	 0.11128
H	 0.8117048485	-3.0078685579	-0.4024148	 0.093537
H	 1.2378688468	-1.0018408796	 1.8252212983	 0.102057
H	 1.5095245116	-0.6544901097	-1.427073431	 0.101496
H	-1.5839991537	-0.8327924611	-4.3096606853	 0.193057
118.7043	131.982	202.6333	256.0818	278.1247	366.8967	442.5156	548.9245	561.5273	626.0056	636.7474	687.5412	754.3968	785.2613	806.0034	840.7147	884.2816	909.4163	938.0625	955.7344	985.208	1025.6048	1052.9402	1074.3239	1108.3542	1144.1147	1149.8384	1200.8197	1215.9345	1283.6072	1292.2145	1347.1567	1408.6597	1426.4153	1485.4952	1498.1458	2233.403	3025.5998	3053.2733	3088.5013	3095.8761	3152.3808	3203.0623	3216.7148	3502.5764
CC12C3OC(C13)C2C#C	C[C@]12[C@H]3O[C@H]([C@@H]13)[C@H]2C#C	
InChI=1S/C8H8O/c1-3-4-6-5-7(9-6)8(4,5)2/h1,4-7H,2H3	InChI=1S/C8H8O/c1-3-4-6-5-7(9-6)8(4,5)2/h1,4-7H,2H3/t4-,5-,6+,7+,8-/m1/s1
