14
gdb 123697	4.21874	1.6103	1.27051	4.3485	66.34	-0.2228	0.0006	0.2234	926.9594	0.103395	-436.645224	-436.639236	-436.638292	-436.675515	24.256	
C	 0.0028350484	 1.4901957984	 0.0887491259	-0.317165
C	 1.2978841194	 0.7407382137	 0.0241339757	 0.083239
O	 1.980147666	 0.4229053027	 1.257622201	-0.257678
C	 1.1348334268	-0.4084735859	 1.8756645234	 0.499961
C	-0.0074100686	-0.7634661322	 1.2321528908	 0.099429
C	-0.6056079151	-1.6330917454	 2.1698647701	-0.12264
N	 0.1195656059	-1.7717355036	 3.2649994534	-0.159503
O	 1.2780161168	-0.9389743882	 3.069033988	-0.23472
C	-0.0304467376	-0.0278446487	-0.0563369522	-0.230834
H	-0.3117494433	 1.9190697727	 1.033610863	 0.137342
H	-0.2361179651	 2.0829197449	-0.7879148676	 0.128803
H	 2.0006673421	 0.8689097298	-0.7875650442	 0.125136
H	-1.5345311132	-2.1844521407	 2.1173317721	 0.137094
H	-0.3776794026	-0.4786279475	-0.9781731997	 0.111537
160.9054	262.3661	378.2281	450.5954	468.8949	613.5986	627.5071	701.7413	741.6195	772.3028	777.4046	806.3884	828.2051	910.8367	944.5995	950.4402	973.6836	1036.8126	1067.1541	1082.7411	1119.3504	1181.6704	1187.3466	1198.2668	1283.053	1350.1019	1410.9077	1444.1075	1463.04	1545.904	1649.1446	3135.1152	3182.1227	3213.1331	3228.5923	3237.3957
C1C2OC3=C(C=NO3)C12	C1[C@H]2Oc3c(cno3)[C@@H]12	
InChI=1S/C6H5NO2/c1-3-4-2-7-9-6(4)8-5(1)3/h2-3,5H,1H2	InChI=1S/C6H5NO2/c1-3-4-2-7-9-6(4)8-5(1)3/h2-3,5H,1H2/t3-,5-/m1/s1
