21
gdb 79135	2.40606	1.89028	1.4578	1.43	81.28	-0.1969	0.08	0.2769	1008.8579	0.18426	-383.214994	-383.20703	-383.206086	-383.246884	31.952	
C	-0.2216837047	 1.6415550158	 0.4318317949	-0.422479
C	 0.1279390088	 0.1824181928	 0.1865213029	 0.080656
C	 0.5898037388	-0.4112235495	-1.1906843505	-0.071881
C	 1.5867679637	-1.2326789025	-0.3458898852	-0.045597
C	 2.5468594494	-0.1635335546	-0.0287980451	-0.034607
C	 2.5498171231	 0.8726717868	-1.1427664171	-0.200881
N	 1.4426959843	 0.4410789394	-2.0039699312	-0.035047
C	 0.8277873557	 1.4481315562	-2.8421570349	-0.32971
N	 1.3592221284	-0.3667568596	 0.8651357292	-0.174336
H	 0.5493019319	 2.3357998295	 0.0946459448	 0.122678
H	-1.1582981635	 1.902737766	-0.0728851813	 0.115181
H	-0.3648185482	 1.8023828587	 1.5061758738	 0.126233
H	-0.6952094349	-0.4379669221	 0.5628189298	 0.078851
H	-0.1665842418	-0.9138865012	-1.7961206733	 0.069891
H	 1.7374390769	-2.304019402	-0.3030858394	 0.092955
H	 3.4750976673	-0.3814418436	 0.4868797449	 0.098457
H	 2.4304501236	 1.8978198739	-0.7576875849	 0.093284
H	 3.5050698165	 0.8495875388	-1.6869886629	 0.101599
H	 1.5789617825	 1.8598867942	-3.5259326669	 0.119129
H	 0.0454567052	 0.9852014825	-3.4528848721	 0.117522
H	 0.3758697069	 2.2944672204	-2.2966509857	 0.098101
155.8087	194.9952	224.1633	236.7432	246.648	320.3474	342.2063	479.8221	555.9981	586.8433	671.8955	730.7211	767.9642	799.3403	848.1084	878.39	888.8496	923.5219	971.3521	1004.697	1037.355	1053.8937	1085.4021	1091.661	1106.4056	1146.6982	1155.0482	1174.7371	1211.1933	1215.3828	1229.3991	1252.214	1272.7784	1300.3623	1341.105	1365.0299	1391.1964	1403.7249	1410.1012	1457.2012	1480.2687	1488.4952	1505.117	1513.0078	1531.4805	2955.6157	2972.3434	3001.95	3019.9606	3037.9174	3048.3442	3091.1129	3095.6221	3096.5684	3141.2574	3178.9187	3193.4378
CC1C2C3C(CN2C)N13	C[C@H]1[C@@H]2[C@H]3[C@@H](CN2C)N13	
InChI=1S/C7H12N2/c1-4-6-7-5(9(4)7)3-8(6)2/h4-7H,3H2,1-2H3	InChI=1S/C7H12N2/c1-4-6-7-5(9(4)7)3-8(6)2/h4-7H,3H2,1-2H3/t4-,5+,6+,7+,9?/m0/s1
