19
gdb 116232	2.59895	1.40826	1.06503	1.9434	71.19	-0.2481	0.078	0.3261	1162.7762	0.159319	-460.138511	-460.130009	-460.129065	-460.172021	32.052	
O	 0.0448608074	 1.470976502	-0.4594890533	-0.424715
C	 0.1411559199	 0.0703495059	-0.3120649844	-0.060498
C	-1.1679163631	-0.5158228595	 0.2167142505	 0.017521
O	-2.2222111147	-0.071826238	-0.6594352011	-0.292461
C	-2.8291098532	-1.22554347	-1.2177405013	 0.012176
O	-1.8950246035	-2.2701145828	-1.1145306246	-0.265997
C	-1.2625779786	-2.0326975762	 0.1237496305	 0.403507
C	-0.2422121093	-3.0163698971	 0.5778894259	-0.345054
C	-1.5856676818	-2.932029054	 1.2861805518	-0.337019
H	-0.7655075666	 1.6241067511	-0.9610795689	 0.290458
H	 0.3919738214	-0.4275081393	-1.2621392363	 0.092878
H	 0.9542449136	-0.1222302924	 0.396130598	 0.103469
H	-1.369261261	-0.1412077162	 1.227097616	 0.091978
H	-3.7508567995	-1.4656000416	-0.6608086465	 0.090776
H	-3.0555996113	-1.0529351306	-2.2738525797	 0.119359
H	-0.0685493363	-3.869972577	-0.0673718357	 0.134038
H	 0.6398850024	-2.6501468621	 1.0916599803	 0.124772
H	-1.6182288325	-2.5042975843	 2.2828179361	 0.119147
H	-2.2924152732	-3.7335320381	 1.1037500427	 0.125666
63.1721	124.1585	160.2075	189.1908	274.0863	291.5469	360.9748	461.0658	477.2622	534.0132	555.396	740.0558	769.157	817.9572	852.4924	894.4969	933.0487	959.5242	999.5581	1015.8995	1040.4104	1052.9426	1082.6756	1090.6583	1106.68	1117.6842	1172.5044	1189.6499	1220.73	1225.4777	1262.185	1276.0558	1338.0416	1376.3312	1399.4747	1424.3055	1441.8114	1452.9169	1496.971	1502.2903	1541.796	2956.555	2983.1112	3040.5569	3073.7772	3086.3959	3132.6078	3138.6081	3219.3105	3232.7316	3784.4186
OCC1OCOC11CC1	OC[C@H]1OCOC21CC2	
InChI=1S/C6H10O3/c7-3-5-6(1-2-6)9-4-8-5/h5,7H,1-4H2	InChI=1S/C6H10O3/c7-3-5-6(1-2-6)9-4-8-5/h5,7H,1-4H2/t5-/m1/s1
