17
gdb 85710	2.29439	1.4666	1.03506	4.6899	78.77	-0.2544	0.0094	0.2638	1171.5475	0.134912	-380.826115	-380.817078	-380.816134	-380.860087	33.192	
C	 0.1141951719	 1.551412548	-0.1965506715	-0.396951
C	 0.0907165265	 0.0537770468	 0.0262732699	 0.054009
N	 1.0379641259	-0.7263346187	-0.8062855034	-0.304769
C	 1.3457693793	-1.6361996605	 0.3097009411	-0.136265
C	 2.7463496468	-2.037461063	 0.4304737789	 0.313544
N	 3.8447198912	-2.3820777794	 0.5282280821	-0.32376
C	 0.7659100362	-0.5629883601	 1.3075248843	-0.245959
C	 1.7382599834	 0.2619447041	 1.9882175258	 0.381275
C	 2.5428519653	 0.9430293422	 2.5651685356	-0.465111
H	 1.1289356622	 1.9406451928	-0.0905904933	 0.143368
H	-0.245541415	 1.786901852	-1.2038297111	 0.118387
H	-0.5366359469	 2.0603072582	 0.5220701638	 0.120524
H	-0.9414896667	-0.3230112809	-0.0368686518	 0.073783
H	 0.6581934765	-1.1688775236	-1.6361982955	 0.228544
H	 0.7281147506	-2.5451503615	 0.3459603837	 0.113821
H	 0.0600462274	-0.9868183569	 2.0247126827	 0.117568
H	 3.2650172452	 1.5359637905	 3.0701901186	 0.207993
64.6577	101.8359	148.6837	188.0138	226.126	269.6094	314.7919	413.3208	437.0882	482.1711	567.6993	615.0133	637.3026	655.6201	691.7989	775.6963	793.3308	881.5835	956.2314	999.4225	1004.8227	1070.921	1097.8352	1124.466	1151.9767	1166.2891	1237.88	1287.8228	1340.0315	1354.5128	1384.4801	1403.382	1421.3182	1484.7398	1490.8836	2240.3147	2361.2458	2980.0409	2996.4759	3039.3457	3087.7403	3104.19	3136.119	3502.0361	3530.8308
CC1NC(C#N)C1C#C	C[C@H]1N[C@@H](C#N)[C@H]1C#C	
InChI=1S/C7H8N2/c1-3-6-5(2)9-7(6)4-8/h1,5-7,9H,2H3	InChI=1S/C7H8N2/c1-3-6-5(2)9-7(6)4-8/h1,5-7,9H,2H3/t5-,6+,7+/m1/s1
