19
gdb 63891	2.82602	1.79081	1.57732	1.6304	73.9	-0.2414	-0.0008	0.2406	943.2821	0.159381	-423.024522	-423.016876	-423.015932	-423.055922	31.39	
C	-0.0961978175	 1.5715032738	-0.0166248334	-0.437732
C	 0.0055661134	 0.049863022	 0.028770748	 0.409667
C	-1.3697538274	-0.6099685512	-0.0893107092	-0.425204
O	 0.8405845745	-0.4172111781	-1.0626127522	-0.329843
C	 1.8487339917	-1.2308306481	-0.4233479149	 0.138436
O	 1.1705238116	-1.8103659418	 0.669215389	-0.237494
C	 0.8033276454	-0.5454090741	 1.2566540825	-0.05737
C	 2.1456781941	 0.1678840348	 1.3268252941	-0.10031
C	 2.8214991205	-0.272358529	 0.264714898	-0.085639
H	 0.8910233581	 2.0360831577	-0.0018580317	 0.123073
H	-0.6045920568	 1.8815542219	-0.9345290017	 0.125027
H	-0.6780155677	 1.9477835146	 0.832133825	 0.110082
H	-1.8171649704	-0.3662002872	-1.0572639416	 0.120951
H	-1.2776426965	-1.6946143443	-0.0126450194	 0.134181
H	-2.0422614467	-0.2514067184	 0.6979255228	 0.105251
H	 2.2201641389	-1.9749358299	-1.1249814252	 0.093566
H	 0.2299505093	-0.6834409069	 2.1712965256	 0.087216
H	 2.4087470306	 0.9469836466	 2.0281391715	 0.113279
H	 3.7760773248	 0.0492935676	-0.1267329473	 0.112863
182.2025	204.5214	239.9061	250.0413	342.162	363.7442	433.7451	456.4993	540.3105	601.6036	668.7517	723.8937	773.5923	816.8905	850.6996	858.5607	881.5492	902.8315	931.0833	938.1525	944.0316	967.1242	1003.6351	1018.0286	1066.4761	1143.0598	1158.0064	1202.3999	1232.4225	1265.6519	1277.7923	1308.1579	1330.7448	1333.7283	1394.3851	1413.2713	1476.7801	1487.7965	1495.623	1509.8902	1635.2987	3035.6748	3042.1532	3101.9409	3108.9502	3137.2803	3140.5944	3143.9009	3151.7602	3223.4745	3249.2745
CC1(C)OC2OC1C=C2	CC1(C)O[C@@H]2O[C@H]1C=C2	
InChI=1S/C7H10O2/c1-7(2)5-3-4-6(8-5)9-7/h3-6H,1-2H3	InChI=1S/C7H10O2/c1-7(2)5-3-4-6(8-5)9-7/h3-6H,1-2H3/t5-,6-/m0/s1
