15
gdb 44902	4.34893	1.18005	1.11917	3.9881	71.62	-0.2642	-0.0055	0.2588	1078.7828	0.113101	-420.60395	-420.596857	-420.595913	-420.635471	27.906	
O	-0.0147728452	 0.0609195356	 0.0604417052	-0.340475
C	 0.0535429166	 1.2500324663	 0.0221190851	 0.444973
O	-1.0382572639	 2.095074538	 0.0521697435	-0.242098
C	-0.4097470506	 3.4032294452	-0.0204155298	 0.096541
C	 0.6470093978	 3.2130273799	-1.1276651102	-0.258489
C	 1.22406526	 2.2192043743	-0.0612694967	-0.187014
C	 0.7353368591	 3.2601128522	 1.0361248473	-0.215091
C	 1.5878399487	 4.4082412983	 1.247466347	 0.303488
C	 2.2928038478	 5.3631663595	 1.4401494104	-0.41734
H	-1.1663960856	 4.1826654466	 0.006042225	 0.111242
H	 0.3023381376	 2.8022475191	-2.0780090941	 0.12553
H	 1.2848023204	 4.0842505943	-1.2724112202	 0.138429
H	 2.2242460081	 1.7980431415	-0.0823512292	 0.111609
H	 0.4141333162	 2.8259191815	 1.9875026858	 0.125725
H	 2.9154893431	 6.2057788877	 1.6141264109	 0.202971
125.747	146.3713	210.6364	390.6915	436.0026	457.3204	503.0216	538.3495	633.2947	646.3509	653.7195	744.9124	799.8189	865.5467	870.3169	898.16	930.8408	947.8819	1014.508	1022.7503	1068.582	1078.2099	1115.4938	1143.0277	1192.299	1218.076	1242.384	1260.5207	1313.2955	1360.8025	1492.3048	1917.7242	2235.3498	3071.0854	3089.3619	3161.7313	3166.4898	3179.7633	3503.0126
O=C1OC2CC1C2C#C	O=C1O[C@@H]2C[C@H]1[C@H]2C#C	
InChI=1S/C7H6O2/c1-2-4-5-3-6(4)9-7(5)8/h1,4-6H,3H2	InChI=1S/C7H6O2/c1-2-4-5-3-6(4)9-7(5)8/h1,4-6H,3H2/t4-,5+,6-/m1/s1
