15
gdb 26014	4.88236	0.96782	0.8206	2.7638	66.19	-0.235	0.0105	0.2455	1311.3138	0.113264	-454.010618	-454.002189	-454.001245	-454.045651	29.44	
N	 0.0962813579	 1.316094691	-0.1153699174	-0.524642
C	-0.091850138	 0.0646503786	 0.3919277448	 0.422445
O	 0.406010709	-0.2883631888	 1.444123287	-0.355369
C	-1.0085679853	-0.8194014758	-0.4527615962	-0.447556
C	-0.8483570213	-2.2887443432	-0.2276355698	 0.250693
C	-0.2706055973	-2.9856912457	 0.7813883012	-0.085168
O	-0.4112818197	-4.3204829964	 0.5063963229	-0.1445
C	-1.0766373632	-4.3537988366	-0.66612575	 0.069124
N	-1.3668120008	-3.1940376348	-1.1556516182	-0.31616
H	 0.6549859161	 1.965609064	 0.4130980688	 0.263582
H	-0.2920140057	 1.6104457881	-0.9935532341	 0.262315
H	-2.0422144241	-0.519402699	-0.2264859287	 0.151041
H	-0.8707167611	-0.6082735316	-1.5189703799	 0.130531
H	 0.2421193396	-2.7143730275	 1.6839123462	 0.175784
H	-1.2955313963	-5.3273127622	-1.0758836066	 0.147879
26.0384	48.2844	123.6229	165.6006	263.9303	326.0201	363.0029	497.3167	598.9375	632.5161	650.122	688.1702	773.6826	802.6088	847.7656	867.0049	939.4927	965.5519	1003.6737	1085.0143	1093.7696	1134.3832	1197.5608	1224.5549	1233.3479	1308.5855	1339.9252	1411.5769	1457.1329	1558.5873	1618.5769	1630.168	1795.0227	3012.5077	3066.3057	3276.1601	3339.1268	3606.945	3744.4179
NC(=O)CC1=COC=N1	NC(=O)Cc1cocn1	
InChI=1S/C5H6N2O2/c6-5(8)1-4-2-9-3-7-4/h2-3H,1H2,(H2,6,8)	InChI=1S/C5H6N2O2/c6-5(8)1-4-2-9-3-7-4/h2-3H,1H2,(H2,6,8)
