18
gdb 60659	3.24743	1.17095	1.05301	4.8244	68.21	-0.2461	0.0123	0.2584	1178.69	0.148382	-476.228822	-476.220151	-476.219206	-476.262842	31.786	
O	 0.7726424211	 1.6213122519	-0.1912950526	-0.435192
C	 0.1753448082	 0.3441916385	 0.014479225	-0.011085
C	 0.4529214181	-0.4897933884	-1.2379106357	 0.016139
C	 0.3553882945	 0.2657715973	-2.5919363458	-0.255868
C	 1.8885752194	 0.0871044474	-2.7146107974	-0.153675
N	 1.9272758773	-0.708396319	-1.4457100405	-0.341329
H	 2.3546635135	-0.4501460487	 0.2679142804	 0.312512
H	 2.1417884833	-1.6854785172	-1.6142973778	 0.236911
C	 0.763030367	-0.3016983984	 1.2877037524	 0.370399
O	 0.1082290387	-0.4972056444	 2.2791705526	-0.33749
O	 2.0700749017	-0.5703840939	 1.2141867257	-0.372783
H	 0.6472944652	 2.1453435581	 0.6065091732	 0.300533
H	-0.9086623774	 0.426570234	 0.165107222	 0.094766
H	-0.1243542206	-1.4171528665	-1.1750612684	 0.095461
H	-0.2190620912	-0.2701600405	-3.3493480421	 0.108278
H	 0.0029057191	 1.2936278277	-2.5234361764	 0.132035
H	 2.2345288795	-0.4639008841	-3.5931138539	 0.109391
H	 2.4654019527	 1.0102067463	-2.6235124909	 0.130997
54.4177	91.9903	131.9543	208.4973	280.4496	287.956	330.787	354.9887	396.6259	621.9233	694.0389	735.4755	760.6422	805.6571	819.3489	883.8909	905.8257	935.1293	971.3028	977.55	1015.6586	1021.5179	1069.9781	1128.975	1153.0167	1216.2853	1234.1313	1261.9556	1272.7393	1286.3157	1306.2202	1343.4025	1352.4202	1390.4227	1417.6771	1480.3352	1495.5536	1511.4746	1853.7451	3030.3765	3059.3745	3063.6042	3088.7886	3111.0488	3156.4336	3209.8933	3530.5496	3821.919
OC(C1CC[NH2+]1)C([O-])=O	O[C@@H]([C@H]1CCN1)C(=O)O	
InChI=1S/C5H9NO3/c7-4(5(8)9)3-1-2-6-3/h3-4,6-7H,1-2H2,(H,8,9)	InChI=1S/C5H9NO3/c7-4(5(8)9)3-1-2-6-3/h3-4,6-7H,1-2H2,(H,8,9)/t3-,4+/m1/s1
