24
gdb 5807	3.0718	1.22601	1.1181	1.5429	81.74	-0.2603	0.0631	0.3234	1251.6418	0.220088	-351.422914	-351.412226	-351.411282	-351.457936	40.239	
C	 0.3585314373	 0.0072033536	 1.5301385973	-0.386777
C	-0.0248095185	 0.077838307	 0.0433971188	 0.024726
C	 1.1445425646	-0.3992439819	-0.8302809003	-0.374647
C	-1.3274113332	-0.7153745184	-0.1868069691	-0.163592
C	-2.063864033	-0.5714541893	-1.5348656371	 0.329363
C	-3.4014950007	-1.3262157229	-1.4574488929	-0.40538
C	-2.3086443051	 0.8947367443	-1.9219809806	-0.41542
O	-1.2345384924	-1.2007114434	-2.52373553	-0.45158
H	 1.2720430785	 0.5775538155	 1.7285609806	 0.106678
H	-0.4341998725	 0.4075597026	 2.1715827485	 0.103706
H	 0.5430409055	-1.0293300351	 1.8378029636	 0.110292
H	-0.218011348	 1.133306689	-0.1908141951	 0.068076
H	 1.3806201561	-1.4487759537	-0.6164922806	 0.105872
H	 0.9095221159	-0.3295368266	-1.8925896275	 0.129859
H	 2.0441089635	 0.1916940877	-0.6249051352	 0.095541
H	-1.1214457808	-1.784261545	-0.0421698131	 0.096306
H	-2.0415655881	-0.4313959375	 0.5965459454	 0.085187
H	-4.0732350573	-0.8813243031	-0.7161980332	 0.112033
H	-3.9136817142	-1.300255311	-2.4268911648	 0.097385
H	-3.232791882	-2.373456483	-1.1907888582	 0.120258
H	-1.3658500799	 1.4183866043	-2.0954067598	 0.127282
H	-2.8989963016	 0.9505760793	-2.8445194506	 0.098902
H	-2.8644036866	 1.4279249684	-1.1435152812	 0.113659
H	-1.6841291476	-1.1252281807	-3.3722645048	 0.272268
38.084	118.7172	186.1909	229.6163	236.6862	249.1685	265.8287	289.8617	294.9635	315.4009	344.5621	387.211	413.9542	427.574	470.408	540.7449	762.257	821.4265	873.3715	911.1424	918.8182	931.7276	957.2562	968.9293	996.163	1008.8137	1088.1682	1120.0418	1157.0237	1195.6676	1206.7386	1219.448	1300.5521	1326.4976	1360.3092	1378.2043	1394.9713	1397.2191	1400.5831	1414.9886	1423.4759	1465.3772	1481.2766	1484.769	1487.9041	1494.2105	1499.8511	1503.977	1508.482	1512.7072	3009.8587	3015.5947	3020.8717	3023.5479	3029.1524	3031.1385	3055.9109	3082.695	3087.1059	3089.6938	3094.9411	3095.7583	3115.0171	3124.8268	3147.4105	3802.5196
CC(C)CC(C)(C)O	CC(C)CC(C)(C)O	
InChI=1S/C7H16O/c1-6(2)5-7(3,4)8/h6,8H,5H2,1-4H3	InChI=1S/C7H16O/c1-6(2)5-7(3,4)8/h6,8H,5H2,1-4H3
