19
gdb 32098	3.0063	1.22661	0.94249	1.802	85.25	-0.2404	-0.0311	0.2092	1302.7024	0.160052	-382.147254	-382.138258	-382.137314	-382.183047	32.155	
C	-0.0699767435	 1.4550174081	 0.0855019784	-0.376435
C	 0.0277964855	-0.077950614	-0.0035824001	-0.249177
C	 0.7293995033	-0.5127273749	-1.2642566736	 0.336816
N	-0.0145901274	-0.5835371583	-2.3787545692	-0.286113
C	 0.6280677788	-0.9399053977	-3.4899110012	 0.009628
C	 1.987106029	-1.2245348446	-3.5137937804	-0.179609
C	 2.6761194957	-1.1195430135	-2.3067307184	 0.320885
C	 4.14933271	-1.3991177942	-2.1918496898	-0.470427
N	 2.0402794697	-0.7618205805	-1.1827382562	-0.327428
H	 0.9263292039	 1.9079849545	 0.0975236736	 0.123709
H	-0.6181770806	 1.8561263262	-0.7721148296	 0.129834
H	-0.5923158259	 1.756790271	 0.9981286637	 0.114279
H	 0.5809485803	-0.4669797966	 0.8550801287	 0.112021
H	-0.9780555219	-0.5081166188	 0.0009586516	 0.11383
H	 0.0299041415	-1.0018322831	-4.3972104556	 0.11325
H	 2.4874566745	-1.51614062	-4.4296967689	 0.101499
H	 4.5887418851	-1.6672497201	-3.1553241369	 0.121028
H	 4.6690039181	-0.5208771491	-1.7962322881	 0.146003
H	 4.323024104	-2.2157764643	-1.4839117482	 0.146406
15.6588	47.5485	126.4208	193.7237	219.9183	289.9084	299.6724	428.3466	453.413	544.4759	572.0393	645.8992	749.2049	796.9132	831.601	851.768	906.9606	982.1102	1007.1124	1012.1797	1026.5223	1059.8976	1074.2184	1089.7766	1139.84	1238.8422	1263.942	1295.8233	1307.2032	1356.3048	1396.9389	1404.9395	1431.3089	1473.6913	1474.4519	1477.9816	1484.4026	1496.788	1510.0141	1604.7746	1616.0852	3037.8752	3043.6079	3057.8965	3100.7449	3105.5476	3112.0455	3123.6345	3130.1991	3145.0246	3199.5295
CCC1=NC=CC(C)=N1	CCc1nccc(C)n1	
InChI=1S/C7H10N2/c1-3-7-8-5-4-6(2)9-7/h4-5H,3H2,1-2H3	InChI=1S/C7H10N2/c1-3-7-8-5-4-6(2)9-7/h4-5H,3H2,1-2H3
