16
gdb 24558	2.17887	2.00332	1.1614	4.2671	85.91	-0.1915	-0.0279	0.1636	1036.4696	0.126863	-396.917954	-396.910394	-396.90945	-396.95008	28.77	
N	 0.1131154455	 1.2054845642	-0.4362514291	-0.298804
C	 0.8426938523	 2.2628446064	 0.0760428165	-0.014549
C	 1.9024195923	 2.3172416729	 0.9074803987	-0.100042
C	 2.599285469	 1.3451675575	 1.7291770248	-0.043178
N	 2.1808207339	 0.5550115089	 2.6497614298	-0.209488
C	 0.883951222	 0.3561445668	 3.0435895642	-0.030585
C	-0.1946889104	-0.1204431888	 2.3769774836	-0.05301
N	-0.3321116281	-0.6209284103	 1.1071856635	-0.226749
C	-0.180041783	-0.0885178878	-0.0338508398	 0.080311
H	-0.2443209948	 1.3965141237	-1.3604112428	 0.258057
H	 0.5711756508	 3.1898646896	-0.4222721572	 0.112423
H	 2.3840999547	 3.2939699954	 0.919803419	 0.104007
H	 3.6893633972	 1.4025270793	 1.6387156605	 0.103352
H	 0.7688717728	 0.4025943935	 4.125824778	 0.103318
H	-1.0360923364	-0.3975854461	 3.0112955507	 0.103577
H	-0.4140908676	-0.7090689952	-0.9019353305	 0.111361
117.2314	117.9823	207.5106	242.2341	337.7703	379.9526	501.174	550.5512	573.593	618.9296	681.6121	744.7624	805.6824	826.3333	838.0282	915.9294	925.5488	933.9477	942.4003	956.744	978.9712	1011.4864	1131.3459	1222.9824	1330.9632	1369.5831	1416.3923	1456.1292	1462.9364	1493.5818	1550.5499	1613.0496	1658.44	1708.4326	1752.8989	3058.4138	3096.3158	3118.1988	3130.6986	3139.4169	3162.4453	3605.2815
N1C=CC=NC=CN=C1	[nH]1cccnccnc1	
InChI=1S/C6H7N3/c1-2-7-4-5-9-6-8-3-1/h1-6H,(H,8,9)/b3-1-,5-4-,7-2-	InChI=1S/C6H7N3/c1-2-7-4-5-9-6-8-3-1/h1-6H,(H,8,9)/b3-1-,5-4-,7-2-
