16
gdb 130942	6.62278	0.69564	0.65686	2.2467	71.57	-0.2557	-0.0307	0.225	1613.117	0.12543	-434.103184	-434.094806	-434.093862	-434.138354	28.739	
O	-0.2354492804	 0.0113170702	 0.0622762032	-0.232342
C	-0.033735025	 1.1972298127	 0.0583800194	 0.155778
C	 1.3259761589	 1.8461564406	-0.0598357914	-0.263623
C	 1.3675746029	 2.8851225526	-1.1978315305	-0.345867
C	 2.6098485187	 3.7160425447	-1.1499085865	 0.398126
N	 3.115049342	 4.3113885609	-0.0822609931	-0.311854
C	 4.2190746503	 4.9407000391	-0.5716756833	 0.027408
N	 4.4356580213	 4.776935281	-1.8653369894	-0.212142
N	 3.3915267312	 3.9864680603	-2.217521647	-0.246736
H	-0.8776306544	 1.92262149	 0.1498837883	 0.073815
H	 1.5359455772	 2.3719096633	 0.8808255	 0.158383
H	 2.0838584527	 1.0702265583	-0.1932960602	 0.130045
H	 1.2899646667	 2.3884331067	-2.1711953015	 0.119767
H	 0.4962116848	 3.548241441	-1.1141707508	 0.140259
H	 4.8810040476	 5.5326519306	 0.0424543648	 0.129178
H	 3.2924140654	 3.6864537779	-3.1738435021	 0.279806
31.3872	68.7668	71.0512	134.7337	275.5803	311.555	368.1283	517.0302	565.6177	697.4167	698.8617	750.9302	789.5752	852.3823	913.4987	981.3214	1002.564	1052.1487	1070.9228	1089.0544	1130.184	1187.5368	1215.1698	1250.9914	1276.1458	1308.2709	1324.1832	1377.592	1421.3588	1430.7679	1463.0917	1480.0986	1506.5642	1585.9238	1840.364	2846.7164	3022.469	3039.4293	3071.4254	3115.074	3262.6618	3658.9076
O=CCCC1=NC=NN1	O=CCCc1ncn[nH]1	
InChI=1S/C5H7N3O/c9-3-1-2-5-6-4-7-8-5/h3-4H,1-2H2,(H,6,7,8)	InChI=1S/C5H7N3O/c9-3-1-2-5-6-4-7-8-5/h3-4H,1-2H2,(H,6,7,8)
