19
gdb 67473	2.59297	1.66446	1.55853	1.1827	74.2	-0.2335	0.071	0.3045	966.408	0.161228	-422.992656	-422.985255	-422.98431	-423.024014	30.154	
O	-0.0832008681	 1.4078577157	-0.0449856409	-0.466331
C	-0.0000102772	 0.0268449032	-0.0247566561	 0.367805
C	-1.1333800194	-0.976550714	 0.0915917056	-0.128559
C	-0.6031099111	-1.7550427251	-1.1169210224	-0.23209
C	 0.6708131954	-0.8406678028	-1.1183651133	-0.108234
C	 1.9318727127	-1.5385237931	-0.618246948	-0.09394
O	 1.627652032	-2.4245112146	 0.4492902553	-0.24375
C	 1.0082278874	-1.8044980393	 1.5644537163	-0.103958
C	-0.0933256466	-0.8226233298	 1.2029285754	-0.118535
H	 0.6673586806	 1.7691002516	 0.4389744355	 0.284373
H	-2.1775203301	-0.7866213615	 0.3103769827	 0.089703
H	-0.4336887459	-2.8262029803	-0.9938557186	 0.109429
H	-1.2206783007	-1.5810145381	-2.0014042856	 0.101488
H	 0.8419853091	-0.3073455351	-2.055393054	 0.077544
H	 2.3809804345	-2.1656919322	-1.3948706871	 0.107368
H	 2.6853722296	-0.792923671	-0.307097474	 0.077939
H	 0.6253855163	-2.6248567157	 2.1813743115	 0.109937
H	 1.7658189654	-1.2668684064	 2.1639794997	 0.080776
H	-0.5006950138	-0.2932399117	 2.0618329078	 0.089034
172.9081	199.5299	262.1483	301.6682	316.0716	381.0326	399.0528	481.1523	573.9894	653.353	701.8504	751.6617	788.8396	822.2761	881.9137	901.8012	924.0968	975.53	998.2487	1024.7692	1057.3229	1071.8322	1081.6407	1106.0968	1146.0123	1161.567	1183.585	1210.004	1229.9262	1266.3484	1284.0582	1304.9159	1313.815	1321.3683	1334.9363	1385.8611	1417.9975	1470.4247	1491.8097	1501.5273	1503.4425	2933.2333	2947.8872	3059.5994	3065.672	3072.8268	3095.8349	3122.7837	3138.8525	3183.3203	3794.4062
OC12C3CC1COCC23	O[C@@]12[C@H]3C[C@@H]1COC[C@@H]23	
InChI=1S/C7H10O2/c8-7-4-1-5(7)6(7)3-9-2-4/h4-6,8H,1-3H2	InChI=1S/C7H10O2/c8-7-4-1-5(7)6(7)3-9-2-4/h4-6,8H,1-3H2/t4-,5+,6-,7-/m1/s1
