25
gdb 99518	1.94666	1.2889	0.96407	0.5262	94.54	-0.2582	0.0536	0.3118	1410.4249	0.225024	-352.339017	-352.327436	-352.326492	-352.374972	43.747	
C	 0.0080869554	 1.6373413227	 0.0067985367	-0.387697
C	-0.0276632077	 0.106557071	-0.0047837963	-0.195517
C	 0.6686027451	-0.5289101546	 1.2259256843	-0.156805
C	-0.0190720456	-0.1160527128	 2.4517036978	 0.339866
C	-0.6098562914	 0.2295069831	 3.4415106029	-0.471056
C	 0.8438249801	-2.0908434756	 1.1596320305	 0.252173
C	 1.6690127208	-2.4730363921	-0.0840123301	-0.417851
C	 1.6177406154	-2.5522334741	 2.4095696359	-0.411769
C	-0.5194086814	-2.8033277545	 1.1142279935	-0.409657
H	 1.0393271081	 2.0085476939	 0.0120206139	 0.111139
H	-0.4870301822	 2.0440632711	-0.8803059838	 0.110315
H	-0.4953342501	 2.0384339983	 0.8908659847	 0.132205
H	-1.0671380458	-0.2354093289	-0.0477524723	 0.107223
H	 0.4644368538	-0.2551464051	-0.9123564517	 0.098841
H	 1.6869846817	-0.1126984688	 1.2667233312	 0.094644
H	-1.1177894776	 0.5357849188	 4.3222866487	 0.191185
H	 2.6146978555	-1.9200212884	-0.1221668158	 0.10727
H	 1.9126856609	-3.5402856018	-0.0572035887	 0.110074
H	 1.1298900536	-2.288251737	-1.0171112863	 0.114847
H	 1.0774383805	-2.3069458211	 3.3272315779	 0.127453
H	 1.7725718335	-3.6359809006	 2.3836245271	 0.105604
H	 2.6036251154	-2.0760808302	 2.4618493831	 0.105277
H	-1.0760398573	-2.5596092239	 0.2039567423	 0.110145
H	-0.3801124618	-3.8894697724	 1.1321046356	 0.107144
H	-1.1366907189	-2.5266740271	 1.9739108885	 0.124946
60.4028	88.6454	153.8489	184.1754	193.2602	224.5671	251.3201	265.1393	275.3823	315.6441	320.7633	349.0576	400.8767	408.5207	453.3496	552.9422	556.3303	618.3693	630.89	749.7764	785.2076	853.8208	932.4276	936.442	947.8684	954.6498	961.6683	1029.2117	1038.6199	1064.3587	1116.4472	1123.2197	1211.8833	1243.1455	1253.4415	1285.4999	1322.8845	1352.7503	1364.8947	1397.6882	1399.9167	1411.071	1431.2852	1479.758	1484.464	1488.6383	1490.0164	1497.3206	1504.3833	1508.3079	1509.593	1521.3131	2223.1916	2984.2541	3026.6482	3030.0299	3033.5225	3036.6789	3048.5628	3085.7643	3089.531	3094.6241	3098.8852	3102.5262	3108.9158	3112.8866	3119.5632	3120.3217	3502.8481
CCC(C#C)C(C)(C)C	CC[C@@H](C#C)C(C)(C)C	
InChI=1S/C9H16/c1-6-8(7-2)9(3,4)5/h1,8H,7H2,2-5H3	InChI=1S/C9H16/c1-6-8(7-2)9(3,4)5/h1,8H,7H2,2-5H3/t8-/m1/s1
