21
gdb 68037	2.05744	1.70975	1.40429	1.6446	79.35	-0.2275	0.0684	0.2959	1089.7877	0.178574	-424.182895	-424.172978	-424.172034	-424.216505	38.124	
C	 0.0717319486	 1.4627646862	 0.1091712388	-0.525576
C	-0.016627885	-0.0202860838	-0.068760665	 0.348934
C	 0.6114381359	-0.9321642612	-1.1514496167	-0.313211
C	 0.0353801378	-1.839000038	-0.0323744281	 0.373326
C	 0.2055352454	-3.3073212628	 0.1968736729	-0.524124
O	 0.6033486767	-0.892212158	 0.9642558198	-0.379758
C	-1.264165477	-0.9796224663	-0.0216877494	 0.357779
C	-2.1240704184	-0.9742642572	 1.2288443091	-0.488858
O	-2.0400718795	-1.113046138	-1.1940985426	-0.486329
H	 1.1157806938	 1.7904044175	 0.1265696117	 0.134074
H	-0.4331849705	 1.9708355143	-0.7190501712	 0.125117
H	-0.4020968665	 1.7724218763	 1.0462582695	 0.128501
H	 0.1444716459	-0.9651411236	-2.1350963243	 0.11093
H	 1.7020617421	-0.9018901806	-1.1821177666	 0.093297
H	 1.2658408463	-3.5765966536	 0.2142496298	 0.131299
H	-0.2435731358	-3.6067854969	 1.1490867704	 0.128875
H	-0.2822535698	-3.8670864758	-0.6072055775	 0.134756
H	-1.5055240562	-0.910381872	 2.1236967938	 0.146266
H	-2.809387108	-0.1162302595	 1.2211227992	 0.103257
H	-2.7332308736	-1.8830356494	 1.2742140948	 0.121527
H	-2.8248895623	-0.564420988	-1.0986237386	 0.279919
172.4446	174.5095	183.9193	193.2916	203.2389	219.995	237.3945	240.1214	323.7743	400.8053	409.8861	500.2403	543.5286	597.276	610.7928	682.4808	691.5567	718.8772	803.2842	866.0745	923.687	957.7777	1011.5844	1021.38	1071.1023	1082.6874	1136.6392	1150.9263	1160.0048	1169.2721	1216.1282	1220.6136	1266.7052	1349.9887	1390.1926	1397.0239	1405.6763	1424.9234	1476.5373	1478.125	1482.2866	1486.9811	1488.9924	1501.1939	1508.5863	3021.0888	3034.6804	3038.4058	3080.2936	3084.2421	3106.6837	3108.9834	3110.6995	3115.2743	3154.5118	3161.2633	3816.1651
CC12CC(C)(O1)C2(C)O	C[C@@]12C[C@@](C)(O1)[C@]2(C)O	
InChI=1S/C7H12O2/c1-5-4-6(2,9-5)7(5,3)8/h8H,4H2,1-3H3	InChI=1S/C7H12O2/c1-5-4-6(2,9-5)7(5,3)8/h8H,4H2,1-3H3/t5-,6+,7+
