19
gdb 95566	2.3255	1.67495	1.10531	2.2141	77.55	-0.2306	-0.0154	0.2152	1127.0811	0.159152	-423.049071	-423.04054	-423.039596	-423.082482	32.342	
C	-0.092923166	 1.4270182212	 0.0624193362	-0.398797
C	 0.0346569299	-0.091175955	-0.0564480637	 0.024746
O	 1.0883744818	-0.3742015865	-0.9581939837	-0.246036
C	 1.0414296318	-1.6568827194	-1.5487600218	-0.136747
C	 1.3388887469	-2.8006567801	-0.6200293374	-0.037526
C	 1.5879128507	-2.725598695	 0.6865641724	-0.088509
C	 1.5776764573	-1.4646719631	 1.5292267523	-0.344293
C	 0.2680993785	-0.7046800923	 1.3384164796	 0.368103
O	-0.555355132	-0.5765154098	 2.2110771964	-0.310642
H	 0.8528688188	 1.8630973405	 0.3983981341	 0.127073
H	-0.3436805078	 1.8585584936	-0.9093805172	 0.124063
H	-0.8723977686	 1.6742938367	 0.7855475146	 0.143045
H	-0.9136088149	-0.5067559556	-0.4348289251	 0.09635
H	 0.0598377388	-1.81993278	-2.0313168762	 0.101751
H	 1.7824281677	-1.6388373816	-2.3582788279	 0.122814
H	 1.3520519324	-3.7762005156	-1.1031474526	 0.093728
H	 1.7813100254	-3.6474529666	 1.2273973804	 0.103217
H	 1.6677310936	-1.7076907356	 2.5891805301	 0.12025
H	 2.4090552856	-0.8085514258	 1.2470455195	 0.137411
48.237	128.0306	222.5204	238.2265	268.3038	313.8747	333.6368	407.3081	467.6382	482.6288	534.1985	666.7632	714.6737	728.5757	828.2767	862.403	897.4792	942.3708	976.3025	994.5996	1024.5684	1039.7577	1095.2833	1127.9103	1146.3618	1185.9367	1235.4028	1245.0799	1291.2142	1307.9859	1314.7262	1355.016	1396.0774	1403.7676	1411.8408	1461.4888	1479.9763	1487.2549	1498.5959	1726.8728	1818.2932	2935.8692	2975.518	3040.0971	3044.1432	3049.8989	3120.4564	3122.9517	3141.2512	3146.8293	3173.3634
CC1OCC=CCC1=O	C[C@H]1OCC=CCC1=O	
InChI=1S/C7H10O2/c1-6-7(8)4-2-3-5-9-6/h2-3,6H,4-5H2,1H3	InChI=1S/C7H10O2/c1-6-7(8)4-2-3-5-9-6/h2-3,6H,4-5H2,1H3/t6-/m1/s1
