14
gdb 27391	2.05106	1.99201	1.01098	3.7205	69.2	-0.219	-0.0134	0.2056	1082.5387	0.104597	-466.263412	-466.255913	-466.254969	-466.295308	28.93	
N	 0.0240322322	 1.3228346237	 0.1234757811	-0.571881
C	 0.0589021749	-0.0322784241	 0.0436014756	 0.510405
N	-1.1104716826	-0.7052875268	 0.0288058122	-0.353897
H	-2.0062872968	-0.243524995	 0.0841887782	 0.266508
C	-1.157603233	-2.1233847021	-0.0066157856	 0.405731
N	-2.319654305	-2.6485571673	-0.0114835926	-0.580293
N	 0.0671281321	-2.7496816086	-0.0290574458	-0.419478
C	 1.132123422	-1.9912847354	-0.0112327556	 0.425778
O	 2.3243905601	-2.5959206392	-0.0295801187	-0.38385
N	 1.2241198957	-0.6380419925	 0.0177323541	-0.37381
H	 0.9089535983	 1.7793859244	-0.0301893471	 0.281498
H	-0.8032017555	 1.8239625754	-0.1537246792	 0.267005
H	-2.2206670088	-3.6616534835	-0.0354454904	 0.220465
H	 2.1360126063	-3.5450442787	-0.0530529362	 0.305819
128.2557	195.3742	198.086	324.9462	340.4898	374.8571	486.9794	547.4823	566.9136	579.5686	596.6033	611.7224	674.4849	736.8344	741.652	802.4847	844.153	960.7662	999.2553	1062.1012	1117.8948	1180.7531	1277.884	1318.805	1329.7029	1484.0843	1539.7937	1597.5536	1649.988	1667.6139	1741.2275	3517.6791	3602.3189	3620.769	3724.9313	3768.8547
NC1=[NH+]C(=N)N=C(O)[N-]1	N[C@@H]1NC(=NC(=N1)O)[NH]	
InChI=1S/C3H4N5O/c4-1-6-2(5)8-3(9)7-1/h(H4-,4,5,6,7,8,9)/q-1/p+1	InChI=1S/C3H6N5O/c4-1-6-2(5)8-3(9)7-1/h1,5H,4H2,(H2,6,7,8,9)/t1-/m1/s1
