20
gdb 99813	1.79634	1.48867	1.27024	3.7174	80.53	-0.2447	0.0283	0.273	1178.0995	0.167105	-403.15281	-403.14174	-403.140795	-403.18903	40.081	
C	 0.1071262105	 1.5440689466	-0.0608754347	-0.396564
C	-0.0124694094	 0.0209472206	 0.0154806128	-0.200877
C	-1.4734053749	-0.5182448855	 0.0144683475	-0.113618
C	-1.4562063043	-2.0705072622	 0.0191744378	-0.410798
C	-2.1584434767	-0.0509550195	 1.221092313	 0.397193
C	-2.6617800675	 0.2966628536	 2.2549414028	-0.4812
C	-2.2711916969	-0.0482839224	-1.2366224602	 0.420624
N	-1.6463908011	-0.2673815003	-2.4332038983	-0.528882
O	-3.3828824562	 0.4289718959	-1.172468699	-0.354483
H	 1.1560735963	 1.8505952129	-0.0090275619	 0.113114
H	-0.3102971803	 1.933170371	-0.9948693517	 0.123644
H	-0.4273366528	 2.0155339687	 0.7682412477	 0.142059
H	 0.5412476077	-0.4443411627	-0.8107089676	 0.082052
H	 0.4640407211	-0.3431194968	 0.9322395047	 0.114916
H	-0.9381787389	-2.4339345302	 0.9106650542	 0.129261
H	-2.4748470417	-2.4654934711	 0.0287122198	 0.142178
H	-0.9422017351	-2.4571406235	-0.8655431216	 0.108044
H	-3.1356952108	 0.616134695	 3.1499030773	 0.193778
H	-0.6895592272	-0.5616066574	-2.5068000472	 0.257448
H	-2.1175600717	 0.0505263874	-3.2641665655	 0.26211
30.2293	110.4654	143.3853	148.1424	167.7708	205.5849	233.4848	249.0989	264.6432	324.754	401.1181	432.0341	445.5629	537.6815	577.4279	600.4735	636.6233	643.6007	666.005	760.1122	786.523	876.3908	922.0837	1010.1078	1033.5886	1070.3276	1085.019	1115.556	1184.8659	1225.1268	1292.093	1340.247	1360.8651	1410.0487	1415.0802	1480.28	1491.9511	1497.4367	1500.6103	1507.2255	1614.7771	1802.3562	2239.6988	3018.5719	3042.9434	3044.6227	3065.3033	3110.1462	3119.7658	3122.5196	3129.7083	3502.759	3608.6921	3745.1415
CCC(C)(C#C)C(N)=O	CC[C@@](C)(C#C)C(=O)N	
InChI=1S/C7H11NO/c1-4-7(3,5-2)6(8)9/h1H,5H2,2-3H3,(H2,8,9)	InChI=1S/C7H11NO/c1-4-7(3,5-2)6(8)9/h1H,5H2,2-3H3,(H2,8,9)/t7-/m1/s1
