20
gdb 67656	2.97391	1.86044	1.6055	1.6605	81.1	-0.2158	0.0843	0.3001	939.0709	0.173992	-365.96762	-365.9608	-365.959856	-365.998332	28.871	
C	-0.0452367846	 1.5352418716	-0.0262000279	-0.510101
C	 0.0197778434	 0.0358727309	 0.0100183928	 0.309666
C	-0.1747257915	-0.8322831672	-1.2355299249	-0.105132
C	 0.6540193016	-2.0913949185	-1.4214989061	-0.244328
C	 0.8161168446	-2.5778628767	 0.025171756	-0.001921
C	 1.8583989904	-1.7126031676	 0.7739485505	-0.250222
C	 0.6693880995	-0.8046263638	 1.1220486887	-0.034587
N	-0.3131805455	-1.9250355035	 0.8496391774	-0.148833
C	-1.0787057661	-1.0207539733	-0.0588715162	-0.080223
H	 0.9274508989	 1.9715794671	-0.2843973956	 0.119987
H	-0.7698492431	 1.884674951	-0.7690822993	 0.11908
H	-0.3439756902	 1.9421102706	 0.94682662	 0.120039
H	-0.5595252246	-0.3037863232	-2.1019787785	 0.08218
H	 0.0999449607	-2.8103270849	-2.0369204623	 0.098719
H	 1.6252450383	-1.9232823369	-1.8986339272	 0.099579
H	 0.875482142	-3.6620425576	 0.1314953225	 0.072693
H	 2.2568655732	-2.2061810505	 1.6635612327	 0.10547
H	 2.6808241606	-1.2979364876	 0.1859101622	 0.094345
H	 0.6149014609	-0.3387895463	 2.1116154414	 0.066783
H	-2.1611655188	-0.9662654035	-0.0458904363	 0.086805
195.7961	209.5714	258.2821	310.8485	406.2224	490.0555	581.6043	647.2275	675.8061	716.4616	791.0063	810.5576	847.2103	860.3843	898.7543	916.8301	940.1298	962.5399	986.6207	996.5236	1007.402	1033.9297	1045.7219	1074.7029	1079.9241	1109.2012	1140.3058	1170.2378	1201.7929	1210.2714	1228.7224	1248.992	1256.2165	1285.7954	1306.7632	1338.0751	1353.8912	1414.4743	1444.412	1480.4112	1486.7258	1497.821	1500.3183	3019.141	3030.1148	3045.3774	3061.9811	3074.809	3077.3818	3094.3026	3094.7052	3116.7994	3163.931	3176.5746
CC12C3CC4CC1N4C23	C[C@@]12[C@H]3C[C@H]4C[C@@H]1N4[C@@H]23	
InChI=1S/C8H11N/c1-8-5-2-4-3-6(8)9(4)7(5)8/h4-7H,2-3H2,1H3	InChI=1S/C8H11N/c1-8-5-2-4-3-6(8)9(4)7(5)8/h4-7H,2-3H2,1H3/t4-,5-,6-,7+,8+/m0/s1
