17
gdb 34014	2.94231	1.45113	1.21038	5.0712	78.8	-0.2463	-0.0134	0.2329	1061.9037	0.137869	-380.862377	-380.854825	-380.853881	-380.894368	29.322	
N	 0.0170447401	-1.0932850866	 0.1435363627	-0.33971
C	 0.0050681781	 0.059299547	 0.0536846677	 0.256276
C	-0.0606069589	 1.50516078	-0.0740492753	 0.139976
C	 0.5037642568	 2.1275770019	-1.3206500114	-0.270607
N	 1.2492969294	 2.180877153	-0.0733583997	-0.119445
C	 1.3061370051	 3.4780914954	 0.631753284	-0.158127
C	 0.4600338226	 3.4873921886	 1.9103378006	-0.264169
C	-0.9470872246	 3.0320842486	 1.6175671081	-0.058198
C	-1.1944429661	 2.1313521559	 0.6689236663	-0.141228
H	 0.9203479551	 1.4940097406	-2.0986308209	 0.136861
H	 0.0085625728	 3.0339045203	-1.6652779018	 0.124041
H	 2.3577642697	 3.6758985128	 0.8625828252	 0.118285
H	 0.955751232	 4.2867300505	-0.023469776	 0.104728
H	 0.913503207	 2.8373039665	 2.6708585389	 0.13518
H	 0.4605708303	 4.497701412	 2.3313941575	 0.115458
H	-1.7637069991	 3.4603534485	 2.1910711637	 0.106713
H	-2.1965101902	 1.7801650148	 0.4450129103	 0.113966
110.3214	146.8164	189.9838	251.9388	400.1654	434.8055	480.7797	498.9724	557.4378	591.2409	622.5448	731.0903	760.9675	800.1175	867.6754	905.6917	950.37	987.5594	999.2121	1006.0977	1055.4832	1102.2262	1130.2563	1139.3432	1188.59	1224.379	1235.0043	1273.9012	1337.5978	1358.6693	1383.0958	1414.8356	1475.2944	1492.4959	1515.7579	1711.7622	2353.945	3011.2115	3023.9739	3070.1133	3079.2354	3095.096	3168.6589	3190.9099	3191.771
N#CC12CN1CCC=C2	N#C[C@]12CN1CCC=C2	
InChI=1S/C7H8N2/c8-5-7-3-1-2-4-9(7)6-7/h1,3H,2,4,6H2	InChI=1S/C7H8N2/c8-5-7-3-1-2-4-9(7)6-7/h1,3H,2,4,6H2/t7-,9?/m1/s1
