16
gdb 16578	3.15363	2.62572	2.19534	1.1868	59.02	-0.2433	0.0858	0.3291	704.6653	0.133704	-420.875167	-420.86925	-420.868306	-420.904998	23.605	
C	-0.0136679291	 1.5739535111	-0.0197672126	-0.084395
O	 1.3709698185	 1.9367699196	-0.0231961316	-0.264227
C	 2.0989676999	 0.7240414384	 0.0505798791	 0.182609
C	 2.3236605512	 0.3098180468	 1.5101173851	-0.09837
O	 1.085754962	 0.2250151883	 2.2030931055	-0.25694
C	 0.0880958146	-0.4830796311	 1.4793135334	-0.082236
C	 0.0179463999	 0.0316386298	 0.0417964966	 0.031422
O	 1.2836642614	-0.2500960132	-0.5746327255	-0.260726
H	-0.5169962363	 2.0180842618	 0.8446278539	 0.114781
H	-0.4824829058	 1.934667257	-0.9418288008	 0.10682
H	 3.0355531813	 0.8230166223	-0.5057247257	 0.093964
H	 2.8570307999	-0.6542369755	 1.5238278571	 0.094744
H	 2.9222064948	 1.057486684	 2.0373303585	 0.118637
H	 0.3038141812	-1.5627126912	 1.4589283549	 0.101173
H	-0.8531062824	-0.3213850358	 2.0145392866	 0.111104
H	-0.7690535811	-0.4577772822	-0.5354220445	 0.09164
188.274	248.8953	344.1845	381.5458	450.3138	546.4009	667.7864	801.8965	831.792	839.0006	852.744	891.4437	927.4168	958.0516	1004.0108	1035.4878	1049.9872	1068.354	1107.7278	1137.3041	1163.393	1206.0576	1239.6708	1280.399	1297.5974	1338.0288	1339.8267	1367.4736	1372.1302	1391.3099	1415.5703	1478.8527	1493.1236	1516.2338	2982.73	2990.4273	3036.7003	3078.7748	3081.125	3086.2393	3098.1234	3102.8036
C1OC2COCC1O2	C1O[C@H]2COC[C@@H]1O2	
InChI=1S/C5H8O3/c1-4-2-7-5(8-4)3-6-1/h4-5H,1-3H2	InChI=1S/C5H8O3/c1-4-2-7-5(8-4)3-6-1/h4-5H,1-3H2/t4-,5+/m0/s1
