20
gdb 13218	3.36594	1.41664	1.19486	3.0106	71.17	-0.2356	0.0723	0.3079	1094.5941	0.175731	-386.107432	-386.098317	-386.097372	-386.141781	32.069	
C	 0.0276245812	 1.4433775641	-0.0083638741	-0.234671
O	-0.1533421797	 0.0558031849	-0.165740068	-0.240315
C	 0.6516735958	-0.5502278837	-1.1678827165	 0.108565
C	 2.1059749005	-0.7163766066	-0.7130723182	-0.404772
C	 0.0112517879	-1.890423993	-1.5123227821	-0.036934
C	-0.3885084176	-2.8326692312	-0.3514229724	-0.075978
O	-1.7546259774	-2.8854136357	-0.8096295793	-0.27425
C	-1.4969247012	-1.9136272002	-1.8431968696	-0.088217
H	 1.0228760157	 1.7006623502	 0.3819630892	 0.107717
H	-0.1192354536	 1.9817506019	-0.9578975817	 0.103785
H	-0.7229144091	 1.7848233192	 0.708840456	 0.13063
H	 0.6317126044	 0.0839973018	-2.0724844483	 0.06391
H	 2.157901207	-1.3495396596	 0.1783666443	 0.127681
H	 2.703749559	-1.1810190853	-1.5036194964	 0.116959
H	 2.5657261292	 0.2463127241	-0.4735584864	 0.11839
H	 0.6210489461	-2.3861936438	-2.2719061772	 0.077405
H	 0.0795337824	-3.8242710927	-0.3429394603	 0.093615
H	-0.3092046887	-2.381686204	 0.6444714967	 0.109904
H	-2.0123348219	-0.9655368392	-1.6499089387	 0.103886
H	-1.7739450501	-2.2871195011	-2.8365364771	 0.092687
71.9398	79.3116	92.2001	182.7146	203.5173	223.7303	260.3209	343.5202	376.2135	481.2028	588.2516	715.475	838.1055	884.1926	893.1699	954.5993	983.0403	1004.7315	1041.1666	1054.4213	1122.7826	1132.3339	1133.825	1168.5429	1174.4203	1179.8216	1184.4405	1227.5614	1264.2248	1313.051	1338.7024	1371.789	1377.7913	1401.0282	1403.6847	1478.0781	1482.9928	1493.0536	1503.1541	1503.9418	1512.2301	1532.4588	2939.637	2977.2453	3012.7946	3023.0293	3026.186	3040.4402	3058.9811	3064.2616	3082.414	3111.321	3112.3537	3116.4059
COC(C)C1COC1	CO[C@@H](C)C1COC1	
InChI=1S/C6H12O2/c1-5(7-2)6-3-8-4-6/h5-6H,3-4H2,1-2H3	InChI=1S/C6H12O2/c1-5(7-2)6-3-8-4-6/h5-6H,3-4H2,1-2H3/t5-/m0/s1
