23
gdb 62924	2.54849	1.58534	1.48269	1.3474	84.14	-0.2311	0.079	0.3101	1064.7875	0.207257	-388.283747	-388.275241	-388.274297	-388.31599	34.673	
C	-0.0825306803	 1.4892891179	 0.0119132821	-0.45406
C	-0.0214861422	-0.042972242	 0.0012053286	 0.332861
C	-1.4238274141	-0.6001349813	 0.2344590409	-0.463546
C	 0.8421230632	-0.5987246863	-1.1940866512	-0.051188
C	 2.1008329656	-0.3890766318	-0.3008573479	-0.277441
C	 1.1339741659	-0.6199712323	 0.8897408398	 0.104255
O	 0.9190881275	-2.0055879266	 1.1322266252	-0.280425
C	 1.0371930428	-2.82520295	-0.0336691266	-0.06748
C	 0.6151269924	-2.1116775773	-1.3419942345	-0.246269
H	 0.8810212094	 1.9649154524	-0.1862643438	 0.111779
H	-0.7858575212	 1.8459615535	-0.7495110195	 0.113089
H	-0.4382694646	 1.8539828755	 0.9824582912	 0.113291
H	-2.0744940708	-0.3933815488	-0.6236829096	 0.106619
H	-1.4226012473	-1.6754122583	 0.4170783646	 0.124385
H	-1.8797178588	-0.1241539962	 1.1102133144	 0.109175
H	 0.7774677828	-0.0750902074	-2.1523661148	 0.054606
H	 2.9389222934	-1.0798474002	-0.4150847291	 0.096236
H	 2.4846896986	 0.6300242774	-0.3272896669	 0.104019
H	 1.3390021464	-0.1628670384	 1.8617732777	 0.065584
H	 2.0772701103	-3.1676547969	-0.1247881537	 0.09772
H	 0.4244665642	-3.7118479054	 0.1547258379	 0.105408
H	-0.4319032763	-2.314285137	-1.5877992817	 0.105235
H	 1.2178387429	-2.5083071106	-2.1672972232	 0.096147
162.4814	184.0485	202.4916	211.385	294.8348	300.7036	377.7417	398.6525	456.5041	482.0484	520.2975	599.238	671.9637	796.617	822.035	842.0701	856.6131	905.2643	933.3057	941.3649	957.1271	972.1919	1007.357	1017.2946	1053.6168	1081.6685	1110.3618	1151.7551	1160.2547	1185.4044	1219.166	1234.2315	1248.0051	1254.2856	1270.7696	1305.2089	1320.8189	1346.3471	1370.5088	1399.6569	1408.875	1420.5075	1478.3542	1485.6751	1495.6229	1496.3338	1508.1284	1514.4568	1529.6837	2998.6676	3024.8383	3030.1612	3036.211	3060.7958	3067.644	3069.588	3080.3034	3084.1062	3085.5572	3086.6324	3112.809	3133.3178	3141.5597
CC1(C)C2CC1OCC2	CC1(C)[C@H]2C[C@@H]1OCC2	
InChI=1S/C8H14O/c1-8(2)6-3-4-9-7(8)5-6/h6-7H,3-5H2,1-2H3	InChI=1S/C8H14O/c1-8(2)6-3-4-9-7(8)5-6/h6-7H,3-5H2,1-2H3/t6-,7+/m1/s1
