19
gdb 60626	2.7437	1.11414	0.91043	1.9266	72.87	-0.2651	-0.0286	0.2365	1327.4011	0.155575	-460.16492	-460.15485	-460.153906	-460.200804	35.743	
C	 0.4542656612	 1.5225713282	-0.4079073769	-0.419733
C	 0.1682785041	 0.0950399018	-0.0257389317	 0.080363
O	 1.2899723944	-0.7855462209	 0.1604249561	-0.264168
C	 0.4531524024	-0.5087536055	 1.2861355447	 0.032489
C	 1.0578911272	 0.2480620742	 2.4640818896	-0.001885
O	 0.0243261244	 0.6781943466	 3.3066619022	-0.430776
C	 2.0184521657	-0.6660463622	 3.2431602644	 0.360859
C	 3.3037614052	-1.0873530109	 2.5813361728	-0.487531
O	 1.7058438184	-0.998437258	 4.3675719915	-0.321162
H	 1.2723418781	 1.9495056488	 0.1754389405	 0.129015
H	 0.729823648	 1.5786000466	-1.4659730668	 0.131903
H	-0.4389175364	 2.1378691813	-0.2584429465	 0.135609
H	-0.642275098	-0.3674481683	-0.5921525956	 0.097298
H	-0.173040065	-1.3442240084	 1.6057172688	 0.101604
H	 1.6379939637	 1.1036265072	 2.0897195758	 0.089591
H	 0.1649790077	 0.1915797855	 4.1375101871	 0.29427
H	 3.9730416105	-0.2199756226	 2.5251716448	 0.149352
H	 3.7863754678	-1.8715833981	 3.1657738624	 0.144766
H	 3.1248495204	-1.4117281253	 1.5529020967	 0.178136
43.6001	67.1634	113.2528	137.8998	176.0949	202.1911	292.9833	308.7419	377.3661	400.6919	445.9796	496.0115	544.4522	594.8072	634.5423	782.0839	835.3783	848.0025	970.1907	979.4969	996.5243	1024.1941	1094.733	1107.3128	1129.59	1171.59	1178.6678	1207.0775	1268.0234	1290.1753	1304.4188	1390.1831	1398.2111	1415.6533	1432.826	1463.4773	1465.9814	1472.5471	1487.6913	1507.8543	1796.5051	3008.1803	3040.963	3044.1186	3086.426	3099.3325	3106.7758	3110.4637	3135.2851	3159.5552	3644.3095
CC1OC1C(O)C(C)=O	C[C@H]1O[C@H]1[C@@H](O)C(=O)C	
InChI=1S/C6H10O3/c1-3(7)5(8)6-4(2)9-6/h4-6,8H,1-2H3	InChI=1S/C6H10O3/c1-3(7)5(8)6-4(2)9-6/h4-6,8H,1-2H3/t4-,5+,6-/m1/s1
