13
gdb 129865	5.43234	1.29594	1.04734	5.1731	69.18	-0.2008	-0.0098	0.1909	1040.7121	0.091476	-452.732651	-452.725977	-452.725033	-452.763567	25.972	
N	 0.0634015199	 1.3454784213	 0.1767759318	-0.589022
C	-0.0713930116	-0.0178947148	 0.061947589	 0.413788
C	-1.1788050228	-0.8365593954	 0.0201054969	-0.478925
C	-0.6100623404	-2.1427323226	-0.007432754	 0.41281
C	 0.7492794844	-2.0235561445	 0.0143493461	 0.178438
O	 1.1142027777	-0.7027994118	 0.0585208274	-0.22813
C	 1.2463847691	-3.3326075472	-0.0273967385	-0.111789
N	 0.2439132685	-4.1953979745	-0.0690706523	-0.159241
O	-0.9591320135	-3.4284605215	-0.0572524649	-0.237056
H	 0.9297596477	 1.7048915741	-0.2001152594	 0.267591
H	-0.7402166835	 1.871546965	-0.1328665192	 0.267471
H	-2.2089427702	-0.5245174446	 0.0129998936	 0.125181
H	 2.2563429547	-3.7140429536	-0.0283771165	 0.138884
151.3707	220.0259	291.6931	320.2125	371.3208	519.067	561.8944	605.2072	606.5607	687.6702	720.3598	743.3471	769.2498	826.0915	837.322	886.7351	955.9319	978.8234	1080.146	1178.1716	1194.288	1195.3356	1383.8195	1410.1357	1464.546	1555.4993	1590.1699	1616.5305	1659.4936	3256.1642	3278.5724	3565.6742	3671.9578
NC1=CC2=C(O1)C=NO2	Nc1cc2c(o1)cno2	
InChI=1S/C5H4N2O2/c6-5-1-3-4(8-5)2-7-9-3/h1-2H,6H2	InChI=1S/C5H4N2O2/c6-5-1-3-4(8-5)2-7-9-3/h1-2H,6H2
