14
gdb 127366	3.54607	1.80844	1.20677	5.2591	68.37	-0.2466	-0.0053	0.2413	949.6223	0.104982	-429.056153	-429.049322	-429.048378	-429.088045	24.73	
C	 0.0150159611	 1.4686735036	 0.0058475867	-0.345472
N	-0.0181916668	 0.0193860282	 0.0362823828	-0.177479
C	-0.1267812608	-0.8546247885	-1.0275886805	 0.026892
N	-0.1301065951	-2.1201140184	-0.6850610095	-0.241968
N	-0.0175157627	-2.0457071734	 0.6702973105	 0.101374
N	 0.0431976688	-2.9374797201	 1.684144551	-0.268001
C	 0.1486231072	-2.1035028338	 2.7225268694	 0.030658
N	 0.1604212283	-0.7565496183	 2.4591217958	-0.410491
C	 0.0522949563	-0.7844545652	 1.1432212806	 0.514295
H	 0.9513343121	 1.8379741038	 0.4326119658	 0.165236
H	-0.0612514043	 1.8002176109	-1.0307777205	 0.150546
H	-0.8207158832	 1.8816506869	 0.5769936348	 0.165228
H	-0.2014353507	-0.5092440148	-2.046332808	 0.160118
H	 0.2212121496	-2.4883931409	 3.7288043612	 0.129066
60.8219	145.9639	238.4753	250.8556	364.8779	554.6403	625.7219	629.9166	662.5669	751.9698	757.019	823.2929	846.3145	895.0941	978.2571	1070.6056	1129.4149	1157.6953	1188.5378	1247.0921	1262.3638	1285.5661	1346.6048	1384.3287	1437.225	1458.6068	1475.4446	1478.1395	1515.3856	1558.7981	1638.8326	3052.0346	3119.8403	3148.9136	3262.2776	3278.2331
CN1C=NN2N=CN=C12	Cn1cnn2ncnc12	
InChI=1S/C4H5N5/c1-8-3-7-9-4(8)5-2-6-9/h2-3H,1H3	InChI=1S/C4H5N5/c1-8-3-7-9-4(8)5-2-6-9/h2-3H,1H3
