21
gdb 71399	3.70677	1.2928	1.24969	0.4151	87.26	-0.2338	0.0969	0.3306	1128.9983	0.182942	-349.89275	-349.884901	-349.883957	-349.924516	32.39	
C	-0.0121693592	 1.4521613739	 0.0428111668	-0.504733
C	 0.0127352689	-0.0452367375	-0.0362863327	 0.33967
C	-0.5962445576	-0.9274563642	-1.1313166432	-0.278207
C	-0.3915256331	-2.1158753268	-0.1508278486	-0.166944
C	-0.3296072548	-1.0593581348	 1.0307125039	-0.116764
C	 1.1231230696	-0.8850755976	 0.6328050386	-0.211546
C	 1.1366625956	-2.2329035153	-0.048378316	 0.449991
C	 1.9002710362	-3.437476561	 0.3988599697	-0.35279
C	 2.1138408549	-2.8585316321	-0.9931698905	-0.341436
H	 0.6086433856	 1.9037523025	-0.7402377112	 0.118748
H	-1.0306881597	 1.8399114517	-0.0753986382	 0.115921
H	 0.3666089677	 1.8053012302	 1.0083640518	 0.116275
H	-1.6559720143	-0.6924365678	-1.2740835608	 0.088715
H	-0.0951153909	-0.9893960037	-2.1050046811	 0.085701
H	-1.0202606572	-3.003583513	-0.1951579628	 0.065749
H	-0.8263377606	-0.9788941724	 1.987182259	 0.084728
H	 1.9154400758	-0.4102673882	 1.1991892947	 0.077223
H	 2.6922688128	-3.3086196032	 1.1302944696	 0.108052
H	 1.3751499906	-4.384570646	 0.4783932484	 0.107268
H	 1.7299516865	-3.4204867051	-1.8394713195	 0.106679
H	 3.0489214632	-2.3437574696	-1.1906921478	 0.107701
140.0121	205.4826	209.9848	238.3848	304.6421	333.691	443.2503	466.6368	595.2874	620.9381	741.5838	765.294	783.8785	820.1928	854.9079	883.2946	890.1137	909.341	928.882	947.7777	962.6484	973.5222	1016.4912	1027.0675	1037.436	1047.5682	1074.4444	1093.4879	1130.7905	1151.1531	1160.2351	1183.2459	1187.6774	1220.4596	1226.9238	1278.3226	1298.7561	1381.1545	1416.7289	1431.6989	1462.8411	1486.9367	1496.2514	1501.4029	1511.4902	3018.592	3024.8121	3078.1573	3083.0163	3088.5853	3116.8944	3121.123	3127.9743	3183.6122	3193.721	3208.6497	3214.8866
CC12CC3C1C2C31CC1	C[C@]12C[C@@H]3[C@H]1[C@H]2C13CC1	
InChI=1S/C9H12/c1-8-4-5-6(8)7(8)9(5)2-3-9/h5-7H,2-4H2,1H3	InChI=1S/C9H12/c1-8-4-5-6(8)7(8)9(5)2-3-9/h5-7H,2-4H2,1H3/t5-,6+,7-,8+/m1/s1
