22
gdb 119114	2.38661	1.12457	0.87171	3.3638	82.87	-0.2428	0.032	0.2748	1425.5401	0.193536	-404.383036	-404.372859	-404.371915	-404.418282	38.081	
C	-0.3785950587	 1.4514056486	 2.1686136341	-0.377707
C	-0.2941279081	-0.0772568908	 2.165275414	-0.168362
C	 0.8690598272	-0.6066413285	 1.3107652116	-0.30962
C	 1.0123255299	-2.1217575329	 1.2999293564	 0.258945
C	 2.4174572729	-2.7139462905	 1.2291996492	-0.299345
C	 1.6508092986	-2.7807022347	 2.5102869283	-0.278687
C	-0.0151058863	-2.9830503455	 0.6044713218	 0.351463
N	-0.9282057839	-2.3345295139	-0.183776414	-0.541415
O	-0.0372165545	-4.1958647054	 0.7297505656	-0.376611
H	-0.5339664863	 1.8448261221	 1.1573069813	 0.108807
H	-1.2066916016	 1.8031842424	 2.7914040316	 0.115129
H	 0.5432763749	 1.8997291735	 2.5559856795	 0.114948
H	-0.1701745449	-0.4439508207	 3.1913467986	 0.105008
H	-1.2399165757	-0.5001686861	 1.8078075172	 0.105285
H	 0.785607379	-0.2195362179	 0.2836034001	 0.085639
H	 1.804757905	-0.1797442694	 1.693038658	 0.098015
H	 2.5271001436	-3.6334501194	 0.6670797016	 0.135156
H	 3.2408946023	-2.0128716069	 1.1452424858	 0.10947
H	 1.9439503648	-2.1267427272	 3.3245899241	 0.107556
H	 1.2462798456	-3.7430522939	 2.7974634872	 0.141675
H	-0.8109169353	-1.374892554	-0.4557574758	 0.256344
H	-1.5222625385	-2.9170392887	-0.7517362063	 0.258308
62.6572	79.3524	125.4244	160.0342	239.6518	259.8209	283.7093	292.1477	334.1659	351.3801	417.1365	447.4352	574.117	588.6375	703.4036	747.9388	770.7187	798.5256	852.3825	884.6226	912.4557	920.3117	971.9138	990.7448	1049.4291	1066.0567	1088.7079	1096.8153	1110.9684	1127.66	1205.0453	1232.407	1272.2386	1295.0301	1328.1237	1333.0018	1390.0582	1399.9671	1413.3736	1451.9858	1482.7758	1493.4269	1497.9167	1499.4898	1514.743	1614.5896	1772.7417	2989.7532	3027.2889	3035.5754	3038.3383	3067.6889	3095.1181	3103.6343	3136.7535	3141.0601	3228.5939	3243.1312	3602.8782	3737.2676
CCCC1(CC1)C(N)=O	CCCC1(CC1)C(=O)N	
InChI=1S/C7H13NO/c1-2-3-7(4-5-7)6(8)9/h2-5H2,1H3,(H2,8,9)	InChI=1S/C7H13NO/c1-2-3-7(4-5-7)6(8)9/h2-5H2,1H3,(H2,8,9)
