23
gdb 109300	2.70934	1.09574	0.84705	1.2688	89.01	-0.2319	0.0277	0.2596	1462.6074	0.205634	-388.31352	-388.303883	-388.302938	-388.348049	36.42	
C	 0.0614784947	 1.5622775611	 0.1836326524	-0.371594
C	-0.000368279	 0.0468786357	-0.0776674132	-0.274399
C	-1.4009820928	-0.5161244026	-0.069301079	 0.308622
C	-2.0237172598	-0.9135319279	-1.1795554983	-0.169533
C	-3.4079137568	-1.5003479948	-1.1752721971	-0.121144
O	-3.8727450753	-1.8355910135	 0.1164007102	-0.260244
C	-3.6216635252	-0.8182712703	 1.0786819753	 0.134682
C	-4.3362597777	-1.2275040122	 2.357493031	-0.401141
C	-2.1107845592	-0.6297425166	 1.2621611444	-0.298974
H	 1.0974874925	 1.9152192406	 0.1755468752	 0.113336
H	-0.4910904541	 2.1113177039	-0.5852628948	 0.119056
H	-0.3682870173	 1.8256723861	 1.1551942034	 0.117798
H	 0.4696636071	-0.1701008322	-1.0433484124	 0.099335
H	 0.6010395867	-0.4684915195	 0.6845663428	 0.098587
H	-1.539639008	-0.8265727726	-2.1501734017	 0.078795
H	-4.1121101281	-0.8041626559	-1.6702647496	 0.091034
H	-3.430659061	-2.4306429698	-1.7563777124	 0.112632
H	-4.0455020257	 0.1337202016	 0.7123073069	 0.061672
H	-3.9503781156	-2.1868167009	 2.7164971629	 0.122862
H	-4.1870573031	-0.4775473606	 3.1404172279	 0.111245
H	-5.4091426592	-1.3363347503	 2.1779286348	 0.120945
H	-1.6995654716	-1.4758939356	 1.8321422311	 0.107105
H	-1.9291931113	 0.2644148163	 1.87212789	 0.099321
68.0306	93.4872	173.0101	201.1611	210.5452	233.4935	280.6043	313.1678	373.9275	444.1239	467.8787	496.7347	542.023	689.2694	785.5787	824.1771	836.3436	868.4781	911.0382	928.524	958.4813	989.1946	1036.877	1058.5311	1081.9597	1089.2228	1120.8647	1158.3217	1165.9661	1188.7561	1234.2638	1269.8176	1276.1323	1311.3869	1352.7598	1364.0323	1378.444	1395.1096	1405.0073	1410.7341	1412.7913	1465.5657	1480.7545	1483.1155	1490.5954	1499.3947	1501.4317	1507.018	1742.1738	2918.904	2942.2801	3001.2621	3009.2241	3036.0442	3040.6223	3041.2629	3045.8621	3060.1214	3105.8798	3109.8098	3113.7268	3120.587	3147.0501
CCC1=CCOC(C)C1	CCC1=CCO[C@@H](C)C1	
InChI=1S/C8H14O/c1-3-8-4-5-9-7(2)6-8/h4,7H,3,5-6H2,1-2H3	InChI=1S/C8H14O/c1-3-8-4-5-9-7(2)6-8/h4,7H,3,5-6H2,1-2H3/t7-/m0/s1
