13
gdb 132029	2.45496	1.86975	1.06271	1.8563	66.26	-0.2095	-0.0356	0.174	1009.1358	0.090365	-494.052561	-494.045233	-494.044289	-494.084314	27.833	
N	 0.0558475725	 1.4206633307	 0.0343638025	-0.598391
C	 0.0035561091	 0.0388537144	 0.0361591704	 0.043829
C	-1.118576317	-0.6953704085	 0.0928852636	 0.306552
F	-2.3420571256	-0.1994329597	 0.0915181732	-0.051762
O	-1.1437980914	-2.0499012883	 0.1593349654	-0.18759
C	 0.0642785643	-2.6629712704	 0.1674214996	 0.115956
N	 1.2016789741	-2.1015113822	 0.1019560455	-0.316433
C	 1.2741063203	-0.6987918803	 0.0106096766	 0.323743
N	 2.3668214657	-0.0443105695	-0.100335103	-0.54307
H	 0.9598342613	 1.7476524595	-0.2847564582	 0.273397
H	-0.7306120586	 1.8938698097	-0.3844421144	 0.252889
H	-0.0559806954	-3.73853942	 0.2359386045	 0.154498
H	 3.1568783507	-0.6894287654	-0.1114716257	 0.226382
117.0295	191.6495	273.1969	296.7312	360.3524	364.0533	512.0794	520.1233	525.3646	552.8894	560.6281	641.5396	710.2047	771.2149	886.1813	889.3186	940.7938	974.5933	1052.5979	1172.7515	1240.4671	1292.9005	1309.4129	1415.2165	1447.6821	1613.8698	1667.233	1696.0089	1769.907	3209.2313	3490.352	3538.91	3661.3594
NC1=C(F)OC=NC1=N	NC1=C(N=CO[C@@H]1F)[NH]	
InChI=1S/C4H4FN3O/c5-3-2(6)4(7)8-1-9-3/h1,7H,6H2	InChI=1S/C4H5FN3O/c5-3-2(6)4(7)8-1-9-3/h1,3,7H,6H2/t3-/m0/s1
