14
gdb 125655	3.5086	1.66133	1.13542	0.7203	69.3	-0.2337	-0.0189	0.2148	997.3688	0.10408	-432.89004	-432.883131	-432.882186	-432.921461	25.95	
C	-0.015308235	 1.5130503288	-0.0579050173	-0.504096
C	-0.0058366879	 0.0245868495	 0.0561643588	 0.195857
N	-0.0357506867	-0.7524421206	-1.0349031541	-0.271517
N	-0.0176286467	-2.0527037569	-0.6224219343	-0.34116
C	 0.0235454693	-2.1171867851	 0.7271461429	 0.371284
C	 0.0320175097	-0.8235559595	 1.180533575	 0.211787
O	 0.0740638502	-0.8759366508	 2.5508764244	-0.209196
C	 0.0873221078	-2.2216796801	 2.8006711105	 0.046353
N	 0.0589607503	-3.0163280046	 1.7706121233	-0.352986
H	 0.8818357349	 1.9534382015	 0.3902895139	 0.134875
H	-0.0538172494	 1.7972979526	-1.1110759774	 0.147473
H	-0.8813469894	 1.94694649	 0.4532816643	 0.134785
H	-0.0362169185	-2.7852911532	-1.3094379903	 0.280858
H	 0.1201846912	-2.5049538815	 3.8414015302	 0.155686
113.4359	180.6968	251.6036	271.3621	368.6765	442.141	529.6242	617.6901	629.222	668.825	695.7249	771.1174	834.2855	838.8596	936.6608	995.4459	1066.0144	1080.3246	1125.2981	1145.9923	1202.0974	1310.3802	1352.0903	1413.0034	1415.8463	1482.0978	1488.2865	1499.1621	1542.0233	1580.3317	1604.1123	3038.1739	3090.2903	3138.8809	3274.6439	3691.5406
CC1=NNC2=C1OC=N2	Cc1n[nH]c2c1ocn2	
InChI=1S/C5H5N3O/c1-3-4-5(8-7-3)6-2-9-4/h2H,1H3,(H,7,8)	InChI=1S/C5H5N3O/c1-3-4-5(8-7-3)6-2-9-4/h2H,1H3,(H,7,8)
