16
gdb 32498	1.99195	1.70139	0.97824	3.7819	76.81	-0.2491	-0.0292	0.2199	1176.7159	0.125259	-400.801336	-400.793076	-400.792132	-400.83477	30.003	
C	 0.019602667	 1.52388212	-0.2128976856	-0.380215
C	-0.0303051454	 0.0112388395	 0.0639195389	-0.313259
C	-1.4206764663	-0.5490807798	 0.0490288691	 0.147636
C	-2.1509919114	-1.0128817726	 1.0939992723	-0.093914
O	-3.3876313894	-1.4324861473	 0.6900979101	-0.134366
C	-3.4593296627	-1.23754552	-0.6374697607	-0.089584
C	-2.291326168	-0.6989464717	-1.1004777433	 0.06573
C	-1.995064035	-0.36427829	-2.44436217	 0.208466
N	-1.7307141249	-0.0830157716	-3.5365960777	-0.351889
H	 1.0525504879	 1.8830048519	-0.1869541431	 0.120316
H	-0.3929852075	 1.7584841583	-1.1981917014	 0.143973
H	-0.5547603491	 2.0775452422	 0.5359903631	 0.120967
H	 0.5767595388	-0.5114346164	-0.6850205603	 0.125984
H	 0.4259577669	-0.2022549192	 1.0364663309	 0.110007
H	-1.9450822563	-1.1139600721	 2.1466244134	 0.152215
H	-4.3775099347	-1.5215278813	-1.1239628555	 0.167935
63.2663	122.0131	164.6284	180.9686	227.4352	327.8527	383.4363	523.0618	549.9681	586.7733	620.5241	668.1916	703.603	777.1241	795.9128	805.9277	896.8718	968.6494	1071.4563	1085.638	1092.9657	1173.9821	1195.6011	1248.998	1286.1928	1313.5627	1360.6015	1383.3993	1413.1014	1483.6407	1498.9868	1507.3489	1569.9533	1630.0996	2346.5265	3034.3235	3042.7983	3072.8616	3115.2823	3122.0021	3280.2707	3286.4808
CCC1=COC=C1C#N	CCc1cocc1C#N	
InChI=1S/C7H7NO/c1-2-6-4-9-5-7(6)3-8/h4-5H,2H2,1H3	InChI=1S/C7H7NO/c1-2-6-4-9-5-7(6)3-8/h4-5H,2H2,1H3
