21
gdb 102298	2.57396	0.86376	0.7599	2.8984	81.1	-0.2555	0.0466	0.3021	1595.9761	0.17902	-424.191001	-424.179951	-424.179007	-424.227547	39.97	
C	-0.025538071	 1.5821286495	-0.0402744978	-0.401692
C	 0.0088794633	 0.053915269	-0.0163313757	 0.118477
O	 0.8443382398	-0.4591173971	-1.0542458322	-0.433009
C	 0.5763276215	-0.4889741833	 1.2942415701	-0.188289
C	 0.5562459773	-2.029238895	 1.382635393	-0.161069
C	 1.3463251066	-2.5290832365	 2.6143260013	-0.067976
O	 1.3712132442	-3.9351800498	 2.7163585174	-0.422179
C	-0.8056158698	-2.5598902437	 1.4344652027	 0.318546
C	-1.9136281368	-3.0199755516	 1.535579352	-0.495724
H	 0.9817847952	 1.9901185739	 0.0911490445	 0.12397
H	-0.4172715596	 1.9462641475	-0.9968275758	 0.105132
H	-0.6696703459	 1.9755357681	 0.7530261977	 0.116509
H	-1.0160715268	-0.3314457529	-0.1359413327	 0.079586
H	 0.4593568635	-0.2093237532	-1.8996598282	 0.283404
H	 1.6157710629	-0.1496999726	 1.3835657369	 0.105352
H	 0.0163939403	-0.0635336589	 2.1340481609	 0.102706
H	 1.04794115	-2.4255687802	 0.48698215	 0.133797
H	 2.388278396	-2.2070061749	 2.5205314927	 0.111169
H	 0.9295879666	-2.0619411605	 3.5215900776	 0.087689
H	 0.4535460035	-4.2334586391	 2.7214419413	 0.284213
H	-2.8967935506	-3.4173390387	 1.5955452042	 0.199387
47.1751	80.7138	102.726	142.8716	169.577	230.3806	237.8462	268.1806	297.9386	307.6096	398.4607	426.7139	456.4701	474.4957	539.0357	617.3205	621.8479	653.9244	790.4739	848.7841	889.035	947.1806	1004.8873	1039.139	1071.6147	1082.0583	1088.7529	1130.6734	1143.6459	1196.0133	1218.6531	1264.1475	1308.9465	1338.6993	1372.8417	1383.4888	1390.7101	1406.6835	1424.9132	1433.6458	1468.8091	1492.5494	1498.8136	1506.2761	2221.479	2971.1104	2979.5115	3027.3642	3033.1214	3054.7036	3077.5244	3086.609	3095.2436	3111.5049	3501.4774	3780.6801	3825.4891
CC(O)CC(CO)C#C	C[C@@H](O)C[C@@H](CO)C#C	
InChI=1S/C7H12O2/c1-3-7(5-8)4-6(2)9/h1,6-9H,4-5H2,2H3	InChI=1S/C7H12O2/c1-3-7(5-8)4-6(2)9/h1,6-9H,4-5H2,2H3/t6-,7+/m1/s1
