12
gdb 132387	2.00051	1.83799	0.95811	4.9897	60.04	-0.2512	-0.019	0.2323	1072.2575	0.0781	-518.135614	-518.128579	-518.127635	-518.167185	26.577	
N	 0.0207728944	 1.3522216573	 0.1030098189	-0.565671
C	-0.0176072576	-0.0027005878	 0.0370100076	 0.44145
C	-1.2254783578	-0.7212973628	 0.022717625	-0.367641
C	-1.0861587604	-2.0933769617	-0.0118758502	 0.361852
F	-2.1720692134	-2.8477067574	-0.0281988401	-0.056165
N	 0.0656680665	-2.7428627791	-0.0315813494	-0.380766
C	 1.1181720569	-1.9430729261	-0.0158434483	 0.350036
F	 2.2854668982	-2.5554819958	-0.0371661571	-0.053224
N	 1.1737686932	-0.6301784831	 0.0142804117	-0.383398
H	 0.9140684843	 1.7925026656	-0.0432568046	 0.272957
H	-0.8070096912	 1.8919007012	-0.0781670387	 0.267412
H	-2.1972278631	-0.2481368103	 0.0417155752	 0.113159
189.8474	221.2703	238.2633	278.9192	333.845	367.3854	500.3684	527.5525	566.7413	620.3043	641.1556	709.5668	724.2207	798.3386	835.1261	993.2457	1034.874	1051.2274	1145.6253	1220.7147	1335.1506	1454.8952	1488.4593	1509.5584	1613.1031	1638.441	1662.4226	3226.7861	3612.9736	3741.6713
NC1=CC(F)=NC(F)=N1	Nc1cc(F)nc(F)n1	
InChI=1S/C4H3F2N3/c5-2-1-3(7)9-4(6)8-2/h1H,(H2,7,8,9)	InChI=1S/C4H3F2N3/c5-2-1-3(7)9-4(6)8-2/h1H,(H2,7,8,9)
