21
gdb 74259	2.48043	1.33317	1.08007	2.6652	85.55	-0.2349	-0.0136	0.2214	1243.6564	0.180212	-387.141858	-387.132064	-387.13112	-387.176202	36.718	
C	-0.0209114988	 1.5267447166	 0.075128376	-0.485067
C	 0.0030321989	 0.0324784957	 0.0158937695	 0.292537
C	-0.0112142879	-0.7318546469	-1.0807978224	-0.195554
C	 0.020773556	-2.2163542961	-0.806040972	 0.126656
C	-1.2415961876	-2.9498843908	-1.3016955577	-0.414449
C	 1.2821457349	-2.9066103575	-1.3628060523	-0.414421
C	 0.0589266652	-2.2460718378	 0.7410693211	 0.385261
O	 0.0914175213	-3.2462476773	 1.4103040229	-0.32596
C	 0.0484451642	-0.8067305331	 1.2700616996	-0.423883
H	 0.8641065609	 1.9171151187	 0.59378816	 0.127195
H	-0.0527489157	 1.9683343004	-0.9247410241	 0.124631
H	-0.8924452711	 1.8872398513	 0.6364987756	 0.127215
H	-0.0429632179	-0.3408241006	-2.0937861931	 0.088229
H	-1.2817055146	-2.947593995	-2.3960905945	 0.112286
H	-1.2318065368	-3.9878262226	-0.956147997	 0.134107
H	-2.1529746603	-2.471988511	-0.929548249	 0.114945
H	 2.193554831	-2.3976232571	-1.0345457025	 0.114942
H	 1.3244882572	-3.9441013772	-1.0183520026	 0.13409
H	 1.2692993088	-2.9035385784	-2.4578597325	 0.112309
H	 0.9375018699	-0.6239809348	 1.8889664487	 0.132475
H	-0.8136300073	-0.6528779965	 1.9333622862	 0.132456
58.6563	130.4254	188.0348	202.8321	217.2898	226.7213	274.3475	287.0588	336.4536	374.9386	473.1436	520.0745	543.5459	603.4876	610.2127	710.3778	855.439	884.1002	889.2865	934.2091	953.3994	961.7996	1010.8607	1019.2066	1056.0577	1098.4952	1137.4155	1154.3652	1179.4506	1223.6146	1258.8835	1303.3681	1349.1257	1388.2201	1411.6475	1414.771	1442.1722	1478.0538	1481.6581	1484.782	1487.6601	1498.9842	1509.0362	1714.8667	1844.4673	3015.1174	3018.9849	3030.7866	3033.9722	3043.7972	3062.7972	3101.3881	3103.8666	3109.4594	3113.3532	3116.8685	3170.7163
CC1=CC(C)(C)C(=O)C1	CC1=CC(C)(C)C(=O)C1	
InChI=1S/C8H12O/c1-6-4-7(9)8(2,3)5-6/h5H,4H2,1-3H3	InChI=1S/C8H12O/c1-6-4-7(9)8(2,3)5-6/h5H,4H2,1-3H3
