18
gdb 17914	3.33248	2.22723	2.13602	1.4816	70.75	-0.2368	0.0111	0.248	768.9292	0.156234	-347.803327	-347.796815	-347.795871	-347.833498	26.72	
C	-0.0938313947	 1.5456148263	 0.0319062237	-0.429252
C	 0.0412697616	 0.0271529562	 0.0106783531	 0.032047
C	 1.0564485799	-0.6051786043	-0.9965237516	-0.106893
C	 2.3826034983	-0.0484881143	-0.3929482432	-0.075375
O	 2.1452776081	-0.0503913569	 1.0188412421	-0.278353
C	 0.8040440134	-0.6036422844	 1.1950326474	 0.055245
C	 0.8578591708	-2.0617786855	 0.7749404268	-0.079291
C	 1.0101965328	-2.0561040603	-0.5550373891	-0.082505
H	 0.8371689044	 2.0323924291	 0.3308474085	 0.136217
H	-0.3855341959	 1.9289027276	-0.9520648998	 0.111666
H	-0.8689090011	 1.8486183368	 0.7439425621	 0.115045
H	-0.9374175887	-0.4421892183	-0.1160920741	 0.076337
H	 0.9149565698	-0.3975363952	-2.0572663696	 0.064894
H	 3.2452963097	-0.6796466225	-0.6349560393	 0.09706
H	 2.5891450132	 0.97504549	-0.7288894025	 0.09667
H	 0.4841346179	-0.3708252717	 2.2097560656	 0.069786
H	 0.8854301539	-2.9092808908	 1.4473331956	 0.099266
H	 1.1865308265	-2.9037408819	-1.2057341057	 0.097435
167.0072	258.0271	285.2545	321.4073	402.0329	516.8361	554.4525	692.2565	724.2651	763.6733	786.033	852.8873	869.6219	900.467	931.7451	950.2166	955.9764	957.6703	1001.05	1045.5182	1068.6581	1089.9629	1110.0363	1138.1551	1174.4452	1210.8296	1252.4064	1277.1847	1282.0934	1296.1581	1345.2489	1365.645	1379.2186	1407.341	1490.3701	1502.8548	1528.84	1634.197	3019.8819	3035.7555	3059.0218	3078.3902	3093.4981	3116.5419	3128.1469	3133.3711	3198.4218	3225.5097
CC1C2COC1C=C2	C[C@H]1[C@H]2CO[C@@H]1C=C2	
InChI=1S/C7H10O/c1-5-6-2-3-7(5)8-4-6/h2-3,5-7H,4H2,1H3	InChI=1S/C7H10O/c1-5-6-2-3-7(5)8-4-6/h2-3,5-7H,4H2,1H3/t5-,6+,7+/m0/s1
