19
gdb 82967	2.94649	1.76159	1.46239	1.6616	80.28	-0.2223	-0.0051	0.2172	953.891	0.161603	-385.839506	-385.832628	-385.831684	-385.870331	29.118	
O	 0.2943685554	 1.3679950513	-0.2231585827	-0.420804
C	 0.0805893978	 0.0099980349	-0.002188374	 0.090874
C	-1.36886477	-0.6406429663	-0.0539421636	-0.078182
C	-2.2012057739	-0.4647307925	-1.3721786015	-0.251572
C	-1.6176587411	-1.7978254354	-1.9927751873	-0.017895
C	-0.5924238354	-1.6235952904	-3.1418267462	-0.250717
C	 0.4907929137	-0.8135039522	-2.4266072815	-0.182015
C	 0.3913889225	-0.9902379917	-1.1037001939	 0.110976
C	-0.7568747985	-1.9125318107	-0.7147769677	-0.067541
H	 0.0126291133	 1.5594096998	-1.1256702246	 0.280669
H	 0.5170948648	-0.2192864684	 0.9760769491	 0.10022
H	-1.9292508275	-0.6407465687	 0.8831759675	 0.068994
H	-3.272585194	-0.5388265952	-1.1741921858	 0.108408
H	-2.0308754351	 0.4524332224	-1.9445088571	 0.086322
H	-2.3776189983	-2.5617627863	-2.1770176528	 0.059475
H	-0.2568239178	-2.5927427453	-3.5376040895	 0.103364
H	-1.0007752435	-1.0629590281	-3.9916742149	 0.100766
H	 1.0450113683	-0.0181322099	-2.9145078209	 0.091539
H	-0.5503693608	-2.8469999173	-0.1931806226	 0.067118
162.8351	224.6275	309.1768	337.9587	383.7753	480.2563	553.2688	585.3931	657.2802	688.1506	759.1316	796.0339	818.9306	854.9633	863.8615	891.6788	904.3627	930.7261	981.4506	991.4378	1001.7397	1003.6719	1050.9276	1090.9541	1124.9725	1139.581	1166.8394	1187.4752	1208.4899	1213.2072	1239.7567	1260.6857	1278.1629	1284.2494	1308.301	1314.9409	1334.5746	1431.8897	1470.6928	1481.2523	1663.1281	3003.8306	3050.2274	3051.7064	3055.197	3071.6696	3084.1868	3108.2992	3114.0571	3180.044	3785.6596
OC1C2CC3CC=C1C23	O[C@H]1[C@H]2C[C@H]3C[CH][C]1[C@@H]23	
InChI=1S/C8H10O/c9-8-5-2-1-4-3-6(8)7(4)5/h2,4,6-9H,1,3H2	InChI=1S/C8H10O/c9-8-5-2-1-4-3-6(8)7(4)5/h2,4,6-9H,1,3H2/t4-,6+,7+,8-/m1/s1
