18
gdb 76669	3.05694	1.05007	0.90645	5.4201	68.37	-0.2293	0.0313	0.2606	1292.2007	0.146861	-476.227524	-476.218069	-476.217124	-476.262259	35.081	
N	-0.1889948627	 0.4038237197	 1.0554802149	-0.513311
C	-0.0376685884	-0.0364757674	-0.227727896	 0.366018
O	 0.8662101862	 0.3329274945	-0.9524771922	-0.361191
C	-1.1118855099	-1.0274526858	-0.6885283397	-0.308214
C	-0.951368235	-2.4005123208	-0.0597626443	-0.092728
C	-1.4397817384	-2.7139583491	 1.335365863	 0.004066
O	-2.1395920864	-1.6745980859	 1.9920136041	-0.420146
C	-2.1504842683	-3.3150579169	 0.1461340864	 0.080425
O	-3.4356468357	-2.8573876648	-0.1373692341	-0.424158
H	 0.544913244	 0.9757135393	 1.4402679754	 0.251926
H	-0.8604807177	-0.0231399313	 1.6752649493	 0.268166
H	-2.1056173039	-0.6271491069	-0.4719848636	 0.111586
H	-1.016213272	-1.1132532655	-1.7727244238	 0.13165
H	-0.0241563707	-2.9018636932	-0.3249133148	 0.106809
H	-0.8201065666	-3.3217252319	 1.9900759587	 0.100746
H	-2.5986436813	-2.0513361306	 2.7506411897	 0.304325
H	-2.0429757371	-4.3737975789	-0.0685250074	 0.107781
H	-3.6354350163	-2.1722237045	 0.5142902247	 0.28625
46.0669	92.3645	137.3866	203.7631	215.8654	269.5354	286.7032	394.5071	421.0645	474.1193	502.117	546.3934	606.1769	620.5266	654.9019	719.7002	782.8739	796.8134	889.1782	907.432	942.5438	1046.2706	1051.6572	1100.5608	1126.4602	1140.5059	1152.5272	1207.0052	1238.8694	1267.7054	1303.2493	1324.6584	1361.2864	1374.1769	1405.5349	1467.5781	1477.423	1633.6561	1801.9709	3073.6538	3123.7611	3128.7555	3145.3029	3160.4547	3568.3804	3709.8647	3754.4736	3808.8634
NC(=O)CC1C(O)C1O	NC(=O)C[C@H]1[C@@H](O)[C@H]1O	
InChI=1S/C5H9NO3/c6-3(7)1-2-4(8)5(2)9/h2,4-5,8-9H,1H2,(H2,6,7)	InChI=1S/C5H9NO3/c6-3(7)1-2-4(8)5(2)9/h2,4-5,8-9H,1H2,(H2,6,7)/t2-,4+,5-
