12
gdb 48152	5.02443	0.79952	0.7342	3.2877	59.2	-0.2806	-0.1134	0.1672	1428.0976	0.073291	-509.778833	-509.76992	-509.768976	-509.814424	29.012	
N	 0.1084375249	 1.3333004627	-0.7716739181	-0.419063
C	-0.0270241457	 0.1977323804	-0.2521953742	 0.313948
O	-1.246740721	-0.4401681982	-0.1570032776	-0.263114
C	-2.3658992823	 0.2268294104	 0.2995779165	 0.35967
O	-2.3864834941	 1.2968691548	 0.8138210069	-0.268365
C	-3.5798397001	-0.6881832561	 0.0643212073	 0.084222
O	-4.6764403553	-0.3699142585	 0.4200932822	-0.188554
C	 1.0927739915	-0.6704104313	 0.281034795	 0.104314
O	 2.2389746324	-0.3142448377	 0.2221890013	-0.223191
H	 1.1042917907	 1.5751875361	-0.7585234464	 0.264234
H	-3.3489059409	-1.6392598111	-0.4538373	 0.119359
H	 0.7791037299	-1.6377693716	 0.7188942869	 0.11654
36.6556	52.6024	114.1888	130.5438	177.0775	263.4592	279.7659	390.8348	431.3121	520.761	569.6333	709.1094	751.0869	880.1317	909.8763	953.8279	1013.3396	1043.1291	1049.1017	1129.7739	1309.5577	1396.5391	1411.5507	1725.2394	1829.048	1849.217	1887.1882	2952.1883	2957.1041	3446.9772
N=C(OC(=O)C=O)C=O	[NH][C](OC(=O)C=O)C=O	
InChI=1S/C4H3NO4/c5-3(1-6)9-4(8)2-7/h1-2,5H	InChI=1S/C4H3NO4/c5-3(1-6)9-4(8)2-7/h1-2,5H
