23
gdb 103854	2.80333	1.1149	0.9274	2.7815	86.23	-0.2309	0.0688	0.2997	1383.9771	0.206195	-384.427979	-384.418152	-384.417208	-384.462635	37.053	
C	 0.0695283986	 1.2232232689	-0.6639019717	-0.384115
C	-0.040048159	-0.0186298458	 0.2296485335	-0.244116
C	-1.4459000293	-0.6017279428	 0.2826186489	 0.33975
C	-2.4774353235	 0.2558070147	 0.993065675	-0.466678
N	-1.8810693788	-1.3030400423	-0.9472547909	-0.377348
C	-1.6704733293	-2.0786659964	 0.2878853334	-0.098087
C	-0.5782437432	-3.1095327664	 0.244165987	-0.013595
C	-0.6759159725	-4.2303953251	-0.7253595209	-0.23982
N	 0.3298322061	-3.1712194314	-0.9084860991	-0.316072
H	 1.1046753993	 1.5737683621	-0.7141492222	 0.113616
H	-0.259446898	 0.9908031286	-1.6814914261	 0.127646
H	-0.5400820551	 2.0536560124	-0.2931645768	 0.11067
H	 0.6565247541	-0.7814531719	-0.1258541851	 0.13066
H	 0.269543486	 0.2298349684	 1.2533785745	 0.092544
H	-2.6180971127	 1.2156439116	 0.4844724503	 0.125817
H	-3.4495885394	-0.2463853118	 1.0347993569	 0.110046
H	-2.1672746349	 0.4701454357	 2.0217894488	 0.124463
H	-2.8718954577	-1.1555162311	-1.1191576348	 0.227858
H	-2.5606115718	-2.4088984125	 0.8246697188	 0.080632
H	-0.0949244087	-3.2984527783	 1.2013057556	 0.091318
H	-0.2796069962	-5.2098975376	-0.4726385563	 0.112994
H	-1.5339796791	-4.2407226207	-1.3932477668	 0.108812
H	-0.0313880049	-2.5157005383	-1.6022046219	 0.243005
67.304	122.3876	136.6102	160.6896	219.0475	221.1568	262.2898	310.3625	332.0851	389.1409	449.423	573.4285	623.7394	696.8187	762.6986	790.5292	853.2527	859.3413	910.6278	935.7349	979.7537	991.3567	1009.7997	1012.6345	1038.9146	1046.5874	1094.4698	1106.5408	1133.7526	1143.4093	1148.6285	1198.3521	1215.2851	1273.1457	1294.235	1316.6851	1331.783	1342.8708	1389.8752	1404.22	1405.6411	1415.5233	1459.0171	1481.2895	1494.112	1501.0147	1506.3002	1507.8297	1511.6764	3025.3234	3029.204	3037.8632	3091.1784	3093.1597	3095.7872	3098.6488	3104.5065	3110.5278	3115.3009	3119.9162	3190.785	3462.3308	3503.0365
CCC1(C)NC1C1CN1	CC[C@@]1(C)N[C@H]1[C@H]1CN1	
InChI=1S/C7H14N2/c1-3-7(2)6(9-7)5-4-8-5/h5-6,8-9H,3-4H2,1-2H3	InChI=1S/C7H14N2/c1-3-7(2)6(9-7)5-4-8-5/h5-6,8-9H,3-4H2,1-2H3/t5-,6+,7-/m1/s1
