19
gdb 104547	2.46002	1.21302	0.97058	2.4362	82.13	-0.2444	-0.0245	0.2199	1275.9757	0.155821	-385.870979	-385.861446	-385.860502	-385.905564	35.793	
C	 0.0836766568	 1.4151379845	-0.2683050962	-0.392193
C	-0.1361054696	-0.0761117249	-0.0107086852	-0.230607
C	-1.6152472688	-0.4811502164	 0.163359666	 0.119577
C	-2.4236467605	-0.4393386231	-1.1916932507	-0.382712
C	-2.3531713355	-1.9713395527	-1.228797778	 0.407586
O	-2.6010498482	-2.7896501274	-2.0645567075	-0.286467
C	-1.7906227877	-2.0475286981	 0.1963176536	-0.389704
C	-2.2447603163	 0.2171606929	 1.2718090765	 0.278626
C	-2.7694816246	 0.7867742577	 2.1923972936	-0.45254
H	 1.1497185924	 1.6337500313	-0.38008156	 0.11782
H	-0.41964254	 1.7447887577	-1.1835722437	 0.117308
H	-0.3030355906	 2.015419793	 0.5599541265	 0.135394
H	 0.2781208236	-0.6640843714	-0.8402345215	 0.099818
H	 0.4096268495	-0.3816091386	 0.8897332374	 0.110344
H	-3.4497071193	-0.0792918812	-1.0757209893	 0.142721
H	-1.9578594056	 0.087231758	-2.0285309953	 0.134093
H	-0.8806764748	-2.6381851086	 0.3318248807	 0.132765
H	-2.5435870685	-2.38420863	 0.9145466843	 0.14209
H	-3.2341710823	 1.2900303274	 3.0039441586	 0.19608
42.3046	117.0882	154.9908	167.4028	217.9056	255.0104	340.6809	389.9749	405.4058	439.6799	502.7382	560.6353	606.9181	620.0386	635.4585	682.46	722.6402	790.4573	839.5486	907.7835	929.7499	1004.4002	1018.0814	1024.8867	1089.5183	1111.0335	1136.5554	1172.6728	1202.9617	1236.1606	1265.3332	1331.0148	1363.8687	1415.4722	1422.4473	1439.765	1483.7093	1498.5089	1507.1363	1897.9846	2230.0603	3020.6265	3038.7678	3061.1891	3061.8398	3067.0001	3104.7264	3119.4501	3120.405	3122.7414	3500.1176
CCC1(CC(=O)C1)C#C	CCC1(CC(=O)C1)C#C	
InChI=1S/C8H10O/c1-3-8(4-2)5-7(9)6-8/h1H,4-6H2,2H3	InChI=1S/C8H10O/c1-3-8(4-2)5-7(9)6-8/h1H,4-6H2,2H3
