22
gdb 76660	2.83657	0.98962	0.83345	2.6784	83.32	-0.2238	-0.0113	0.2124	1461.8846	0.190929	-404.336538	-404.325766	-404.324822	-404.373244	38.324	
C	-0.1852552721	 1.2357618613	 0.7654011966	-0.413777
C	 0.3893010693	-0.0978189847	 0.3351693907	-0.007629
C	 0.5936982547	-0.4671784018	-1.1016675412	-0.027707
C	 0.2091984555	 0.4600120383	-2.2476441458	-0.309445
C	 0.679234862	-0.0574633736	-3.6089149948	 0.37555
C	 2.1714102149	-0.2725107537	-3.7895208315	-0.477835
O	-0.1091475276	-0.276771072	-4.498722906	-0.295988
N	 1.7407216541	-0.2638810416	-0.2061879283	-0.101238
C	 2.6211275719	 0.8853024848	-0.3391011175	-0.320159
H	-0.010213795	 2.0390207158	 0.0474857427	 0.119688
H	-1.2684895938	 1.1428381008	 0.8969510042	 0.12756
H	 0.2359226017	 1.5471129966	 1.727645916	 0.124811
H	 0.1130018152	-0.9086850461	 1.0099814653	 0.089566
H	 0.4521042867	-1.5185588033	-1.3557939804	 0.095012
H	-0.8791577246	 0.5560503947	-2.3061971083	 0.125731
H	 0.6227621574	 1.4637225681	-2.1021804447	 0.112253
H	 2.7097811396	 0.669006619	-3.6306580883	 0.136091
H	 2.5519149116	-0.9827109675	-3.0478038448	 0.156062
H	 2.3705777756	-0.6434792895	-4.7953620844	 0.140791
H	 2.1464986939	 1.8293100762	-0.6443189541	 0.099938
H	 3.1079338435	 1.0604237969	 0.6257923048	 0.127415
H	 3.4042615458	 0.6513570015	-1.0670351501	 0.123311
34.1794	69.7909	118.6396	149.5032	156.9471	177.7987	207.7742	233.6371	278.3053	382.1681	436.1733	476.5714	505.8924	560.546	575.9048	722.3119	770.5719	788.2134	852.3698	884.7232	987.6326	1011.5444	1041.23	1051.9081	1090.144	1136.4716	1140.6596	1169.2488	1173.0525	1195.4608	1200.8315	1258.2136	1290.1498	1352.6453	1382.9968	1390.394	1414.1364	1429.3146	1452.1627	1457.5117	1468.4023	1477.9188	1486.8669	1495.6902	1507.0986	1507.9321	1814.8958	2988.7814	3037.6491	3039.1172	3049.0308	3067.9316	3082.2986	3093.285	3094.4471	3098.2894	3101.2378	3101.9768	3133.6824	3154.0623
CC1C(CC(C)=O)N1C	C[C@H]1[C@@H](CC(=O)C)N1C	
InChI=1S/C7H13NO/c1-5(9)4-7-6(2)8(7)3/h6-7H,4H2,1-3H3	InChI=1S/C7H13NO/c1-5(9)4-7-6(2)8(7)3/h6-7H,4H2,1-3H3/t6-,7+,8?/m0/s1
