19
gdb 7358	4.36851	1.11204	0.90664	4.3306	71.25	-0.2351	0.0346	0.2697	1301.3433	0.162636	-402.205786	-402.195551	-402.194607	-402.242609	33.824	
C	 0.0374537402	 1.3938969938	 0.0372288485	-0.225535
O	 0.047499092	-0.0129284399	 0.0563926727	-0.202553
C	 0.6356186608	-0.5586206801	-1.0857314036	-0.192457
C	 0.5959197179	-2.090985932	-0.9675947237	 0.396009
O	 0.1099385471	-2.6316996692	 0.0049096265	-0.353599
N	 1.1384081812	-2.7959551824	-2.0159903075	-0.090485
C	 1.1217415109	-4.2478846089	-1.9668557774	-0.342044
C	 1.7222476732	-2.2204712791	-3.2101129832	-0.33762
H	 1.0560175715	 1.8125110972	-0.0095045914	 0.10152
H	-0.5336378747	 1.7901143737	-0.8182001752	 0.101519
H	-0.4381881982	 1.7250053263	 0.9630502817	 0.133806
H	 0.1011844224	-0.2387478114	-1.9981451549	 0.102742
H	 1.6808784818	-0.217806836	-1.1944777971	 0.103024
H	 0.5479425356	-4.6578582359	-2.8081227803	 0.118463
H	 2.1422012855	-4.64809742	-2.0224193776	 0.11855
H	 0.6606966571	-4.552533177	-1.0290044995	 0.171783
H	 1.729150213	-1.1329690033	-3.1730267824	 0.141982
H	 2.7594307838	-2.5596176375	-3.3348686892	 0.127784
H	 1.1633718391	-2.5256120984	-4.1056167663	 0.12711
18.7236	74.2065	90.5324	134.4194	155.2187	158.7467	229.8107	248.9225	322.6287	351.7021	408.7117	471.8927	584.9988	622.1447	821.2598	967.7688	1025.898	1028.3385	1083.9929	1131.2981	1148.0601	1177.8412	1179.3506	1183.5647	1240.3929	1279.136	1285.4483	1381.9772	1429.8131	1441.5935	1473.5556	1479.5111	1480.8106	1485.796	1495.9134	1502.5636	1505.2772	1523.601	1546.4336	1781.2914	2935.8703	2960.6694	2965.1138	3002.7104	3006.0861	3012.6954	3042.7186	3056.9538	3119.645	3162.8705	3170.3626
COCC(=O)N(C)C	COCC(=O)N(C)C	
InChI=1S/C5H11NO2/c1-6(2)5(7)4-8-3/h4H2,1-3H3	InChI=1S/C5H11NO2/c1-6(2)5(7)4-8-3/h4H2,1-3H3
