17
gdb 51501	3.14244	1.05377	0.8296	2.7147	75.6	-0.2491	-0.0349	0.2142	1336.8532	0.134334	-421.865046	-421.856479	-421.855535	-421.899696	30.644	
O	-0.6445928647	 0.5771440384	 0.5627234929	-0.236937
C	 0.1127725298	 0.8783973303	-0.3225180838	 0.155255
C	 1.3046653389	 1.7942155603	-0.1762016058	-0.278073
C	 1.2246407143	 2.9895245539	-1.1484445277	-0.174944
C	 0.2753097718	 4.0993064604	-0.7728913195	-0.069775
C	 0.8643452824	 5.2963749094	-0.7536948869	-0.077394
C	 2.3255618686	 5.231555424	-1.1076172139	-0.369874
C	 2.5793807413	 3.7254118498	-1.2555366678	 0.392512
O	 3.6453150167	 3.1888412672	-1.3996127002	-0.306972
H	-0.0310199149	 0.4871294239	-1.3585458383	 0.072851
H	 1.3789419282	 2.1263119099	 0.8626275342	 0.124604
H	 2.2107222546	 1.2278940085	-0.4331173751	 0.143693
H	 0.9934537412	 2.5925640602	-2.1506149549	 0.114307
H	-0.7691958701	 3.9166285876	-0.5475831212	 0.11651
H	 0.3650149632	 6.2281481587	-0.5154349375	 0.108916
H	 2.5683087915	 5.7410193268	-2.0502324619	 0.142487
H	 2.9943146773	 5.6588760509	-0.3507231626	 0.142834
48.2486	67.172	90.644	173.7738	254.6456	283.5938	446.4109	463.9964	516.0337	576.6759	638.7054	719.0336	750.0544	775.9546	821.677	938.1732	942.7497	972.7696	987.3315	1031.2967	1072.6248	1089.8262	1132.7771	1141.7012	1161.0569	1193.5609	1230.5102	1282.2125	1303.4036	1331.538	1384.1547	1428.6957	1441.2925	1463.5577	1678.6851	1836.1872	1851.8914	2843.9701	2976.1911	3024.8317	3025.1143	3060.5618	3108.7596	3190.4615	3213.245
O=CCC1C=CCC1=O	O=CC[C@H]1C=CCC1=O	
InChI=1S/C7H8O2/c8-5-4-6-2-1-3-7(6)9/h1-2,5-6H,3-4H2	InChI=1S/C7H8O2/c8-5-4-6-2-1-3-7(6)9/h1-2,5-6H,3-4H2/t6-/m1/s1
