18
gdb 66457	3.15333	1.67413	1.51483	1.0077	74.38	-0.2095	0.0703	0.2798	944.6259	0.147575	-401.852687	-401.845337	-401.844393	-401.883837	30.21	
C	 0.0414811747	 1.5301060122	-0.0319473247	-0.52422
C	-0.0246574294	 0.0381246281	-0.0974572734	 0.392853
C	 0.5717234762	-0.9023550031	-1.1754672558	-0.235772
C	 0.8303375152	-1.8271892161	-0.0116666643	-0.110195
N	 0.5839029319	-0.8134166859	 1.0550398237	-0.188472
C	-0.820456794	-1.1129231736	 1.5295694812	-0.19493
C	-1.2975792011	-0.8724879342	 0.0863646956	-0.198475
C	-0.4997946243	-1.8889504942	-0.7728973554	 0.39819
O	-0.9511923926	-2.9599664716	-1.5073575951	-0.464441
H	 1.082753482	 1.8687705591	-0.0326046478	 0.13233
H	-0.4679395318	 1.978645765	-0.8918462702	 0.123872
H	-0.4357186674	 1.9036674361	 0.880343369	 0.125566
H	 1.1137704289	-0.7379929202	-2.0968011675	 0.098927
H	 1.522889103	-2.6543416587	 0.0850210147	 0.090203
H	-0.9577801121	-2.1025857103	 1.9783830197	 0.090899
H	-1.1384295199	-0.3402814956	 2.2350931603	 0.105953
H	-2.3101170512	-0.6015104997	-0.2129799849	 0.070931
H	-1.0839333681	-3.7084734172	-0.9143443752	 0.286779
204.2071	212.1166	238.8158	279.1525	305.624	370.1479	468.9921	561.9571	573.8901	633.5741	740.8507	769.1311	808.2973	819.5641	852.2206	860.4076	889.4673	928.3458	938.5567	973.5566	994.3138	1017.0531	1060.1542	1090.6966	1108.5596	1128.0656	1164.9301	1183.2721	1190.4546	1216.3981	1263.5211	1280.6835	1304.9933	1343.1945	1412.2847	1451.9222	1480.3964	1486.0848	1498.7144	3029.3055	3042.0372	3098.9301	3101.7196	3103.5241	3118.1236	3188.2641	3210.0191	3781.4561
CC12C3C4N1CC2C34O	C[C@@]12[C@H]3[C@H]4N1C[C@@H]2[C@@]34O	
InChI=1S/C7H9NO/c1-6-3-2-8(6)5-4(6)7(3,5)9/h3-5,9H,2H2,1H3	InChI=1S/C7H9NO/c1-6-3-2-8(6)5-4(6)7(3,5)9/h3-5,9H,2H2,1H3/t3-,4+,5+,6+,7+/m0/s1
