20
gdb 90597	2.36445	1.49019	1.20966	3.7279	79.21	-0.2339	0.0003	0.2342	1143.4763	0.171009	-403.146724	-403.137958	-403.137014	-403.180243	32.895	
C	-0.0421292574	 1.5789202944	-0.1314728612	-0.412601
C	 0.0035847609	 0.061284254	-0.0070335471	-0.004879
C	 1.0569122373	-0.6782847532	-0.8976068817	-0.20729
N	 1.7629436372	-1.16549184	 0.3314772727	-0.134005
C	 0.719387207	-0.5689515554	 1.2366585704	-0.003548
C	 1.8246289417	 0.1875474533	 2.0200426671	-0.136747
C	 2.1215232883	-0.3000472863	 3.4360653897	-0.417385
C	 2.754893705	-0.3111136534	 0.8824264755	 0.371731
O	 3.852510736	-0.0359937072	 0.4906788325	-0.327685
H	 0.9557444838	 2.0254244469	-0.0713400138	 0.130016
H	-0.4715026915	 1.8704869237	-1.0957668397	 0.123286
H	-0.6591136369	 2.0234113085	 0.6569702057	 0.121593
H	-1.0039752467	-0.3454688974	-0.130219198	 0.081911
H	 0.6598833738	-1.5031182281	-1.4939811087	 0.11682
H	 1.6896938188	-0.0494638722	-1.5309148193	 0.126683
H	 0.1204901658	-1.2744428096	 1.8181083464	 0.078835
H	 1.7423425238	 1.2781159276	 2.0023976096	 0.104842
H	 2.1853355865	-1.392077876	 3.4733713003	 0.13011
H	 3.0745166041	 0.1058936758	 3.7877100042	 0.136879
H	 1.3386865824	 0.0188673846	 4.1318196154	 0.121434
63.2042	146.5504	183.3234	217.3451	225.3019	242.796	284.6744	375.1335	417.3871	498.52	665.3735	712.3997	749.9722	771.9254	843.8775	854.4113	904.666	938.579	950.5019	983.0596	1030.795	1078.5709	1093.6653	1099.4908	1115.1658	1132.5587	1176.6383	1198.2501	1220.0946	1247.7574	1262.3959	1296.9242	1303.156	1351.2266	1367.7251	1407.421	1413.5008	1492.728	1495.6166	1497.89	1500.3283	1507.1099	1880.3739	3030.591	3036.0481	3055.317	3059.653	3072.2014	3077.7182	3098.6574	3102.5735	3106.4186	3111.6841	3114.9004
CC1CN2C1C(C)C2=O	C[C@H]1CN2[C@H]1[C@@H](C)C2=O	
InChI=1S/C7H11NO/c1-4-3-8-6(4)5(2)7(8)9/h4-6H,3H2,1-2H3	InChI=1S/C7H11NO/c1-4-3-8-6(4)5(2)7(8)9/h4-6H,3H2,1-2H3/t4-,5+,6+/m0/s1
