16
gdb 67065	3.0084	1.7232	1.44687	2.9209	70.35	-0.2334	-0.0103	0.2231	921.8647	0.124235	-437.777861	-437.770646	-437.769702	-437.809126	29.147	
O	 0.2588519214	 1.376398	-0.2691886727	-0.464806
C	 0.1566363709	-0.0140986724	-0.1988859416	 0.320367
C	-0.09694176	-0.6741089419	-1.5897368883	-0.126021
C	-0.5668590934	-1.9423768985	-0.8494721133	-0.263728
C	-1.1920715534	-0.7522822498	-0.0711444093	 0.248698
C	-1.5998611402	-0.1201016897	-1.4414360058	-0.303086
N	-1.1008414895	-0.6892168116	 1.3852168051	-0.418986
C	 0.3147316043	-0.5231879724	 1.3184292841	 0.2514
O	 1.1580301719	-0.606354513	 2.1584530611	-0.315544
H	 0.149048714	 1.7546402456	 0.6108042056	 0.294872
H	 0.5139806207	-0.6186538065	-2.4924593955	 0.089852
H	-1.2577089031	-2.5912452827	-1.3903333212	 0.100397
H	 0.2026802721	-2.5151458371	-0.3243764655	 0.107773
H	-1.7131640972	 0.9605118157	-1.4769026997	 0.129849
H	-2.3581896549	-0.6459315225	-2.0263585394	 0.101393
H	-1.5529535936	-1.3059127031	 2.0519306264	 0.247568
121.4846	251.6637	262.9529	313.3787	331.8593	424.0493	497.7167	529.6957	600.3517	622.5159	653.8816	739.3278	754.8171	785.2727	853.6754	881.884	925.4175	980.9754	986.8272	1009.3268	1061.6349	1076.4271	1090.3394	1124.503	1148.7598	1173.8902	1198.1771	1205.5143	1235.6815	1243.4997	1321.794	1345.8259	1486.5388	1524.9444	1885.457	3059.1137	3074.9893	3101.0553	3130.2666	3179.5861	3540.7127	3797.0372
OC12C3CC1(C3)NC2=O	O[C@]12[C@H]3C[C@@]1(C3)NC2=O	
InChI=1S/C6H7NO2/c8-4-6(9)3-1-5(6,2-3)7-4/h3,9H,1-2H2,(H,7,8)	InChI=1S/C6H7NO2/c8-4-6(9)3-1-5(6,2-3)7-4/h3,9H,1-2H2,(H,7,8)/t3-,5-,6-/m0/s1
