16
gdb 128775	3.50953	1.11097	0.86848	5.0737	69.64	-0.2224	-0.0137	0.2087	1287.4529	0.123235	-471.173581	-471.164711	-471.163767	-471.207591	31.65	
C	-0.2853995173	 1.3324345361	 0.3070476919	-0.22904
O	-0.3162210223	-0.0762738405	 0.3927046675	-0.247877
C	 0.9327283906	-0.627921347	 0.7945538612	-0.193778
C	 0.7642839401	-2.1019439481	 0.9215629051	 0.174159
C	-0.3295566813	-2.8170337451	 1.3711220882	 0.3974
N	-1.5297813129	-2.3786894183	 1.8380571128	-0.590347
O	-0.0657127516	-4.1053893143	 1.3334398856	-0.232821
N	 1.343519332	-4.2008179502	 0.806784784	-0.053541
N	 1.7110035556	-3.0261964719	 0.6019377495	-0.15835
H	 0.4472394885	 1.6726040442	-0.4396757203	 0.117367
H	-1.2808226597	 1.6631376827	 0.0025066647	 0.131244
H	-0.0332535655	 1.7941820975	 1.2740361432	 0.112561
H	 1.7193067709	-0.408794872	 0.0574541069	 0.122323
H	 1.2415626774	-0.1637133125	 1.7477086437	 0.105051
H	-1.7660440349	-1.4499840937	 1.515778735	 0.275746
H	-2.2821796594	-3.0500855267	 1.8264088509	 0.269902
67.1058	99.4919	136.6712	228.0758	238.7119	283.2118	324.2399	365.8653	390.8993	428.8447	538.2992	592.7485	665.4514	719.7263	751.7464	803.4778	972.8871	978.3336	1031.372	1096.5626	1139.7945	1182.6868	1218.5669	1233.6264	1285.9352	1323.8339	1405.9211	1473.4275	1481.8268	1485.5231	1502.8111	1515.3787	1526.569	1603.8489	1666.0494	2945.5193	2981.5022	3012.2389	3031.5832	3121.1544	3561.3817	3680.8416
COCC1=C(N)ON=N1	COCc1c(N)onn1	
InChI=1S/C4H7N3O2/c1-8-2-3-4(5)9-7-6-3/h2,5H2,1H3	InChI=1S/C4H7N3O2/c1-8-2-3-4(5)9-7-6-3/h2,5H2,1H3
