16
gdb 13176	3.71615	1.49266	1.13152	1.2158	66.61	-0.2445	0.0255	0.27	1031.3251	0.12857	-383.673769	-383.665312	-383.664368	-383.707249	30.091	
O	-0.0927151593	 1.4472712086	-0.0101614277	-0.419215
C	 0.0513958413	 0.0298732144	 0.0429141611	-0.069295
C	 0.6380137714	-0.5130631765	-1.1813763635	 0.292265
C	 1.1706241073	-0.9149073297	-2.1812820252	-0.436734
C	 0.870959092	-0.363541784	 1.2823909314	 0.146876
C	 0.2229499276	-0.0478884014	 2.64458896	-0.296433
C	 0.2631710995	-1.5760182234	 2.8510096793	-0.061917
O	 0.834323891	-1.7812027076	 1.537877046	-0.287409
H	 0.7144137371	 1.8067717725	-0.3945563997	 0.289442
H	-0.9627614875	-0.367643131	 0.170554127	 0.118193
H	 1.6221819664	-1.2868174345	-3.0678575317	 0.202271
H	 1.9015224826	-0.0020933875	 1.1587443797	 0.075021
H	 0.8315266809	 0.540742838	 3.3313382069	 0.112573
H	-0.7715269381	 0.396201694	 2.578383315	 0.122173
H	 0.9347408512	-1.9278496442	 3.6431730889	 0.105219
H	-0.7047277134	-2.0794540878	 2.9574556325	 0.106972
70.8421	77.466	126.2451	203.5244	240.8134	270.3346	363.7099	424.7418	502.7142	587.8862	635.2177	675.0411	775.2538	830.0061	870.6018	943.125	950.3304	1014.451	1041.7377	1064.3016	1090.8243	1135.0712	1164.6257	1208.4184	1246.2801	1255.7316	1277.8682	1300.3971	1358.9567	1382.0326	1415.0921	1492.5756	1531.6055	2233.9649	3002.9501	3022.3126	3044.4363	3062.197	3087.5419	3142.0428	3503.1168	3809.5024
OC(C#C)C1CCO1	O[C@@H](C#C)[C@H]1CCO1	
InChI=1S/C6H8O2/c1-2-5(7)6-3-4-8-6/h1,5-7H,3-4H2	InChI=1S/C6H8O2/c1-2-5(7)6-3-4-8-6/h1,5-7H,3-4H2/t5-,6+/m0/s1
