18
gdb 79567	2.3816	1.74552	1.29871	1.9234	71.95	-0.2178	0.0594	0.2771	1027.9967	0.145439	-438.982653	-438.973956	-438.973012	-439.015236	33.943	
C	 0.1339216135	 1.5027861117	 0.0350559684	-0.474281
C	-0.0968855265	 0.0229245098	-0.0377740475	 0.247383
C	-0.9993854485	-0.7434351143	 0.8477027558	-0.303883
N	 0.4772371979	-0.918052782	 0.9846599094	-0.181104
C	 1.0330493957	-1.7583631664	-0.1373802293	-0.130893
C	 0.1365728824	-2.2431271991	-1.2601438208	 0.006928
O	-1.1643150384	-2.7655550611	-1.2117716991	-0.420187
C	 0.50548363	-0.8019533497	-1.2091509541	 0.274354
O	 1.2096528742	-0.1714745047	-2.2204858278	-0.443682
H	 1.1517832141	 1.7555135157	-0.2752757165	 0.135669
H	-0.5612956351	 2.0412803057	-0.6199281138	 0.114968
H	-0.0180341087	 1.8560656336	 1.0586921891	 0.126651
H	-1.4051635162	-0.2021258378	 1.6993645002	 0.112725
H	-1.6124634598	-1.5457751136	 0.466371965	 0.145163
H	 2.0162118921	-2.1848188579	 0.0234511843	 0.10755
H	 0.766855001	-2.7331336602	-2.0083281377	 0.101597
H	-1.1084324972	-3.6528533008	-0.8388124173	 0.289607
H	 0.6155854196	-0.0441900186	-2.9691299083	 0.291436
127.86	178.512	213.9226	242.3081	271.7081	294.3565	327.1537	349.1738	410.5078	445.6487	539.2578	588.3461	609.5143	668.7998	732.817	753.549	865.5437	894.8624	937.3395	969.8162	983.8202	998.2122	1074.8546	1095.3841	1104.5157	1126.2469	1138.6513	1196.2121	1236.1779	1276.4774	1293.6833	1331.5934	1358.9013	1369.667	1415.1171	1477.3471	1482.413	1496.6529	1504.8787	3031.8441	3065.1928	3097.1655	3120.3378	3123.5913	3180.954	3259.5981	3786.7674	3792.9287
CC12CN1C1C(O)C21O	C[C@]12CN1[C@H]1[C@@H](O)[C@@]21O	
InChI=1S/C6H9NO2/c1-5-2-7(5)3-4(8)6(3,5)9/h3-4,8-9H,2H2,1H3	InChI=1S/C6H9NO2/c1-5-2-7(5)3-4(8)6(3,5)9/h3-4,8-9H,2H2,1H3/t3-,4+,5+,6+,7?/m0/s1
