19
gdb 117922	3.09703	0.86279	0.76767	1.7978	74.22	-0.2487	-0.0966	0.1521	1546.938	0.154446	-460.171797	-460.161062	-460.160118	-460.20905	36.315	
C	-0.1567377126	 1.506922683	-0.0747710568	-0.382894
C	-0.0947877963	-0.0109329574	-0.0916898013	-0.040086
O	-1.4168828683	-0.505612104	 0.042088584	-0.245146
C	-1.5406023844	-1.8996200708	-0.0701526328	 0.040515
C	-1.1617776669	-2.6436766582	 1.2263900535	-0.427541
C	-2.9896387565	-2.2050222954	-0.4287521615	 0.272309
O	-3.90659259	-1.4288108437	-0.3294767284	-0.262794
C	-3.2981001265	-3.6140294057	-0.9596157151	 0.082059
O	-2.4687837759	-4.4666063932	-1.1425775713	-0.22082
H	 0.847292851	 1.9287712168	-0.1792208288	 0.115576
H	-0.7788098356	 1.8738537603	-0.89557592	 0.131424
H	-0.5873208135	 1.8614685012	 0.8657209807	 0.131358
H	 0.346635712	-0.3716952749	-1.0356284578	 0.089942
H	 0.5468618833	-0.3743210938	 0.725908553	 0.0923
H	-0.914490332	-2.2879666355	-0.8908132523	 0.096112
H	-1.277614167	-3.7226533421	 1.1024068923	 0.145265
H	-0.1179493985	-2.4437148025	 1.4805090376	 0.131264
H	-1.7918980511	-2.3005194154	 2.0517891442	 0.136967
H	-4.3787938411	-3.7530859088	-1.1752098893	 0.114188
40.4074	53.663	88.2109	123.3563	136.48	206.9696	210.6263	241.1819	254.6878	331.4275	377.4329	454.2953	513.2693	595.9765	651.5714	781.9352	821.9451	864.1709	948.771	981.2833	1046.8748	1085.3841	1096.2423	1143.145	1164.0469	1185.3579	1194.4705	1297.9786	1321.2743	1360.6033	1368.259	1396.761	1403.3547	1438.1029	1482.3798	1494.2862	1497.7536	1499.6809	1529.0357	1817.2324	1820.0181	2923.427	2964.2196	2974.2207	2997.8266	3047.1865	3051.8259	3121.8806	3126.2391	3127.6968	3139.4282
CCOC(C)C(=O)C=O	CCO[C@@H](C)C(=O)C=O	
InChI=1S/C6H10O3/c1-3-9-5(2)6(8)4-7/h4-5H,3H2,1-2H3	InChI=1S/C6H10O3/c1-3-9-5(2)6(8)4-7/h4-5H,3H2,1-2H3/t5-/m0/s1
