20
gdb 107432	2.87572	1.39981	1.2715	1.4311	77.57	-0.2224	0.0698	0.2923	1108.888	0.171668	-403.113562	-403.105531	-403.104587	-403.146104	31.629	
C	-0.3616111448	 1.4800882635	 0.0858253041	-0.384905
C	 0.1891874957	 0.0491442021	 0.0298592881	-0.296626
C	 0.7811598195	-0.3199390218	-1.3078889214	 0.42671
O	 1.816385272	-1.3233625547	-1.2987270664	-0.304714
C	 2.1520207839	-0.0039482325	-1.7524080347	-0.033263
C	 2.1437530497	 0.1525310009	-3.2637644944	-0.196274
N	 0.7610271654	-0.0883128621	-3.7406754057	-0.110607
C	 0.2323121393	-1.4447047862	-3.5480536259	-0.2441
C	-0.0781754326	-0.3812628565	-2.5569412186	-0.102997
H	 0.4227649544	 2.2133798054	-0.1274831207	 0.121021
H	-1.1671039472	 1.6361321162	-0.6383994721	 0.125365
H	-0.7649893642	 1.6977787195	 1.0789502734	 0.1204
H	 0.9705177814	-0.0841907208	 0.7849730037	 0.114078
H	-0.6057144427	-0.6660961327	 0.2769852268	 0.109409
H	 2.8781423329	 0.530577056	-1.1413078644	 0.09327
H	 2.4209096061	 1.1802602881	-3.526880045	 0.111524
H	 2.849122385	-0.5227060564	-3.7592264733	 0.119117
H	-0.517704903	-1.7366168468	-4.2787493815	 0.10973
H	 0.9073972046	-2.230286347	-3.2255351358	 0.134364
H	-1.0577143453	 0.0866136557	-2.5184332961	 0.088497
79.8091	141.5543	202.2968	268.6839	285.8657	338.7626	414.4149	461.0048	558.4601	583.8209	705.8234	720.5456	774.5903	798.8754	821.4009	868.1957	910.2001	951.6315	958.3294	969.1274	1021.9692	1052.0773	1068.2429	1086.0682	1101.7855	1124.5061	1125.7703	1156.7844	1221.3158	1233.1811	1265.8049	1278.3383	1315.2286	1329.0415	1359.4864	1375.5016	1413.2551	1453.3078	1484.376	1487.4957	1497.3492	1500.8133	1509.3906	3030.0782	3035.9645	3040.1582	3076.5363	3081.8059	3110.1878	3110.8541	3112.2211	3122.6777	3149.1564	3209.415
CCC12OC1CN1CC21	CC[C@]12O[C@H]1CN1C[C@@H]21	
InChI=1S/C7H11NO/c1-2-7-5-3-8(5)4-6(7)9-7/h5-6H,2-4H2,1H3	InChI=1S/C7H11NO/c1-2-7-5-3-8(5)4-6(7)9-7/h5-6H,2-4H2,1H3/t5-,6-,7+,8?/m0/s1
