17
gdb 55244	4.04861	0.96423	0.91404	4.8248	70.73	-0.2563	0.0097	0.266	1292.4338	0.137333	-455.202099	-455.193436	-455.192492	-455.236446	31.414	
N	-0.06908584	 1.2014991865	 0.6592338678	-0.527041
C	-0.0579487128	 0.1819873324	-0.2429062358	 0.400778
O	 0.8832766562	-0.0334488915	-0.9829020694	-0.364455
C	-1.3181673799	-0.6790943257	-0.2788594864	-0.123696
C	-1.9280048331	-0.7399765599	-1.6939747487	-0.094448
O	-2.5967543361	-2.006158126	-1.7740679251	-0.237247
C	-2.0995675754	-2.8709098419	-0.8370463259	 0.409368
N	-2.4845595924	-4.0614753816	-0.6787928671	-0.540943
C	-1.0286956874	-2.1702309288	-0.0310852149	-0.30472
H	 0.7570335126	 1.7713370735	 0.7457457612	 0.266598
H	-0.8243782462	 1.3418692058	 1.3062841004	 0.263449
H	-2.0700232746	-0.3179601693	 0.4305905255	 0.076379
H	-2.6651448508	 0.0421136684	-1.8883188571	 0.120133
H	-1.1336816401	-0.6922770432	-2.446344245	 0.13928
H	-3.2027736767	-4.2998592739	-1.3650617383	 0.222339
H	-0.0443068032	-2.4188507543	-0.4428044793	 0.157911
H	-1.05360569	-2.4748024206	 1.0149390581	 0.136317
36.3405	91.5184	163.4913	183.6262	207.273	287.6624	359.7345	451.3569	515.6256	587.9217	606.4194	626.2782	682.8584	765.8603	848.1112	875.4607	894.3541	916.7312	979.5002	1014.6969	1056.2188	1068.2074	1102.7824	1114.1423	1189.1386	1245.3449	1266.2894	1275.7086	1310.9617	1321.3753	1395.2406	1419.0272	1471.0757	1521.1373	1618.8525	1782.4621	1794.9416	3047.8573	3053.4854	3063.6527	3114.591	3140.2939	3472.0483	3602.3388	3740.267
NC(=O)C1COC(=N)C1	NC(=O)[C@H]1CO[C]([NH])C1	
InChI=1S/C5H8N2O2/c6-4-1-3(2-9-4)5(7)8/h3,6H,1-2H2,(H2,7,8)	InChI=1S/C5H8N2O2/c6-4-1-3(2-9-4)5(7)8/h3,6H,1-2H2,(H2,7,8)/t3-/m1/s1
