16
gdb 45019	2.49519	1.77556	1.13671	2.4372	72.07	-0.2497	0.0026	0.2523	1037.0089	0.127822	-434.117095	-434.109761	-434.108817	-434.149048	28.721	
N	-0.1236809216	 1.3074919043	-0.1298269655	-0.529479
C	-0.0365777326	 0.0436827814	 0.0090852011	 0.39366
N	 1.1507249507	-0.6822292319	 0.0975450702	-0.412978
C	 1.3339942394	-2.0641442045	-0.0051128903	 0.442219
O	 2.4432937642	-2.5557554077	 0.0408897899	-0.396898
N	 0.1851213452	-2.7920412206	-0.174991222	-0.351261
C	-1.1393290048	-2.2744446387	-0.0057677852	 0.008395
C	-1.5483911433	-1.6512351223	 1.3023659029	-0.313499
C	-1.2716733426	-0.7780484982	 0.084441705	-0.073349
H	 0.7973946695	 1.7454814824	-0.1933251153	 0.207275
H	 2.0241749245	-0.1758878601	 0.1194303525	 0.257458
H	 0.3295635643	-3.7851081133	-0.0742230943	 0.260142
H	-1.8831075601	-2.8134301824	-0.5824329883	 0.116617
H	-2.5808271595	-1.7326053948	 1.6219339774	 0.130129
H	-0.8155953186	-1.6474727484	 2.1015011857	 0.135529
H	-2.1216439547	-0.3024617452	-0.3862223737	 0.126039
97.7229	124.9076	225.2458	368.82	404.5316	494.8614	503.2512	518.7766	535.5008	602.7307	669.7262	735.3639	754.2005	781.0094	831.0003	864.744	890.399	976.4563	989.1065	1040.0911	1052.7196	1073.6176	1123.8624	1147.1627	1164.469	1227.8303	1313.906	1373.3836	1407.5842	1418.5564	1435.5266	1468.976	1492.5271	1729.3044	1818.9815	3140.4933	3166.2237	3208.2552	3235.0801	3452.1015	3618.7004	3629.5248
N=C1NC(=O)NC2CC12	[NH][C]1NC(=O)N[C@H]2C[C@@H]12	
InChI=1S/C5H7N3O/c6-4-2-1-3(2)7-5(9)8-4/h2-3H,1H2,(H3,6,7,8,9)	InChI=1S/C5H7N3O/c6-4-2-1-3(2)7-5(9)8-4/h2-3H,1H2,(H3,6,7,8,9)/t2-,3+/m1/s1
