23
gdb 75603	2.24123	1.46556	1.03984	1.5845	87.53	-0.2301	0.0159	0.246	1255.142	0.207364	-388.294847	-388.285866	-388.284922	-388.328088	35.227	
C	 0.1194043889	 1.5594775884	-0.0591697157	-0.477107
C	 0.085477293	 0.0554166273	 0.0066896189	 0.342643
C	 0.0377326461	-0.6981968344	-1.096886109	-0.162013
C	-0.0462844718	-2.206957034	-1.1224706875	-0.12889
O	-1.3646894205	-2.7294035124	-0.9766518489	-0.242837
C	-1.8689123274	-2.8260090611	 0.3449146278	-0.066072
C	-2.3597357391	-1.5006012663	 0.9673067247	-0.193054
C	-1.3925371224	-0.7743578352	 1.9205663473	-0.193097
C	 0.0433832275	-0.5549950649	 1.3884818438	-0.297921
H	 1.0236544605	 1.9524610322	 0.423561149	 0.123125
H	 0.0959079397	 1.9230107255	-1.089793497	 0.120868
H	-0.7315512832	 2.0006851417	 0.4760510007	 0.124909
H	 0.0165614702	-0.2044048601	-2.0662815108	 0.078389
H	 0.293718199	-2.5728443469	-2.0962687599	 0.102313
H	 0.6126712629	-2.6530170949	-0.3614307871	 0.090538
H	-2.7176679122	-3.511834523	 0.2555426117	 0.103851
H	-1.1296130728	-3.3148023108	 1.0023400811	 0.080336
H	-2.6473819976	-0.8449632161	 0.1396184461	 0.113327
H	-3.2788884568	-1.7060442761	 1.5297388261	 0.091579
H	-1.8367042749	 0.1931001423	 2.1862168328	 0.097408
H	-1.3169917711	-1.3373807841	 2.859582804	 0.095345
H	 0.5653867488	-1.516997009	 1.3858160751	 0.103952
H	 0.5827884132	 0.0836739717	 2.0979341066	 0.092409
112.1536	151.6167	164.7138	202.5748	260.2128	277.9524	352.2642	380.4871	396.9931	458.433	490.8051	562.8131	625.7191	712.6724	775.7072	812.0201	854.5531	887.3129	945.6306	971.4948	976.6508	1004.4999	1040.6635	1061.3199	1070.4187	1087.304	1115.2662	1132.6703	1191.3328	1206.1993	1248.1262	1284.2146	1306.9746	1332.0422	1342.1958	1365.4391	1382.3107	1396.0817	1398.7652	1412.1654	1417.211	1473.7284	1477.4039	1482.563	1487.9094	1489.5264	1491.4309	1510.9671	1727.4486	2959.9344	2981.6304	3013.437	3015.4792	3031.2118	3037.272	3048.6469	3059.5252	3068.029	3072.523	3079.9382	3088.9979	3112.3275	3144.2942
CC1=CCOCCCC1	CC1=CCOCCCC1	
InChI=1S/C8H14O/c1-8-4-2-3-6-9-7-5-8/h5H,2-4,6-7H2,1H3/b8-5-	InChI=1S/C8H14O/c1-8-4-2-3-6-9-7-5-8/h5H,2-4,6-7H2,1H3/b8-5-
