17
gdb 66333	2.53786	1.39658	1.30348	5.1996	74.83	-0.2583	-0.0141	0.2442	1066.0451	0.137169	-418.008853	-418.00055	-417.999606	-418.041594	31.466	
N	-0.0876565241	 1.4721029926	 0.0722896794	-0.539005
C	 0.0146492074	 0.0040410963	 0.0089224638	 0.049977
C	-1.4291389412	-0.5592102922	 0.0038093921	-0.09069
O	-1.4524716352	-1.9341008247	-0.2849574196	-0.242358
C	-1.0123789693	-2.2293909954	-1.5962891882	-0.122065
C	 0.2397701947	-1.4924399105	-1.9751126329	-0.07791
C	 0.7375099559	-0.5105515657	-1.2286620988	-0.099028
C	 0.7325833109	-0.4496199705	 1.2144045291	 0.294349
N	 1.3194701033	-0.8026629101	 2.1450470512	-0.336492
H	 0.8279927379	 1.8801456594	 0.2384334512	 0.245182
H	-0.4001855618	 1.8127568553	-0.8335666448	 0.236183
H	-1.8925504279	-0.421210347	 0.9816910773	 0.139297
H	-2.0030621517	 0.0190312735	-0.7390749834	 0.091877
H	-0.8413470509	-3.3112899177	-1.6263446733	 0.132582
H	-1.8101319808	-2.0112304929	-2.3304175086	 0.106271
H	 0.7288292431	-1.7985103588	-2.8961449841	 0.10925
H	 1.6636471397	-0.0054626015	-1.4887651501	 0.102579
87.7358	148.2453	193.6289	252.5034	294.1091	302.4743	352.8672	432.3047	474.2513	500.3243	569.9048	619.6123	685.8965	736.5989	819.345	871.0354	909.9806	939.8703	987.5867	996.0355	1029.3936	1071.255	1116.2328	1128.8759	1187.6727	1224.3258	1262.11	1300.6134	1335.079	1371.5311	1405.6863	1416.3113	1481.232	1491.8075	1650.8917	1715.8192	2357.0019	2939.1944	2974.3346	3062.921	3124.2702	3157.0227	3178.9182	3484.2048	3569.1818
NC1(COCC=C1)C#N	N[C@]1(COCC=C1)C#N	
InChI=1S/C6H8N2O/c7-4-6(8)2-1-3-9-5-6/h1-2H,3,5,8H2	InChI=1S/C6H8N2O/c7-4-6(8)2-1-3-9-5-6/h1-2H,3,5,8H2/t6-/m0/s1
