19
gdb 105311	2.34169	1.49091	1.13927	3.5085	79.29	-0.2495	0.0334	0.2829	1144.2545	0.159653	-382.043531	-382.034871	-382.033927	-382.07671	32.867	
C	 0.0957374783	 1.5173206788	-0.0986764314	-0.397163
C	 0.0029995939	 0.0043503889	 0.1153048354	-0.242212
C	-1.4295653752	-0.5467592923	 0.0372485994	 0.167929
C	-2.1653628635	-0.514095792	-1.3745093094	-0.276381
C	-2.2762601736	-2.0385607888	-1.3124108044	-0.027791
N	-0.8866016528	-2.5465265787	-1.2217567311	-0.339435
C	-1.5837902125	-2.0919230027	-0.0006440221	-0.100496
C	-2.2777578138	 0.0253838519	 1.0791187007	 0.248044
N	-2.9427892352	 0.4754613463	 1.9115730809	-0.353092
H	 1.1367347566	 1.8480624723	-0.0415736195	 0.120022
H	-0.2903846677	 1.8070198506	-1.0818019537	 0.119498
H	-0.4730142774	 2.0646793127	 0.6593794255	 0.139363
H	 0.5856365944	-0.5296956993	-0.6400379575	 0.130279
H	 0.423230106	-0.2595560837	 1.0933511424	 0.108115
H	-3.1243349566	 0.0023441112	-1.3302658363	 0.132241
H	-1.5637805885	-0.1229810837	-2.1978238433	 0.119003
H	-3.0733169359	-2.658519329	-1.7013715739	 0.104975
H	-0.9284694557	-3.5650791605	-1.2248291013	 0.236976
H	-1.7236779309	-2.741948042	 0.8536397694	 0.110127
106.5873	137.696	166.2037	178.2997	206.1288	277.6225	369.1822	396.4204	498.8851	528.7731	572.3621	624.506	760.4114	793.7836	823.1719	843.0865	884.1057	935.9232	940.7657	967.3888	984.779	1024.1314	1037.2894	1091.7805	1111.6642	1116.5709	1145.7978	1174.7599	1231.2401	1244.7736	1288.9676	1311.4796	1327.8286	1356.3083	1383.6268	1416.8281	1470.9697	1491.1394	1499.5586	1507.7426	2347.5271	3036.5935	3039.8325	3077.3488	3093.4776	3108.9254	3117.1329	3145.7973	3194.7823	3208.3122	3481.274
CCC1(CC2NC12)C#N	CC[C@]1(C[C@H]2N[C@@H]12)C#N	
InChI=1S/C7H10N2/c1-2-7(4-8)3-5-6(7)9-5/h5-6,9H,2-3H2,1H3	InChI=1S/C7H10N2/c1-2-7(4-8)3-5-6(7)9-5/h5-6,9H,2-3H2,1H3/t5-,6-,7+/m1/s1
