17
gdb 80776	3.29464	1.0874	0.98832	4.0244	68.5	-0.2461	-0.0253	0.2207	1219.2993	0.134039	-458.913972	-458.905572	-458.904628	-458.947924	30.917	
O	 0.0543826361	 1.4537280811	 0.0561572149	-0.430284
C	-0.0101861534	 0.0648285292	 0.0004128798	 0.129925
C	-0.4377565736	-0.7480701179	 1.1665518349	 0.019891
O	-1.4216801479	-0.003282335	 1.9028425132	-0.316442
C	-2.3731913311	-0.1432031104	 0.7970727713	 0.119216
C	-3.0767468571	 1.1507673504	 0.4096554591	-0.314658
C	-3.9180577925	 1.6990117374	 1.5441806181	 0.170651
O	-3.9076134166	 2.8436796992	 1.9119993029	-0.233954
C	-1.2974694171	-0.7459466383	-0.0988952265	-0.21328
H	-0.253674079	 1.7042509496	 0.9378613648	 0.299242
H	 0.796764123	-0.358642293	-0.5919013153	 0.115107
H	 0.1157865276	-1.5129538677	 1.6991757789	 0.111472
H	-3.1124452738	-0.9014221476	 1.0894174494	 0.09406
H	-2.3746594047	 1.9097179639	 0.0634749044	 0.143584
H	-3.7617483028	 0.912582291	-0.4182051665	 0.128095
H	-4.5823339012	 0.9450738472	 2.0297531285	 0.07255
H	-1.458825356	-1.509877989	-0.8478460019	 0.104824
49.5221	80.5018	149.5377	203.1601	242.1321	346.2855	423.6965	444.2278	477.7247	594.1279	658.9085	729.8367	749.3707	808.3002	825.3583	888.5062	939.1413	975.8521	1012.031	1024.0828	1054.1227	1060.5928	1072.9636	1094.7913	1136.7018	1191.0018	1211.8013	1249.6781	1254.2083	1306.7687	1318.9246	1369.1407	1403.7987	1430.6658	1450.6274	1461.2739	1840.9108	2850.2205	3008.9855	3016.5032	3140.1709	3153.8287	3178.3925	3202.6435	3755.0852
OC1C2OC(CC=O)C12	O[C@H]1[C@H]2O[C@@H](CC=O)[C@@H]12	
InChI=1S/C6H8O3/c7-2-1-3-4-5(8)6(4)9-3/h2-6,8H,1H2	InChI=1S/C6H8O3/c7-2-1-3-4-5(8)6(4)9-3/h2-6,8H,1H2/t3-,4-,5+,6-/m0/s1
