16
gdb 34316	3.41247	1.47275	1.32118	3.8667	68.35	-0.2675	0.0074	0.2749	973.7611	0.126383	-437.891786	-437.884839	-437.883894	-437.923077	27.343	
N	 0.078129737	-1.0909798522	 0.0257973526	-0.330295
C	 0.0407699776	 0.0630594327	 0.0123342154	 0.215594
C	-0.0597939604	 1.5138962038	 0.0094529228	 0.270321
C	-0.8451634962	 2.1328808988	 1.1896448238	-0.105015
O	-1.0811140342	 3.4757087886	 0.7327782309	-0.278228
C	-0.4729662866	 3.5703347481	-0.5628578722	 0.046427
C	 1.0457464809	 3.488697248	-0.3737241974	-0.082395
O	 1.247153847	 2.1050640269	 0.0061884642	-0.314243
C	-0.7626295429	 2.1968973179	-1.1839074574	-0.271371
H	-1.7965084449	 1.6246653474	 1.384753397	 0.120655
H	-0.2328910031	 2.1339562975	 2.0963230211	 0.128762
H	-0.8477311391	 4.458860851	-1.0682583998	 0.100116
H	 1.6107556956	 3.7029502198	-1.2886701351	 0.112974
H	 1.3863670041	 4.1458441423	 0.4317131723	 0.123681
H	-0.2531146583	 2.001025151	-2.1278659578	 0.131472
H	-1.8274013063	 1.9744098685	-1.2559711203	 0.131545
146.8361	162.0938	219.7217	374.8831	422.5066	459.957	513.3229	543.9214	553.0139	616.9645	780.8817	820.4369	864.6855	909.7393	923.8342	954.3681	959.8863	994.3324	1025.5595	1060.1253	1108.5437	1121.5766	1168.2668	1197.3289	1205.229	1222.3696	1269.1786	1281.1484	1316.4387	1365.3455	1380.924	1480.3206	1510.5242	1517.6511	2371.6295	3032.1849	3035.2403	3091.3834	3092.5965	3095.8236	3143.2282	3161.7693
N#CC12COC(CO1)C2	N#C[C@@]12CO[C@@H](CO1)C2	
InChI=1S/C6H7NO2/c7-3-6-1-5(2-9-6)8-4-6/h5H,1-2,4H2	InChI=1S/C6H7NO2/c7-3-6-1-5(2-9-6)8-4-6/h5H,1-2,4H2/t5-,6+/m1/s1
