14
gdb 132806	2.3431	1.81121	1.02155	0.988	67.72	-0.2159	0.0088	0.2247	1053.165	0.100986	-481.856395	-481.848929	-481.847985	-481.887991	29.296	
O	 0.0953595583	 1.3736201262	 0.110270689	-0.444185
C	 0.0683938369	 0.0163636412	 0.0661828579	 0.333784
C	 0.1095400662	-0.6467361987	-1.1648233516	 0.1225
O	 0.1770354819	 0.113390075	-2.3003098382	-0.467882
C	 0.0807120832	-2.0340967875	-1.1849386428	 0.196766
F	 0.1228862228	-2.6182372122	-2.4012438963	-0.100216
C	 0.0123943288	-2.790043538	-0.0272287833	-0.268346
C	-0.0280130787	-2.1161516297	 1.1923907181	-0.099305
C	-0.0004007633	-0.7244680137	 1.2433635122	-0.215653
H	 0.1440621877	 1.6983376505	-0.7978356873	 0.310866
H	 0.1983035752	-0.4804548012	-3.059615455	 0.308472
H	-0.0077780878	-3.8704252576	-0.0942565128	 0.110745
H	-0.0816415999	-2.6838403146	 2.1140756386	 0.103954
H	-0.0314205313	-0.1932193998	 2.1870973115	 0.108501
159.8101	256.7975	285.1899	296.5432	308.9078	341.3762	446.9878	497.2382	507.2391	549.3259	584.2542	584.7265	707.0799	709.351	771.7715	837.3691	870.4521	930.5917	1007.7218	1074.9639	1167.7477	1208.01	1240.0022	1275.1363	1309.4112	1384.3693	1404.3975	1529.5686	1544.2831	1656.1788	1665.9038	3191.3473	3207.7464	3216.832	3787.3006	3811.621
OC1=C(O)C(F)=CC=C1	Oc1c(O)c(F)ccc1	
InChI=1S/C6H5FO2/c7-4-2-1-3-5(8)6(4)9/h1-3,8-9H	InChI=1S/C6H5FO2/c7-4-2-1-3-5(8)6(4)9/h1-3,8-9H
