20
gdb 107363	3.23189	1.17458	0.98207	2.1637	78.82	-0.2284	-0.0238	0.2046	1259.8458	0.170533	-403.158863	-403.150229	-403.149285	-403.192364	33.075	
C	-0.4062112682	 1.4928664777	-0.0329810239	-0.383409
C	 0.0085425768	 0.0173822317	 0.022211772	-0.2678
C	 0.8191748828	-0.4166890886	-1.1783127366	 0.34548
C	 0.1533876401	-0.912993445	-2.4128568651	-0.291189
N	 0.8080111299	-1.8743663305	-1.5107641248	-0.140729
C	 2.145742246	-2.2559775092	-1.9618362843	-0.27521
C	 3.0061697993	-0.9843728599	-2.0453619144	 0.377342
O	 4.1014752937	-0.8986243817	-2.5319053906	-0.299592
C	 2.2159396896	 0.1460374979	-1.3715174327	-0.405665
H	 0.4655136554	 2.1552418208	-0.0577896781	 0.119456
H	-1.0065509441	 1.701668525	-0.9248355362	 0.119076
H	-1.001866603	 1.7634591413	 0.8436254407	 0.118515
H	 0.5930069422	-0.1693449097	 0.9331146962	 0.09747
H	-0.8778424927	-0.6223766032	 0.0874828669	 0.110378
H	-0.9297014256	-0.9903518786	-2.4515567714	 0.118696
H	 0.6213222577	-0.7066454252	-3.3755503024	 0.11144
H	 2.6005623846	-2.9369131637	-1.2309726139	 0.136706
H	 2.1262758156	-2.7771305744	-2.9240021221	 0.136928
H	 2.2661912194	 1.0545614997	-1.9771954672	 0.139063
H	 2.6923587606	 0.3732484957	-0.4088420421	 0.133042
79.4349	85.7524	156.3943	214.0394	281.0993	347.3934	393.8808	431.8678	460.6382	468.5208	591.0166	639.4115	715.6664	782.2222	790.1042	796.4841	838.1713	896.1481	933.6084	984.1636	1011.5862	1041.3868	1070.7945	1099.2254	1113.4555	1145.408	1160.692	1188.2641	1218.667	1234.7985	1261.3439	1296.5551	1332.2206	1362.4376	1392.289	1412.3448	1452.007	1460.4646	1483.4661	1499.9068	1507.8344	1512.7389	1852.3527	3020.7998	3031.5598	3035.1178	3036.0937	3071.6156	3084.9069	3088.3494	3099.3034	3103.7342	3109.8865	3177.5375
CCC12CN1CC(=O)C2	CC[C@]12CN1CC(=O)C2	
InChI=1S/C7H11NO/c1-2-7-3-6(9)4-8(7)5-7/h2-5H2,1H3	InChI=1S/C7H11NO/c1-2-7-3-6(9)4-8(7)5-7/h2-5H2,1H3/t7-,8?/m0/s1
