16
gdb 16503	3.83342	2.26762	1.95438	0.2803	62.62	-0.2364	0.0729	0.3093	744.8226	0.131093	-383.680976	-383.674694	-383.67375	-383.711007	25.473	
C	-0.0489648846	 1.4771696805	 0.0347319895	-0.500192
C	 0.0700444492	-0.014284893	-0.0061418068	 0.429342
O	-0.8041613582	-0.7970448507	 0.8324275829	-0.288329
C	 0.6201600943	-0.9123881623	 1.0090677867	-0.035245
C	 1.3060340272	-1.9538283161	 0.0889468365	 0.032666
C	 0.2368227208	-2.2586715693	-0.983506919	-0.225495
C	 0.5615380292	-0.7779027884	-1.2740213474	-0.010674
O	 1.955476843	-1.0572347939	-0.8860296312	-0.302652
H	 0.8622432434	 1.938049185	-0.3599616465	 0.138243
H	-0.893596503	 1.8212769982	-0.5724613076	 0.1285
H	-0.2032733129	 1.8234848318	 1.0596632109	 0.13325
H	 1.021089279	-0.6120566668	 1.9709227889	 0.105857
H	 1.9748769832	-2.6945957975	 0.5244750453	 0.082756
H	 0.6403615347	-2.9060825838	-1.7609770944	 0.110712
H	-0.768626554	-2.5398882287	-0.6782704161	 0.123105
H	 0.4599242986	-0.3010451549	-2.2485395716	 0.078157
191.376	210.4955	280.8628	420.0112	470.2505	537.4783	602.0501	607.9727	712.5455	803.9871	826.7514	865.2509	877.9411	887.5126	924.1719	946.2044	993.0025	1008.1199	1017.4352	1081.5446	1103.9783	1109.062	1180.3721	1204.4809	1233.2459	1268.6171	1285.2464	1286.4795	1301.9188	1405.8137	1455.8332	1474.2613	1486.9491	1495.4755	3035.8266	3099.4184	3103.9701	3124.2954	3128.612	3136.2323	3177.9835	3180.0183
CC12OC1C1CC2O1	C[C@]12O[C@H]1[C@H]1C[C@@H]2O1	
InChI=1S/C6H8O2/c1-6-4-2-3(7-4)5(6)8-6/h3-5H,2H2,1H3	InChI=1S/C6H8O2/c1-6-4-2-3(7-4)5(6)8-6/h3-5H,2H2,1H3/t3-,4+,5+,6-/m1/s1
