16
gdb 22725	4.54893	0.90214	0.82071	1.2278	70.17	-0.2516	-0.0051	0.2466	1361.5462	0.122224	-474.926136	-474.917504	-474.91656	-474.959864	31.864	
O	 0.1097610964	 1.3528947328	-0.3083273948	-0.409873
C	 0.0753361669	-0.0173098249	 0.0552916952	-0.181785
C	-1.3258657874	-0.5003842583	 0.2525630196	 0.394951
C	-2.3317335091	-0.1621679293	 1.3810120507	-0.386244
C	-2.9196484748	-1.5544669747	 1.1298665315	 0.456716
N	-3.7576951297	-2.3229477357	 1.6837131224	-0.257544
O	-4.4075747741	-1.6812784445	 2.74870243	-0.384423
C	-1.9550602631	-1.8255523837	 0.0170089351	-0.164991
O	-2.1143922774	-0.7385698988	-0.9224075028	-0.285663
H	-0.373010911	 1.4390951773	-1.1379905252	 0.295382
H	 0.5691085342	-0.6542297976	-0.6933567739	 0.103697
H	 0.6352198562	-0.0976637383	 0.9925263643	 0.120383
H	-1.8872509832	-0.0818713632	 2.3772936158	 0.134703
H	-2.9773596749	 0.6972258769	 1.1931685352	 0.136618
H	-4.9976251356	-2.3703446082	 3.0733912814	 0.310464
H	-1.5616007834	-2.7617112799	-0.3582409244	 0.117609
67.5023	90.32	153.5319	221.6123	300.8365	329.912	380.2571	404.0429	418.7213	466.7962	509.7494	622.2985	693.9474	717.745	790.7086	877.3593	918.6054	971.438	974.8706	1000.9504	1024.1859	1074.2542	1116.4016	1125.0426	1188.8346	1204.1152	1235.4051	1274.8848	1366.9097	1411.4469	1412.8158	1442.8141	1464.134	1486.9905	1795.6596	3000.0037	3070.8615	3083.6921	3131.6415	3208.3494	3806.1269	3814.4276
OCC12CC(=NO)C1O2	OC[C@]12CC(=NO)[C@H]1O2	
InChI=1S/C5H7NO3/c7-2-5-1-3(6-8)4(5)9-5/h4,7-8H,1-2H2	InChI=1S/C5H7NO3/c7-2-5-1-3(6-8)4(5)9-5/h4,7-8H,1-2H2/t4-,5-/m1/s1
