23
gdb 59993	3.6471	0.77593	0.7363	1.3851	82.44	-0.2633	0.0789	0.3422	1668.4301	0.203725	-425.411352	-425.400912	-425.399968	-425.447347	38.52	
C	-0.1848030054	 1.5288542781	 0.1376038818	-0.388802
C	-0.0168324808	 0.010345178	-0.0153436389	 0.046223
C	-1.3835658436	-0.6866327047	-0.0271577622	-0.393221
C	 0.7887279101	-0.36513207	-1.2713499592	-0.193944
C	 2.2599645776	 0.0814930779	-1.2474200194	 0.075326
O	 2.9412754873	-0.4013982452	-0.1009198232	-0.433663
C	 2.978774099	-0.3749056239	-2.5094940709	 0.069098
C	 4.4266605184	-0.5950690993	-2.5338782267	-0.188337
O	 3.5157181682	-1.7034757361	-2.4307204712	-0.252457
H	 0.7764042983	 2.0431772574	 0.2298468403	 0.117863
H	-0.7140751489	 1.9553005088	-0.723850646	 0.106041
H	-0.7682481336	 1.7665806143	 1.0331144766	 0.111004
H	 0.5503383098	-0.3565709913	 0.8485637704	 0.089383
H	-1.9864938123	-0.359886261	-0.8834334204	 0.10824
H	-1.2773570767	-1.7746891201	-0.0926501821	 0.108994
H	-1.9507313762	-0.4589331342	 0.8815353637	 0.109129
H	 0.7710089471	-1.4560539609	-1.4007294792	 0.097123
H	 0.3039121772	 0.0597999859	-2.1624262532	 0.086196
H	 2.3156452124	 1.1757952368	-1.1945744145	 0.093702
H	 3.1365398377	-1.3302895581	-0.2896817996	 0.288486
H	 2.471071534	-0.1531885458	-3.4488348296	 0.095516
H	 4.9670353858	-0.5322698774	-3.4763682277	 0.118766
H	 5.0038971347	-0.3937077591	-1.6352471586	 0.129335
43.286	75.4183	111.7017	148.1811	224.3888	242.0316	252.4434	276.5919	323.3026	372.9016	416.9067	432.1629	484.8075	544.384	658.6673	787.2845	822.9426	849.7446	893.3041	927.6936	933.5798	963.1511	966.891	1001.1951	1026.9593	1095.2258	1111.8374	1136.8276	1156.5981	1167.2032	1172.5632	1193.9365	1241.7742	1271.346	1287.0285	1315.6958	1352.7686	1378.7438	1390.2601	1400.9428	1418.371	1421.9425	1441.4427	1476.7547	1488.1543	1495.5709	1505.4259	1511.5715	1514.9993	3000.3181	3020.5585	3023.7833	3030.9661	3039.3851	3053.0103	3084.7384	3092.6223	3097.9083	3099.0306	3104.6588	3110.5605	3195.6776	3744.9147
CC(C)CC(O)C1CO1	CC(C)C[C@@H](O)[C@H]1CO1	
InChI=1S/C7H14O2/c1-5(2)3-6(8)7-4-9-7/h5-8H,3-4H2,1-2H3	InChI=1S/C7H14O2/c1-5(2)3-6(8)7-4-9-7/h5-8H,3-4H2,1-2H3/t6-,7-/m1/s1
