17
gdb 13121	3.59541	1.50375	1.12386	1.9151	65.84	-0.2529	0.0213	0.2742	1044.4146	0.141901	-400.979918	-400.971673	-400.970729	-401.013292	29.009	
C	 0.2832504279	 0.7633875224	 0.503297865	-0.25605
O	-0.2935847331	 0.3510028478	-0.7262906802	-0.233413
C	 0.5397867215	-0.4388187578	-1.5333486976	-0.087054
C	 0.5690314706	-1.9233529228	-1.1392588592	-0.146134
C	 1.296593641	-2.8818569549	-2.1087899241	-0.104133
O	 2.2143771099	-3.2786193902	-1.0437539014	-0.248957
C	 1.6103570107	-2.4214933348	-0.1488725518	 0.43746
N	 1.8828107233	-2.1825518961	 1.0517995296	-0.540301
H	 0.527789823	-0.0829497968	 1.1552070243	 0.155355
H	 1.2018936665	 1.3456377807	 0.3320326308	 0.101108
H	-0.4539655879	 1.405316792	 0.9914858432	 0.121602
H	 0.1264331892	-0.373233513	-2.5473781562	 0.109416
H	 1.5660129121	-0.0374191039	-1.5655645265	 0.094299
H	-0.4448245821	-2.2389040421	-0.8804876058	 0.120101
H	 0.725785227	-3.7373882138	-2.4761387912	 0.125611
H	 1.8388187489	-2.4056704648	-2.9311942317	 0.120978
H	 2.6817892214	-2.7319861317	 1.3723082629	 0.23011
61.4009	105.0509	138.0492	193.5556	203.4111	288.8275	357.6074	456.2363	461.7761	656.0667	750.0327	804.6062	860.5312	896.7127	947.3426	970.4144	1012.1376	1047.6025	1074.8845	1124.723	1151.1031	1162.9385	1185.7318	1219.461	1233.975	1250.7636	1286.9401	1341.1437	1376.2793	1407.073	1476.472	1489.5183	1501.1384	1516.8433	1517.2206	1818.2716	2972.2181	2986.7318	3049.1375	3056.8068	3068.7944	3089.7	3118.8608	3121.5331	3477.7331
COCC1COC1=N	COC[C@H]1CO[C]1[NH]	
InChI=1S/C5H9NO2/c1-7-2-4-3-8-5(4)6/h4,6H,2-3H2,1H3	InChI=1S/C5H9NO2/c1-7-2-4-3-8-5(4)6/h4,6H,2-3H2,1H3/t4-/m0/s1
