18
gdb 90751	3.21791	1.41225	1.12225	4.7783	72.42	-0.2316	0.0106	0.2423	1102.9031	0.149039	-439.103427	-439.095658	-439.094714	-439.135897	29.345	
C	-0.0256815938	 1.5336525328	 0.0183078752	-0.328371
N	-0.0481213087	 0.0910539882	 0.100189696	-0.070335
C	-1.3036671707	-0.5829562384	 0.4900844154	-0.174523
C	-0.4607788561	-1.5815269926	 1.3194241025	-0.211132
C	 0.700755204	-0.5802613791	 1.1827937886	-0.004983
C	 1.8896612048	-1.4147401301	 0.7077661419	-0.08574
O	 1.3345755167	-2.6377131886	 0.1975909039	-0.221801
C	 0.0203474349	-2.7888608404	 0.5254595014	 0.450392
O	-0.6105239571	-3.7537520934	 0.2046609037	-0.345912
H	 0.9910332053	 1.8793143736	-0.1963593535	 0.124007
H	-0.6700648529	 1.8665975036	-0.8017174289	 0.130224
H	-0.3690660965	 2.0288968804	 0.9464780578	 0.093869
H	-1.9481760949	 0.0332805772	 1.1361505748	 0.093722
H	-1.898199299	-0.9835671213	-0.3366651104	 0.126668
H	-0.8381524566	-1.8782514789	 2.2963546399	 0.113105
H	 0.9265760546	 0.0547871439	 2.0488411663	 0.072514
H	 2.4424065039	-0.9289926943	-0.1004282763	 0.12596
H	 2.577786812	-1.6591990523	 1.5252850619	 0.112336
87.311	151.4562	211.2495	217.5979	292.8445	298.0956	409.171	484.7836	599.8939	681.8737	726.8821	761.8118	795.9959	859.4543	890.7297	972.5602	990.8946	999.1296	1054.3712	1060.1124	1081.4769	1121.4618	1166.9083	1175.2314	1183.4707	1216.2231	1232.9104	1257.6996	1266.6015	1292.2567	1325.2646	1357.5207	1398.5528	1454.1658	1487.9489	1499.7021	1503.826	1522.9485	1877.7395	2927.8662	2982.3176	3022.0664	3042.1353	3059.9243	3076.0036	3101.9372	3104.0688	3135.9131
CN1CC2C1COC2=O	CN1C[C@@H]2[C@H]1COC2=O	
InChI=1S/C6H9NO2/c1-7-2-4-5(7)3-9-6(4)8/h4-5H,2-3H2,1H3	InChI=1S/C6H9NO2/c1-7-2-4-5(7)3-9-6(4)8/h4-5H,2-3H2,1H3/t4-,5-/m1/s1
