18
gdb 70406	2.5889	1.45347	1.28997	2.7394	73.04	-0.227	-0.0268	0.2002	1059.4358	0.145242	-439.040175	-439.031223	-439.030278	-439.07351	33.861	
C	-0.0855258254	 1.6223771251	-0.0090261384	-0.452177
C	 0.0517525032	 0.1144269376	 0.0180168077	 0.144916
N	 1.1625386184	-0.4732919278	-0.8406189574	-0.362831
C	 1.6153647878	-1.2997847949	 0.2981574788	-0.064416
C	 2.1488486679	-0.3617656798	 1.3477383552	-0.347046
C	 0.66404503	-0.5983340961	 1.2451517355	 0.329236
O	-0.1036897832	-1.1009991044	 2.2784320361	-0.453382
C	-1.2386721382	-0.6041205223	-0.3394429124	 0.140534
O	-2.2734478277	-0.0607290214	-0.6263702301	-0.259821
H	 0.8707945892	 2.1005378005	 0.2139605389	 0.117324
H	-0.4240398826	 1.9626232219	-0.9912050627	 0.134279
H	-0.8298360483	 1.9469963526	 0.7244885539	 0.125571
H	 0.7813823688	-1.0417916633	-1.5944514004	 0.225721
H	 1.915467813	-2.3343753037	 0.1944601646	 0.109544
H	 2.5925664757	-0.8595380851	 2.2048665797	 0.120118
H	 2.611233425	 0.5759763827	 1.0529704902	 0.119475
H	-0.0684112945	-0.482908151	 3.0174007391	 0.292797
H	-1.1384693091	-1.7133975907	-0.3539455782	 0.08016
80.4066	145.3105	172.9131	214.9934	259.8422	277.6057	290.6529	386.4471	413.5392	472.2144	481.7546	541.0501	646.9788	731.7566	784.7523	814.0245	863.4773	913.4335	932.8926	972.2442	976.1794	1009.1242	1026.7705	1055.2635	1085.2749	1127.942	1180.0838	1188.7916	1250.9531	1284.5774	1320.4024	1360.0383	1400.9492	1410.4147	1429.7842	1480.0447	1483.1543	1491.8737	1825.8909	2876.6324	3049.7334	3114.5601	3119.81	3132.0361	3200.6983	3211.4435	3478.7818	3786.5505
CC1(NC2CC12O)C=O	C[C@]1(N[C@H]2C[C@@]12O)C=O	
InChI=1S/C6H9NO2/c1-5(3-8)6(9)2-4(6)7-5/h3-4,7,9H,2H2,1H3	InChI=1S/C6H9NO2/c1-5(3-8)6(9)2-4(6)7-5/h3-4,7,9H,2H2,1H3/t4-,5-,6-/m0/s1
