19
gdb 66433	2.57606	1.67545	1.3456	1.4166	79.72	-0.2078	0.0683	0.2761	1047.2539	0.156767	-385.786598	-385.777942	-385.776998	-385.819176	33.763	
C	 0.0129780849	 1.5198879636	 0.0055366105	-0.5246
C	-0.0197101599	 0.0265695072	 0.0074701493	 0.269009
C	 0.8187947356	-0.9816076987	-0.7691217349	-0.135505
C	 0.8471438481	-0.9826175376	 0.7549889041	-0.214494
C	-0.3247764065	-2.0147090142	 0.7882158815	 0.262454
C	-0.6834288173	-3.1064379722	 1.7412940624	-0.531761
C	-0.3533335627	-2.0020801496	-0.7517955214	-0.202066
C	-1.1998906444	-1.0214883529	 0.0292952048	 0.267324
O	-2.5643280865	-0.8870716048	-0.0327827067	-0.447998
H	 1.0471506555	 1.8810818042	-0.0259062285	 0.121896
H	-0.5094857649	 1.9324428782	-0.8652067752	 0.126339
H	-0.4541725038	 1.9394116927	 0.9048940821	 0.113783
H	 1.6165616926	-0.8024970328	-1.4795498055	 0.080048
H	 1.6679232274	-0.796363545	 1.4377897086	 0.07793
H	-0.8261414212	-2.7245131875	 2.7601156059	 0.114066
H	-1.6177373254	-3.5891532799	 1.4338665563	 0.126391
H	 0.0918972128	-3.8804828918	 1.7845839342	 0.123353
H	-0.6615516829	-2.7859615476	-1.4310094974	 0.086169
H	-2.8866505614	-0.625196981	 0.8376953199	 0.28766
162.6711	168.6161	188.9769	195.5218	198.2507	293.8017	327.4228	365.2213	429.7076	534.7635	628.3111	646.5323	690.7153	772.4425	788.5284	842.5912	847.5346	862.3915	872.6789	903.3063	916.4222	973.7052	1007.8246	1040.6199	1094.4779	1100.5763	1132.3061	1152.8514	1194.9722	1226.8159	1232.5047	1288.6636	1370.5943	1402.9417	1412.4668	1429.635	1464.7715	1480.7379	1483.2588	1497.9928	1502.163	3013.3896	3016.691	3068.3667	3074.5628	3087.8749	3089.4601	3172.5531	3184.9388	3203.5103	3775.051
CC12C3C1C1(C)C3C21O	C[C@@]12[C@H]3[C@@H]1[C@]1(C)[C@H]3[C@]21O	
InChI=1S/C8H10O/c1-6-3-4(6)7(2)5(3)8(6,7)9/h3-5,9H,1-2H3	InChI=1S/C8H10O/c1-6-3-4(6)7(2)5(3)8(6,7)9/h3-5,9H,1-2H3/t3-,4-,5-,6+,7+,8-/m0/s1
