15
gdb 46446	3.80343	1.19168	1.07505	2.8011	72.86	-0.2457	-0.0398	0.2059	1114.5056	0.111299	-420.600181	-420.592409	-420.591464	-420.632535	29.652	
O	-0.0013269037	-0.0094644626	 0.0810551084	-0.308972
C	-0.0303014881	 1.1899199711	-0.0077611362	 0.421542
C	-1.2748203748	 2.0825811142	-0.0872571951	-0.34799
C	-0.8283867241	 3.3401283304	-0.8646151374	-0.307245
C	 0.6890920276	 3.3918824211	-0.6813525045	 0.249072
O	 1.0642137399	 3.2503119774	 0.6962001563	-0.281849
C	 1.1729271053	 2.0914032766	-0.1453739246	-0.148388
C	 1.4925885895	 4.2538132499	-1.4979914972	 0.188169
C	 2.1213666695	 4.9948410078	-2.2048694849	-0.333041
H	-2.0953594417	 1.5399836285	-0.559076176	 0.136505
H	-1.5838408672	 2.3324665586	 0.9326482731	 0.150098
H	-1.0537961141	 3.2460442605	-1.931195193	 0.12894
H	-1.2942006952	 4.2613888324	-0.5057791096	 0.128648
H	 2.1688047323	 1.6947489332	-0.312460986	 0.124701
H	 2.6904090748	 5.6457221808	-2.8222230333	 0.19981
95.8226	144.7485	148.3513	267.6309	370.0713	419.7125	485.8832	528.095	539.5187	571.2174	631.7856	650.964	678.5983	701.6519	800.7027	817.1627	875.2293	948.021	987.6685	1023.1745	1065.5251	1145.3624	1170.7426	1208.5978	1221.0905	1258.0265	1287.3721	1322.752	1399.2802	1452.5389	1489.0317	1848.4913	2244.266	3062.9902	3067.7487	3108.1303	3131.0802	3185.4011	3500.3865
O=C1CCC2(OC12)C#C	O=C1CC[C@]2(O[C@@H]12)C#C	
InChI=1S/C7H6O2/c1-2-7-4-3-5(8)6(7)9-7/h1,6H,3-4H2	InChI=1S/C7H6O2/c1-2-7-4-3-5(8)6(7)9-7/h1,6H,3-4H2/t6-,7+/m0/s1
