17
gdb 120250	3.06279	1.02938	0.85966	2.6236	68.46	-0.2464	-0.0355	0.211	1329.1244	0.134163	-458.923459	-458.914716	-458.913772	-458.957738	31.454	
O	 0.1005125313	 1.4243236755	 0.1059583156	-0.41689
C	 0.0288726511	 0.0191500142	-0.071664451	-0.067145
C	-1.3761504866	-0.5296072502	 0.202685138	-0.22914
C	-1.4510211989	-2.0464859161	 0.0558349734	-0.16105
C	-2.8321732243	-2.7277973441	 0.0648656554	 0.015142
O	-3.5398331895	-2.2254708981	-1.0622853908	-0.232246
C	-2.6474702142	-3.3461413329	-1.2712178703	-0.110127
C	-1.2628619269	-2.7061452164	-1.3538917519	 0.417092
O	-0.3487678667	-2.7719143773	-2.1199573704	-0.30069
H	-0.4232494678	 1.8354542251	-0.5889701338	 0.282862
H	 0.3634645211	-0.283230513	-1.0743268536	 0.115797
H	 0.7413804944	-0.4058232239	 0.6446555728	 0.109664
H	-1.6758316191	-0.236116013	 1.2159944829	 0.110341
H	-2.0926370628	-0.0727391578	-0.4902451194	 0.108502
H	-0.7526904486	-2.5478469043	 0.740251107	 0.107776
H	-3.4064443018	-3.1051454047	 0.9020954445	 0.122148
H	-3.0610209507	-4.241741923	-1.7184709883	 0.127964
76.3592	87.7577	102.6592	173.1305	228.3703	287.3675	303.6067	396.5278	472.6552	553.7436	651.8241	749.0648	759.1064	812.6035	849.7427	867.4341	912.4566	955.274	1016.3304	1030.5079	1051.3383	1071.7649	1083.1622	1112.4526	1153.3617	1199.7458	1212.9943	1254.3786	1286.8709	1310.1302	1347.9612	1361.0338	1403.8907	1423.9694	1491.8517	1516.2792	1895.8238	3007.5217	3026.6169	3031.9309	3057.2073	3083.5566	3194.9387	3208.166	3817.2751
OCCC1C2OC2C1=O	OCC[C@H]1[C@H]2O[C@H]2C1=O	
InChI=1S/C6H8O3/c7-2-1-3-4(8)6-5(3)9-6/h3,5-7H,1-2H2	InChI=1S/C6H8O3/c7-2-1-3-4(8)6-5(3)9-6/h3,5-7H,1-2H2/t3-,5-,6+/m1/s1
