23
gdb 110904	2.66476	1.44625	1.17022	0.9319	85.53	-0.2402	0.084	0.3242	1178.4329	0.207144	-388.273643	-388.264889	-388.263944	-388.306816	34.276	
C	 0.0846852863	 1.3708216553	 0.0960865689	-0.242338
O	 0.0302593453	-0.0351567399	 0.0317615187	-0.245803
C	 0.6070853334	-0.5943167074	-1.1341272667	 0.138761
C	 1.1045561701	-2.0154748852	-0.8334129063	-0.039034
C	 1.2967282326	-2.5986656437	-2.2620734679	-0.24169
C	-0.2513601458	-2.4560600276	-2.3094775021	-0.014269
C	-0.2249689906	-2.8221905177	-0.7957976558	-0.225955
C	-0.417607616	-0.9186026727	-2.2977357427	-0.003564
C	-1.8471377286	-0.4251535556	-2.081839701	-0.411587
H	 1.121954676	 1.7380215189	 0.0473505477	 0.10389
H	-0.486908449	 1.8543367224	-0.7094329433	 0.105588
H	-0.3475567533	 1.6680290765	 1.0552320196	 0.124264
H	 1.4233291212	 0.054554628	-1.4817309145	 0.055775
H	 1.8634891469	-2.1032868114	-0.0557905328	 0.058528
H	 1.889727222	-2.0267240517	-2.9838318009	 0.083705
H	 1.6307502635	-3.638584187	-2.2419932323	 0.095239
H	-0.8613645351	-3.0095359031	-3.0253850403	 0.05357
H	-0.0552344778	-3.8888620138	-0.6318920603	 0.091894
H	-1.0246001088	-2.4625111341	-0.146056054	 0.105698
H	-0.0443072723	-0.5065633979	-3.2429190761	 0.06236
H	-2.2434855366	-0.7306066976	-1.1109224861	 0.128166
H	-1.9084283068	 0.6666247655	-2.1321895317	 0.110048
H	-2.5054423265	-0.82372183	-2.8615921201	 0.106757
103.8466	119.0404	164.2412	208.8116	253.6667	262.81	352.7371	386.5442	470.3884	505.5801	551.3383	689.775	787.5578	806.5417	844.7367	858.3619	884.0197	918.4622	956.8625	989.4684	995.2567	1030.7825	1037.9573	1061.4031	1078.572	1107.9149	1114.1759	1119.3638	1149.8106	1161.6811	1183.2004	1221.51	1226.1651	1229.8551	1248.996	1266.0193	1297.4286	1322.4595	1334.859	1369.1261	1394.8668	1414.9134	1481.1662	1484.0936	1488.6413	1497.019	1500.6036	1512.3243	1524.8151	2975.0136	2994.7866	3024.856	3027.0751	3038.809	3042.8788	3069.5846	3094.2794	3098.7126	3108.4735	3109.3249	3115.9402	3124.9189	3131.0889
COC1C2CC(C2)C1C	CO[C@H]1[C@@H]2C[C@@H](C2)[C@H]1C	
InChI=1S/C8H14O/c1-5-6-3-7(4-6)8(5)9-2/h5-8H,3-4H2,1-2H3	InChI=1S/C8H14O/c1-5-6-3-7(4-6)8(5)9-2/h5-8H,3-4H2,1-2H3/t5-,6-,7+,8-/m1/s1
