18
gdb 13320	4.69747	1.29912	1.16939	4.4213	71.26	-0.2353	0.0224	0.2577	1052.6775	0.155972	-343.992694	-343.98487	-343.983926	-344.025665	28.373	
N	-0.3142269621	-1.0786966424	 0.1049828947	-0.308248
C	-0.1286764542	 0.0526747031	 0.2457942894	 0.280497
C	 0.102000338	 1.4872809436	 0.4536118752	-0.290968
N	 1.3783924821	 1.91296229	-0.1189489941	-0.068076
C	 2.5442188854	 1.3784196701	 0.6054647871	-0.180472
C	 2.7985678451	 2.3281227391	 1.807547218	-0.212929
C	 2.1510790812	 3.6717892068	 1.373571607	-0.21366
C	 1.5626954683	 3.3701062629	-0.0328568841	-0.170235
H	-0.704017783	 2.0323964318	-0.0495544795	 0.153957
H	-0.0091541187	 1.6862200434	 1.5357554591	 0.129798
H	 2.3799547688	 0.3367017114	 0.8895483406	 0.125933
H	 3.3993495164	 1.399497938	-0.0792850342	 0.111965
H	 2.328849896	 1.944067621	 2.7174582917	 0.107702
H	 3.8659590924	 2.4252099995	 2.0195856448	 0.107327
H	 1.3660524884	 3.9729670048	 2.0729417224	 0.105064
H	 2.8722717647	 4.4918422466	 1.3348567375	 0.107375
H	 2.2790901289	 3.6614497755	-0.8092692823	 0.112148
H	 0.6259589823	 3.8940538147	-0.2398554432	 0.102823
63.3193	78.1189	137.6002	184.263	363.6401	379.9218	393.9849	526.8251	641.4397	658.5941	785.1201	843.8311	861.3762	891.4083	917.8011	937.4274	953.409	1001.8985	1025.1139	1076.3464	1096.7733	1147.0505	1205.4112	1226.0496	1255.6893	1280.1256	1283.8969	1315.5747	1344.7741	1356.2322	1364.784	1393.4583	1475.912	1491.1977	1497.6231	1503.5732	1519.9631	2365.7318	2933.7547	3037.3597	3043.6366	3055.0413	3065.5699	3066.9475	3088.9623	3099.6228	3109.5563	3118.1687
N#CCN1CCCC1	N#CCN1CCCC1	
InChI=1S/C6H10N2/c7-3-6-8-4-1-2-5-8/h1-2,4-6H2	InChI=1S/C6H10N2/c7-3-6-8-4-1-2-5-8/h1-2,4-6H2
