21
gdb 115572	2.50276	1.11605	1.06473	2.6595	80.07	-0.2419	-0.0197	0.2222	1293.6442	0.179647	-424.219886	-424.209725	-424.208781	-424.255458	36.254	
C	-0.4131253746	 1.5286312593	-0.0394262232	-0.242069
O	-0.4015881513	 0.2564494035	 0.5731984345	-0.239032
C	-1.2967108987	-0.6474378653	-0.0070158769	 0.115532
C	-0.9366187008	-1.3180243124	-1.3617881634	-0.263191
C	-1.3751221612	-2.6816789142	-0.7630753914	-0.272015
C	-1.3088656108	-2.0702550965	 0.6627240814	 0.184345
C	-0.0284369749	-2.3814789685	 1.4406738773	-0.452834
C	-2.5214890208	-2.2766787073	 1.537036889	 0.100913
O	-3.5161436396	-2.8789003585	 1.2187749006	-0.257557
H	 0.2976008751	 2.1558512478	 0.5033710915	 0.130638
H	-0.1087581276	 1.478990818	-1.0950199198	 0.11296
H	-1.4106252496	 1.9920061119	 0.0114625043	 0.109287
H	-2.3104946756	-0.2160505898	-0.0384035747	 0.073137
H	-1.4593068621	-0.9637964056	-2.2527158581	 0.102042
H	 0.1414521145	-1.2697696852	-1.5375146272	 0.110627
H	-2.3986649881	-2.9594402964	-1.0212122005	 0.127488
H	-0.7193265306	-3.5345787243	-0.9486199431	 0.103759
H	 0.8582501145	-2.1487129254	 0.8465641052	 0.12955
H	 0.0300500167	-1.7900962221	 2.3592625032	 0.130077
H	 0.0050368225	-3.4432776587	 1.7069641567	 0.120435
H	-2.447603237	-1.78670707	 2.5368967546	 0.075909
56.7384	86.0236	97.3918	175.8263	196.1065	207.4146	224.4639	282.848	308.635	335.5177	438.1338	467.8225	555.2502	687.1048	749.8668	812.8306	892.6124	907.8784	942.9278	958.5991	975.1298	1010.8463	1040.1591	1117.6654	1149.1959	1162.1043	1183.7253	1188.6611	1225.071	1233.8278	1247.3169	1264.277	1276.0197	1317.1663	1385.0183	1407.7691	1423.5895	1478.6079	1481.5849	1487.3834	1492.0294	1492.4412	1499.7424	1509.4537	1821.2882	2852.3736	2965.0059	2980.4062	3030.128	3038.2781	3062.3493	3075.6161	3107.2784	3113.9278	3118.721	3123.3941	3134.4889
COC1CCC1(C)C=O	CO[C@H]1CC[C@]1(C)C=O	
InChI=1S/C7H12O2/c1-7(5-8)4-3-6(7)9-2/h5-6H,3-4H2,1-2H3	InChI=1S/C7H12O2/c1-7(5-8)4-3-6(7)9-2/h5-6H,3-4H2,1-2H3/t6-,7+/m0/s1
