16
gdb 61703	2.32431	1.39528	1.11657	5.0607	73.31	-0.251	-0.0306	0.2203	1126.7885	0.120137	-437.879283	-437.869456	-437.868512	-437.913892	34.904	
C	-0.1151586576	 1.5500369899	-0.2148958911	-0.413888
C	 0.0683152106	 0.0366560146	-0.0113264138	 0.007626
N	 0.7954929516	-0.2824168775	 1.224375513	-0.307381
C	 0.2152335212	-0.1638700556	 2.4453247987	 0.154483
O	-0.9462396103	 0.146217114	 2.6190769542	-0.319589
C	-1.318797559	-0.6770417677	 0.0322995195	 0.175999
O	-2.3043630209	-0.2275739842	-0.475061302	-0.243499
C	 0.7912026586	-0.5775510271	-1.1263732004	 0.290416
C	 1.3685231369	-1.0951358549	-2.0445135194	-0.437802
H	 0.8561184676	 2.0351428836	-0.3336470693	 0.118205
H	-0.7214337336	 1.7271302436	-1.1042212212	 0.150902
H	-0.6335769192	 1.966108453	 0.6508068537	 0.155479
H	 1.7714349475	-0.5236591007	 1.1548097782	 0.260789
H	 0.9157863646	-0.3905613719	 3.2711498509	 0.096685
H	-1.2796413748	-1.6753647055	 0.5127367317	 0.100341
H	 1.8763026268	-1.5427431636	-2.8635981229	 0.211234
73.3883	118.3806	133.761	174.9868	201.4832	215.785	243.7279	273.3797	379.1312	399.717	458.1295	510.4397	548.2498	585.92	637.1373	666.2196	731.9361	818.3442	915.1618	972.2484	1002.5681	1029.9649	1129.6564	1155.5381	1195.7031	1223.9922	1387.8316	1404.1778	1415.9834	1475.7392	1492.2942	1502.4469	1786.2846	1848.871	2233.9798	2932.145	2958.2877	3062.9284	3146.4544	3157.608	3497.5123	3636.4416
CC(NC=O)(C=O)C#C	C[C@@](NC=O)(C=O)C#C	
InChI=1S/C6H7NO2/c1-3-6(2,4-8)7-5-9/h1,4-5H,2H3,(H,7,9)	InChI=1S/C6H7NO2/c1-3-6(2,4-8)7-5-9/h1,4-5H,2H3,(H,7,9)/t6-/m0/s1
