19
gdb 110046	2.38943	1.4512	1.05129	4.8867	71.1	-0.2462	-0.0249	0.2214	1168.9692	0.159199	-460.191301	-460.182459	-460.181515	-460.224931	33.435	
O	-0.1195863778	 1.507781214	-0.2164830813	-0.430812
C	 0.0374938104	 0.1039758092	-0.1898214974	-0.08117
C	-1.3069304578	-0.597091546	 0.0519871793	-0.114051
C	-1.34265351	-2.1288741955	 0.0030541668	 0.076885
O	-0.1944706155	-2.5889728591	 0.7110730716	-0.43401
C	-2.6439609434	-2.4835400683	 0.7581179869	-0.249291
C	-2.6780176602	-1.4899820535	 1.9321007298	-0.307309
C	-1.9061783612	-0.2714237686	 1.4228688819	 0.421014
O	-1.7707633743	 0.7768112319	 2.0111121259	-0.341787
H	-0.5252115799	 1.7435245049	 0.6296923571	 0.294102
H	 0.4426320768	-0.1929589537	-1.1630593004	 0.102988
H	 0.7561485364	-0.2169177604	 0.5759951648	 0.108201
H	-2.0220489539	-0.2143693463	-0.6914154218	 0.11216
H	-1.3423320982	-2.5113318392	-1.0262517278	 0.071704
H	-0.2144238597	-3.5510230901	 0.725791656	 0.287301
H	-3.5032010379	-2.3328746408	 0.0947842372	 0.109538
H	-2.6567374205	-3.5310101973	 1.0739897377	 0.097539
H	-3.677782676	-1.2077998183	 2.2704415709	 0.131437
H	-2.1381849974	-1.8764999827	 2.8031921028	 0.145559
68.1017	141.2736	157.495	184.8278	242.5887	307.8657	345.1172	414.869	446.4601	471.0233	555.2327	574.6244	633.7079	702.8118	780.2962	809.878	880.7669	945.2393	958.1013	995.7458	1017.7772	1039.6694	1077.0719	1106.504	1155.2399	1172.8892	1196.0096	1201.0708	1215.2372	1278.7927	1292.0485	1311.3069	1328.5519	1364.9212	1385.1321	1424.3247	1441.897	1455.2413	1488.1273	1512.543	1819.2975	3006.2087	3014.8777	3020.853	3046.3117	3060.3477	3071.539	3088.775	3113.6568	3739.2374	3818.9648
OCC1C(O)CCC1=O	OC[C@H]1[C@@H](O)CCC1=O	
InChI=1S/C6H10O3/c7-3-4-5(8)1-2-6(4)9/h4-5,7-8H,1-3H2	InChI=1S/C6H10O3/c7-3-4-5(8)1-2-6(4)9/h4-5,7-8H,1-3H2/t4-,5-/m0/s1
