20
gdb 60155	4.23806	0.7345	0.72766	4.4314	76.81	-0.245	0.0366	0.2815	1624.7514	0.169644	-440.312098	-440.302381	-440.301437	-440.347387	35.71	
C	-0.009001122	 1.5975897351	 0.073211099	-0.403979
C	-0.0457873679	 0.0760504921	-0.06011873	 0.133335
O	 0.8900381672	-0.5473436943	 0.8191885175	-0.429216
C	-1.4590985314	-0.4934429861	 0.1305084306	-0.215187
C	-1.5225353673	-2.0094242683	-0.0099146581	 0.070342
C	-2.9343373556	-2.6619893367	-0.097007273	-0.416131
C	-2.4831520187	-3.1930730466	-1.4800529474	 0.429975
O	-2.9412930159	-3.9130183838	-2.3251347648	-0.357426
N	-1.2850165254	-2.5234901275	-1.3724233136	-0.330043
H	 1.0122148181	 1.9657010542	-0.0563696921	 0.127404
H	-0.6500512561	 2.0771583679	-0.6732665064	 0.121856
H	-0.3634446922	 1.9085249562	 1.0642697257	 0.107993
H	 0.3050749049	-0.1987825035	-1.0631063991	 0.089026
H	 0.6935052397	-0.2494069368	 1.7146323405	 0.277802
H	-1.825363719	-0.2164793906	 1.1299932127	 0.090199
H	-2.1365916281	-0.0316182634	-0.5985044109	 0.101467
H	-0.870063354	-2.4798412511	 0.7317973709	 0.094154
H	-3.1398030614	-3.4482024631	 0.6313939038	 0.131389
H	-3.772164561	-1.9624350952	-0.1296454957	 0.126334
H	-0.4306977238	-2.6368320886	-1.8988511595	 0.250707
53.0464	65.883	114.8533	156.3564	245.0253	284.8771	306.7846	321.8526	401.151	439.1688	465.4036	486.5757	536.7113	567.536	729.9	821.6058	836.7459	887.0446	934.5703	953.0092	971.2084	1015.496	1066.3393	1078.1188	1081.2756	1142.4742	1154.1459	1182.9576	1192.8925	1221.9154	1266.7499	1315.6513	1328.8102	1373.2292	1391.2912	1402.1442	1408.6462	1421.8916	1459.0098	1467.4341	1492.382	1495.5619	1895.4764	3004.7092	3023.5007	3033.9661	3054.8763	3072.3015	3082.9956	3096.0989	3120.5099	3141.7849	3605.0983	3796.1728
CC(O)CC1CC(=O)N1	C[C@@H](O)C[C@H]1CC(=O)N1	
InChI=1S/C6H11NO2/c1-4(8)2-5-3-6(9)7-5/h4-5,8H,2-3H2,1H3,(H,7,9)	InChI=1S/C6H11NO2/c1-4(8)2-5-3-6(9)7-5/h4-5,8H,2-3H2,1H3,(H,7,9)/t4-,5+/m1/s1
