18
gdb 117897	3.68435	0.75774	0.67514	4.4756	73.9	-0.2781	-0.0852	0.1929	1623.694	0.144584	-439.101126	-439.090598	-439.089654	-439.138021	35.77	
C	-0.0793850131	 1.4416571651	-0.2459448048	-0.417645
C	 0.0169682271	-0.0740731547	 0.0413066925	-0.111278
C	 0.7900094401	-0.420020541	 1.3190404036	-0.175934
C	 2.2718263822	-0.0660772901	 1.2501771977	-0.092328
O	 2.8683514391	-0.5428306002	 2.4443122644	-0.416006
C	-1.3802593367	-0.6682105384	 0.0886028229	 0.292029
O	-1.8840353387	-1.2114857472	 1.0375080442	-0.267466
C	-2.1510699687	-0.5431953688	-1.1749559462	 0.238719
N	-2.7420121852	-0.4545287555	-2.1650467671	-0.305776
H	 0.9138794429	 1.8585311726	-0.4257630237	 0.137746
H	-0.6884040625	 1.6450747313	-1.1311021509	 0.149005
H	-0.5223713494	 1.9680311088	 0.6055011014	 0.138042
H	 0.5054873425	-0.5421116427	-0.8276732431	 0.114792
H	 0.336832648	 0.0878406196	 2.1768698459	 0.122981
H	 0.7053352269	-1.4923976617	 1.5197750281	 0.127416
H	 2.7253597332	-0.5354968632	 0.3604571753	 0.086425
H	 2.4062139286	 1.0217192211	 1.1484378135	 0.090174
H	 3.7980030235	-0.2971389051	 2.4381896363	 0.289102
38.7621	59.6243	96.0374	111.1913	181.4614	197.9489	250.4397	262.3822	290.3865	339.4546	365.6885	389.661	523.0191	617.1284	720.5178	774.9352	798.2558	886.8932	971.1912	1011.3534	1047.9223	1069.3574	1096.7934	1123.5948	1183.878	1243.0948	1244.092	1302.9452	1310.3926	1322.2451	1382.3641	1411.0129	1465.4837	1484.9093	1500.6159	1504.5868	1527.9174	1798.3612	2334.9452	2955.1557	2992.5469	2994.1969	3045.8169	3057.0632	3100.752	3118.5985	3128.8445	3831.3427
CC(CCO)C(=O)C#N	C[C@@H](CCO)C(=O)C#N	
InChI=1S/C6H9NO2/c1-5(2-3-8)6(9)4-7/h5,8H,2-3H2,1H3	InChI=1S/C6H9NO2/c1-5(2-3-8)6(9)4-7/h5,8H,2-3H2,1H3/t5-/m0/s1
