18
gdb 77256	2.24161	1.15661	0.92003	3.1307	79.31	-0.2369	-0.0219	0.215	1322.198	0.143583	-401.888635	-401.878755	-401.877811	-401.92442	35.052	
C	-0.1494437158	 1.4486176594	 0.6622283445	-0.42134
C	 0.1116727617	 0.0166986164	 0.2565664348	 0.008272
C	 0.3287675756	-0.3823030879	-1.1813341517	-0.216764
C	 0.3474594131	 0.6089480844	-2.2197201101	 0.34541
C	 0.3789470546	 1.4186358655	-3.1095940473	-0.458693
N	 1.4164349551	-0.464833554	-0.1780051761	-0.122349
C	 2.5473235593	 0.4455213079	-0.2695323313	-0.237227
C	 3.7658431839	-0.2950256853	-0.8062844308	 0.15935
O	 4.7492415375	 0.2539114555	-1.2270412265	-0.240936
H	 0.2815339123	 1.6551287073	 1.6478363347	 0.12669
H	 0.2573872747	 2.1645202154	-0.0540104056	 0.138393
H	-1.2281947901	 1.6204547222	 0.7311724996	 0.130159
H	-0.4132929464	-0.7161871482	 0.8690779936	 0.100644
H	-0.0318212092	-1.3574104388	-1.5015567192	 0.119039
H	 0.4003132721	 2.1300603548	-3.8980983877	 0.206965
H	 2.3873960964	 1.3385107371	-0.8870801974	 0.137181
H	 2.8029520899	 0.7865297869	 0.7430776253	 0.135893
H	 3.6748804553	-1.4029973886	-0.7586721487	 0.089312
38.4492	70.8743	127.6502	152.9555	162.4018	178.7639	277.0259	341.9042	364.3564	482.262	510.8856	581.4612	597.0891	615.1957	667.8655	716.288	755.9238	815.4889	877.6927	979.3724	1033.8793	1042.9918	1052.5827	1109.0616	1133.0851	1160.2682	1179.0784	1256.7908	1324.9101	1340.7732	1364.3211	1400.3804	1407.7015	1421.5778	1447.6768	1488.7637	1498.5442	1840.4156	2229.0623	2893.2129	3014.7371	3041.852	3059.9705	3100.9046	3101.8592	3127.1697	3139.398	3500.7596
CC1C(C#C)N1CC=O	C[C@H]1[C@@H](C#C)N1CC=O	
InChI=1S/C7H9NO/c1-3-7-6(2)8(7)4-5-9/h1,5-7H,4H2,2H3	InChI=1S/C7H9NO/c1-3-7-6(2)8(7)4-5-9/h1,5-7H,4H2,2H3/t6-,7+,8?/m0/s1
