20
gdb 97948	4.62476	0.60797	0.56228	1.9631	85.58	-0.2185	0.0347	0.2532	1979.038	0.169977	-403.079666	-403.069716	-403.068772	-403.116738	34.738	
O	 0.3200949937	 0.7465592102	-0.8760958246	-0.402876
C	-0.0040659173	 0.1120940117	 0.3543353935	-0.193586
C	-1.3398214793	-0.481138324	 0.3756175044	 0.109274
C	-2.456891229	-0.9324291201	 0.3788435098	 0.021668
C	-3.8049784084	-1.4937948587	 0.3617141868	-0.314286
N	-3.8195297064	-2.8801598473	-0.0703464535	-0.057344
C	-3.4666033177	-3.1916587969	-1.4718710663	-0.151824
C	-4.565028369	-4.2822977416	-1.4627264271	-0.227298
C	-5.1318910444	-3.5385064332	-0.2296895523	-0.157454
H	-0.4022662844	 1.3470485847	-1.0872505894	 0.28611
H	 0.7549051862	-0.6653764446	 0.4961111733	 0.141013
H	 0.0963860089	 0.809156363	 1.202044283	 0.116822
H	-4.2365180121	-1.4460553246	 1.3706926896	 0.131332
H	-4.4478015451	-0.8545591381	-0.2797870601	 0.098899
H	-3.7077837942	-2.3711732638	-2.1683209807	 0.084445
H	-2.4271613386	-3.4924200232	-1.6294401046	 0.110835
H	-5.2063344315	-4.3533497165	-2.3412592957	 0.104633
H	-4.1746332597	-5.2703265066	-1.2134537209	 0.115591
H	-5.4617864039	-4.1259580608	 0.6335596351	 0.102802
H	-5.9363591278	-2.8363931697	-0.5092906406	 0.081246
23.3429	45.201	82.0909	134.3055	173.4295	230.1416	294.7628	328.0927	345.6637	351.1514	455.654	565.399	686.2992	772.5223	783.4189	850.1845	927.4143	935.5821	977.1508	987.1698	1003.7336	1042.7195	1096.1384	1128.8578	1140.5837	1156.6057	1206.0717	1213.4036	1215.9539	1223.4662	1262.3993	1269.4153	1296.6086	1342.2411	1357.4218	1390.9434	1419.1495	1474.0038	1487.4267	1491.5438	1504.1071	1532.6962	2361.9436	2876.0302	2952.5379	2966.9133	2973.634	3026.0683	3059.2864	3062.2192	3077.7632	3089.0922	3143.7732	3817.4088
OCC#CCN1CCC1	OCC#CCN1CCC1	
InChI=1S/C7H11NO/c9-7-2-1-4-8-5-3-6-8/h9H,3-7H2	InChI=1S/C7H11NO/c9-7-2-1-4-8-5-3-6-8/h9H,3-7H2
