15
gdb 67987	3.22968	1.6468	1.24607	2.1159	64.61	-0.2382	-0.0283	0.2099	953.667	0.111853	-457.710126	-457.703141	-457.702196	-457.741352	27.864	
O	-0.0529674223	 1.3750783841	 0.0530598012	-0.469823
C	 0.0336819539	-0.0028143469	 0.0463370979	 0.414771
C	 0.9531452724	-0.7084609026	 1.0405218809	-0.444653
C	 0.6096844072	-2.1679503776	 0.6946980497	 0.407856
O	 1.057762275	-3.1697101183	 1.1852086317	-0.314018
C	-0.4161026105	-2.0290325835	-0.400774923	-0.164414
C	-1.3081297372	-0.7805396874	-0.0842553942	 0.017901
O	-1.4113092985	-0.4505285102	-1.5087884455	-0.308519
C	-0.0083779991	-0.8186642601	-1.3043665176	-0.019099
H	 0.8366799067	 1.7430229941	 0.0318633053	 0.289735
H	 2.0177236391	-0.5040460099	 0.8776947376	 0.126275
H	 0.7186750802	-0.4768426831	 2.0845625674	 0.140393
H	-0.8700653165	-2.904260619	-0.8556836361	 0.107664
H	-2.2082343596	-0.7274494024	 0.5282625228	 0.1102
H	 0.6607086891	-0.8131340774	-2.1654248883	 0.105731
123.0953	232.3769	277.3705	320.7405	382.1814	401.4789	517.5221	593.2629	597.2935	676.6788	692.3418	717.3016	804.3557	844.3921	884.4755	902.9828	924.3152	1005.6852	1019.9293	1032.9377	1117.0252	1127.3696	1153.4484	1166.2489	1183.9154	1201.6282	1223.7517	1263.0086	1291.6306	1315.5792	1402.4595	1462.4786	1863.3943	3044.9353	3093.7761	3116.1475	3124.8077	3180.9505	3814.4083
OC12CC(=O)C3C1OC23	O[C@@]12CC(=O)[C@H]3[C@@H]1O[C@@H]23	
InChI=1S/C6H6O3/c7-2-1-6(8)4-3(2)5(6)9-4/h3-5,8H,1H2	InChI=1S/C6H6O3/c7-2-1-6(8)4-3(2)5(6)9-4/h3-5,8H,1H2/t3-,4-,5+,6-
