15
gdb 22639	5.16548	0.8862	0.80309	3.4978	78.07	-0.2419	-0.0508	0.1911	1351.1738	0.113105	-416.794851	-416.786754	-416.78581	-416.828204	29.717	
O	-0.0833464125	 1.3638733764	 0.2077523168	-0.390926
N	 0.0448769604	-0.0289201231	 0.1164856605	-0.222882
C	-1.0913349763	-0.5985933045	-0.0121463233	 0.372991
C	-1.2092496074	-2.1076326577	-0.1402340232	-0.318813
C	-2.7435100218	-2.3746717791	-0.015766004	-0.193807
C	-3.3605305359	-0.9845970217	-0.0820861953	-0.072354
C	-2.4339600971	-0.0212650052	-0.0605454814	-0.142014
C	-3.2659279473	-3.2785642249	-1.0424883012	 0.265763
N	-3.6831117063	-3.9888091101	-1.8530928112	-0.319186
H	 0.8327547987	 1.6482566607	 0.2925849141	 0.3114
H	-0.8427573416	-2.4377794434	-1.115898745	 0.154364
H	-0.6349955642	-2.6361105241	 0.6222058867	 0.141582
H	-2.9756193378	-2.8307331851	 0.9562596917	 0.143407
H	-4.4336194059	-0.8436567659	-0.1150338002	 0.133542
H	-2.6161330051	 1.0435256778	-0.0577125049	 0.136934
40.1084	142.0135	200.0184	244.9406	265.3663	317.3514	408.2961	431.3073	524.061	572.311	608.1796	701.0023	734.2778	810.1907	845.7799	867.5196	971.0477	984.4538	990.6348	1033.3827	1046.2234	1126.1833	1179.1565	1235.9012	1257.7021	1286.4564	1324.0716	1365.7773	1407.6553	1476.7532	1650.1233	1729.5568	2359.1859	3017.1641	3074.852	3125.5272	3216.6026	3254.2941	3821.8376
ON=C1CC(C=C1)C#N	ON=C1C[C@@H](C=C1)C#N	
InChI=1S/C6H6N2O/c7-4-5-1-2-6(3-5)8-9/h1-2,5,9H,3H2	InChI=1S/C6H6N2O/c7-4-5-1-2-6(3-5)8-9/h1-2,5,9H,3H2/t5-/m1/s1
