21
gdb 91231	2.39299	1.54092	1.35855	2.8356	81.1	-0.2347	-0.0192	0.2155	1079.6097	0.183521	-387.120361	-387.112083	-387.111139	-387.153143	32.597	
C	 0.1022796978	 1.5338933463	-0.2460165784	-0.402549
C	-0.040391555	 0.0220279607	-0.0131935169	 0.019363
C	 0.5149544824	-0.8479445327	-1.1737576208	-0.230333
C	 1.9764467499	-1.1956499089	-0.827636371	-0.01689
C	 3.0655067464	-0.1227995838	-1.1483238949	-0.363349
C	 3.1108192011	 0.2191405669	 0.3505853246	 0.409023
O	 3.6789407994	 1.0523003977	 0.9968189099	-0.307741
C	 2.1225183592	-0.9070651353	 0.709342806	-0.130814
C	 0.7393547597	-0.4748715316	 1.2309599489	-0.235889
H	 1.145456291	 1.85577041	-0.3188734657	 0.132345
H	-0.4032034222	 1.8357257767	-1.1695438564	 0.110992
H	-0.3484198598	 2.0947633802	 0.5794291542	 0.116868
H	-1.1083331005	-0.1849196086	 0.1155208952	 0.072123
H	-0.0623316916	-1.7773243305	-1.2344621229	 0.097723
H	 0.4186290976	-0.3534473861	-2.146309531	 0.096402
H	 2.2484760615	-2.198362481	-1.1588877628	 0.072024
H	 4.0148323369	-0.538044919	-1.5031966995	 0.128785
H	 2.7849876686	 0.6982205811	-1.8146403277	 0.126242
H	 2.5867174696	-1.6815617569	 1.3263985602	 0.091441
H	 0.8137468816	 0.2854846553	 2.0146750447	 0.114672
H	 0.2368524465	-1.3444845207	 1.6684578946	 0.099562
78.4775	134.5305	181.6725	220.341	315.9415	359.0235	367.7485	432.6083	517.2394	565.577	698.7156	707.9691	729.1634	779.9767	830.6589	858.0077	872.1693	927.7502	935.0527	963.9062	1006.2604	1031.4647	1046.1898	1071.7264	1081.8532	1130.7463	1152.0117	1162.6907	1167.3874	1220.1846	1226.3737	1263.3665	1270.7764	1281.7522	1331.7274	1341.3068	1353.9408	1378.4926	1418.4129	1435.6872	1481.2695	1490.6709	1497.779	1504.7093	1882.7005	3029.1806	3034.3236	3036.2927	3049.4277	3050.6864	3072.7773	3075.6253	3088.0682	3096.8944	3098.4989	3105.8168	3112.9052
CC1CC2CC(=O)C2C1	C[C@H]1C[C@H]2CC(=O)[C@H]2C1	
InChI=1S/C8H12O/c1-5-2-6-4-8(9)7(6)3-5/h5-7H,2-4H2,1H3	InChI=1S/C8H12O/c1-5-2-6-4-8(9)7(6)3-5/h5-7H,2-4H2,1H3/t5-,6-,7-/m0/s1
