21
gdb 116483	3.12882	1.11315	0.88273	1.7861	81.04	-0.2439	0.0061	0.25	1355.1425	0.182779	-424.209574	-424.200574	-424.19963	-424.243706	33.721	
C	 0.2496490861	 1.3057932153	 0.1685504895	-0.241825
O	 0.0891785596	-0.0834031897	 0.0010503449	-0.245647
C	-1.2661261288	-0.5066424237	-0.0701602413	 0.075251
C	-1.2749367483	-1.8569520706	-0.7935548244	-0.210287
C	-2.6685328186	-2.3377399319	-1.2050701209	-0.085008
O	-3.495887829	-2.748970607	-0.1346397615	-0.233557
C	-4.0480764292	-1.7006123709	 0.6422203158	-0.131382
C	-3.0888324366	-1.0463787279	 1.6148310287	-0.078245
C	-1.8943501667	-0.5450301332	 1.3080756352	-0.060523
H	 1.3235764724	 1.5067645343	 0.1914579257	 0.128022
H	-0.2003577074	 1.8684876826	-0.6650675485	 0.103681
H	-0.1947713192	 1.6741428513	 1.1055218071	 0.105084
H	-1.8288760384	 0.2127243758	-0.6960076113	 0.070655
H	-0.6665470594	-1.7473819036	-1.6987899248	 0.102445
H	-0.7972299385	-2.6133127288	-0.1627899847	 0.115157
H	-3.1760802925	-1.5536119175	-1.7947653164	 0.081362
H	-2.5680929111	-3.2164047294	-1.8500474817	 0.107989
H	-4.490674942	-0.9373785871	-0.0236948897	 0.094639
H	-4.8731311116	-2.1561812715	 1.197437498	 0.111186
H	-3.4229179382	-0.9973221602	 2.6483655686	 0.092077
H	-1.2785505027	-0.1233634162	 2.0988325617	 0.098926
51.4691	107.5129	174.6807	190.0387	221.2487	312.7083	339.3822	388.8199	396.0346	459.3787	507.1347	559.8689	692.7399	707.8957	839.5356	884.8679	925.3236	930.7945	987.6618	1009.2703	1030.625	1046.4501	1078.7617	1132.4234	1155.7256	1158.6692	1185.1269	1205.524	1231.2172	1255.1004	1278.8095	1320.0739	1341.32	1353.3006	1377.4699	1397.0855	1417.8179	1423.4181	1474.2849	1480.2141	1481.194	1486.925	1495.6032	1510.9601	1722.1823	2907.7977	2938.0667	2952.1221	2972.032	3018.4601	3041.3008	3073.8566	3079.813	3094.8921	3113.1316	3144.8179	3167.906
COC1CCOCC=C1	CO[C@H]1CCOCC=C1	
InChI=1S/C7H12O2/c1-8-7-3-2-5-9-6-4-7/h2-3,7H,4-6H2,1H3	InChI=1S/C7H12O2/c1-8-7-3-2-5-9-6-4-7/h2-3,7H,4-6H2,1H3/t7-/m1/s1
