19
gdb 75188	3.84158	0.85816	0.78129	4.1712	80.01	-0.2425	0.0122	0.2547	1496.7411	0.158264	-423.07173	-423.062655	-423.061711	-423.107016	32.597	
C	-0.4570751013	 1.2902017507	 0.2795022081	-0.495566
C	-0.0382726606	-0.1200563527	 0.0127224145	 0.342652
C	-0.1809371187	-0.8135271337	-1.1184128893	-0.159385
C	 0.3903395193	-2.2055275549	-1.02842241	-0.26947
C	 0.6864918131	-2.3741393979	 0.4801237292	 0.104076
C	 0.6667939312	-0.9469334547	 1.0681876693	-0.313864
O	-0.3801099418	-3.137783892	 1.0792375347	-0.188666
C	-0.071659424	-4.2688091115	 1.7348107323	 0.165806
O	-0.8918169924	-4.9586193395	 2.2629543673	-0.279493
H	 0.4020668949	 1.9130592386	 0.5604610035	 0.125196
H	-0.9322799899	 1.7422242763	-0.5949866827	 0.126444
H	-1.1640033615	 1.3408131243	 1.1172489515	 0.13141
H	-0.6350852343	-0.4294435136	-2.0252622916	 0.090274
H	-0.2965162322	-2.9873447634	-1.3694008282	 0.124178
H	 1.3080170148	-2.3071050418	-1.6238735767	 0.109641
H	 1.6312621777	-2.8947389789	 0.6682658361	 0.082742
H	 1.6858475502	-0.5755784487	 1.2449343175	 0.108867
H	 0.1559774198	-0.938795144	 2.0374845385	 0.121629
H	 1.0153867055	-4.4860747224	 1.7294344657	 0.073529
30.9808	53.982	150.1123	181.6176	229.6094	280.188	303.0136	356.4349	424.8231	447.4434	610.7829	617.3711	774.8042	813.556	870.7945	900.2294	920.8359	959.1636	966.571	1028.1483	1034.7814	1045.185	1059.1289	1088.8505	1166.226	1188.073	1191.5082	1235.2339	1267.1377	1293.0088	1330.0557	1360.8334	1383.7711	1415.245	1443.7357	1467.7844	1478.2703	1479.512	1488.8943	1726.0748	1862.946	2935.7841	3012.1155	3014.137	3018.312	3053.8139	3063.3461	3067.3279	3071.7322	3113.6353	3192.7454
CC1=CCC(C1)OC=O	CC1=CC[C@@H](C1)OC=O	
InChI=1S/C7H10O2/c1-6-2-3-7(4-6)9-5-8/h2,5,7H,3-4H2,1H3	InChI=1S/C7H10O2/c1-6-2-3-7(4-6)9-5-8/h2,5,7H,3-4H2,1H3/t7-/m0/s1
