19
gdb 119291	2.20645	1.26335	0.94055	2.0794	78.04	-0.2533	0.0263	0.2795	1318.6796	0.156116	-422.957184	-422.947393	-422.946449	-422.992645	35.012	
C	 0.0013244224	 1.5440424788	 0.0653516124	-0.384043
C	 0.042713884	 0.0298835836	-0.043741782	-0.060839
O	 0.5894944072	-0.4790457105	 1.1687618871	-0.279527
C	 0.734479025	-1.8779092419	 1.2282034586	 0.167922
C	 1.9500307333	-2.4627795516	 0.4385492999	-0.112317
O	 2.6214264004	-2.8264229438	 1.6562198034	-0.268042
C	 1.5734840545	-2.2725575875	 2.4705842607	-0.109793
C	-0.5264607706	-2.5941529914	 1.0596822457	 0.31755
C	-1.5601654222	-3.1931504936	 0.9246371779	-0.495748
H	 1.0063431413	 1.9491571967	 0.213144218	 0.127432
H	-0.4178907867	 1.9775412433	-0.8474693378	 0.117591
H	-0.6196178315	 1.8493999477	 0.9121225595	 0.130413
H	-0.9635409036	-0.380846176	-0.2029470624	 0.108004
H	 0.6646783528	-0.2797778406	-0.8983273277	 0.090695
H	 1.7411448717	-3.3302426923	-0.1960064863	 0.111355
H	 2.4986134863	-1.7016263791	-0.1296291355	 0.105845
H	 1.8977172814	-1.3945779823	 3.0400608194	 0.116316
H	 1.1233444048	-3.0164237479	 3.1350361549	 0.113886
H	-2.4738615205	-3.7226726716	 0.8091526644	 0.203299
55.1107	72.3365	108.1809	145.6606	182.0606	208.0361	251.2137	349.7051	396.0638	416.2252	515.0596	553.486	632.5493	667.5566	681.0599	823.42	837.8085	862.8717	944.498	959.4089	995.5528	1048.1317	1054.1996	1086.1589	1140.3048	1155.3232	1162.9618	1186.5255	1190.2968	1251.4033	1298.3923	1305.8018	1371.9443	1400.7194	1427.3376	1484.0278	1495.1544	1500.4246	1521.0538	1527.4367	2229.5719	2980.7716	3019.287	3031.8397	3036.4355	3046.0725	3080.428	3093.8881	3120.7056	3123.9898	3498.5638
CCOC1(COC1)C#C	CCOC1(COC1)C#C	
InChI=1S/C7H10O2/c1-3-7(9-4-2)5-8-6-7/h1H,4-6H2,2H3	InChI=1S/C7H10O2/c1-3-7(9-4-2)5-8-6-7/h1H,4-6H2,2H3
