21
gdb 38259	3.07755	1.61508	1.33475	1.1567	82.31	-0.243	0.0914	0.3344	1028.4868	0.186477	-387.039286	-387.032446	-387.031502	-387.070079	29.46	
C	-0.0317922416	 1.6173390986	 0.1895731882	-0.267369
C	 1.463857582	 1.2368017076	 0.0385016271	-0.086979
C	 1.1705366113	 0.0513994103	 1.022714943	-0.295665
C	-0.0062894641	 0.0606140436	 0.0047779626	 0.362283
C	-1.1686380002	-0.8386807657	-0.3195719254	-0.355223
C	-1.6290054169	-0.4616666395	-1.7478257594	-0.064528
O	-0.570374154	-0.4466374454	-2.696170498	-0.252222
C	 0.4205523304	 0.5582058995	-2.4510496742	-0.15087
C	 1.0646835434	 0.2513528166	-1.1068639465	 0.031404
H	-0.3427937649	 1.9724560556	 1.1763116325	 0.087323
H	-0.4825222233	 2.226210639	-0.594557579	 0.091989
H	 2.3208125164	 1.911080031	 0.0737030069	 0.069595
H	 1.8490014888	-0.8054639661	 0.9757163247	 0.090103
H	 0.9409568366	 0.3267924123	 2.0562264697	 0.08729
H	-0.8458866607	-1.8867628544	-0.3079142089	 0.104862
H	-2.0070366734	-0.7373824046	 0.3798973158	 0.094342
H	-2.3524603049	-1.1901933474	-2.124536227	 0.105985
H	-2.1256277264	 0.5227965363	-1.723502714	 0.087322
H	 1.12815841	 0.4798983344	-3.2812330413	 0.103259
H	-0.0369354412	 1.5571261422	-2.4951090517	 0.091413
H	 1.7408082927	-0.6045642639	-1.2123846951	 0.065686
170.4445	259.4163	342.1194	361.7524	391.0115	442.7099	509.127	569.6283	603.5585	656.9809	778.7633	801.228	835.6219	850.3971	898.9098	923.8563	945.1939	962.4984	984.5515	995.3599	1025.3388	1063.5438	1072.0735	1095.3607	1114.4448	1138.4288	1144.3905	1150.9512	1173.3328	1209.397	1221.8192	1230.8566	1242.7026	1271.929	1295.7998	1314.663	1361.6701	1376.8251	1402.1612	1427.3525	1473.9617	1490.3999	1496.5668	1509.8487	1548.2342	2967.21	2999.2981	3026.5821	3038.2586	3044.3871	3060.5866	3071.5087	3085.0062	3087.5432	3100.4536	3109.0578	3128.7964
C1C2CC11CCOCC21	C1[C@H]2C[C@]31CCOC[C@@H]23	
InChI=1S/C8H12O/c1-2-9-5-7-6-3-8(1,7)4-6/h6-7H,1-5H2	InChI=1S/C8H12O/c1-2-9-5-7-6-3-8(1,7)4-6/h6-7H,1-5H2/t6-,7-,8+/m0/s1
