20
gdb 15159	6.06327	0.72086	0.6897	0.1239	84.59	-0.2394	0.0596	0.299	1714.6909	0.176044	-311.836839	-311.827391	-311.826446	-311.873224	33.321	
C	-0.5325797901	 1.2841150989	-0.3679644721	-0.362559
C	 0.3083704694	 0.0751476926	 0.0811100634	-0.311485
C	 1.0983121617	-0.5065665478	-0.9997446603	 0.082864
C	 1.7426555473	-0.963065562	-1.909671577	 0.051841
C	 2.5184585207	-1.5498488349	-3.0004533761	-0.37511
C	 2.0440295275	-2.9408958784	-3.3974461084	 0.048223
C	 0.9179982339	-3.1050392836	-4.3815253362	-0.246205
C	 2.3302504885	-3.4634769952	-4.7810983549	-0.278494
H	 0.1085407388	 2.0793960767	-0.7580420505	 0.126127
H	-1.2318080999	 0.9980398359	-1.1584474618	 0.126283
H	-1.1069387226	 1.6850986595	 0.4727543073	 0.111327
H	 0.974117566	 0.3778494486	 0.8999357414	 0.124789
H	-0.3535717493	-0.6925025907	 0.5028270457	 0.125463
H	 2.47328202	-0.8927981098	-3.8799004695	 0.118797
H	 3.5786142506	-1.5928221553	-2.7148054119	 0.124438
H	 2.083026077	-3.6643831004	-2.5885035568	 0.090401
H	 0.2062579336	-3.9077741419	-4.2246053715	 0.110866
H	 0.4836795307	-2.2058433189	-4.8065115326	 0.112561
H	 2.8422882494	-2.8051892945	-5.4759007398	 0.108996
H	 2.5863655969	-4.5109652786	-4.8956735383	 0.110878
13.1106	56.5486	89.2374	142.5098	202.0718	276.9766	302.1726	344.2182	365.559	488.8508	515.9128	734.6857	771.6939	785.6484	800.7414	842.5111	893.036	943.043	971.992	997.8015	1057.3292	1077.4531	1078.8002	1104.691	1135.7037	1146.6228	1163.3083	1196.6072	1226.6984	1262.6006	1286.7244	1324.1981	1351.6729	1407.1318	1407.9292	1465.1852	1473.2016	1476.2493	1494.7848	1505.9719	1508.1774	2366.6249	3004.5174	3016.3931	3032.8556	3042.4187	3042.7045	3115.423	3122.3024	3128.3921	3133.6778	3151.9224	3206.1806	3221.6718
CCC#CCC1CC1	CCC#CCC1CC1	
InChI=1S/C8H12/c1-2-3-4-5-8-6-7-8/h8H,2,5-7H2,1H3	InChI=1S/C8H12/c1-2-3-4-5-8-6-7-8/h8H,2,5-7H2,1H3
