17
gdb 12360	3.17392	2.18332	1.34638	4.0169	71.61	-0.2319	-0.0293	0.2026	907.5683	0.144054	-363.910936	-363.903415	-363.902471	-363.942691	27.875	
C	-0.0328548524	 1.4512388552	 0.0278911408	-0.344004
N	 0.0206372368	 0.0133235433	-0.1634592383	-0.113215
C	-1.2384442836	-0.7174452628	-0.061806356	-0.155724
C	-1.1787027213	-2.0634784267	-0.7843265055	-0.270803
C	 0.0915650645	-2.7903248373	-0.4443440608	-0.071519
C	 1.1770451896	-2.1187652585	-0.0590570591	-0.129194
C	 1.22480138	-0.6341305985	 0.0135455343	 0.400661
O	 2.2811192852	-0.0418134315	 0.1802049524	-0.39641
H	 0.9808871518	 1.8421013502	-0.0459447194	 0.167347
H	-0.6656067443	 1.911336576	-0.7389533695	 0.118208
H	-0.441514553	 1.7137425947	 1.0145391369	 0.116818
H	-1.5017287924	-0.8797280991	 0.9967892991	 0.105933
H	-2.0275518258	-0.0933347644	-0.4930135912	 0.111204
H	-2.056464005	-2.6593516383	-0.5124675836	 0.114948
H	-1.2309648459	-1.9159990382	-1.8729664246	 0.126628
H	 0.116362681	-3.8712405368	-0.5556418858	 0.105401
H	 2.1198651148	-2.6034174772	 0.1662282703	 0.11372
122.4881	137.9027	156.9961	249.5092	347.3767	351.3178	430.6357	483.3688	557.6027	660.9725	724.4219	748.1607	840.521	903.3354	911.538	1005.7347	1015.0388	1065.3482	1078.2101	1138.1919	1154.3787	1182.9692	1222.6447	1262.7893	1293.7208	1351.6008	1373.5514	1405.2087	1428.2308	1458.617	1469.6743	1498.3954	1502.8017	1532.3601	1695.8517	1756.8184	2964.2829	3000.6574	3007.4213	3065.6773	3068.7257	3070.412	3162.0041	3165.6673	3209.175
CN1CCC=CC1=O	CN1CCC=CC1=O	
InChI=1S/C6H9NO/c1-7-5-3-2-4-6(7)8/h2,4H,3,5H2,1H3	InChI=1S/C6H9NO/c1-7-5-3-2-4-6(7)8/h2,4H,3,5H2,1H3
