21
gdb 104363	2.14141	1.46292	1.29443	1.6914	77.87	-0.238	-0.0238	0.2143	1145.2322	0.181282	-424.255509	-424.245978	-424.245034	-424.289629	35.465	
C	-0.0158948237	 1.5236872433	-0.1398013177	-0.398902
C	 0.0800368379	 0.003449645	 0.0136036659	-0.210406
C	 0.7033028108	-0.5051613088	 1.3465917442	 0.160319
C	-0.0614385634	-0.0149879333	 2.5758824587	-0.449848
C	 0.8805046803	-2.0333534606	 1.2710204708	-0.128717
O	 2.071460116	-2.252362022	 0.5106180095	-0.252896
C	 3.0048584215	-1.2668335538	 0.9043839962	-0.180403
C	 2.1781016418	-0.0718485197	 1.3863434232	 0.357183
O	 2.6117313004	 0.993202503	 1.7428328088	-0.322888
H	 0.9590237814	 2.0042605039	-0.02305143	 0.140136
H	-0.403610896	 1.7772161723	-1.1312806214	 0.113968
H	-0.6917810639	 1.9631988687	 0.599579998	 0.119741
H	-0.9230308386	-0.4373556347	-0.0587860452	 0.100307
H	 0.6579408743	-0.4187003995	-0.816872983	 0.114416
H	-1.1304144035	-0.2368241827	 2.4884851165	 0.114914
H	 0.3096410489	-0.4936415751	 3.4878949045	 0.116583
H	 0.0598128619	 1.0638997633	 2.6981587145	 0.143994
H	 0.9840906039	-2.4635755322	 2.2806933483	 0.090065
H	 0.0645776866	-2.5466145506	 0.7560033885	 0.11346
H	 3.6460398817	-1.608785728	 1.7346399356	 0.120439
H	 3.6510830617	-1.0073084785	 0.0607113441	 0.138533
82.727	110.2304	168.4085	189.3178	201.6197	239.267	277.9021	296.13	358.7106	405.9557	488.1319	570.2312	616.0972	650.0973	708.2057	779.2041	835.4068	915.2741	953.4472	991.0447	997.2018	1014.0079	1035.0134	1079.1648	1093.5717	1118.0339	1179.3047	1203.8534	1228.5128	1237.1504	1263.9185	1315.3016	1331.2131	1359.4698	1390.7337	1410.4296	1418.1586	1474.4565	1484.026	1491.3347	1498.3122	1504.4072	1510.2787	1515.5301	1846.0261	2966.5862	2973.1586	3017.3587	3035.7164	3044.6605	3060.4284	3086.4695	3095.0235	3099.8903	3108.0996	3123.0896	3126.1108
CCC1(C)COCC1=O	CC[C@@]1(C)COCC1=O	
InChI=1S/C7H12O2/c1-3-7(2)5-9-4-6(7)8/h3-5H2,1-2H3	InChI=1S/C7H12O2/c1-3-7(2)5-9-4-6(7)8/h3-5H2,1-2H3/t7-/m0/s1
