23
gdb 102116	2.35119	1.07533	0.79123	2.7395	86.82	-0.2425	-0.0185	0.224	1518.0052	0.20421	-388.297047	-388.286791	-388.285847	-388.333451	36.82	
C	 0.0048416024	 1.5838461751	-0.0984018135	-0.391801
C	 0.0615787776	 0.055905525	-0.002324137	-0.196485
C	 0.7161290282	-0.4569663577	 1.2951563515	-0.081017
C	-0.1458509699	-0.1123896686	 2.4929242734	 0.169487
O	 0.222628919	 0.470013308	 3.4803854914	-0.259587
C	 0.919671444	-1.9782562566	 1.2647384521	 0.038675
C	 1.9447803613	-2.5737781464	 0.2546999359	-0.232943
C	 2.3809267141	-3.5804819531	 1.3536830721	-0.218655
C	 1.7199455097	-2.6588173245	 2.4129079968	-0.237586
H	 1.0100292403	 2.0173924552	-0.0666951958	 0.122175
H	-0.4683143964	 1.9021983284	-1.0321365032	 0.115756
H	-0.5644521991	 2.0196629402	 0.7295850856	 0.127065
H	-0.9522755191	-0.3607548733	-0.0787811675	 0.098807
H	 0.6190761139	-0.3486290716	-0.8548362878	 0.108513
H	 1.6876257166	 0.0304609813	 1.4442543521	 0.083578
H	-1.2007440923	-0.4730428802	 2.4027413712	 0.06497
H	-0.0519160031	-2.4734745322	 1.1415105269	 0.071437
H	 1.5612108972	-2.9761132782	-0.685892457	 0.098537
H	 2.738850339	-1.8546895409	 0.0275081388	 0.101969
H	 1.8547812011	-4.5346494597	 1.2598398472	 0.103769
H	 3.4491038641	-3.7840136884	 1.4555743183	 0.100291
H	 2.439846581	-1.9649327006	 2.8577007814	 0.111663
H	 1.1525609106	-3.1286789211	 3.2196266072	 0.101383
44.6512	70.7422	87.4752	121.4505	143.431	214.2699	231.0157	300.3848	352.2633	379.5435	447.2654	512.8781	655.0318	768.5972	781.6302	787.812	893.0452	896.9233	935.2313	948.2412	961.9056	972.1429	1005.8879	1041.5669	1045.4971	1085.5	1127.0449	1149.9341	1178.6326	1205.6083	1226.7211	1255.7482	1262.9582	1265.8502	1272.2688	1293.0306	1297.933	1334.1851	1369.1795	1378.1602	1418.0251	1425.5454	1478.2345	1486.162	1487.2556	1499.8103	1504.0401	1509.5302	1830.2065	2823.4686	3015.74	3021.6979	3034.2884	3040.8921	3047.4913	3056.7226	3060.5712	3061.3285	3098.9811	3102.275	3105.8172	3107.4912	3120.7289
CCC(C=O)C1CCC1	CC[C@@H](C=O)C1CCC1	
InChI=1S/C8H14O/c1-2-7(6-9)8-4-3-5-8/h6-8H,2-5H2,1H3	InChI=1S/C8H14O/c1-2-7(6-9)8-4-3-5-8/h6-8H,2-5H2,1H3/t7-/m0/s1
