21
gdb 5843	3.09803	1.43581	1.26212	3.3107	75.92	-0.2377	0.039	0.2767	1109.3793	0.186424	-366.309192	-366.298939	-366.297994	-366.34438	36.966	
C	-0.0969410238	 1.5051613472	 0.2307176024	-0.335618
N	-0.186497527	 0.0651077825	 0.3763897239	-0.327238
C	-1.0592541685	-0.6888205976	-0.3510529545	 0.418089
O	-1.8193942273	-0.1968863744	-1.1705643365	-0.40118
C	-1.0584401199	-2.2163471868	-0.1031174654	 0.161313
C	-2.4880398283	-2.5948931437	 0.3365348625	-0.395534
C	-0.742635517	-2.8852654981	-1.4570370938	-0.395555
C	-0.0496448807	-2.6911161116	 0.9555368551	-0.447786
H	-0.3303400964	 2.0165725437	 1.1714954441	 0.122976
H	 0.903903424	 1.8117271993	-0.0939255514	 0.122967
H	-0.824192965	 1.799948199	-0.5262411288	 0.17234
H	 0.4181677619	-0.3876645521	 1.0382151913	 0.244782
H	-3.2146616909	-2.2254828287	-0.3896501575	 0.14163
H	-2.5861254335	-3.6826902077	 0.4162262781	 0.105318
H	-2.731203593	-2.161538752	 1.3129426626	 0.108919
H	 0.2800004399	-2.6627924122	-1.7810936935	 0.108917
H	-0.8420330348	-3.9728755552	-1.3764258595	 0.105321
H	-1.4288602514	-2.5222842456	-2.2245807322	 0.141637
H	-0.2509829678	-2.256140787	 1.9412988731	 0.113876
H	-0.1149199059	-3.7781232961	 1.0678245877	 0.120951
H	 0.9840619754	-2.461402803	 0.6724196123	 0.113875
35.8943	72.5449	135.4474	219.9067	222.1677	268.305	272.5032	306.6233	308.5866	347.7039	369.9733	370.9404	487.7837	489.3304	576.6712	772.6081	794.0905	871.05	937.9472	943.4777	962.8439	1027.6444	1046.4877	1070.8602	1153.1906	1167.798	1220.4419	1228.1648	1252.7211	1290.1183	1389.4212	1391.9096	1423.7529	1436.0434	1476.4729	1489.9504	1492.5679	1495.1796	1500.9559	1502.1142	1508.1291	1525.7011	1561.0254	1757.0368	3019.5537	3025.2433	3029.8892	3034.5548	3075.8594	3085.9923	3092.0294	3093.5404	3098.0711	3132.5827	3136.271	3155.6369	3677.3815
CNC(=O)C(C)(C)C	CNC(=O)C(C)(C)C	
InChI=1S/C6H13NO/c1-6(2,3)5(8)7-4/h1-4H3,(H,7,8)	InChI=1S/C6H13NO/c1-6(2,3)5(8)7-4/h1-4H3,(H,7,8)
