15
gdb 29096	3.1259	1.43177	0.98514	6.0924	74.68	-0.1872	-0.0243	0.1628	1122.8816	0.115541	-450.178368	-450.170401	-450.169457	-450.210727	30.559	
N	 0.1528362994	 1.4027000983	 0.3779490968	-0.592173
C	-0.0219734536	 0.0457971318	 0.0395714863	 0.314699
C	-1.1805800422	-0.6162579589	-0.1057573868	-0.102329
N	-1.1764841984	-1.9866411415	-0.3479985366	-0.363453
C	-0.0423752101	-2.7460789731	-0.5392671879	 0.276169
N	-0.1097972715	-3.9942684829	-0.7942223682	-0.531137
C	 1.272794522	-2.006751365	-0.3947388416	 0.375394
O	 2.3391595951	-2.5773514081	-0.5115203105	-0.370379
N	 1.1729492082	-0.6691952516	-0.0977828211	-0.392691
H	 0.507956363	 1.955803841	-0.3980078107	 0.250604
H	-0.7117285298	 1.8194731766	 0.6986937867	 0.252033
H	-2.1440169727	-0.1326586759	-0.0512848279	 0.12175
H	-2.0490601699	-2.485758935	-0.4264646301	 0.261604
H	 0.8439970099	-4.3461358688	-0.8865821639	 0.238107
H	 2.0403832706	-0.1917986169	 0.1064732154	 0.261801
96.4078	152.9502	222.7518	292.7094	341.6256	348.1079	402.9247	467.955	525.6318	547.4721	586.7382	608.6588	646.3949	692.7186	743.4536	791.4815	803.4164	832.84	876.901	1017.8735	1074.0248	1165.6542	1214.113	1268.3492	1277.8006	1381.4232	1442.5207	1452.3075	1486.9829	1642.6082	1712.1513	1750.8457	1792.5917	3246.2111	3482.4794	3484.703	3603.7273	3607.3777	3631.6597
NC1=CNC(=N)C(=O)N1	NC1=CN[C]([NH])C(=O)N1	
InChI=1S/C4H6N4O/c5-2-1-7-3(6)4(9)8-2/h1H,(H2,6,7)(H3,5,8,9)	InChI=1S/C4H6N4O/c5-2-1-7-3(6)4(9)8-2/h1H,(H2,6,7)(H3,5,8,9)
