16
gdb 13593	4.42344	1.20268	1.11693	3.0401	62.82	-0.2708	-0.0438	0.227	1094.0599	0.127824	-420.867611	-420.859133	-420.858189	-420.901005	30.042	
C	 0.2971539188	 1.5061507625	-0.4629489067	-0.434482
C	 0.0355068526	 0.0925419038	-0.0191766317	 0.087775
O	 1.1463479504	-0.7818357481	 0.1034632133	-0.228742
C	 0.4440660577	-0.4663047825	 1.3013010958	-0.059317
C	 1.1499856494	 0.3630868297	 2.3270524591	 0.348593
O	 2.0896106361	 1.0907612745	 2.0821525062	-0.328767
C	 0.6244507362	 0.2716253661	 3.7528780152	-0.134128
O	 1.2939769482	 1.1545866118	 4.5971567623	-0.418983
H	 1.1703571233	 1.9196114262	 0.0420616527	 0.165935
H	 0.4747816742	 1.5217004874	-1.5432113292	 0.135736
H	-0.5757012068	 2.1350177368	-0.2585935741	 0.124465
H	-0.8459930876	-0.3805762682	-0.4581451462	 0.1032
H	-0.1571150509	-1.2803076721	 1.7095662425	 0.103051
H	-0.4602762357	 0.4726421061	 3.7417076288	 0.119493
H	 0.7361533298	-0.7763465473	 4.0843522642	 0.120226
H	 1.9871333144	 1.5540989633	 4.0465278878	 0.295944
57.272	111.8233	173.601	181.2626	229.8658	306.4805	368.7528	395.6465	417.0238	455.0999	581.9364	712.4724	790.4639	835.4062	894.0818	970.23	997.6896	1043.2802	1074.5402	1083.2185	1153.0613	1167.4127	1175.4498	1240.8819	1286.6984	1310.9903	1393.884	1416.9633	1443.3504	1456.7391	1489.1456	1492.251	1502.2803	1793.4022	2955.625	2979.1835	3043.9403	3083.0614	3102.9268	3104.5851	3158.9924	3677.3703
CC1OC1C(=O)CO	C[C@H]1O[C@H]1C(=O)CO	
InChI=1S/C5H8O3/c1-3-5(8-3)4(7)2-6/h3,5-6H,2H2,1H3	InChI=1S/C5H8O3/c1-3-5(8-3)4(7)2-6/h3,5-6H,2H2,1H3/t3-,5-/m1/s1
