19
gdb 39269	2.47155	2.20047	1.56625	1.0906	73.92	-0.2367	0.0872	0.324	905.9425	0.162571	-422.995506	-422.988909	-422.987965	-423.026008	28.145	
C	 0.0237165282	 1.4714220373	 0.058406829	-0.432893
C	 1.3324933482	 0.7279503276	-0.0155916648	 0.09892
O	 2.1609412965	 0.4463417205	 1.072080152	-0.258514
C	 2.402195284	-0.9748339832	 1.0877246049	-0.085931
C	 1.0959957254	-1.79093293	 0.868541549	 0.095772
C	-0.0620682477	-0.8760177	 1.2605779758	-0.277339
C	 0.0299046059	-0.0323940577	-0.0086089524	 0.261399
C	-0.0399271034	-1.0906757817	-1.0793257313	-0.145531
O	 0.846602776	-2.095157768	-0.5275298547	-0.293838
H	-0.2956874349	 1.9052587213	 1.0001280398	 0.125947
H	-0.2391908652	 2.0579178476	-0.8161569109	 0.121482
H	 1.8601397305	 0.7906660384	-0.9689324153	 0.085233
H	 3.1333880453	-1.2478204926	 0.3138399774	 0.105093
H	 2.828392953	-1.1905213261	 2.0723435957	 0.107327
H	 1.1597528337	-2.7491593788	 1.3904170991	 0.078738
H	-1.0140773338	-1.4096420418	 1.3309051385	 0.101565
H	 0.1167921059	-0.3178731016	 2.1785393441	 0.116959
H	-1.0402626565	-1.522114901	-1.2220961004	 0.092796
H	 0.347743149	-0.76804389	-2.0509228156	 0.102815
205.8592	267.454	358.1864	364.7686	393.913	455.6502	529.8667	564.8721	598.1254	765.5715	785.3907	823.4403	854.3653	866.4204	891.7355	915.7579	960.6292	987.5264	998.5892	1008.5564	1049.7158	1059.2376	1077.3854	1092.7307	1114.2045	1157.5291	1173.3967	1193.55	1241.8846	1263.9046	1285.58	1313.049	1326.8037	1350.8892	1368.8377	1386.2842	1428.6202	1476.5735	1485.7212	1492.4732	1529.6732	3005.092	3009.421	3065.1401	3070.0091	3078.0988	3084.9194	3091.8918	3129.0897	3146.1979	3215.6978
C1C2OCC3CC12CO3	C1[C@H]2OC[C@H]3C[C@@]12CO3	
InChI=1S/C7H10O2/c1-5-3-8-6-2-7(1,6)4-9-5/h5-6H,1-4H2	InChI=1S/C7H10O2/c1-5-3-8-6-2-7(1,6)4-9-5/h5-6H,1-4H2/t5-,6-,7+/m1/s1
