21
gdb 101917	1.88431	1.3467	0.94612	4.1835	79.09	-0.2354	0.0308	0.2663	1335.5378	0.181702	-420.41719	-420.4066	-420.405656	-420.454023	37.326	
C	-0.1702881366	 1.6129582973	 0.1230194788	-0.407653
C	-0.1351531169	 0.0838883424	 0.0547880744	-0.169327
C	 0.6853347766	-0.5874491211	 1.1767209301	-0.133635
C	 0.1344690847	-0.2955120524	 2.565189618	 0.049136
C	 1.012491138	-0.3551690294	 3.758819629	-0.249055
N	 0.4850010818	 0.9386599564	 3.2850737507	-0.328978
C	 0.6536271191	-2.1064989414	 0.9713449784	 0.425934
N	 1.8689065025	-2.7123646326	 0.8381547096	-0.531975
O	-0.3917231691	-2.7278926199	 0.9407045591	-0.377149
H	 0.8377075	 2.0409537129	 0.0606221471	 0.103485
H	-0.749028104	 2.020127552	-0.7117587129	 0.116961
H	-0.6273732242	 1.9660475346	 1.0514414172	 0.144311
H	-1.1499583642	-0.3248309997	 0.0964112825	 0.128336
H	 0.2787623864	-0.2298894494	-0.9117401878	 0.095401
H	 1.72283536	-0.2246057067	 1.1344737568	 0.051285
H	-0.9051961509	-0.5899627913	 2.6844884484	 0.113911
H	 0.6182458617	-0.6906572068	 4.7133998049	 0.123269
H	 2.0671663908	-0.5739282467	 3.6063977005	 0.100929
H	 1.2126949849	 1.4386138056	 2.7794849168	 0.226936
H	 2.7325981772	-2.2006008789	 0.8378925696	 0.256984
H	 1.8927340922	-3.7094999049	 0.697622539	 0.260896
34.4978	75.3807	96.3013	102.0039	157.2156	171.9016	214.2644	284.3222	331.6774	358.1383	396.98	487.8793	584.8207	626.6009	747.9023	765.3957	822.235	869.1992	877.7339	919.8153	959.4596	967.6764	1001.7792	1049.1019	1074.3596	1102.9399	1126.2721	1138.2959	1166.2026	1209.8717	1246.5769	1253.9189	1273.7476	1297.5405	1336.1065	1363.9679	1391.577	1411.9385	1418.2928	1491.2378	1500.3869	1510.577	1513.8536	1614.2156	1790.7879	2993.5193	3028.677	3030.0549	3078.0446	3097.5922	3103.9442	3118.3802	3145.1258	3190.4726	3493.4342	3601.1882	3742.3656
CCC(C1CN1)C(N)=O	CC[C@@H]([C@H]1CN1)C(=O)N	
InChI=1S/C6H12N2O/c1-2-4(6(7)9)5-3-8-5/h4-5,8H,2-3H2,1H3,(H2,7,9)	InChI=1S/C6H12N2O/c1-2-4(6(7)9)5-3-8-5/h4-5,8H,2-3H2,1H3,(H2,7,9)/t4-,5+/m0/s1
