15
gdb 33902	4.30567	1.28802	1.18078	2.6595	72.24	-0.2465	0.0042	0.2507	1035.1605	0.111433	-420.510476	-420.503334	-420.50239	-420.541952	28.14	
C	 0.0438138671	-1.2114964226	-0.1181096092	-0.353545
C	 0.0633668543	-0.0127018267	-0.0242836719	 0.152186
C	 0.0527037513	 1.3983720469	 0.1419642337	 0.27837
O	 0.2019979621	 2.2520336518	-1.0026218384	-0.263044
C	 1.130717316	 2.428510035	 0.0590433397	-0.075113
C	 0.434139797	 3.2704407233	 1.1704456891	 0.091654
O	-0.4590076985	 4.2919608117	 0.7131101103	-0.283638
C	-1.5882920613	 3.3760750101	 0.7361311169	-0.085132
C	-0.6943305845	 2.2187776261	 1.2348699041	-0.188628
H	 0.0341894707	-2.2693011462	-0.21288701	 0.19367
H	 2.1839223472	 2.3298218829	-0.1813272559	 0.117798
H	 1.0614888203	 3.5624174365	 2.0157146548	 0.088609
H	-2.3426640337	 3.704727287	 1.4594389884	 0.1042
H	-2.0374799474	 3.2526507459	-0.2527152843	 0.123676
H	-0.9546472407	 1.6825000484	 2.1438734525	 0.098937
124.1959	146.4969	245.7159	310.2249	394.2464	464.3435	529.682	589.1026	616.5743	654.2303	676.0825	723.279	814.7086	820.6581	867.585	905.7327	925.7784	951.8719	987.4244	1018.9295	1030.9875	1066.9746	1126.5588	1159.6311	1167.1987	1218.2052	1241.0054	1278.6651	1291.6936	1351.7797	1408.5462	1504.6395	2240.6131	3036.8124	3088.7981	3101.1158	3152.931	3179.3623	3501.2696
C#CC12OC1C1OCC21	C#C[C@]12O[C@H]1[C@H]1OC[C@@H]21	
InChI=1S/C7H6O2/c1-2-7-4-3-8-5(4)6(7)9-7/h1,4-6H,3H2	InChI=1S/C7H6O2/c1-2-7-4-3-8-5(4)6(7)9-7/h1,4-6H,3H2/t4-,5+,6+,7-/m1/s1
