18
gdb 41496	3.44269	1.7779	1.48265	1.2737	76.04	-0.2067	0.0113	0.218	914.9507	0.152237	-398.062004	-398.055688	-398.054743	-398.092293	26.883	
C	 0.0457242712	 1.4906259966	-0.2114064666	-0.230214
N	 1.5366177444	 1.2906873819	-0.1269193695	-0.354121
C	 1.3123012186	 0.0656261765	 0.5155501509	 0.331581
N	 1.7973554178	-0.5068560778	 1.5383363822	-0.303052
C	 0.7572189368	-1.3885006302	 2.1271280741	 0.002514
C	-0.4836746392	-0.4781094244	 2.3709125007	-0.176518
N	-0.9545945241	-0.7641010431	 0.95712517	-0.154666
C	-0.1796647451	-2.0788675707	 1.1050178998	-0.180184
C	-0.1013654436	-0.0536645036	-0.0051266998	-0.03335
H	-0.3564783902	 2.073125029	 0.6240229163	 0.120384
H	-0.2961328674	 1.9022229649	-1.1630133112	 0.120225
H	 2.1161340602	 1.9832866403	 0.3360937693	 0.23798
H	 1.1812395609	-1.9779490505	 2.940688751	 0.074132
H	-1.2155463689	-0.8999846382	 3.0645304443	 0.111169
H	-0.2927130209	 0.569088407	 2.618893205	 0.104277
H	 0.2544215716	-2.4673962435	 0.1801977181	 0.109502
H	-0.8256592579	-2.83524292	 1.5585651981	 0.109122
H	-0.1921497541	-0.5460383043	-0.9753941127	 0.111219
212.69	245.8905	395.1476	403.1141	433.9064	493.7467	534.1165	636.4665	738.6813	762.9641	805.43	820.9914	848.8844	879.4223	897.8218	925.9679	952.8504	965.3102	1003.1936	1015.208	1057.6476	1105.4004	1121.9111	1124.8227	1153.77	1206.49	1213.4457	1223.4103	1245.3476	1255.8838	1294.4774	1313.5853	1315.1278	1353.4702	1378.7707	1484.8048	1508.4086	1513.8196	1753.5215	3046.18	3052.2149	3058.938	3085.8392	3101.3901	3114.5319	3116.8986	3119.0239	3533.2044
C1NC2=NC3CN(C3)C12	C1N[C]2[N][C@H]3CN(C3)[C@@H]12	
InChI=1S/C6H9N3/c1-5-6(7-1)8-4-2-9(5)3-4/h4-5H,1-3H2,(H,7,8)	InChI=1S/C6H9N3/c1-5-6(7-1)8-4-2-9(5)3-4/h4-5H,1-3H2,(H,7,8)/t5-/m0/s1
