21
gdb 91205	1.95777	1.62357	1.50615	2.6988	82.3	-0.2324	-0.0176	0.2148	1086.5014	0.181115	-387.096805	-387.087632	-387.086688	-387.130603	34.858	
C	 0.3184109119	 1.5711951756	-0.1354213336	-0.411173
C	 0.0619876994	 0.079880791	 0.0370830089	-0.007051
C	 0.7476340372	-0.9240871906	-0.9399755398	-0.250267
C	 1.3219075086	-1.7286012428	 0.2551364694	-0.081644
C	 2.7534768489	-1.3020789935	 0.67425528	-0.358087
C	 2.1256054712	-0.2198945739	 1.5725450857	 0.374069
O	 2.5763631764	 0.6287533054	 2.2889464884	-0.314749
C	 0.6906197004	-0.6778627387	 1.2612417164	 0.211672
C	-0.1983882986	-0.9807595758	 2.4493057735	-0.496209
H	 1.3886606071	 1.7981349172	-0.1722586035	 0.123812
H	-0.1328119323	 1.9335917392	-1.0657275671	 0.113625
H	-0.1103032096	 2.1476764535	 0.691131771	 0.123874
H	-1.0189226285	-0.0985072974	 0.0559782641	 0.076453
H	 0.0492442743	-1.4788466915	-1.5704456808	 0.102979
H	 1.5102910187	-0.4824645662	-1.589814479	 0.097449
H	 1.0926676642	-2.792628961	 0.305246519	 0.071156
H	 3.2735937336	-2.0508651591	 1.2827736538	 0.13052
H	 3.4387764598	-0.9601357401	-0.1073533871	 0.122539
H	-0.4327407275	-0.059347226	 2.9939648379	 0.135735
H	-1.1420830945	-1.4360871053	 2.1300242152	 0.115782
H	 0.2858387793	-1.6646102999	 3.1548892775	 0.119517
60.7695	116.236	181.2706	199.7228	225.2851	237.9353	334.8067	364.1165	392.5663	482.8848	527.5191	570.9282	654.5571	712.8966	792.5007	813.443	853.0455	877.4326	907.4322	949.9971	1005.1636	1038.9574	1045.2511	1046.9103	1096.1751	1119.5749	1145.3718	1157.977	1186.5907	1204.5294	1221.877	1239.3977	1275.2581	1299.8071	1325.7572	1366.2559	1405.0928	1414.8939	1433.6169	1486.6423	1488.2875	1491.1933	1494.3738	1495.8063	1875.2359	3024.9081	3030.0817	3034.7218	3043.0625	3048.2203	3093.2727	3095.0653	3096.0022	3096.6446	3100.3808	3104.9202	3117.5177
CC1CC2CC(=O)C12C	C[C@H]1C[C@H]2CC(=O)[C@@]12C	
InChI=1S/C8H12O/c1-5-3-6-4-7(9)8(5,6)2/h5-6H,3-4H2,1-2H3	InChI=1S/C8H12O/c1-5-3-6-4-7(9)8(5,6)2/h5-6H,3-4H2,1-2H3/t5-,6-,8-/m0/s1
