25
gdb 116511	2.59348	1.08905	0.83988	1.2942	88.52	-0.2623	0.0781	0.3404	1465.4272	0.231399	-389.506036	-389.496414	-389.49547	-389.54038	37.085	
O	 0.0781763733	 1.4282573026	-0.0499213757	-0.423225
C	 0.0834856157	 0.0069774077	-0.0265715376	-0.093652
C	-1.3634666196	-0.4906703231	 0.0322282592	 0.046724
C	-2.1355675807	-0.0443071053	-1.2265062219	-0.190347
C	-3.6553118017	 0.146963126	-1.0651265892	-0.20064
C	-4.4043084848	-0.8998864211	-0.2146849358	-0.180066
C	-3.9057571379	-2.3510110405	-0.3300235033	-0.181348
C	-2.7080962851	-2.6640794103	 0.5826822449	-0.195827
C	-1.366458973	-2.0215938048	 0.2030414392	-0.192104
H	 0.9783305789	 1.7303096178	-0.1994901507	 0.285501
H	 0.5762525832	-0.4023508142	-0.9248350788	 0.08042
H	 0.6374340997	-0.3658932427	 0.8496256532	 0.080936
H	-1.8141557407	-0.0238148277	 0.9195937134	 0.075444
H	-1.7128501923	 0.9027471115	-1.5744943641	 0.10827
H	-1.9396437192	-0.7779720533	-2.0202733093	 0.082712
H	-3.8473655309	 1.1364431979	-0.632343822	 0.097279
H	-4.0948078186	 0.1736484515	-2.0702075656	 0.090097
H	-4.359191229	-0.6122159785	 0.8438886901	 0.092204
H	-5.4663823463	-0.8559717981	-0.4830641767	 0.086972
H	-4.7239738538	-3.0245958534	-0.048224662	 0.08872
H	-3.6638570395	-2.5928056041	-1.3738596392	 0.089194
H	-2.972426951	-2.3612479817	 1.605649499	 0.091665
H	-2.5613619074	-3.7507780911	 0.6202554539	 0.08698
H	-1.0064909068	-2.4696205454	-0.7344793017	 0.089579
H	-0.6322676128	-2.3009306897	 0.9706746307	 0.084512
80.677	123.32	133.0902	187.6014	237.6016	256.2205	282.0913	338.3528	355.0017	427.19	455.6931	504.7708	552.1034	739.7513	766.1953	822.5616	852.4727	866.0833	889.1306	949.8011	970.6071	1018.3279	1028.1	1043.5372	1059.1295	1065.8314	1098.6408	1131.9947	1139.8208	1188.7989	1223.0668	1228.012	1247.2386	1259.9622	1283.3391	1304.2496	1312.3974	1335.98	1349.0825	1373.2025	1383.5058	1386.1948	1389.4843	1401.7753	1412.9595	1455.0976	1481.3962	1482.8023	1487.5596	1492.4753	1500.865	1509.563	1519.8208	2955.3331	2984.9608	2998.5439	3004.3118	3005.3548	3012.8473	3014.6938	3017.9094	3021.6045	3038.4094	3044.1853	3050.4316	3056.218	3063.3711	3084.3981	3835.4987
OCC1CCCCCC1	OCC1CCCCCC1	
InChI=1S/C8H16O/c9-7-8-5-3-1-2-4-6-8/h8-9H,1-7H2	InChI=1S/C8H16O/c9-7-8-5-3-1-2-4-6-8/h8-9H,1-7H2
