20
gdb 108689	2.08429	1.36163	0.88576	5.5914	87.79	-0.2014	-0.0247	0.1768	1344.4015	0.171506	-403.187697	-403.178343	-403.177399	-403.222433	33.956	
C	-0.2731793045	 1.5550804254	-0.1113131026	-0.377076
C	 0.047391077	 0.0554605989	 0.035955948	-0.303972
C	 0.7937962784	-0.5029997356	-1.1389824492	 0.296767
C	 2.0957393533	-0.9000330174	-1.235731546	 0.091956
C	 2.352989187	-1.4123970753	-2.6417166795	-0.305554
C	 1.0916940351	-0.9455724872	-3.4078267978	-0.177043
N	 0.1254720265	-0.686714042	-2.3267566849	-0.328046
C	 3.0856880814	-0.9250173003	-0.1957609354	 0.045124
O	 4.233022933	-1.3159537257	-0.3438665887	-0.31678
H	 0.645969016	 2.1399933501	-0.2069021806	 0.135223
H	-0.8913032338	 1.7565751235	-0.9923460208	 0.113137
H	-0.8193236477	 1.9158009018	 0.7646842029	 0.126778
H	 0.6297322485	-0.1047017119	 0.9454706633	 0.130734
H	-0.8862614597	-0.5087011718	 0.1545908273	 0.119998
H	 3.2771817355	-1.0202855076	-3.0722617036	 0.126143
H	 2.4415743392	-2.5057585837	-2.6463049882	 0.119216
H	 1.2895050431	-0.0242431194	-3.973488129	 0.106986
H	 0.7046435198	-1.6940373238	-4.1040587956	 0.115433
H	-0.6967404856	-0.1365480862	-2.5229595336	 0.242092
H	 2.7486399974	-0.5456562616	 0.7960757539	 0.038881
46.6358	126.276	141.6288	172.8436	185.2145	219.1292	295.2582	330.385	369.6762	472.7008	531.6401	596.4222	683.307	710.5163	782.485	798.3639	876.8425	950.1354	955.3479	1011.0131	1021.9426	1055.2152	1074.117	1081.4849	1114.6978	1189.9211	1228.69	1262.599	1289.2659	1320.443	1327.5407	1345.5888	1367.2783	1410.841	1431.3126	1479.0194	1488.9694	1497.3516	1498.2156	1506.9648	1529.0769	1658.9309	1743.9366	2855.2226	3001.868	3031.6342	3034.8582	3040.3623	3084.9794	3098.1723	3099.6172	3117.8977	3122.8556	3615.6614
CCC1=C(CCN1)C=O	CCC1=C(CCN1)C=O	
InChI=1S/C7H11NO/c1-2-7-6(5-9)3-4-8-7/h5,8H,2-4H2,1H3	InChI=1S/C7H11NO/c1-2-7-6(5-9)3-4-8-7/h5,8H,2-4H2,1H3
