18
gdb 62737	2.56515	1.54254	1.25706	1.9879	74.31	-0.2436	0.0112	0.2548	1069.4126	0.145199	-439.055583	-439.04649	-439.045546	-439.088729	34.462	
C	-0.0113037048	 1.5420220824	 0.0471313098	-0.462126
C	 0.0518849677	 0.0272208534	 0.0645644935	 0.23387
C	-1.1732039678	-0.6652995539	-0.5134204211	-0.451941
C	 1.3340503549	-0.7255290154	-0.1665421391	-0.05703
O	 2.4606155108	 0.0177203521	 0.3786310352	-0.269809
C	 1.9460512665	-0.1146626797	 1.6678399519	 0.355778
N	 2.4610448512	 0.1236899194	 2.7851321089	-0.560661
C	 0.6757439387	-0.76219413	 1.2174227119	 0.23192
O	-0.0569396794	-1.6731462604	 1.9315916643	-0.447324
H	 0.9188244563	 1.9924378372	 0.3980997843	 0.139309
H	-0.196095828	 1.9008506787	-0.9715250049	 0.118381
H	-0.8289198123	 1.8991716345	 0.681773962	 0.125895
H	-1.3527484299	-0.3139247332	-1.534699901	 0.120256
H	-1.0598531396	-1.7519760134	-0.5333251633	 0.128453
H	-2.0606567859	-0.4392559584	 0.085631304	 0.135202
H	 1.5503245298	-1.4715020543	-0.9193297843	 0.124297
H	 3.4028507365	 0.507143593	 2.6893600988	 0.233626
H	 0.5540454852	-2.2079392518	 2.4525919191	 0.301904
116.6243	180.7534	185.733	194.6378	226.8288	264.9761	300.5556	337.5595	348.3286	414.3572	527.6372	537.8412	618.3327	691.4723	737.2867	767.2681	865.0888	899.1116	927.6089	937.5479	969.0369	971.9774	999.0857	1022.5518	1075.4343	1151.1727	1181.3325	1228.0479	1282.8817	1308.6264	1349.8717	1406.9827	1423.5626	1459.8738	1479.1246	1486.6736	1501.5121	1514.5229	1825.3259	3035.9486	3040.553	3096.3523	3105.6255	3122.0617	3134.9109	3212.2174	3479.7908	3790.3999
CC1(C)C2OC(=N)C12O	CC1(C)[C@H]2O[C]([NH])[C@@]12O	
InChI=1S/C6H9NO2/c1-5(2)3-6(5,8)4(7)9-3/h3,7-8H,1-2H3	InChI=1S/C6H9NO2/c1-5(2)3-6(5,8)4(7)9-3/h3,7-8H,1-2H3/t3-,6-/m1/s1
