15
gdb 66990	2.55572	2.04586	1.57547	2.1681	63.45	-0.2325	-0.0297	0.2028	865.4275	0.113397	-457.757679	-457.750784	-457.74984	-457.788842	27.235	
O	 0.0031709559	 1.392847415	-0.0660399966	-0.475798
C	 0.0181033311	 0.0199291976	-0.0318824905	 0.280556
C	-1.2187133872	-0.9093623382	 0.0997102777	-0.185545
C	-0.7781526282	-2.1624864585	 0.8655709728	-0.241574
C	 0.6638550245	-2.1772377076	 0.2962644468	-0.076472
O	 0.4664721186	-2.060043973	-1.123210156	-0.25878
C	-0.3774929757	-0.9115589815	-1.1510919094	 0.026539
C	 1.0982830349	-0.7385624701	 0.6649550382	 0.383263
O	 1.9908753938	-0.2989041772	 1.3403093181	-0.348769
H	 0.6555821818	 1.6840933289	 0.5868597129	 0.300704
H	-2.2186618881	-0.49801274	 0.1151596196	 0.11552
H	-0.7935890715	-2.0437194146	 1.9524985933	 0.121758
H	-1.3432364233	-3.0551841312	 0.583921962	 0.119956
H	 1.3344774174	-2.9966884812	 0.5347556962	 0.109613
H	-0.6999038738	-0.5931921486	-2.131905205	 0.129029
119.5648	202.5624	265.0638	303.691	403.2352	471.7536	516.887	584.0939	635.219	673.7586	778.5189	802.6295	863.6989	879.7246	901.9807	919.1417	929.0724	973.3234	995.9605	1035.784	1054.5275	1088.2198	1128.679	1157.1455	1195.6917	1234.2239	1276.7692	1293.9167	1326.191	1379.2923	1474.9873	1490.9219	1869.3349	3059.3032	3112.8065	3184.6676	3218.0886	3232.4656	3742.5336
OC12C3CC(OC13)C2=O	O[C@@]12[C@@H]3C[C@@H](O[C@H]13)C2=O	
InChI=1S/C6H6O3/c7-4-3-1-2-5(9-3)6(2,4)8/h2-3,5,8H,1H2	InChI=1S/C6H6O3/c7-4-3-1-2-5(9-3)6(2,4)8/h2-3,5,8H,1H2/t2-,3-,5+,6-/m1/s1
