17
gdb 47673	2.25464	1.68217	1.05305	5.3647	71.03	-0.2508	0.0027	0.2535	1110.9723	0.137962	-455.183405	-455.175298	-455.174353	-455.216703	30.231	
N	-0.0166457759	 1.366732236	 0.2062385812	-0.460824
C	 0.008370981	 0.1227558668	-0.0190990451	 0.344622
C	-1.2821614514	-0.6644545287	-0.0827912892	-0.36511
C	-1.6450810032	-1.3062615446	-1.427599138	 0.369464
O	-2.658292799	-1.018737497	-2.0295417525	-0.349475
N	-0.7703390259	-2.2532424642	-1.8831213682	-0.294402
C	 0.4677535651	-2.6476326502	-1.2376561129	-0.190766
C	 1.4732740976	-1.5067205208	-1.0959400256	-0.067576
O	 1.1972071603	-0.5670219003	-0.0577277494	-0.252531
H	 0.9394650576	 1.7271379147	 0.250120674	 0.22256
H	-1.2393054873	-1.455168782	 0.6778495943	 0.133795
H	-2.0932450387	 0.0170072251	 0.1624783139	 0.16315
H	-1.0357402229	-2.6893092379	-2.7528809468	 0.253447
H	 0.2840769527	-3.0979090895	-0.2524036866	 0.127763
H	 0.9279194297	-3.4212565397	-1.8584969756	 0.126108
H	 2.4519014574	-1.9182029825	-0.8331094009	 0.123852
H	 1.5624264128	-0.9816666652	-2.0566038925	 0.115921
59.5149	102.9026	135.8425	296.9546	314.5032	383.1931	437.4426	466.752	494.273	536.1455	591.8043	628.3503	676.9012	818.598	856.3266	903.7336	938.608	977.5255	993.2096	1028.0432	1088.4955	1129.4791	1145.9822	1190.4178	1275.9283	1296.8878	1306.9446	1318.3827	1365.4724	1401.9379	1426.2414	1456.4146	1464.133	1490.5718	1494.5124	1740.6922	1806.9532	3012.6886	3022.662	3033.2962	3093.8359	3098.6222	3170.4301	3459.4405	3627.2602
N=C1CC(=O)NCCO1	[NH][C]1CC(=O)NCCO1	
InChI=1S/C5H8N2O2/c6-4-3-5(8)7-1-2-9-4/h6H,1-3H2,(H,7,8)	InChI=1S/C5H8N2O2/c6-4-3-5(8)7-1-2-9-4/h6H,1-3H2,(H,7,8)
