19
gdb 8225	4.96505	1.06749	1.00903	3.3329	71.97	-0.2429	0.035	0.278	1217.5767	0.165407	-365.092511	-365.083622	-365.082678	-365.127899	31.701	
N	 0.0388150787	 1.2253661536	 0.4150125649	-0.523298
C	 0.1846365535	-0.0912967598	 0.0785571324	 0.417604
O	 1.2767964062	-0.6163468721	-0.0217494832	-0.361154
C	-1.1248634	-0.8420462208	-0.1684331501	-0.354727
C	-0.9880790408	-2.3368649743	 0.0742245875	 0.088024
C	-0.9042202493	-2.869143354	 1.5327354005	-0.217575
C	-1.7759405206	-4.0773993731	 1.0953504435	-0.208363
C	-2.2227659052	-3.2542146906	-0.1436748817	-0.246952
H	 0.8687854294	 1.7906967339	 0.4896975977	 0.258302
H	-0.8566502883	 1.6807305446	 0.4176785137	 0.255727
H	-1.9282017913	-0.4196874921	 0.4490078507	 0.094368
H	-1.4106919593	-0.6583548269	-1.2143356707	 0.124134
H	-0.1305852766	-2.7036315269	-0.495810117	 0.096203
H	 0.0884840436	-3.0663549178	 1.9418545681	 0.107748
H	-1.445316814	-2.2167940754	 2.2275822464	 0.089067
H	-1.1616549715	-4.9357025962	 0.8087540613	 0.103725
H	-2.5522114773	-4.4217360855	 1.7826079735	 0.092669
H	-3.158992877	-2.7185875793	 0.0494913123	 0.09074
H	-2.3123691002	-3.7708143474	-1.1029818497	 0.093757
14.8353	68.1659	116.1334	155.0907	174.0661	322.9685	348.5577	430.4306	508.3652	590.3341	638.8776	674.1572	768.1943	794.4411	852.0087	885.1552	904.793	932.4709	966.7755	978.7706	1051.3499	1077.9954	1117.0363	1147.9625	1196.6621	1215.0708	1250.705	1255.0018	1261.4045	1266.3575	1287.5019	1304.9842	1363.675	1409.1949	1458.9359	1477.1942	1485.6262	1509.3279	1616.0517	1795.5523	3008.5655	3038.4812	3042.6701	3045.8769	3058.3172	3079.2327	3095.7923	3105.9551	3119.5756	3600.5669	3737.9717
NC(=O)CC1CCC1	NC(=O)CC1CCC1	
InChI=1S/C6H11NO/c7-6(8)4-5-2-1-3-5/h5H,1-4H2,(H2,7,8)	InChI=1S/C6H11NO/c7-6(8)4-5-2-1-3-5/h5H,1-4H2,(H2,7,8)
