19
gdb 117245	2.96209	0.91258	0.8358	3.6649	74.24	-0.25	-0.0328	0.2172	1484.718	0.155486	-460.141818	-460.131628	-460.130684	-460.178533	34.997	
C	 0.7035334368	 1.6181153211	-0.5681230929	-0.229304
O	 0.5969199578	 0.3480409034	-1.1725157654	-0.232102
C	 0.6098559422	-0.7057024747	-0.2425651898	-0.153364
C	 0.5284498731	-2.0621833142	-0.9416833658	 0.319881
O	 0.2783809909	-3.0549468348	-0.2984215431	-0.308193
C	 0.7858132241	-2.0785853948	-2.4213017478	-0.045354
O	 1.0791644162	-3.3447315664	-3.0077083386	-0.236375
C	-0.1578131197	-2.7475084518	-3.3606528317	 0.089105
C	-1.4195562996	-3.4515458666	-2.9393707971	-0.433291
H	-0.1333082993	 1.8099212952	 0.1204700035	 0.112878
H	 1.6441589684	 1.7208049512	-0.0054767905	 0.112412
H	 0.6838955995	 2.3616372494	-1.3678192921	 0.134332
H	 1.5349183518	-0.69881694	 0.3614338495	 0.121093
H	-0.2316950772	-0.6409383306	 0.4648181244	 0.123515
H	 1.3641748767	-1.2405272549	-2.8009834778	 0.112857
H	-0.1718361134	-2.3270296224	-4.368931963	 0.098074
H	-1.3407036958	-3.8124649463	-1.9133558784	 0.162692
H	-2.2781700365	-2.7771715625	-3.0261389702	 0.120326
H	-1.5989166059	-4.3075472201	-3.5983796633	 0.130818
36.4631	47.0022	94.1223	146.6274	175.0445	207.9744	225.7402	263.1519	331.7627	374.8219	440.7048	455.7772	616.9487	652.0029	771.1222	827.9254	871.0176	978.1593	992.5489	1011.6633	1045.8692	1080.7101	1128.8991	1165.6554	1168.6588	1182.347	1190.9163	1229.8997	1246.4541	1281.7731	1382.4103	1390.1459	1411.555	1447.5328	1468.85	1485.3894	1489.2436	1491.2418	1502.8098	1513.7205	1806.4738	2953.1155	2979.0148	3003.2609	3027.2385	3041.0843	3082.8012	3101.2876	3122.6229	3153.4271	3155.4391
COCC(=O)C1OC1C	COCC(=O)[C@H]1O[C@H]1C	
InChI=1S/C6H10O3/c1-4-6(9-4)5(7)3-8-2/h4,6H,3H2,1-2H3	InChI=1S/C6H10O3/c1-4-6(9-4)5(7)3-8-2/h4,6H,3H2,1-2H3/t4-,6-/m0/s1
