16
gdb 34601	4.00353	1.25247	1.03809	1.9668	78.46	-0.2455	-0.0208	0.2247	1134.4916	0.124545	-400.706342	-400.69866	-400.697716	-400.738714	29.495	
C	 0.1788875648	-1.0843680965	 0.3673079382	-0.352008
C	 0.0573067259	 0.0881554128	 0.135655489	 0.27832
C	-0.0816958922	 1.4892798755	-0.1449936647	 0.209518
N	-1.1230903169	 2.1182487393	 0.2139337649	-0.315425
C	-1.2863697481	 3.5261922703	-0.1114409163	-0.188435
C	-0.0784541042	 4.2121288256	-0.7239675369	-0.070764
C	 1.2164104458	 4.3033773619	 0.059750499	-0.317753
C	 1.0804012802	 3.3348257646	-1.0816405737	 0.103588
O	 1.0204440726	 1.9548213484	-0.8020418012	-0.253202
H	 0.2765571063	-2.1210926551	 0.5770236572	 0.201949
H	-2.1290112197	 3.596045107	-0.8121015785	 0.124752
H	-1.6152639445	 4.0428927914	 0.7998688438	 0.117866
H	-0.3021154943	 5.0284679563	-1.4034007355	 0.096706
H	 1.8526151933	 5.1707182001	-0.0754470025	 0.121447
H	 1.2255585584	 3.8819585064	 1.0601381936	 0.133039
H	 1.6375094027	 3.492395002	-1.9970471763	 0.1104
71.9509	155.9003	161.3361	283.2407	360.4527	406.3942	490.2451	507.3059	574.8286	643.9669	661.6456	699.2202	716.6482	766.6438	820.8774	824.9385	923.7011	926.6365	1001.1392	1035.0964	1054.356	1074.6975	1125.7945	1136.5138	1188.0437	1219.7943	1240.9352	1271.218	1364.1477	1368.0459	1412.7094	1477.1825	1488.8254	1718.6364	2246.5456	3013.1047	3035.2136	3132.7615	3155.7026	3186.4396	3223.6604	3502.2987
C#CC1=NCC2CC2O1	C#CC1=NC[C@H]2C[C@H]2O1	
InChI=1S/C7H7NO/c1-2-7-8-4-5-3-6(5)9-7/h1,5-6H,3-4H2	InChI=1S/C7H7NO/c1-2-7-8-4-5-3-6(5)9-7/h1,5-6H,3-4H2/t5-,6-/m1/s1
