21
gdb 53613	4.09384	0.72479	0.64792	1.6312	88.3	-0.2331	0.061	0.2941	1798.1849	0.180436	-387.052186	-387.041611	-387.040667	-387.091288	36.296	
C	-0.069518154	 1.4950845116	-0.0520739272	-0.497254
C	-0.0099376489	 0.0403879782	-0.0458654224	 0.124921
C	 0.0427557148	-1.1621955369	-0.0483219305	 0.022002
C	 0.0808277402	-2.6201790623	-0.0413136673	-0.377766
C	-1.3029787299	-3.2424754403	 0.1690524242	 0.151952
O	-2.1755629537	-3.0528889214	-0.9651447109	-0.28557
C	-2.4516294613	-4.4642310375	-1.0562138695	-0.073406
C	-1.4666697245	-4.7888932297	 0.0890466917	-0.057891
C	-0.2613933274	-5.6495310011	-0.2685670463	-0.405057
H	 0.9159594901	 1.9362221074	 0.1353831859	 0.143989
H	-0.4239799815	 1.8750048821	-1.0167050097	 0.147812
H	-0.7506607152	 1.8696308346	 0.7201987289	 0.14539
H	 0.5017563716	-2.9886518293	-0.983912046	 0.126296
H	 0.7434278836	-2.9738337042	 0.7611180266	 0.121924
H	-1.7484282675	-2.8092932374	 1.074853331	 0.078843
H	-3.5063246171	-4.691048924	-0.8542683567	 0.097814
H	-2.1851831931	-4.871060851	-2.0407575107	 0.097429
H	-1.9569994482	-5.1962663679	 0.9771078965	 0.07941
H	 0.2358304545	-5.2979794916	-1.1780438965	 0.123302
H	 0.4792537655	-5.6627241356	 0.5380215914	 0.119467
H	-0.5736280281	-6.684495034	-0.4445492827	 0.116394
8.5458	35.2864	53.1846	78.8916	192.2261	211.3284	253.5522	267.8357	356.3753	374.4733	384.043	460.9914	502.0401	739.4648	772.7537	828.2651	881.9698	899.7473	924.6313	1002.2967	1020.783	1051.8543	1053.4054	1056.9521	1116.7671	1139.6423	1156.8717	1170.3489	1189.2683	1230.2984	1262.2969	1285.1666	1319.0921	1362.4801	1381.993	1397.3667	1414.6627	1415.8836	1456.6074	1478.7033	1479.9102	1498.3576	1501.8804	1529.3802	2376.2545	3002.0354	3008.7387	3011.9207	3025.3401	3032.6175	3042.7508	3060.9305	3069.1547	3084.4706	3085.9915	3096.5547	3107.4884
CC#CCC1OCC1C	CC#CC[C@H]1OC[C@H]1C	
InChI=1S/C8H12O/c1-3-4-5-8-7(2)6-9-8/h7-8H,5-6H2,1-2H3	InChI=1S/C8H12O/c1-3-4-5-8-7(2)6-9-8/h7-8H,5-6H2,1-2H3/t7-,8-/m1/s1
