17
gdb 64884	3.58088	0.94493	0.84996	0.6355	70.74	-0.2588	-0.0519	0.2069	1334.9811	0.132818	-458.967245	-458.958231	-458.957287	-459.001995	32.459	
O	 0.3017548695	 1.4573650126	-0.3455040356	-0.475024
C	-0.0401949006	 0.1705116843	 0.0566310743	 0.350046
C	 0.112637345	-0.1229028326	 1.5881615226	-0.319152
C	-1.3852524331	-0.559832693	 1.6837294099	-0.07043
C	-1.5754260732	-0.1085778373	 0.1992510056	-0.319213
C	-1.5850987751	-2.0328356296	 1.9117588501	 0.162511
O	-2.2878144514	-2.5116248911	 2.7631718062	-0.247017
C	 0.667412413	-0.8421501586	-0.8140605333	 0.106508
O	 1.4057869641	-0.5071885475	-1.7086197287	-0.272794
H	 0.9143009038	 1.3517641278	-1.0921402202	 0.293808
H	 0.8608482532	-0.866891379	 1.8781535053	 0.116505
H	 0.3139047184	 0.8062219101	 2.1222818337	 0.142424
H	-1.9827596578	-0.0159499806	 2.4156845965	 0.105429
H	-2.1288553108	 0.8269591774	 0.1123089778	 0.142402
H	-2.0115682202	-0.8425371542	-0.485240334	 0.11648
H	-1.0150080958	-2.6911501067	 1.2101576129	 0.065086
H	 0.474974341	-1.911226162	-0.590898623	 0.102431
44.2796	70.0086	109.5058	238.4332	260.5836	299.71	335.112	379.0435	397.3335	402.0497	514.0659	564.7404	778.5706	804.1509	830.8764	850.8327	901.6665	926.3219	928.735	989.9758	1044.3768	1080.693	1104.0814	1121.2258	1197.4684	1229.2272	1250.3939	1253.5524	1299.3278	1328.8943	1389.1582	1432.3627	1445.1837	1453.6713	1472.3721	1809.1193	1833.7202	2822.3402	2931.7928	3058.0748	3058.9989	3109.961	3137.0029	3138.9721	3672.2289
OC1(CC(C1)C=O)C=O	O[C@]1(C[C@@H](C1)C=O)C=O	
InChI=1S/C6H8O3/c7-3-5-1-6(9,2-5)4-8/h3-5,9H,1-2H2	InChI=1S/C6H8O3/c7-3-5-1-6(9,2-5)4-8/h3-5,9H,1-2H2/t5-,6-
