17
gdb 54165	3.20546	1.10429	0.97444	3.7391	76.87	-0.2479	0.0019	0.2498	1238.1024	0.134121	-417.988535	-417.978898	-417.977954	-418.022863	35.434	
C	 0.3195545801	 1.4095184765	-0.4235883774	-0.49078
C	 0.1004391317	-0.0453209788	-0.0756063442	 0.204703
N	 1.3020460697	-0.8781583533	 0.0261104171	-0.352015
C	 0.552022947	-0.5955948616	 1.2609898527	-0.282446
C	 1.1596648286	 0.2420203272	 2.2567144704	 0.357774
C	 1.6368067866	 0.9440179784	 3.108454915	-0.404106
C	-1.1082721898	-0.7783587338	-0.6247852481	 0.377167
N	-2.0953809487	-0.0101408438	-1.1536762525	-0.542015
O	-1.1723024934	-1.9972701758	-0.5883215946	-0.382944
H	 1.2621349923	 1.750831192	 0.0057665646	 0.155477
H	 0.3685672398	 1.5500562295	-1.5085461574	 0.127482
H	-0.4760849002	 2.0464603044	-0.0197243193	 0.118384
H	 1.0387204346	-1.8180881316	-0.2755998887	 0.251758
H	-0.0628894477	-1.4058388172	 1.644999999	 0.13105
H	 2.0703150452	 1.5548008571	 3.8612440251	 0.197771
H	-2.051620029	 0.9922186912	-1.1754317972	 0.265611
H	-2.9151099467	-0.4725469503	-1.5106516545	 0.267129
69.4507	122.2547	133.878	170.7987	216.8786	255.2024	298.0188	331.1771	367.0336	435.5934	504.6433	556.5506	575.518	613.5255	622.7431	656.4946	700.5865	761.4183	833.9244	869.9879	953.8217	1013.1608	1075.2712	1085.3847	1105.4532	1120.0562	1245.289	1250.1268	1340.9801	1391.5776	1416.8295	1427.2094	1490.3732	1498.835	1616.2583	1771.2142	2238.9959	3031.3057	3093.4284	3143.7938	3144.4641	3454.4499	3503.4398	3613.6021	3751.1855
CC1(NC1C#C)C(N)=O	C[C@]1(N[C@H]1C#C)C(=O)N	
InChI=1S/C6H8N2O/c1-3-4-6(2,8-4)5(7)9/h1,4,8H,2H3,(H2,7,9)	InChI=1S/C6H8N2O/c1-3-4-6(2,8-4)5(7)9/h1,4,8H,2H3,(H2,7,9)/t4-,6+/m0/s1
