18
gdb 34971	4.16296	1.36566	1.30154	1.3428	81.05	-0.2336	0.0408	0.2745	1017.9214	0.149913	-364.723675	-364.716862	-364.715917	-364.754679	28.433	
C	-0.1558644838	-1.3096143625	-0.1685754321	-0.449714
C	-0.0773825872	-0.1132351501	-0.0697606821	 0.302012
C	 0.0211029296	 1.3250897342	 0.0402792363	-0.167096
C	-0.0826192082	 2.0517775787	 1.4166841763	-0.018231
C	 0.9859327137	 1.3285953942	 2.2615554291	-0.232489
C	 2.1571711912	 1.8294202952	 1.3913316559	-0.058881
C	 1.9798201536	 3.3487329616	 1.5744437904	-0.166537
N	 0.7101230181	 3.2204157176	 0.7795190612	-0.160071
C	 1.3720649387	 2.0592114836	 0.0369033677	-0.01315
H	-0.2281597275	-2.3652213957	-0.2582730856	 0.194817
H	-0.6327567869	 1.8236795407	-0.6816543595	 0.117209
H	-1.0469540726	 2.2967973288	 1.8578665661	 0.080517
H	 1.0509998018	 1.6816133373	 3.2939839161	 0.096695
H	 0.8486428626	 0.2458156168	 2.2632827616	 0.117662
H	 3.1176933846	 1.3179256637	 1.4541902244	 0.067281
H	 1.882841478	 3.7497085954	 2.5887037952	 0.098768
H	 2.6802632448	 3.9610223232	 0.9991374704	 0.107895
H	 1.9339189595	 2.2761362974	-0.8719320613	 0.083312
127.008	153.3989	357.6191	383.0504	481.4442	510.8258	543.2012	627.0296	638.9623	709.2623	724.9343	746.8565	820.8991	844.355	878.6965	906.6489	935.4534	967.3307	970.468	980.0342	999.6428	1018.3528	1059.0994	1094.1609	1111.4414	1139.6344	1159.9293	1185.0526	1192.7303	1243.6429	1245.0933	1264.2905	1278.4791	1302.7441	1329.2191	1351.5304	1496.4979	1518.8952	2232.6871	3043.6676	3068.3136	3069.5115	3101.8248	3109.4352	3118.7189	3123.1623	3135.933	3503.0575
C#CC1C2CC3CN2C13	C#C[C@H]1[C@H]2C[C@@H]3CN2[C@H]13	
InChI=1S/C8H9N/c1-2-6-7-3-5-4-9(7)8(5)6/h1,5-8H,3-4H2	InChI=1S/C8H9N/c1-2-6-7-3-5-4-9(7)8(5)6/h1,5-8H,3-4H2/t5-,6+,7-,8+/m1/s1
