18
gdb 61293	4.49862	0.75287	0.67843	3.9721	75.09	-0.2369	0.0273	0.2642	1602.5185	0.145374	-439.089989	-439.079917	-439.078973	-439.125831	36.641	
N	 0.5339212207	 0.1387632848	 0.9085297171	-0.509189
C	-0.115874524	 0.2409774639	-0.2813433849	 0.361783
O	 0.1645550391	 1.0670078458	-1.1293582799	-0.363549
C	-1.2696444826	-0.7510623487	-0.4791697452	-0.288853
C	-1.0143264311	-2.1833960473	-0.0097171675	 0.09437
O	-0.9804643246	-2.1771102997	 1.4157275922	-0.431452
C	-2.1154670395	-3.1467426291	-0.5103967015	-0.356007
C	-1.928226727	-4.4845347975	 0.0381985337	 0.250313
C	-1.7177179093	-5.55530503	 0.544796745	-0.412469
H	 1.2899316578	 0.7765426735	 1.0938591365	 0.254557
H	 0.2738526965	-0.5693627358	 1.5779721886	 0.270832
H	-2.150824177	-0.3678870944	 0.0509693815	 0.13123
H	-1.4945485297	-0.7407760133	-1.5476644645	 0.128167
H	-0.0492480837	-2.5343638781	-0.4056662032	 0.092529
H	-0.8730494138	-3.092089726	 1.7053907331	 0.29265
H	-3.0946914914	-2.7542748215	-0.2097843376	 0.140699
H	-2.1005225375	-3.1793029311	-1.6061504679	 0.139941
H	-1.5593978128	-6.5191688455	 0.9622514345	 0.204449
36.6744	68.4022	108.3554	125.9527	229.5116	295.1433	341.7981	350.1661	356.7636	412.4117	437.9072	459.9802	538.3301	572.0472	629.4222	644.5209	664.7481	728.1114	857.5434	868.1933	898.4289	967.32	1028.1702	1050.4718	1082.8511	1142.4221	1185.5295	1242.9051	1276.5378	1307.6347	1331.8054	1367.9149	1388.1802	1436.2843	1452.5994	1463.9342	1617.5852	1799.4237	2231.0365	2990.2672	3031.5862	3042.3277	3073.8125	3119.4715	3502.8379	3566.4374	3717.4429	3770.4227
NC(=O)CC(O)CC#C	NC(=O)C[C@@H](O)CC#C	
InChI=1S/C6H9NO2/c1-2-3-5(8)4-6(7)9/h1,5,8H,3-4H2,(H2,7,9)	InChI=1S/C6H9NO2/c1-2-3-5(8)4-6(7)9/h1,5,8H,3-4H2,(H2,7,9)/t5-/m0/s1
