23
gdb 101698	3.24991	0.85577	0.76435	2.7822	82.45	-0.2585	0.0643	0.3228	1607.1595	0.202848	-425.415128	-425.404395	-425.40345	-425.451211	39.494	
C	 0.1732400927	 1.4301041612	 0.284295105	-0.380893
C	 0.0257570379	-0.0654363344	-0.0050339289	-0.189746
C	-1.433610964	-0.5402388086	 0.0048324362	 0.138706
O	-2.2265689792	 0.2140510403	-0.9150707823	-0.425749
C	-1.5456898452	-2.0553550145	-0.2388068712	-0.294164
C	-2.915638568	-2.6383572199	 0.0771424272	 0.433033
C	-4.0601315606	-2.3001905283	-0.8543779549	-0.469071
C	-2.9890703985	-3.8680875981	 0.8830048225	-0.230735
O	-3.2413206188	-2.5932594511	 1.4785909851	-0.276884
H	 1.2195224988	 1.7440737148	 0.2233971001	 0.108386
H	-0.4080639231	 2.0209225002	-0.4281291655	 0.125472
H	-0.191736645	 1.672028589	 1.2884357848	 0.117824
H	 0.4669736218	-0.3041431869	-0.9848725466	 0.082156
H	 0.5912553778	-0.6486094798	 0.7320090571	 0.099351
H	-1.8734335641	-0.3213109899	 0.9851227234	 0.108784
H	-1.8645555109	 0.0698407583	-1.7970999804	 0.274688
H	-1.2787192837	-2.2765429522	-1.2824826309	 0.085737
H	-0.8023086673	-2.5576730586	 0.3896945876	 0.100066
H	-3.8608306913	-2.6877762293	-1.860344086	 0.108602
H	-4.9891126231	-2.7462832951	-0.4904538117	 0.118596
H	-4.1852199782	-1.2183676426	-0.9299130579	 0.152896
H	-3.8573407402	-4.5206076688	 0.7930847634	 0.107838
H	-2.0740583377	-4.3639783156	 1.2066568041	 0.105107
50.3228	71.8763	120.2421	146.5153	203.4738	222.4742	260.786	296.0094	321.4516	339.671	376.8676	402.2052	446.4402	472.4658	568.496	731.5696	779.0383	837.4863	855.4837	905.1401	917.0701	931.7842	981.2927	1019.7972	1041.6237	1075.2281	1091.0331	1112.448	1137.2895	1141.0485	1159.5865	1194.7557	1264.295	1289.1386	1292.9208	1347.5693	1369.0756	1387.3039	1402.4571	1406.435	1420.2936	1428.0806	1462.1054	1480.7527	1484.9423	1494.6953	1506.5662	1508.7656	1532.551	2994.8491	3007.7869	3037.5823	3038.8713	3046.5161	3055.7079	3073.0369	3074.3519	3103.5752	3107.6479	3122.8491	3141.4968	3157.2413	3789.5666
CCC(O)CC1(C)CO1	CC[C@@H](O)C[C@@]1(C)CO1	
InChI=1S/C7H14O2/c1-3-6(8)4-7(2)5-9-7/h6,8H,3-5H2,1-2H3	InChI=1S/C7H14O2/c1-3-6(8)4-7(2)5-9-7/h6,8H,3-5H2,1-2H3/t6-,7+/m1/s1
