22
gdb 119104	1.81491	1.03216	0.71739	1.4535	92.41	-0.2307	0.0512	0.282	1688.0791	0.192111	-367.170325	-367.159378	-367.158433	-367.208672	38.431	
C	 0.0958634662	 1.6422734918	-0.0701767189	-0.381816
C	 0.2466833794	 0.122734585	 0.0339507678	-0.161049
C	 0.5256402316	-0.5401759029	-1.3212703076	-0.260525
C	 0.6614346974	-2.0566750978	-1.2429156881	 0.092436
C	 1.6164567809	-2.7341768888	-2.1718038138	-0.27646
N	 1.9433849522	-2.6261437469	-0.744339309	-0.335406
C	-0.5281991688	-2.7618333586	-0.824180796	 0.086788
C	-1.5427975007	-3.3233270204	-0.4977830154	 0.09079
C	-2.7568027968	-4.0183680448	-0.0947057294	-0.50197
H	 1.0043093192	 2.1079161048	-0.4692404883	 0.111011
H	-0.7318465142	 1.9135293618	-0.7350836997	 0.114903
H	-0.1036111995	 2.0896787088	 0.9083685171	 0.113548
H	 1.0578631783	-0.1220842503	 0.7315648367	 0.096916
H	-0.6628000667	-0.3150908949	 0.460609889	 0.113948
H	-0.2821228087	-0.292387331	-2.0218223392	 0.105633
H	 1.4490554076	-0.1298550587	-1.7524366412	 0.085315
H	 1.4017057895	-3.7418523478	-2.5139287847	 0.123759
H	 2.147342039	-2.1099376625	-2.8867804434	 0.109781
H	 2.6026190467	-1.8632022495	-0.6011895274	 0.228144
H	-3.0175875667	-4.8119355964	-0.8038882582	 0.147299
H	-2.6402179611	-4.480625565	 0.8918462682	 0.150543
H	-3.6085489845	-3.331391536	-0.0394465386	 0.146411
12.2262	61.623	86.7184	113.7993	130.529	183.1597	244.5315	284.4049	309.6347	335.0162	355.3394	415.9146	533.6588	566.4775	643.2193	745.5148	807.5604	871.317	882.8994	901.3552	957.2348	977.7423	1018.1305	1052.3505	1053.9091	1054.5207	1108.7381	1115.1225	1124.7302	1148.0847	1249.9033	1254.1227	1297.4056	1322.9294	1326.6958	1388.8089	1397.7563	1413.095	1414.9532	1474.7928	1477.4157	1479.0302	1492.8554	1499.9597	1505.3103	1510.3667	2368.8092	3008.5379	3025.2604	3025.4623	3028.2272	3047.3135	3068.5374	3085.1662	3086.6681	3095.6389	3102.2333	3105.1349	3196.9936	3481.9563
CCCC1(CN1)C#CC	CCC[C@]1(CN1)C#CC	
InChI=1S/C8H13N/c1-3-5-8(6-4-2)7-9-8/h9H,3,5,7H2,1-2H3	InChI=1S/C8H13N/c1-3-5-8(6-4-2)7-9-8/h9H,3,5,7H2,1-2H3/t8-/m1/s1
