17
gdb 128489	2.09526	1.76742	1.00129	1.8903	72.17	-0.206	0.0301	0.2362	1165.3375	0.135359	-455.155717	-455.146243	-455.145299	-455.19023	33.514	
C	 0.1331725127	 1.3484066261	-0.3839114836	-0.257323
O	 0.0479690424	 0.0618624686	 0.224270943	-0.283781
C	-1.1710572148	-0.5381934001	 0.1226975999	 0.107223
C	-1.9090612435	-1.0408124152	 1.1797623584	 0.28761
C	-1.6181750437	-1.0272210634	 2.6411092608	-0.506962
N	-3.009125193	-1.6077573253	 0.6197447085	-0.283453
N	-3.0437664114	-1.5005556704	-0.7352337994	-0.329795
C	-1.9276284256	-0.8591108409	-1.0333771896	 0.334153
O	-1.5884467134	-0.5539079484	-2.3070589379	-0.436192
H	 1.1554739705	 1.6983354132	-0.2256145578	 0.12612
H	-0.0739357683	 1.2959278115	-1.4579938326	 0.141813
H	-0.5693933338	 2.0517265663	 0.0826063635	 0.109252
H	-2.432520717	-0.5724114847	 3.2164537548	 0.131343
H	-1.4529880338	-2.0357472175	 3.0380579473	 0.136135
H	-0.7098794613	-0.4463696803	 2.8146217279	 0.152979
H	-3.7562642693	-2.0908996714	 1.0853690765	 0.269007
H	-2.2964019866	-0.8863759982	-2.8734096397	 0.301872
63.43	104.9222	150.9202	166.7508	195.1019	251.8733	287.3696	301.8977	375.9082	383.712	469.4486	550.2323	577.8881	657.0441	709.2568	750.7805	796.3549	994.2004	1051.0573	1059.696	1065.1875	1154.0264	1181.2679	1215.1608	1228.1828	1299.3686	1323.5637	1412.3489	1451.8114	1483.1523	1485.8984	1488.66	1495.3482	1510.1247	1543.1342	1578.7505	1659.7052	3009.5207	3028.0269	3077.996	3083.7596	3129.3399	3132.2722	3690.6902	3790.7867
COC1=C(C)NN=C1O	COc1c(C)[nH]nc1O	
InChI=1S/C5H8N2O2/c1-3-4(9-2)5(8)7-6-3/h1-2H3,(H2,6,7,8)	InChI=1S/C5H8N2O2/c1-3-4(9-2)5(8)7-6-3/h1-2H3,(H2,6,7,8)
