23
gdb 82395	2.32847	1.65044	1.09404	0.2862	91.31	-0.2248	0.0335	0.2583	1201.3736	0.207255	-351.170184	-351.161418	-351.160474	-351.203119	35.164	
C	-1.0570066931	 0.8133701138	-0.0586632309	-0.390107
C	 0.0517140282	-0.257516167	-0.0917625916	-0.101425
C	 0.8904182091	-0.095075764	-1.3530472657	-0.004558
C	 1.8650403019	 1.0527902364	-1.4823551186	-0.289547
C	 2.3726600207	-0.3618694125	-1.3467584838	-0.044614
C	 3.0369004415	-0.7981591018	-0.0554269688	-0.276383
C	 2.1973033418	-0.554809062	 1.1673163142	-0.16212
C	 0.8833677604	-0.309353402	 1.1815763163	 0.329133
C	 0.1488481777	-0.1487226525	 2.4893815383	-0.48179
H	-0.6327196278	 1.8149783986	 0.0666032937	 0.117319
H	-1.613561294	 0.8048347162	-1.0014520355	 0.108938
H	-1.7727920601	 0.641595686	 0.7496652638	 0.111123
H	-0.4575797585	-1.232874862	-0.1662896567	 0.080764
H	 0.3544900108	-0.3596427357	-2.2610201697	 0.074948
H	 1.9576125316	 1.547362389	-2.4430276869	 0.103104
H	 1.9866294116	 1.7090687272	-0.6263177884	 0.111891
H	 2.7909018366	-0.808604051	-2.2441382302	 0.076047
H	 3.2711926151	-1.8722639072	-0.1144152909	 0.106624
H	 4.0098683256	-0.2988579016	 0.0584357783	 0.100984
H	 2.721956261	-0.6207568863	 2.1190102027	 0.071672
H	 0.8154571758	-0.3253472492	 3.3376624799	 0.115284
H	-0.279657566	 0.8539098712	 2.6019255065	 0.124787
H	-0.6886635498	-0.8547543037	 2.5664221041	 0.117927
71.972	196.3807	220.0177	240.9508	277.019	317.9793	324.8213	365.8339	387.2671	501.3331	509.2917	604.1755	700.6813	744.2356	765.9677	824.2124	845.2293	859.4331	918.907	943.1998	989.8216	1014.5455	1041.5192	1049.5289	1063.0508	1075.2904	1090.3505	1105.4006	1128.6632	1136.7897	1145.3303	1194.9783	1234.0536	1242.1463	1315.338	1324.3905	1361.9297	1368.7104	1393.8908	1407.2447	1414.3701	1422.1575	1479.8892	1481.349	1488.3899	1495.112	1500.2209	1508.2417	1731.5327	2958.4586	2987.1947	3010.3661	3016.3092	3036.1208	3066.3937	3101.4964	3108.1874	3114.6655	3128.07	3130.0407	3135.585	3144.7031	3213.6661
CC1C2CC2CC=C1C	C[C@H]1[C@H]2C[C@H]2CC=C1C	
InChI=1S/C9H14/c1-6-3-4-8-5-9(8)7(6)2/h3,7-9H,4-5H2,1-2H3	InChI=1S/C9H14/c1-6-3-4-8-5-9(8)7(6)2/h3,7-9H,4-5H2,1-2H3/t7-,8-,9-/m1/s1
