19
gdb 35599	2.54406	1.60056	1.19812	0.4994	87.11	-0.2276	0.0166	0.2442	1090.722	0.159797	-348.704332	-348.696352	-348.695408	-348.736811	31.665	
C	-0.1611339369	-1.2366764717	-0.0687016528	-0.493336
C	-0.114367832	-0.0351743777	-0.0291199095	 0.364039
C	-0.0588090808	 1.4196608024	 0.0279007318	-0.223162
C	-0.5232414167	 1.9638206831	 1.4394612069	-0.254491
C	 0.7817816904	 2.1692830033	 2.2008276786	-0.233592
C	 1.7860752605	 2.2573950058	 1.337708847	 0.324146
C	 3.2419464186	 1.9323512121	 1.0923920294	-0.324433
C	 2.7309999407	 1.1816901162	-0.1955955258	-0.246401
C	 1.390366355	 1.989644858	-0.0869640111	-0.039875
H	-0.2111678493	-2.2964006644	-0.1101548191	 0.194311
H	-0.7021582654	 1.819115041	-0.7636678327	 0.097489
H	-1.0902085183	 2.8969650858	 1.3176785468	 0.104348
H	-1.1881649963	 1.252471028	 1.9377041589	 0.115861
H	 0.8378405068	 2.1534714824	 3.2829146868	 0.092589
H	 3.8464473988	 2.8075973679	 0.8312025609	 0.11055
H	 3.7700900229	 1.3540866526	 1.8541225476	 0.112127
H	 3.3164213162	 1.31299312	-1.1083683358	 0.097569
H	 2.5735050752	 0.118369511	-0.0071655609	 0.125672
H	 1.4130870306	 2.8708927742	-0.7384459772	 0.076591
72.083	140.1971	208.5984	248.2562	317.4241	365.8494	447.9543	543.8982	614.7242	621.0515	638.6903	675.0187	720.0918	773.0533	809.1795	825.8154	840.5717	899.8562	920.9788	942.6614	984.1291	994.3955	1036.896	1081.8986	1094.8211	1125.0761	1173.0888	1188.7145	1198.608	1224.8794	1234.8219	1255.5815	1291.1377	1308.8612	1320.5961	1353.1566	1474.2889	1485.3066	1487.3764	1740.2825	2228.7262	3010.7295	3029.554	3045.7715	3049.4008	3070.3533	3084.2429	3103.1265	3137.7844	3198.9819	3504.0453
C#CC1CC=C2CCC12	C#C[C@H]1C[CH][C]2CC[C@@H]12	
InChI=1S/C9H10/c1-2-7-3-4-8-5-6-9(7)8/h1,4,7,9H,3,5-6H2	InChI=1S/C9H10/c1-2-7-3-4-8-5-6-9(7)8/h1,4,7,9H,3,5-6H2/t7-,9-/m0/s1
