18
gdb 63300	1.83244	1.73967	1.11025	3.3712	73.61	-0.2535	-0.032	0.2215	1144.8796	0.14474	-439.123859	-439.11436	-439.113415	-439.158563	34.468	
C	-0.0941857666	 1.517512177	 0.0571554237	-0.412727
C	-0.0205395055	-0.0084773018	 0.0711776825	 0.31749
C	-1.3919720133	-0.6422234907	-0.1541497345	-0.43202
N	 1.0210381883	-0.5358654503	-0.8482754352	-0.357881
C	 1.8485631438	-1.0487520346	 0.1080866104	 0.43318
O	 2.9295982843	-1.570962122	 0.0863624872	-0.360362
C	 0.8173630648	-0.6737434045	 1.2203124116	-0.318397
C	 1.352623497	 0.0836669358	 2.4045149106	 0.143082
O	 0.957840843	 1.1506586463	 2.8013694165	-0.248752
H	 0.8898655521	 1.9676550464	 0.1998870897	 0.128919
H	-0.4926339866	 1.8541199474	-0.9069871657	 0.106589
H	-0.7487339278	 1.8847253022	 0.8497183164	 0.142553
H	-1.8255122665	-0.3023782445	-1.1009480365	 0.12051
H	-1.3223494592	-1.7334282887	-0.1847267026	 0.122035
H	-2.0808672295	-0.3580849086	 0.6474841096	 0.132391
H	 1.1753893504	-0.3877218336	-1.8357725646	 0.249887
H	 0.3561463332	-1.5919269842	 1.6060752514	 0.127478
H	 2.1771812382	-0.4555891318	 2.9207304095	 0.106024
43.7155	83.2566	169.834	208.5586	230.5512	260.0829	287.4403	338.2777	357.0367	394.7962	441.0566	509.811	612.6113	664.8374	682.1826	764.4301	855.5837	892.4322	944.7492	980.3559	1004.0714	1025.7913	1064.3165	1137.4444	1139.3507	1215.8124	1231.6354	1267.0485	1330.3865	1372.5555	1405.0336	1420.6348	1428.4386	1474.0587	1484.2528	1497.4084	1505.934	1820.4962	1894.7011	2894.8366	3033.7971	3039.8677	3043.7744	3103.3608	3115.5111	3117.6482	3145.4656	3598.4947
CC1(C)NC(=O)C1C=O	CC1(C)NC(=O)[C@H]1C=O	
InChI=1S/C6H9NO2/c1-6(2)4(3-8)5(9)7-6/h3-4H,1-2H3,(H,7,9)	InChI=1S/C6H9NO2/c1-6(2)4(3-8)5(9)7-6/h3-4H,1-2H3,(H,7,9)/t4-/m1/s1
