21
gdb 105781	2.18046	1.39314	1.12447	2.7786	77.9	-0.2503	-0.0263	0.224	1211.1371	0.181972	-424.242352	-424.232846	-424.231902	-424.277712	34.333	
C	 0.119236585	 1.6421680886	 0.2138936689	-0.402408
C	 0.0047123351	 0.1174070342	 0.0789369462	-0.247087
C	-1.4331743789	-0.4510621681	 0.0151879828	 0.199152
C	-1.4721421963	-1.9970149105	-0.0365740933	-0.299916
C	-2.6540286953	-2.3723523817	 0.8917792806	-0.076779
O	-3.2814175877	-1.1488588284	 1.273758703	-0.2489
C	-2.2744695202	-0.1578098277	 1.274020742	-0.1277
C	-2.1565354135	 0.1413053737	-1.1956312805	 0.141461
O	-2.3501491969	-0.4283315428	-2.2376115006	-0.254194
H	 1.1694583085	 1.9331732058	 0.3098619668	 0.123579
H	-0.2849000245	 2.1674109403	-0.656617445	 0.126355
H	-0.4056599928	 2.0118118723	 1.1008975812	 0.124455
H	 0.5488951122	-0.2128023682	-0.8136927749	 0.11633
H	 0.5017074442	-0.3563309197	 0.934593289	 0.105023
H	-1.6249808827	-2.3313806112	-1.0639812889	 0.136943
H	-0.5329107523	-2.4227292505	 0.3257131318	 0.098186
H	-3.4122452766	-2.9902734048	 0.4043590176	 0.116512
H	-2.29643066	-2.9070032135	 1.7844289091	 0.092386
H	-1.6400440851	-0.2205887423	 2.1755513915	 0.084753
H	-2.7654999005	 0.8204057892	 1.2686718333	 0.109664
H	-2.5006875117	 1.1910498054	-1.0552384406	 0.082184
45.6028	58.6308	92.4195	182.4537	209.9553	266.485	291.4016	320.4816	368.5096	410.8269	557.5784	630.0866	684.8599	778.5964	803.3921	841.2415	907.2457	930.2003	956.9363	981.2135	984.7411	1016.4638	1060.9951	1076.4475	1114.8102	1161.7273	1185.5875	1190.4518	1243.1737	1258.634	1280.9494	1299.1701	1340.2789	1351.9638	1370.7979	1393.9196	1416.316	1429.8956	1484.9781	1495.9562	1504.1679	1505.2665	1511.2232	1527.9494	1829.1851	2871.8002	2950.9683	2989.9423	3023.8354	3040.8191	3061.9203	3069.4104	3076.3673	3091.4374	3107.9311	3112.2443	3126.607
CCC1(CCOC1)C=O	CC[C@]1(CCOC1)C=O	
InChI=1S/C7H12O2/c1-2-7(5-8)3-4-9-6-7/h5H,2-4,6H2,1H3	InChI=1S/C7H12O2/c1-2-7(5-8)3-4-9-6-7/h5H,2-4,6H2,1H3/t7-/m0/s1
