15
gdb 33990	2.37136	1.77459	1.2185	2.9237	70.91	-0.2646	-0.0137	0.2509	1008.2331	0.112488	-416.742634	-416.735106	-416.734162	-416.774764	28.544	
N	-0.0788390463	-1.1411710607	-0.0813572439	-0.341728
C	 0.002446634	 0.0115911655	-0.0292392166	 0.193039
C	 0.0391638572	 1.4319576072	 0.1167864756	 0.277539
O	 0.280709386	 2.2646268621	-1.0265827505	-0.269752
C	 1.1534553076	 2.4110205034	 0.0936249336	-0.05686
C	 0.4492507811	 3.3096014607	 1.1258621326	-0.324566
C	-0.7063149715	 2.2791086329	 1.1463142815	 0.264171
C	-2.1644116079	 2.3844640899	 1.3339110535	-0.296788
N	-1.2993302849	 1.782170866	 2.3740460709	-0.360118
H	 2.210486733	 2.2400118599	-0.0700189442	 0.13678
H	 0.9604155743	 3.3469402476	 2.0901730881	 0.137019
H	 0.2218925001	 4.3174251322	 0.7738438346	 0.12882
H	-2.6059149981	 3.337823048	 1.6093371086	 0.133321
H	-2.8043127486	 1.7362713941	 0.7409205295	 0.130911
H	-1.372744276	 0.7662809712	 2.3579665568	 0.24821
105.8403	134.7838	175.8877	294.7191	325.1453	408.5444	472.0381	520.2455	571.8634	586.8589	626.1219	793.6288	834.5246	879.4034	892.6439	929.0338	933.8201	972.0481	999.514	1048.7481	1065.9198	1104.4842	1137.4253	1166.6636	1226.5612	1254.6442	1262.3171	1272.2887	1403.678	1421.4899	1469.6943	1513.934	2353.3951	3078.2798	3112.2325	3140.8797	3200.1452	3202.6905	3484.3906
N#CC12OC1CC21CN1	N#C[C@]12O[C@H]1C[C@]12CN1	
InChI=1S/C6H6N2O/c7-2-6-4(9-6)1-5(6)3-8-5/h4,8H,1,3H2	InChI=1S/C6H6N2O/c7-2-6-4(9-6)1-5(6)3-8-5/h4,8H,1,3H2/t4-,5+,6-/m0/s1
