21
gdb 77472	1.94326	1.48761	1.38528	1.24	79.3	-0.2392	0.0697	0.309	1134.6318	0.180026	-424.197813	-424.187772	-424.186828	-424.231808	37.932	
C	-0.0411753847	 1.5714288622	-0.0247569889	-0.417799
C	 0.1261379771	 0.0665556725	 0.0534353555	-0.124184
C	 1.3779123428	-0.7206213296	-0.2122382405	 0.330021
O	 1.4226354472	-1.7844392721	-1.1014770356	-0.462824
C	 2.6264489798	-0.0002267502	 0.3049164992	-0.350819
C	 1.9994680264	-0.0632572101	 1.7425267961	 0.065866
O	 1.7683526883	 1.1360292086	 2.4561217763	-0.431091
C	 0.7466029928	-0.7382451563	 1.1884211536	 0.267908
C	-0.0094866978	-1.8196599611	 1.9078629973	-0.503471
H	 0.8042579837	 2.104402609	 0.4100619655	 0.13426
H	-0.1641161215	 1.8956970028	-1.0652249801	 0.100229
H	-0.9345745083	 1.8848849404	 0.5262387961	 0.116879
H	-0.734796926	-0.4789871894	-0.3341716475	 0.081807
H	 1.2728982279	-1.4442949366	-1.9901184223	 0.284669
H	 3.5265751852	-0.6128971686	 0.2155027025	 0.10315
H	 2.8267749624	 0.99909196	-0.0948654472	 0.090914
H	 2.5594855315	-0.7752917975	 2.3654137846	 0.07165
H	 2.6144609764	 1.4564832219	 2.7846551426	 0.282903
H	-0.6591997264	-1.4037418983	 2.6867250857	 0.1235
H	-0.6390864517	-2.3839753079	 1.2127833992	 0.123368
H	 0.6733561448	-2.5300554297	 2.3882546476	 0.113064
137.9998	157.7038	168.0712	182.4621	207.9961	218.0206	257.6551	279.7873	306.5954	323.8415	387.5771	455.1036	528.2777	580.8285	623.3497	690.65	746.7653	760.0556	847.6816	941.5019	968.8028	993.2435	1024.7607	1079.8817	1090.8895	1117.7306	1124.1793	1145.8576	1170.903	1218.4134	1225.3706	1247.0627	1272.6144	1311.93	1341.7288	1350.0039	1410.2221	1414.1802	1423.9967	1468.2792	1485.3818	1489.1681	1497.2549	1504.7542	1520.3675	2992.0481	3022.2891	3028.0353	3045.9993	3080.2015	3083.1884	3099.0979	3106.1671	3108.7808	3147.0775	3796.8616	3813.6817
CC1C2(O)CC(O)C12C	C[C@H]1[C@@]2(O)C[C@@H](O)[C@@]12C	
InChI=1S/C7H12O2/c1-4-6(2)5(8)3-7(4,6)9/h4-5,8-9H,3H2,1-2H3	InChI=1S/C7H12O2/c1-4-6(2)5(8)3-7(4,6)9/h4-5,8-9H,3H2,1-2H3/t4-,5-,6-,7+/m1/s1
