21
gdb 116368	3.08064	1.19929	0.9146	1.5076	81.31	-0.238	0.0191	0.2571	1315.3303	0.182947	-424.225242	-424.216217	-424.215273	-424.259253	33.697	
C	 0.1554128681	 1.4031797014	-0.0771217865	-0.240266
O	-0.0160482674	 0.0018900909	 0.0336814903	-0.236334
C	 0.6381995746	-0.5684651844	 1.1203932905	 0.215209
C	 0.2127865765	-2.0332043175	 1.1764932059	-0.266745
C	 0.7380201217	-2.8264216744	 2.3472779849	-0.067811
C	 1.9459864611	-2.7837854163	 2.9130755825	-0.055569
C	 3.1302733995	-1.9298291098	 2.5279524377	-0.247827
C	 2.8165520006	-0.4936543496	 2.1051865631	-0.072715
O	 2.0332233748	-0.4106472417	 0.9304375764	-0.257155
H	 1.205962585	 1.6688476418	-0.2347686755	 0.127022
H	-0.4357595514	 1.726636624	-0.936451848	 0.125578
H	-0.2102220782	 1.9213380054	 0.8229355086	 0.100885
H	 0.3564859754	-0.0505495236	 2.059573269	 0.049265
H	-0.8815420712	-2.0538867644	 1.1810208504	 0.110876
H	 0.5259884489	-2.4948319876	 0.2299450497	 0.128195
H	 0.0329062276	-3.5491848828	 2.7524136894	 0.086977
H	 2.1295029971	-3.4767724541	 3.7318461122	 0.085809
H	 3.8317836706	-1.8839216506	 3.3700865758	 0.099453
H	 3.6768872937	-2.4157437436	 1.7065577594	 0.121701
H	 2.3207548965	 0.0396652837	 2.9321097548	 0.090741
H	 3.7519420664	 0.0302464431	 1.8806034896	 0.10271
79.3159	103.904	120.5279	177.549	226.1084	313.7847	348.1259	368.5911	419.7018	470.2899	511.0444	574.8773	698.4897	718.8006	807.9845	861.9811	923.3058	957.0135	1002.3193	1021.7331	1037.1958	1057.1846	1082.9159	1094.465	1125.1017	1167.9299	1179.9366	1212.5362	1237.3154	1244.0587	1274.3073	1316.1553	1334.5427	1375.9363	1390.2772	1403.1529	1425.151	1436.8693	1462.78	1466.4817	1476.9614	1483.7713	1492.8981	1513.6877	1726.3463	2896.2231	2977.8874	2989.2172	3006.5179	3023.7501	3052.766	3066.3397	3073.252	3080.4736	3126.8502	3131.6068	3156.0655
COC1CC=CCCO1	CO[C@H]1CC=CCCO1	
InChI=1S/C7H12O2/c1-8-7-5-3-2-4-6-9-7/h2-3,7H,4-6H2,1H3	InChI=1S/C7H12O2/c1-8-7-5-3-2-4-6-9-7/h2-3,7H,4-6H2,1H3/t7-/m1/s1
