19
gdb 93246	2.73437	1.38776	0.98291	3.7425	72.53	-0.2492	0.0078	0.257	1217.4341	0.158501	-460.20625	-460.197271	-460.196326	-460.240078	33.148	
C	-0.1962391659	 1.4759769223	 0.0640201881	-0.410144
C	 0.0461875471	-0.0226592837	-0.0182600522	 0.098285
C	 0.9188897144	-0.4067280627	-1.2005913556	-0.063042
O	 1.2497800326	-1.8053803858	-1.2030953143	-0.234408
C	 1.3086988534	-2.5113025656	-0.0527332771	 0.398395
O	 1.6559079837	-3.6609090906	-0.0799276455	-0.328428
C	 0.8532108771	-1.8367566432	 1.2496579109	-0.017097
C	 1.8068808123	-2.1576286029	 2.3933365268	-0.399375
O	 0.7195195052	-0.4282292772	 1.1632388552	-0.266516
H	 0.7528096996	 2.0135705145	 0.1497594749	 0.132517
H	-0.7243045441	 1.8340576878	-0.8245334312	 0.123738
H	-0.8004891728	 1.7073338129	 0.9443345426	 0.136048
H	-0.91810332	-0.5547727155	-0.0947337453	 0.078533
H	 0.418005881	-0.2180034648	-2.1544448284	 0.122628
H	 1.8517010107	 0.1692902598	-1.1719318172	 0.120063
H	-0.1343805493	-2.2845794659	 1.4630004825	 0.105498
H	 2.7857498551	-1.706436576	 2.2090763022	 0.128941
H	 1.4089730427	-1.7550440774	 3.3277464297	 0.125142
H	 1.9265244771	-3.2380077559	 2.4803105739	 0.149222
62.7025	128.1146	188.8878	209.9225	218.675	249.6047	297.7015	397.9805	433.9752	445.4398	475.9915	542.0286	634.1601	730.9632	780.9761	866.6437	898.4514	951.1357	973.1805	1052.3579	1090.6642	1108.055	1132.9675	1151.6905	1162.8263	1194.1059	1237.261	1279.0588	1332.6433	1349.3696	1354.3019	1399.691	1402.8801	1415.4078	1435.788	1484.0757	1486.7416	1497.3242	1500.796	1503.3421	1840.1261	2944.1245	2956.6379	3035.7904	3047.8081	3056.941	3095.9661	3121.1587	3129.2307	3130.1625	3157.9146
CC1COC(=O)C(C)O1	C[C@H]1COC(=O)[C@@H](C)O1	
InChI=1S/C6H10O3/c1-4-3-8-6(7)5(2)9-4/h4-5H,3H2,1-2H3	InChI=1S/C6H10O3/c1-4-3-8-6(7)5(2)9-4/h4-5H,3H2,1-2H3/t4-,5+/m0/s1
