14
gdb 131620	2.3683	1.46689	0.912	4.8265	70.5	-0.2549	-0.0174	0.2375	1177.059	0.102873	-432.900129	-432.891957	-432.891013	-432.934046	28.595	
O	-0.1681171585	 1.4499871594	 0.1650103593	-0.426546
C	 0.0142645616	 0.0549391968	-0.0150249253	-0.20426
C	-1.3418668933	-0.5737173929	 0.0075197663	 0.315249
C	-1.7613799824	-1.9009874823	 0.0303116766	-0.007071
C	-3.180990675	-1.8251050275	 0.0231623743	-0.076635
N	-3.6018699231	-0.571488448	 0.0010770945	-0.219231
N	-2.4666167639	 0.161509209	-0.0121693036	-0.227241
C	-0.9341318638	-3.0461731417	 0.0554802369	 0.188188
N	-0.2434406665	-3.9766046379	 0.0760336347	-0.352427
H	 0.674767253	 1.8906966304	 0.0278472543	 0.305549
H	 0.5067148413	-0.1692930332	-0.9735924231	 0.133817
H	 0.6361554727	-0.3860036545	 0.7779827164	 0.136889
H	-3.8849757512	-2.6429744016	 0.0356796551	 0.139911
H	-2.5025454309	 1.168346314	-0.0107872762	 0.29381
37.2928	114.2183	175.0009	195.434	227.8063	254.9306	421.774	527.525	547.6101	608.5278	624.3783	686.4681	709.8344	730.8713	895.6514	962.107	1036.7931	1071.6554	1123.1603	1164.2889	1210.1035	1229.8006	1241.043	1326.1659	1367.208	1423.932	1476.672	1508.2772	1531.0646	1604.9061	2343.7913	2985.6953	3012.8432	3262.3001	3667.5315	3849.4745
OCC1=C(C=NN1)C#N	OCc1c(cn[nH]1)C#N	
InChI=1S/C5H5N3O/c6-1-4-2-7-8-5(4)3-9/h2,9H,3H2,(H,7,8)	InChI=1S/C5H5N3O/c6-1-4-2-7-8-5(4)3-9/h2,9H,3H2,(H,7,8)
