17
gdb 37073	3.05804	1.75905	1.56467	0.4488	66.18	-0.2469	0.0731	0.32	898.8326	0.13775	-458.929044	-458.922272	-458.921328	-458.959972	27.208	
C	 0.0207604067	 1.4579532908	 0.0382824691	-0.380149
C	 1.3434492924	 0.7271497465	-0.011374595	 0.315166
C	 2.0595217265	 0.3759858748	 1.2750259767	-0.151993
O	 1.036871828	-0.183123745	 2.1086879905	-0.261633
C	 0.0652652142	-0.8428809037	 1.2876453484	-0.151993
C	 0.0674634447	-0.0527203025	-0.0033021617	 0.315166
O	-0.0396091407	-0.6559362273	-1.2658320775	-0.299186
C	 1.2831935307	-0.6265728903	-1.7965544612	-0.008191
O	 1.9174538926	 0.5402060595	-1.2782169015	-0.299186
H	-0.2670175192	 1.9384271159	 0.9683526492	 0.129597
H	-0.2871720073	 1.9523315343	-0.8745753592	 0.13041
H	 2.8586386061	-0.3488067292	 1.0538242194	 0.10213
H	 2.4887466494	 1.2178006912	 1.825170788	 0.11666
H	 0.3438020913	-1.8858459874	 1.0697394021	 0.102131
H	-0.8745506016	-0.837805958	 1.8464529721	 0.11666
H	 1.8367902008	-1.5291568026	-1.4891820107	 0.096751
H	 1.2341653155	-0.5576364171	-2.8861219687	 0.12766
167.1975	215.8738	238.7762	358.0919	366.923	441.1924	532.6911	604.5048	610.6648	736.9389	786.0218	837.3034	883.6662	906.8624	916.9249	951.5744	988.1428	1011.1314	1049.3322	1059.0579	1071.8938	1084.2083	1147.795	1165.7539	1211.2718	1223.4903	1224.0507	1264.8856	1275.347	1342.5856	1350.6553	1390.4105	1422.7735	1457.6734	1511.0772	1520.8023	1536.3911	2965.7287	2986.2314	2991.2156	3087.7791	3089.9441	3104.709	3135.1166	3240.4724
C1C23COCC12OCO3	C1[C@@]23COC[C@@]12OCO3	
InChI=1S/C6H8O3/c1-5-2-7-3-6(1,5)9-4-8-5/h1-4H2	InChI=1S/C6H8O3/c1-5-2-7-3-6(1,5)9-4-8-5/h1-4H2/t5-,6+
