21
gdb 118141	2.3081	0.95827	0.76825	1.5257	75.18	-0.2522	0.0722	0.3245	1531.0721	0.18035	-461.326544	-461.316013	-461.315069	-461.3627	38.252	
O	 0.2520513886	 0.6846641675	-0.9466931332	-0.427275
C	 0.0744018346	-0.2540613431	 0.1067938844	-0.080135
C	-1.1313852441	-1.1173103907	-0.2433945632	-0.204363
C	-1.4624337908	-2.1279251187	 0.8569376928	 0.10645
O	-1.7644549581	-1.4607408201	 2.088699948	-0.433772
C	-2.5799325722	-3.1191386579	 0.5432991326	-0.058802
C	-3.6471052748	-2.8942613361	-0.5169379339	-0.348004
C	-2.638018699	-4.0057807562	-0.666207534	 0.094374
O	-1.6082022841	-3.9023844181	-1.6089212922	-0.4104
H	 0.9882101691	 1.2571299977	-0.712814821	 0.283265
H	 0.9649080777	-0.8938101802	 0.2230739065	 0.083113
H	-0.0976746947	 0.2468395863	 1.0693928797	 0.096604
H	-1.9927214827	-0.4557059471	-0.4077950518	 0.089602
H	-0.9423578482	-1.6447266368	-1.181381962	 0.127969
H	-0.5587928254	-2.7063641073	 1.0888795072	 0.095216
H	-2.5718306563	-0.953824349	 1.9438903339	 0.275604
H	-2.9229393152	-3.5949756243	 1.4579489827	 0.097689
H	-4.6789027584	-3.1416325187	-0.2911186333	 0.110491
H	-3.5184430432	-2.0435459529	-1.1772241817	 0.12207
H	-2.9870430763	-5.025538888	-0.502973116	 0.089954
H	-1.9944115464	-4.0073685062	-2.4846458054	 0.29035
51.8721	83.1004	94.9608	137.3829	192.0874	258.008	268.3214	285.9181	308.1347	342.6554	384.6337	415.1915	466.4228	564.4903	603.8847	768.1913	807.9509	840.6077	886.9247	926.3452	971.0362	1004.6923	1042.7033	1046.5639	1062.853	1076.8121	1096.3984	1137.6792	1171.2302	1186.9145	1212.6901	1235.2241	1248.1515	1283.1068	1297.274	1310.6757	1325.911	1374.9686	1390.9392	1420.0334	1424.8122	1456.3259	1487.979	1499.7027	1532.5526	2964.6842	3016.9442	3023.5575	3034.9363	3095.1424	3114.6894	3132.4612	3147.0446	3221.4484	3791.3471	3807.352	3830.655
OCCC(O)C1CC1O	OCC[C@@H](O)[C@H]1C[C@H]1O	
InChI=1S/C6H12O3/c7-2-1-5(8)4-3-6(4)9/h4-9H,1-3H2	InChI=1S/C6H12O3/c7-2-1-5(8)4-3-6(4)9/h4-9H,1-3H2/t4-,5-,6-/m1/s1
