25
gdb 101117	3.11809	1.01996	0.89304	0.2983	92.86	-0.2415	0.0839	0.3254	1462.8935	0.228776	-352.338501	-352.328593	-352.327648	-352.373311	38.106	
C	 0.1411571747	 1.5289768544	-0.1014892589	-0.394111
C	-0.0057862488	 0.0050904325	-0.1556261599	-0.159896
C	-1.4481015577	-0.5154691259	 0.0285505681	-0.089461
C	-2.3887562526	-0.0327955991	-1.0842816409	-0.409671
C	-1.4337190237	-2.021427223	 0.1808963382	 0.413424
C	-1.4278989099	-3.0036710384	-0.9611776792	-0.320871
C	-2.5391957979	-3.07941482	 0.0537909285	-0.123517
C	-2.0436592953	-3.7930745491	 1.3140946981	-0.22186
C	-0.9001001093	-2.7342207546	 1.4386907005	-0.292497
H	 1.193978401	 1.8221069959	-0.1645688073	 0.110311
H	-0.384459874	 2.0218618723	-0.9251195823	 0.116678
H	-0.258840733	 1.9324598392	 0.8359625403	 0.111302
H	 0.3831880083	-0.3717311643	-1.1110255282	 0.094628
H	 0.6259497627	-0.4392049306	 0.6236869397	 0.096161
H	-1.8253539255	-0.103720385	 0.9782525439	 0.064055
H	-2.0083175269	-0.2996266258	-2.0766001403	 0.114412
H	-3.386476274	-0.469670507	-0.9754779146	 0.113994
H	-2.5029158232	 1.0542811292	-1.059518599	 0.11555
H	-1.7158622592	-2.6062918868	-1.9286740432	 0.10665
H	-0.676913622	-3.7905641884	-1.0126959058	 0.09559
H	-3.5764569751	-2.9592272497	-0.2384013803	 0.079715
H	-2.747386961	-3.739750059	 2.1480113316	 0.099423
H	-1.7386498743	-4.8371933408	 1.184183124	 0.092159
H	 0.1280773364	-3.1078463576	 1.3839026212	 0.090774
H	-0.9980865397	-2.1242374782	 2.3410654057	 0.097058
57.0676	89.2614	138.2392	198.5689	227.0495	247.7582	269.2761	315.0449	331.7292	412.6954	444.0739	475.6297	675.0592	712.7909	778.2701	787.2115	822.0357	861.6666	875.9729	929.4941	947.4312	969.0543	971.7948	990.1168	1010.7407	1024.9387	1044.1724	1071.7561	1088.3206	1117.0219	1133.0187	1161.1298	1177.9372	1213.4901	1223.9208	1243.0037	1272.1181	1287.8642	1292.7711	1331.0731	1367.5458	1379.66	1397.0932	1408.6338	1413.3096	1481.3253	1483.8085	1486.9445	1496.724	1504.003	1505.6391	1510.1201	1513.7449	2972.586	3017.3209	3030.4036	3034.7752	3035.5096	3044.153	3050.7731	3084.5288	3095.3147	3096.7226	3099.8166	3102.6081	3105.5778	3111.9582	3169.0002	3200.7717
CCC(C)C12CC1CC2	CC[C@@H](C)[C@]12C[C@H]1CC2	
InChI=1S/C9H16/c1-3-7(2)9-5-4-8(9)6-9/h7-8H,3-6H2,1-2H3	InChI=1S/C9H16/c1-3-7(2)9-5-4-8(9)6-9/h7-8H,3-6H2,1-2H3/t7-,8-,9+/m1/s1
