25
gdb 118547	2.93664	0.7324	0.6414	2.7671	90.11	-0.2467	-0.0189	0.2278	1849.8801	0.226174	-389.514055	-389.502449	-389.501505	-389.552477	40.778	
C	-0.7643832463	 1.4698351829	-0.9420667946	-0.380199
C	-0.4784120398	 0.0548134814	-0.4298050068	-0.180167
C	-1.7561697987	-0.7705269689	-0.2348283905	-0.164648
C	-1.5307235251	-2.2462075006	 0.148641954	 0.000395
C	-0.7482378082	-2.4438020261	 1.4678072149	-0.187424
C	-1.4356608761	-1.9298208482	 2.7385614799	-0.384259
C	-2.8847048514	-2.9957037761	 0.1596635391	-0.284083
C	-2.7208975586	-4.479222108	 0.3832061877	 0.15806
O	-3.2153911171	-5.1060097804	 1.2855937722	-0.245759
H	 0.1594438674	 2.042669	-1.0688841331	 0.112705
H	-1.2771703395	 1.4452420087	-1.9100666768	 0.114013
H	-1.4045556997	 2.0213246799	-0.2444870297	 0.115126
H	 0.1844370484	-0.4635643068	-1.1357377741	 0.094429
H	 0.0744762396	 0.120192958	 0.5146437867	 0.102837
H	-2.3906480969	-0.2852826361	 0.5187270299	 0.098503
H	-2.3345961599	-0.7449664644	-1.1685255341	 0.089261
H	-0.9191916437	-2.6968714516	-0.6477983778	 0.072417
H	-0.5405551376	-3.5142784049	 1.5913430071	 0.10351
H	 0.2322579017	-1.9656025972	 1.3663537586	 0.09923
H	-0.7873520398	-2.0803122394	 3.6071574501	 0.116405
H	-1.6613534996	-0.8600059442	 2.6816190271	 0.115646
H	-2.3711312533	-2.4616265067	 2.9365196379	 0.133148
H	-3.5630783207	-2.5990237068	 0.9202375837	 0.120266
H	-3.3638272783	-2.8631213107	-0.82095839	 0.112457
H	-2.0751322869	-4.9858263239	-0.3743490216	 0.068132
33.0158	63.749	67.488	78.3377	144.6824	154.6309	228.7279	252.4467	263.3895	276.1674	312.5487	360.7531	464.6648	523.176	552.7677	740.2201	758.3652	783.0553	833.5859	888.0024	908.2336	966.4622	990.6401	1000.5844	1036.4134	1041.9361	1053.729	1090.7316	1144.647	1162.5057	1175.802	1211.1334	1255.2475	1274.654	1304.6436	1319.3513	1327.9749	1364.9983	1374.3335	1387.9937	1401.1753	1412.2833	1420.2801	1429.9303	1466.4501	1484.4691	1491.6994	1493.2101	1499.8333	1505.7616	1511.2359	1512.3846	1830.911	2839.855	2985.9739	3007.8564	3014.9138	3018.5349	3028.881	3029.5322	3038.2008	3042.2103	3059.5068	3065.2909	3096.7507	3099.1522	3102.6044	3104.319	3113.7313
CCCC(CC)CC=O	CCC[C@@H](CC)CC=O	
InChI=1S/C8H16O/c1-3-5-8(4-2)6-7-9/h7-8H,3-6H2,1-2H3	InChI=1S/C8H16O/c1-3-5-8(4-2)6-7-9/h7-8H,3-6H2,1-2H3/t8-/m1/s1
