25
gdb 122026	4.67411	0.49578	0.46436	2.3309	87.38	-0.2501	0.0788	0.3289	2400.0584	0.226125	-426.613899	-426.60183	-426.600886	-426.652678	41.623	
C	 0.0155013988	 1.3283715838	-0.1837347522	-0.226215
O	 0.0775846229	-0.0726478871	-0.0889663575	-0.229212
C	 0.6228572637	-0.5172376204	 1.1358539316	-0.063957
C	 0.6061914203	-2.0414543705	 1.1381100213	-0.194413
C	 1.3044685328	-2.6940722934	 2.3453546354	 0.012612
C	 0.6057061524	-2.350773151	 3.67154759	-0.392106
C	 1.4021170593	-4.2137549899	 2.120394824	-0.163923
C	 2.2387967616	-4.9658570467	 3.1493487625	-0.08732
O	 2.341072163	-6.314105775	 2.7112842559	-0.420802
H	 1.0141924505	 1.7897505976	-0.1152025329	 0.100383
H	-0.4189291061	 1.5736556333	-1.1561892354	 0.125101
H	-0.6153566303	 1.7659966849	 0.6070998562	 0.100433
H	 1.6569210907	-0.1446721503	 1.2518552869	 0.080006
H	 0.038975988	-0.1067868063	 1.9761698801	 0.084053
H	-0.4354373302	-2.3829406731	 1.0812832499	 0.101525
H	 1.0920523973	-2.3753775748	 0.2138753006	 0.104779
H	 2.3305224676	-2.2974542756	 2.3911322947	 0.068956
H	 1.1256176453	-2.7884422144	 4.5285976476	 0.113708
H	 0.5623224921	-1.2710755794	 3.8406914529	 0.114915
H	-0.4233242743	-2.7302907356	 3.6774799737	 0.114949
H	 0.396276999	-4.6529936524	 2.0968232631	 0.100952
H	 1.8463468144	-4.4073682906	 1.1368364894	 0.104478
H	 3.2348270366	-4.4981354332	 3.2306109645	 0.081174
H	 1.7721838868	-4.9132417741	 4.1444495008	 0.085769
H	 2.8286705878	-6.8092069654	 3.3758065071	 0.284153
47.3436	55.9256	82.2816	98.2718	107.6611	132.5086	208.1536	229.6344	240.2473	266.2194	284.1439	314.9405	364.1389	421.6388	510.3739	535.4726	787.8365	799.6902	863.3911	944.9309	955.9633	987.425	1003.1353	1027.6245	1064.8494	1070.3071	1124.1782	1162.0932	1170.1929	1176.5159	1193.0809	1221.4127	1235.155	1244.0828	1260.8954	1298.0313	1313.3948	1321.847	1344.9996	1376.7896	1381.6744	1416.0832	1431.0464	1461.9536	1481.4973	1482.4966	1485.5846	1495.1963	1499.882	1504.1866	1510.0329	1528.3237	1533.2258	2938.9397	2956.1519	2964.4262	2978.1159	2984.7663	2996.6709	3005.1565	3024.0163	3028.3687	3033.7472	3067.0716	3075.2128	3098.5242	3108.8284	3110.2716	3829.2542
COCCC(C)CCO	COCC[C@@H](C)CCO	
InChI=1S/C7H16O2/c1-7(3-5-8)4-6-9-2/h7-8H,3-6H2,1-2H3	InChI=1S/C7H16O2/c1-7(3-5-8)4-6-9-2/h7-8H,3-6H2,1-2H3/t7-/m0/s1
