24
gdb 58310	3.21675	0.70603	0.60849	4.2987	90.61	-0.3086	0.039	0.3476	1871.053	0.215541	-368.444747	-368.433451	-368.432507	-368.482512	40.54	
C	 0.0951342844	 1.5243849728	-0.079979662	-0.40128
C	 0.0161942577	-0.0057003699	 0.0497595127	 0.038189
C	 0.7330634597	-0.4311348818	 1.3423900032	-0.399235
C	-1.4429515596	-0.5376693559	-0.0176374086	 0.042582
C	-2.2331562423	 0.0718955652	-1.1879364514	-0.412731
C	-1.4670712903	-2.0786427231	-0.0972211087	-0.188607
C	-2.8588840222	-2.6925232429	 0.1685329579	-0.351992
C	-2.8309081639	-4.1534014782	 0.1435625314	 0.258926
N	-2.789346771	-5.3081369562	 0.1200304444	-0.307283
H	 1.1291530674	 1.8621211386	 0.0415780405	 0.112676
H	-0.2531054033	 1.8826834002	-1.0514457575	 0.116798
H	-0.5037817897	 2.017218124	 0.6959151853	 0.111964
H	 0.5611690941	-0.4409091353	-0.8016267005	 0.07303
H	 0.802076552	-1.5152656669	 1.4608046945	 0.118739
H	 1.7554566859	-0.04058067	 1.3578856798	 0.115372
H	 0.2154992653	-0.0306622134	 2.2226448589	 0.113145
H	-1.9387295197	-0.2396290822	 0.9197571207	 0.067832
H	-1.722049796	-0.1119670403	-2.1406973126	 0.118275
H	-3.2371163756	-0.3555024103	-1.2661387708	 0.110912
H	-2.3582234861	 1.1510152361	-1.0774550447	 0.123883
H	-1.1193391996	-2.3992658062	-1.0867906931	 0.116001
H	-0.7744890188	-2.5105132764	 0.6285724729	 0.119509
H	-3.2310869045	-2.3713115517	 1.1488349231	 0.150215
H	-3.5918913736	-2.3552210062	-0.5711034155	 0.153078
25.2372	59.6913	78.3023	114.7491	196.0484	207.227	230.6353	257.4944	302.3173	354.206	373.488	399.7189	416.7028	448.2294	480.1373	569.8724	754.4593	793.3337	881.4233	926.712	942.4673	947.9465	952.7082	968.7702	995.9967	1023.4015	1076.4159	1135.7182	1154.3564	1179.1951	1192.9178	1223.7986	1273.2576	1316.2917	1316.9038	1346.22	1360.5091	1376.1369	1385.8749	1403.9949	1416.367	1424.7456	1466.7615	1485.2856	1491.4204	1492.7042	1499.0003	1505.7049	1510.7845	1522.5689	2361.2549	2977.8322	2995.1419	3027.4794	3032.8231	3034.3019	3039.1903	3049.1477	3082.4709	3090.6613	3097.645	3099.8579	3105.9815	3114.6115	3119.0486	3125.9778
CC(C)C(C)CCC#N	CC(C)[C@@H](C)CCC#N	
InChI=1S/C8H15N/c1-7(2)8(3)5-4-6-9/h7-8H,4-5H2,1-3H3	InChI=1S/C8H15N/c1-7(2)8(3)5-4-6-9/h7-8H,4-5H2,1-3H3/t8-/m0/s1
