20
gdb 69004	2.88415	1.31402	1.08438	2.6589	79.56	-0.2293	0.0753	0.3046	1178.6244	0.171356	-403.085126	-403.076554	-403.07561	-403.118631	33.192	
O	-0.4359172582	 1.1138651601	-0.6369154995	-0.461093
C	-0.1702026365	-0.1263217309	-0.0861874403	 0.359939
C	-0.5049012874	-1.4066752912	-0.8062206465	-0.417957
C	-1.1806484259	-1.1033227129	 0.5186675726	 0.317593
C	-0.1767563788	-1.4209588669	 1.6441935654	-0.286426
C	 0.8262631056	-0.3787451281	 1.0466081178	-0.287292
C	-2.646437245	-1.0093682821	 0.730999155	-0.107896
C	-3.6316138283	-0.9759974172	-0.3760388876	-0.242435
N	-3.5357116674	-2.1704674153	 0.4801970295	-0.327491
H	 0.1271625123	 1.2330150954	-1.4098240848	 0.285645
H	-1.1188783869	-1.25757909	-1.6885339815	 0.114499
H	 0.2133192489	-2.2213107661	-0.8857936156	 0.101901
H	-0.5435514448	-1.1317167671	 2.6317787097	 0.109041
H	 0.1700023403	-2.458241708	 1.6886255518	 0.0972
H	 1.8194832191	-0.740568794	 0.7595068191	 0.090494
H	 0.9385728369	 0.496269233	 1.6906872888	 0.111201
H	-2.9174632129	-0.4799695543	 1.6432891553	 0.088079
H	-4.5448309862	-0.3996919335	-0.2568606278	 0.118374
H	-3.2738052215	-1.0351745268	-1.3993829369	 0.10834
H	-2.9993640235	-2.8829901239	-0.0117287844	 0.228283
46.4311	125.7081	187.0322	236.7252	267.4752	307.0152	377.0052	399.0909	456.8399	562.6876	601.7098	687.5206	741.7995	793.131	833.0225	863.7734	873.1376	927.5459	936.0352	963.6212	981.1366	988.4494	1029.5182	1071.0056	1103.6942	1112.1873	1144.7096	1159.7866	1183.1233	1202.8832	1219.6761	1233.7119	1247.5121	1270.1626	1290.6433	1303.3025	1344.1398	1399.9732	1443.7408	1480.6309	1482.1565	1511.3908	1525.2996	3041.4882	3051.7897	3094.5534	3098.649	3112.0241	3116.4942	3117.4871	3194.8676	3200.5343	3482.0302	3790.3115
OC12CC1(CC2)C1CN1	O[C@]12C[C@]1(CC2)[C@H]1CN1	
InChI=1S/C7H11NO/c9-7-2-1-6(7,4-7)5-3-8-5/h5,8-9H,1-4H2	InChI=1S/C7H11NO/c9-7-2-1-6(7,4-7)5-3-8-5/h5,8-9H,1-4H2/t5-,6-,7-/m1/s1
