16
gdb 75693	2.27456	1.75883	1.28936	2.6261	69.09	-0.2454	-0.0387	0.2068	1006.1735	0.124152	-437.901531	-437.893535	-437.89259	-437.934305	29.758	
C	-0.3006951183	 1.485386966	 0.0032430178	-0.408169
C	 0.0007565084	-0.0254093158	 0.0029524422	-0.233797
C	 0.8506083163	-0.480431836	-1.1927402263	 0.445992
O	 0.4652930787	-0.6197348601	-2.3243999493	-0.321325
C	 2.2369357213	-0.8077114055	-0.6932681368	-0.16776
N	 2.7855922178	 0.3337992703	 0.0758958901	-0.325887
C	 2.1987379868	-0.8156539808	 0.8039319907	-0.167773
C	 0.7886841496	-0.4932386091	 1.2355425311	 0.445999
O	 0.346165193	-0.644604147	 2.3445019856	-0.321327
H	 0.6233926454	 2.0662171393	 0.0298767639	 0.150729
H	-0.8584400086	 1.74998329	-0.8988652672	 0.138349
H	-0.9037686867	 1.7406007258	 0.8784905863	 0.138348
H	-0.9476402524	-0.5735737121	-0.0241309699	 0.132135
H	 2.8940540847	-1.4418546741	-1.276670578	 0.119838
H	 3.7999688421	 0.246678671	 0.1013186654	 0.254812
H	 2.8254189319	-1.4561366618	 1.4133197844	 0.119836
66.6086	165.0109	211.8661	213.2242	219.1521	340.0446	381.2122	501.4967	554.0835	568.4939	684.9078	728.4544	805.071	808.664	851.5386	860.794	918.6033	963.4707	981.795	1079.9804	1087.6346	1119.5219	1121.9216	1162.477	1205.58	1255.9589	1266.5538	1294.2547	1348.8541	1377.1489	1398.9524	1491.8311	1506.1541	1831.7778	1866.4736	3050.694	3058.2893	3126.7064	3141.0883	3189.2708	3197.8698	3492.9748
CC1C(=O)C2NC2C1=O	C[C@H]1C(=O)[C@H]2N[C@H]2C1=O	
InChI=1S/C6H7NO2/c1-2-5(8)3-4(7-3)6(2)9/h2-4,7H,1H3	InChI=1S/C6H7NO2/c1-2-5(8)3-4(7-3)6(2)9/h2-4,7H,1H3/t2-,3-,4+
