19
gdb 39620	4.67559	0.95703	0.81049	2.4064	90.67	-0.2062	-0.0174	0.1888	1401.0302	0.160115	-385.882637	-385.87446	-385.873516	-385.916217	30.277	
C	 0.008289049	 1.4948040141	-0.1057747367	-0.170198
O	 1.3558337052	 1.5499133482	 0.4187501128	-0.277264
C	 1.4437306773	 0.1060508373	 0.4809668184	-0.173942
C	 0.0394521489	-0.0127604992	-0.0644719444	 0.178706
C	-0.8001742596	-0.9977194606	-0.372955028	 0.184086
C	-2.2125219677	-0.8317512707	-0.9270701261	-0.333079
C	-2.750151357	-2.2803377523	-1.1088127196	-0.267977
C	-1.608104252	-3.1507447873	-0.6465150929	-0.070892
C	-0.550801123	-2.4304827345	-0.248012962	-0.152891
H	-0.7152760872	 1.9888163048	 0.5600664028	 0.107717
H	-0.0671228404	 1.9566878455	-1.1017241299	 0.107718
H	 2.2520494869	-0.284358639	-0.1543635529	 0.108788
H	 1.6034952221	-0.2521876299	 1.5083832218	 0.108787
H	-2.8392045823	-0.2526828664	-0.2408860929	 0.116837
H	-2.2017010506	-0.2842363444	-1.8752318301	 0.116837
H	-3.6578579739	-2.4616728117	-0.5195774498	 0.112399
H	-3.0216943567	-2.4931681668	-2.1504369334	 0.1124
H	-1.6621017304	-4.2333918124	-0.6466662637	 0.098411
H	 0.3824104713	-2.8373815648	 0.1238603867	 0.093555
58.7064	112.175	127.6422	163.632	246.7186	386.6572	392.598	472.0091	546.4285	751.901	769.6812	815.1382	828.8293	874.36	922.3248	928.7647	937.1846	978.4121	991.8576	1019.2209	1028.8803	1057.5718	1070.1598	1105.0452	1131.1021	1133.7977	1134.4109	1163.9637	1241.0892	1241.6944	1278.0975	1297.3853	1322.5485	1356.6522	1391.7422	1472.6136	1494.5066	1495.1715	1521.9578	1648.3852	1789.5143	2974.979	2988.9596	3007.8036	3016.1481	3021.6715	3042.3996	3046.3701	3079.4873	3190.1082	3213.8144
C1OCC1=C1CCC=C1	C1OCC1=C1CCC=C1	
InChI=1S/C8H10O/c1-2-4-7(3-1)8-5-9-6-8/h1,3H,2,4-6H2	InChI=1S/C8H10O/c1-2-4-7(3-1)8-5-9-6-8/h1,3H,2,4-6H2
