21
gdb 42049	2.86473	1.43152	1.05136	1.6572	77.76	-0.2413	0.0727	0.314	1166.0973	0.185126	-424.21152	-424.203596	-424.202652	-424.244329	30.925	
C	 0.1685752226	 1.6260394635	 0.1491385865	-0.093851
O	 1.421636845	 1.4977181244	-0.5519962004	-0.294593
C	 1.2709561298	 0.0630270003	-0.6659945496	 0.141698
C	 2.4486009965	-0.7110079037	-0.0905097113	-0.230185
C	 2.1500689319	-2.2067128771	 0.0892533371	-0.07774
O	 1.4526312958	-2.5136651808	 1.2824501296	-0.239264
C	 0.0847986647	-2.1553263145	 1.3251786866	-0.070997
C	-0.1667674176	-0.6438788171	 1.4447802708	-0.233391
C	-0.0713667316	 0.1002501206	 0.1158015747	-0.050631
H	 0.3007092442	 2.0614700957	 1.1485682716	 0.098347
H	-0.5532820378	 2.2356256249	-0.4086033121	 0.098306
H	 1.1355030541	-0.2238114891	-1.7194694207	 0.071238
H	 3.3065349977	-0.5894729645	-0.7632473419	 0.102731
H	 2.7414460628	-0.2921581857	 0.8777292355	 0.111846
H	 1.6025905091	-2.5966450841	-0.7869177764	 0.083883
H	 3.0896304806	-2.7630297789	 0.1593296498	 0.109254
H	-0.4469308802	-2.5587400826	 0.4455191844	 0.082158
H	-0.3122859021	-2.6638986154	 2.2094915325	 0.10657
H	-1.1688897668	-0.4879590326	 1.8651727484	 0.09773
H	 0.5441788791	-0.2398523217	 2.1750485802	 0.110296
H	-0.9182449179	-0.1847047317	-0.5153037251	 0.076594
55.2212	155.2372	209.3668	278.162	307.8357	364.6794	388.6652	435.5554	532.1531	555.123	727.132	751.6246	836.761	875.7153	902.0607	937.4319	967.8086	994.6462	1004.7022	1024.3517	1034.7809	1059.4105	1101.2583	1132.02	1152.3588	1161.0487	1179.4338	1194.0547	1239.682	1264.325	1281.3666	1296.8219	1325.7954	1342.5902	1350.9667	1375.3901	1390.7207	1397.5568	1409.0721	1423.037	1474.2475	1486.785	1489.1648	1498.0821	1526.8465	2952.0675	2957.2369	2982.8424	3005.5819	3022.251	3034.6739	3042.5927	3056.8476	3072.9933	3075.0219	3079.0059	3088.5552
C1OC2CCOCCC12	C1O[C@H]2CCOCC[C@@H]12	
InChI=1S/C7H12O2/c1-3-8-4-2-7-6(1)5-9-7/h6-7H,1-5H2	InChI=1S/C7H12O2/c1-3-8-4-2-7-6(1)5-9-7/h6-7H,1-5H2/t6-,7-/m0/s1
