17
gdb 18505	5.5973	1.22289	1.14188	3.7254	70.01	-0.2475	0.0316	0.2792	1060.2376	0.143364	-363.858106	-363.850666	-363.849722	-363.890736	27.635	
O	-0.1168209477	-0.0752008069	 0.1525478661	-0.323676
C	-0.0544155336	 1.1339057617	 0.0805102503	 0.151885
N	 1.0882782629	 1.8557936654	-0.0778017935	-0.284604
C	 2.4040267656	 1.2609680637	-0.1524498959	 0.050821
C	 3.2267143418	 1.3350186097	-1.4907737161	-0.25921
C	 4.3807593953	 1.97385028	-0.7093305719	-0.033396
C	 3.9178038258	 3.2636019701	-0.1022219318	-0.287116
C	 3.5454008049	 1.9693232346	 0.5762973553	-0.067292
H	-0.9473501523	 1.7885078331	 0.1398255442	 0.07087
H	 1.011975324	 2.8604520884	-0.1091339318	 0.244637
H	 2.2869060783	 0.2253285944	 0.1654539012	 0.124707
H	 3.4434782074	 0.3441368792	-1.8940739013	 0.115631
H	 2.7960292823	 1.9528838125	-2.2855075627	 0.095673
H	 5.4293122442	 1.7334971082	-0.8263753508	 0.093711
H	 4.6737034146	 3.8428059222	 0.4179499216	 0.118114
H	 3.1778018688	 3.8756009633	-0.6157834359	 0.097149
H	 3.8513493879	 1.7619703405	 1.594778463	 0.092094
34.6719	128.9062	193.8891	226.5439	364.8416	420.8344	505.1292	537.8217	650.5476	758.3668	785.1303	809.7189	870.6469	928.8683	956.3167	970.4516	1016.0198	1028.0965	1035.8019	1057.2185	1069.9545	1086.4017	1119.2986	1144.8394	1192.8161	1231.5039	1235.9639	1266.5302	1308.2944	1358.4525	1369.9951	1432.1584	1480.3058	1498.1243	1526.9205	1805.3084	2928.4503	3049.824	3095.5713	3112.9709	3130.2834	3179.8922	3192.2135	3204.9465	3628.7693
O=CNC1CC2CC12	O=CN[C@H]1C[C@H]2C[C@@H]12	
InChI=1S/C6H9NO/c8-3-7-6-2-4-1-5(4)6/h3-6H,1-2H2,(H,7,8)	InChI=1S/C6H9NO/c8-3-7-6-2-4-1-5(4)6/h3-6H,1-2H2,(H,7,8)/t4-,5-,6+/m1/s1
