18
gdb 54356	2.06276	1.63702	1.21895	2.5547	72.75	-0.2338	-0.0398	0.194	1099.3652	0.145299	-439.084984	-439.075597	-439.074653	-439.119635	33.425	
C	 0.0678045439	 1.4575973846	-0.4240299259	-0.489738
C	 0.0858900324	 0.02254527	 0.0607401172	 0.340044
O	 1.0879179731	-0.5001092143	 0.4904942864	-0.302135
C	-1.2591560801	-0.7255751459	 0.0396075207	 0.128283
C	-1.1668087722	-2.1628079699	 0.6382928395	-0.276983
C	-1.7349195798	-1.558262741	 1.9441760954	-0.155291
N	-2.1352971963	-0.3450467163	 1.1844679603	-0.361774
C	-1.9806082731	-0.6597614426	-1.2929892285	 0.121289
O	-1.452251293	-0.4546392241	-2.3561136518	-0.258266
H	 0.9596452621	 1.9782752488	-0.0737788395	 0.142976
H	 0.0560658941	 1.4437028755	-1.5188960526	 0.179363
H	-0.8346560456	 1.9896496191	-0.1047003055	 0.127771
H	-1.8401032067	-2.8738443111	 0.1559889601	 0.115343
H	-0.1529707053	-2.5560998245	 0.6719780218	 0.146882
H	-2.5778957006	-2.0770703963	 2.4099151904	 0.11117
H	-0.9593531176	-1.3859792663	 2.6989659448	 0.115994
H	-1.9223016135	 0.5463976258	 1.6217613115	 0.225084
H	-3.0723090119	-0.8539328015	-1.1973432043	 0.089987
63.4358	92.3291	122.4921	149.9986	184.5774	229.4416	287.2515	321.8557	397.5486	465.4499	553.189	576.8304	682.1261	684.5905	776.5671	902.4267	908.8683	954.5882	967.4127	984.522	1017.5453	1033.0246	1088.5915	1116.4692	1165.59	1194.3111	1220.0818	1241.8095	1269.8323	1326.9039	1374.7773	1384.677	1403.0322	1466.9588	1467.931	1472.3699	1521.1263	1804.5655	1820.7237	2891.3968	3033.9211	3042.4968	3079.8582	3091.5737	3108.0677	3154.7137	3168.6092	3512.4468
CC(=O)C1(CCN1)C=O	CC(=O)[C@]1(CCN1)C=O	
InChI=1S/C6H9NO2/c1-5(9)6(4-8)2-3-7-6/h4,7H,2-3H2,1H3	InChI=1S/C6H9NO2/c1-5(9)6(4-8)2-3-7-6/h4,7H,2-3H2,1H3/t6-/m0/s1
