20
gdb 93747	1.87888	1.74383	0.95207	4.4903	88.84	-0.2477	-0.0321	0.2156	1262.0281	0.171071	-366.067584	-366.058245	-366.057301	-366.101622	34.455	
C	-0.0599952718	 1.5934528192	-0.0225884276	-0.405956
C	 0.0429629966	 0.0670424392	 0.0242202997	-0.082152
C	 0.7881589764	-0.5560325642	-1.183531367	-0.222976
C	 1.5376660829	-1.7864933047	-0.6270743309	-0.299467
C	 1.6620406944	-1.4957424289	 0.8509615942	 0.217009
C	 2.5483487694	-2.295093047	 1.7461935429	-0.510291
C	 0.8445553741	-0.4849720863	 1.1991985453	 0.129072
C	 0.676341466	 0.0015610703	 2.5232204154	 0.202442
N	 0.5207005775	 0.4191340945	 3.5938329612	-0.361801
H	 0.9339976411	 2.0504634813	-0.0773355362	 0.11879
H	-0.6290237038	 1.9130964516	-0.901451501	 0.117203
H	-0.5631138967	 1.9862377595	 0.866080885	 0.136444
H	-0.9766421677	-0.3413225135	 0.0844358469	 0.091637
H	 0.1150351014	-0.8011622426	-2.0086671139	 0.104797
H	 1.5153656633	 0.1710994535	-1.5615526373	 0.108587
H	 0.9688816695	-2.7170471404	-0.7702657653	 0.117855
H	 2.5112845448	-1.9500575697	-1.1029422774	 0.112121
H	 3.5927829156	-2.227134981	 1.4173140163	 0.137017
H	 2.4880941198	-1.9621203229	 2.7846562965	 0.152094
H	 2.2794138371	-3.358217298	 1.7057251734	 0.137574
85.4533	133.366	156.7235	163.2426	186.7702	231.1566	272.7171	365.0546	410.96	452.915	506.0666	552.4161	610.4063	646.4553	688.9849	823.4643	903.6815	917.1287	956.1008	995.9268	1004.0958	1027.7907	1081.2872	1115.6219	1123.4577	1181.3892	1208.1164	1231.414	1262.8558	1312.184	1325.0104	1349.7521	1364.7537	1411.6507	1414.9725	1476.8533	1479.1928	1479.7684	1494.3806	1497.4117	1500.5724	1692.265	2326.1842	2992.3851	3004.2687	3022.9292	3033.2246	3044.4389	3060.247	3070.1949	3100.8715	3104.9283	3110.6028	3127.3485
CC1CCC(C)=C1C#N	C[C@H]1CCC(=C1C#N)C	
InChI=1S/C8H11N/c1-6-3-4-7(2)8(6)5-9/h6H,3-4H2,1-2H3	InChI=1S/C8H11N/c1-6-3-4-7(2)8(6)5-9/h6H,3-4H2,1-2H3/t6-/m0/s1
