17
gdb 18743	3.02314	2.30524	1.5692	2.376	69.18	-0.2053	-0.0263	0.1791	843.5171	0.141859	-363.8346	-363.827185	-363.82624	-363.866353	27.748	
C	 0.1181244499	 1.5560919092	-0.1282031517	-0.32839
N	 0.1292773625	 0.1165806611	 0.027785284	-0.058294
C	 0.8956352306	-0.748303062	-0.8945797435	-0.180001
C	 1.4041244211	-1.5854554182	 0.3052446521	-0.044587
C	 2.7982304595	-1.141855817	 0.8151520932	-0.360141
C	 2.1091404475	-0.0123397232	 1.6077358934	 0.404194
O	 2.507511412	 0.9381612177	 2.2177086991	-0.300608
C	 0.69574493	-0.5260029287	 1.226592015	-0.117631
H	 1.1198881474	 2.0181842648	-0.1344164267	 0.109044
H	-0.3827679865	 1.8108424556	-1.0684386287	 0.121768
H	-0.452881933	 2.0055375361	 0.6905139776	 0.130401
H	 0.257166354	-1.2667356731	-1.6191159997	 0.106724
H	 1.7029873902	-0.2426143856	-1.4468353815	 0.091384
H	 1.1635077589	-2.6454384843	 0.3286801676	 0.083344
H	 3.2507656874	-1.8643133762	 1.5043647943	 0.133139
H	 3.5500654098	-0.8486578256	 0.0761619048	 0.124437
H	-0.0131201312	-0.7209069806	 2.0375020306	 0.085219
88.1501	123.1085	189.2205	299.6515	331.7442	367.0829	433.1991	533.2218	590.0514	706.1674	783.0914	834.3116	840.4323	895.1781	953.2601	993.4668	1017.9849	1039.6906	1060.1156	1119.9806	1143.5777	1151.2053	1163.1601	1211.2814	1220.1721	1246.5221	1251.3958	1275.3976	1310.0129	1330.243	1435.3786	1450.7684	1486.5864	1501.8287	1523.3022	1876.7336	2960.8441	2980.9602	3043.2942	3044.5378	3056.8661	3059.8096	3098.9152	3102.521	3144.6194
CN1CC2CC(=O)C12	CN1C[C@H]2CC(=O)[C@@H]12	
InChI=1S/C6H9NO/c1-7-3-4-2-5(8)6(4)7/h4,6H,2-3H2,1H3	InChI=1S/C6H9NO/c1-7-3-4-2-5(8)6(4)7/h4,6H,2-3H2,1H3/t4-,6+/m1/s1
