21
gdb 95434	2.57702	1.31634	0.96447	3.0511	86.29	-0.2406	-0.0467	0.194	1290.2155	0.181936	-387.139115	-387.129604	-387.128659	-387.173699	35.071	
C	 0.3988569714	 1.6502220699	-0.2337644589	-0.399542
C	 0.0376181286	 0.1839830794	 0.0619479087	-0.068182
C	 0.2968328531	-0.7704133625	-1.1373884338	-0.232268
C	 1.6485901667	-1.4687469616	-0.8379432969	-0.256198
C	 1.7987464415	-1.2912712158	 0.6491142449	-0.172615
C	 0.9206612798	-0.4099717429	 1.1495152941	 0.244984
C	 0.7885321512	 0.0012252665	 2.5651860821	 0.302699
C	 1.7034394412	-0.6382959713	 3.5986343947	-0.492011
O	-0.0422508066	 0.8294241223	 2.8924624751	-0.312962
H	 1.4404834667	 1.7419501236	-0.5625676689	 0.105417
H	-0.2411048888	 2.0508530963	-1.0268707005	 0.109733
H	 0.2644874406	 2.2651241744	 0.6590249627	 0.140371
H	-1.012325438	 0.155614903	 0.3705878866	 0.087768
H	-0.4944415764	-1.5248270145	-1.1871229845	 0.104098
H	 0.2993143758	-0.241697044	-2.0943267389	 0.098623
H	 1.6608209275	-2.5225581532	-1.1386661895	 0.110399
H	 2.4911746901	-0.9969846835	-1.3636909464	 0.116878
H	 2.5575428835	-1.8118291121	 1.2236124672	 0.099171
H	 2.7536329685	-0.4288207131	 3.3693496855	 0.136999
H	 1.4603627141	-0.2366896828	 4.5828402335	 0.139957
H	 1.5830217396	-1.7264781282	 3.6074256932	 0.136681
67.717	92.0374	134.4948	164.8064	188.4599	247.8076	269.8111	318.0182	398.4647	463.5011	511.9079	608.8912	657.643	690.1301	768.9021	822.1237	853.9894	898.6847	912.6756	956.9511	975.9036	1001.3408	1039.9542	1049.724	1075.244	1098.2738	1118.1088	1193.1695	1216.485	1274.3373	1275.4816	1318.4667	1325.118	1350.761	1364.2048	1386.9481	1402.2906	1469.5515	1474.5461	1478.2525	1491.6465	1499.022	1507.7807	1677.1663	1757.1447	3007.7731	3029.749	3041.7539	3044.5836	3053.3469	3062.3961	3095.3572	3099.2748	3104.9729	3128.3442	3152.9002	3192.1263
CC1CCC=C1C(C)=O	C[C@H]1CCC=C1C(=O)C	
InChI=1S/C8H12O/c1-6-4-3-5-8(6)7(2)9/h5-6H,3-4H2,1-2H3	InChI=1S/C8H12O/c1-6-4-3-5-8(6)7(2)9/h5-6H,3-4H2,1-2H3/t6-/m0/s1
