13
gdb 123496	4.14807	1.77874	1.24491	5.9366	74.01	-0.2438	-0.0744	0.1694	902.2606	0.093628	-411.796889	-411.791245	-411.790301	-411.826855	22.537	
C	-0.0085465473	 1.3083213981	 0.0094107459	-0.175621
C	 1.2865180069	 1.8056076322	-0.0000921512	 0.404716
C	 1.9733836803	 3.0369740043	 0.0003801758	-0.210447
C	 3.3391962195	 3.003376327	-0.0129651176	-0.123876
C	 3.9988404331	 1.7405262309	-0.0265706598	 0.020302
N	 3.3969734627	 0.5779803674	-0.0274645041	-0.192912
N	 2.0594711689	 0.6491603651	-0.0141911496	 0.051476
N	 1.292363157	-0.4531759609	-0.0130753344	-0.139402
N	 0.0443723207	-0.0388307697	 0.0014883759	-0.17407
H	-0.9443777991	 1.8430471735	 0.0214163432	 0.134034
H	 1.4160029314	 3.9661461107	 0.0110545683	 0.137234
H	 3.9291487262	 3.9112377338	-0.013449902	 0.126561
H	 5.0823460997	 1.6854955575	-0.0373306902	 0.142006
215.6938	246.9296	435.1508	445.5218	570.2622	601.5196	651.1682	698.5518	766.3316	769.6149	802.8721	837.5913	904.652	964.0642	967.2522	991.6347	1040.2583	1142.9436	1149.7438	1188.8704	1268.9528	1300.8802	1330.6804	1334.7748	1377.6996	1435.7077	1530.955	1576.7515	1663.1915	3191.852	3204.3276	3221.1615	3270.2264
C1=C2C=CC=NN2N=N1	c1c2cccnn2nn1	
InChI=1S/C5H4N4/c1-2-5-4-6-8-9(5)7-3-1/h1-4H	InChI=1S/C5H4N4/c1-2-5-4-6-8-9(5)7-3-1/h1-4H
