19
gdb 117410	4.13846	0.6262	0.59459	3.9949	78.7	-0.2662	0.0058	0.2721	1906.099	0.157922	-419.25949	-419.249044	-419.2481	-419.297387	35.625	
C	 0.1888675765	 1.52247825	-0.066042979	-0.387332
C	 0.3986142752	 0.0072913775	-0.0521518894	-0.153794
C	 0.3469830879	-0.5827848162	 1.3616938436	-0.307743
C	 0.4124404875	-2.1043200923	 1.3542852317	 0.431093
O	-0.0878383017	-2.7880587056	 0.4812776783	-0.365875
N	 1.0539935737	-2.6609584184	 2.4350693631	-0.326781
C	 1.1978651425	-4.0960599162	 2.5602970157	-0.280855
C	 2.6038402432	-4.5152106805	 2.6192297765	 0.253685
N	 3.712332475	-4.8318289416	 2.6930473803	-0.298445
H	 0.955997857	 2.0406255204	 0.5204979136	 0.113574
H	 0.2314151787	 1.9146263432	-1.0864562998	 0.119837
H	-0.7866155757	 1.7926820211	 0.3538556813	 0.115749
H	-0.3617269361	-0.4934215283	-0.6582544998	 0.130398
H	 1.3640177199	-0.2401319968	-0.5094466836	 0.107336
H	 1.1434295723	-0.1645167023	 1.9893691661	 0.100094
H	-0.6019685373	-0.3058601305	 1.8416494261	 0.133178
H	 1.501311832	-2.0669527635	 3.1135539004	 0.259381
H	 0.6820275623	-4.4800839513	 3.4490069486	 0.157963
H	 0.7158604271	-4.5290486187	 1.6777934763	 0.198536
20.6809	47.1583	61.2539	107.499	151.3375	244.8416	251.3497	286.693	325.8869	373.883	400.3163	437.5663	578.4257	630.047	718.2418	753.2937	880.0926	888.9756	918.7705	933.7442	1043.3941	1056.5474	1073.659	1114.8813	1135.5022	1209.7089	1255.5153	1265.4419	1307.6845	1342.6334	1372.9037	1397.8599	1415.1493	1463.6098	1468.9155	1491.9073	1500.1598	1509.3628	1522.7416	1781.2392	2364.0333	3016.4331	3028.7021	3033.3449	3040.8984	3055.8222	3081.9665	3095.5519	3105.0433	3107.6294	3651.6534
CCCC(=O)NCC#N	CCCC(=O)NCC#N	
InChI=1S/C6H10N2O/c1-2-3-6(9)8-5-4-7/h2-3,5H2,1H3,(H,8,9)	InChI=1S/C6H10N2O/c1-2-3-6(9)8-5-4-7/h2-3,5H2,1H3,(H,8,9)
