23
gdb 108672	2.28198	1.34254	0.92867	1.3974	89.29	-0.2238	0.0285	0.2523	1355.5785	0.205817	-388.310244	-388.300487	-388.299543	-388.344941	36.449	
C	 0.0654954657	 1.5976538922	 0.1003168079	-0.368297
C	 0.0093452075	 0.0593512135	 0.135953193	-0.285115
C	-1.3892569031	-0.4933332748	-0.0275971973	 0.190755
C	-1.957450894	-0.846181165	-1.1881997862	 0.202717
C	-1.3081785469	-0.7161779419	-2.5405428423	-0.48454
C	-3.3612709651	-1.4148683611	-1.2070224704	-0.282022
C	-3.799831075	-1.8646191303	 0.1836153859	-0.0876
O	-3.5343515971	-0.8555660502	 1.1399977052	-0.243189
C	-2.1507698788	-0.6200085998	 1.2761146057	-0.152677
H	 1.0829200512	 1.957123312	 0.2855256703	 0.111402
H	-0.2577828879	 1.9778291036	-0.8736000694	 0.121148
H	-0.5880873018	 2.0396348999	 0.8593527936	 0.119876
H	 0.6788552443	-0.3454285085	-0.6288253974	 0.103787
H	 0.4124321607	-0.2864820498	 1.0977973422	 0.097146
H	-1.1984814989	-1.6983654768	-3.0194013841	 0.120048
H	-1.9380251417	-0.1170968046	-3.2115395813	 0.123112
H	-0.3242814495	-0.2457566117	-2.5050479976	 0.120693
H	-4.0634510126	-0.6646293426	-1.5980781001	 0.109526
H	-3.4093378438	-2.2657622184	-1.9007220319	 0.095148
H	-4.8759960867	-2.0560733895	 0.2247449325	 0.102817
H	-3.2783726752	-2.7973071524	 0.4583484028	 0.084482
H	-1.6827281402	-1.4164348634	 1.8878232103	 0.089067
H	-2.058518171	 0.3074692995	 1.8551484886	 0.111715
63.3626	110.8195	141.499	150.8348	210.3021	227.1658	320.0732	331.5126	354.015	395.859	452.6448	512.5021	563.4313	644.9737	707.7365	781.664	859.9592	892.8446	945.2394	977.2886	985.4108	1027.4899	1030.7588	1044.7395	1084.395	1104.5878	1149.3562	1159.9699	1164.3591	1230.406	1242.2929	1270.4288	1302.1274	1316.9776	1349.2886	1371.9735	1386.5719	1407.6787	1411.6882	1423.6414	1470.5058	1479.4082	1483.0447	1485.8385	1497.4569	1498.6141	1502.896	1512.5274	1746.5308	2909.4589	2961.6753	3001.6906	3013.5631	3016.0165	3033.3644	3033.6259	3039.7372	3054.132	3070.0901	3083.1203	3102.9438	3109.2301	3129.6825
CCC1=C(C)CCOC1	CCC1=C(C)CCOC1	
InChI=1S/C8H14O/c1-3-8-6-9-5-4-7(8)2/h3-6H2,1-2H3	InChI=1S/C8H14O/c1-3-8-6-9-5-4-7(8)2/h3-6H2,1-2H3
