15
gdb 123923	3.58942	1.62466	1.15305	5.9811	67.76	-0.2168	-0.012	0.2047	990.5813	0.116604	-450.087223	-450.080551	-450.079607	-450.11816	26.488	
C	-0.0026396943	 1.430526667	-0.0297442453	-0.166053
C	 1.4117671713	 2.0221825045	 0.0570409746	-0.166052
N	 2.0744843056	 1.5461763921	 1.2729999756	-0.400907
C	 1.9531176008	 0.1937521796	 1.4960685161	 0.37393
N	 2.6483264223	-0.5730205595	 2.2844325935	-0.217252
O	 2.0562026652	-1.8228783375	 2.1814521826	-0.179115
N	 0.9817088324	-1.8060592994	 1.3047892351	-0.217251
C	 0.9177907589	-0.5794684268	 0.8756479696	 0.373928
N	 0.0727192834	-0.0315310654	-0.0619877083	-0.400907
H	-0.5970199353	 1.8002927321	 0.8190942474	 0.12015
H	-0.4756096421	 1.7741567502	-0.9534835321	 0.122603
H	 1.9671741652	 1.7547531805	-0.8543019746	 0.12015
H	 1.3388833863	 3.1118756783	 0.1053462082	 0.122603
H	 2.9778763263	 1.9463648195	 1.4803195201	 0.257087
H	-0.7953104859	-0.5245699353	-0.2126078827	 0.257087
138.2039	233.0227	336.9157	391.465	425.2159	426.7257	509.7577	566.622	574.862	590.6694	758.1174	763.5544	773.3071	868.7046	906.8365	907.7096	1003.1507	1036.6015	1053.9916	1101.8739	1129.6853	1246.3111	1249.4954	1313.493	1365.0729	1386.2021	1435.0142	1448.9391	1503.169	1504.3973	1512.4906	1633.3346	1695.4704	2988.4817	3001.0878	3092.9599	3094.4125	3607.9565	3608.038
C1CNC2=NON=C2N1	C1CNc2nonc2N1	
InChI=1S/C4H6N4O/c1-2-6-4-3(5-1)7-9-8-4/h1-2H2,(H,5,7)(H,6,8)	InChI=1S/C4H6N4O/c1-2-6-4-3(5-1)7-9-8-4/h1-2H2,(H,5,7)(H,6,8)
