19
gdb 74264	2.50384	1.45555	1.15759	2.9074	77.6	-0.2384	-0.0055	0.2329	1152.8774	0.158216	-419.283375	-419.273933	-419.272989	-419.317117	35.035	
C	-0.0057499995	 1.4899352577	-0.0014543542	-0.491061
C	-0.0383560338	-0.002134153	 0.0060962708	 0.360354
N	-1.0928779923	-0.7215463193	-0.0628847813	-0.30161
C	-0.6637046187	-2.1322318835	-0.0238855704	 0.12589
C	-1.2476866084	-2.8325236693	 1.2110239422	-0.40338
C	-1.073539408	-2.8497869595	-1.3173487871	-0.403438
C	 0.8751233284	-2.0834641998	 0.0820646556	 0.411086
O	 1.6705199257	-2.9895812839	 0.1421484612	-0.380436
N	 1.1574585304	-0.7255629354	 0.0939308711	-0.380548
H	 0.5800291081	 1.8637101886	-0.8487976059	 0.140613
H	-1.0245979062	 1.8699057815	-0.0755475745	 0.160552
H	 0.456903161	 1.8757573811	 0.9138135834	 0.140678
H	-2.3379394374	-2.8645354271	 1.1385243056	 0.125879
H	-0.8585627192	-3.8521512385	 1.2785780321	 0.13432
H	-0.9814760787	-2.2978966333	 2.1273363279	 0.11934
H	-0.6845229331	-2.3270498235	-2.1958370857	 0.119319
H	-0.6790500594	-3.8696081194	-1.3174637893	 0.134338
H	-2.1634710601	-2.8826431146	-1.3941666991	 0.125851
H	 2.0882503511	-0.3447554188	 0.1541429776	 0.262254
97.7177	154.8168	161.5617	205.1477	210.3432	227.8918	283.2729	290.7645	336.0229	417.1719	500.6798	548.2301	608.2235	624.4444	660.2141	743.8832	761.0246	887.9157	954.7612	967.9681	977.3132	1024.6177	1035.8829	1063.393	1139.4511	1186.9254	1224.1795	1252.9215	1286.5404	1387.8295	1397.3115	1408.5224	1430.3308	1476.171	1480.083	1480.8353	1482.2655	1494.3646	1506.463	1708.5484	1845.5653	3038.1368	3042.1565	3045.1687	3093.0108	3117.2348	3119.3883	3126.5156	3130.9704	3158.7386	3646.0826
CC1=NC(C)(C)C(=O)N1	CC1=NC(C)(C)C(=O)N1	
InChI=1S/C6H10N2O/c1-4-7-5(9)6(2,3)8-4/h1-3H3,(H,7,8,9)	InChI=1S/C6H10N2O/c1-4-7-5(9)6(2,3)8-4/h1-3H3,(H,7,8,9)
