27
gdb 101819	2.51273	0.75907	0.68871	0.8677	93.72	-0.2467	0.0851	0.3317	1880.5014	0.248702	-390.70709	-390.694904	-390.69396	-390.745415	43.823	
C	 0.0902878603	 1.4969736023	-0.179612386	-0.384886
C	 0.0724275824	-0.0247874557	-0.0214704039	-0.172115
C	 0.7067473882	-0.5072917969	 1.2851082598	 0.159554
C	 0.5739261523	-2.0227348571	 1.4616077436	-0.402977
O	 2.0708706154	-0.1002874319	 1.2561494655	-0.263271
C	 2.7135186075	-0.0229824921	 2.5117163779	-0.045895
C	 4.1311922447	 0.5144164978	 2.3120849595	 0.023936
C	 4.8070607891	 0.7480756696	 3.6684169766	-0.392876
C	 4.9585237932	-0.4200431512	 1.4207850388	-0.378857
H	 1.1145767808	 1.8737705624	-0.1278702914	 0.130462
H	-0.3406493434	 1.8003466669	-1.1385997458	 0.107421
H	-0.4882437116	 1.9837069718	 0.614000046	 0.106856
H	-0.9578436137	-0.3980734004	-0.0633982602	 0.090757
H	 0.6115224472	-0.494491924	-0.8539016192	 0.101346
H	 0.2045942625	-0.002552872	 2.1296439398	 0.058061
H	 1.0609542439	-2.5447434903	 0.6316160676	 0.120997
H	 1.0312103417	-2.3634208295	 2.3947891111	 0.114843
H	-0.4808716848	-2.3151707418	 1.4832322242	 0.112249
H	 2.146376029	 0.6422952324	 3.1850368977	 0.07861
H	 2.7611058661	-1.0121831951	 2.9980571648	 0.080917
H	 4.0326745429	 1.4807986329	 1.799562672	 0.080003
H	 4.9069278186	-0.1904599652	 4.226847779	 0.112165
H	 5.8123733569	 1.1602748532	 3.5368947366	 0.113652
H	 4.2371550657	 1.4473758052	 4.2896562406	 0.110116
H	 4.4527969772	-0.5940168397	 0.4684644432	 0.128762
H	 5.947663212	 0.0031331052	 1.2176103001	 0.105302
H	 5.1065149258	-1.391739907	 1.9083962222	 0.104868
29.3486	59.5185	106.0986	125.5525	143.5443	205.6464	213.3715	226.7378	241.6517	246.6739	295.3138	334.3401	371.532	417.2875	454.0247	493.824	514.9175	773.1308	819.2849	848.471	908.1343	927.1719	930.863	963.08	973.2217	981.5516	999.8589	1035.1762	1114.9306	1127.2325	1149.882	1168.8004	1189.2289	1195.3797	1205.7179	1276.1894	1299.6937	1328.7659	1330.3546	1369.7772	1375.8735	1393.7003	1396.3899	1403.3249	1404.4829	1412.7348	1439.7236	1474.7837	1488.8949	1489.4099	1491.1858	1496.087	1497.5281	1502.1624	1511.7071	1512.7685	1521.1975	2940.9126	2951.278	2976.8113	3019.4574	3024.0914	3026.491	3029.5415	3034.9735	3038.0752	3064.5119	3087.3212	3092.9026	3098.6194	3101.3672	3108.3745	3112.7306	3126.1564	3126.5524
CCC(C)OCC(C)C	CC[C@@H](C)OCC(C)C	
InChI=1S/C8H18O/c1-5-8(4)9-6-7(2)3/h7-8H,5-6H2,1-4H3	InChI=1S/C8H18O/c1-5-8(4)9-6-7(2)3/h7-8H,5-6H2,1-4H3/t8-/m1/s1
