17
gdb 20872	6.86568	1.06108	0.975	3.0493	69.79	-0.2543	0.0154	0.2696	1209.7795	0.144518	-360.082044	-360.074205	-360.073261	-360.115701	27.672	
C	-0.0716382386	 1.568367105	-0.0116809871	-0.384537
C	-0.105595258	 0.0398077301	-0.0572713852	-0.156289
C	 0.7667606083	-0.5360812705	-1.1880824238	-0.308927
C	 0.7920130979	-2.029972186	-1.1928343051	 0.381469
N	 1.2342367573	-2.8169227641	-0.2237584793	-0.311657
C	 1.0224823929	-4.0674178036	-0.7178035807	 0.024417
N	 0.4808391195	-4.1169548463	-1.9230449279	-0.217267
N	 0.3397852451	-2.798609478	-2.2084888938	-0.24123
H	 0.9473547095	 1.9373108577	 0.1490371028	 0.119273
H	-0.438250128	 2.0056518568	-0.9473778009	 0.112881
H	-0.6961465684	 1.9514892897	 0.8007539524	 0.11885
H	 0.2443628871	-0.3783526796	 0.8919435191	 0.131381
H	-1.1372072967	-0.3091525538	-0.1868348779	 0.101664
H	 0.4131790161	-0.1716735754	-2.1604702707	 0.098459
H	 1.7940942137	-0.1706124785	-1.0709366798	 0.13281
H	 1.2755908483	-4.9661191076	-0.1751515914	 0.123196
H	-0.0557512859	-2.517837956	-3.0908615207	 0.275507
26.8719	85.9512	122.9642	241.5862	305.3587	336.1747	375.332	561.5899	698.3821	701.3347	745.5611	788.2078	872.3595	901.0996	912.6192	982.6229	1040.8492	1055.1845	1090.2966	1111.828	1130.8169	1216.898	1236.8362	1282.4147	1306.5573	1317.4016	1335.8228	1385.8975	1412.8541	1419.7732	1474.9591	1492.6864	1498.3249	1503.4881	1510.6262	1585.8097	3026.1036	3029.8661	3038.4585	3062.8124	3080.6544	3103.2313	3107.3538	3258.9036	3661.3188
CCCC1=NC=NN1	CCCc1ncn[nH]1	
InChI=1S/C5H9N3/c1-2-3-5-6-4-7-8-5/h4H,2-3H2,1H3,(H,6,7,8)	InChI=1S/C5H9N3/c1-2-3-5-6-4-7-8-5/h4H,2-3H2,1H3,(H,6,7,8)
