16
gdb 7964	3.53078	1.70256	1.35196	3.3014	60.31	-0.2416	-0.0184	0.2232	907.8892	0.130001	-420.904476	-420.89679	-420.895846	-420.936509	29.073	
O	-0.0199770624	 1.0252897593	-0.8004652791	-0.448682
C	-0.1193508509	-0.1405574709	 0.0032451893	 0.093217
C	 0.3892319341	 0.0006736065	 1.4440464956	-0.357909
C	-0.4768557136	-0.9795524434	 2.2504119158	 0.410346
O	-0.2549200663	-1.3572220212	 3.3692143874	-0.308299
C	-1.6582453029	-1.4088192542	 1.3700150828	-0.327914
C	-1.6224484797	-0.461327271	 0.1739688163	 0.108564
O	-2.3196047113	 0.7178612668	 0.5349511427	-0.446733
H	 0.8750530405	 1.3716051401	-0.7407028144	 0.294402
H	 0.3756577066	-0.9902210751	-0.4915021833	 0.078381
H	 1.4538009616	-0.1962443466	 1.5889760421	 0.121547
H	 0.1706826907	 1.010603762	 1.8108793865	 0.143359
H	-1.4929905637	-2.4494402591	 1.0644864882	 0.128839
H	-2.6043516843	-1.3670544621	 1.9133010991	 0.146089
H	-2.0428256384	-0.9025561322	-0.7400545107	 0.072354
H	-1.97129256	 1.4160466912	-0.0351148784	 0.292437
71.8523	152.6493	231.5341	278.1763	345.1496	363.067	459.6199	482.3458	497.9317	518.8579	611.1595	682.884	780.9196	832.2829	854.3758	948.1572	956.2069	1027.0435	1073.1036	1107.2871	1138.3669	1179.0498	1183.1857	1221.622	1248.7992	1256.5992	1306.1932	1360.3428	1386.609	1405.0644	1426.2471	1436.5012	1446.3454	1855.2616	2985.6189	3010.1529	3049.3034	3050.8381	3115.121	3123.3187	3768.8898	3835.7924
OC1CC(=O)CC1O	O[C@H]1CC(=O)C[C@H]1O	
InChI=1S/C5H8O3/c6-3-1-4(7)5(8)2-3/h4-5,7-8H,1-2H2	InChI=1S/C5H8O3/c6-3-1-4(7)5(8)2-3/h4-5,7-8H,1-2H2/t4-,5+
