21
gdb 41718	3.17014	1.6767	1.65857	1.6493	79.56	-0.2346	0.0808	0.3153	942.1698	0.188173	-387.116221	-387.109819	-387.108875	-387.146575	27.922	
C	-0.0271920866	 1.5829439339	 0.0503750498	-0.21489
C	 1.4863240475	 1.9617217641	 0.0081616067	-0.241055
C	 2.2004499567	 0.6101952923	 0.1973823989	-0.010099
C	 2.1633757674	-0.2977291493	-1.0531680524	 0.109221
C	 0.6578679542	-0.3047531995	-1.4251263899	-0.236403
C	 0.0170470467	 0.0479581417	-0.0479733907	-0.011707
C	 1.1786126905	-0.2998252988	 0.9282999834	-0.038443
C	 1.7522728366	-1.7014381736	 0.6989232067	-0.107631
O	 2.4883947757	-1.5908344072	-0.5336693588	-0.275977
H	-0.4810936902	 1.9019005321	 0.9948406097	 0.092183
H	-0.6052790964	 2.0359419181	-0.7603620081	 0.093569
H	 1.7696259177	 2.4413414658	-0.9345868934	 0.0993
H	 1.7490937016	 2.6600789424	 0.8073659967	 0.100005
H	 3.1965457593	 0.6663436718	 0.6397536683	 0.064549
H	 2.8578467782	-0.0735331743	-1.8640140017	 0.069279
H	 0.3960667867	 0.4273161938	-2.1955966472	 0.091394
H	 0.3835898683	-1.2955491977	-1.7949627353	 0.105475
H	-0.935341488	-0.448324888	 0.1491410112	 0.056982
H	 0.9694852516	-0.0623266999	 1.9733533305	 0.062738
H	 2.4403439376	-2.0076459331	 1.4963123141	 0.09903
H	 0.972505965	-2.4706171248	 0.6089734516	 0.09248
223.4902	240.856	329.7428	354.9181	455.0991	507.5697	641.132	718.3245	740.8446	786.3663	801.4855	855.7676	874.5514	897.2564	909.7744	932.919	951.785	960.0033	978.1542	988.213	1012.9007	1043.1507	1054.6324	1074.1137	1100.2645	1120.0302	1152.2048	1176.6291	1208.3675	1209.0502	1240.4731	1257.8096	1276.4277	1287.5293	1301.7552	1308.9961	1313.6024	1335.4332	1343.2087	1358.1796	1390.7389	1489.5146	1493.2209	1512.7923	1528.3975	3002.9415	3039.4278	3042.3006	3048.6428	3051.2492	3078.0426	3087.2156	3094.0617	3095.4383	3101.0006	3106.8644	3113.7012
C1CC2C3CC1C2CO3	C1C[C@@H]2[C@@H]3C[C@H]1[C@H]2CO3	
InChI=1S/C8H12O/c1-2-6-7-4-9-8(6)3-5(1)7/h5-8H,1-4H2	InChI=1S/C8H12O/c1-2-6-7-4-9-8(6)3-5(1)7/h5-8H,1-4H2/t5-,6-,7+,8-/m0/s1
