14
gdb 21303	3.41872	1.93982	1.25707	3.574	60.03	-0.2623	-0.0288	0.2335	924.0787	0.106345	-415.81933	-415.811701	-415.810757	-415.851552	26.581	
C	 0.0331301646	 1.431549128	 0.0102791712	-0.249153
O	 0.0252786939	-0.0011063184	 0.0176955882	-0.256795
C	 0.5956352124	-0.5845868176	-1.0340872763	 0.361791
N	 1.1456133839	 0.0317180824	-2.0437943014	-0.190482
O	 1.5915462576	-0.9798271807	-2.8676416924	-0.174924
N	 1.3036170768	-2.2115052386	-2.3439328284	-0.13203
C	 0.6899133055	-2.0032859258	-1.2137574457	 0.246347
C	 0.2003794306	-3.088194715	-0.3179694509	-0.495253
H	 1.0598342482	 1.8090957345	-0.012295684	 0.148325
H	-0.5051601923	 1.8132833039	-0.8624733161	 0.148326
H	-0.4655972135	 1.7369635386	 0.9298063374	 0.140796
H	 0.6645915307	-3.0138764857	 0.6705667666	 0.148545
H	-0.8822257116	-3.0135461902	-0.1742414826	 0.148572
H	 0.4344457133	-4.0635319454	-0.7471292757	 0.155936
107.602	128.3926	179.762	183.3477	258.405	297.0566	389.2471	526.177	616.6194	631.4632	748.145	766.4237	910.0349	940.1027	1014.1844	1042.7617	1069.495	1072.2729	1180.626	1217.8472	1285.559	1415.3729	1441.9128	1464.4727	1477.9162	1481.9625	1489.9608	1500.0209	1582.711	1647.	3041.8069	3046.7305	3102.8454	3114.1541	3147.3358	3160.2493
COC1=NON=C1C	COc1nonc1C	
InChI=1S/C4H6N2O2/c1-3-4(7-2)6-8-5-3/h1-2H3	InChI=1S/C4H6N2O2/c1-3-4(7-2)6-8-5-3/h1-2H3
