21
gdb 111249	3.01328	1.22641	1.13379	2.5921	77.74	-0.2315	0.0735	0.3051	1185.24	0.184603	-424.202078	-424.193831	-424.192887	-424.234886	32.284	
O	-0.2963799556	 1.4490372873	 0.2389604919	-0.42149
C	-0.1336312385	 0.0795894425	-0.1055257045	-0.125265
C	-1.4779550597	-0.6016366196	 0.0797250238	 0.012881
C	-1.4454527044	-2.1638418763	 0.0551277165	-0.040972
C	-1.1666684035	-2.1230052575	 1.5860972559	-0.245471
C	-1.9310178936	-0.7735867853	 1.561669017	 0.140714
O	-3.3281748366	-1.0184035821	 1.6637249312	-0.281738
C	-3.8777461551	-1.7177913523	 0.5469754177	-0.065617
C	-2.8801056142	-2.6827396579	-0.1402782626	-0.238908
H	 0.5487202055	 1.8924664762	 0.121052229	 0.287112
H	 0.1837301082	-0.0327317542	-1.1554875082	 0.085246
H	 0.6405423751	-0.3940016817	 0.5171178623	 0.08524
H	-2.1976093181	-0.1078834988	-0.5796556567	 0.07542
H	-0.7282010109	-2.6664408915	-0.6000375147	 0.057238
H	-1.6056793497	-2.9112319258	 2.2028716199	 0.092855
H	-0.1080206667	-2.0141755296	 1.8299023134	 0.096396
H	-1.6925329703	 0.0093722607	 2.2825643257	 0.083846
H	-4.7556355924	-2.2530045105	 0.9207558315	 0.104423
H	-4.2384998057	-0.9875700852	-0.190870264	 0.099156
H	-3.1363384244	-2.7521705595	-1.2038556625	 0.096823
H	-2.9558688297	-3.693328729	 0.2771342573	 0.102112
83.7724	147.8906	202.5152	235.1667	278.33	305.0122	390.8581	438.7458	482.7168	501.2217	625.2424	792.9688	817.5542	839.4219	852.629	900.2881	937.2136	947.9011	948.4565	1012.001	1033.5637	1059.4586	1080.0924	1087.0256	1109.1207	1128.0353	1140.9359	1173.0886	1199.0497	1241.2071	1243.2264	1250.9943	1266.4616	1281.5068	1296.7574	1316.0122	1346.911	1355.3403	1395.7505	1413.3949	1458.0273	1485.424	1496.8579	1521.7189	1524.3527	2962.938	2995.836	2997.348	3028.6512	3057.9459	3066.1523	3067.3558	3070.1279	3081.5807	3107.6831	3121.5953	3830.0047
OCC1C2CC1OCC2	OC[C@H]1[C@H]2C[C@@H]1OCC2	
InChI=1S/C7H12O2/c8-4-6-5-1-2-9-7(6)3-5/h5-8H,1-4H2	InChI=1S/C7H12O2/c8-4-6-5-1-2-9-7(6)3-5/h5-8H,1-4H2/t5-,6+,7+/m1/s1
