16
gdb 51376	3.39569	1.37162	1.17096	5.7802	68.43	-0.2246	0.0273	0.2519	1046.049	0.123963	-437.798345	-437.79094	-437.789996	-437.830546	28.364	
O	 0.2926603146	 0.1156752135	 0.1965535604	-0.286698
C	 0.5986008548	 1.2557612246	 0.3744995661	 0.194347
O	 0.6669746271	 2.1473562107	-0.6372047179	-0.181409
C	 1.0104878257	 3.4793875101	-0.3413053916	 0.102414
C	 1.8617366105	 4.0540002476	 0.7586047158	-0.143393
C	 3.2262865982	 3.3565723311	 1.0134241904	-0.058314
N	 3.3163526251	 2.1367650483	 0.1742325194	-0.324415
C	 3.5946044108	 3.4729439979	-0.4074335738	-0.050775
C	 2.2603339115	 4.1916576127	-0.7397290763	-0.103904
H	 0.8260089683	 1.7044759406	 1.3555935564	 0.081897
H	 0.1429516049	 4.115864472	-0.5134517746	 0.116329
H	 1.4751168982	 4.8157522852	 1.4248663133	 0.103739
H	 3.8193350421	 3.4823225541	 1.9089926822	 0.105035
H	 4.2180472397	 1.7019719265	 0.3689861394	 0.237745
H	 4.5447556581	 3.7023020439	-0.869962658	 0.106144
H	 2.2273789303	 5.0767425913	-1.3628335812	 0.101256
80.9441	139.5928	198.1812	262.1174	312.9556	402.7616	565.2961	577.7967	683.8325	712.6342	738.2393	765.9912	831.82	856.143	885.0192	908.084	968.9078	996.3146	997.8686	1009.4369	1045.1694	1053.9783	1083.8543	1118.9846	1139.0484	1162.7643	1221.7564	1259.2522	1267.2407	1320.0621	1352.495	1384.1959	1415.9386	1449.9147	1865.4378	3000.3346	3112.0004	3180.9464	3191.8024	3203.6706	3216.3624	3474.2891
O=COC1C2C3NC3C12	O=CO[C@H]1[C@H]2[C@H]3N[C@H]3[C@@H]12	
InChI=1S/C6H7NO2/c8-1-9-6-2-3(6)5-4(2)7-5/h1-7H	InChI=1S/C6H7NO2/c8-1-9-6-2-3(6)5-4(2)7-5/h1-7H/t2-,3+,4-,5+,6+
