17
gdb 17499	3.01825	2.43438	1.66093	1.1485	67.84	-0.2037	0.0735	0.2772	818.3022	0.141248	-363.773619	-363.766199	-363.765255	-363.804584	29.61	
C	-0.0212079482	 1.5209769193	 0.0058325064	-0.512362
C	 0.0964694008	 0.0312410271	 0.0011419537	 0.269586
N	-0.8560934344	-0.8786558299	 0.686989052	-0.380554
C	 0.604889083	-0.9349799235	 0.993864409	-0.110782
C	 1.3272347676	-1.7576773276	-0.1102134171	-0.120937
C	 0.3714011545	-2.2278134239	-1.1948159172	-0.356872
C	 0.8032045696	-0.78986297	-1.144476049	 0.349194
O	 1.5241020721	-0.155806223	-2.1410768407	-0.45399
H	 0.9035954822	 1.9782764581	-0.3589024241	 0.139821
H	-0.8384866	 1.8613132375	-0.6420706482	 0.121851
H	-0.2158985359	 1.8958885573	 1.0165329706	 0.115395
H	-1.2940048535	-0.3402631062	 1.4356935897	 0.221519
H	 0.9670078146	-0.7763314099	 2.0020096893	 0.090226
H	 2.3237727042	-2.1638127616	-0.0013848432	 0.095703
H	 0.8686804561	-2.7931378261	-1.9778237522	 0.106612
H	-0.6398871397	-2.5319790598	-0.9571661065	 0.138655
H	 0.9580873968	-0.075819028	-2.9172001025	 0.286938
168.5273	204.0335	223.1578	289.9821	339.017	412.4502	426.3234	449.0682	535.0544	602.8179	645.3798	787.1727	793.7427	842.1596	873.9579	922.6854	927.5583	940.2311	983.17	1008.4581	1017.3055	1043.9074	1090.4341	1110.2866	1139.9621	1187.2548	1230.2303	1270.8004	1301.5829	1329.2385	1386.9632	1403.4777	1443.9308	1475.7616	1480.145	1502.0681	3021.6661	3081.5902	3106.8144	3133.6983	3188.5269	3208.2985	3232.6096	3455.2403	3783.9909
CC12NC1C1CC21O	C[C@]12N[C@H]1[C@H]1C[C@@]21O	
InChI=1S/C6H9NO/c1-5-4(7-5)3-2-6(3,5)8/h3-4,7-8H,2H2,1H3	InChI=1S/C6H9NO/c1-5-4(7-5)3-2-6(3,5)8/h3-4,7-8H,2H2,1H3/t3-,4+,5+,6+/m1/s1
