15
gdb 128299	6.68955	0.89394	0.79578	5.4392	75.34	-0.2274	-0.0546	0.1728	1373.6125	0.113697	-450.138436	-450.130193	-450.129249	-450.171775	28.994	
C	 0.0588618475	 1.3751256754	 0.1749406784	-0.333353
N	-0.0422578889	-0.0313960376	-0.1712355463	-0.372908
C	-1.2414386021	-0.6844715569	-0.0766547687	 0.387971
N	-1.3373831075	-2.0033002493	-0.0096016023	-0.332945
N	-2.6785642303	-2.2195145106	 0.0132428612	 0.069138
C	-3.1815861851	-3.5304778875	 0.0802733032	 0.204907
O	-4.3446051476	-3.8095318531	 0.111246652	-0.257878
N	-3.4380426834	-1.1190008506	-0.02526205	-0.184756
C	-2.5635994648	-0.1351283629	-0.0811180597	-0.095756
H	 1.0852894876	 1.7052689865	 0.0041163383	 0.139246
H	-0.589142284	 1.9712757888	-0.4754737938	 0.141899
H	-0.2082251824	 1.591033631	 1.2199713285	 0.125907
H	 0.7517109287	-0.6056717416	 0.0681150635	 0.255448
H	-2.3393057169	-4.240464308	 0.0989167378	 0.11887
H	-2.8841032107	 0.8937676363	-0.120987762	 0.134211
72.8876	115.581	159.9553	175.4931	264.8592	269.3102	352.4368	400.8739	493.5175	629.8381	649.0434	712.859	735.2242	835.7117	865.8065	973.5453	1020.0739	1031.0549	1091.5323	1154.0024	1181.1486	1223.4022	1276.786	1346.8031	1393.9325	1420.6136	1455.1329	1484.5714	1492.3963	1504.8299	1520.6225	1643.5331	1846.3813	2995.2909	3023.4648	3076.5243	3130.139	3268.6091	3619.3985
CNC1=NN(C=O)N=C1	CNc1nn(C=O)nc1	
InChI=1S/C4H6N4O/c1-5-4-2-6-8(3-9)7-4/h2-3H,1H3,(H,5,7)	InChI=1S/C4H6N4O/c1-5-4-2-6-8(3-9)7-4/h2-3H,1H3,(H,5,7)
