15
gdb 73740	2.16048	1.79592	0.98728	5.5349	81.41	-0.2081	-0.0199	0.1882	1128.5165	0.112634	-416.807934	-416.799536	-416.798592	-416.840697	31.788	
N	 0.0151268213	 1.3101508304	-0.1116482922	-0.601331
C	-0.0269529679	-0.0447806008	-0.0374186582	 0.211525
C	-1.1127366668	-0.8612298811	-0.0166672368	 0.020098
C	-2.4569402811	-0.4385721587	-0.0058014321	 0.209548
C	-3.5850870646	-0.0137934003	 0.0077193971	-0.403122
C	-0.6414549132	-2.2505498123	-0.0017704081	 0.328037
N	-1.3352851101	-3.3057019258	 0.0188820209	-0.554925
O	 0.7455751563	-2.2314431514	-0.0079678215	-0.255032
C	 1.2152903878	-0.891746935	-0.0406844526	-0.157187
H	 0.8460827993	 1.7895811057	 0.1943667449	 0.263575
H	-0.852315511	 1.7996319394	 0.0533260709	 0.271818
H	-4.5916909244	 0.3234796978	 0.013722788	 0.187542
H	-0.733510598	-4.129543101	 0.0302722287	 0.219375
H	 1.8205640476	-0.7295260755	-0.9430252791	 0.134962
H	 1.8528430248	-0.7010471215	 0.83457096	 0.125116
120.5681	121.4104	190.4919	210.0754	299.4066	358.7422	409.6485	433.6485	483.1726	534.9894	540.4383	581.8425	609.3825	653.8715	670.496	741.5043	746.7588	847.362	969.0993	980.2155	1030.1045	1087.0094	1162.1034	1199.599	1212.3512	1291.8705	1384.9317	1448.1574	1504.5042	1633.4055	1695.777	1768.6491	2224.1617	3001.0115	3032.6001	3491.1511	3502.5095	3575.5094	3692.0993
NC1=C(C#C)C(=N)OC1	N[C]1C(=C([NH])OC1)C#C	
InChI=1S/C6H6N2O/c1-2-4-5(7)3-9-6(4)8/h1,8H,3,7H2	InChI=1S/C6H6N2O/c1-2-4-5(7)3-9-6(4)8/h1,8H,3,7H2
