20
gdb 120000	2.3113	1.2851	0.89478	3.4505	77.73	-0.2371	0.0369	0.274	1319.7671	0.170091	-440.309165	-440.299442	-440.298497	-440.344427	35.079	
C	 0.0677100512	 1.6602277152	-0.1260348937	-0.404717
C	 0.0377991705	 0.1465483126	 0.0092426063	 0.064482
C	 0.9001555508	-0.6813080791	-0.9918765413	-0.400558
C	 1.616094126	-1.234172749	 0.2558271451	 0.409591
O	 2.4589040926	-2.0620361675	 0.4926127284	-0.378986
N	 0.8736648338	-0.4269260815	 1.088096061	-0.080864
C	 0.7056956657	-0.5368038605	 2.5189779889	-0.165129
C	 1.1286928391	 0.6906559598	 3.3174823909	-0.074486
O	 0.1593366088	 1.7122168837	 3.1227652687	-0.410575
H	 1.0968677121	 2.0137762035	-0.2511652505	 0.111267
H	-0.5129279975	 1.9716065317	-1.0009032015	 0.112942
H	-0.3488122372	 2.133642949	 0.7653499112	 0.14397
H	-0.9978594206	-0.2124454367	 0.0724922474	 0.080307
H	 0.3659730811	-1.4404371811	-1.5663105286	 0.128719
H	 1.5299972058	-0.09125338	-1.6609650029	 0.125833
H	-0.342475019	-0.7626724612	 2.7590391999	 0.115099
H	 1.3175565793	-1.3906527067	 2.8291175855	 0.137086
H	 1.1926056033	 0.409882981	 4.3805192125	 0.092574
H	 2.1274678602	 1.0118254983	 2.9889239037	 0.102363
H	 0.4763578139	 2.5156515384	 3.5452741589	 0.291081
40.0876	114.4513	123.387	138.0095	210.8609	253.7344	269.2698	308.8251	332.7181	432.6285	461.4458	520.9904	582.4661	683.0521	729.3294	820.4405	884.0767	914.4588	937.3061	1002.2857	1056.5542	1062.3205	1090.9276	1099.4485	1111.9202	1141.1182	1184.8376	1211.5505	1248.131	1260.3822	1280.3147	1345.1645	1377.1254	1398.3129	1408.2508	1418.459	1453.0705	1459.1282	1464.0979	1488.0247	1504.9336	1514.4117	1869.0572	2978.0896	3010.5493	3017.5672	3029.3592	3035.5816	3081.1834	3088.8223	3102.7583	3136.6	3138.77	3834.5275
CC1CC(=O)N1CCO	C[C@H]1CC(=O)N1CCO	
InChI=1S/C6H11NO2/c1-5-4-6(9)7(5)2-3-8/h5,8H,2-4H2,1H3	InChI=1S/C6H11NO2/c1-5-4-6(9)7(5)2-3-8/h5,8H,2-4H2,1H3/t5-/m0/s1
