16
gdb 66076	2.81219	1.20823	1.11015	1.2054	69.99	-0.268	-0.0544	0.2136	1135.7074	0.122059	-437.879323	-437.870364	-437.86942	-437.913681	31.377	
C	-0.1459810773	 1.5797794834	 0.0162418887	-0.458994
C	-0.0482148097	 0.0494589722	 0.0244947846	 0.057236
C	 1.185168711	-0.501072284	-0.7535983238	-0.09437
O	 1.8823363643	-0.7947240611	 0.4692363986	-0.260094
C	 0.7158804752	-0.5790879993	 1.256205488	 0.025169
C	 0.9147444885	 0.3118814076	 2.4634860585	 0.137776
O	 1.928631329	 0.9059715817	 2.7100970389	-0.231105
C	-1.32622359	-0.5733333369	-0.2881810717	 0.246135
N	-2.3414916508	-1.0697351336	-0.5320297472	-0.330742
H	 0.8207437894	 2.0124716502	 0.2852979128	 0.158622
H	-0.4227393257	 1.9302897315	-0.9818164393	 0.144738
H	-0.9003123924	 1.9368013973	 0.7222136482	 0.14409
H	 0.9814433984	-1.4023825321	-1.3421882255	 0.128985
H	 1.7141455562	 0.2362872745	-1.3652852279	 0.128147
H	 0.2520319904	-1.5206354441	 1.5889491086	 0.112537
H	 0.0145962735	 0.3744437429	 3.1174843885	 0.091871
56.9762	81.3226	147.788	183.2299	221.7978	258.2524	276.304	344.6301	376.7793	531.9618	557.3	598.1758	749.5705	771.284	892.3391	912.9866	947.2713	969.0875	1002.9867	1036.9672	1116.8065	1143.5814	1157.4133	1196.1855	1216.3821	1282.0132	1342.9967	1366.6334	1414.7153	1416.223	1493.5647	1496.9872	1521.7004	1840.6152	2354.0781	2870.6613	2993.1623	3035.3999	3049.0193	3092.9524	3124.9002	3134.7191
CC1(COC1C=O)C#N	C[C@]1(CO[C@H]1C=O)C#N	
InChI=1S/C6H7NO2/c1-6(3-7)4-9-5(6)2-8/h2,5H,4H2,1H3	InChI=1S/C6H7NO2/c1-6(3-7)4-9-5(6)2-8/h2,5H,4H2,1H3/t5-,6+/m0/s1
