21
gdb 100962	3.31826	0.96567	0.86028	2.1987	75.33	-0.245	0.0603	0.3054	1417.8892	0.180025	-461.341126	-461.330795	-461.329851	-461.376072	38.716	
C	 0.0499563292	 1.4486194187	-0.2031372394	-0.425351
C	 0.188639183	-0.0488154708	-0.04456231	-0.061228
C	 1.5596502827	-0.7017029709	-0.0433235989	-0.325674
C	 0.757957453	-0.6406144119	 1.2228869682	 0.373076
O	 1.2622333775	 0.2291928404	 2.2089192318	-0.470902
C	 0.1701962168	-1.9074176696	 1.8223418304	 0.049499
O	-0.3920833484	-2.7072030447	 0.8013654096	-0.441837
C	 1.2238665341	-2.7200366401	 2.5843618651	-0.094307
O	 0.6866916099	-3.9869460771	 2.9693043521	-0.42631
H	 0.8289864997	 1.9757724311	 0.3542859083	 0.124361
H	 0.1319115569	 1.7398253934	-1.2557393047	 0.119809
H	-0.923025105	 1.8018277284	 0.1590095533	 0.108489
H	-0.5949003549	-0.642562727	-0.5044456748	 0.106861
H	 1.664268683	-1.662865085	-0.5326579353	 0.120761
H	 2.4259388426	-0.0506029247	-0.0924630235	 0.113749
H	 0.5124149968	 0.6684794711	 2.6269283693	 0.282243
H	-0.6176730877	-1.606354856	 2.544074509	 0.037673
H	-0.3943314771	-3.6067369816	 1.1568412768	 0.289298
H	 2.0609592688	-2.9444266837	 1.9166064461	 0.122941
H	 1.6056943255	-2.1543782379	 3.4413528251	 0.108999
H	 0.0739310437	-3.8405463921	 3.6979854816	 0.287849
72.6293	110.9378	133.7178	185.3397	212.419	245.0885	275.2586	322.7985	330.0213	341.9118	376.85	431.5468	486.3059	535.5954	554.6142	601.5348	742.541	822.936	881.6318	895.978	938.2667	948.031	1010.187	1030.3556	1061.0582	1070.78	1100.8895	1134.662	1137.3719	1184.3793	1192.8641	1242.0475	1260.2307	1283.1039	1345.8624	1367.3545	1373.105	1400.0566	1404.3433	1420.9943	1449.3985	1482.2038	1496.8299	1499.5696	1507.5803	2877.8646	3027.2122	3043.7478	3083.748	3102.8261	3113.1309	3136.4092	3166.5868	3230.4097	3745.8949	3784.4366	3808.4321
CC1CC1(O)C(O)CO	C[C@H]1C[C@]1(O)[C@@H](O)CO	
InChI=1S/C6H12O3/c1-4-2-6(4,9)5(8)3-7/h4-5,7-9H,2-3H2,1H3	InChI=1S/C6H12O3/c1-4-2-6(4,9)5(8)3-7/h4-5,7-9H,2-3H2,1H3/t4-,5-,6+/m0/s1
