18
gdb 49446	4.34131	1.29379	1.15051	1.577	76.27	-0.2415	-0.0308	0.2107	1078.1133	0.149113	-401.894524	-401.887406	-401.886462	-401.926301	27.858	
O	-0.6458204416	 0.8152294959	 0.5796268919	-0.252297
C	 0.1981315955	 0.9626427326	-0.270786557	 0.120652
C	 1.3390678161	 1.9344327309	-0.2096541502	-0.080704
C	 1.108913674	 3.4130281457	-0.6445701523	-0.051329
C	 0.3258479102	 3.7136014408	 0.6708932283	-0.01193
C	 0.6591720664	 5.1427728997	 1.0768042187	-0.263337
C	 2.1570737352	 5.1357583474	 0.6659701065	-0.165123
N	 2.3761179538	 3.7697982186	 0.1303099147	-0.133275
C	 1.5629975764	 2.8272946066	 1.0246629607	-0.03494
H	 0.1770917074	 0.3479119465	-1.2003892171	 0.079787
H	 2.246526433	 1.5072099229	-0.646865041	 0.099217
H	 0.9313620434	 3.7926989785	-1.6532722004	 0.084107
H	-0.6831706805	 3.3358372419	 0.8253263666	 0.09896
H	 0.0657716021	 5.882001901	 0.5298958444	 0.102786
H	 0.5058149569	 5.3170057045	 2.1460982823	 0.105667
H	 2.3960374249	 5.8680812384	-0.1105313371	 0.107071
H	 2.8371151399	 5.3018514513	 1.5063180755	 0.108707
H	 1.921090157	 2.5275719769	 2.0111302053	 0.085979
86.0091	163.1374	217.2085	259.7598	355.9691	409.4201	641.1113	728.3006	734.201	757.4743	801.7445	806.4869	827.9172	879.6173	924.2458	938.8985	965.1008	996.7182	1015.4761	1031.647	1043.8373	1055.0483	1096.8447	1116.012	1120.6892	1174.2903	1199.091	1222.8479	1233.5867	1244.4478	1257.0406	1273.1535	1321.9532	1347.5349	1378.135	1429.6461	1492.5643	1510.1247	1816.9431	2864.3817	3049.6717	3060.3111	3073.7714	3085.9962	3090.0306	3102.4368	3107.6535	3144.5696
O=CC1C2C3CCN2C13	O=C[C@H]1[C@H]2[C@@H]3CCN2[C@H]13	
InChI=1S/C7H9NO/c9-3-5-6-4-1-2-8(6)7(4)5/h3-7H,1-2H2	InChI=1S/C7H9NO/c9-3-5-6-4-1-2-8(6)7(4)5/h3-7H,1-2H2/t4-,5-,6+,7-
