17
gdb 45888	2.28453	2.04811	1.1834	2.5185	75.17	-0.2263	-0.011	0.2153	1016.0528	0.138588	-418.008993	-418.001669	-418.000725	-418.040753	28.841	
O	 0.0896535071	-0.0414861395	 0.3226055763	-0.359124
C	 0.0285262754	 1.1574788735	 0.1373285254	 0.356582
N	-1.1987677505	 1.7951684258	 0.1017619974	-0.325759
C	-1.5109674629	 3.1514442222	-0.0543160109	 0.023009
C	-0.742024072	 4.1655432094	 0.3459741879	-0.085104
C	 0.5480508526	 3.9309344739	 1.0801644396	-0.231993
N	 1.556173262	 3.3238494866	 0.2036287168	-0.084244
C	 2.328121696	 2.2232419644	 0.7826539799	-0.243602
C	 1.2644505084	 1.9579825742	-0.2220518905	-0.105269
H	-1.9670220649	 1.1425682343	 0.1862921926	 0.254516
H	-2.4693505746	 3.3218382446	-0.535070995	 0.114051
H	-1.0632443248	 5.1774731459	 0.1316050049	 0.103643
H	 0.9582367907	 4.8676882316	 1.4672839587	 0.11377
H	 0.3390881462	 3.2816796649	 1.951769089	 0.100423
H	 3.3731142258	 2.1674388976	 0.4938456733	 0.122799
H	 2.1208589192	 1.9405516637	 1.8132314039	 0.122073
H	 1.5702322765	 1.7335139168	-1.2430775092	 0.124231
92.2188	189.8501	242.3555	307.0425	358.4504	413.8739	482.1407	526.5554	592.9004	637.0094	681.489	735.8823	762.9512	815.1438	864.647	927.0573	953.4982	954.9906	1005.8779	1022.1673	1076.4201	1087.7862	1110.7269	1128.2248	1160.7907	1231.2296	1274.1297	1306.2148	1313.7446	1378.0635	1399.3003	1433.7927	1479.0465	1494.6759	1511.2329	1720.3134	1779.9421	2918.0374	3080.9885	3101.7472	3116.7323	3174.6206	3193.0347	3209.5863	3586.4349
O=C1NC=CCN2CC12	O=C1NC=CCN2C[C@@H]12	
InChI=1S/C6H8N2O/c9-6-5-4-8(5)3-1-2-7-6/h1-2,5H,3-4H2,(H,7,9)	InChI=1S/C6H8N2O/c9-6-5-4-8(5)3-1-2-7-6/h1-2,5H,3-4H2,(H,7,9)/t5-,8?/m0/s1
