19
gdb 76352	1.9471	1.38919	1.18658	1.2663	89.73	-0.2311	0.0313	0.2624	1208.4431	0.155054	-348.680497	-348.670187	-348.669242	-348.715095	38.331	
C	-0.1006265402	 1.5505109469	 0.0972274737	-0.417733
C	 0.0291798078	 0.0511570179	-0.0357980217	-0.050223
C	 0.6911832042	-0.6250793963	-1.1959696498	-0.050216
C	 1.3021627139	 0.1175436816	-2.3612280017	-0.417739
C	 1.3888953432	-0.6585649594	 0.1877111592	-0.050521
C	 2.5640417563	 0.1487440884	 0.387700626	 0.283136
C	 3.5476223606	 0.8200491418	 0.5576811561	-0.473688
C	 1.3700774146	-1.9077973293	 0.9051532012	 0.256184
C	 1.3319195539	-2.9557324717	 1.4939731733	-0.442667
H	 0.7947543571	 2.0752226578	-0.2405342892	 0.134668
H	-0.9519031704	 1.9124509703	-0.4897718542	 0.120456
H	-0.2712935686	 1.8292999801	 1.1418645009	 0.128431
H	-0.7940974733	-0.5046673845	 0.4032625082	 0.105366
H	 0.2686934094	-1.5903082051	-1.4592856869	 0.105365
H	 1.8257623478	 1.0221159281	-2.0470527106	 0.134672
H	 2.0252717672	-0.5169261512	-2.883413667	 0.128428
H	 0.5260329094	 0.4028938642	-3.0798647299	 0.120459
H	 4.4208683478	 1.4027847066	 0.7162577263	 0.193877
H	 1.3098009193	-3.8783318063	 2.018598996	 0.191744
118.6705	128.9202	137.6844	149.3672	166.2794	168.7404	235.3419	316.8994	355.8926	423.2131	471.5912	540.1236	571.053	573.7586	579.2398	615.3979	617.2488	652.8657	654.848	769.7062	797.5448	935.0912	1023.8889	1024.515	1028.9123	1072.6609	1117.3562	1130.0791	1188.0297	1247.7104	1290.9041	1374.2361	1420.5266	1422.677	1428.2975	1484.1683	1491.3942	1499.2524	1510.1681	2232.7528	2235.8992	3037.966	3040.8678	3097.3696	3098.7732	3127.7862	3136.6152	3150.3076	3161.4718	3502.5843	3504.3366
CC1C(C)C1(C#C)C#C	C[C@H]1[C@@H](C)C1(C#C)C#C	
InChI=1S/C9H10/c1-5-9(6-2)7(3)8(9)4/h1-2,7-8H,3-4H3	InChI=1S/C9H10/c1-5-9(6-2)7(3)8(9)4/h1-2,7-8H,3-4H3/t7-,8+
