16
gdb 132490	3.05704	1.29838	0.91646	1.8919	75.76	-0.2127	-0.005	0.2076	1195.4513	0.123818	-445.92758	-445.919468	-445.918523	-445.960313	30.842	
C	-0.0088537534	 1.5137538784	 0.0052751884	-0.497733
C	 0.0196979285	 0.0084336585	-0.0132040996	 0.193499
C	 0.0420498494	-0.7254933472	-1.2003548474	-0.352969
C	 0.0683544806	-2.1210811376	-1.1914733451	 0.406476
O	 0.0905553953	-2.8620336968	-2.3386853355	-0.446849
C	 0.0726761898	-2.8088106231	 0.021410556	-0.200316
C	 0.0506459781	-2.0941224973	 1.213707767	-0.223533
C	 0.0247194261	-0.709126957	 1.1803961458	 0.202911
F	 0.0035112569	-0.0245432073	 2.3380633043	-0.084048
H	 0.8582834195	 1.9205006636	 0.5363168611	 0.140461
H	-0.0096371189	 1.9192400946	-1.009193562	 0.120255
H	-0.897826756	 1.8873338945	 0.5244384058	 0.140462
H	 0.0387689727	-0.1932052579	-2.1489759677	 0.083944
H	 0.0847456012	-2.2681565823	-3.0960054013	 0.296268
H	 0.0931766436	-3.8919800005	 0.0160114703	 0.110767
H	 0.0533425066	-2.5997269927	 2.1723427299	 0.110406
78.8875	153.0415	208.9321	267.2707	341.0973	341.4801	378.294	451.7294	455.0329	500.418	582.3794	596.6416	721.425	737.5636	783.1534	836.3765	854.5816	933.5165	962.3354	1017.6043	1059.719	1123.3853	1173.9887	1200.2184	1256.1786	1286.3862	1336.7178	1363.8374	1414.0522	1465.7632	1479.5194	1500.0301	1545.6986	1650.5594	1657.9409	3037.5515	3091.5797	3121.6248	3147.4639	3196.5131	3211.3074	3828.198
CC1=CC(O)=CC=C1F	Cc1cc(O)ccc1F	
InChI=1S/C7H7FO/c1-5-4-6(9)2-3-7(5)8/h2-4,9H,1H3	InChI=1S/C7H7FO/c1-5-4-6(9)2-3-7(5)8/h2-4,9H,1H3
