18
gdb 107091	2.49202	1.29267	1.00449	4.2688	76.44	-0.2764	0.0287	0.3051	1207.0922	0.147897	-401.930459	-401.921939	-401.920994	-401.963946	32.029	
O	 0.361303922	 0.6459465986	-0.9122700476	-0.409463
C	-0.2236608115	 0.3358698857	 0.3422827993	-0.177515
C	-1.4939828709	-0.453101009	 0.2133758167	 0.345718
C	-2.0181037048	-1.3704733938	 1.2795718054	-0.354165
C	-1.6902438649	-1.9511262389	-0.067991336	-0.100711
C	-2.8318514453	-1.6403785907	-1.0570979039	-0.150446
C	-2.6186384964	-0.1047651243	-0.7722046407	-0.305647
C	-2.5491486171	-2.0262323679	-2.4303235687	 0.261885
N	-2.3025557422	-2.3345806348	-3.5172550908	-0.325569
H	 0.547096729	-0.1846041033	-1.3641726148	 0.286804
H	 0.4786195344	-0.2039011833	 0.998256605	 0.090197
H	-0.4248984283	 1.3045019536	 0.8154072464	 0.118571
H	-1.3137628206	-1.6257441675	 2.0654495688	 0.122542
H	-3.0505481863	-1.2972483664	 1.6147654709	 0.113206
H	-0.9600640335	-2.7400722855	-0.2005864432	 0.108124
H	-3.808916284	-2.0420806218	-0.7687897145	 0.121656
H	-3.4841711225	 0.4264864227	-0.3663152838	 0.108914
H	-2.2441051972	 0.4208204167	-1.6505086684	 0.145899
64.5132	112.5194	176.4035	203.2814	275.4894	312.4564	376.7533	407.2244	487.9276	496.5553	560.0046	642.7664	744.1864	818.3008	824.6651	879.8133	933.1788	960.8335	998.324	999.0409	1032.6659	1057.2436	1072.1655	1089.0852	1106.9739	1142.8119	1188.8077	1209.4768	1247.6668	1258.2958	1293.1761	1338.8564	1365.9974	1399.5578	1427.26	1480.9803	1493.9545	1500.7572	2354.3619	2972.9236	3052.7224	3056.1413	3064.5378	3105.5769	3143.5627	3188.1248	3198.9004	3802.6504
OCC12CC1C(C2)C#N	OC[C@]12C[C@H]1[C@@H](C2)C#N	
InChI=1S/C7H9NO/c8-3-5-1-7(4-9)2-6(5)7/h5-6,9H,1-2,4H2	InChI=1S/C7H9NO/c8-3-5-1-7(4-9)2-6(5)7/h5-6,9H,1-2,4H2/t5-,6-,7-/m0/s1
