20
gdb 64036	2.30345	1.52192	1.15166	4.0096	83.22	-0.2096	0.0007	0.2102	1148.927	0.170606	-403.196049	-403.187008	-403.186063	-403.230284	34.175	
C	-0.0228828989	 1.5409055942	 0.0144295249	-0.419215
C	-0.0139804008	 0.0067847471	-0.0078305448	 0.278007
C	-1.4396821736	-0.5600337616	-0.0139460349	-0.419396
C	 0.8143240713	-0.5351641216	-1.2245790878	-0.317922
C	 1.9484660016	-1.3045988803	-0.5957590283	-0.15854
C	 1.8580676173	-1.2619305642	 0.7324914972	 0.007964
N	 0.7489081064	-0.5230710029	 1.1633013584	-0.069783
C	 0.438300078	-0.33238175	 2.4772545166	 0.135564
O	 1.0767257571	-0.7742518052	 3.4119195526	-0.339721
H	 0.9986616937	 1.9308287275	 0.0420608052	 0.130793
H	-0.5134820577	 1.9256692392	-0.8855227288	 0.121885
H	-0.5622922239	 1.930726211	 0.8831476016	 0.120562
H	-1.968553703	-0.2334277613	-0.9152069567	 0.121933
H	-1.4186355527	-1.653575518	-0.0054200099	 0.130766
H	-2.0146244192	-0.2213824272	 0.8534382881	 0.120587
H	 0.1921671733	-1.1673501344	-1.8704433224	 0.1116
H	 1.1710573415	 0.2903374823	-1.853154079	 0.111609
H	 2.7197149503	-1.8149190027	-1.1538092408	 0.107297
H	 2.4900741709	-1.6965872882	 1.4923361455	 0.152377
H	-0.4735593917	 0.2787450663	 2.6102971233	 0.073634
28.2869	111.959	214.2295	256.2523	284.8432	297.2152	322.5868	332.7063	360.0497	431.7088	530.6752	532.1048	605.2504	744.0861	780.274	845.3935	871.7755	927.2389	948.5438	966.6695	966.8002	993.2944	1022.915	1039.4054	1087.2194	1135.8227	1184.0516	1213.7141	1242.6771	1274.101	1308.9034	1339.0456	1404.4654	1420.708	1426.5493	1441.5067	1482.8925	1488.5624	1494.8866	1503.5812	1508.9968	1690.2303	1779.7488	2957.7392	3018.4287	3033.9591	3039.1235	3043.6135	3104.0587	3109.8761	3115.1369	3117.3189	3237.9525	3268.0595
CC1(C)CC=CN1C=O	CC1(C)CC=CN1C=O	
InChI=1S/C7H11NO/c1-7(2)4-3-5-8(7)6-9/h3,5-6H,4H2,1-2H3	InChI=1S/C7H11NO/c1-7(2)4-3-5-8(7)6-9/h3,5-6H,4H2,1-2H3
