18
gdb 15688	3.18385	1.83614	1.3068	3.7629	68.68	-0.229	0.0655	0.2945	972.3837	0.156157	-381.176943	-381.168907	-381.167963	-381.209888	29.131	
C	-0.0373704351	 1.5030053231	 0.1355812491	-0.384453
C	-0.0622021092	-0.0191672348	-0.0484746278	-0.15125
N	-1.3862025454	-0.6063050221	 0.0021172743	-0.098542
C	-2.2235576575	-0.6082559421	 1.1880167488	-0.164374
C	-3.4822925	-1.3447437747	 0.6839172059	-0.172451
N	-3.4523920574	-1.0186771639	-0.7356918567	-0.355756
C	-2.1432067068	-0.7674599986	-1.1448797406	 0.450925
O	-1.7471076506	-0.6945368665	-2.2895159398	-0.428357
H	 0.9908176895	 1.8726693827	 0.0709002765	 0.118606
H	-0.6262960253	 1.993657926	-0.6448649034	 0.137181
H	-0.4366470781	 1.8034298538	 1.1097594565	 0.114167
H	 0.3437896336	-0.281396992	-1.0288008525	 0.142556
H	 0.5628889171	-0.5025150844	 0.7128368667	 0.098048
H	-1.7429904055	-1.1278556269	 2.0233507605	 0.111957
H	-2.4731659654	 0.411069724	 1.5187463291	 0.108159
H	-3.3959582067	-2.4259839418	 0.8653699983	 0.107868
H	-4.3935125351	-0.984652436	 1.1685970202	 0.116098
H	-4.0178497121	-1.5408041359	-1.386876615	 0.249618
52.1516	109.4987	191.0429	216.9458	225.1628	316.5349	385.6919	511.6731	539.4166	630.8532	728.4719	756.1363	780.7274	790.2784	910.0602	949.424	962.5147	1054.1832	1090.5276	1095.3207	1133.9334	1173.7306	1219.0627	1246.8992	1263.5656	1295.5142	1338.7186	1360.1882	1394.6075	1408.1485	1431.7765	1453.2648	1478.1582	1494.0407	1502.3918	1528.9296	1534.6879	1827.8043	2986.982	2996.5886	3027.7668	3038.345	3063.7895	3084.971	3096.266	3112.5307	3121.4638	3634.3583
CCN1CCNC1=O	CCN1CCNC1=O	
InChI=1S/C5H10N2O/c1-2-7-4-3-6-5(7)8/h2-4H2,1H3,(H,6,8)	InChI=1S/C5H10N2O/c1-2-7-4-3-6-5(7)8/h2-4H2,1H3,(H,6,8)
