22
gdb 70603	2.09964	1.81897	1.42963	2.6651	80.87	-0.2255	0.063	0.2884	1063.4097	0.193542	-404.342351	-404.333145	-404.332201	-404.375272	36.634	
C	-0.3701550806	 1.3840072416	 0.0693610835	-0.479594
C	-0.079968817	-0.0969204329	 0.0325160099	 0.342333
C	-0.3761017079	-0.9621214	 1.2073089149	-0.308597
N	 1.0159984157	-0.6105051774	 0.8839336832	-0.136435
C	 1.7097420225	-1.658661259	 0.1121095693	-0.155624
C	 0.7835377899	-2.0805273759	-1.0477479152	-0.288073
C	-0.0462630617	-0.8047113698	-1.3302199372	 0.339014
C	-1.4270870811	-1.0786987992	-1.9275996467	-0.448914
O	 0.6934675563	 0.0785398924	-2.1845336926	-0.478168
H	 0.3148802963	 1.9282655084	-0.5835579589	 0.140514
H	-1.3942035644	 1.5920403064	-0.2613161733	 0.109402
H	-0.2591289347	 1.7609991236	 1.0889123225	 0.119411
H	-0.7566450677	-0.5013840916	 2.1149046375	 0.110408
H	-0.7144429142	-1.9840187971	 1.0552340303	 0.102177
H	 2.6303235173	-1.2141120745	-0.2780204916	 0.114816
H	 1.9869481483	-2.4912029712	 0.7663078394	 0.100181
H	 1.3391502469	-2.3889208695	-1.9376768169	 0.091194
H	 0.134890861	-2.9164845363	-0.7693494712	 0.100191
H	-2.0340317776	-1.6994169715	-1.2621840468	 0.11888
H	-1.9584972533	-0.1399983136	-2.1086638682	 0.126746
H	-1.3377929572	-1.6055026172	-2.8857266172	 0.10449
H	 0.6984582729	-0.3063595458	-3.0669607046	 0.275648
116.3135	176.4535	231.346	231.8405	238.891	276.359	294.4416	349.5588	391.0668	440.0258	457.0464	482.4666	593.8545	629.8674	668.006	782.512	809.783	816.9968	910.1299	937.5561	942.6446	954.6988	989.3954	1008.3105	1042.5921	1089.7482	1111.677	1112.2972	1142.1114	1183.59	1192.1234	1213.2821	1243.7511	1273.0124	1320.8624	1345.3975	1372.5448	1391.8693	1404.0626	1414.6268	1477.4115	1482.6379	1489.2825	1493.4654	1497.1678	1500.4034	1515.0793	3025.6246	3039.177	3048.568	3055.0818	3086.1609	3092.6444	3101.6388	3106.0814	3107.6819	3118.8169	3137.3045	3184.834	3812.8389
CC12CN1CCC2(C)O	C[C@]12CN1CC[C@]2(C)O	
InChI=1S/C7H13NO/c1-6-5-8(6)4-3-7(6,2)9/h9H,3-5H2,1-2H3	InChI=1S/C7H13NO/c1-6-5-8(6)4-3-7(6,2)9/h9H,3-5H2,1-2H3/t6-,7+,8?/m1/s1
