23
gdb 83960	2.05965	1.83412	1.71358	0.128	88.21	-0.231	0.0242	0.2551	1022.2228	0.209968	-351.181781	-351.174132	-351.173188	-351.213127	32.536	
C	-0.2364202394	 1.5387926021	 0.0104782993	-0.432222
C	 0.0645655002	 0.040916372	 0.0026270907	 0.055764
C	 0.8951686627	-0.5229429426	-1.182751817	-0.059777
C	 2.2324756886	 0.2538655418	-1.2956506007	-0.20427
C	 3.0688499311	 0.1563251507	 0.0033256739	-0.184511
C	 2.2323862814	 0.2403093641	 1.3031891907	-0.20427
C	 0.8950932694	-0.5352997299	 1.1820985907	-0.059774
C	 1.1545478752	-1.9425142776	 0.6595605753	-0.076014
C	 1.1546011434	-1.9355408715	-0.6749186595	-0.076011
H	 0.6581079276	 2.1660683525	 0.0134634009	 0.118654
H	-0.8264005422	 1.8149800896	-0.8709103403	 0.1104
H	-0.825870864	 1.80582339	 0.8950403498	 0.110403
H	-0.8958665651	-0.4892262146	-0.0001810983	 0.066632
H	 0.3571256558	-0.4876479013	-2.1359524107	 0.053449
H	 2.823758961	-0.1316941868	-2.1343672602	 0.088931
H	 2.0132806463	 1.3007805405	-1.5349628905	 0.094806
H	 3.597569349	-0.8013818048	-0.0016495049	 0.102474
H	 3.8426585201	 0.9318078028	 0.007396939	 0.085989
H	 2.8236208458	-0.1539553232	 2.1378828048	 0.088931
H	 2.0131397698	 1.2846681155	 1.5533779414	 0.094807
H	 0.3569796598	-0.5099538601	 2.1355762684	 0.053448
H	 1.3827702662	-2.7890557141	 1.2975742058	 0.086081
H	 1.382870547	-2.775367435	-1.3217295887	 0.086081
186.7806	199.3719	284.4241	295.2764	301.8469	362.8936	423.1413	516.5596	534.3283	599.2809	675.1467	755.3684	765.0003	772.08	820.2301	839.994	886.9786	918.3963	940.0791	948.4156	962.026	979.7957	1022.8577	1056.2432	1062.4193	1087.0649	1122.6082	1124.5628	1137.3137	1141.7689	1186.5163	1251.5784	1279.1009	1284.1408	1294.8261	1328.3166	1332.6294	1343.5269	1374.1357	1376.549	1388.0677	1391.0252	1413.7747	1483.8303	1487.1965	1496.1481	1509.2378	1514.3675	1660.3228	3020.247	3026.2787	3028.7069	3031.7776	3044.9189	3047.3624	3052.7822	3057.5772	3062.7666	3086.7386	3087.2626	3117.6653	3178.7314	3204.8546
CC1C2CCCC1C=C2	C[C@H]1[C@H]2CCC[C@@H]1C=C2	
InChI=1S/C9H14/c1-7-8-3-2-4-9(7)6-5-8/h5-9H,2-4H2,1H3	InChI=1S/C9H14/c1-7-8-3-2-4-9(7)6-5-8/h5-9H,2-4H2,1H3/t7-,8-,9+
