19
gdb 34626	2.34429	1.65917	1.07205	0.647	91.23	-0.2159	-0.0143	0.2017	1150.9614	0.159131	-348.730655	-348.722238	-348.721294	-348.763632	32.939	
C	 0.0897732742	-1.1435649057	-0.3767591024	-0.444322
C	 0.0025974447	 0.0496992266	-0.2283512352	 0.22741
C	-0.0351170054	 1.4554362347	-0.0596062586	 0.160298
C	-1.1277142042	 2.2051700705	 0.1594556231	-0.197193
C	-0.7926686201	 3.6617593045	 0.3474609888	-0.259221
C	 0.6973133578	 3.7505257409	-0.0778792386	-0.299201
C	 1.205500732	 2.3025713121	-0.0716064134	 0.262693
C	 2.4323656553	 1.8710136252	 0.7064496154	-0.311407
C	 2.4570342576	 1.8858077975	-0.7996630542	-0.323906
H	 0.14349344	-2.1962020075	-0.5045917066	 0.191607
H	-2.1339805908	 1.8115369603	 0.237097838	 0.09865
H	-1.4358997077	 4.3224031829	-0.2447532141	 0.108393
H	-0.9402861222	 3.9555690935	 1.396563331	 0.113088
H	 0.7668098642	 4.1601525186	-1.091521828	 0.108624
H	 1.2832039649	 4.402031035	 0.5758723833	 0.101295
H	 2.9816044398	 2.6398734549	 1.2402491244	 0.11007
H	 2.4042468304	 0.9068002492	 1.2026584973	 0.121335
H	 2.4481952121	 0.9313612879	-1.3152071946	 0.123005
H	 3.0259594275	 2.6645791589	-1.2978238757	 0.108782
69.9751	134.6784	155.2703	251.7455	299.6123	321.4786	412.1389	462.6663	544.5654	579.7463	612.2344	639.5402	655.9731	708.9647	781.4205	804.5402	847.2737	896.5852	904.14	928.2792	943.2398	987.1482	1020.4184	1055.364	1062.953	1081.7309	1116.3547	1175.9462	1194.0191	1230.8547	1253.1721	1302.8643	1313.696	1328.7999	1376.4912	1459.5215	1479.9187	1495.288	1499.3038	1664.4557	2218.9041	3004.9003	3038.6301	3055.5289	3091.7907	3124.1725	3127.3747	3206.1936	3207.1924	3220.6896	3502.4791
C#CC1=CCCC11CC1	C#CC1=CCCC21CC2	
InChI=1S/C9H10/c1-2-8-4-3-5-9(8)6-7-9/h1,4H,3,5-7H2	InChI=1S/C9H10/c1-2-8-4-3-5-9(8)6-7-9/h1,4H,3,5-7H2
