18
gdb 88139	2.58444	1.54654	1.15654	5.1986	72.7	-0.2413	0.0041	0.2454	1098.6327	0.148115	-439.096331	-439.088118	-439.087174	-439.129284	30.753	
C	-0.1904267872	 1.4377086451	-0.0322923928	-0.318634
N	 0.0234646053	 0.0030784954	 0.0793606642	-0.100594
C	 1.3592427478	-0.4937269518	-0.2019801393	-0.293074
C	 0.846450041	-0.497747994	 1.1950292843	 0.161579
C	 1.3844807619	 0.3241787776	 2.3516918212	-0.341763
C	 0.6671208841	-0.3164562946	 3.5552912876	-0.08202
O	 0.3249628475	-1.6557269992	 3.1601924435	-0.228586
C	 0.3476689776	-1.7888052361	 1.8052830866	 0.435273
O	 0.0288880679	-2.7961693911	 1.2462834076	-0.346091
H	 0.6960536857	 2.0520120169	 0.196180554	 0.101828
H	-0.4939584592	 1.6571118243	-1.0603208043	 0.136674
H	-1.0054969748	 1.7409991748	 0.6324380359	 0.127753
H	 1.4097707228	-1.4336330651	-0.7445548884	 0.141431
H	 2.138484807	 0.2331569128	-0.4329308166	 0.109545
H	 2.4677452481	 0.1975470995	 2.4403048889	 0.126778
H	 1.178601335	 1.3932861482	 2.2752123638	 0.120848
H	 1.2919060933	-0.3827704971	 4.4479997137	 0.127438
H	-0.2563215238	 0.2146812944	 3.81225003	 0.121615
76.2502	154.2699	178.6227	211.1255	243.0222	293.0255	393.3815	437.0291	498.6958	576.739	680.4775	701.3627	722.2843	795.0335	856.4454	904.5426	928.5816	975.2872	1050.5055	1061.3609	1081.3945	1102.0808	1131.8564	1148.1148	1170.784	1207.1765	1220.6485	1241.0745	1277.0605	1310.2269	1386.7766	1416.5805	1446.5749	1483.4302	1489.337	1499.6177	1502.3941	1525.9963	1887.1032	2967.8649	3042.832	3059.2019	3071.1568	3083.9008	3107.9891	3108.573	3120.4255	3186.9716
CN1CC11CCOC1=O	CN1C[C@]21CCOC2=O	
InChI=1S/C6H9NO2/c1-7-4-6(7)2-3-9-5(6)8/h2-4H2,1H3	InChI=1S/C6H9NO2/c1-7-4-6(7)2-3-9-5(6)8/h2-4H2,1H3/t6-,7?/m1/s1
