18
gdb 70561	2.81331	1.49771	1.17197	2.2326	73.07	-0.253	0.0275	0.2805	1070.9944	0.148545	-439.086986	-439.079027	-439.078083	-439.119274	31.351	
O	-0.0248656783	 1.3964380314	-0.0487092265	-0.468371
C	-0.0211526053	-0.0013161872	-0.0077312924	 0.39647
C	-0.4180965059	-0.7664307109	-1.2498590587	-0.362643
C	-1.354839022	-0.6660835237	-0.0589940901	-0.080008
C	-1.5454299409	-1.8424557727	 0.8705062838	-0.106822
O	-0.3811628253	-2.6719187703	 0.9787595411	-0.250729
C	 0.8602526755	-2.1107385176	 1.0831102504	 0.380364
N	 1.8907210337	-2.8281981516	 1.2475147797	-0.515831
C	 0.9637000469	-0.6072393111	 0.9759307591	-0.35403
H	 0.7859373493	 1.6834266044	-0.4844004281	 0.284504
H	-0.6800208465	-0.1706924041	-2.1165425566	 0.118081
H	 0.0597683521	-1.7151662895	-1.4692446372	 0.133551
H	-2.2226288601	-0.0231870688	-0.1643208439	 0.106957
H	-1.8345506848	-1.4890839046	 1.8706353754	 0.11452
H	-2.3311235302	-2.5146173115	 0.5136615739	 0.124974
H	 1.6216858483	-3.8121528096	 1.3190632674	 0.217513
H	 2.0006130586	-0.3723465185	 0.7214587373	 0.128828
H	 0.7656365648	-0.1624084242	 1.9607077252	 0.132671
91.5251	163.1639	237.6889	293.0391	320.7718	365.495	392.5895	454.2086	482.4247	504.4364	583.3582	694.4642	728.8493	783.5383	840.0744	906.2359	912.9378	924.866	956.5979	999.8252	1017.9325	1043.6263	1086.1129	1094.9204	1110.2822	1157.285	1194.2806	1225.2704	1270.2186	1280.2471	1321.1777	1341.703	1348.0108	1419.6532	1425.4597	1471.3827	1502.7841	1515.7721	1747.9122	3005.0348	3024.4479	3083.3322	3096.4647	3136.6075	3170.6816	3229.1058	3459.0308	3789.083
OC12CC1COC(=N)C2	O[C@]12C[C@H]1CO[C]([NH])C2	
InChI=1S/C6H9NO2/c7-5-2-6(8)1-4(6)3-9-5/h4,7-8H,1-3H2	InChI=1S/C6H9NO2/c7-5-2-6(8)1-4(6)3-9-5/h4,7-8H,1-3H2/t4-,6-/m0/s1
