19
gdb 93427	3.02329	1.18573	0.88645	3.7662	79.26	-0.2403	-0.0512	0.1891	1280.2902	0.160153	-423.054806	-423.04629	-423.045346	-423.088351	32.417	
O	-0.1368850507	 1.4862330149	 0.0835789121	-0.434339
C	-0.0054972983	 0.0680215751	 0.0575815129	 0.121805
C	-1.4081221778	-0.4914576422	-0.1657647639	-0.215274
C	-1.5820980037	-1.9406591381	 0.2963140634	-0.314957
C	-0.8758472095	-3.0463943357	-0.4774972456	 0.358998
O	-1.4102248823	-4.1362695212	-0.5763250573	-0.323043
C	 0.4700012923	-2.8765080222	-1.081854365	-0.143155
C	 1.2234741448	-1.7913679764	-1.3063699852	-0.046686
C	 0.9979058629	-0.3341346992	-1.0265067393	-0.281964
H	 0.7366896348	 1.8687971213	 0.2161225299	 0.281067
H	 0.3615022483	-0.2932262581	 1.0332628296	 0.06857
H	-2.0949179705	 0.1371454744	 0.4092903124	 0.120507
H	-1.6903704933	-0.3789451054	-1.2196712239	 0.106585
H	-1.2373154479	-2.0272633011	 1.337513486	 0.124994
H	-2.6395851418	-2.2165061879	 0.3046931422	 0.126939
H	 0.8472739107	-3.8324986582	-1.4368384717	 0.106819
H	 2.162219593	-1.977663665	-1.8275719709	 0.108305
H	 0.6885037248	 0.1529550819	-1.9640663282	 0.134806
H	 1.9730362841	 0.1126260031	-0.7832684575	 0.100022
48.5517	113.3433	212.8367	286.5606	311.2609	319.5086	340.0722	374.0319	427.9278	505.7068	536.2716	635.1707	669.3199	731.0896	825.6286	855.1307	897.1057	923.9631	949.177	1041.5243	1052.5745	1074.262	1079.3211	1102.6187	1164.4322	1202.6468	1235.216	1258.8818	1292.5842	1304.044	1348.8934	1357.5316	1367.7056	1399.8388	1425.4087	1443.1551	1460.1894	1469.03	1495.1418	1698.9661	1749.9468	2954.365	2995.006	3010.6483	3022.2559	3039.2092	3087.7782	3099.6152	3126.1275	3165.4499	3811.9035
OC1CCC(=O)C=CC1	O[C@H]1CCC(=O)C=CC1	
InChI=1S/C7H10O2/c8-6-2-1-3-7(9)5-4-6/h1-2,7,9H,3-5H2	InChI=1S/C7H10O2/c8-6-2-1-3-7(9)5-4-6/h1-2,7,9H,3-5H2/t7-/m1/s1
