23
gdb 109930	2.09136	1.32902	1.07178	1.9373	81.9	-0.2468	0.0705	0.3174	1285.7444	0.203314	-425.422172	-425.411702	-425.410758	-425.457008	39.864	
C	 0.0689362631	 1.5692009264	 0.0714063187	-0.384879
C	-0.0988027869	 0.0465033365	 0.0115294118	-0.205913
C	 0.673762473	-0.583676769	-1.1392921248	 0.012791
C	 2.2261904138	-0.6196389157	-1.1089228781	 0.088858
O	 2.6794192683	-0.6715203258	 0.2367981533	-0.430152
C	 2.1700603463	-2.0066776957	-1.8051846817	-0.316584
C	 0.6683726221	-2.1224713553	-1.3850525986	 0.386431
C	 0.4515358792	-2.9910237849	-0.1509379046	-0.458093
O	-0.2461887554	-2.45975898	-2.414116278	-0.480634
H	 1.1177345238	 1.8379590767	 0.232080246	 0.125402
H	-0.2627794781	 2.0444029532	-0.8588029006	 0.108744
H	-0.5146339921	 1.9995860025	 0.8913482547	 0.107444
H	 0.2311640764	-0.3884263511	 0.959716052	 0.109421
H	-1.1610091744	-0.2048800005	-0.1018862189	 0.096735
H	 0.3680928182	-0.1248223636	-2.0865737781	 0.081504
H	 2.742090812	 0.1790317545	-1.6560719585	 0.063954
H	 3.6170386237	-0.8881329908	 0.2238542135	 0.283221
H	 2.2577454647	-1.9242103723	-2.8914962091	 0.102659
H	 2.8649428673	-2.7670933713	-1.4347459796	 0.08316
H	 1.1396512638	-2.710410572	 0.6493766734	 0.138346
H	-0.5759748246	-2.8995303055	 0.2144082706	 0.120324
H	 0.6350653847	-4.0455063251	-0.3972039091	 0.096247
H	-0.2888432387	-3.4200753112	-2.4766960742	 0.271016
69.4801	112.2131	159.8175	200.0767	250.5999	271.5756	281.5469	289.0082	299.5724	305.9221	356.6056	376.8056	445.2272	520.2382	547.983	676.2307	743.1414	820.4237	840.122	864.8611	910.5499	938.0265	963.7857	974.4517	1021.404	1037.0829	1079.6116	1102.701	1157.0616	1160.5674	1185.8191	1194.1383	1219.2822	1239.2616	1279.9342	1309.6341	1316.0662	1345.1631	1372.299	1397.3576	1403.7782	1406.7706	1416.4691	1464.8182	1483.326	1495.2913	1499.2068	1504.6383	1507.5878	3014.1557	3017.5266	3028.6528	3030.234	3043.7973	3050.5943	3079.0214	3090.0893	3100.2897	3108.0334	3113.4369	3133.3993	3801.6626	3816.1905
CCC1C(O)CC1(C)O	CC[C@H]1[C@@H](O)C[C@]1(C)O	
InChI=1S/C7H14O2/c1-3-5-6(8)4-7(5,2)9/h5-6,8-9H,3-4H2,1-2H3	InChI=1S/C7H14O2/c1-3-5-6(8)4-7(5,2)9/h5-6,8-9H,3-4H2,1-2H3/t5-,6-,7-/m0/s1
