19
gdb 127125	4.0687	1.05042	0.84979	2.4998	80.94	-0.1762	0.0489	0.2251	1362.2176	0.160236	-415.395203	-415.385508	-415.384563	-415.429695	35.194	
C	 0.0381876308	 1.3960295747	 0.0827576509	-0.32794
N	-0.0102498502	-0.0107274131	-0.2620465026	-0.15001
C	 1.1827563149	-0.7744819777	 0.0603755624	-0.320455
C	-1.2238392618	-0.6637250258	-0.0968704258	 0.463164
N	-1.2709495362	-1.9804142368	 0.0823431813	-0.347267
N	-2.615169336	-2.26308051	 0.1018385132	-0.264299
C	-3.3841377611	-1.1559327075	-0.0083368254	 0.411017
N	-4.7760595725	-1.2245221921	 0.0938777175	-0.608633
C	-2.5267146508	-0.0845366451	-0.1534140101	-0.414738
H	 0.9897944105	 1.8134807362	-0.259033115	 0.118281
H	-0.7617419649	 1.9419349456	-0.4239030814	 0.126097
H	-0.0493968977	 1.5861174579	 1.1665230362	 0.104818
H	 1.314049302	-0.9293586377	 1.1441437245	 0.103191
H	 1.1215214049	-1.7566018204	-0.4099712583	 0.149272
H	 2.0591364303	-0.2443103348	-0.3243569447	 0.106332
H	-2.9086966815	-3.1742862354	 0.4066297929	 0.261824
H	-5.1802541144	-1.9582803297	-0.4762327429	 0.24864
H	-5.2117656281	-0.3436290869	-0.143934465	 0.253919
H	-2.8056442984	 0.9429997583	-0.3127694178	 0.086787
59.7119	130.9476	170.2896	176.8661	184.4884	227.6379	250.8034	316.7216	359.0095	388.5517	435.873	524.9256	592.0385	652.8759	694.2627	728.8132	743.5363	780.9519	940.1343	1010.2498	1054.992	1082.2241	1107.5495	1128.0374	1147.4516	1170.8858	1182.8266	1266.6162	1303.3003	1344.7721	1441.756	1444.2343	1463.4765	1481.0945	1490.0626	1498.4115	1508.8454	1540.5492	1584.8136	1621.2276	1661.0621	2955.2978	2970.819	3072.0147	3074.716	3113.8803	3140.7096	3269.4864	3531.9629	3628.5113	3685.1132
CN(C)C1=NNC(N)=C1	CN(C)c1n[nH]c(N)c1	
InChI=1S/C5H10N4/c1-9(2)5-3-4(6)7-8-5/h3H,1-2H3,(H3,6,7,8)	InChI=1S/C5H10N4/c1-9(2)5-3-4(6)7-8-5/h3H,1-2H3,(H3,6,7,8)
