16
gdb 56378	2.05149	1.56797	1.11873	2.398	76.8	-0.2444	0.0017	0.2461	1127.8253	0.12077	-400.63182	-400.622328	-400.621384	-400.665936	35.185	
O	 0.2169578025	 1.4245316311	 0.0110908497	-0.437308
C	 0.114550078	-0.0007244811	-0.0358485864	-0.072517
C	-1.2989049189	-0.4137214158	 0.0378798618	 0.326996
C	-2.456190121	-0.7284859029	 0.103620475	-0.45731
C	 0.7218163173	-0.5302282648	-1.2692549976	 0.348519
C	 1.2295055317	-0.9511511315	-2.2733252181	-0.467569
C	 0.8815701965	-0.5370007056	 1.1852897329	 0.020578
C	 2.1055287704	 0.1541696536	 1.6446609131	-0.241267
N	 0.8609284281	 0.2089069976	 2.440108009	-0.33146
H	-0.3114827338	 1.7791852163	-0.7120389417	 0.295558
H	-3.4781811842	-1.0126435659	 0.1630370199	 0.206663
H	 1.6760858855	-1.3256126139	-3.1615797928	 0.205834
H	 0.793988275	-1.6148019585	 1.2845044567	 0.109997
H	 2.9112004352	-0.4225211287	 2.0890851924	 0.116665
H	 2.4090916401	 1.0461020916	 1.1071007177	 0.130798
H	 0.4121117977	 1.1079765186	 2.2759298682	 0.245825
74.2732	122.7773	132.5021	161.6206	232.7261	267.902	283.5672	339.8583	438.3477	501.0723	514.9925	560.3881	574.339	638.7179	643.3919	672.2576	672.9607	711.8411	847.2168	886.6932	959.8672	980.2808	1012.2001	1068.5275	1117.6649	1127.1509	1152.6686	1214.5616	1270.6215	1301.6446	1331.4762	1412.011	1502.3842	2234.5451	2236.9533	3122.0678	3155.887	3215.0403	3498.9823	3499.481	3499.9305	3820.5408
OC(C#C)(C#C)C1CN1	OC(C#C)(C#C)[C@H]1CN1	
InChI=1S/C7H7NO/c1-3-7(9,4-2)6-5-8-6/h1-2,6,8-9H,5H2	InChI=1S/C7H7NO/c1-3-7(9,4-2)6-5-8-6/h1-2,6,8-9H,5H2/t6-/m1/s1
