18
gdb 50722	2.46447	1.47767	0.98591	3.6378	73.62	-0.2488	-0.0199	0.2289	1177.3158	0.148405	-439.114553	-439.106169	-439.105224	-439.148609	30.726	
N	 0.0916514652	 1.3689809726	-0.1845882142	-0.510004
C	 0.080795293	 0.1264074447	 0.0621583496	 0.394381
O	 1.2261786484	-0.5450466591	 0.3604553303	-0.25487
C	 1.1862918047	-1.7544717953	 1.1390269021	-0.068795
C	 0.0531606831	-2.6838843539	 0.7350244842	-0.233928
C	-1.268563041	-1.9217834425	 0.810388379	-0.209257
C	-1.2014564873	-0.6835654795	-0.0906929262	-0.18869
C	-2.4302485786	 0.2113081389	 0.0500601943	 0.15288
O	-3.382493337	-0.0909956982	 0.7229954676	-0.251339
H	 1.0358511766	 1.7417923225	-0.0681362433	 0.223548
H	 2.1676424001	-2.2122682155	 0.9952070965	 0.121697
H	 1.0905411033	-1.4788173935	 2.1984959113	 0.11325
H	 0.2248747608	-3.0575845456	-0.282034051	 0.10966
H	 0.0502376035	-3.5509926222	 1.4041178404	 0.110343
H	-2.1157612936	-2.5439270016	 0.512314044	 0.118639
H	-1.4660992568	-1.6095036692	 1.8423640853	 0.120537
H	-1.1993124885	-1.0164284936	-1.1428194072	 0.128847
H	-2.3866323459	 1.1551764208	-0.5220066128	 0.123101
44.403	74.0243	134.167	229.7422	292.9703	332.9513	383.0117	442.4233	505.2082	536.4057	649.6297	682.1242	748.2784	863.5279	891.5782	895.6636	917.8644	953.749	967.9221	1056.5047	1063.2794	1101.3004	1135.3695	1153.578	1206.2534	1232.5761	1258.6001	1290.9326	1310.8853	1330.3697	1377.673	1379.3288	1412.0185	1430.5775	1482.3631	1492.7907	1513.6052	1734.4113	1823.8215	2969.9744	2985.8749	3012.7633	3033.0665	3049.2825	3082.6703	3102.232	3104.9741	3469.5735
N=C1OCCCC1C=O	[NH][C]1OCCC[C@H]1C=O	
InChI=1S/C6H9NO2/c7-6-5(4-8)2-1-3-9-6/h4-5,7H,1-3H2	InChI=1S/C6H9NO2/c7-6-5(4-8)2-1-3-9-6/h4-5,7H,1-3H2/t5-/m0/s1
