19
gdb 65727	4.00199	1.02911	0.96647	3.4675	75.65	-0.2403	-0.0212	0.2191	1263.3516	0.156563	-422.995015	-422.986116	-422.985171	-423.028977	33.236	
C	-0.1284092829	 1.5747561727	 0.1499445251	-0.439609
C	 0.0372945412	 0.0644702043	 0.1047182654	 0.383811
C	-1.2631021496	-0.6532383934	-0.2887422107	-0.309933
C	-1.7372299552	-0.2885999221	-1.6801181778	 0.149981
O	-2.8637687789	 0.042520153	-1.9513829511	-0.246314
O	 1.1051255683	-0.3522639542	-0.818842007	-0.334333
C	 1.7115505461	-1.1337249323	 0.2134571832	 0.10551
C	 2.207254463	-0.2618817946	 1.320242585	-0.317795
C	 0.743821382	-0.6512982479	 1.2657564906	-0.165078
H	 0.7943153673	 2.0666744173	 0.4636338089	 0.124896
H	-0.4011213911	 1.9628577714	-0.8368569853	 0.136044
H	-0.9248205428	 1.8470183842	 0.8501101121	 0.127053
H	-1.0695333505	-1.7342982829	-0.2791215754	 0.122792
H	-2.0627929463	-0.4395728028	 0.4273763009	 0.116672
H	-0.9513051939	-0.3627250706	-2.4617501265	 0.099355
H	 2.0923918044	-2.1141861107	-0.0468292583	 0.106512
H	 2.7684782783	-0.7684400231	 2.0996383718	 0.119409
H	 2.5371844607	 0.7492091918	 1.1022335597	 0.119885
H	 0.2401484296	-1.1822995599	 2.0626776995	 0.101142
61.5163	83.8662	172.836	204.611	213.9022	284.8359	327.8441	383.7131	460.596	483.1926	545.9932	667.0267	756.9774	787.5107	826.498	854.8146	904.0671	937.0977	961.8204	979.1261	1003.5013	1029.0754	1048.5901	1051.3738	1062.8781	1087.6851	1133.1517	1165.6463	1199.559	1213.5083	1277.9588	1279.5633	1331.949	1354.069	1413.6663	1421.3109	1450.4859	1471.1325	1485.575	1492.0641	1828.3525	2910.7839	3025.0018	3042.0705	3094.145	3108.4615	3120.2705	3131.8336	3181.5623	3198.6679	3211.5174
CC1(CC=O)OC2CC12	C[C@@]1(CC=O)O[C@H]2C[C@@H]12	
InChI=1S/C7H10O2/c1-7(2-3-8)5-4-6(5)9-7/h3,5-6H,2,4H2,1H3	InChI=1S/C7H10O2/c1-7(2-3-8)5-4-6(5)9-7/h3,5-6H,2,4H2,1H3/t5-,6+,7+/m1/s1
