15
gdb 16832	3.26124	2.17387	1.65029	3.9472	60.59	-0.248	-0.006	0.2421	794.8318	0.119644	-399.798339	-399.791479	-399.790535	-399.829602	26.102	
O	-0.1567571524	 1.458920224	 0.3009198776	-0.428244
C	 0.0042658111	 0.0771555476	 0.0140718117	 0.080812
C	 0.7188533342	-0.6902714153	 1.1450273523	-0.341475
C	-0.4232338746	-1.1808126523	 2.0427378313	 0.372603
O	-0.3873688744	-1.3940312345	 3.2217199907	-0.308898
N	-1.5761943868	-1.3714493311	 1.2177604179	-0.119797
C	-2.3829823514	-0.1547521329	 0.9918158958	-0.233937
C	-1.3800001667	-0.5887151463	-0.0125154113	-0.035972
H	 0.7181193166	 1.8548426697	 0.3707000149	 0.288893
H	 0.5073824214	-0.0586773228	-0.9511976624	 0.080065
H	 1.2321290703	-1.570406279	 0.7388768485	 0.136651
H	 1.4466915096	-0.1015467007	 1.7068795874	 0.125368
H	-3.4392507615	-0.337311059	 0.8199214808	 0.130101
H	-2.1505294244	 0.7231436721	 1.5850597503	 0.150691
H	-1.7037968212	-1.0618726396	-0.9338622156	 0.103139
65.6556	194.8928	286.9123	303.4533	383.656	470.6464	499.5933	580.34	674.595	711.5783	758.63	820.4389	877.6653	896.9763	952.4616	1000.9535	1017.262	1078.6499	1096.1658	1109.9834	1126.2472	1162.9527	1197.7354	1216.8318	1256.8649	1293.5421	1348.2637	1383.8185	1419.9372	1445.9206	1508.1505	1861.8897	3021.4281	3048.749	3119.4899	3126.0914	3162.2721	3221.6773	3815.1983
OC1CC(=O)N2CC12	O[C@H]1CC(=O)N2C[C@@H]12	
InChI=1S/C5H7NO2/c7-4-1-5(8)6-2-3(4)6/h3-4,7H,1-2H2	InChI=1S/C5H7NO2/c7-4-1-5(8)6-2-3(4)6/h3-4,7H,1-2H2/t3-,4-,6?/m0/s1
