18
gdb 57687	3.31309	0.96287	0.91933	2.033	76.25	-0.2688	0.0026	0.2714	1315.0349	0.146115	-398.143726	-398.133714	-398.132769	-398.179257	35.94	
C	-0.7388014455	 1.3244451535	-0.5019075593	-0.416121
C	-0.1688895344	-0.036588498	-0.0358594417	 0.083755
C	 0.5743417776	 0.1167707211	 1.3047338927	-0.416036
N	-1.1731330049	-1.1187843928	 0.0429557199	-0.289097
C	-2.0430872871	-1.2219986425	 1.1998622431	-0.305359
C	-2.986379357	-0.1045646162	 1.4389016234	 0.261479
N	-3.7183367747	 0.7746025086	 1.6059588358	-0.311738
C	 0.8084972711	-0.4906043815	-1.0536392269	 0.295498
N	 1.5650716949	-0.8199007905	-1.8622550078	-0.333857
H	 0.0664527409	 2.0533695423	-0.6294020524	 0.137219
H	-1.2516794526	 1.2171350378	-1.4619907237	 0.130871
H	-1.4488454121	 1.7104078065	 0.231875023	 0.156931
H	-0.0861293319	 0.5462687241	 2.0628140552	 0.13687
H	 0.9509899056	-0.8476571215	 1.6542036852	 0.145601
H	 1.4218715253	 0.7931763544	 1.1785115297	 0.147503
H	-1.7104286602	-1.1547760415	-0.8155691018	 0.24178
H	-2.6372482981	-2.13491117	 1.0867985693	 0.167215
H	-1.4459701567	-1.3590589135	 2.1056800563	 0.167486
24.8227	99.8898	157.3988	191.4698	204.9252	243.3455	289.0766	299.1623	355.0674	370.8538	394.1006	421.6962	553.7517	578.2538	617.7208	677.03	726.817	864.563	884.1518	927.8724	941.036	1022.0923	1041.2737	1119.0861	1177.8442	1220.7093	1242.0451	1310.2651	1368.7069	1398.9806	1420.4433	1454.6683	1480.1458	1481.2686	1501.6995	1504.8336	1520.5762	2346.7315	2358.4383	3047.905	3052.7516	3060.3304	3100.925	3119.5508	3129.9606	3140.0053	3144.9754	3547.8001
CC(C)(NCC#N)C#N	CC(C)(NCC#N)C#N	
InChI=1S/C6H9N3/c1-6(2,5-8)9-4-3-7/h9H,4H2,1-2H3	InChI=1S/C6H9N3/c1-6(2,5-8)9-4-3-7/h9H,4H2,1-2H3
