13
gdb 7232	4.86168	1.28291	1.02137	3.2044	57.65	-0.2548	-0.0912	0.1636	1067.3502	0.093115	-435.803163	-435.794774	-435.79383	-435.836956	27.858	
C	 0.0237140655	 1.4966405493	 0.1124226527	-0.474053
C	-0.0045977752	-0.0015103206	 0.0188496354	 0.312906
O	-0.065321404	-0.7541574717	 0.9648819135	-0.298696
C	 0.0500178253	-0.5813638381	-1.4204989445	 0.324752
O	 0.1109494021	 0.1293378393	-2.3919309923	-0.295312
N	 0.0186159011	-1.9647562378	-1.3954860838	-0.346532
C	 0.0486129895	-2.8443618128	-2.4753358435	 0.168247
O	 0.1086671605	-2.5373741392	-3.6326651078	-0.24812
H	 0.9293465855	 1.8803206101	-0.3682273308	 0.168009
H	-0.8157685545	 1.9182664763	-0.4496563667	 0.168011
H	-0.0183231513	 1.8052779498	 1.156650692	 0.147051
H	-0.033651633	-2.3513268622	-0.4592977859	 0.276457
H	 0.0087964086	-3.8922803125	-2.1178803682	 0.097281
62.7102	84.853	116.7104	157.9746	215.1851	262.8747	332.1564	418.967	508.64	557.291	677.3695	719.0845	762.4135	927.5597	959.9971	1028.4033	1036.7917	1070.7706	1159.9425	1257.4484	1387.1241	1440.7338	1449.8346	1456.8943	1519.1156	1797.2317	1808.2725	1867.926	2941.1766	3051.7701	3112.1496	3167.4482	3556.0354
CC(=O)C(=O)NC=O	CC(=O)C(=O)NC=O	
InChI=1S/C4H5NO3/c1-3(7)4(8)5-2-6/h2H,1H3,(H,5,6,8)	InChI=1S/C4H5NO3/c1-3(7)4(8)5-2-6/h2H,1H3,(H,5,6,8)
