19
gdb 126172	4.01201	0.96164	0.79989	1.4688	77.19	-0.2372	0.0202	0.2575	1423.2537	0.160505	-419.228735	-419.219717	-419.218773	-419.263278	33.184	
C	 0.016306041	 1.5719695689	-0.5096451404	-0.385721
C	-0.0978711025	 0.0503702881	-0.6185042009	-0.183523
C	-1.157953873	-0.537588601	 0.3251776924	-0.003092
O	-2.4448244505	 0.0446395332	 0.1038899229	-0.426568
C	-1.2373999215	-2.0403734232	 0.2554250334	 0.18695
C	-2.3681738517	-2.8044345472	 0.4796367706	-0.128728
N	-1.9972465246	-4.098042617	 0.3293163984	-0.180198
N	-0.6959063943	-4.2454085944	 0.0211368883	-0.228459
C	-0.232639123	-2.9991846559	-0.0239905586	-0.096818
H	 0.7425936466	 1.9655963702	-1.2267609705	 0.108941
H	-0.9503287836	 2.0452840055	-0.6994391696	 0.128278
H	 0.3401794931	 1.8715959402	 0.4933383322	 0.114392
H	-0.3465214277	-0.2421232487	-1.6480764844	 0.091393
H	 0.8695611309	-0.4151161197	-0.3943624588	 0.102059
H	-0.909406291	-0.2289086658	 1.3500975235	 0.100089
H	-2.7363706886	-0.2447609474	-0.7689387661	 0.274282
H	-3.3760903614	-2.5171774519	 0.7310156661	 0.143162
H	-2.5737051795	-4.9180852593	 0.41214187	 0.274557
H	 0.8088868113	-2.8315992647	-0.2554628783	 0.109003
38.7339	91.8077	144.1528	191.3854	231.339	288.6608	331.8376	361.8763	453.0258	486.1597	527.7575	647.2618	697.3227	750.8113	794.4564	821.4617	887.6601	895.1339	954.1413	981.7876	1013.0184	1061.904	1064.3506	1108.1341	1120.7542	1168.8687	1238.0277	1258.2539	1282.7231	1319.3893	1328.9086	1376.1005	1385.3284	1403.9686	1412.7948	1424.7996	1480.1071	1493.9039	1494.3753	1508.3291	1601.7893	3006.8434	3019.4968	3037.561	3059.3428	3102.5608	3124.2495	3247.716	3272.7098	3675.4336	3785.0911
CCC(O)C1=CNN=C1	CC[C@@H](O)c1c[nH]nc1	
InChI=1S/C6H10N2O/c1-2-6(9)5-3-7-8-4-5/h3-4,6,9H,2H2,1H3,(H,7,8)	InChI=1S/C6H10N2O/c1-2-6(9)5-3-7-8-4-5/h3-4,6,9H,2H2,1H3,(H,7,8)/t6-/m1/s1
