18
gdb 28577	4.8971	0.96832	0.85366	3.6652	80.14	-0.2138	0.0257	0.2395	1363.4428	0.149764	-398.146643	-398.138159	-398.137215	-398.180902	30.868	
C	-0.1151849605	 1.4732692519	 0.117478811	-0.499414
C	-0.0400092094	-0.0101873682	-0.0236450361	 0.340548
N	 0.0237664818	-0.6770395717	-1.1553756494	-0.291883
C	 0.0805722868	-2.0073574498	-0.8034433083	-0.184847
C	 0.0420702433	-2.1596508769	 0.5589209847	 0.295577
N	-0.0296818392	-0.8649524331	 1.0454499521	-0.343941
C	 0.088726529	-3.3436814488	 1.4399903373	-0.144886
C	-1.1712548432	-3.9333360541	 1.9846695102	-0.232955
N	-0.4032835222	-4.6404702231	 0.9499826032	-0.305652
H	 0.7374710506	 1.8746583183	 0.6774807691	 0.131494
H	-0.1120652424	 1.9163665048	-0.879007077	 0.159365
H	-1.0286686766	 1.7902338864	 0.6341477861	 0.12993
H	 0.1608653849	-2.7822958106	-1.5512354931	 0.107373
H	-0.0930685105	-0.6082643082	 2.0168064776	 0.260266
H	 0.9852085137	-3.4408871775	 2.052182483	 0.103975
H	-1.1666782162	-4.4066317548	 2.9625526838	 0.119632
H	-2.1078604491	-3.4595431868	 1.7043414756	 0.116817
H	-0.8557198508	-4.5047998379	 0.0488904603	 0.238597
35.2667	91.001	125.9862	163.1724	249.812	322.4604	398.2853	472.669	523.4269	611.0336	689.9472	697.0827	709.7186	837.9161	847.9397	885.0067	964.5878	984.7915	993.219	1016.5594	1045.5247	1062.7751	1104.3813	1142.6035	1172.2727	1186.7976	1206.6388	1256.6552	1286.7154	1300.2033	1362.4557	1405.7535	1421.0218	1434.2054	1483.4611	1496.4771	1505.338	1549.9101	1628.0044	3029.274	3078.0048	3099.4022	3110.4846	3149.5577	3199.7563	3243.4345	3501.6681	3656.0696
CC1=NC=C(N1)C1CN1	Cc1ncc([nH]1)[C@H]1CN1	
InChI=1S/C6H9N3/c1-4-7-3-6(9-4)5-2-8-5/h3,5,8H,2H2,1H3,(H,7,9)	InChI=1S/C6H9N3/c1-4-7-3-6(9-4)5-2-8-5/h3,5,8H,2H2,1H3,(H,7,9)/t5-/m1/s1
