21
gdb 39650	4.35378	0.97208	0.94122	1.9305	82.8	-0.242	0.0843	0.3263	1329.6983	0.184626	-387.00943	-387.001626	-387.000681	-387.043125	29.971	
C	-0.0250748303	 1.421444389	-0.2480830299	-0.081345
O	 1.2448542001	 1.7788121074	 0.331339511	-0.271481
C	 1.5304130235	 0.4074559627	 0.6689913758	-0.081331
C	 0.2112158368	-0.0855834887	 0.0231255098	-0.088546
C	-0.7771940702	-0.7702047047	 0.9427065175	 0.059069
C	-2.1191987077	-1.383727423	 0.4169885957	-0.060827
C	-1.3020053525	-2.5761538589	-0.1622208703	-0.225031
C	-0.705866183	-2.3044549072	 1.2505631157	-0.06081
C	-2.1744548642	-2.182557765	 1.7517669829	-0.21752
H	-0.8672113372	 1.8650958634	 0.3010800003	 0.095147
H	-0.0952520382	 1.718941684	-1.3016660903	 0.097863
H	 2.459118224	 0.0538098166	 0.2043335129	 0.097864
H	 1.5994589018	 0.2571189784	 1.7553759286	 0.095149
H	 0.3835093427	-0.6504074143	-0.8936794333	 0.076756
H	-0.9095615812	-0.1572948294	 1.8441302148	 0.063008
H	-2.9414692451	-0.8512566835	-0.0643410127	 0.068938
H	-1.8460443089	-3.5173069243	-0.2793606716	 0.09043
H	-0.6685905595	-2.3903184338	-1.0309017005	 0.094181
H	 0.1116306564	-2.8402105701	 1.7363591068	 0.068938
H	-2.3371558816	-1.6047071252	 2.6658951537	 0.089514
H	-2.7680592557	-3.1003635433	 1.7444704332	 0.090033
40.2225	64.26	145.9628	238.5504	325.3043	419.4203	513.8073	573.2653	774.0411	805.7843	812.2691	859.731	871.6881	895.6235	898.2104	905.0284	931.6797	1001.4892	1007.1042	1020.3799	1022.5148	1031.1821	1046.4463	1086.614	1098.1057	1113.0729	1130.9445	1147.3559	1159.3647	1164.5941	1191.3777	1198.8814	1216.8937	1249.2626	1250.0189	1255.0688	1269.4176	1310.8511	1323.1484	1382.5496	1441.8033	1504.2861	1512.2962	1538.1639	1544.434	2995.1514	3004.86	3016.0699	3044.103	3044.3593	3049.2588	3061.2075	3092.4938	3098.669	3101.0135	3115.9775	3125.7332
C1OCC1C1C2CC1C2	C1OCC1[C@H]1[C@H]2C[C@@H]1C2	
InChI=1S/C8H12O/c1-5-2-6(1)8(5)7-3-9-4-7/h5-8H,1-4H2	InChI=1S/C8H12O/c1-5-2-6(1)8(5)7-3-9-4-7/h5-8H,1-4H2/t5-,6+,8-
