21
gdb 98897	4.01402	0.91414	0.83559	1.5949	79.5	-0.2648	0.0181	0.2829	1465.1199	0.183521	-424.281442	-424.271956	-424.271012	-424.317955	33.609	
C	-0.2162601913	 1.3792446173	 0.0515867112	-0.239804
O	-0.1949731569	-0.0454452018	 0.1999339044	-0.233884
C	 0.8086489274	-0.5318737932	 0.9617876676	 0.424111
O	 1.6297828628	 0.1703832932	 1.4994853445	-0.367901
C	 0.7807419751	-2.0443296027	 0.9995024278	-0.079046
C	 1.7185215771	-2.6528890144	-0.0766791358	-0.212046
C	 1.9802423333	-4.0677780069	 0.4547405146	-0.202488
C	 2.1881189314	-3.8515126225	 1.9662689844	-0.200232
C	 1.2875765779	-2.6404156362	 2.3398995645	-0.224564
H	 0.7058343015	 1.733607013	-0.4164479487	 0.138638
H	-1.0752210547	 1.5996752605	-0.5825660877	 0.130814
H	-0.3232441484	 1.867298236	 1.0237233808	 0.139853
H	-0.2415233305	-2.3702956601	 0.7896731069	 0.089154
H	 1.2801489362	-2.6274639508	-1.077764629	 0.103032
H	 2.655935283	-2.084205943	-0.104159991	 0.113379
H	 1.0990338446	-4.6966097644	 0.2765493667	 0.097483
H	 2.8311311104	-4.5552733513	-0.0299051768	 0.095615
H	 1.9533363659	-4.7439242057	 2.5524761154	 0.095849
H	 3.2378138729	-3.6100472768	 2.1635065127	 0.105077
H	 1.8514961598	-1.8820628769	 2.8868884449	 0.127401
H	 0.4443824525	-2.9372730633	 2.9694166628	 0.099557
15.8134	51.4173	114.3853	132.2775	188.6783	235.1157	278.4413	329.0493	371.236	535.2488	613.3415	708.1597	767.6252	793.8795	843.0346	877.6989	903.6981	933.2862	942.1245	978.2805	1015.918	1036.3621	1052.5845	1086.5037	1174.0917	1179.4527	1191.1021	1202.1205	1218.108	1234.6085	1274.0262	1300.6381	1321.9779	1337.0454	1339.9875	1350.5389	1388.2282	1473.6596	1481.2119	1489.9694	1491.2664	1495.3091	1498.1973	1516.9765	1812.4203	3029.8602	3038.468	3047.8893	3050.5278	3061.4695	3070.7686	3085.8872	3093.7965	3102.1737	3120.0407	3124.1677	3156.3651
COC(=O)C1CCCC1	COC(=O)C1CCCC1	
InChI=1S/C7H12O2/c1-9-7(8)6-4-2-3-5-6/h6H,2-5H2,1H3	InChI=1S/C7H12O2/c1-9-7(8)6-4-2-3-5-6/h6H,2-5H2,1H3
