16
gdb 8123	3.92426	1.85692	1.50511	4.2237	64.43	-0.2665	0.0118	0.2783	862.8277	0.130696	-383.781375	-383.774362	-383.773418	-383.812412	27.1	
C	-0.0373327512	 1.562318224	 0.0868912432	-0.466056
C	 0.0945685805	 0.0686874787	 0.0544136477	 0.429341
C	-0.8320522271	-0.8800895269	 0.7595734139	-0.342439
C	 0.6361287562	-0.8116107728	 1.152397798	-0.108391
C	 1.5738117645	-1.7853090575	 0.4788375154	-0.373231
C	 1.426738548	-1.4838378745	-1.0175674904	 0.406468
O	 1.9242461839	-2.0589461908	-1.9390573561	-0.32732
O	 0.5959587634	-0.4122447643	-1.1892671466	-0.248365
H	 0.9263135702	 2.0432289899	-0.108122171	 0.131677
H	-0.7504385922	 1.9072173783	-0.6684643227	 0.138107
H	-0.3953046641	 1.8872814849	 1.0676717547	 0.123598
H	-1.5487639838	-0.4571480735	 1.4550811066	 0.122233
H	-1.1871896803	-1.7483449518	 0.2128880564	 0.126674
H	 0.8980937469	-0.3951932975	 2.1174916003	 0.10167
H	 2.6188359308	-1.6247093346	 0.7629281073	 0.142676
H	 1.3500140042	-2.8414353217	 0.6544154433	 0.143358
116.243	204.7683	212.0067	296.2823	395.7358	440.167	490.2546	560.6932	599.9501	667.1671	741.8895	834.705	836.6797	865.0113	934.39	959.085	992.7396	1035.6472	1054.613	1074.9925	1102.9981	1127.1418	1166.1062	1199.2665	1249.2739	1300.4172	1307.259	1397.283	1429.6238	1461.5876	1478.2938	1487.333	1504.1544	1886.5169	3039.7802	3060.8444	3100.2731	3107.6074	3119.8131	3128.124	3183.1604	3219.0419
CC12CC1CC(=O)O2	C[C@]12C[C@H]1CC(=O)O2	
InChI=1S/C6H8O2/c1-6-3-4(6)2-5(7)8-6/h4H,2-3H2,1H3	InChI=1S/C6H8O2/c1-6-3-4(6)2-5(7)8-6/h4H,2-3H2,1H3/t4-,6+/m1/s1
