22
gdb 119338	3.91007	0.98176	0.94118	1.6874	86.07	-0.2295	0.0888	0.3183	1390.704	0.195114	-367.156072	-367.147482	-367.146537	-367.189787	33.092	
C	-0.017172263	 1.5918030376	 0.2134414524	-0.381462
C	-0.0100574116	 0.0618840558	 0.1757701339	-0.165918
C	-1.3812172191	-0.5318193211	-0.1816536494	-0.357059
C	-1.3987887668	-2.023609433	-0.2155598161	 0.393743
C	-2.4547027969	-3.0504183776	-0.0423529505	-0.099904
C	-1.9622148151	-3.8625177287	-1.236690786	-0.241132
C	-0.6036062175	-3.1457194593	-1.0170069458	-0.126263
C	-0.1912474553	-3.65416947	 0.3713498209	-0.14785
N	-1.3468630601	-2.9179141988	 0.9805924577	-0.188506
H	 0.9697608236	 1.9888981176	 0.470115517	 0.111979
H	-0.3030047046	 2.0117918026	-0.7576362285	 0.112515
H	-0.729973168	 1.9656219315	 0.9568713478	 0.116445
H	 0.7353410628	-0.2848666798	-0.5516749147	 0.095354
H	 0.3004287888	-0.3337426851	 1.1500910122	 0.113226
H	-2.1271054937	-0.2022290088	 0.5534878398	 0.109509
H	-1.7103649339	-0.1408813769	-1.1548216071	 0.097941
H	-3.4613564709	-2.9399989929	 0.3402383349	 0.093973
H	-1.9714402082	-4.9570286419	-1.182742871	 0.092302
H	-2.4559361085	-3.5337415859	-2.1550518788	 0.103825
H	 0.1028023457	-3.0170330138	-1.8354669002	 0.070017
H	-0.1805240749	-4.7377409591	 0.5428550499	 0.091604
H	 0.7349208574	-3.2118472425	 0.7470320518	 0.105661
71.2063	88.4353	110.0229	246.7788	271.3524	296.7561	339.1469	441.9987	493.8569	662.6275	699.0688	745.782	754.2115	817.4247	836.443	886.244	905.0594	928.8892	941.6507	971.5424	982.4398	991.7854	1036.6517	1044.2794	1072.4954	1096.2554	1117.5781	1127.8276	1151.2328	1176.5102	1192.5223	1225.1592	1251.8343	1267.5536	1277.5122	1308.0774	1312.1514	1333.7302	1382.5488	1413.291	1444.8366	1468.6041	1490.6296	1493.6206	1500.1621	1509.3581	1513.703	3006.1933	3022.9787	3025.3856	3029.335	3037.8913	3043.0162	3064.8723	3096.7314	3098.3014	3100.9591	3102.9737	3127.7111	3198.0594
CCCC12C3CC1CN23	CCC[C@@]12[C@H]3C[C@@H]1CN23	
InChI=1S/C8H13N/c1-2-3-8-6-4-7(8)9(8)5-6/h6-7H,2-5H2,1H3	InChI=1S/C8H13N/c1-2-3-8-6-4-7(8)9(8)5-6/h6-7H,2-5H2,1H3/t6-,7-,8+,9?/m1/s1
