18
gdb 109288	3.43398	1.04402	0.81257	3.449	75.46	-0.2374	0.0208	0.2582	1359.4884	0.148347	-439.127432	-439.118465	-439.117521	-439.161951	32.333	
O	 0.0662783932	 1.4270471901	-0.1653983227	-0.416096
C	 0.0096904471	 0.0209860662	-0.033108068	-0.139721
C	-1.4161435663	-0.4440358465	 0.0833097743	 0.25122
C	-2.4464544196	 0.3953431885	 0.0586423425	-0.132491
C	-3.8730687174	-0.0379719944	 0.1718997181	-0.208013
N	-4.015832395	-1.4754260947	 0.3123237509	-0.317214
C	-3.036016388	-2.4215356331	 0.3492026872	 0.399853
O	-3.2896077443	-3.6063663128	 0.4715267995	-0.381851
C	-1.5991600457	-1.9297286378	 0.2301269118	-0.419793
H	 0.9891417749	 1.6850833161	-0.2364860429	 0.292244
H	 0.4763683599	-0.483495386	-0.898257957	 0.097696
H	 0.5670965475	-0.3220471549	 0.8570431362	 0.097677
H	-2.2751734711	 1.4599426706	-0.0485576633	 0.116314
H	-4.3416242435	 0.4674046868	 1.0314416449	 0.11964
H	-4.4310225873	 0.3058316616	-0.7136950887	 0.119641
H	-4.9476797336	-1.8554623809	 0.3952351005	 0.245714
H	-1.1533176259	-2.4679060485	-0.617486717	 0.137583
H	-1.0648060748	-2.3077548202	 1.1124158939	 0.137598
51.5438	90.7718	114.5113	204.0141	211.6718	236.4803	354.5229	427.6104	451.4816	512.4475	524.9043	591.2384	659.8192	738.7626	819.5478	841.0712	926.8829	965.576	998.5966	1030.3978	1050.3395	1076.8487	1131.0171	1155.1794	1213.0153	1222.6103	1245.3752	1264.0163	1309.9171	1342.9799	1382.5466	1401.6014	1453.5249	1463.6593	1490.0276	1507.6561	1528.3456	1768.7077	1790.9962	2938.601	2952.4281	2972.8282	2981.9603	3019.1295	3040.7317	3206.5413	3609.4121	3844.7886
OCC1=CCNC(=O)C1	OCC1=CCNC(=O)C1	
InChI=1S/C6H9NO2/c8-4-5-1-2-7-6(9)3-5/h1,8H,2-4H2,(H,7,9)	InChI=1S/C6H9NO2/c8-4-5-1-2-7-6(9)3-5/h1,8H,2-4H2,(H,7,9)
