17
gdb 7377	2.67667	1.61887	1.42893	4.4349	59.93	-0.2504	0.015	0.2654	964.5987	0.142583	-438.161526	-438.153044	-438.152099	-438.195028	30.431	
C	 0.8100813478	 1.0627108287	 0.2622775172	-0.334523
N	-0.2414597315	 0.0561460661	 0.0944723275	-0.304488
H	-1.0927021964	 0.4970084643	-0.2285531214	 0.235914
H	 0.3929465094	-1.6897403296	-0.5753800736	 0.289966
C	-0.5233547137	-0.7587908022	 1.2775879619	-0.20238
C	 0.4347217534	-1.9729484374	 1.300052598	-0.003837
O	 0.6396636901	-2.456788584	-0.0168755023	-0.443018
C	 1.7781616351	-1.6268610556	 1.9707329708	 0.393684
O	 1.8577404564	-1.148147777	 3.0704180195	-0.337952
O	 2.8452950842	-1.9165188493	 1.2119533796	-0.370407
H	 1.7787627663	 0.5746119782	 0.4007168291	 0.151704
H	 0.8728474714	 1.6692825163	-0.645062605	 0.12621
H	 0.6412948488	 1.7282292807	 1.1222059154	 0.121364
H	-0.4283996946	-0.214575481	 2.2266645069	 0.132443
H	-1.5484911719	-1.1293467125	 1.1910059861	 0.112397
H	-0.0137533554	-2.7677672649	 1.9069201391	 0.122551
H	 2.4752003205	-2.2981678707	 0.3905515112	 0.310371
67.9249	94.2216	111.2772	216.1029	246.042	301.0225	354.3078	397.9531	508.0296	578.2731	604.9575	692.2152	747.6011	796.9478	830.5555	863.0098	909.6575	966.2983	1038.0754	1099.8537	1137.5483	1148.897	1187.4165	1219.236	1244.9703	1298.8332	1351.9775	1378.7154	1412.246	1441.2046	1465.2616	1478.1974	1494.8773	1500.6326	1517.118	1869.6362	2994.4328	3023.2357	3052.4516	3087.0887	3093.1302	3122.6075	3504.465	3562.8048	3575.4136
C[NH2+]CC(O)C([O-])=O	CNC[C@@H](O)C(=O)O	
InChI=1S/C4H9NO3/c1-5-2-3(6)4(7)8/h3,5-6H,2H2,1H3,(H,7,8)	InChI=1S/C4H9NO3/c1-5-2-3(6)4(7)8/h3,5-6H,2H2,1H3,(H,7,8)/t3-/m1/s1
