15
gdb 19804	4.15786	2.01457	1.8093	1.2118	63.76	-0.2339	-0.0325	0.2014	758.0921	0.11939	-362.600722	-362.594552	-362.593608	-362.630918	24.586	
O	-0.0440963993	 0.0036241848	-0.1210225264	-0.290502
C	-0.0434843103	 1.196039772	-0.044147456	 0.391578
C	-1.1585045651	 2.2645148313	 0.0991201847	-0.373932
C	-0.0553519705	 3.3564917907	 0.0826806554	 0.021946
C	 1.0582867103	 2.2790012698	-0.0024003623	-0.165973
C	 1.4291052497	 2.913560485	-1.3608996666	-0.022317
C	 0.3059412407	 2.9970677562	-2.3104441998	-0.256484
N	 0.3757020702	 4.0005002061	-1.2286340904	-0.143438
H	-1.94344604	 2.2801499636	-0.6612480986	 0.138576
H	-1.636907004	 2.1900159997	 1.0823135217	 0.139441
H	-0.0896822145	 4.1061386953	 0.8700917873	 0.095675
H	 1.8694433458	 2.1714485056	 0.7160566781	 0.09971
H	 2.4503907351	 3.146476609	-1.6438647113	 0.106992
H	 0.5159443817	 3.4389886547	-3.279907697	 0.129771
H	-0.4776823897	 2.2462080463	-2.334261499	 0.128959
108.9653	253.6621	336.2892	434.01	464.447	554.6995	618.3815	701.4775	723.3	749.9483	853.7538	859.7287	897.4753	913.3426	971.7597	988.7221	1032.4654	1051.4272	1071.971	1097.9647	1108.2959	1143.3857	1153.4158	1201.8908	1226.9142	1229.338	1249.7938	1304.8328	1356.0923	1426.118	1508.3737	1891.6162	3052.7043	3111.1041	3123.4893	3128.9461	3138.8044	3163.2436	3203.8462
O=C1CC2C1C1CN21	O=C1C[C@H]2[C@@H]1[C@H]1CN21	
InChI=1S/C6H7NO/c8-5-1-3-6(5)4-2-7(3)4/h3-4,6H,1-2H2	InChI=1S/C6H7NO/c8-5-1-3-6(5)4-2-7(3)4/h3-4,6H,1-2H2/t3-,4+,6+,7?/m0/s1
