16
gdb 26757	3.20155	1.47981	1.03864	3.2363	73.66	-0.1795	0.0361	0.2156	1099.3124	0.125203	-437.870813	-437.862948	-437.862004	-437.902935	30.154	
O	-0.0295870781	 1.3555393766	 0.0940017585	-0.450633
C	 0.1282005815	 0.0055705079	 0.0187603977	 0.290078
C	 0.1278229962	-0.7407942296	-1.1460196654	 0.091117
O	-0.1565200952	-0.2747420969	-2.4034446021	-0.438982
N	 0.0934831426	-2.06807561	-0.7565320379	-0.051015
C	 0.7777887683	-3.3729135734	-0.9587683356	-0.176451
C	 0.7387792528	-3.558143442	 0.598115586	-0.345274
C	 0.2302016356	-2.127625496	 0.6151509832	 0.279411
C	 0.2521153183	-0.8638241435	 1.1502755725	-0.383188
H	-0.1984751464	 1.6694615189	-0.802929912	 0.295078
H	 0.6347181353	-0.3258240574	-2.9518569989	 0.299968
H	 0.2101631625	-4.0756240588	-1.5735627907	 0.122027
H	 1.7938290301	-3.2704002601	-1.3519717548	 0.120483
H	 0.044460722	-4.3236162042	 0.9550686784	 0.121287
H	 1.7167886498	-3.7234844735	 1.0560596542	 0.123568
H	 0.3396231149	-0.560841078	 2.1812017569	 0.102526
121.5658	184.6309	233.3484	265.3535	280.4554	313.0881	354.5399	424.9205	559.6049	605.6499	629.6147	674.952	696.2145	772.8688	800.9665	831.3864	893.3977	969.0026	1041.9145	1061.5436	1122.1443	1136.8626	1161.5458	1186.796	1224.1597	1232.7794	1270.9498	1320.7022	1372.9969	1378.6393	1486.6988	1495.2302	1511.9177	1555.0646	1642.2647	3050.6223	3061.0539	3100.5111	3115.0312	3260.6124	3767.5184	3788.5826
OC1=C(O)N2CCC2=C1	OC1=C(O)N2CC[C]2[CH]1	
InChI=1S/C6H7NO2/c8-5-3-4-1-2-7(4)6(5)9/h3,8-9H,1-2H2	InChI=1S/C6H7NO2/c8-5-3-4-1-2-7(4)6(5)9/h3,8-9H,1-2H2
