14
gdb 131388	3.39338	1.15284	0.86504	3.0871	67.12	-0.2348	0.0126	0.2474	1223.0942	0.102586	-432.903894	-432.895863	-432.894919	-432.937706	28.95	
O	 0.9951096473	 1.1866468304	-0.0857797673	-0.429753
C	 0.4492517455	-0.0462345978	-0.0348165512	 0.353663
N	 0.4611605902	-0.8751756165	-1.065056686	-0.3278
N	-0.1775549241	-1.9768782654	-0.595123314	-0.209421
C	-0.578994775	-1.8477874948	 0.6877814389	-0.08661
C	-0.189124141	-0.590749988	 1.1041134554	 0.117346
C	-0.374138671	 0.0839100826	 2.4344228139	-0.463388
C	-1.0785178392	-0.7600092002	 3.3988519766	 0.270264
N	-1.636712006	-1.4424084143	 4.1454698446	-0.314813
H	 1.3615859878	 1.3046475787	-0.9712190412	 0.308119
H	-0.2983567434	-2.7659265539	-1.2049433122	 0.280733
H	-1.1014494139	-2.631933892	 1.2128473977	 0.162755
H	 0.5942359898	 0.3669601116	 2.8666039044	 0.16944
H	-0.9343677369	 1.0210103397	 2.3221523205	 0.169464
25.6328	110.8448	229.8278	230.9632	322.6371	378.4935	407.9725	430.115	433.3976	537.6232	649.1276	667.4562	724.2386	803.2569	815.6152	942.8282	951.5936	958.1413	1081.0857	1126.0892	1217.2623	1223.3257	1249.4444	1331.5749	1353.3343	1450.3203	1467.996	1494.9895	1572.147	1641.4579	2366.3355	3027.6564	3051.8298	3265.7869	3693.0092	3796.4692
OC1=NNC=C1CC#N	Oc1n[nH]cc1CC#N	
InChI=1S/C5H5N3O/c6-2-1-4-3-7-8-5(4)9/h3H,1H2,(H2,7,8,9)	InChI=1S/C5H5N3O/c6-2-1-4-3-7-8-5(4)9/h3H,1H2,(H2,7,8,9)
