16
gdb 127337	3.07019	1.47471	1.00866	5.7785	76.47	-0.2343	-0.0467	0.1876	1140.6337	0.124757	-434.103758	-434.095367	-434.094422	-434.137128	30.12	
C	-0.0707523709	 1.4722830856	 0.035873887	-0.317927
N	-0.0460330047	 0.0186565909	-0.0231292741	 0.001693
C	-0.0859573229	-0.6830697372	-1.1784811913	 0.119777
N	-0.0661853674	-1.9719794021	-1.2772987843	-0.335936
C	 0.0022527988	-2.7016343569	-0.0891717802	 0.33186
O	 0.026611179	-3.9167313199	-0.0579633608	-0.348576
C	 0.0449486282	-1.9003316463	 1.1671379961	 0.238425
C	 0.1185985493	-2.6328206115	 2.4672362593	-0.458384
N	 0.0212708006	-0.6047483918	 1.1838179652	-0.266961
H	 0.8348793857	 1.8423091108	 0.5229904956	 0.157491
H	-0.1248968167	 1.8685309461	-0.9789796034	 0.146722
H	-0.9411619445	 1.8087935875	 0.6046611253	 0.15749
H	-0.1389513709	-0.0733321536	-2.0801362086	 0.137207
H	-0.739336918	-3.3059625807	 2.5642545441	 0.153296
H	 1.00654747	-3.2730195327	 2.4839115429	 0.153296
H	 0.1439459844	-1.9341657281	 3.3045127073	 0.130529
73.9123	109.943	150.3077	184.1585	276.7243	319.8172	347.4332	448.5313	489.8281	521.3655	539.7353	609.7803	685.0033	814.7043	819.8936	971.9222	981.7039	1007.5182	1050.8671	1065.0229	1135.1612	1155.0157	1275.7652	1300.1284	1388.7635	1407.9957	1454.0656	1461.1689	1463.5653	1471.9228	1472.2748	1519.363	1606.848	1651.5355	1770.0095	3046.2736	3053.3618	3102.1075	3123.4201	3132.0272	3150.0165	3153.1323
CN1C=NC(=O)C(C)=N1	Cn1cnc(=O)c(C)n1	
InChI=1S/C5H7N3O/c1-4-5(9)6-3-8(2)7-4/h3H,1-2H3	InChI=1S/C5H7N3O/c1-4-5(9)6-3-8(2)7-4/h3H,1-2H3
