17
gdb 105343	2.31474	1.58798	1.17821	4.3867	72.26	-0.2494	0.0121	0.2615	1076.6018	0.136628	-417.959695	-417.95148	-417.950536	-417.992562	31.23	
O	 0.0884255578	 1.3343862739	-0.2395187581	-0.412586
C	 0.0698409856	 0.0092597066	 0.2358634905	-0.103496
C	-1.3414709289	-0.584263665	 0.1013092333	 0.122812
N	-1.8746288809	-0.4415404144	-1.3118414414	-0.381204
C	-2.2113177182	-1.8893445529	-1.3199558252	 0.01538
C	-0.9414645196	-2.6675149984	-1.2557295072	-0.291815
C	-1.5373983311	-2.1161771552	 0.0219237683	-0.12911
C	-2.2584179485	 0.0097091154	 1.0750299872	 0.271237
N	-2.9945429992	 0.4672228846	 1.8403420405	-0.336664
H	-0.2238923038	 1.2896025113	-1.1530051672	 0.291462
H	 0.7702650644	-0.6356954926	-0.3121122238	 0.09754
H	 0.3781516735	 0.0334046911	 1.2851512957	 0.127398
H	-2.7123320698	 0.1320522759	-1.3112723214	 0.246579
H	-3.1468350949	-2.2551607561	-1.7225604945	 0.112571
H	-1.0445412828	-3.7439223816	-1.3478866112	 0.12755
H	-0.0366348459	-2.2555604725	-1.6913241962	 0.124282
H	-1.8114639179	-2.7376342101	 0.8627819908	 0.118065
87.7787	138.4104	170.7521	194.6963	253.7421	392.6816	419.4911	475.3392	506.6504	519.3734	580.233	685.2437	760.6112	784.6966	855.8035	874.6585	925.3825	950.5973	973.8714	1019.8474	1036.2363	1051.6313	1073.0417	1087.9447	1093.0291	1136.5533	1170.8099	1200.4364	1244.4321	1283.6702	1325.5529	1383.7819	1399.9017	1429.2013	1479.5484	1502.5411	2349.3855	3012.9703	3093.4086	3126.3279	3198.8745	3209.9829	3219.7239	3529.8568	3764.1893
OCC1(NC2CC12)C#N	OC[C@]1(N[C@H]2C[C@@H]12)C#N	
InChI=1S/C6H8N2O/c7-2-6(3-9)4-1-5(4)8-6/h4-5,8-9H,1,3H2	InChI=1S/C6H8N2O/c7-2-6(3-9)4-1-5(4)8-6/h4-5,8-9H,1,3H2/t4-,5+,6-/m1/s1
