15
gdb 11266	4.76076	1.33251	1.16565	5.5139	69.85	-0.2626	-0.04	0.2226	1006.6968	0.119716	-362.6918	-362.68443	-362.683486	-362.723633	27.251	
O	-0.0284940026	 1.4193641225	-0.0142608841	-0.431883
C	-0.014119157	-0.0003609486	 0.025217933	 0.109697
C	 0.5869754635	-0.5311126791	 1.356505276	-0.278302
C	-0.6170293007	-0.763249206	 2.2258494048	-0.144262
C	-1.7522320226	-0.723178409	 1.5157036515	 0.220122
C	-1.4911556862	-0.449682615	 0.0458063579	-0.310682
C	-3.0577658167	-0.9416744407	 2.032618742	 0.192612
N	-4.1343362409	-1.1185461441	 2.4225510357	-0.335642
H	 0.88260492	 1.7299789275	-0.0103764188	 0.284398
H	 0.5176715762	-0.4035650074	-0.8465139533	 0.072364
H	 1.1418063973	-1.4680542298	 1.207443441	 0.121621
H	 1.2942479916	 0.1869697915	 1.7883638067	 0.111739
H	-0.561369379	-0.961779499	 3.2892798011	 0.121869
H	-2.1294704001	 0.336655512	-0.365364906	 0.142711
H	-1.6532110326	-1.3544959947	-0.5512892875	 0.123638
81.2592	163.8555	170.9746	300.6386	359.208	390.5095	418.9117	541.4313	565.7918	569.8501	770.0773	816.6369	862.9085	890.9278	906.6974	961.4404	980.3311	1028.2307	1080.1194	1150.5174	1175.0809	1217.7574	1240.2521	1277.2992	1300.2545	1327.2072	1363.744	1422.0632	1458.6022	1474.3618	1677.6032	2338.0757	3006.1423	3020.6102	3047.6415	3057.5366	3103.7881	3213.8891	3816.9918
OC1CC=C(C1)C#N	O[C@H]1CC=C(C1)C#N	
InChI=1S/C6H7NO/c7-4-5-1-2-6(8)3-5/h1,6,8H,2-3H2	InChI=1S/C6H7NO/c7-4-5-1-2-6(8)3-5/h1,6,8H,2-3H2/t6-/m0/s1
