19
gdb 46764	2.45011	1.854	1.26694	2.6864	79.16	-0.2339	-0.0143	0.2196	1026.1628	0.161702	-385.941491	-385.934144	-385.9332	-385.973585	29.24	
O	-0.1040506708	 0.2331376648	 0.626922772	-0.324255
C	-0.0861990372	 1.3820726391	 0.2657468832	 0.405235
C	-1.3034341445	 2.3026388795	 0.1493959201	-0.313957
C	-0.8162377969	 3.5187075772	-0.6482470005	-0.236813
C	 0.7031167188	 3.6139279142	-0.3489962905	-0.062579
C	 1.069525294	 4.2758832094	 0.9626634695	-0.069682
C	 1.8675368937	 3.5177224577	 1.7143242523	-0.0679
C	 2.1952699644	 2.1982649171	 1.0545651809	-0.267426
C	 1.1870845747	 2.1584458527	-0.1203997506	-0.126605
H	-2.1556602093	 1.7744852417	-0.2840020522	 0.125498
H	-1.5853457067	 2.5807333063	 1.1729547927	 0.1366
H	-0.9662039598	 3.3492987744	-1.7201934852	 0.103607
H	-1.3455827365	 4.4407111374	-0.3918406229	 0.102399
H	 1.2173855625	 4.1137083456	-1.1791558517	 0.078879
H	 0.7294538453	 5.2742671564	 1.2188094334	 0.091541
H	 2.2799318076	 3.8057000798	 2.675345689	 0.095876
H	 3.2346148916	 2.1827120277	 0.7009216771	 0.107443
H	 2.0759297761	 1.3308345869	 1.7129042654	 0.126409
H	 1.6071204132	 1.6849319522	-1.0131691719	 0.09573
64.4976	141.9496	227.4943	301.1142	415.7457	453.4778	509.3013	576.8027	636.5899	695.1264	726.3097	765.3426	821.5497	834.6329	870.1644	932.9329	938.5711	971.219	979.0339	982.2944	994.5549	1048.1004	1079.8336	1124.8986	1135.9533	1145.544	1181.8369	1189.5631	1216.5981	1265.6567	1286.3191	1304.6374	1307.8489	1332.1104	1343.1182	1380.5817	1446.435	1491.9868	1499.0411	1678.9572	1838.1342	3019.8254	3021.4295	3040.0706	3046.2698	3066.7307	3070.0926	3089.8417	3110.5633	3175.7753	3202.3571
O=C1CCC2C=CCC12	O=C1CC[C@H]2C=CC[C@@H]12	
InChI=1S/C8H10O/c9-8-5-4-6-2-1-3-7(6)8/h1-2,6-7H,3-5H2	InChI=1S/C8H10O/c9-8-5-4-6-2-1-3-7(6)8/h1-2,6-7H,3-5H2/t6-,7-/m1/s1
