13
gdb 20197	3.86884	3.20636	2.47822	1.3943	59.39	-0.2334	-0.031	0.2024	593.0954	0.098985	-357.607695	-357.602764	-357.601819	-357.63638	20.422	
C	 0.014513029	 1.1478994009	 0.1407480923	 0.010543
N	 1.2018151843	 1.5811425253	 0.3009120497	-0.167144
C	 2.0625681516	 0.6311948078	-0.3348821487	-0.026767
C	 1.9877281956	-0.9101098941	 0.0476536586	-0.026766
N	 1.0584910151	-1.3706564954	 1.0335262376	-0.167149
C	-0.087627726	-0.9558155435	 0.6629081553	 0.01055
N	-0.13117956	-0.137487549	-0.557545677	-0.183493
C	 1.2366504882	-0.3430970419	-1.1183752576	-0.076474
H	-0.8719288737	 1.6200536147	 0.548335358	 0.142621
H	 3.0373729369	 0.9787654739	-0.6495504996	 0.117417
H	 2.9193575612	-1.451679068	-0.0463426662	 0.117417
H	-1.0040046708	-1.1001502132	 1.2234948365	 0.142621
H	 1.3317793684	-0.6073885675	-2.1646379191	 0.106623
321.6674	341.8839	510.2975	641.1655	719.3792	735.5721	784.3142	814.754	826.7104	854.7408	859.8704	901.4528	921.0548	929.8921	948.6192	1023.6827	1036.2755	1080.2029	1081.6184	1119.3189	1145.2268	1263.6687	1274.7645	1328.7149	1328.7796	1347.4576	1636.8952	1639.6731	3177.184	3207.0722	3212.5441	3215.2782	3219.7215
C1=NC2C3N=CN1C23	[CH]1[N][C@H]2[C@H]3[N][CH]N1[C@@H]23	
InChI=1S/C5H5N3/c1-6-3-4-5(3)8(1)2-7-4/h1-5H	InChI=1S/C5H5N3/c1-6-3-4-5(3)8(1)2-7-4/h1-5H/t3-,4+,5-
