13
gdb 130001	5.54695	1.32839	1.07341	4.8053	67.53	-0.2054	-0.0024	0.203	1016.4845	0.093653	-445.112029	-445.105293	-445.104348	-445.142867	26.17	
N	 0.0340488827	 1.3443816414	 0.1400602981	-0.59147
C	-0.0191785394	-0.0296523438	 0.0320227874	 0.406919
N	-1.1424519912	-0.7334187418	 0.0306167088	-0.419098
C	-0.6721769996	-2.0210613164	 0.0097876024	 0.386597
C	 0.7008175688	-2.1043046377	-0.0164179633	 0.353636
N	 1.1384648659	-0.7844128609	-0.0166644247	-0.435439
N	 1.1258174599	-3.3783613277	-0.0645672434	-0.305814
N	 0.045649718	-4.1317228431	-0.0602443388	-0.142118
N	-1.0573054467	-3.314549793	-0.0190146014	-0.338583
H	 0.718483664	 1.7968321574	-0.4510646595	 0.258166
H	-0.8836720305	 1.754698826	 0.0321106227	 0.271793
H	 2.0722837887	-0.4422781012	 0.1302554119	 0.275661
H	-1.9710311306	-3.7353943489	-0.01538945	 0.279749
160.4369	277.8446	304.3782	322.7738	357.2874	394.3899	508.9761	545.8345	588.8985	657.6585	683.9634	747.8257	776.5248	796.8358	872.4732	977.4349	1002.0826	1031.1474	1112.5076	1203.3273	1244.2563	1262.6445	1364.8244	1473.4418	1498.5164	1533.0277	1568.0167	1620.0789	1658.7017	3552.5921	3654.0601	3677.8294	3678.526
NC1=NC2=C(N1)N=NN2	Nc1nc2c([nH]1)nn[nH]2	
InChI=1S/C3H4N6/c4-3-5-1-2(6-3)8-9-7-1/h(H4,4,5,6,7,8,9)	InChI=1S/C3H4N6/c4-3-5-1-2(6-3)8-9-7-1/h(H4,4,5,6,7,8,9)
