15
gdb 35672	4.8703	1.02243	0.96214	1.3311	72.93	-0.269	0.0171	0.2861	1209.934	0.110449	-420.540738	-420.532247	-420.531303	-420.574852	30.987	
C	 0.144586203	-1.251758795	-0.0052696998	-0.468375
C	 0.0505200415	-0.0543208285	 0.0103703276	 0.348186
C	-0.0973909307	 1.3989547383	 0.0267466027	-0.063651
C	-0.6599797919	 1.9489206615	 1.3607918247	-0.135015
O	 0.5165466645	 2.2692825464	 2.0868080281	-0.223832
C	 1.4144597139	 2.7691646144	 1.1257889459	-0.006367
O	 1.1828171503	 2.041129447	-0.0759456851	-0.257562
C	 1.2370512003	 4.2141814638	 0.8960624636	 0.344694
C	 1.1033763507	 5.3951656731	 0.7213772955	-0.449051
H	 0.2362947841	-2.3098925686	-0.0201539256	 0.2054
H	-0.7144952986	 1.7171132827	-0.8210334326	 0.120974
H	-1.2688416032	 2.8443336849	 1.1789653639	 0.114568
H	-1.2296910467	 1.2155599449	 1.9303388704	 0.138055
H	 2.4298256358	 2.5586787111	 1.4771102832	 0.127184
H	 0.989644077	 6.4401143741	 0.5664488275	 0.204792
26.834	100.9327	162.1875	201.783	247.3947	287.1274	442.6811	490.7564	548.0003	587.6947	629.573	660.2925	668.4958	674.4381	773.2346	788.1694	829.0723	934.6898	946.4348	990.6154	1006.3487	1027.8616	1109.7332	1135.3747	1239.8499	1274.4773	1317.3968	1362.2196	1373.0192	1383.7678	1506.5928	2235.5661	2240.4843	3020.7889	3046.6969	3064.2988	3144.2084	3500.0059	3502.3407
C#CC1COC(O1)C#C	C#C[C@H]1CO[C@@H](O1)C#C	
InChI=1S/C7H6O2/c1-3-6-5-8-7(4-2)9-6/h1-2,6-7H,5H2	InChI=1S/C7H6O2/c1-3-6-5-8-7(4-2)9-6/h1-2,6-7H,5H2/t6-,7-/m0/s1
