20
gdb 112048	2.30224	1.60687	1.0565	1.9363	80.91	-0.2369	0.014	0.2508	1181.5324	0.171362	-403.117005	-403.108342	-403.107398	-403.150925	32.661	
C	 0.0567484059	 1.5551852327	-0.2795199889	-0.238126
O	-0.2722407175	 0.1874165397	-0.3606472882	-0.244309
C	 0.6630425146	-0.5901033262	-1.0926179254	 0.015768
C	 1.9236747444	-0.966262397	-0.3450263468	-0.097929
C	 2.1991805456	-2.2644938594	-0.4576777732	-0.070923
C	 1.1748531719	-3.0040832909	-1.2807218755	-0.326725
C	 0.0688138717	-1.9598576527	-1.4585081458	 0.307816
C	-1.3565851418	-2.255096503	-1.1795798379	-0.269972
N	-0.8773727409	-2.1108428608	-2.5691339582	-0.375213
H	 0.9809307029	 1.7319386471	 0.2902249823	 0.1087
H	 0.1789814526	 2.0043504087	-1.2780081743	 0.104106
H	-0.7677354947	 2.0555301031	 0.234407714	 0.128665
H	 0.9210314819	-0.0327006184	-2.0140658741	 0.067034
H	 2.531164219	-0.2347804953	 0.1749495092	 0.096837
H	 3.0700938211	-2.7551495644	-0.0362898533	 0.097889
H	 1.5813189162	-3.3074603655	-2.2547493528	 0.120231
H	 0.8185587934	-3.9196911448	-0.7945094898	 0.109688
H	-1.6438366436	-3.2660057624	-0.9011918233	 0.109448
H	-1.959464607	-1.462676952	-0.7512981601	 0.129448
H	-1.1422495957	-1.1910546786	-2.9173294179	 0.227568
41.2709	97.2204	183.6837	210.3696	267.5571	310.272	327.9345	411.0088	469.6171	494.4035	564.7239	707.8636	764.2298	812.5569	865.7088	931.584	937.3258	964.6208	976.8897	986.2936	995.4245	1021.7892	1047.3438	1079.8147	1120.1027	1137.347	1157.7775	1170.7311	1182.868	1219.8599	1269.2711	1289.2748	1296.9343	1299.3725	1366.4334	1390.2876	1402.9749	1478.6858	1484.0544	1491.0851	1507.2014	1511.3004	1685.5822	2904.4054	2974.9911	3021.2563	3023.7961	3053.9191	3112.7188	3113.452	3182.1922	3209.4785	3215.9013	3476.5847
COC1C=CCC11CN1	CO[C@H]1C=CC[C@]21CN2	
InChI=1S/C7H11NO/c1-9-6-3-2-4-7(6)5-8-7/h2-3,6,8H,4-5H2,1H3	InChI=1S/C7H11NO/c1-9-6-3-2-4-7(6)5-8-7/h2-3,6,8H,4-5H2,1H3/t6-,7+/m0/s1
