21
gdb 75288	2.64677	1.71052	1.31682	0.3302	86.84	-0.2255	0.0337	0.2591	1059.9268	0.184562	-349.943032	-349.935365	-349.934421	-349.974811	31.355	
C	 0.0107629609	 1.5042136005	 0.0287423983	-0.499564
C	 0.000498372	 0.0081487582	-0.013461247	 0.336393
C	-0.0402670731	-0.7685383951	-1.1031577957	-0.16574
C	-0.0209864216	-2.2550071454	-0.811458133	-0.286332
C	 0.0821464896	-2.309287943	 0.7311819849	-0.019231
C	 1.4524408118	-2.5029399931	 1.4109141514	-0.057338
C	 2.4709156427	-1.5030169579	 0.9376692836	-0.288048
C	 1.4332821702	-1.0615923601	 1.9297465007	-0.058916
C	 0.0612428882	-0.8305539037	 1.237894522	-0.119817
H	 0.9161725468	 1.8773980149	 0.524211762	 0.128438
H	-0.031774659	 1.9410174035	-0.9730213938	 0.119753
H	-0.8396712505	 1.8908699791	 0.6052917836	 0.120731
H	-0.0803402155	-0.3850636044	-2.1192890549	 0.079389
H	-0.9259091776	-2.7505352877	-1.1872340353	 0.097614
H	 0.8261842929	-2.7563663953	-1.2989635741	 0.102955
H	-0.6843055761	-2.939405095	 1.1851850735	 0.068049
H	 1.7536685371	-3.4026001186	 1.9349339988	 0.079005
H	 3.4653030659	-1.6420201552	 1.3503765209	 0.106022
H	 2.461588232	-1.1264142367	-0.0810480406	 0.113231
H	 1.7014718656	-0.6905284268	 2.9117871399	 0.078921
H	-0.7265253625	-0.5913813183	 1.9594957746	 0.064483
121.8191	178.399	222.9812	247.1715	285.6384	389.8082	477.8485	554.5142	595.5453	680.574	729.016	767.0061	790.332	811.6552	852.4904	917.0266	923.8527	935.0315	953.0988	989.8117	1010.9864	1017.4329	1030.8807	1049.7423	1066.1661	1073.4702	1079.9621	1095.4705	1155.0077	1169.623	1189.6373	1211.412	1242.7747	1282.0803	1284.3401	1310.0615	1332.7776	1353.4313	1367.4647	1412.9744	1479.7643	1486.1475	1489.4147	1490.8922	1706.2749	3009.4555	3014.784	3032.9225	3050.3273	3060.5398	3092.462	3105.7623	3118.8357	3165.3281	3169.0028	3179.2953	3202.8418
CC1=CCC2C3CC3C12	CC1=CC[C@H]2[C@H]3C[C@H]3[C@@H]12	
InChI=1S/C9H12/c1-5-2-3-6-7-4-8(7)9(5)6/h2,6-9H,3-4H2,1H3	InChI=1S/C9H12/c1-5-2-3-6-7-4-8(7)9(5)6/h2,6-9H,3-4H2,1H3/t6-,7+,8+,9-/m0/s1
