19
gdb 38062	3.50622	1.43637	1.27578	1.6037	80.63	-0.2269	0.0056	0.2325	1051.4407	0.160818	-385.866711	-385.859297	-385.858353	-385.898889	29.521	
C	-0.0681307256	 1.4755196095	 0.1580351248	-0.278679
C	 1.2630937265	 0.7973852912	-0.1056288747	-0.08774
C	 2.0847950796	 0.5542874992	 1.1185193466	-0.087185
C	 1.4710303626	-0.2770707649	 1.962473084	-0.151069
C	 0.1521736566	-0.7753204353	 1.4163262542	 0.441416
C	-0.1117521451	-2.3068923664	 1.418989805	-0.356445
C	-1.2796118588	-1.9784648686	 2.3630355313	-0.068163
O	-0.9622222255	-0.572870896	 2.3404050606	-0.324934
C	 0.0117425536	-0.0294038028	 0.0931035776	-0.107771
H	-0.219731094	 1.9413238946	 1.125443684	 0.128153
H	-0.5541905491	 1.9740746295	-0.6743292627	 0.108916
H	 1.7355460886	 0.9107866759	-1.0744525564	 0.088588
H	 3.034127622	 1.0473934468	 1.2968801753	 0.100207
H	 1.8121467061	-0.5567244939	 2.9526360812	 0.096359
H	-0.3840409876	-2.7254403544	 0.4480705	 0.108836
H	 0.6912018727	-2.9049286614	 1.8534467138	 0.109549
H	-2.2835807854	-2.1785673809	 1.9679166073	 0.099078
H	-1.2107465913	-2.3978890597	 3.3742272197	 0.09938
H	-0.470161416	-0.5335343123	-0.7363639815	 0.081503
63.8901	121.8712	214.0009	340.5208	377.5623	425.6068	473.2617	579.1482	713.408	753.0829	787.0815	794.8454	816.9462	842.6748	867.449	925.7049	943.0928	967.6293	970.2651	984.5676	1012.8117	1024.0409	1047.8048	1063.5795	1085.3337	1097.8047	1105.9061	1160.231	1170.4632	1200.4732	1205.9907	1249.9875	1258.5695	1317.6342	1346.8671	1361.9269	1389.8104	1478.7967	1487.5593	1532.5541	1666.2289	3012.6342	3049.4202	3074.3107	3129.1523	3129.6225	3171.7106	3179.3075	3185.7311	3209.884	3222.3748
C1C2C=CC3(CCO3)C12	C1[C@H]2C=C[C@]3(CCO3)[C@@H]12	
InChI=1S/C8H10O/c1-2-8(3-4-9-8)7-5-6(1)7/h1-2,6-7H,3-5H2	InChI=1S/C8H10O/c1-2-8(3-4-9-8)7-5-6(1)7/h1-2,6-7H,3-5H2/t6-,7+,8+/m1/s1
