21
gdb 108815	2.79988	1.06596	0.88101	2.3525	81.41	-0.2328	0.0251	0.2579	1388.8517	0.181579	-424.234277	-424.224548	-424.223604	-424.268849	36.351	
C	-0.133981127	 1.5994000066	 0.1020771741	-0.389926
C	 0.0676769308	 0.0843475838	 0.0246671287	-0.044624
C	 0.8813144312	-0.4114826363	-1.1543904271	-0.172506
C	 1.6508383257	-1.4529770088	-0.8289145069	 0.291842
C	 2.545906848	-2.2365901901	-1.7314289331	-0.18336
O	 2.515040359	-1.6898845965	-3.0370614846	-0.413808
C	 1.475200077	-1.8189492141	 0.6320226632	-0.333621
C	 0.8386600368	-0.5396650662	 1.2267543747	 0.115976
O	 1.8346910941	 0.3320941632	 1.7443357006	-0.431417
H	 0.8201091099	 2.129757889	 0.1581118878	 0.111895
H	-0.6719514907	 1.9601223092	-0.7806457689	 0.108843
H	-0.715582907	 1.8739450969	 0.9877432413	 0.115031
H	-0.927892984	-0.3865391172	-0.0141927069	 0.078908
H	 0.8095635334	 0.0101019914	-2.1495168795	 0.10475
H	 3.5708534904	-2.2335532114	-1.3175922333	 0.093085
H	 2.2233083109	-3.2937466268	-1.7291838679	 0.09547
H	 3.0845923485	-2.2231416498	-3.5983734926	 0.289831
H	 0.8090138115	-2.6872334357	 0.7400407143	 0.104279
H	 2.4081834731	-2.0655859445	 1.1519615954	 0.102643
H	 0.1818147857	-0.7498984105	 2.0749778281	 0.078061
H	 2.4430873627	 0.5276611877	 1.0217345525	 0.278648
70.3288	113.0779	143.579	178.8152	220.3274	233.1346	268.5928	357.3979	374.0955	393.5891	437.2138	459.0521	547.6836	653.3594	718.6813	825.9666	846.0437	887.174	909.0771	931.0165	989.0373	1004.1257	1034.1495	1054.9656	1087.382	1110.8625	1124.6856	1168.0736	1185.2348	1214.3671	1251.946	1255.277	1264.1537	1279.7712	1325.5152	1338.6456	1362.1671	1410.5434	1433.4722	1466.4623	1476.1347	1493.3334	1496.513	1507.066	1713.1119	2934.3589	2944.6918	2969.6248	3004.2698	3038.5785	3058.983	3081.1678	3103.5241	3116.7757	3211.9328	3785.8023	3838.8994
CC1C=C(CO)CC1O	C[C@H]1C=C(CO)C[C@H]1O	
InChI=1S/C7H12O2/c1-5-2-6(4-8)3-7(5)9/h2,5,7-9H,3-4H2,1H3	InChI=1S/C7H12O2/c1-5-2-6(4-8)3-7(5)9/h2,5,7-9H,3-4H2,1H3/t5-,7+/m0/s1
