18
gdb 81300	2.77438	1.60182	1.30651	4.9226	71.81	-0.2257	0.0118	0.2375	1023.8908	0.14921	-439.08728	-439.079709	-439.078765	-439.119137	29.481	
C	-0.1805649474	 1.4136115314	 0.0250186982	-0.329759
N	 0.0473142324	-0.0241013816	-0.0391717779	-0.1075
C	 0.9024016875	-0.4804563964	-1.1884350148	-0.014256
C	 2.1791049046	-0.3147522763	-0.3291693596	-0.250425
C	 1.174874387	-0.5071883879	 0.8358642022	-0.140855
C	 0.9489256512	-1.9983900624	 1.032981207	 0.471629
O	 1.0033161598	-2.5782118052	 2.0797675192	-0.341217
O	 0.7084892031	-2.6782057168	-0.1203080264	-0.242312
C	 0.5813471321	-1.9560285017	-1.3638257426	-0.061192
H	 0.724560269	 2.0366372717	-0.0810816251	 0.096884
H	-0.8799971465	 1.6961751992	-0.7681983511	 0.126316
H	-0.6478289453	 1.6568604892	 0.984115952	 0.132593
H	 0.7933973209	 0.0697270634	-2.1269788408	 0.081885
H	 2.9910016688	-1.0370534396	-0.4468285939	 0.118599
H	 2.5816513306	 0.6979566972	-0.3626176001	 0.119275
H	 1.3121803073	-0.0077582208	 1.7943304988	 0.097905
H	-0.4505938811	-2.0789510898	-1.707293799	 0.126048
H	 1.2596242459	-2.4348860438	-2.0782936659	 0.116384
131.5845	186.6015	210.9606	250.869	296.3839	372.4909	429.4002	455.2167	537.8634	650.7015	724.6018	779.0115	802.5952	861.8942	884.4847	905.1369	950.0262	985.2978	1018.6097	1067.4499	1072.1981	1116.228	1143.2696	1169.5088	1177.2516	1201.7597	1228.1429	1251.487	1256.8673	1311.7044	1318.8493	1343.0633	1419.2973	1452.0519	1484.077	1499.9559	1500.7188	1506.0029	1866.4151	2953.5674	3042.7342	3065.5497	3069.7837	3082.1678	3092.7471	3106.7691	3127.8367	3134.3651
CN1C2CC1C(=O)OC2	CN1[C@H]2C[C@@H]1C(=O)OC2	
InChI=1S/C6H9NO2/c1-7-4-2-5(7)6(8)9-3-4/h4-5H,2-3H2,1H3	InChI=1S/C6H9NO2/c1-7-4-2-5(7)6(8)9-3-4/h4-5H,2-3H2,1H3/t4-,5+/m0/s1
