23
gdb 73859	2.47456	1.216	0.99993	1.3061	88.91	-0.2181	0.0361	0.2542	1336.8909	0.203533	-388.325525	-388.315251	-388.314307	-388.3601	39.218	
C	-0.3096265201	 1.4441015302	 0.1695808247	-0.499704
C	 0.0774202555	 0.0049992347	 0.0240060117	 0.234425
C	 0.066750655	-0.7571103371	-1.0795647275	 0.226592
C	-0.3364431447	-0.3792531186	-2.4710514211	-0.500047
C	 0.5846039342	-2.1486264179	-0.7935996212	-0.330694
C	 0.6097610604	-2.2490671592	 0.74950883	 0.409164
C	-0.6234245932	-2.9903196585	 1.2747038301	-0.434399
O	 1.7975704307	-2.9468916091	 1.1228718345	-0.479267
C	 0.604891634	-0.7648580253	 1.2147766601	-0.359884
H	 0.5410337258	 2.0468784906	 0.5145130799	 0.123583
H	-0.6697308503	 1.8812820629	-0.7647745859	 0.120725
H	-1.0984572564	 1.5656326189	 0.9235309141	 0.120776
H	-0.6856706897	 0.6533853427	-2.5444586777	 0.120221
H	 0.5028302921	-0.4991366394	-3.1689054035	 0.124803
H	-1.1381059108	-1.0326892323	-2.8394081768	 0.121892
H	-0.0295924082	-2.9351954202	-1.250398323	 0.090679
H	 1.6031051731	-2.2830099625	-1.182040249	 0.113216
H	-0.6346964992	-4.0206379038	 0.9068910108	 0.119496
H	-0.6276595054	-3.0138321994	 2.3717196176	 0.099814
H	-1.5428897247	-2.4920772679	 0.9505710018	 0.120295
H	 1.7759320264	-3.0757030939	 2.0770721624	 0.271076
H	 1.6305018046	-0.4561816265	 1.4615651351	 0.103263
H	 0.0017844611	-0.6101963684	 2.1201139728	 0.083976
68.6446	146.9059	147.154	173.0222	267.4417	281.7228	286.5915	294.8729	307.3424	342.7015	348.7844	447.7493	487.4354	512.9712	549.4594	586.6658	746.289	791.2886	903.4796	918.7809	942.127	957.7511	962.8904	988.4439	1002.1918	1054.4703	1098.5136	1115.0105	1132.3129	1169.4926	1185.2846	1214.3292	1237.628	1275.0991	1312.1177	1345.9696	1384.9982	1401.2261	1408.8942	1419.2621	1477.0325	1479.0448	1480.8214	1483.8108	1488.1286	1492.4979	1495.5078	1500.9165	1742.5612	3000.2988	3011.3025	3013.0993	3016.9026	3021.2474	3032.0368	3044.6738	3053.9998	3055.2612	3088.9732	3109.8238	3113.0552	3117.6637	3804.8583
CC1=C(C)CC(C)(O)C1	CC1=C(C)C[C@@](C)(O)C1	
InChI=1S/C8H14O/c1-6-4-8(3,9)5-7(6)2/h9H,4-5H2,1-3H3	InChI=1S/C8H14O/c1-6-4-8(3,9)5-7(6)2/h9H,4-5H2,1-3H3
