25
gdb 121924	3.66761	0.61073	0.55172	1.3662	89.94	-0.2614	0.0812	0.3426	2067.5665	0.227346	-389.479415	-389.46827	-389.467326	-389.516674	40.317	
C	-0.2106732107	 1.4192869049	 0.1477918781	-0.393824
C	 0.0303436573	-0.0880227229	-0.0241505403	 0.009276
C	 0.7549400378	-0.4252682187	-1.3422063938	-0.18119
C	-0.0248888648	-0.0783737668	-2.6147688699	-0.177851
C	 0.6861566622	-0.5385981297	-3.8807339077	-0.072986
O	-0.1075781458	-0.1570618066	-4.9952677949	-0.422384
C	 0.8022163722	-0.6432871627	 1.1611372819	 0.045759
C	 0.0968439142	-1.0004306453	 2.4438810304	-0.278506
C	 0.664438655	-2.089196989	 1.5639023667	-0.275309
H	 0.7390239794	 1.9680461352	 0.1401437532	 0.108514
H	-0.837296829	 1.8283990191	-0.6497262255	 0.115401
H	-0.7051392295	 1.6260567467	 1.1019190859	 0.11393
H	-0.9489299197	-0.5899914749	-0.0435440694	 0.06391
H	 1.7263083833	 0.0904642671	-1.3543074803	 0.088089
H	 0.9828342115	-1.4993325894	-1.3424785617	 0.093586
H	-1.018321074	-0.5440136294	-2.5877100676	 0.101366
H	-0.1887621156	 1.0018994791	-2.6933306827	 0.108177
H	 1.6884311728	-0.0813443047	-3.9309953803	 0.081894
H	 0.8305883782	-1.6313579899	-3.8502819417	 0.081918
H	 0.3397344165	-0.4464267072	-5.7956465846	 0.283877
H	 1.7967013546	-0.2152004823	 1.2758617917	 0.074834
H	 0.5894032123	-0.7889451638	 3.3866399256	 0.107979
H	-0.9828548156	-0.8910767861	 2.4752090637	 0.108234
H	-0.0377181516	-2.7031712496	 1.0084140844	 0.107547
H	 1.5444754991	-2.623433883	 1.9049040688	 0.107759
50.4934	63.4394	101.4711	104.325	139.6556	193.304	227.81	263.364	282.8083	298.5271	328.545	442.2821	472.3353	513.698	753.472	764.2688	813.4843	826.3586	858.0512	890.9111	933.7959	963.4081	989.6564	1007.9379	1025.6273	1051.7729	1056.5181	1075.9939	1077.6257	1125.3344	1138.8417	1175.7315	1194.8843	1197.8442	1225.3477	1227.0029	1241.8381	1288.9198	1304.1064	1317.5915	1324.2487	1358.6795	1388.9385	1409.7428	1420.0811	1461.3841	1468.2614	1482.0754	1498.8811	1500.1772	1502.911	1506.5871	1528.7039	2955.3805	2980.1297	2988.2641	3002.7815	3028.5202	3031.7503	3039.2182	3081.3277	3094.2947	3110.2319	3118.0035	3124.5587	3130.0838	3202.0509	3217.3304	3830.4014
CC(CCCO)C1CC1	C[C@@H](CCCO)C1CC1	
InChI=1S/C8H16O/c1-7(3-2-6-9)8-4-5-8/h7-9H,2-6H2,1H3	InChI=1S/C8H16O/c1-7(3-2-6-9)8-4-5-8/h7-9H,2-6H2,1H3/t7-/m0/s1
