20
gdb 89402	2.82755	1.41377	1.10177	1.8496	73.96	-0.237	0.0504	0.2874	1145.5081	0.171606	-440.269505	-440.260616	-440.259672	-440.303005	34.181	
C	-0.1618729556	 1.4976770933	 0.0136635168	-0.472341
C	 0.0640129309	 0.0088362205	 0.0990233389	 0.347401
C	-0.899802082	-0.9346042693	-0.6235097537	-0.350659
C	-1.2126303697	-2.0550479977	 0.3959872131	 0.128944
O	-1.4852692673	-3.3307917568	-0.1657530447	-0.444354
C	-0.0193705869	-2.0852666767	 1.3998045725	 0.05276
O	 0.9404915588	-3.0555469771	 1.0004688417	-0.438804
C	 0.5803920883	-0.6889029329	 1.3249719743	-0.08317
N	 1.4614680525	-0.4264385334	 0.1821926536	-0.354992
H	 0.5820786016	 2.029936201	 0.6113020358	 0.130365
H	-0.0726575662	 1.8483018689	-1.0210701688	 0.119869
H	-1.1609849698	 1.7668592207	 0.3742313701	 0.112067
H	-1.8118226655	-0.4231877259	-0.9439949477	 0.111551
H	-0.4383308227	-1.3459525943	-1.5326542168	 0.094778
H	-2.1148138825	-1.7834540112	 0.9543123072	 0.096357
H	-0.8939703954	-3.4466496192	-0.9171599454	 0.283376
H	-0.3738981727	-2.3054121875	 2.4161551881	 0.06932
H	 0.4327942805	-3.8600623483	 0.8308752289	 0.280967
H	 0.8282925999	-0.1658537239	 2.2439970885	 0.086513
H	 1.6237408937	-1.3017538505	-0.3123352523	 0.230053
69.5748	119.1005	174.2975	208.4704	270.6367	288.5448	345.0232	408.5198	430.0238	483.8093	556.9095	577.2743	624.4023	719.8018	753.999	806.7279	846.8468	889.2239	939.3858	976.1006	1031.4784	1034.8015	1056.4868	1075.9294	1101.1632	1117.2195	1143.8599	1168.9771	1181.9302	1253.3406	1263.3535	1305.4635	1315.9727	1326.5881	1339.0211	1359.4093	1407.3743	1412.353	1429.2375	1441.9541	1486.4699	1490.9459	1496.5031	3003.1254	3006.9174	3028.7164	3054.8116	3086.4051	3088.3257	3122.5409	3148.8531	3485.1065	3762.8777	3810.3315
CC12CC(O)C(O)C1N2	C[C@]12C[C@@H](O)[C@@H](O)[C@H]1N2	
InChI=1S/C6H11NO2/c1-6-2-3(8)4(9)5(6)7-6/h3-5,7-9H,2H2,1H3	InChI=1S/C6H11NO2/c1-6-2-3(8)4(9)5(6)7-6/h3-5,7-9H,2H2,1H3/t3-,4-,5-,6+/m1/s1
