15
gdb 13328	6.58815	1.16458	1.01103	3.9943	64.05	-0.2687	-0.0238	0.2449	1108.0742	0.119379	-399.843646	-399.836108	-399.835164	-399.876635	25.999	
O	 0.0683365174	-0.0245569296	 0.0646226004	-0.252289
C	-0.0095465426	 1.1599559942	-0.0147926441	 0.166504
O	 1.1082183866	 1.9465159027	 0.1572478933	-0.232679
C	 0.9704317277	 3.3051950761	 0.1342660236	 0.437935
N	-0.132506643	 3.9258140001	 0.1526324395	-0.286774
C	 0.160518373	 5.3641601313	 0.0798030163	-0.155825
C	 1.6912158283	 5.5300906861	 0.310062182	-0.224035
C	 2.2436686664	 4.109707996	 0.0682972474	-0.325966
H	-0.9082235008	 1.7525131299	-0.2274461352	 0.141389
H	-0.1521157629	 5.7347004116	-0.9044194222	 0.115633
H	-0.4386442879	 5.8990333451	 0.8225640951	 0.117841
H	 2.1365467784	 6.2785580281	-0.3478364481	 0.112822
H	 1.8862674016	 5.8405084334	 1.3400332975	 0.118117
H	 2.9762351158	 3.7764794903	 0.808057994	 0.134407
H	 2.7078054319	 3.9858012747	-0.9176320897	 0.132921
51.6732	94.0814	124.6549	185.9617	280.0349	409.6651	511.2384	541.767	676.8169	785.7381	813.3068	891.7287	910.3084	934.6698	1006.7177	1053.6439	1059.6294	1077.0425	1087.9877	1176.294	1216.949	1236.552	1263.6998	1318.1179	1338.3694	1352.67	1395.6239	1475.8087	1495.1026	1511.4618	1730.9064	1875.3067	3031.4136	3043.4795	3065.5345	3078.8255	3080.9397	3096.6065	3120.816
O=COC1=NCCC1	O=CO[C]1[N]CCC1	
InChI=1S/C5H7NO2/c7-4-8-5-2-1-3-6-5/h4H,1-3H2	InChI=1S/C5H7NO2/c7-4-8-5-2-1-3-6-5/h4H,1-3H2
