18
gdb 57132	3.66175	0.76173	0.65026	1.5578	95.53	-0.239	-0.0149	0.2241	1697.2027	0.145074	-364.724745	-364.71515	-364.714206	-364.759587	35.185	
C	-0.0161491083	 1.3976541752	-0.0335187038	-0.385447
C	 0.0431120436	-0.1325261998	 0.0979464384	-0.212864
C	 0.7438765427	-0.538341887	 1.3151302679	 0.510853
C	 1.3453256512	-0.8727818084	 2.3103679688	-0.292255
C	 2.0169625741	-1.2428455675	 3.4346115749	 0.298147
C	 2.6155401943	-1.5727504524	 4.4301242743	-0.567377
N	-1.324362485	-0.6723643081	 0.1054855082	-0.053552
C	-1.8903807911	-0.9671123782	-1.2094169406	-0.22507
C	-1.4682674735	-2.0664967615	-0.2986963622	-0.213225
H	 0.9903472487	 1.8228210011	-0.0379136997	 0.12706
H	-0.5167765478	 1.6685377139	-0.9675711719	 0.119991
H	-0.5783271561	 1.8218284437	 0.8012550202	 0.140904
H	 0.6150208149	-0.5331571443	-0.7620598075	 0.089886
H	 3.1386879501	-1.8594646289	 5.308218348	 0.190746
H	-2.9401669177	-0.7199726247	-1.3358631083	 0.121396
H	-1.2699359661	-0.7838224192	-2.085761019	 0.111224
H	-0.5676481317	-2.6161199263	-0.5670459642	 0.117111
H	-2.2033062022	-2.6419542575	 0.2555659666	 0.122474
60.4741	86.9853	122.5441	201.6698	232.8894	240.5083	272.5473	346.3368	413.8356	456.5367	511.5903	539.6644	557.5194	595.1036	607.7317	724.5311	758.2922	829.951	911.6593	951.4678	1007.9691	1042.7969	1077.096	1102.3675	1113.5066	1121.2978	1170.145	1183.2352	1206.754	1309.2095	1332.7082	1353.7917	1401.8068	1487.1061	1492.2346	1494.3604	1519.6186	2181.932	2364.2717	2899.9581	3049.5715	3094.9104	3102.5146	3125.1894	3140.0428	3181.5782	3196.2369	3505.9386
CC(C#CC#C)N1CC1	C[C@@H](C#CC#C)N1CC1	
InChI=1S/C8H9N/c1-3-4-5-8(2)9-6-7-9/h1,8H,6-7H2,2H3	InChI=1S/C8H9N/c1-3-4-5-8(2)9-6-7-9/h1,8H,6-7H2,2H3/t8-/m0/s1
