21
gdb 104316	2.82297	1.33671	1.25664	2.6716	77.44	-0.2483	0.0824	0.3308	1135.6666	0.181712	-424.212267	-424.203303	-424.202359	-424.245611	34.37	
C	-0.0140003579	 1.3556297229	 0.1450244969	-0.247086
O	-0.0052911006	-0.0416740379	-0.0450021363	-0.291483
C	 0.6499376523	-0.5266404453	-1.2103226944	 0.394105
C	-0.0815254949	-0.09754928	-2.4915309766	-0.444639
C	 2.1704992513	-0.189751258	-1.2559293297	-0.279304
C	 2.8513886836	-1.4018823085	-1.9347119825	-0.253514
C	 1.9428719321	-2.5637800721	-1.5804396249	 0.048562
O	 1.5820648961	-2.5883754548	-0.1929540935	-0.265206
C	 0.6470228602	-2.0476697021	-1.1286063597	 0.01985
H	 0.99895291	 1.7821581596	 0.1633455891	 0.106122
H	-0.5994938346	 1.886343292	-0.6195446521	 0.103689
H	-0.4803713422	 1.5337925935	 1.1172560641	 0.128423
H	-0.0434195844	 0.9863650613	-2.630496904	 0.119798
H	 0.3770762518	-0.5571799397	-3.3727173331	 0.119765
H	-1.1319864866	-0.402218154	-2.4525418593	 0.12314
H	 2.3802402517	 0.7486201927	-1.7746951591	 0.094082
H	 2.5226947455	-0.0993436918	-0.226384215	 0.126886
H	 2.8841448613	-1.2889954933	-3.0251628519	 0.103545
H	 3.880160034	-1.5505944329	-1.5919734172	 0.110948
H	 2.058432665	-3.5366112209	-2.0519193546	 0.091333
H	-0.2907373839	-2.5889592009	-1.2282094563	 0.090986
87.8494	135.6035	187.7871	194.032	229.1599	290.8081	336.0337	355.9869	390.7696	446.0063	510.8677	609.967	677.8027	761.2459	827.9344	846.7193	877.5763	912.304	934.0832	944.0906	989.8096	1006.8048	1035.8412	1089.7589	1110.9027	1140.6872	1174.4713	1180.9124	1196.6565	1219.5626	1229.7346	1264.2044	1272.3884	1314.4144	1329.7842	1362.4314	1400.7459	1439.201	1475.8827	1477.8085	1484.2756	1492.1772	1496.2724	1504.0926	1511.6186	2987.3423	3034.9966	3037.2675	3041.6499	3071.4347	3082.335	3109.6774	3110.7646	3114.3995	3123.5896	3139.6408	3152.2457
COC1(C)CCC2OC12	CO[C@@]1(C)CC[C@H]2O[C@@H]12	
InChI=1S/C7H12O2/c1-7(8-2)4-3-5-6(7)9-5/h5-6H,3-4H2,1-2H3	InChI=1S/C7H12O2/c1-7(8-2)4-3-5-6(7)9-5/h5-6H,3-4H2,1-2H3/t5-,6-,7+/m1/s1
