15
gdb 12362	3.27467	2.18438	1.36285	5.1203	65.12	-0.225	-0.0389	0.186	855.0505	0.121117	-399.835108	-399.828257	-399.827313	-399.865933	26.538	
O	 0.0761363263	 1.3595652581	 0.1998300774	-0.439844
C	 0.0219590422	-0.0247784576	 0.0198936633	 0.044995
C	-1.4256650082	-0.5140186435	 0.0188361062	-0.197689
N	-1.4383623081	-1.9479591572	-0.2591662562	-0.293253
C	-0.6364264727	-2.4306236228	-1.2427097018	 0.039752
C	 0.3903884388	-1.7318258773	-1.8013942712	-0.232755
C	 0.7179340989	-0.419164135	-1.297670002	 0.345325
O	 1.5064589098	 0.3755630777	-1.7927046556	-0.387034
H	 0.7451807219	 1.6519053208	-0.4447289699	 0.292356
H	 0.5627083197	-0.555793871	 0.8263747827	 0.091603
H	-1.8951694356	-0.3256009562	 0.9871824959	 0.126684
H	-1.9857312539	 0.0404135898	-0.7506601076	 0.118927
H	-2.2885509094	-2.4509627353	-0.0658733795	 0.257733
H	-0.8665049911	-3.4412975855	-1.5678852959	 0.12727
H	 0.9719217116	-2.155386155	-2.6092687156	 0.105929
134.0594	202.2958	316.166	327.0238	414.3819	424.1964	486.9421	529.9388	563.3939	570.2812	689.113	766.3994	809.1168	868.5617	963.3684	981.7625	1052.6121	1079.6652	1106.9427	1163.7217	1211.4664	1225.8942	1270.9779	1295.6466	1316.3711	1384.7623	1431.6948	1456.5143	1495.6424	1533.601	1652.5304	1747.0573	2924.757	2990.4024	3100.2954	3176.6298	3223.6769	3632.566	3643.5901
OC1CNC=CC1=O	O[C@H]1CNC=CC1=O	
InChI=1S/C5H7NO2/c7-4-1-2-6-3-5(4)8/h1-2,5-6,8H,3H2	InChI=1S/C5H7NO2/c7-4-1-2-6-3-5(4)8/h1-2,5-6,8H,3H2/t5-/m0/s1
