16
gdb 109192	4.38395	0.96322	0.86506	4.2189	72.18	-0.2343	0.0042	0.2386	1330.1626	0.125171	-434.094926	-434.086035	-434.085091	-434.129856	30.708	
C	 0.1133153792	 1.3211381409	-0.156744111	-0.320827
N	 0.1098013163	-0.1164814237	 0.0443722697	-0.372994
C	 0.6030777941	-0.6526789143	 1.1829556904	 0.520254
N	 1.2684266616	-0.065985795	 2.099045641	-0.353334
C	 1.6421042648	-1.0844180063	 3.0685429	-0.198466
C	 0.9785379415	-2.4046623485	 2.5285031137	-0.049067
O	 0.3476914604	-2.000328878	 1.303537898	-0.265197
C	 1.9354481972	-3.4823709807	 2.2630073344	 0.273802
N	 2.7031567718	-4.3280792731	 2.0893844598	-0.313832
H	 1.0973043606	 1.7124515696	 0.1075347785	 0.165202
H	-0.0829472602	 1.5321977682	-1.2099559154	 0.130797
H	-0.6352122208	 1.8367856668	 0.4586887769	 0.129628
H	-0.5779978046	-0.671876068	-0.4369064729	 0.260392
H	 2.7297033919	-1.188649117	 3.141862023	 0.133996
H	 1.2646737352	-0.8430024357	 4.067817633	 0.12153
H	 0.2051743712	-2.7849124452	 3.2029644209	 0.138116
27.3995	110.6776	119.826	154.7695	212.0646	245.7453	277.2273	397.4948	450.2437	515.9351	595.9551	706.4661	723.3244	751.6313	839.4159	933.8774	994.2717	1041.7251	1049.4626	1069.859	1117.674	1156.1048	1198.6807	1208.7833	1274.5135	1299.9561	1339.0694	1375.9042	1455.3813	1486.0008	1508.8144	1513.9421	1558.4774	1766.5196	2361.5861	3021.433	3039.7682	3060.4793	3077.9253	3104.0075	3146.9907	3654.5452
CNC1=NCC(O1)C#N	CNC1=NC[C@@H](O1)C#N	
InChI=1S/C5H7N3O/c1-7-5-8-3-4(2-6)9-5/h4H,3H2,1H3,(H,7,8)	InChI=1S/C5H7N3O/c1-7-5-8-3-4(2-6)9-5/h4H,3H2,1H3,(H,7,8)/t4-/m0/s1
