19
gdb 107797	2.6742	1.65433	1.33717	1.9901	73.65	-0.236	0.0713	0.3073	1028.9846	0.158994	-422.968768	-422.960742	-422.959798	-423.001137	31.788	
C	-0.0726738757	 1.5383082554	-0.0156185304	-0.389591
C	-0.0091241476	 0.0069304536	 0.0788732945	-0.322757
C	-1.3579899992	-0.6329160779	-0.0589076727	 0.386261
O	-2.338399754	-0.207676601	 0.958244782	-0.345394
C	-2.9585487905	-1.4853223142	 0.7688930552	 0.0879
C	-2.9963116428	-1.7735707128	-0.733634853	-0.183996
C	-1.7840337858	-2.1340325907	 0.131192563	-0.216135
C	-2.240533703	-0.5932478318	-1.3474358168	 0.144958
O	-2.9082354992	 0.5999993497	-1.6371581127	-0.446333
H	 0.9285178541	 1.9712383281	 0.0628174675	 0.110893
H	-0.5161963387	 1.8568214577	-0.9626985865	 0.137896
H	-0.6841300843	 1.9461192526	 0.7942057018	 0.134071
H	 0.6397162039	-0.3984152815	-0.7077661569	 0.104767
H	 0.4300868841	-0.2933661146	 1.0375704331	 0.109626
H	-3.6849763363	-1.8298202676	 1.4922546262	 0.112637
H	-3.717328896	-2.437404744	-1.1924192517	 0.094318
H	-1.2470081281	-3.0569738719	 0.2932204709	 0.103865
H	-1.6737559024	-0.8930486031	-2.2325296797	 0.09173
H	-3.2412490483	 0.9155803142	-0.7855529738	 0.285287
90.0678	154.458	212.4956	229.2832	296.4709	343.39	376.2126	516.6439	587.3729	598.998	693.1976	762.7157	782.8238	785.3173	790.8332	838.0783	895.4761	915.1487	937.057	959.7068	984.8441	996.4633	1025.9728	1030.0869	1059.3848	1111.3001	1130.364	1146.7048	1178.0525	1196.5678	1263.945	1294.0374	1307.0153	1324.4155	1357.2992	1400.6091	1412.1417	1442.56	1477.9699	1497.5597	1512.4616	3028.2629	3047.1255	3063.8573	3091.9308	3118.1478	3126.688	3204.2061	3211.2684	3228.8041	3754.6809
CCC12OC3C(C13)C2O	CC[C@]12O[C@H]3[C@H]([C@@H]13)[C@H]2O	
InChI=1S/C7H10O2/c1-2-7-4-3(6(7)8)5(4)9-7/h3-6,8H,2H2,1H3	InChI=1S/C7H10O2/c1-2-7-4-3(6(7)8)5(4)9-7/h3-6,8H,2H2,1H3/t3-,4+,5-,6+,7-/m0/s1
