17
gdb 128373	2.73478	1.21171	0.84971	4.5598	71.63	-0.2191	0.0135	0.2326	1318.7107	0.135746	-455.123672	-455.114481	-455.113537	-455.158445	32.384	
C	 0.0218060752	 1.4175344389	 0.0174900453	-0.319898
N	-0.1136796677	-0.0309395273	-0.0639415781	-0.383273
C	 0.5682296402	-0.6965584395	-1.0602249232	 0.368525
N	 1.1549628572	-0.0526037529	-2.0492153281	-0.241245
O	 1.6650436024	-1.0536612477	-2.8875869145	-0.18795
C	 1.3767622775	-2.249886405	-2.3575923185	 0.018243
C	 0.6842062032	-2.1192940015	-1.2013227982	 0.076703
C	 0.1430759256	-3.185043715	-0.30883478	-0.210126
O	 0.5352448572	-4.442241142	-0.8320647583	-0.416283
H	 1.0586081367	 1.7447219261	 0.1760914718	 0.126538
H	-0.3258214186	 1.8625473881	-0.9176868313	 0.156362
H	-0.6024427515	 1.7839172614	 0.8354696097	 0.118303
H	-0.0877919386	-0.5020739618	 0.8281851817	 0.239956
H	 1.716846314	-3.1149373887	-2.9034504394	 0.16015
H	 0.523814703	-3.0477305928	 0.719823595	 0.091794
H	-0.9552066154	-3.0983192663	-0.2488563614	 0.108525
H	 0.1377489196	-5.130766204	-0.2917035827	 0.293678
42.5582	119.9166	135.0276	166.8297	215.1444	233.3697	254.0257	337.8096	362.3298	509.1948	566.4581	586.9213	673.0093	730.7994	779.3045	851.1815	927.8371	947.9661	1052.264	1064.6382	1087.3017	1145.7523	1156.9567	1182.784	1216.032	1231.2259	1245.1642	1304.107	1394.9846	1452.8454	1473.5013	1480.4966	1506.7236	1518.4413	1524.2138	1575.9786	1681.6849	2929.877	2960.5039	3010.934	3094.465	3135.1506	3279.7042	3600.7116	3839.4732
CNC1=NOC=C1CO	CNc1nocc1CO	
InChI=1S/C5H8N2O2/c1-6-5-4(2-8)3-9-7-5/h3,8H,2H2,1H3,(H,6,7)	InChI=1S/C5H8N2O2/c1-6-5-4(2-8)3-9-7-5/h3,8H,2H2,1H3,(H,6,7)
