16
gdb 26978	3.08605	1.26403	0.95788	4.9912	75.13	-0.2274	0.0174	0.2448	1187.1271	0.125706	-396.993682	-396.985177	-396.984233	-397.027782	30.311	
C	 0.4241151722	 1.4380610357	-0.0199294855	-0.519464
C	 0.171175646	-0.0323153218	-0.0623072351	 0.242611
C	 0.0098479455	-0.9379379412	-1.0859839683	 0.19998
C	 0.0254875835	-0.7239533484	-2.5776159517	-0.445131
C	 1.117949047	 0.1284269275	-3.0503282595	 0.268946
N	 1.9706975657	 0.8168868104	-3.4174711458	-0.326206
N	-0.2247903155	-2.2037618787	-0.5942015535	-0.308463
C	-0.2085895888	-2.0789445006	 0.7106930308	 0.004264
N	 0.0253339363	-0.789511009	 1.0836631191	-0.288712
H	 1.2302418108	 1.6861524095	 0.6800709436	 0.133805
H	 0.7253099179	 1.8023455984	-1.0034047335	 0.169225
H	-0.4665290997	 1.9987865453	 0.2897174404	 0.13416
H	 0.1137709586	-1.706396145	-3.0517309364	 0.175753
H	-0.9180539259	-0.2904617311	-2.9347535081	 0.157949
H	-0.3533920687	-2.8731573227	 1.4273873413	 0.134652
H	 0.103675875	-0.4447008284	 2.0264251424	 0.266633
40.4449	96.7446	117.2203	231.0319	247.9829	298.5755	378.8668	400.0706	480.1798	540.7147	655.6851	673.8579	698.6684	767.0351	806.2638	934.7238	948.8345	957.1536	993.1073	1063.9804	1113.392	1153.1056	1217.1471	1262.3248	1268.548	1344.0709	1384.1873	1426.3034	1452.5684	1460.8396	1487.499	1489.9353	1528.7928	1632.9378	2359.646	3024.4905	3025.498	3074.2131	3090.0141	3140.4534	3255.233	3656.0677
CC1=C(CC#N)N=CN1	Cc1c(CC#N)nc[nH]1	
InChI=1S/C6H7N3/c1-5-6(2-3-7)9-4-8-5/h4H,2H2,1H3,(H,8,9)	InChI=1S/C6H7N3/c1-5-6(2-3-7)9-4-8-5/h4H,2H2,1H3,(H,8,9)
