12
gdb 23977	5.96497	0.94886	0.81864	7.2047	80.24	-0.2462	-0.0412	0.205	1275.352	0.078825	-394.551123	-394.543716	-394.542772	-394.583198	27.304	
C	 0.0733803367	-1.1696622412	-0.0048483244	-0.37946
C	-0.0188138533	 0.0296385155	 0.0030240034	 0.25784
C	-0.0847355978	 1.4408796046	 0.0117469357	 0.196277
N	-1.1719199842	 2.1873320139	 0.0305023848	-0.335749
C	-0.7210511704	 3.4858218174	 0.0316634805	 0.164941
C	 0.6592435273	 3.5257152708	 0.0133371531	-0.147196
N	 1.0501541098	 2.2223509765	 0.000876953	-0.288634
C	-1.5979156403	 4.603825965	 0.04965066	 0.204696
N	-2.2884194357	 5.5323800479	 0.0640803011	-0.334783
H	 0.1351163333	-2.2303376968	-0.0115343912	 0.208717
H	 1.3555917814	 4.3469646434	 0.0085466554	 0.167366
H	 1.9973571831	 1.8795892831	-0.0137449314	 0.285985
116.0021	118.7584	204.612	212.374	445.3389	490.0995	510.8548	528.2966	591.1669	596.2393	605.1261	676.756	694.0116	697.7089	743.2162	794.1846	996.812	1020.2157	1122.6093	1224.6512	1294.5558	1369.8177	1411.3813	1529.6822	1564.5402	2243.1131	2356.002	3286.8274	3498.3596	3656.997
C#CC1=NC(=CN1)C#N	C#Cc1nc(c[nH]1)C#N	
InChI=1S/C6H3N3/c1-2-6-8-4-5(3-7)9-6/h1,4H,(H,8,9)	InChI=1S/C6H3N3/c1-2-6-8-4-5(3-7)9-6/h1,4H,(H,8,9)
