20
gdb 62599	3.3589	1.73716	1.51217	1.7366	80.32	-0.225	0.0785	0.3035	954.0421	0.171526	-365.929875	-365.922472	-365.921527	-365.961044	30.767	
C	-0.1222041429	 1.5094437935	 0.0026754491	-0.447555
C	-0.0270262563	-0.0185772248	-0.0017387502	 0.322576
C	-1.391752034	-0.6651713752	 0.20612708	-0.459912
C	 0.869726064	-0.5431195367	-1.1669312441	-0.100898
C	 1.1172546792	-2.0349676276	-0.8677761461	-0.064492
C	 2.4573086002	-1.8197096917	-0.277807546	-0.070171
C	 2.1688963851	-0.2982399864	-0.2938785045	-0.083329
C	 1.153334547	-0.5213766376	 0.8671413175	-0.033429
N	 1.2894740296	-2.0229516062	 0.6315716585	-0.157495
H	 0.8516345925	 1.986402231	-0.1466402007	 0.115034
H	-0.7876272943	 1.8573537674	-0.7952896277	 0.114212
H	-0.5291081419	 1.8721200943	 0.9532109963	 0.114749
H	-2.077220159	-0.4030213242	-0.6084661381	 0.108602
H	-1.3150206824	-1.7540804176	 0.2535886816	 0.134136
H	-1.8482465777	-0.3209755799	 1.1413937546	 0.112113
H	 0.7565981788	-0.2149947476	-2.1995660072	 0.064879
H	 0.6739220547	-2.9167528797	-1.3125484342	 0.094898
H	 3.3528813585	-2.4278790036	-0.2426583304	 0.094778
H	 2.8585215695	 0.5308378063	-0.4196870715	 0.074807
H	 1.2934080994	-0.2386934037	 1.9107004531	 0.066498
195.432	215.3294	223.9248	235.543	325.1746	343.4832	520.3305	571.7915	598.0431	744.8473	765.7706	795.3536	818.2483	847.4453	861.6349	875.6684	895.6529	919.233	950.4558	955.3714	964.0451	994.4719	1019.0012	1021.7712	1038.357	1083.1541	1139.867	1155.962	1174.7088	1189.0207	1200.3602	1223.8131	1234.1426	1240.1694	1275.9484	1312.2044	1341.8587	1400.3646	1419.0406	1483.4468	1487.1172	1504.3744	1508.4117	3024.6502	3029.2556	3082.9988	3089.4498	3100.4707	3111.9053	3121.2697	3123.1854	3158.217	3182.1212	3197.1878
CC1(C)C2C3C4C2C1N34	CC1(C)[C@@H]2[C@H]3[C@H]4[C@@H]2[C@@H]1N34	
InChI=1S/C8H11N/c1-8(2)4-3-5-6(4)9(5)7(3)8/h3-7H,1-2H3	InChI=1S/C8H11N/c1-8(2)4-3-5-6(4)9(5)7(3)8/h3-7H,1-2H3/t3-,4+,5-,6+,7+,9?/m1/s1
