17
gdb 92441	2.61601	1.60581	1.48801	2.8355	67.14	-0.231	-0.0255	0.2055	957.2968	0.137313	-458.971648	-458.96416	-458.963216	-459.003573	29.106	
O	-0.0046207611	 1.4227664666	-0.0559101711	-0.43256
C	 0.0072691952	 0.0106727315	 0.0164354726	 0.120621
C	 0.6304486987	-0.5661255629	 1.3442485968	-0.277193
C	-0.5320469631	-1.3761335763	 1.9452494307	-0.002005
O	-1.5280941169	-0.4652992107	 2.4171379487	-0.289136
C	-2.1605049772	 0.1284937024	 1.2480554963	-0.07931
C	-1.4464243871	-0.5175623804	 0.0503501644	-0.179236
C	-1.1891575359	-1.9054948608	 0.6598199653	 0.421427
O	-1.4109565268	-3.010415827	 0.2591716085	-0.318303
H	 0.9044928819	 1.7349142637	-0.0054203413	 0.287992
H	 0.5237856208	-0.4094379078	-0.857757689	 0.082705
H	 1.5096044413	-1.1873107606	 1.1475043569	 0.110726
H	 0.9088164164	 0.2467003956	 2.0209043449	 0.118248
H	-0.2948538799	-2.0954693759	 2.7264332717	 0.097686
H	-3.2301842071	-0.110341076	 1.2588251829	 0.110223
H	-2.0277787267	 1.2120827147	 1.2772763644	 0.131205
H	-1.9833959725	-0.487451426	-0.8944612227	 0.096911
107.2224	145.541	242.7666	273.8965	312.4712	399.8438	450.4998	509.9365	561.9802	642.3677	710.4482	777.8165	815.2443	862.8105	874.3918	901.4693	968.3065	979.7903	1016.9614	1032.4402	1070.861	1083.8151	1145.7914	1169.4333	1179.1257	1196.2905	1233.6017	1246.6543	1284.3478	1299.411	1316.7954	1354.5489	1376.7797	1425.3951	1462.0518	1524.8331	1895.7569	2998.59	3035.9358	3052.6664	3104.9136	3109.4632	3146.8959	3155.8468	3817.5406
OC1CC2OCC1C2=O	O[C@H]1C[C@H]2OC[C@@H]1C2=O	
InChI=1S/C6H8O3/c7-4-1-5-6(8)3(4)2-9-5/h3-5,7H,1-2H2	InChI=1S/C6H8O3/c7-4-1-5-6(8)3(4)2-9-5/h3-5,7H,1-2H2/t3-,4-,5+/m0/s1
