20
gdb 39278	2.38309	2.15905	1.52166	2.1168	77.07	-0.2389	0.078	0.3169	937.4906	0.17535	-403.116509	-403.109803	-403.108859	-403.147092	28.922	
C	-0.0920709834	 1.4988841589	 0.0820780651	-0.119587
O	 1.280802987	 1.9104496061	-0.1175983057	-0.295625
C	 2.1654841383	 0.7643553234	 0.04472451	 0.130528
C	 1.3040490729	-0.2398528938	 0.8102157545	-0.295012
C	 0.063758807	 0.0017734207	-0.0461449964	 0.28718
N	-0.8473698021	-1.0248162918	-0.5285776747	-0.442537
C	 0.1946377599	-0.4899352488	-1.440554038	-0.016567
C	 1.5905444372	-0.9955229047	-1.7670496526	-0.263935
C	 2.5776515795	 0.1291890859	-1.3162776806	-0.204506
H	-0.4446112816	 1.8364675437	 1.0666812122	 0.089742
H	-0.7189049123	 1.9453945538	-0.6944888863	 0.109524
H	 3.045281789	 1.1332539542	 0.5781823672	 0.073912
H	 1.6880631258	-1.2600116376	 0.7939625352	 0.099388
H	 1.1410945071	 0.0582961899	 1.8500569877	 0.103021
H	-0.5877229794	-1.9260464042	-0.1319082714	 0.23153
H	-0.2486746094	 0.1281791579	-2.2184272832	 0.099941
H	 1.8142445697	-1.9325065056	-1.246964646	 0.100701
H	 1.7056241483	-1.2026180542	-2.8346128696	 0.102589
H	 2.5981180415	 0.9291478453	-2.0632970435	 0.115724
H	 3.5968608851	-0.2685604892	-1.2442247939	 0.093988
194.5129	267.5596	355.1693	378.2867	407.1468	484.214	495.5242	539.715	566.6542	727.7812	762.871	794.1572	834.3877	859.389	872.5935	925.6216	934.7581	979.2192	984.46	1003.2108	1023.854	1042.1892	1061.3068	1089.2857	1123.01	1130.196	1159.1859	1176.4194	1213.7	1234.6705	1274.2464	1284.3033	1307.8034	1331.9591	1345.5752	1353.7071	1364.1692	1379.0082	1465.5587	1476.2137	1485.5634	1514.381	1531.8304	3002.1432	3035.1099	3049.9782	3062.3469	3076.1913	3081.6705	3087.491	3094.3535	3127.7095	3131.536	3486.0694
C1OC2CC11NC1CC2	C1O[C@H]2C[C@]31N[C@@H]3CC2	
InChI=1S/C7H11NO/c1-2-6-7(8-6)3-5(1)9-4-7/h5-6,8H,1-4H2	InChI=1S/C7H11NO/c1-2-6-7(8-6)3-5(1)9-4-7/h5-6,8H,1-4H2/t5-,6-,7-/m1/s1
