21
gdb 72528	2.61401	1.6903	1.67419	1.3796	81.83	-0.2324	0.0169	0.2493	982.0426	0.184983	-387.111954	-387.104319	-387.103375	-387.143345	31.76	
C	 0.0147344655	 1.5197013669	 0.0726345974	-0.463903
C	-0.0254399211	 0.0053182721	-0.0354411459	 0.351195
C	 0.6994150771	-0.5351447795	-1.2938028363	-0.216193
C	 0.6729637386	-2.0867649913	-1.2542776341	-0.21306
C	-0.0745431522	-2.5329074444	 0.0304910936	-0.088567
C	 0.6854654878	-1.9162112362	 1.2256234214	-0.05603
O	 0.7083599843	-0.4976116771	 1.1132713698	-0.304108
C	-1.4478843055	-1.910727332	 0.0218737916	-0.093426
C	-1.4222616729	-0.577859591	-0.0116060988	-0.082525
H	 1.0486445479	 1.8750073054	 0.0846416396	 0.121009
H	-0.5024367942	 1.9778864805	-0.7762016298	 0.112181
H	-0.4709159799	 1.8489413566	 0.9957740632	 0.122744
H	 0.2164252413	-0.1486594302	-2.1965160445	 0.095371
H	 1.7272802347	-0.1589417603	-1.2828501601	 0.098682
H	 0.1729922863	-2.4980045008	-2.1352588152	 0.097617
H	 1.6900236866	-2.4930178908	-1.240808005	 0.096339
H	-0.0975248512	-3.6215744242	 0.1191028917	 0.06349
H	 0.2066063721	-2.1955527814	 2.1742548526	 0.090502
H	 1.7215489373	-2.2847011503	 1.2448344978	 0.089075
H	-2.3522157617	-2.5081569942	 0.0632267129	 0.090802
H	-2.298319271	 0.0621043824	-0.0086482017	 0.088805
155.07	213.4934	263.2253	288.5758	333.5305	375.9553	426.3719	446.9369	552.3326	600.8834	652.6157	720.4207	726.3452	810.7775	824.9974	868.8547	898.6042	934.8585	950.2684	966.3198	969.8327	995.4285	1041.4957	1063.6891	1090.3632	1128.1225	1145.2549	1168.7393	1207.4433	1228.2069	1229.961	1260.9974	1276.4495	1320.1568	1339.7968	1359.9305	1385.6167	1406.1549	1411.2485	1476.0616	1485.3895	1496.3485	1500.3069	1523.1546	1679.7065	2988.3182	3022.3455	3036.9008	3041.4647	3049.6964	3077.1006	3083.0224	3098.0349	3114.8265	3120.3284	3170.8026	3195.1481
CC12CCC(CO1)C=C2	C[C@@]12CC[C@@H](CO1)C=C2	
InChI=1S/C8H12O/c1-8-4-2-7(3-5-8)6-9-8/h2,4,7H,3,5-6H2,1H3	InChI=1S/C8H12O/c1-8-4-2-7(3-5-8)6-9-8/h2,4,7H,3,5-6H2,1H3/t7-,8+/m0/s1
