19
gdb 66328	2.48401	1.38974	1.28563	3.3822	81.78	-0.2463	-0.0021	0.2442	1110.8883	0.160877	-382.092894	-382.084371	-382.083427	-382.125732	32.871	
C	-0.0061222047	 1.5267292445	-0.0128173376	-0.417066
C	-0.0129223735	-0.0138235733	-0.0000404527	 0.073461
N	 0.6664516978	-0.4990921995	-1.2021076958	-0.307538
C	 0.9674559008	-1.9327988095	-1.1732305753	-0.182597
C	 2.004675316	-2.1970975123	-0.0802825847	-0.231324
C	 1.6209284861	-1.4913797891	 1.1909226051	-0.069814
C	 0.6980354725	-0.5350496874	 1.2372176954	-0.044339
C	-1.4306540003	-0.4804660461	 0.0453856582	 0.255199
N	-2.525160866	-0.855485294	 0.0287915319	-0.350659
H	 1.0297641807	 1.8717341678	-0.0292978979	 0.137118
H	-0.520863057	 1.9054587472	-0.9008811002	 0.127177
H	-0.5112520334	 1.9263074042	 0.8705137353	 0.131777
H	 0.1138255132	-0.2657518266	-2.0199658275	 0.229177
H	 0.071135205	-2.547825525	-0.9851475098	 0.109638
H	 1.3587466341	-2.2156507531	-2.1544123601	 0.105556
H	 2.0927276046	-3.2748350156	 0.1014693733	 0.110525
H	 2.9960950118	-1.8552566798	-0.4068000923	 0.12047
H	 2.1270390925	-1.7887389539	 2.1058961549	 0.099685
H	 0.4146180098	-0.0636997585	 2.1729907699	 0.103554
91.2186	147.1892	187.6628	240.0948	283.6769	293.0947	350.8724	421.4666	482.8402	493.575	563.7019	598.6612	674.5537	715.6982	728.1595	832.4913	864.2756	899.7989	943.6727	982.3454	1001.5466	1026.4254	1074.7925	1110.4234	1144.4319	1148.8287	1161.4802	1230.9605	1265.7789	1293.0455	1363.01	1391.6874	1400.2401	1408.7578	1466.5697	1474.6532	1487.3679	1501.3592	1507.965	1725.6635	2331.6878	2962.3004	3019.8154	3046.0422	3058.9875	3083.9352	3120.0076	3140.7403	3156.3056	3185.3738	3531.798
CC1(NCCC=C1)C#N	C[C@]1(NCCC=C1)C#N	
InChI=1S/C7H10N2/c1-7(6-8)4-2-3-5-9-7/h2,4,9H,3,5H2,1H3	InChI=1S/C7H10N2/c1-7(6-8)4-2-3-5-9-7/h2,4,9H,3,5H2,1H3/t7-/m1/s1
