19
gdb 81358	2.56991	1.45841	1.35648	1.2696	70.17	-0.247	0.0532	0.3002	1041.7625	0.160414	-460.137631	-460.129515	-460.128571	-460.169809	32.569	
O	-0.0285716304	 1.4002919681	-0.1047749204	-0.453147
C	 0.0712306854	-0.0059711295	-0.0203464871	 0.152713
C	 0.1391950302	-0.5911054397	 1.4247702096	-0.095335
C	-1.3870306394	-0.2957056538	 1.5092526902	-0.253022
C	-1.3413109948	-0.6531945877	-0.0087022694	-0.04362
C	-1.0089971228	-2.1434961369	 0.0490356714	 0.048677
O	-0.5064925147	-2.609240882	-1.202864342	-0.435704
C	 0.1360686635	-2.106133945	 1.1524808811	 0.113077
O	 1.3527302859	-2.6261992002	 0.6747591486	-0.453306
H	 0.8343817528	 1.7683354214	 0.109421653	 0.283703
H	 0.7941388357	-0.3912161176	-0.74761025	 0.068977
H	 0.8556993767	-0.2245909796	 2.1609889797	 0.059995
H	-1.9959540032	-0.9240250437	 2.167192418	 0.085526
H	-1.6039529904	 0.757343828	 1.6735731095	 0.122586
H	-2.1103627971	-0.3396187198	-0.713687422	 0.072372
H	-1.8706787214	-2.7451341495	 0.3556885828	 0.075763
H	-0.6759242569	-3.5539152951	-1.264759206	 0.295909
H	-0.1460126698	-2.6669558728	 2.0513615668	 0.072335
H	 1.2374969308	-2.7158953946	-0.2830166236	 0.2825
122.9671	194.2422	216.4312	281.8046	315.8587	325.3403	361.9408	423.647	479.1573	544.861	568.4478	591.9072	738.9496	788.781	821.296	880.2701	904.5572	908.9789	950.635	966.6915	1013.9045	1053.7054	1082.7817	1095.5911	1112.4899	1113.7911	1142.271	1185.1807	1201.3691	1219.2355	1244.0768	1260.3411	1278.8829	1302.5886	1304.4062	1325.478	1364.1815	1426.2231	1431.6029	1442.0594	1495.9761	3026.9163	3042.6034	3048.5866	3056.6872	3109.1563	3126.5245	3161.9999	3704.6052	3817.8277	3835.609
OC1C2CC1C(O)C2O	O[C@H]1[C@H]2C[C@@H]1[C@@H](O)[C@H]2O	
InChI=1S/C6H10O3/c7-4-2-1-3(4)6(9)5(2)8/h2-9H,1H2	InChI=1S/C6H10O3/c7-4-2-1-3(4)6(9)5(2)8/h2-9H,1H2/t2-,3+,4+,5+,6-
