17
gdb 124733	3.87384	1.08099	0.8711	4.4103	70.2	-0.2256	0.0163	0.2419	1295.0641	0.13828	-451.35698	-451.348408	-451.347464	-451.390295	32.065	
C	 0.0086757197	 1.471364927	-0.2196756282	-0.384653
C	 0.1281179073	-0.0365074578	 0.0384607812	-0.101371
N	 0.7638358624	-0.4125469599	 1.3126437719	-0.527537
H	 1.7545828472	-0.1950624853	 1.276314986	 0.237427
H	 0.3763401955	 0.1539954075	 2.0637715983	 0.233027
H	-0.9478136379	-2.2133923909	 1.4239640246	 0.281736
C	-1.2128708076	-0.7128635358	-0.027909346	 0.412661
N	-1.5306830399	-1.7706424866	 0.7327068233	-0.232633
N	-2.7911309358	-2.2154008988	 0.4576144092	-0.292161
C	-3.1521742136	-1.3617205327	-0.4831324253	 0.411711
O	-4.3604463676	-1.4284107198	-1.0601393709	-0.410825
N	-2.2338623775	-0.4167180389	-0.8231640213	-0.424937
H	 1.0020247075	 1.9298055699	-0.2470216503	 0.107091
H	-0.497592518	 1.6628883742	-1.1688124544	 0.147299
H	-0.5746411975	 1.9521028551	 0.5731319358	 0.118958
H	 0.750750917	-0.4720542377	-0.7553524545	 0.115739
H	-4.3926163612	-0.7139231396	-1.7070700996	 0.308469
65.2309	147.357	176.6306	241.7519	279.76	323.9483	366.7779	391.9825	401.018	464.3622	539.296	592.5446	648.155	740.4684	770.2697	781.6616	873.7852	935.1106	1019.445	1025.6806	1056.07	1094.9626	1132.1235	1167.8733	1217.079	1227.9262	1279.7425	1343.9049	1395.2707	1404.473	1430.26	1484.5276	1486.6265	1495.6044	1572.7863	1633.3197	1660.5065	3013.2924	3036.4503	3106.7754	3130.1219	3483.8389	3569.2128	3671.5435	3818.5089
CC([NH3+])C1=N[N-]C(O)=N1	C[C@@H](N)c1[nH]nc(O)n1	
InChI=1S/C4H7N4O/c1-2(5)3-6-4(9)8-7-3/h2H,5H2,1H3,(H-,6,7,8,9)/q-1/p+1	InChI=1S/C4H8N4O/c1-2(5)3-6-4(9)8-7-3/h2H,5H2,1H3,(H2,6,7,8,9)/t2-/m1/s1
