17
gdb 44466	4.11088	1.40822	1.27863	4.0746	72.23	-0.2721	0.0036	0.2757	997.3177	0.138148	-421.79647	-421.790052	-421.789108	-421.827157	26.899	
O	 0.1108049168	 0.0306629083	 0.0969639615	-0.30781
C	-0.0324442457	 1.2078793065	-0.0071176049	 0.400361
C	-1.3757244471	 2.0048830844	-0.101629963	-0.436161
C	-0.8926137607	 3.3355718104	-0.6685834653	-0.004518
C	-0.684529969	 4.7749343808	-0.0692940194	-0.104928
C	-0.016268325	 4.1376631607	 1.1720711961	-0.282403
C	 0.5118532477	 3.3719387964	-0.07682786	 0.424128
C	 0.7471034016	 4.7341257535	-0.7640362101	-0.293657
O	 1.0563851832	 2.0778209435	-0.0467545735	-0.281059
H	-2.0696164232	 1.4546522968	-0.7380808145	 0.139557
H	-1.8088216743	 2.0407384873	 0.9017315132	 0.146143
H	-0.91727496	 3.3235806189	-1.7621034372	 0.084089
H	-1.3690064024	 5.6201429901	-0.0869720565	 0.09366
H	 0.7091272295	 4.7535919164	 1.7068824262	 0.103117
H	-0.6607610114	 3.595766546	 1.8649016795	 0.102482
H	 0.7592221526	 4.7392982468	-1.8557220756	 0.109786
H	 1.5022048773	 5.3973857932	-0.3367151564	 0.107213
115.384	317.1592	340.9473	428.5734	485.836	532.4918	555.6771	570.6711	667.7276	722.2188	746.7925	800.9842	820.0888	888.4092	909.631	948.7258	966.8298	980.5498	1002.3688	1054.4259	1071.0312	1090.0896	1118.8728	1133.1973	1154.5461	1169.9297	1181.5808	1207.0976	1222.3829	1231.147	1254.2341	1291.5486	1405.9003	1461.4858	1501.4997	1543.8057	1901.0817	3061.2721	3066.8576	3074.6798	3083.272	3133.6858	3140.298	3142.2213	3142.9152
O=C1CC2C3CC2(C3)O1	O=C1C[C@H]2[C@H]3C[C@@]2(C3)O1	
InChI=1S/C7H8O2/c8-6-1-5-4-2-7(5,3-4)9-6/h4-5H,1-3H2	InChI=1S/C7H8O2/c8-6-1-5-4-2-7(5,3-4)9-6/h4-5H,1-3H2/t4-,5-,7-/m0/s1
