15
gdb 23984	6.62003	1.05107	0.91765	4.4954	84.53	-0.209	0.0064	0.2154	1220.0007	0.113783	-379.642877	-379.63537	-379.634426	-379.675164	28.198	
C	 0.1382564181	-1.1982197353	-0.2925966497	-0.439275
C	 0.0561472936	-0.0118406569	-0.102503792	 0.256067
C	-0.0603791292	 1.3811805595	 0.1181800271	 0.119898
C	-1.2447500412	 2.1170346906	 0.0954227295	-0.257912
N	-0.8272927499	 3.3914796037	 0.3622517287	 0.021012
C	-0.9587040807	 4.8451622141	 0.5917018654	-0.170293
C	 0.6114316918	 4.8624289916	 0.7893295898	-0.379085
C	 0.5135385237	 3.3693261652	 0.5248950118	 0.37705
N	 1.0520812993	 2.1875953692	 0.3922791015	-0.412381
H	 0.2202950713	-2.2432784377	-0.4588537564	 0.183893
H	-2.2635562441	 1.8202491623	-0.0811015456	 0.144514
H	-1.3308633104	 5.3937729447	-0.2767385444	 0.138553
H	-1.5482070709	 5.0974140967	 1.4763038119	 0.138561
H	 1.1570765907	 5.446734669	 0.0451896606	 0.139696
H	 0.9407317978	 5.1519433533	 1.7896437218	 0.139701
66.8367	149.1752	155.5319	243.5458	424.2648	446.1802	518.1281	540.8011	578.618	658.6586	665.4448	697.7647	749.7843	800.1957	809.2764	830.0231	911.2365	990.1343	1055.6979	1104.2924	1135.495	1157.3046	1176.4548	1226.3617	1241.8612	1267.6956	1412.6216	1429.352	1481.5809	1495.9427	1514.4413	1586.3498	2232.8818	3066.6146	3076.477	3118.1009	3131.7747	3291.4649	3506.6459
C#CC1=CN2CCC2=N1	C#Cc1cn2CCc2n1	
InChI=1S/C7H6N2/c1-2-6-5-9-4-3-7(9)8-6/h1,5H,3-4H2	InChI=1S/C7H6N2/c1-2-6-5-9-4-3-7(9)8-6/h1,5H,3-4H2
