19
gdb 41322	3.24078	1.66784	1.31807	1.7863	79.44	-0.2369	0.0188	0.2556	993.7296	0.161467	-385.867073	-385.860097	-385.859153	-385.898386	28.434	
C	 0.0215434006	 1.4816592545	 0.0260155845	-0.153422
O	 1.4682012287	 1.4677653243	 0.0839183518	-0.296608
C	 1.515456847	 0.038025044	-0.1214411337	 0.080385
C	 1.6775979368	-0.7508445808	 1.195982388	-0.251926
C	 0.1152861287	-0.8175755393	 1.3175094103	-0.1032
C	-0.5184585391	-2.1436308988	 1.0014014294	-0.080462
C	-1.0877047288	-2.1688584761	-0.2055243682	-0.063984
C	-0.9624472495	-0.8527867103	-0.9443642481	-0.388001
C	-0.0383764397	-0.0453770988	-0.0371952523	 0.312841
H	-0.4295274739	 1.9656409655	 0.9020572164	 0.097375
H	-0.3350266441	 1.9873246202	-0.8827029542	 0.095133
H	 2.120027307	-0.2359957873	-0.9921600775	 0.069211
H	 2.1480960449	-1.7310551362	 1.0793684651	 0.099152
H	 2.1980442411	-0.1884745113	 1.9743595258	 0.108717
H	-0.2999123296	-0.3493376769	 2.2169663947	 0.071708
H	-0.4979721708	-2.977995613	 1.6951950516	 0.093511
H	-1.6024932164	-3.0236209159	-0.6313971361	 0.093657
H	-0.5522503406	-0.972757571	-1.9556972302	 0.109291
H	-1.9417406623	-0.3671483029	-1.0703740873	 0.106622
94.5559	220.0915	250.9474	335.1195	391.882	449.7467	482.4458	664.0758	710.329	747.6247	775.1278	804.2416	856.3738	873.2092	907.0858	946.765	958.3963	976.777	996.8352	1000.2417	1038.0661	1061.9987	1080.2253	1117.3803	1132.1801	1145.1103	1167.9813	1184.7574	1210.8633	1238.2985	1257.1508	1269.9354	1288.758	1310.2946	1341.2462	1361.8275	1382.0562	1459.9225	1480.6791	1521.5433	1675.1397	2991.5571	2997.0513	3033.3564	3037.7811	3040.8842	3049.3383	3062.6828	3120.4573	3174.8027	3200.4098
C1OC2CC3C=CCC123	C1O[C@H]2C[C@@H]3C=CC[C@]123	
InChI=1S/C8H10O/c1-2-6-4-7-8(6,3-1)5-9-7/h1-2,6-7H,3-5H2	InChI=1S/C8H10O/c1-2-6-4-7-8(6,3-1)5-9-7/h1-2,6-7H,3-5H2/t6-,7-,8+/m0/s1
