15
gdb 24077	3.9982	1.04444	0.9074	3.8867	71.64	-0.1984	0.0041	0.2025	1244.2598	0.113767	-416.835082	-416.827037	-416.826093	-416.868772	29.303	
N	 1.5810180588	-0.3129461267	 0.7765623741	-0.294138
C	 0.7917435781	 0.4117219898	 0.3456733344	 0.262276
C	-0.24078981	 1.3052460503	-0.2100220147	-0.206646
O	-0.3134348425	 2.548395212	 0.4488624976	-0.256799
C	 0.680310338	 3.4303035202	 0.1407135203	 0.407115
C	 1.8174391715	 3.3574508436	-0.6268949999	-0.281542
C	 2.4291501326	 4.6490464065	-0.5485469097	-0.139034
C	 1.6511700419	 5.4413519903	 0.2525170775	-0.090928
N	 0.575312486	 4.681711386	 0.6728738293	-0.323108
H	-0.0564952222	 1.4395681502	-1.2842990357	 0.159249
H	-1.2176245886	 0.831877906	-0.0817909349	 0.167613
H	 2.1904604995	 2.4957514208	-1.1551318852	 0.108278
H	 3.3474482364	 4.9450809914	-1.03108921	 0.099451
H	 1.7573503286	 6.466295695	 0.566032244	 0.120992
H	-0.1771015181	 4.9811257645	 1.2679152729	 0.26722
41.4628	68.9047	200.0509	235.3544	302.5364	378.2281	424.7037	433.3417	622.1922	630.2833	641.2774	655.4857	699.9203	754.7227	838.2551	889.4738	908.6257	975.9009	1043.1555	1056.1384	1092.0664	1113.5574	1146.5888	1265.6331	1294.115	1308.1133	1392.3102	1422.9657	1468.7536	1501.1377	1528.5806	1620.1541	2363.2391	3026.1506	3105.8848	3251.623	3267.7162	3281.9683	3687.3499
N#CCOC1=CC=CN1	N#CCOc1ccc[nH]1	
InChI=1S/C6H6N2O/c7-3-5-9-6-2-1-4-8-6/h1-2,4,8H,5H2	InChI=1S/C6H6N2O/c7-3-5-9-6-2-1-4-8-6/h1-2,4,8H,5H2
