19
gdb 75293	2.20577	1.87921	1.15008	2.5742	81.77	-0.2243	-0.0194	0.2048	1093.3173	0.159412	-385.923215	-385.915104	-385.91416	-385.956033	31.28	
C	 0.3487568622	 1.3762677709	-0.0176798688	-0.494836
C	 0.0183526688	-0.0822637602	-0.0507440734	 0.321582
C	-0.1616742495	-0.865539779	-1.1195656277	-0.163026
C	-0.4864758388	-2.299060494	-0.7781312063	-0.273864
C	-0.2786499644	-2.3594071228	 0.7496587139	-0.023145
C	 1.1681096501	-2.6850363196	 1.237899275	-0.35989
C	 1.266414169	-1.2590592106	 1.8084018993	 0.412089
O	 2.0857241715	-0.6733631417	 2.4545119424	-0.301279
C	-0.1136713057	-0.8744714009	 1.2326851464	-0.241012
H	 1.2752966318	 1.5506170403	 0.5424216593	 0.147357
H	 0.467404551	 1.7867513887	-1.0239153659	 0.122858
H	-0.4363145287	 1.94682096	 0.4947094666	 0.126547
H	-0.1018572338	-0.5133131407	-2.1446781245	 0.088727
H	-1.514838886	-2.5545204835	-1.0676271459	 0.106634
H	 0.1615198846	-3.0145712145	-1.3020694145	 0.105188
H	-1.0420134602	-2.9397552733	 1.2678266674	 0.077088
H	 1.2569848917	-3.4652243449	 1.9995530613	 0.130176
H	 1.8935410772	-2.8968719596	 0.4453902105	 0.129585
H	-0.8163867509	-0.4388041046	 1.9510788648	 0.089223
70.1954	125.912	180.1164	237.172	301.2773	345.6017	439.1335	447.8259	528.4173	567.5372	668.2907	729.8076	759.2374	816.5108	837.9802	879.3597	930.7509	934.1206	964.4125	1018.9099	1024.3797	1048.2469	1073.8248	1084.0669	1103.4591	1157.0972	1182.8341	1189.9563	1222.5606	1237.6307	1249.7603	1304.2778	1319.0172	1346.621	1414.6029	1432.424	1476.775	1486.9997	1490.7732	1710.688	1882.5353	3009.4873	3021.0984	3033.771	3051.481	3055.3346	3071.5994	3100.1174	3113.8831	3114.1648	3181.7097
CC1=CCC2CC(=O)C12	CC1=CC[C@H]2CC(=O)[C@@H]12	
InChI=1S/C8H10O/c1-5-2-3-6-4-7(9)8(5)6/h2,6,8H,3-4H2,1H3	InChI=1S/C8H10O/c1-5-2-3-6-4-7(9)8(5)6/h2,6,8H,3-4H2,1H3/t6-,8-/m0/s1
