18
gdb 73825	2.2433	1.56082	1.36895	3.5342	79.42	-0.2252	0.0073	0.2325	1068.3207	0.147162	-401.934578	-401.926064	-401.92512	-401.967659	31.82	
C	 0.0430120283	 1.4556840766	 0.1082397905	-0.515007
C	-0.0830716445	-0.028297352	 0.0383564435	 0.217771
C	-0.0934242527	-0.8792043888	-1.0179013995	 0.217771
C	 0.0176000646	-0.6327122674	-2.4841541459	-0.515007
C	-0.0566164122	-2.2522435182	-0.3486607676	-0.224142
N	-0.9255436186	-2.1185029141	 0.8595269948	-0.287618
C	-0.0410884388	-0.9748669434	 1.2369880467	-0.224141
C	 1.1085678848	-1.9091422121	 0.6709506975	 0.45779
O	 2.2429300299	-2.1755980263	 0.8744953316	-0.305322
H	 0.9817059893	 1.746907273	 0.5966685265	 0.141432
H	 0.0317796648	 1.9115212674	-0.885626185	 0.129002
H	-0.7683279828	 1.9027014309	 0.695465618	 0.13111
H	 0.0138162479	 0.4354830316	-2.7178798371	 0.129001
H	 0.947589853	-1.05689668	-2.8837870468	 0.141432
H	-0.8049067291	-1.103495114	-3.0362206403	 0.13111
H	-0.1164971187	-3.1614063264	-0.9441994011	 0.085279
H	-1.8541186421	-1.7781554864	 0.5944408787	 0.204261
H	-0.085191123	-0.5860233105	 2.2527068654	 0.08528
115.9901	127.3609	150.0401	159.8661	240.8426	287.5566	339.7885	437.6501	517.5164	593.86	610.3341	635.5542	663.0745	772.6975	843.682	863.4969	927.8173	938.1193	977.1234	1032.6928	1050.2954	1060.7191	1068.0914	1077.5956	1144.3634	1189.6114	1194.9687	1195.2543	1279.1467	1314.0381	1332.8251	1410.7932	1418.9897	1477.6795	1478.7194	1484.9907	1488.8809	1678.0079	1932.1252	3018.825	3020.2047	3066.4216	3066.6692	3106.8291	3110.0417	3141.6646	3143.8234	3409.837
CC1=C(C)C2NC1C2=O	CC1=C(C)[C@@H]2N[C@H]1C2=O	
InChI=1S/C7H9NO/c1-3-4(2)6-7(9)5(3)8-6/h5-6,8H,1-2H3	InChI=1S/C7H9NO/c1-3-4(2)6-7(9)5(3)8-6/h5-6,8H,1-2H3/t5-,6+
