20
gdb 104132	2.55861	1.33502	1.20649	2.9351	76.45	-0.259	0.0308	0.2899	1161.5865	0.170141	-440.316882	-440.307664	-440.306719	-440.350793	34.562	
C	-0.1331399135	 1.3485800195	 0.2388081883	-0.257477
O	-0.1702917421	-0.0699254976	 0.2004890509	-0.273297
C	-1.4086100726	-0.6634743592	-0.1044883589	 0.459873
C	-1.9545053867	-0.2630960778	-1.4677009463	-0.453069
C	-1.2139405901	-2.1708390342	 0.1238304755	-0.261903
C	-1.4361101783	-2.2998974331	 1.6352421919	-0.306113
C	-2.3959472024	-1.1692547414	 1.9332210398	 0.410829
N	-3.1118150139	-1.0494456905	 2.9645446681	-0.543601
O	-2.3906606529	-0.2817719129	 0.8845758335	-0.266936
H	 0.8202626594	 1.6180060997	 0.6982362523	 0.130642
H	-0.1733986042	 1.789783568	-0.7656377579	 0.112263
H	-0.9507445081	 1.7549510274	 0.8437876048	 0.13046
H	-1.2225038974	-0.5024812112	-2.243872606	 0.129904
H	-2.8811196844	-0.8033999597	-1.6729124778	 0.129924
H	-2.1727139297	 0.806431221	-1.5075065277	 0.132046
H	-1.9726273759	-2.7273581536	-0.4332413829	 0.110732
H	-0.2262251642	-2.4878713262	-0.2111567541	 0.121334
H	-1.8473991378	-3.2562362536	 1.958512399	 0.132938
H	-0.5052875963	-2.1285517663	 2.1840419041	 0.142529
H	-3.6599358189	-0.1883016583	 2.9211466335	 0.218922
81.4975	115.112	137.2632	176.9927	229.7289	269.0677	311.2343	363.6372	412.9868	473.7415	505.1823	563.5131	620.5176	664.5475	770.7984	814.2097	882.4145	898.2854	905.206	927.2527	1001.9366	1011.5368	1071.9039	1093.5357	1110.0362	1142.8839	1179.5503	1196.7402	1223.0394	1238.1928	1252.426	1312.1251	1338.6931	1356.3281	1409.2299	1466.1942	1471.4077	1483.1624	1486.4629	1487.8066	1505.274	1511.3627	1782.7912	3011.512	3055.1334	3069.7557	3073.1839	3080.9385	3125.718	3132.185	3133.3597	3135.8116	3141.7438	3468.2891
COC1(C)CCC(=N)O1	CO[C@@]1(C)CC[C]([NH])O1	
InChI=1S/C6H11NO2/c1-6(8-2)4-3-5(7)9-6/h7H,3-4H2,1-2H3	InChI=1S/C6H11NO2/c1-6(8-2)4-3-5(7)9-6/h7H,3-4H2,1-2H3/t6-/m1/s1
