20
gdb 23148	2.05891	1.07575	0.75052	1.2217	79.28	-0.245	0.0013	0.2462	1546.2754	0.168344	-440.22441	-440.214318	-440.213374	-440.26026	36.112	
C	 0.2259980382	 1.5683488309	 0.1544338889	-0.388684
C	 0.0374286943	 0.0520771913	 0.0596877951	-0.163365
C	 0.8915166234	-0.5655645064	-1.0498084957	-0.250579
C	 0.7560578726	-2.0581232489	-1.2143730917	 0.304638
N	 0.0032208033	-2.6948532863	-0.3997455847	-0.176387
O	-0.0359157422	-4.0731830525	-0.6782793337	-0.406611
C	 1.5308554798	-2.7290901764	-2.2985046869	 0.017243
C	 1.3803717559	-2.3423783673	-3.7144341378	-0.177511
O	 2.5184509826	-1.9342763792	-2.9654545984	-0.230192
H	 1.2697416856	 1.8286226355	 0.3635362647	 0.114362
H	-0.0557714632	 2.0653781371	-0.7808388398	 0.111758
H	-0.3885923024	 1.9934004674	 0.9538665328	 0.112272
H	 0.2905462584	-0.4192722809	 1.0151112863	 0.110196
H	-1.0166860601	-0.1867326496	-0.1182948637	 0.106608
H	 0.6564035103	-0.0874933531	-2.0117095809	 0.112211
H	 1.9534680984	-0.3392892108	-0.8863451213	 0.128568
H	-0.5829029324	-4.40721764	 0.039901355	 0.307617
H	 1.8335217862	-3.7503528261	-2.0847439246	 0.123123
H	 1.5633743969	-3.0868172085	-4.4876438249	 0.125263
H	 0.6854972745	-1.5484834961	-3.9835752587	 0.119472
63.8117	74.224	94.6167	129.1719	213.9264	248.0458	257.2203	292.0398	312.337	348.3752	411.2494	529.828	609.0787	630.4543	742.4954	771.034	866.6627	873.2749	907.3184	931.1393	983.2285	1000.6869	1052.2795	1092.7502	1122.618	1124.1577	1150.4255	1172.5903	1231.3146	1256.8424	1279.0449	1319.5227	1324.6439	1381.5205	1404.557	1414.9842	1419.3429	1461.1619	1487.9388	1500.8441	1508.7348	1523.1267	1724.7863	3011.8808	3028.3646	3039.2579	3048.7524	3075.1798	3086.5996	3100.4654	3103.1165	3154.8763	3177.259	3825.2612
CCCC(=NO)C1CO1	CCCC(=NO)[C@H]1CO1	
InChI=1S/C6H11NO2/c1-2-3-5(7-8)6-4-9-6/h6,8H,2-4H2,1H3	InChI=1S/C6H11NO2/c1-2-3-5(7-8)6-4-9-6/h6,8H,2-4H2,1H3/t6-/m1/s1
