21
gdb 94900	2.754	1.55089	1.18095	1.4525	83.88	-0.2324	0.0183	0.2507	1116.6633	0.184806	-387.108263	-387.100258	-387.099314	-387.140724	31.662	
C	-0.2038742813	 1.5568026475	-0.1007853129	-0.396664
C	 0.003093064	 0.0448459538	-0.0451889245	 0.107446
O	 0.812606104	-0.3979805416	-1.1566150228	-0.286588
C	 2.1946143658	-0.4841219433	-0.7783475649	-0.184599
C	 2.1962175079	-0.325443238	 0.708289144	 0.340684
C	 3.028432642	 0.0494382478	 1.6739522105	-0.249831
C	 2.2909222238	 0.1755964454	 2.9950564175	-0.242707
C	 0.7943380875	 0.2307046262	 2.5600129546	-0.251913
C	 0.7726076075	-0.4757988146	 1.1886768706	-0.066701
H	 0.732255799	 2.0964150982	 0.0771693024	 0.117205
H	-0.5765473158	 1.8360941172	-1.0899179804	 0.122733
H	-0.9351668858	 1.8838957262	 0.645998369	 0.111998
H	-0.9621161775	-0.4572753487	-0.1691666572	 0.07596
H	 2.5755566598	-1.4602464283	-1.1089165615	 0.112054
H	 2.7858352992	 0.2913540746	-1.2850007617	 0.108773
H	 4.0903935446	 0.2432718744	 1.5700396709	 0.091358
H	 2.487916651	-0.6893723514	 3.6449490196	 0.105662
H	 2.5938406432	 1.0608130489	 3.5657170481	 0.101954
H	 0.1246937885	-0.2293834522	 3.2911626842	 0.095552
H	 0.4922975541	 1.2766844208	 2.4522588302	 0.106992
H	 0.5277221484	-1.5417168928	 1.3052896745	 0.080631
102.3232	110.4611	238.3889	258.2858	271.4585	356.8538	412.2191	435.1689	575.0146	587.6646	682.9485	757.9863	792.0759	820.5673	856.5547	871.8902	911.4563	919.7086	972.1603	990.3018	1018.5738	1036.374	1043.336	1085.0046	1096.2498	1141.2892	1162.9916	1185.9448	1202.6311	1228.2343	1259.1062	1277.5031	1309.7312	1316.5467	1334.5688	1355.4291	1380.0119	1385.2828	1407.1728	1485.9104	1491.8663	1495.1191	1505.0921	1511.6854	1747.4079	2989.9543	2998.6022	3003.4117	3022.5892	3034.1291	3049.6949	3051.585	3064.6377	3104.0863	3105.9236	3117.8835	3191.4771
CC1OCC2=CCCC12	C[C@H]1OCC2=CCC[C@@H]12	
InChI=1S/C8H12O/c1-6-8-4-2-3-7(8)5-9-6/h3,6,8H,2,4-5H2,1H3	InChI=1S/C8H12O/c1-6-8-4-2-3-7(8)5-9-6/h3,6,8H,2,4-5H2,1H3/t6-,8+/m1/s1
