18
gdb 7453	2.86013	1.64033	1.13873	2.5963	65.03	-0.2564	-0.0246	0.2318	1060.1223	0.150393	-422.098686	-422.089205	-422.088261	-422.132881	34.221	
C	 0.0162217527	 1.5492841846	-0.0356487182	-0.405492
C	 0.0098595976	 0.0344517341	 0.1412308408	 0.101439
O	 0.5961958415	-0.3492747782	 1.3814535319	-0.424146
C	-1.4292010468	-0.5411073079	-0.0159776	 0.018045
O	-2.0147696489	-0.0487042882	-1.1909432888	-0.431904
C	-1.4340792212	-2.079030678	-0.0660840833	 0.370662
C	-1.1025281803	-2.8678113248	 1.1714715397	-0.487771
O	-1.7261301093	-2.6070853269	-1.1210048873	-0.323696
H	 1.0383668931	 1.9295346597	 0.0431993025	 0.122443
H	-0.4020100618	 1.8242865887	-1.004726744	 0.150709
H	-0.5934662438	 2.0298446602	 0.7412482707	 0.104991
H	 0.6403311803	-0.4246305706	-0.6296970077	 0.102122
H	 0.2152793773	 0.2060219775	 2.0710183859	 0.281829
H	-2.0136244527	-0.2177390594	 0.8630470742	 0.072314
H	-2.1275119181	-0.8341622897	-1.7547649249	 0.293727
H	-0.1357613816	-2.5478840012	 1.5686799387	 0.175194
H	-1.8460524532	-2.6554371128	 1.949027155	 0.13959
H	-1.1077503947	-3.9345706872	 0.9445648946	 0.139943
62.6704	79.4184	144.0985	212.1881	239.13	291.5577	301.8113	317.7202	365.1192	393.2613	459.145	483.264	527.4847	595.9678	638.8763	817.0425	878.7346	946.222	979.1399	1013.1094	1073.0215	1111.6964	1124.8496	1143.3999	1201.3372	1254.6532	1287.6755	1324.2713	1369.2835	1389.0822	1396.4955	1412.1597	1443.0186	1467.2957	1472.3817	1487.266	1498.2587	1786.906	2956.7552	3022.7091	3041.6005	3047.0875	3102.6439	3111.995	3150.5003	3159.2198	3634.672	3798.8745
CC(O)C(O)C(C)=O	C[C@@H](O)[C@@H](O)C(=O)C	
InChI=1S/C5H10O3/c1-3(6)5(8)4(2)7/h3,5-6,8H,1-2H3	InChI=1S/C5H10O3/c1-3(6)5(8)4(2)7/h3,5-6,8H,1-2H3/t3-,5-/m1/s1
