19
gdb 55149	2.85098	1.40962	1.24682	1.8689	73.95	-0.2301	-0.0163	0.2137	1086.7609	0.158686	-423.034445	-423.025999	-423.025055	-423.068138	31.84	
C	-0.7159815241	 0.0528528374	 0.5537848984	-0.472244
C	 0.6017635163	-0.0374960987	-0.1854413532	 0.360404
O	 1.6675572793	 0.1707956678	 0.3475338914	-0.300171
C	 0.5229319896	-0.3507606698	-1.6933590893	-0.01457
C	 1.7607999589	-1.1026273353	-2.2358076913	-0.255022
C	 1.2622100468	-2.5282610951	-2.4113987034	-0.065533
C	 0.5876618921	-3.1762923063	-1.2141719602	-0.33289
C	-0.2271135988	-2.4553577951	-2.2581306833	 0.115157
O	-0.6331344211	-1.1297788354	-2.0135190245	-0.262428
H	-1.3891031918	 0.753359842	 0.0476219949	 0.142641
H	-1.2218379732	-0.916748736	 0.5375816421	 0.154957
H	-0.5389159003	 0.3735874016	 1.5807881795	 0.135608
H	 0.3949472167	 0.625783486	-2.1813025401	 0.111956
H	 2.0658426204	-0.6960900225	-3.2041074143	 0.106413
H	 2.5957797322	-0.9952517501	-1.5397753684	 0.137146
H	 1.7327403623	-3.1559236967	-3.1584235546	 0.093195
H	 0.5289419181	-4.2596248196	-1.2052899686	 0.116813
H	 0.7174842317	-2.7333672126	-0.2321627693	 0.125264
H	-0.9379334449	-2.9845580117	-2.8811816257	 0.103303
50.7637	92.1579	123.1462	210.3786	305.669	318.0168	414.2364	449.2423	504.5839	579.4177	683.0429	733.4382	749.225	766.1937	811.6355	902.9752	923.2143	942.7151	960.1035	997.2451	1015.6494	1034.1414	1053.3738	1076.8417	1099.1233	1108.7162	1160.9776	1193.8426	1203.9962	1210.7423	1277.1297	1310.5761	1333.4713	1348.6279	1380.9347	1392.2112	1455.2231	1467.6882	1480.1276	1502.3869	1808.5004	3010.6216	3047.3437	3064.7074	3110.9778	3115.464	3130.4842	3158.0178	3179.9243	3189.4717	3216.3776
CC(=O)C1CC2CC2O1	CC(=O)[C@H]1C[C@H]2C[C@H]2O1	
InChI=1S/C7H10O2/c1-4(8)6-2-5-3-7(5)9-6/h5-7H,2-3H2,1H3	InChI=1S/C7H10O2/c1-4(8)6-2-5-3-7(5)9-6/h5-7H,2-3H2,1H3/t5-,6+,7+/m0/s1
