18
gdb 95994	2.80029	1.36211	1.06491	7.2132	67.82	-0.2505	0.0157	0.2662	1142.6115	0.149486	-476.253215	-476.244896	-476.243952	-476.286762	30.852	
N	-0.2017806805	 1.0846533428	-0.0572839446	-0.5321
H	-0.4956690241	 0.1227628582	-0.2017023316	 0.254227
H	 1.4283267947	 0.9029403813	 0.4668890177	 0.319866
H	-0.5552698911	 1.633700282	-0.8328625865	 0.248833
C	-0.728154106	 1.5843927263	 1.2292665695	-0.01184
C	-2.174353711	 1.1286190512	 1.5323735914	-0.266386
C	-1.9645032947	-0.2152209263	 2.2871104827	-0.074652
O	-0.5513945558	-0.3982066971	 2.4030388039	-0.268493
C	 0.0213998324	 0.9088626248	 2.3935456134	-0.001874
C	 1.5612342202	 0.7865901326	 2.3585439217	 0.393613
O	 2.1854605168	 0.7074314628	 3.3831247057	-0.332134
O	 2.1360490231	 0.7801178452	 1.1573069652	-0.373753
H	-0.6137996485	 2.6706653928	 1.2396478013	 0.098917
H	-2.6853214357	 1.8578416634	 2.1664059995	 0.120098
H	-2.7608164288	 1.018153789	 0.6166862683	 0.105646
H	-2.4227334794	-0.1793917824	 3.2845312118	 0.110076
H	-2.3668780775	-1.0830327498	 1.7576856346	 0.115071
H	-0.209220914	 1.4348345032	 3.3318451759	 0.094886
55.7668	111.8355	149.7258	220.6511	272.2421	326.9853	378.4747	396.0151	452.3141	689.4379	710.1588	733.1187	780.5883	798.4897	847.7593	889.279	934.5645	959.1259	973.85	1005.0918	1011.6197	1031.3351	1071.9022	1140.7972	1193.6303	1202.0209	1240.4089	1265.9709	1299.4549	1306.3463	1345.663	1364.8626	1381.4191	1415.3964	1489.5444	1515.1717	1525.2208	1635.3221	1859.7508	3000.4042	3014.0974	3063.9728	3084.6434	3095.4865	3112.7528	3170.9362	3503.6156	3589.3507
[NH3+]C1CCOC1C([O-])=O	N[C@H]1CCO[C@H]1C(=O)O	
InChI=1S/C5H9NO3/c6-3-1-2-9-4(3)5(7)8/h3-4H,1-2,6H2,(H,7,8)	InChI=1S/C5H9NO3/c6-3-1-2-9-4(3)5(7)8/h3-4H,1-2,6H2,(H,7,8)/t3-,4+/m0/s1
