15
gdb 19038	4.24033	2.19189	1.8817	3.9927	63.88	-0.2345	0.0233	0.2578	730.2724	0.122245	-362.671977	-362.666324	-362.66538	-362.701507	23.354	
O	-0.0206721884	 0.014639172	 0.1737154343	-0.379739
C	-0.0166734432	 1.2133817455	 0.0115273095	 0.404879
N	-1.1321736461	 2.0214014079	-0.1763347837	-0.305576
C	-0.7642671641	 3.4219384452	-0.0189046396	-0.036359
C	-0.2055658052	 3.7083523427	 1.4200302408	-0.240877
C	 1.1824248323	 3.3783945124	 0.8769066558	-0.065481
C	 0.7001898667	 3.4866824111	-0.5492213959	-0.069089
C	 1.1629151296	 2.1467690093	-0.0537629484	-0.161623
H	-2.0157562737	 1.6790304413	 0.1741876955	 0.245195
H	-1.5134671963	 4.0997096354	-0.4231844643	 0.089805
H	-0.2777138251	 4.7703745912	 1.6704517567	 0.109215
H	-0.6175521274	 3.1064941118	 2.2369597704	 0.100226
H	 2.1293626769	 3.6927959212	 1.2974359672	 0.099667
H	 1.0832693048	 4.016436541	-1.4104601375	 0.099926
H	 2.1265313393	 1.744842442	-0.3363584908	 0.10983
165.4087	343.5236	443.1268	454.0314	551.1306	638.5539	682.0154	710.6829	785.3423	805.3933	833.2577	873.4691	889.1028	918.4657	962.9731	983.6672	1010.9181	1051.0066	1066.8784	1069.6247	1096.9778	1153.7407	1181.4938	1216.4454	1235.8363	1273.0682	1320.6354	1344.4651	1365.1649	1403.2747	1490.207	1834.8471	3042.3121	3101.8803	3133.7831	3192.422	3207.3545	3219.3871	3607.3419
O=C1NC2CC3C2C13	O=C1N[C@H]2C[C@@H]3[C@H]2[C@H]13	
InChI=1S/C6H7NO/c8-6-5-2-1-3(7-6)4(2)5/h2-5H,1H2,(H,7,8)	InChI=1S/C6H7NO/c8-6-5-2-1-3(7-6)4(2)5/h2-5H,1H2,(H,7,8)/t2-,3+,4-,5-/m1/s1
