17
gdb 82702	2.79436	1.5536	1.21224	2.504	73.05	-0.2463	-0.0277	0.2186	1034.1084	0.135745	-421.785	-421.777261	-421.776317	-421.81725	29.731	
O	 0.3928558466	 1.399417712	 0.0532046678	-0.440316
C	 0.0549572622	 0.0375149959	 0.0573113692	 0.091505
C	 0.2098016981	-0.8223500214	 1.3474465784	-0.11774
C	-0.7308528113	-0.1419961285	 2.3826183605	-0.257531
C	-1.8806311347	-0.5980018651	 1.4837842922	-0.101245
C	-1.0356450203	-1.6572907795	 0.8648147881	-0.094031
C	-1.401576283	-0.4155793954	 0.0223970722	 0.181675
C	-2.3552831546	-0.4176714949	-1.0950027129	 0.032093
O	-3.4875021243	-0.8424527861	-1.0309580112	-0.274912
H	-0.1805678733	 1.8593504753	 0.6745181355	 0.285892
H	 0.6164139876	-0.4143794791	-0.7659027925	 0.09699
H	 1.1800488086	-1.2155228563	 1.6402885819	 0.082592
H	-0.7387008292	-0.686120586	 3.3299238308	 0.116453
H	-0.5886535865	 0.9268683785	 2.5843338231	 0.08556
H	-2.9447753887	-0.6247525742	 1.6743535928	 0.118705
H	-1.2104546261	-2.6918440049	 0.6117034321	 0.116967
H	-1.9508049411	-0.0026047903	-2.0455199078	 0.077344
101.5185	165.7608	192.4418	222.1063	291.8586	319.2564	424.7439	556.3374	587.27	679.9226	707.0906	760.9437	812.0444	848.1698	879.4365	916.2885	938.4887	961.6167	993.3012	1013.7768	1033.538	1060.3707	1096.1493	1125.9029	1143.6857	1155.3735	1198.0565	1212.3874	1249.5395	1264.2075	1294.5167	1305.5909	1380.6161	1430.159	1441.4148	1507.8091	1792.0563	2878.6428	3027.4708	3075.9776	3104.8239	3150.7169	3219.111	3241.3101	3823.275
OC1C2CC3C2C13C=O	O[C@H]1[C@H]2C[C@@H]3[C@H]2[C@]13C=O	
InChI=1S/C7H8O2/c8-2-7-4-1-3(5(4)7)6(7)9/h2-6,9H,1H2	InChI=1S/C7H8O2/c8-2-7-4-1-3(5(4)7)6(7)9/h2-6,9H,1H2/t3-,4+,5-,6-,7+/m0/s1
