22
gdb 122229	2.69936	0.87653	0.74508	1.2685	79.24	-0.2487	0.065	0.3137	1609.2965	0.193062	-441.440946	-441.430515	-441.429571	-441.47723	37.263	
C	 1.5191408564	-0.182239058	-0.7483110681	-0.227749
O	 0.9169699849	-1.4468818578	-0.6189629531	-0.230293
C	-0.4737564727	-1.3691900495	-0.3838886096	-0.059594
C	-1.0030371595	-2.8007526817	-0.3000589081	-0.29705
C	-2.4786159469	-2.9069352684	 0.0396206602	 0.306198
C	-3.4642312733	-2.2619637131	-0.9244393222	-0.115622
O	-3.5089987222	-0.8556266584	-0.7515796081	-0.41586
C	-2.939231529	-4.04987932	 0.8677868464	-0.288562
N	-2.9045982695	-2.6909429618	 1.4430674095	-0.360717
H	 2.5846543431	-0.3426103718	-0.9313283243	 0.124327
H	 1.0954806948	 0.3892440212	-1.5893999366	 0.105609
H	 1.4033050432	 0.4224785036	 0.165704023	 0.101256
H	-0.6754328489	-0.8276720058	 0.5570496314	 0.077939
H	-0.9775551566	-0.8068680252	-1.1826440509	 0.112916
H	-0.8079447779	-3.2997669935	-1.2572828802	 0.112065
H	-0.4134714215	-3.3364679265	 0.4542352943	 0.098775
H	-3.1649798237	-2.4415111671	-1.9623956984	 0.107537
H	-4.4601727462	-2.7059825156	-0.7798758602	 0.091317
H	-3.6862730625	-0.7246079981	 0.1889157278	 0.291141
H	-3.9351907474	-4.4608623766	 0.7263621658	 0.119168
H	-2.197462264	-4.7709439485	 1.2009115721	 0.11464
H	-2.0877880504	-2.5951228372	 2.0418926093	 0.232561
59.5088	80.9582	99.9624	118.6665	129.7106	229.1785	240.6341	290.2305	318.6404	358.7113	437.8037	458.4923	498.4387	570.7283	749.2734	800.7017	895.5199	907.4182	928.2487	968.6139	987.104	997.6095	1059.4521	1067.6236	1086.1826	1095.1919	1146.7425	1161.7285	1180.6681	1203.0084	1222.6819	1230.4153	1264.7617	1303.1361	1308.5956	1358.8462	1366.908	1410.0238	1429.7422	1435.9453	1481.2635	1482.776	1484.8194	1499.697	1506.2525	1514.5289	1526.7281	2951.0683	2969.0586	2993.5528	3010.6399	3020.2239	3026.8264	3067.3743	3076.9791	3107.4303	3110.785	3191.7917	3493.1897	3771.6148
COCCC1(CO)CN1	COCC[C@@]1(CO)CN1	
InChI=1S/C6H13NO2/c1-9-3-2-6(5-8)4-7-6/h7-8H,2-5H2,1H3	InChI=1S/C6H13NO2/c1-9-3-2-6(5-8)4-7-6/h7-8H,2-5H2,1H3/t6-/m0/s1
