20
gdb 109157	2.95873	1.25389	0.95167	3.5502	83.65	-0.2359	-0.0186	0.2172	1295.2971	0.171128	-403.210954	-403.201529	-403.200585	-403.2454	34.042	
C	-0.208325892	 1.5264678769	-0.1011077306	-0.380205
C	 0.0875867374	 0.0206481319	 0.0212228019	-0.28428
C	 0.7873497121	-0.5254723031	-1.182208741	 0.230654
C	 2.0300521551	-0.9939536611	-1.3280746849	-0.221348
C	 2.2716126215	-1.4288224741	-2.7489048157	-0.218842
N	 1.0078741795	-1.1478833488	-3.3879456138	-0.087044
C	 0.7239391665	-1.40235625	-4.7771655875	-0.342455
C	 0.0910176645	-0.6162699636	-2.5083184673	 0.362344
O	-1.0537401661	-0.294385539	-2.7734786943	-0.409526
H	 0.7181142233	 2.1022699915	-0.1938258144	 0.111272
H	-0.8245159424	 1.71815462	-0.9825620375	 0.151272
H	-0.7453599932	 1.8855361312	 0.7819075063	 0.111293
H	 0.6861155373	-0.1779241443	 0.916911814	 0.097414
H	-0.8635198414	-0.5123784839	 0.1403953574	 0.122158
H	 2.79152837	-1.0739085519	-0.5624775201	 0.110243
H	 3.0983948616	-0.871291088	-3.2160784502	 0.120415
H	 2.5324016433	-2.4966899431	-2.8139517025	 0.120403
H	 0.826838744	-2.467154888	-5.0224723466	 0.120468
H	-0.3076908837	-1.0935721269	-4.9581527047	 0.165261
H	 1.3895337027	-0.8313778058	-5.4370463885	 0.120502
72.6573	100.9096	144.1954	167.7404	194.6042	217.0617	285.1061	303.7738	332.6598	471.1813	530.0212	566.418	693.7756	760.0748	777.4643	805.6132	835.518	943.069	960.0812	999.2799	1010.7145	1068.8088	1094.5621	1103.9476	1148.122	1196.4881	1201.3074	1262.4201	1284.6807	1315.1086	1353.594	1355.7767	1403.9977	1424.2786	1448.4258	1474.9457	1493.4579	1494.3255	1497.1133	1513.3418	1528.7301	1706.5279	1786.9938	2983.3175	3001.7157	3009.8501	3031.4859	3040.7271	3055.7412	3072.7565	3108.3785	3134.3703	3136.0444	3213.3348
CCC1=CCN(C)C1=O	CCC1=CCN(C)C1=O	
InChI=1S/C7H11NO/c1-3-6-4-5-8(2)7(6)9/h4H,3,5H2,1-2H3	InChI=1S/C7H11NO/c1-3-6-4-5-8(2)7(6)9/h4H,3,5H2,1-2H3
