12
gdb 7883	4.09719	1.86236	1.28037	3.5869	60.57	-0.2351	-0.0663	0.1687	854.589	0.084819	-414.748379	-414.741065	-414.740121	-414.780974	26.06	
N	 0.0610204838	 1.3295988726	 0.0072189542	-0.591487
C	-0.0836417931	-0.0040566743	 0.0009376072	 0.314341
C	-1.1394923527	-0.8519553924	 0.0030432396	-0.395482
C	-0.6271569709	-2.2276668294	-0.0073836316	 0.446615
O	-1.2145619715	-3.2812937892	-0.0095167683	-0.353402
N	 0.7969096283	-2.123000862	-0.0159613429	-0.410905
C	 1.2008709474	-0.8164928122	-0.0117814351	 0.413727
O	 2.3205318438	-0.3570248514	-0.0161255638	-0.368826
H	 1.0005675367	 1.6946820802	 0.0031750535	 0.281892
H	-0.717967274	 1.9622220354	 0.0156145637	 0.274232
H	-2.195018333	-0.6295905135	 0.0108906688	 0.116297
H	 1.4133867553	-2.9190696737	-0.0240183353	 0.272998
26.5059	146.9552	191.9776	279.0314	394.4848	460.1645	490.4123	560.0572	572.9349	613.8088	648.0616	738.8679	797.2897	804.8409	810.9829	922.7025	1059.5319	1111.0228	1263.1944	1317.3283	1355.1149	1394.4662	1609.3273	1717.4547	1825.1632	1857.0872	3255.4347	3600.4404	3665.7129	3740.9412
NC1=CC(=O)NC1=O	NC1=CC(=O)NC1=O	
InChI=1S/C4H4N2O2/c5-2-1-3(7)6-4(2)8/h1H,(H3,5,6,7,8)	InChI=1S/C4H4N2O2/c5-2-1-3(7)6-4(2)8/h1H,(H3,5,6,7,8)
