22
gdb 66309	3.83192	0.71563	0.65576	3.5714	84.31	-0.2488	0.0344	0.2832	1754.1634	0.193362	-404.368813	-404.35856	-404.357616	-404.405683	37.073	
C	 0.1229310052	 1.6068955846	 0.0319933821	-0.462932
C	-0.0318621508	 0.0966143507	 0.0060901874	 0.39221
C	-1.3287877173	-0.4189698166	-0.5998369689	-0.268722
C	-1.4755054509	-0.1003246776	-2.0956467584	-0.163012
N	-2.6913727807	-0.6559187446	-2.6695284639	-0.27243
C	-3.7235399329	 0.108136514	-3.1167502911	 0.152343
O	-3.7501329393	 1.3208163261	-3.1251834825	-0.322722
C	 1.2126349408	-0.7396496802	-0.1924118154	-0.295253
C	 0.5481357999	-0.6811981573	 1.1634096646	-0.315395
H	 1.0559007161	 1.8967802938	 0.5249469231	 0.11259
H	 0.1385337691	 2.0350459773	-0.9761325446	 0.123742
H	-0.7030761775	 2.0769815584	 0.5785540834	 0.119925
H	-1.3817855033	-1.5072454033	-0.462230777	 0.082256
H	-2.1879131628	 0.0051344933	-0.0642394291	 0.109368
H	-1.5341445288	 0.9765418152	-2.2634744339	 0.151963
H	-0.6031993938	-0.477917055	-2.6436355115	 0.109525
H	-2.8027947292	-1.6573049437	-2.6940350972	 0.243685
H	-4.5608609709	-0.5158207763	-3.4891783172	 0.070965
H	 1.1295495652	-1.6623209151	-0.7581272764	 0.103785
H	 2.1612341938	-0.2289763885	-0.3204063977	 0.110717
H	 1.0456906666	-0.1255197136	 1.9513348218	 0.110281
H	 0.0179242116	-1.5621743414	 1.5103814524	 0.10711
21.819	54.8859	94.2127	140.2696	215.9127	226.199	270.2327	330.6575	336.9308	365.5426	425.8901	464.1987	536.6475	723.6143	742.0167	785.1456	817.5841	866.7366	913.9937	951.8307	953.7831	1003.195	1017.5245	1029.8573	1050.0828	1060.1394	1079.3831	1101.9708	1128.2958	1187.2664	1200.7127	1235.3303	1302.9904	1316.3297	1335.7545	1372.2308	1404.798	1421.9188	1431.616	1468.0781	1477.1124	1494.9534	1496.6532	1499.9559	1510.4383	1536.9322	1806.8633	2930.0688	3010.9249	3026.2883	3029.0153	3054.0161	3087.225	3100.7588	3123.9277	3128.7563	3129.8358	3201.2976	3215.9496	3629.7435
CC1(CCNC=O)CC1	CC1(CCNC=O)CC1	
InChI=1S/C7H13NO/c1-7(2-3-7)4-5-8-6-9/h6H,2-5H2,1H3,(H,8,9)	InChI=1S/C7H13NO/c1-7(2-3-7)4-5-8-6-9/h6H,2-5H2,1H3,(H,8,9)
