14
gdb 25258	3.29687	1.6862	1.12346	4.7825	69.75	-0.2375	-0.0253	0.2122	993.3304	0.103855	-436.744559	-436.737684	-436.73674	-436.77644	25.748	
O	 0.0143350869	-0.0630867091	 0.0039024279	-0.382507
C	 0.0401293881	 1.1469645696	 0.0091424781	 0.341213
N	-1.058431815	 1.9999430697	 0.0287902308	-0.354434
C	-0.7551468073	 3.4302587117	 0.0306786987	-0.290114
C	 0.745172829	 3.4016156413	 0.0093588846	 0.241169
C	 1.1577449618	 2.1103744838	-0.0022681068	 0.202343
O	 2.5018720527	 2.0076798589	-0.0216876347	-0.188325
C	 2.9544928952	 3.2959336351	-0.0222704669	 0.002662
C	 1.926946699	 4.1987750045	-0.0037268739	-0.366694
H	-1.9929000247	 1.6285852451	 0.0396990281	 0.257263
H	-1.1812829458	 3.9344101945	-0.8469599261	 0.132345
H	-1.1562818447	 3.9267501079	 0.9243176186	 0.132351
H	 4.0263728311	 3.4077627824	-0.0368930804	 0.147665
H	 2.0290029235	 5.2725846647	-0.0003413581	 0.125063
56.795	173.0642	252.6382	295.0476	386.8073	542.6394	612.3481	623.585	636.1696	660.0791	753.8792	778.1936	779.765	831.0799	922.4541	1012.9979	1040.5671	1052.3626	1081.351	1140.2235	1174.8373	1186.0024	1283.3147	1300.9579	1374.9659	1428.4706	1474.5074	1502.3418	1507.1434	1624.8141	1832.5348	3011.8999	3037.8967	3256.531	3284.6374	3674.2884
O=C1NCC2=C1OC=C2	O=C1NCc2c1occ2	
InChI=1S/C6H5NO2/c8-6-5-4(3-7-6)1-2-9-5/h1-2H,3H2,(H,7,8)	InChI=1S/C6H5NO2/c8-6-5-4(3-7-6)1-2-9-5/h1-2H,3H2,(H,7,8)
