15
gdb 25820	4.17275	1.14052	0.89739	4.0837	74.14	-0.2104	-0.0257	0.1847	1224.8547	0.114648	-450.167714	-450.159456	-450.158512	-450.2006	30.985	
N	-0.0234639395	 1.281223723	-0.1834608588	-0.526046
C	 0.0336374105	-0.0826211786	-0.0306798165	 0.253528
N	 1.1498674774	-0.7065063824	 0.0533704787	-0.532393
C	-1.298101588	-0.7078697949	-0.0064436633	 0.360553
N	-2.4595658989	-0.1368299322	 0.0008921973	-0.306473
C	-3.3803578513	-1.170585792	 0.0348407667	-0.192426
C	-2.6987416662	-2.3534850989	 0.0508701425	 0.348883
N	-3.046217373	-3.681982733	 0.1610221882	-0.598819
O	-1.3713072804	-2.0783324506	 0.0266623558	-0.203391
H	 0.8234111929	 1.7752219342	 0.0483239039	 0.257016
H	-0.8964803026	 1.7293814426	 0.0443207205	 0.267376
H	 0.9882590019	-1.7091375029	 0.1175431139	 0.219774
H	-4.4441174653	-0.9999141509	 0.0456146541	 0.118582
H	-4.0022658456	-3.8725521778	-0.1024408094	 0.266487
H	-2.400196942	-4.3122071958	-0.2956731937	 0.267351
78.1825	154.9426	173.4767	207.4736	319.3189	343.5218	410.7752	446.0387	463.6781	545.4809	617.4917	644.7734	652.3808	703.5653	745.1959	766.6244	782.281	837.3425	972.9215	1020.2739	1090.3615	1117.9758	1148.9123	1161.2136	1247.7119	1294.2561	1414.9431	1461.8965	1580.9464	1608.8027	1623.1311	1669.4143	1709.3638	3270.4418	3516.8821	3557.4434	3589.9257	3660.1883	3715.2625
NC(=N)C1=NC=C(N)O1	NC(=N)c1ncc(N)o1	
InChI=1S/C4H6N4O/c5-2-1-8-4(9-2)3(6)7/h1H,5H2,(H3,6,7)	InChI=1S/C4H6N4O/c5-2-1-8-4(9-2)3(6)7/h1H,5H2,(H3,6,7)
