16
gdb 32710	5.20006	0.96808	0.82446	2.6849	77.33	-0.2518	-0.0749	0.1769	1365.0707	0.124549	-434.091526	-434.083278	-434.082334	-434.125779	29.275	
C	-0.3145987754	 1.5964415186	-0.0393486157	-0.376299
C	 0.5694470436	 0.3713004035	 0.1730145229	-0.118057
N	 1.3490169247	 0.0943468269	-1.0250479076	-0.306568
C	 2.1412544564	-0.877737473	-1.0544383929	 0.465793
O	 2.271582461	-1.7179343066	 0.1092074662	-0.215391
C	 3.1184388905	-2.7434139886	 0.055373223	 0.158784
N	 3.8488758928	-3.0745242733	-0.9428247769	-0.280777
C	 3.692156288	-2.238194531	-2.0454408369	 0.070369
N	 2.9184187007	-1.2152828764	-2.1436226412	-0.265196
H	 0.2942379369	 2.4748013846	-0.2716752035	 0.125199
H	-1.0015682086	 1.4347521537	-0.8749129031	 0.12519
H	-0.9031358371	 1.808612634	 0.8587773368	 0.106561
H	 1.2384820888	 0.5308873081	 1.0311884139	 0.107082
H	-0.0479330235	-0.5007757897	 0.4333906079	 0.107076
H	 3.1357848189	-3.3061209933	 0.9864984314	 0.15534
H	 4.3020630823	-2.4989943075	-2.9072198643	 0.140894
27.1379	90.2379	144.4891	188.0387	275.1228	338.1667	368.6171	478.5014	529.0692	607.3874	663.1869	720.8752	771.141	787.1975	903.5025	940.2192	975.7664	1007.2774	1026.7179	1102.6441	1116.0433	1135.0652	1164.3303	1240.3367	1299.0754	1380.7695	1405.9361	1414.1625	1424.6797	1469.2663	1489.1529	1504.3707	1584.5293	1688.1102	1781.4647	2990.1766	3019.206	3042.3554	3115.2351	3120.602	3168.2383	3172.4384
CCN=C1OC=NC=N1	CC[N]C1=NCN=CO1	
InChI=1S/C5H7N3O/c1-2-7-5-8-3-6-4-9-5/h3-4H,2H2,1H3	InChI=1S/C5H8N3O/c1-2-7-5-8-3-6-4-9-5/h4H,2-3H2,1H3
