17
gdb 37953	3.04138	2.00214	1.52839	3.4568	72.75	-0.2263	-0.0138	0.2125	882.4841	0.137933	-417.915431	-417.908806	-417.907862	-417.946012	27.56	
C	 0.0326262466	 1.3972989244	-0.0021662529	-0.061796
C	 1.4616336789	 2.0576117821	 0.0630224011	-0.204505
N	 2.3176084069	 1.1496365422	 0.8232001147	-0.201603
C	 2.5261892916	 0.1124157136	 0.1422931312	 0.283228
N	 2.5447253217	-1.2693788704	 0.5922503946	-0.353946
C	 1.903993647	-1.6088070272	-0.7183986232	-0.060549
C	 0.7081769406	-0.6856227279	-1.0182707525	 0.127977
O	-0.0092978778	-0.0364270202	-0.0121613385	-0.242778
C	 2.1022333138	-0.2297943052	-1.2947394944	-0.273021
H	-0.523143325	 1.6584299993	 0.9003745718	 0.128496
H	-0.5055067772	 1.8053063588	-0.869185842	 0.096778
H	 1.8347361827	 2.2528143755	-0.9511703456	 0.104857
H	 1.3712191361	 3.0209676756	 0.5719972002	 0.109074
H	 3.4787213263	-1.6741241135	 0.6375541558	 0.237271
H	 2.0060575934	-2.5914459038	-1.1609773706	 0.105773
H	 0.106801029	-1.0037427216	-1.8710679441	 0.09577
H	 2.5023070854	 0.1472761083	-2.2276249954	 0.108973
177.7418	252.8408	301.7273	325.0063	430.7666	512.0143	524.7439	624.6659	707.6353	719.974	733.4568	776.9209	822.3903	841.966	861.4735	892.0539	957.9798	979.1511	1005.9369	1036.8081	1056.4753	1067.9324	1088.1151	1098.1882	1144.5603	1180.5907	1228.7162	1242.6893	1262.8443	1279.7658	1323.6066	1343.7705	1381.2818	1415.7349	1492.3298	1507.7494	1762.4279	3002.6574	3015.5457	3086.5869	3097.2444	3115.6461	3182.3351	3203.1912	3480.187
C1CN=C2NC3C(O1)C23	C1C[N][C]2N[C@H]3[C@@H](O1)[C@@H]23	
InChI=1S/C6H8N2O/c1-2-9-5-3-4(5)8-6(3)7-1/h3-5H,1-2H2,(H,7,8)	InChI=1S/C6H8N2O/c1-2-9-5-3-4(5)8-6(3)7-1/h3-5H,1-2H2,(H,7,8)/t3-,4+,5-/m0/s1
