21
gdb 111592	3.82057	1.1944	1.14646	1.7867	80.93	-0.2363	0.0834	0.3197	1176.6267	0.184638	-387.050551	-387.042996	-387.042052	-387.082735	30.61	
C	 0.709203077	-0.0722815373	 1.5331390579	-0.379062
C	 0.1484407571	 0.0404306608	 0.1100777153	-0.216819
C	-1.2338074976	-0.5917404645	-0.0192899493	 0.046209
C	-2.0281931176	-0.6297512708	-1.3609650202	-0.132334
C	-1.0895326945	-1.4014856098	-2.3086289576	-0.212264
C	-1.1663304873	-2.6975980885	-1.4779295587	 0.068044
O	-2.5797284455	-3.0352777453	-1.6396035961	-0.296553
C	-2.7936856908	-1.9178486656	-0.7734110832	 0.109588
C	-1.4588372275	-2.1173714182	-0.0302217873	-0.094144
H	 1.6983897519	 0.3894469233	 1.6091116254	 0.112359
H	 0.0536124322	 0.4230723966	 2.2580373321	 0.114371
H	 0.8065702013	-1.1196673151	 1.8388265711	 0.117409
H	 0.0867772837	 1.0991623811	-0.1752147796	 0.096232
H	 0.8534506501	-0.4234308973	-0.5881488437	 0.096257
H	-1.886154956	-0.173674549	 0.7599560891	 0.068533
H	-2.5521294312	 0.2469259197	-1.7384108678	 0.062901
H	-1.506856795	-1.5718431991	-3.3029951343	 0.107022
H	-0.0964098462	-0.9592384554	-2.4013359611	 0.097571
H	-0.4909166667	-3.5283981344	-1.6756369312	 0.078654
H	-3.7880368245	-1.8283008938	-0.3393217179	 0.083152
H	-1.3353880129	-2.7826648974	 0.822659967	 0.072872
76.5406	167.0779	179.3403	257.8896	348.5292	487.1192	508.6223	547.6713	661.304	721.6433	750.5536	799.0107	824.41	844.2459	853.9816	909.5667	920.1155	944.4673	955.7411	980.6002	989.8904	1005.6372	1030.3955	1066.1052	1074.5568	1091.781	1132.613	1154.9727	1165.489	1175.3952	1202.4331	1221.6939	1245.7575	1262.6373	1290.8525	1312.0797	1316.4751	1334.4392	1349.7339	1408.6698	1419.6135	1486.8729	1490.2109	1500.4335	1506.9753	3010.5959	3020.8237	3030.6146	3063.4254	3080.8938	3098.4319	3103.4984	3125.5071	3128.3163	3131.5494	3135.2424	3143.5332
CCC1C2CC3OC2C13	CC[C@H]1[C@H]2C[C@@H]3O[C@H]2[C@H]13	
InChI=1S/C8H12O/c1-2-4-5-3-6-7(4)8(5)9-6/h4-8H,2-3H2,1H3	InChI=1S/C8H12O/c1-2-4-5-3-6-7(4)8(5)9-6/h4-8H,2-3H2,1H3/t4-,5+,6-,7+,8+/m0/s1
