20
gdb 89644	4.12433	1.1048	1.02058	1.6248	79.47	-0.2147	0.0742	0.2889	1223.4451	0.17082	-403.078061	-403.069669	-403.068725	-403.110989	32.869	
O	-0.1203548112	 1.5232703092	-0.012549829	-0.432907
C	-0.004140751	 0.115656144	 0.0409062677	 0.127119
C	 0.2543017732	-0.5529814058	 1.4390147256	-0.332743
C	-1.0797341717	-1.2849016827	 1.3004609842	 0.377468
C	-2.1866179126	-0.2987234358	 1.145767604	-0.313705
C	-1.3378540573	-0.6044784791	-0.0723287124	-0.133924
N	-1.2653924422	-2.6078090074	 1.7931506864	-0.150022
C	-2.1795309529	-3.4872520689	 1.0754072653	-0.229124
C	-0.7082345344	-3.706284137	 1.0043279798	-0.228715
H	 0.7489372243	 1.9019229759	 0.1536697622	 0.281807
H	 0.7161007432	-0.2461867289	-0.7053821802	 0.065831
H	 1.1159760213	-1.2252761282	 1.428090425	 0.100079
H	 0.3375622694	 0.1311168921	 2.2896249827	 0.095964
H	-3.1812472612	-0.7328870874	 1.1117251202	 0.109952
H	-2.1397784824	 0.6814639799	 1.6127119054	 0.117423
H	-1.7752466324	-0.9727819657	-0.9925543691	 0.082307
H	-2.8062396549	-4.1216419547	 1.695215323	 0.118701
H	-2.6610569631	-3.1047111842	 0.1775123484	 0.115494
H	-0.2212928641	-3.4580803295	 0.0631588844	 0.111717
H	-0.2397618699	-4.5038592157	 1.5730525163	 0.117277
91.5896	113.9182	175.2129	214.0299	288.0186	315.4127	419.3065	469.8443	490.4769	522.5178	593.9084	683.3001	786.5146	831.5983	856.6186	859.3641	904.5072	926.8368	954.0742	969.2399	992.2146	1025.9319	1034.7644	1066.3973	1095.6482	1100.9069	1117.7959	1122.9524	1155.089	1171.2521	1183.5379	1211.0001	1226.5787	1246.1919	1257.0753	1316.9517	1335.4634	1408.0099	1419.0115	1474.2338	1485.9753	1506.4626	1514.5723	3001.4873	3046.5185	3099.0759	3103.0546	3106.7515	3114.6975	3180.4437	3182.8618	3197.2039	3202.0472	3812.9854
OC1CC2(CC12)N1CC1	O[C@H]1C[C@]2(C[C@@H]12)N1CC1	
InChI=1S/C7H11NO/c9-6-4-7(3-5(6)7)8-1-2-8/h5-6,9H,1-4H2	InChI=1S/C7H11NO/c9-6-4-7(3-5(6)7)8-1-2-8/h5-6,9H,1-4H2/t5-,6-,7-/m0/s1
