20
gdb 81285	2.70339	1.54394	1.25238	3.4147	80.4	-0.2508	0.0358	0.2866	1085.2928	0.17341	-403.159737	-403.151884	-403.15094	-403.191872	31.11	
C	-0.1159482138	 1.4986753506	 0.0229403743	-0.433049
C	 0.0190881293	-0.0182011641	-0.0311332899	 0.032593
C	 0.8902247367	-0.5870574594	-1.1901767481	-0.043256
C	 2.12836758	-0.4528430322	-0.2660841819	-0.247032
C	 1.1168759818	-0.6262835011	 0.9060142547	-0.086834
C	 0.8331402419	-2.0920273365	 1.0681649478	 0.41423
N	 0.8261498125	-2.6686899225	 2.1945364959	-0.540464
O	 0.5801301549	-2.7724286567	-0.0932959824	-0.270267
C	 0.5680733793	-2.0665273494	-1.3507713661	-0.083994
H	 0.8490505764	 2.0076614027	-0.0641267268	 0.119168
H	-0.754820524	 1.8587096206	-0.7909034979	 0.117701
H	-0.5714926139	 1.8123228357	 0.9679085399	 0.125161
H	-0.9720636866	-0.4752858761	 0.0666571706	 0.078419
H	 0.8814373111	-0.0843443707	-2.1613610273	 0.06995
H	 2.9234040872	-1.1966631467	-0.3644642892	 0.107913
H	 2.5660914376	 0.5455710131	-0.2869041483	 0.1095
H	 1.3142994302	-0.1729039586	 1.8759408361	 0.090655
H	 0.6082097344	-3.6610375229	 2.0787316318	 0.21535
H	-0.4287044425	-2.2051857679	-1.7873566471	 0.111914
H	 1.2992518275	-2.5621460378	-2.0006237561	 0.112341
113.0374	174.3752	211.2588	243.7212	273.5543	381.8734	422.7474	434.5742	504.594	649.2806	689.1525	778.6682	805.4209	849.683	873.3588	886.2572	908.4929	938.9794	963.3142	990.979	1043.9896	1049.0211	1074.0962	1087.9443	1108.0974	1140.6388	1156.0272	1169.2274	1227.8243	1243.1395	1266.0539	1290.8749	1300.1408	1317.9805	1327.4663	1392.7271	1413.828	1428.4356	1493.6371	1497.0607	1505.9918	1516.0769	1756.6524	3021.6035	3032.3458	3037.4394	3061.5977	3066.4317	3075.0056	3097.1423	3105.1804	3128.6888	3134.1725	3458.2961
CC1C2CC1C(=N)OC2	C[C@H]1[C@H]2C[C@@H]1[C]([NH])OC2	
InChI=1S/C7H11NO/c1-4-5-2-6(4)7(8)9-3-5/h4-6,8H,2-3H2,1H3	InChI=1S/C7H11NO/c1-4-5-2-6(4)7(8)9-3-5/h4-6,8H,2-3H2,1H3/t4-,5-,6-/m0/s1
