18
gdb 31267	2.40085	1.3924	0.92906	0.7225	76.79	-0.1774	0.0312	0.2086	1274.4895	0.147195	-439.085352	-439.07601	-439.075065	-439.120548	32.986	
C	-0.0331177257	 1.2875089979	 0.1286032111	-0.322889
N	-0.326266355	-0.0922808786	-0.2427321476	-0.40105
C	 0.5279115645	-0.6979841649	-1.1732290085	 0.15512
C	 0.9758192999	-1.9863376575	-1.1499106919	 0.314779
O	 0.8274860184	-2.9472715749	-0.2230064537	-0.275755
C	 0.0906751384	-4.0995326818	-0.6523041369	-0.252113
O	 1.7327650604	-2.2650952268	-2.2550597762	-0.181042
C	 1.7742335098	-1.1202402356	-2.9885474501	-0.014032
C	 1.0673874256	-0.1319225243	-2.3823965435	-0.246407
H	 0.9856913792	 1.4400667454	 0.5195624145	 0.108748
H	-0.1622148896	 1.9418197763	-0.7390581139	 0.129343
H	-0.7503755977	 1.6086436618	 0.8885269357	 0.121402
H	-0.4249461031	-0.6837883805	 0.5727481319	 0.233292
H	-0.9114650574	-3.8143321007	-0.9937105048	 0.123867
H	 0.6160817439	-4.6179636822	-1.4607255647	 0.136169
H	 0.0140093732	-4.7577449515	 0.2149314591	 0.132035
H	 2.3397825362	-1.1699475204	-3.9037056721	 0.131449
H	 0.9342020789	 0.8735466582	-2.7487491782	 0.107085
42.383	69.898	146.288	157.7741	171.0847	204.9517	293.1057	341.6205	411.7632	543.975	601.5145	632.4831	666.4563	697.4544	735.6916	786.0661	806.3399	904.2097	1004.1164	1040.6097	1089.0978	1106.2361	1151.7112	1171.6178	1175.3476	1201.2739	1206.0768	1269.3872	1321.8945	1432.7455	1461.2098	1483.0792	1485.9567	1493.4102	1498.1362	1504.4708	1519.2059	1553.3213	1707.6299	2974.2802	3022.012	3073.1964	3095.7568	3114.0955	3138.1364	3256.7838	3286.4083	3560.9564
CNC1=C(OC)OC=C1	CNc1c(OC)occ1	
InChI=1S/C6H9NO2/c1-7-5-3-4-9-6(5)8-2/h3-4,7H,1-2H3	InChI=1S/C6H9NO2/c1-7-5-3-4-9-6(5)8-2/h3-4,7H,1-2H3
