15
gdb 130854	3.96342	1.24239	0.95744	5.619	76.43	-0.245	-0.0365	0.2086	1158.3067	0.114722	-416.805708	-416.798445	-416.797501	-416.837967	26.41	
O	-0.0976397242	-0.0398066043	-0.1747965352	-0.284361
C	-0.0350318492	 1.1650723196	-0.0527437218	 0.071703
C	 1.1997701209	 1.9290344343	 0.0087929559	-0.122227
C	 1.406725108	 3.3013463974	 0.1462054845	 0.352796
C	 1.1295731501	 4.7923315205	 0.3042538308	-0.379852
C	 2.7052090116	 4.9512865477	 0.3017820378	-0.167777
N	 2.7252918961	 3.4880344337	 0.1490296354	 0.07603
N	 3.4808496826	 2.3774808574	 0.0266649952	-0.290277
C	 2.5444237983	 1.4305358456	-0.0586735783	-0.037911
H	-0.960795889	 1.7796100945	 0.0223635027	 0.055577
H	 0.6238045961	 5.2714127997	-0.5361791916	 0.144351
H	 0.645324921	 5.0872129538	 1.2371028181	 0.144381
H	 3.1279764992	 5.4906138558	-0.5486439863	 0.145709
H	 3.1490404527	 5.3044728157	 1.2351156909	 0.145774
H	 2.8312747459	 0.3952506486	-0.167716378	 0.146083
86.2207	160.7653	167.9764	214.8216	305.187	388.5289	527.6737	658.03	661.5484	689.1746	796.6593	812.3387	849.7678	899.9141	900.5272	1036.502	1053.0892	1061.6979	1123.2293	1136.288	1170.7621	1209.3654	1220.1019	1272.1355	1316.3249	1378.1019	1402.9165	1434.8152	1475.2475	1489.6781	1534.3567	1586.2185	1785.5145	2867.9372	3073.3347	3082.814	3127.3647	3140.1676	3260.2272
O=CC1=C2CCN2N=C1	O=Cc1c2CCn2nc1	
InChI=1S/C6H6N2O/c9-4-5-3-7-8-2-1-6(5)8/h3-4H,1-2H2	InChI=1S/C6H6N2O/c9-4-5-3-7-8-2-1-6(5)8/h3-4H,1-2H2
