17
gdb 83245	2.97899	1.43895	1.27763	2.9076	70.76	-0.2132	0.0165	0.2297	1034.3146	0.137492	-455.121364	-455.113557	-455.112613	-455.153447	30.849	
N	-0.0288093445	 1.3377666656	 0.2585468446	-0.546776
C	-0.0865078184	-0.0187510686	 0.018072268	 0.334368
N	-1.1912008899	-0.6516405971	 0.0969822424	-0.2666
C	-1.1343794872	-2.0758799979	-0.0036101961	-0.079812
C	-1.1142149301	-2.7694621625	-1.3616248675	 0.106541
O	-1.0960013031	-2.0399036694	-2.5408921439	-0.424028
C	 0.1288559191	-2.7506513984	-0.4987849535	-0.02629
O	 1.1156871765	-1.8754026514	-0.9960066418	-0.265717
C	 1.2550479862	-0.69139475	-0.2260002682	-0.158608
H	 0.6457732639	 1.8683192011	-0.2721971788	 0.249837
H	-0.9385002924	 1.7752086422	 0.3197076954	 0.257906
H	-1.6983873467	-2.5885220962	 0.7714212259	 0.095523
H	-1.6698187903	-3.6987318758	-1.4504429356	 0.099207
H	-0.2000994923	-1.6837746599	-2.6185060435	 0.288451
H	 0.5334696114	-3.6498634605	-0.0397345893	 0.091936
H	 1.9297844422	-0.0380300723	-0.7885284719	 0.114914
H	 1.7297911454	-0.9062075391	 0.7432280939	 0.129149
102.8854	146.0801	253.0911	309.9625	367.0314	388.4879	405.2672	465.8475	508.5136	554.0949	593.4881	659.1822	664.934	757.8157	771.5126	808.327	880.3382	929.496	999.17	1014.2032	1060.1539	1078.2354	1093.7032	1109.6327	1163.4651	1204.9237	1251.5272	1273.2362	1318.8765	1335.9933	1353.303	1368.479	1426.306	1440.8899	1482.4805	1628.0051	1737.4446	2998.8291	3075.9958	3120.631	3134.6385	3152.0511	3555.0729	3668.4836	3740.1368
NC1=NC2C(O)C2OC1	NC1=N[C@H]2[C@@H](O)[C@H]2OC1	
InChI=1S/C5H8N2O2/c6-2-1-9-5-3(7-2)4(5)8/h3-5,8H,1H2,(H2,6,7)	InChI=1S/C5H8N2O2/c6-2-1-9-5-3(7-2)4(5)8/h3-5,8H,1H2,(H2,6,7)/t3-,4+,5-/m0/s1
