21
gdb 119141	2.59148	1.05969	0.85234	1.1647	74.19	-0.2616	0.0745	0.3361	1401.3401	0.180181	-461.333795	-461.323529	-461.322584	-461.369354	37.733	
C	-0.0591479414	 1.5666728797	-0.639455493	-0.407931
C	 0.0993550447	 0.1320862963	-0.1227776743	 0.061206
O	-1.1692846438	-0.4267547724	 0.1736614262	-0.433626
C	 0.8717079784	-0.7854219513	-1.0819133283	 0.371392
C	 2.232068747	-0.3186394978	-1.5855347943	-0.288434
C	 2.1898283079	 0.3769229204	-2.9460293405	-0.066317
O	 3.5295029224	 0.7153846495	-3.275931819	-0.421217
C	 0.5700035619	-2.223623343	-1.0395556005	-0.223429
O	 0.0121489804	-1.3927040829	-2.0729703234	-0.295386
H	 0.9025293661	 2.0762790842	-0.750472286	 0.12054
H	-0.5696378104	 1.5744131146	-1.6086430692	 0.120324
H	-0.6677536482	 2.133143224	 0.0697181997	 0.126548
H	 0.6475658845	 0.1538948715	 0.8280906353	 0.094126
H	-1.5445874122	-0.6816011994	-0.6808647878	 0.287516
H	 2.6814859904	 0.3591737095	-0.8511710825	 0.113924
H	 2.9128022155	-1.1705174697	-1.6770500916	 0.113198
H	 1.7491555047	-0.3082249936	-3.6827224311	 0.106611
H	 1.5527821387	 1.2721851512	-2.9065762755	 0.089921
H	 3.5323725678	 1.0993153222	-4.1573947826	 0.28689
H	 1.3227341978	-2.9318460974	-1.3812187608	 0.11467
H	-0.150291872	-2.6004562758	-0.3190504806	 0.129474
63.6527	73.4889	91.8624	183.2775	248.9365	255.9045	261.3919	295.2801	339.4834	369.3255	383.1622	429.9331	495.0176	544.366	620.6219	707.9166	790.2969	838.4165	908.12	930.8302	949.3856	1022.4093	1044.1008	1052.5366	1081.0114	1100.2767	1125.161	1137.8121	1181.2097	1197.2613	1245.587	1251.6968	1295.3608	1317.8068	1342.7145	1351.4947	1397.1424	1400.4445	1429.1226	1455.9811	1487.5105	1495.4774	1500.2404	1517.5103	1534.4143	2997.6389	3029.2551	3031.4059	3038.0477	3048.0668	3090.1697	3098.3649	3110.003	3123.4227	3197.4038	3748.9185	3832.6936
CC(O)C1(CCO)CO1	C[C@@H](O)[C@@]1(CCO)CO1	
InChI=1S/C6H12O3/c1-5(8)6(2-3-7)4-9-6/h5,7-8H,2-4H2,1H3	InChI=1S/C6H12O3/c1-5(8)6(2-3-7)4-9-6/h5,7-8H,2-4H2,1H3/t5-,6-/m1/s1
