21
gdb 103979	2.55062	1.32055	1.2201	1.1492	78.06	-0.2452	0.0735	0.3187	1153.7302	0.180751	-424.189709	-424.18015	-424.179205	-424.223261	36.946	
C	-0.1034694827	 1.5657284738	 0.169096112	-0.468906
C	 0.0255662065	 0.0483028876	 0.0594761356	 0.256902
C	-1.3345253511	-0.6009544194	-0.1868874191	-0.115697
O	-1.8261485052	-0.1405199595	-1.4401766955	-0.43149
C	 1.0949759649	-0.528589416	-0.9425958688	-0.272452
C	 1.7316008147	-1.3257187077	 0.2014542134	-0.099522
C	 2.2192716665	-0.3645006356	 1.2641353428	-0.357625
C	 0.7589521725	-0.7062023573	 1.1908476297	 0.355451
O	 0.0985963741	-1.3388505615	 2.2365443093	-0.464244
H	 0.8695787993	 2.0466312897	 0.30578316	 0.106257
H	-0.5633426543	 1.9747441814	-0.7346174726	 0.136216
H	-0.7381319914	 1.8432148773	 1.0198840008	 0.101556
H	-1.2257031515	-1.6958932829	-0.1792612584	 0.090881
H	-2.0211969795	-0.3363582383	 0.6317476248	 0.083337
H	-2.6863812437	-0.5426181272	-1.5892072423	 0.286674
H	 0.6398562268	-1.1340055515	-1.727985758	 0.112264
H	 1.748948995	 0.2151493564	-1.4092365384	 0.091315
H	 2.1004643377	-2.3422773203	 0.147291909	 0.089759
H	 2.7313592475	-0.8367326766	 2.0970857745	 0.110223
H	 2.6042703815	 0.616053256	 0.9930401362	 0.103342
H	 0.0961484026	-0.7459118585	 2.995744465	 0.285759
117.6992	155.6862	169.0105	206.4077	249.1603	256.445	280.1186	310.9056	355.9738	385.2811	430.3852	487.7145	515.3085	621.3939	699.8018	790.3016	844.1661	871.0877	905.4819	929.9426	963.6782	975.231	996.0541	1022.9908	1033.6647	1070.4738	1083.2206	1119.7135	1155.2794	1194.885	1211.5425	1234.6184	1239.0589	1266.4682	1287.3975	1311.7607	1335.9771	1387.3737	1403.8391	1456.8925	1480.4967	1487.9333	1499.9083	1507.4673	1519.07	2978.1508	3010.6679	3027.0175	3050.0556	3091.9906	3101.6186	3117.6819	3118.2674	3188.1578	3198.2568	3796.4203	3835.0035
CC1(CO)CC2CC12O	C[C@@]1(CO)C[C@H]2C[C@@]12O	
InChI=1S/C7H12O2/c1-6(4-8)2-5-3-7(5,6)9/h5,8-9H,2-4H2,1H3	InChI=1S/C7H12O2/c1-6(4-8)2-5-3-7(5,6)9/h5,8-9H,2-4H2,1H3/t5-,6-,7-/m0/s1
