17
gdb 45509	4.29655	1.26755	1.02153	2.5077	75.12	-0.2499	-0.0034	0.2465	1126.9121	0.139769	-418.07721	-418.070229	-418.069285	-418.10867	27.722	
O	 0.0978176791	-0.0150923066	-0.2650768841	-0.343055
C	-0.0171619057	 1.1688932904	-0.0868937504	 0.402325
C	-1.3172512942	 2.0023949643	-0.0484743878	-0.379533
C	-0.8204036558	 3.4536232844	-0.1053637447	-0.067821
C	-1.29426744	 4.6122629542	 0.7839246112	-0.257896
C	 0.0551721309	 5.3493964564	 1.0607425021	-0.160325
N	 1.1188741578	 4.3157544288	 1.0131692571	-0.319375
C	 0.5985647638	 3.3326023868	 0.4039382055	 0.438352
N	 1.0412489418	 2.0473348055	 0.177133317	-0.405672
H	-1.9850466804	 1.6994087512	-0.8557461734	 0.137889
H	-1.8174839271	 1.7745326069	 0.9007160399	 0.141019
H	-0.7782199064	 3.7780994491	-1.1543480711	 0.105927
H	-2.0476887029	 5.2521090132	 0.3195911587	 0.106093
H	-1.7050748374	 4.2276373756	 1.7243253515	 0.109084
H	 0.2537231057	 6.1207462738	 0.3039939018	 0.108377
H	 0.0714871515	 5.8461149964	 2.0347926612	 0.113406
H	 1.9655899592	 1.7081707497	 0.3984462757	 0.271204
110.3813	162.9113	288.0108	322.6738	404.5421	511.8844	544.7529	563.4262	617.6454	639.1421	682.2995	750.0467	826.8565	843.173	851.3032	922.0319	948.8383	989.7978	995.9701	1080.9994	1111.1855	1150.2659	1177.8255	1207.7107	1219.2997	1251.7994	1287.3719	1299.5403	1319.3133	1351.9081	1361.207	1380.816	1465.2375	1488.1507	1503.805	1768.4327	1862.7708	3012.523	3017.3254	3046.8338	3050.6278	3086.3574	3113.2574	3129.1863	3631.9813
O=C1CC2CCN=C2N1	O=C1C[C@H]2CC[N][C]2N1	
InChI=1S/C6H8N2O/c9-5-3-4-1-2-7-6(4)8-5/h4H,1-3H2,(H,7,8,9)	InChI=1S/C6H8N2O/c9-5-3-4-1-2-7-6(4)8-5/h4H,1-3H2,(H,7,8,9)/t4-/m1/s1
