19
gdb 34020	3.13385	1.28906	1.12532	1.0955	81.77	-0.2418	0.0463	0.2881	1143.1422	0.160092	-385.847153	-385.839059	-385.838114	-385.879495	32.141	
C	 0.0185750041	-1.1815923439	 0.0305262496	-0.415623
C	 0.0142056322	 0.0212335776	-0.0027195315	 0.220423
C	-0.014022667	 1.458631606	-0.0292834846	 0.166372
C	 0.4767225907	 2.1403070691	-1.2954720277	-0.325299
C	 1.3257635285	 2.1971781946	-0.0551087815	-0.08936
C	 1.4566708098	 3.4973115862	 0.7391448019	-0.099964
O	 0.4221128717	 3.7127520448	 1.6826762182	-0.235437
C	-0.8605587119	 3.5657801667	 1.1066060081	-0.103902
C	-1.1438922497	 2.0972442311	 0.7796242405	-0.278088
H	 0.0280744974	-2.242777076	 0.0580067286	 0.187864
H	 0.7942246057	 1.5021115488	-2.1113610742	 0.124409
H	-0.0321708507	 3.0486955868	-1.604654602	 0.114858
H	 2.2064140422	 1.564924777	-0.0492173625	 0.105085
H	 2.3836508164	 3.4844139703	 1.318398188	 0.11492
H	 1.5080885744	 4.3544187539	 0.0460475056	 0.090513
H	-1.5798347132	 3.9309539796	 1.8450471793	 0.111086
H	-0.9555186511	 4.2024709584	 0.210357556	 0.086959
H	-2.0973134408	 2.0007705584	 0.2469696827	 0.105219
H	-1.2400541187	 1.5489136804	 1.7220910755	 0.119967
115.0445	144.005	172.2371	278.7522	344.9703	382.8467	390.7847	509.0181	522.322	552.4308	586.9473	603.3939	644.1475	692.4715	775.0992	872.3028	885.9489	919.4651	925.4493	979.5373	990.201	1044.4805	1071.3687	1077.6849	1105.1323	1135.4171	1167.3103	1231.9134	1250.4053	1267.3803	1290.5192	1325.1222	1364.9715	1386.1752	1407.1553	1420.0112	1477.6974	1486.0008	1496.3532	1509.0788	2233.5098	2953.8691	2961.7491	3037.4748	3080.4578	3087.4044	3090.0097	3128.1009	3172.2595	3221.8192	3504.2182
C#CC12CC1COCC2	C#C[C@]12C[C@H]1COCC2	
InChI=1S/C8H10O/c1-2-8-3-4-9-6-7(8)5-8/h1,7H,3-6H2	InChI=1S/C8H10O/c1-2-8-3-4-9-6-7(8)5-8/h1,7H,3-6H2/t7-,8-/m0/s1
