20
gdb 6477	3.01617	1.59168	1.30305	0.4385	70.82	-0.2475	0.072	0.3196	1029.0822	0.175272	-386.13109	-386.122102	-386.121157	-386.16408	34.3	
C	 0.1349981881	 1.2744924332	-0.4193613167	-0.410425
C	-0.1612707397	-0.2043891966	-0.1486489216	-0.223579
C	-1.626143723	-0.4967368823	 0.1929365312	 0.431884
O	-2.0478833193	 0.1888805415	 1.3585482779	-0.487545
C	-2.5972846924	-0.4244921021	-1.0344004629	-0.287079
C	-2.556682876	-1.9657795017	-1.1281869386	 0.121738
O	-1.6548374826	-2.3464443275	-2.1565044832	-0.431575
C	-1.9465009827	-2.0095533291	 0.3006841695	-0.300085
H	 1.1821513497	 1.4160819994	-0.7021033062	 0.120429
H	-0.4817708419	 1.6688544857	-1.2345338842	 0.121131
H	-0.0382249866	 1.8955949276	 0.4676036218	 0.107386
H	 0.1060252774	-0.8027116762	-1.0255487041	 0.116227
H	 0.4573942736	-0.5568544238	 0.6865241104	 0.095355
H	-1.8932985251	 1.1303465214	 1.2275429438	 0.274685
H	-3.5788148681	-0.0570412464	-0.7269836736	 0.101606
H	-2.2646317856	 0.1039549958	-1.9308720953	 0.103349
H	-3.522390973	-2.4712070617	-1.2539050229	 0.06652
H	-1.4644018035	-3.284113869	-2.0485727298	 0.281488
H	-1.1046836146	-2.690859603	 0.4570401824	 0.08934
H	-2.7047910846	-2.1818041551	 1.0683297517	 0.109149
91.972	126.8115	196.9373	239.2962	263.7133	298.7918	321.5203	345.2265	376.0774	415.1501	450.6105	495.887	661.87	784.7264	813.9829	823.5889	849.6173	924.0426	951.9048	967.8846	987.6875	1011.934	1049.4001	1071.1538	1110.5612	1176.9608	1187.8781	1198.1634	1244.2894	1268.7208	1277.3901	1313.5957	1331.964	1340.4552	1390.2858	1408.8798	1415.3805	1449.2144	1474.3178	1482.874	1499.9575	1511.037	3013.9912	3026.3124	3028.4122	3052.5735	3067.6308	3076.4985	3097.3523	3106.2446	3117.9358	3129.2322	3807.9217	3809.8996
CCC1(O)CC(O)C1	CC[C@@]1(O)C[C@@H](O)C1	
InChI=1S/C6H12O2/c1-2-6(8)3-5(7)4-6/h5,7-8H,2-4H2,1H3	InChI=1S/C6H12O2/c1-2-6(8)3-5(7)4-6/h5,7-8H,2-4H2,1H3/t5-,6-
