21
gdb 75361	2.182	1.76552	1.34371	1.8756	83.74	-0.233	0.0265	0.2595	1081.7041	0.182559	-387.097948	-387.089276	-387.088332	-387.130773	33.59	
C	 0.2553376802	 1.4530565968	 0.0133014582	-0.503108
C	 0.0241458933	-0.0273052426	-0.0003453666	 0.281245
C	-0.1570073686	-0.7971639817	-1.0773564057	-0.167498
C	-0.3565369709	-2.2584808126	-0.7538931229	-0.283296
C	-0.1043729642	-2.3060890833	 0.7583170147	 0.091777
O	 1.2828761489	-2.552146616	 1.0882428582	-0.296325
C	 1.4076848326	-1.282265561	 1.7560199391	-0.108825
C	-0.0034788736	-0.8428459826	 1.2801218487	 0.186303
C	-0.9711505384	-0.3433735176	 2.3443575776	-0.487549
H	 1.2010297117	 1.7056342786	 0.5103191627	 0.124586
H	 0.2895450885	 1.8603923145	-1.0006044407	 0.125128
H	-0.5347176488	 1.9806390167	 0.5617206604	 0.126755
H	-0.1629701356	-0.4225720026	-2.0965083567	 0.084936
H	-1.3632943078	-2.6083113634	-1.0206387325	 0.099185
H	 0.3558090361	-2.913663608	-1.2697547851	 0.11844
H	-0.7666071681	-2.990455926	 1.3017662285	 0.06411
H	 1.4994148251	-1.4005062392	 2.8452531176	 0.088411
H	 2.2613062604	-0.7021381106	 1.3846884594	 0.097685
H	-0.6762907389	 0.6430515218	 2.7194472168	 0.119221
H	-1.9872389044	-0.255415306	 1.944614829	 0.120097
H	-1.0011929175	-1.025994975	 3.1998114695	 0.11872
107.5333	172.6701	194.9567	225.0325	247.2597	254.2257	273.0779	372.2684	428.3489	541.1104	589.1076	631.9765	719.5555	799.6829	820.8222	864.9232	893.2374	922.4514	953.121	984.3541	1012.6533	1019.3328	1041.5884	1053.9492	1067.0827	1123.699	1161.8396	1169.9501	1179.2326	1199.7676	1253.2497	1271.5224	1312.2338	1327.8192	1358.6985	1371.6404	1408.7626	1414.7928	1468.8338	1478.7674	1487.1241	1494.6516	1498.7336	1519.4968	1713.7268	2992.1538	3009.526	3017.5172	3026.4993	3035.8611	3047.5018	3056.5139	3063.7191	3092.462	3099.4556	3111.1276	3177.0294
CC1=CCC2OCC12C	CC1=CC[C@H]2OC[C@@]12C	
InChI=1S/C8H12O/c1-6-3-4-7-8(6,2)5-9-7/h3,7H,4-5H2,1-2H3	InChI=1S/C8H12O/c1-6-3-4-7-8(6,2)5-9-7/h3,7H,4-5H2,1-2H3/t7-,8+/m1/s1
