14
gdb 129832	3.19037	1.4276	0.9896	7.331	69.81	-0.2351	-0.0571	0.178	1101.6081	0.102353	-470.019276	-470.01164	-470.010696	-470.051202	29.659	
N	 0.0878766253	 1.3753287684	-0.0738816285	-0.594192
C	 0.0041848667	 0.0046812564	-0.0247861892	 0.326476
C	-1.1388036013	-0.7236603993	-0.0555932074	-0.359203
C	-1.1043339371	-2.1650502104	 0.0002895383	 0.450534
O	-2.0475436026	-2.9126236623	-0.0132854431	-0.352043
O	 0.1641475033	-2.7448859989	 0.1133959713	-0.269703
N	 1.3405489361	-2.0208491785	 0.0706248238	-0.150128
C	 1.2598159848	-0.7347592217	 0.016598282	 0.343479
N	 2.4505323357	 0.000784325	 0.0644890006	-0.57614
H	 0.8854432428	 1.7717606312	 0.4037290179	 0.270485
H	-0.7722265865	 1.8809086633	 0.0788791053	 0.265581
H	-2.1205855337	-0.2669425467	-0.0889634552	 0.11815
H	 3.251334358	-0.6202179054	 0.1040827858	 0.265975
H	 2.5439732087	 0.6438529588	-0.7150572716	 0.260727
109.2648	181.703	290.2709	316.8233	360.8296	384.4259	421.491	448.7638	509.2283	539.8472	580.7713	623.5133	720.3758	723.3929	743.798	790.1936	835.7652	872.6438	889.7834	1002.004	1109.6397	1169.9564	1226.9095	1287.5879	1326.6998	1478.2381	1612.17	1627.2789	1651.8751	1708.6792	1833.8532	3206.9321	3509.4319	3559.2965	3605.9011	3668.3166
NC1=CC(=O)ON=C1N	Nc1cc(=O)onc1N	
InChI=1S/C4H5N3O2/c5-2-1-3(8)9-7-4(2)6/h1H,5H2,(H2,6,7)	InChI=1S/C4H5N3O2/c5-2-1-3(8)9-7-4(2)6/h1H,5H2,(H2,6,7)
