22
gdb 53668	4.37398	0.57238	0.53099	1.3034	92.87	-0.2239	0.0641	0.2881	2146.2325	0.191783	-367.162983	-367.152	-367.151056	-367.201774	38.092	
C	 0.2165925722	 1.5353887944	 0.0085576264	-0.496607
C	 0.1193901722	 0.0849169464	 0.0950362703	 0.086077
C	 0.051531925	-1.1150670873	 0.1709753135	 0.038986
C	-0.0653390685	-2.5666720267	 0.2445585492	-0.348228
C	-1.4402389884	-3.0754300419	-0.2275749229	-0.131847
N	-1.4655741876	-4.5297955254	-0.1568801958	-0.076174
C	-2.0028442862	-5.1454565359	 1.0546216355	-0.256608
C	-2.7395980763	-5.2472438011	-0.2378923094	 0.026168
C	-4.0713826345	-4.5579669765	-0.4443406242	-0.411999
H	 0.9947972686	 1.8425456211	-0.6991613767	 0.145501
H	-0.7273224687	 1.9792197263	-0.3274654885	 0.144509
H	 0.4611024559	 1.9785465989	 0.9805006386	 0.144926
H	 0.709829358	-3.0482103322	-0.3632587583	 0.134239
H	 0.1013937294	-2.9063152475	 1.2752246845	 0.124889
H	-2.2230557247	-2.5873086217	 0.3737378658	 0.091976
H	-1.5959192074	-2.7749698977	-1.2694995248	 0.110874
H	-1.4454096902	-5.9879469877	 1.4560788896	 0.111998
H	-2.4312778931	-4.4852032994	 1.8095572352	 0.103877
H	-2.6467733672	-6.1818137579	-0.7907631483	 0.089219
H	-4.1885757003	-3.6738048737	 0.1865561141	 0.122178
H	-4.2006373966	-4.250760315	-1.4882034082	 0.123553
H	-4.8862263317	-5.2481659795	-0.2013126558	 0.122494
12.1301	54.0157	66.8185	80.8099	163.2406	201.9277	216.2306	264.3779	299.0903	347.6486	389.4946	429.2646	476.1194	531.982	740.2387	765.8631	789.09	844.927	904.1141	948.6504	1023.9301	1039.4615	1052.1881	1054.1293	1057.8052	1092.2618	1114.0975	1148.0526	1161.7015	1167.594	1190.1331	1235.7005	1302.8073	1313.4197	1338.0282	1387.1854	1406.5158	1415.7221	1422.7608	1474.9464	1479.4401	1479.9187	1490.9084	1495.8828	1502.1994	1515.9329	2373.8357	2978.019	3021.5523	3024.4962	3035.6034	3053.4306	3072.6382	3080.0283	3083.8228	3083.9625	3093.1814	3098.7452	3125.8349	3168.9633
CC#CCCN1CC1C	CC#CCCN1C[C@H]1C	
InChI=1S/C8H13N/c1-3-4-5-6-9-7-8(9)2/h8H,5-7H2,1-2H3	InChI=1S/C8H13N/c1-3-4-5-6-9-7-8(9)2/h8H,5-7H2,1-2H3/t8-,9?/m1/s1
