18
gdb 18959	6.12773	1.32453	1.30711	2.0316	71.03	-0.2294	0.0756	0.305	1000.7539	0.153576	-347.70901	-347.70197	-347.701026	-347.740393	27.387	
C	 0.0276327018	 1.5884119066	-0.1010170213	-0.37628
C	 0.0271279208	 0.083708877	 0.1908567881	-0.200799
C	-1.3653264722	-0.5327910278	 0.1271601122	-0.013898
C	-2.0102304878	-0.8071488598	-1.2552046873	-0.096619
C	-1.2361147795	-2.1542593597	-1.43602135	 0.090293
O	-2.427239014	-2.9418013006	-1.7311410676	-0.330584
C	-2.8453660959	-2.0006736426	-0.6980889044	 0.086892
C	-1.5086141636	-2.0730800804	 0.1019236767	-0.112466
H	 1.0364112245	 2.0071349406	-0.0340493607	 0.113536
H	-0.3544544109	 1.7981028798	-1.1058741721	 0.117541
H	-0.6051287801	 2.1287031579	 0.6119067096	 0.115291
H	 0.6908033378	-0.4285509389	-0.517747343	 0.093575
H	 0.4511158814	-0.0945777751	 1.187876282	 0.097021
H	-2.0385271587	-0.0353876796	 0.837319698	 0.065459
H	-2.31140459	-0.1196880577	-2.0459719695	 0.080805
H	-0.320747063	-2.3778874085	-1.9819869471	 0.095855
H	-3.8755398255	-2.0284678615	-0.3439650948	 0.094362
H	-1.2376704451	-2.8171848497	 0.8515916412	 0.080014
84.4912	165.2185	190.0002	268.4577	377.2158	503.8935	558.0332	730.2809	750.9838	796.7775	799.0738	834.333	847.5211	887.8548	902.7809	913.0403	963.2482	971.8178	1029.0627	1060.1842	1078.1425	1122.0421	1125.1215	1136.0814	1155.4417	1173.6332	1178.5805	1183.6363	1239.9631	1280.4037	1292.1529	1337.1082	1350.6969	1409.997	1418.6374	1484.5708	1499.9623	1506.7497	3015.5398	3020.6839	3031.4767	3049.8514	3097.9292	3104.1468	3110.3908	3114.9016	3123.2053	3136.8404
CCC1C2C3OC2C13	CC[C@H]1[C@H]2[C@@H]3O[C@H]2[C@H]13	
InChI=1S/C7H10O/c1-2-3-4-6-5(3)7(4)8-6/h3-7H,2H2,1H3	InChI=1S/C7H10O/c1-2-3-4-6-5(3)7(4)8-6/h3-7H,2H2,1H3/t3-,4-,5+,6-,7+
