16
gdb 28352	3.19401	1.41101	0.99061	2.908	78.21	-0.2387	-0.0684	0.1703	1167.116	0.12333	-437.952657	-437.944272	-437.943328	-437.985694	30.686	
C	 0.0795334198	 1.4899538101	 0.0251779685	-0.472654
C	-0.0597716553	 0.0064078584	-0.0060551264	 0.373368
C	-1.1965636152	-0.7014033727	-0.1771779359	-0.151416
N	-1.2164178152	-2.0779627737	-0.1902130103	-0.27547
C	-0.1025902767	-2.7177749684	-0.0323152943	 0.182326
C	-0.0633907685	-4.2147409867	-0.0376011211	-0.46218
C	 1.1901642795	-2.0288176873	 0.1614880037	 0.368014
O	 2.2593626241	-2.555047479	 0.3137427457	-0.324957
O	 1.1193714186	-0.642966023	 0.1613008316	-0.23759
H	 0.7584507164	 1.8299089056	-0.7643464449	 0.152921
H	-0.8916824753	 1.9680582223	-0.1132039962	 0.142373
H	 0.5035313846	 1.8170696265	 0.9807221003	 0.152921
H	-2.1452133625	-0.1972793136	-0.3119238061	 0.118164
H	-1.0690716811	-4.6083728062	-0.1873836111	 0.13875
H	 0.6010262248	-4.5798895912	-0.8282594407	 0.147715
H	 0.347906722	-4.5926359911	 0.9047123971	 0.147715
96.8758	143.7689	164.1175	168.2035	276.9109	303.8034	341.0154	434.1814	482.665	536.7525	550.2533	619.2609	704.2945	753.5582	789.5473	869.3638	952.3428	1024.231	1033.739	1049.5296	1060.9912	1063.3262	1192.3748	1243.2555	1308.3512	1386.1815	1407.0975	1417.318	1466.1276	1467.7453	1468.1773	1482.7342	1597.0315	1677.9779	1830.2329	3039.0187	3040.9384	3093.4232	3095.0279	3141.704	3153.8414	3208.4026
CC1=CN=C(C)C(=O)O1	Cc1cnc(C)c(=O)o1	
InChI=1S/C6H7NO2/c1-4-3-7-5(2)6(8)9-4/h3H,1-2H3	InChI=1S/C6H7NO2/c1-4-3-7-5(2)6(8)9-4/h3H,1-2H3
