17
gdb 74126	2.29587	1.62647	0.98915	6.751	81.97	-0.2095	-0.0278	0.1818	1156.6248	0.138672	-418.036708	-418.028541	-418.027596	-418.069344	31.551	
N	 0.1385332016	 1.3210087796	-0.570853577	-0.558228
C	-0.0570550957	 0.013142691	-0.162051091	 0.343191
C	-1.2228437754	-0.6407858687	-0.3389193791	-0.256432
C	-1.5519596358	-2.0368511966	-0.0108451542	 0.339357
O	-2.7351179113	-2.3691377291	 0.0394988967	-0.386824
C	-0.5158236874	-3.0719410699	 0.1487247604	-0.20369
C	 0.8216121566	-2.9859608498	-0.0155408918	-0.007214
N	 1.5780209755	-1.848494921	-0.1312388271	-0.278714
C	 1.1498736862	-0.6169553221	 0.5068771921	-0.270339
H	 0.7808587342	 1.8775977265	-0.0267094418	 0.250941
H	-0.6940876205	 1.8294458732	-0.832196466	 0.256831
H	-2.0764413877	-0.0913528779	-0.7285995108	 0.08093
H	-0.9352635367	-4.0638149035	 0.2735806428	 0.097357
H	 1.40291506	-3.9029308979	-0.0780266912	 0.110791
H	 2.5738221678	-1.9918127331	-0.1452723712	 0.248643
H	 1.9904678656	 0.0809359448	 0.4688229556	 0.106088
H	 0.9080821732	-0.8001583556	 1.5665449135	 0.127311
84.2475	161.7251	187.1761	303.1707	352.6428	374.0655	388.3947	403.5739	476.4174	508.4685	540.8501	598.1034	622.6407	721.8452	794.3577	823.1456	869.2367	889.729	925.163	967.3707	978.2002	1041.005	1126.3207	1153.1417	1253.3715	1297.4534	1305.459	1327.9724	1380.7257	1415.4202	1437.9178	1470.8183	1530.9296	1647.054	1672.5028	1688.0441	1712.3844	2970.0115	3088.4014	3155.1621	3156.6841	3198.6435	3560.3488	3644.7485	3665.0395
NC1=CC(=O)C=CNC1	NC1=CC(=O)C=CNC1	
InChI=1S/C6H8N2O/c7-5-3-6(9)1-2-8-4-5/h1-3,8H,4,7H2	InChI=1S/C6H8N2O/c7-5-3-6(9)1-2-8-4-5/h1-3,8H,4,7H2
