23
gdb 100027	2.9022	1.04023	0.96317	2.2904	81.75	-0.255	0.0703	0.3253	1350.9517	0.203072	-425.401859	-425.391116	-425.390172	-425.436927	40.607	
C	-0.061989489	 1.5774216961	 0.2720513868	-0.432313
C	-0.0070606925	 0.0471424444	 0.1148259366	 0.253122
C	 0.6371411422	-0.5839430589	 1.3662690286	-0.409502
C	-1.444601478	-0.4869366258	-0.0455049557	-0.086481
O	-2.2168887383	-0.1034477646	 1.0833649015	-0.427924
C	 0.7653967641	-0.4279240105	-1.1234447573	-0.02929
C	 1.0516254291	 0.4212635144	-2.3493073741	-0.353506
C	 2.1786161468	-0.0457549767	-1.4608683227	 0.080062
O	 2.8409536996	 0.8641611315	-0.6265305414	-0.410832
H	 0.9411467076	 1.9970620528	 0.3552393694	 0.1269
H	-0.566281971	 2.0471264131	-0.5796186296	 0.098426
H	-0.6328879668	 1.8307463721	 1.1680099959	 0.125612
H	 0.0331313467	-0.3797445064	 2.2538225685	 0.122976
H	 0.7189320094	-1.6718286895	 1.2569835703	 0.094702
H	 1.6424723847	-0.183565897	 1.5180729435	 0.129576
H	-1.8773212994	-0.0843862217	-0.9756695852	 0.082672
H	-1.4154791529	-1.5849087021	-0.1412845118	 0.076037
H	-3.1105160142	-0.4355484429	 0.9628619521	 0.286066
H	 0.5569095652	-1.4735981137	-1.3454135043	 0.079847
H	 0.937649332	-0.0131072774	-3.3370418936	 0.105396
H	 0.8056624307	 1.4753577259	-2.2878068232	 0.117303
H	 2.8207785998	-0.8408408353	-1.8408691429	 0.083375
H	 3.3907515641	 1.4286135821	-1.1799056913	 0.287777
66.4235	124.2892	155.3745	214.8796	229.1401	242.4519	251.4198	270.4315	294.0116	328.1325	339.7328	378.6566	402.2306	436.0494	519.3958	629.1888	712.622	794.0651	837.3143	859.8893	933.8822	954.9772	964.1434	980.5488	1012.2447	1046.2192	1069.7203	1082.3066	1101.8939	1140.3311	1180.4854	1186.819	1216.1325	1228.0654	1253.0079	1287.6942	1294.1827	1321.8478	1384.2426	1390.9254	1411.5856	1422.8214	1456.6808	1486.399	1492.19	1494.2542	1504.2759	1515.918	1523.3323	2955.8736	2989.2586	3032.4138	3041.8555	3088.5079	3102.5609	3111.5552	3113.189	3131.5545	3132.3182	3150.4245	3221.2847	3805.3359	3839.5471
CC(C)(CO)C1CC1O	CC(C)(CO)[C@H]1C[C@H]1O	
InChI=1S/C7H14O2/c1-7(2,4-8)5-3-6(5)9/h5-6,8-9H,3-4H2,1-2H3	InChI=1S/C7H14O2/c1-7(2,4-8)5-3-6(5)9/h5-6,8-9H,3-4H2,1-2H3/t5-,6+/m0/s1
