22
gdb 82305	2.2089	1.68746	1.32271	1.3021	80.89	-0.2346	0.0785	0.3131	1091.7857	0.194625	-404.341665	-404.332747	-404.331803	-404.374317	36.041	
C	-0.8758888316	 1.0349589026	-0.042247354	-0.419031
C	 0.0441369284	-0.1837748542	-0.1114630848	 0.023387
C	 1.0835571532	-0.136289533	-1.216244379	-0.050951
N	 2.2660221426	 0.6981551892	-0.8954146841	-0.341587
C	 2.3323826762	-0.7758754824	-0.7458310869	-0.035748
C	 2.1315633208	-1.2488934877	 0.6788764026	-0.266909
C	 0.8463591821	-0.5197103036	 1.1899631866	 0.369522
C	 1.2044718657	 0.696066428	 2.0480745906	-0.448077
O	 0.0070317606	-1.4019748424	 1.9433261873	-0.483186
H	-0.3047997289	 1.9616740822	 0.0630702654	 0.12579
H	-1.4740715101	 1.1144878572	-0.9564290069	 0.103962
H	-1.569945287	 0.9551733447	 0.8000140903	 0.121937
H	-0.5732053896	-1.0726958996	-0.295517741	 0.086568
H	 0.7596491063	-0.1977195495	-2.2510283142	 0.079515
H	 2.7287706796	 0.9630101931	-1.7613326648	 0.227932
H	 2.9780112757	-1.3353021671	-1.4154774577	 0.082163
H	 1.9373721978	-2.3268648469	 0.6794594084	 0.103686
H	 2.9985633739	-1.0588688781	 1.3209803214	 0.092045
H	 1.8185126503	 1.3998836705	 1.4836377859	 0.151026
H	 0.3045446773	 1.2036746816	 2.4050806572	 0.114422
H	 1.7810071805	 0.3708972765	 2.9242828733	 0.092654
H	 0.3726025962	-1.4683616811	 2.8316737843	 0.27088
112.9447	205.0957	247.0156	264.1462	271.5638	291.1143	308.0752	367.9156	383.9723	426.4277	450.685	532.0467	624.3705	640.1907	737.6132	796.8664	860.85	870.5711	907.6355	922.559	944.9996	961.7471	975.4902	1021.8181	1075.178	1089.6515	1101.4042	1123.1727	1137.6673	1145.7637	1182.9545	1191.2619	1232.0631	1263.9975	1307.2616	1337.6894	1345.5913	1373.6116	1389.4965	1399.1574	1404.7408	1437.3091	1480.3447	1489.4378	1496.8204	1506.7784	1514.3747	3020.0241	3026.0088	3034.9648	3039.2033	3084.5712	3094.5998	3099.5985	3116.3416	3144.6694	3148.8594	3161.3101	3500.5409	3808.33
CC1C2NC2CC1(C)O	C[C@H]1[C@H]2N[C@H]2C[C@]1(C)O	
InChI=1S/C7H13NO/c1-4-6-5(8-6)3-7(4,2)9/h4-6,8-9H,3H2,1-2H3	InChI=1S/C7H13NO/c1-4-6-5(8-6)3-7(4,2)9/h4-6,8-9H,3H2,1-2H3/t4-,5-,6+,7-/m0/s1
