18
gdb 104956	2.03874	1.57744	1.0491	4.1489	77.86	-0.2891	-0.0834	0.2057	1179.5677	0.145864	-401.965492	-401.956068	-401.955123	-402.000183	34.007	
C	-1.6315340004	-0.7259588603	-0.6886708363	-0.385849
C	-0.2345104434	-0.3266890808	-0.1947728538	-0.293905
C	 0.8803727165	-0.6522043897	-1.1770917852	 0.227349
C	 2.2412096805	-1.1265459402	-0.6379787323	-0.287725
C	 1.3454017872	-2.0966585746	-1.3216118333	-0.279579
C	 1.0180853357	 0.1617805007	-2.4139843292	 0.255303
O	 1.7469151793	-0.1041481509	-3.3435775819	-0.298473
C	 0.2259818797	 1.4131723925	-2.4732538633	 0.232223
N	-0.3794253912	 2.3961641631	-2.5415692748	-0.323847
H	-1.9088691845	-0.1829196727	-1.5970070882	 0.135045
H	-1.6793642838	-1.797181023	-0.9090238807	 0.120266
H	-2.3865550188	-0.5026005269	 0.0705146159	 0.123854
H	-0.2158573633	 0.7432544232	 0.0435655294	 0.125336
H	-0.0195272693	-0.8486663774	 0.7440984666	 0.100998
H	 3.118264	-0.7841473784	-1.1744407002	 0.144844
H	 2.3361922775	-1.1609848189	 0.4414479192	 0.129841
H	 0.8124605734	-2.826563644	-0.7226430672	 0.127128
H	 1.6180389948	-2.4163774117	-2.3203205544	 0.147192
41.9955	103.402	148.2727	186.548	216.1402	253.9355	281.2209	314.8971	342.5474	445.4732	470.0318	565.345	673.8587	755.604	775.3687	792.1845	848.3918	859.2154	938.1412	965.6856	1014.2683	1052.3367	1089.9259	1090.9052	1100.2671	1117.2608	1204.3881	1273.0549	1301.5527	1359.8831	1374.9244	1415.05	1453.984	1478.7441	1488.449	1499.9342	1505.3203	1760.0087	2335.5617	3036.007	3041.2471	3069.8767	3111.8957	3116.1819	3141.0993	3142.7913	3230.1561	3243.7297
CCC1(CC1)C(=O)C#N	CCC1(CC1)C(=O)C#N	
InChI=1S/C7H9NO/c1-2-7(3-4-7)6(9)5-8/h2-4H2,1H3	InChI=1S/C7H9NO/c1-2-7(3-4-7)6(9)5-8/h2-4H2,1H3
