15
gdb 45341	2.56232	1.81629	1.21937	5.6855	67.35	-0.2572	0.0003	0.2576	983.0209	0.114648	-453.979683	-453.972427	-453.971483	-454.0119	27.229	
N	-0.0590714401	 1.2425030863	 0.2832263403	-0.529346
C	-0.0056246149	 0.0195810288	-0.0140777274	 0.417997
O	 1.1468627671	-0.6663753492	-0.3130629689	-0.240598
C	 0.8577968139	-1.9227901411	-0.9397151312	-0.103773
C	-0.5936692973	-2.2593665673	-0.5905168934	 0.00109
N	-0.8178236466	-2.826126632	 0.7414991494	-0.3252
C	-1.3871160939	-1.7026150702	 1.293410726	 0.432357
O	-1.8492236832	-1.4579036428	 2.3677320848	-0.335025
C	-1.1783598573	-0.9239743008	-0.054338357	-0.280722
H	 0.8706434696	 1.6640746511	 0.2487345904	 0.227932
H	 0.9832774205	-1.8210288263	-2.024919998	 0.118926
H	 1.5734398617	-2.6612012719	-0.5682282613	 0.123642
H	-1.1296653348	-2.7698486273	-1.3933085296	 0.103313
H	-0.6227683974	-3.7363766483	 1.1326779154	 0.256935
H	-2.0756342174	-0.497378689	-0.4953363798	 0.132473
74.8192	132.9186	164.8006	352.1814	366.5779	437.2248	465.6357	571.39	630.0074	716.5072	723.8778	814.8244	848.8081	894.1868	898.0227	911.5476	964.8746	996.8944	1038.5811	1072.6316	1113.2771	1149.5281	1166.0198	1209.1656	1244.0181	1253.3077	1303.0103	1354.3812	1378.4211	1409.2443	1508.8001	1776.6725	1918.4363	3029.2199	3090.5332	3097.9351	3162.4849	3477.2247	3606.8133
N=C1OCC2NC(=O)C12	[NH][C]1OC[C@H]2NC(=O)[C@@H]12	
InChI=1S/C5H6N2O2/c6-4-3-2(1-9-4)7-5(3)8/h2-3,6H,1H2,(H,7,8)	InChI=1S/C5H6N2O2/c6-4-3-2(1-9-4)7-5(3)8/h2-3,6H,1H2,(H,7,8)/t2-,3-/m1/s1
