18
gdb 47567	2.50277	1.60227	1.10512	1.3017	71.29	-0.2192	-0.0253	0.1939	1086.9418	0.149466	-439.073198	-439.065422	-439.064478	-439.105694	30.031	
O	-0.0296019254	-0.1007561595	-0.0046721346	-0.298928
C	 0.0196148284	 1.1071751131	 0.0252286955	 0.368276
C	-1.2589134972	 1.9633962143	 0.0692815575	-0.252871
N	-1.534494121	 2.7909500121	-1.1064717607	-0.278195
C	-0.5362458562	 3.8022864687	-1.4459033693	-0.208476
C	 0.7261594921	 3.2732945987	-2.124032702	 0.045128
O	 1.9997084949	 3.7062691196	-1.6253654393	-0.250968
C	 1.6284499567	 2.3394417395	-1.4370935858	 0.049699
C	 1.3481524972	 1.8624463994	-0.0164854659	-0.334355
H	-2.0983756795	 1.2788636446	 0.2172338256	 0.125783
H	-1.203077678	 2.6290598512	 0.9417702372	 0.116469
H	-1.7410204351	 2.204262615	-1.908154998	 0.226912
H	-1.0096597642	 4.5408421953	-2.1028629926	 0.113014
H	-0.2501453108	 4.3293492434	-0.5298020526	 0.1233
H	 0.6803947102	 3.2167839405	-3.2132025292	 0.095542
H	 2.1891390296	 1.635108822	-2.0508057703	 0.1092
H	 1.3099424944	 2.7357352726	 0.6410778122	 0.124471
H	 2.1415962838	 1.1947370593	 0.3263200223	 0.125999
78.5701	123.898	253.5968	293.2962	310.5509	363.9364	435.1381	450.989	510.6549	595.4532	648.1383	714.9987	805.027	816.8872	866.5768	887.9215	934.9396	985.2043	1000.2646	1010.9487	1066.0144	1125.0707	1137.3906	1157.2495	1172.9243	1216.3628	1256.3366	1282.0186	1301.3412	1332.8069	1353.6553	1365.6286	1389.2674	1460.1205	1470.1481	1472.972	1491.2343	1500.2297	1808.6322	3014.5691	3037.074	3064.2591	3080.9407	3096.9438	3101.5016	3111.2959	3129.0941	3525.7796
O=C1CNCC2OC2C1	O=C1CNC[C@H]2O[C@H]2C1	
InChI=1S/C6H9NO2/c8-4-1-5-6(9-5)3-7-2-4/h5-7H,1-3H2	InChI=1S/C6H9NO2/c8-4-1-5-6(9-5)3-7-2-4/h5-7H,1-3H2/t5-,6+/m0/s1
