15
gdb 7924	3.5404	1.79011	1.25402	1.9064	62.2	-0.2574	-0.0187	0.2387	928.6336	0.119934	-399.893404	-399.886064	-399.88512	-399.925547	26.874	
C	-0.1494826746	 1.5621582508	 0.02256805	-0.399438
C	 0.0652265056	 0.0474078507	-0.0201318296	-0.111134
C	 0.89047972	-0.4877865423	-1.2069268508	-0.360369
C	 1.9266283548	-1.4328011727	-0.6018392472	 0.414465
O	 2.7134459454	-2.1415228688	-1.1739340505	-0.34031
N	 1.8138621626	-1.3131414301	 0.7803733188	-0.35298
C	 0.8149177313	-0.4531877792	 1.2212458625	 0.421097
O	 0.5937762086	-0.1762604778	 2.3726621792	-0.350642
H	 0.8053034001	 2.0955111229	-0.0349414184	 0.124738
H	-0.7723370598	 1.8897835448	-0.8144204824	 0.122962
H	-0.6394424958	 1.8453441014	 0.9570373242	 0.147906
H	-0.9135914901	-0.4469685089	 0.0082128601	 0.120891
H	 0.3044654335	-1.0200271362	-1.9590935505	 0.144839
H	 1.4279681429	 0.3121270221	-1.7276725413	 0.145169
H	 2.4251594955	-1.8054378866	 1.4168980159	 0.272805
54.9665	136.3155	224.3165	248.5481	349.1566	400.2743	542.8457	556.3773	601.7379	632.507	677.3538	728.8264	789.1863	882.	920.4615	931.9953	1044.6245	1098.5352	1133.2772	1172.8412	1211.1816	1264.1625	1309.0174	1325.2332	1350.1194	1359.3531	1409.7084	1464.9411	1496.1329	1500.1222	1833.8106	1876.9771	3036.6868	3042.5024	3061.9672	3110.5071	3116.7018	3132.0707	3617.4396
CC1CC(=O)NC1=O	C[C@H]1CC(=O)NC1=O	
InChI=1S/C5H7NO2/c1-3-2-4(7)6-5(3)8/h3H,2H2,1H3,(H,6,7,8)	InChI=1S/C5H7NO2/c1-3-2-4(7)6-5(3)8/h3H,2H2,1H3,(H,6,7,8)/t3-/m0/s1
