21
gdb 36228	3.472	0.9704	0.84515	0.7361	90.79	-0.2353	0.0239	0.2592	1431.6043	0.183188	-349.947826	-349.9389	-349.937956	-349.981716	34.462	
C	-0.1359571395	-1.1933781005	 0.4450641794	-0.473556
C	-0.0870938766	-0.0243706892	 0.1687005995	 0.322874
C	-0.0089611626	 1.3976639994	-0.1647168704	-0.441418
C	 1.407964024	 1.9473754049	-0.1470678635	 0.332508
C	 1.9623427768	 2.4618581222	-1.2463298655	-0.152129
C	 3.3397455086	 3.0712213979	-1.295615019	-0.238692
C	 3.9051381223	 3.3455899565	 0.1051434968	-0.195857
C	 3.6384196155	 2.1586692607	 1.0370920547	-0.199784
C	 2.1321710436	 1.9007509785	 1.1786210203	-0.28574
H	-0.1861452047	-2.2264921066	 0.6844346376	 0.194824
H	-0.4568899834	 1.5664290629	-1.1508721035	 0.130205
H	-0.6272132967	 1.9578746263	 0.553097128	 0.130569
H	 1.400962031	 2.4500965709	-2.1791747374	 0.074898
H	 4.0133325342	 2.399155459	-1.8489729352	 0.107281
H	 3.3107532988	 3.9982316647	-1.88249534	 0.100014
H	 4.9773883368	 3.5601827796	 0.0448846478	 0.090522
H	 3.4261156077	 4.2425345637	 0.5191656524	 0.096139
H	 4.1201226137	 1.2622831053	 0.625470075	 0.10031
H	 4.0838717255	 2.330687057	 2.0227900434	 0.09069
H	 1.6837735043	 2.6427255683	 1.8577807567	 0.100416
H	 1.9554921906	 0.9270908684	 1.6510902328	 0.115926
57.1976	88.343	156.7141	250.1171	302.9554	309.7471	345.2477	382.389	440.9535	501.9737	545.5213	612.0306	634.4581	654.6728	780.388	820.1813	845.1196	864.0388	903.994	940.7954	950.5533	970.2893	987.0435	1060.233	1092.2858	1100.743	1149.3716	1161.6884	1192.7329	1222.4613	1268.2387	1294.1322	1319.6443	1345.5766	1368.8482	1373.968	1382.7119	1403.1697	1458.8691	1473.6299	1480.2178	1490.5493	1500.9839	1740.0189	2234.6124	2987.5876	2993.2896	2995.0164	3018.3089	3024.4226	3038.8111	3052.6418	3055.1788	3069.2312	3073.4781	3136.49	3506.4398
C#CCC1=CCCCC1	C#CCC1=CCCCC1	
InChI=1S/C9H12/c1-2-6-9-7-4-3-5-8-9/h1,7H,3-6,8H2	InChI=1S/C9H12/c1-2-6-9-7-4-3-5-8-9/h1,7H,3-6,8H2
