13
gdb 33821	2.36309	1.54856	1.14871	4.6188	69.79	-0.2873	-0.0481	0.2392	1040.4548	0.089165	-415.58036	-415.572798	-415.571854	-415.61272	27.617	
N	 0.0250672249	-1.1842213538	-0.0436129048	-0.330239
C	 0.0173750297	-0.0272449307	-0.0262735379	 0.229527
C	-0.0116106616	 1.3937344409	 0.0081248036	 0.047128
C	 0.2536033395	 2.2751635244	-1.199326428	-0.360952
C	 1.1316821881	 2.4376711321	 0.0014448358	 0.309621
O	 0.5001263082	 3.2265952119	 0.9973833482	-0.301827
C	-0.5697694947	 2.2533070073	 1.1469626422	-0.129018
C	 2.5518179777	 2.2893555211	 0.0188452886	 0.252765
N	 3.701723719	 2.1682247913	 0.0227096278	-0.327109
H	 0.6981041475	 1.7553999828	-2.0407583605	 0.170909
H	-0.4380113606	 3.0767803215	-1.4400686485	 0.150426
H	-1.5590572535	 2.6933693366	 0.9936763967	 0.137078
H	-0.5074243143	 1.7638069345	 2.1220277068	 0.151691
89.2404	152.5925	180.9213	222.5655	339.575	419.7049	441.4687	518.487	556.8474	565.998	635.2543	669.9157	783.1479	826.0959	930.3738	973.3511	989.0955	1042.1366	1089.0351	1117.1106	1153.3088	1200.9276	1271.5056	1333.6476	1390.6022	1472.5347	1515.2467	2352.7076	2357.1386	3059.1629	3122.1763	3131.439	3235.6599
N#CC12CC1(OC2)C#N	N#C[C@]12C[C@]1(OC2)C#N	
InChI=1S/C6H4N2O/c7-2-5-1-6(5,3-8)9-4-5/h1,4H2	InChI=1S/C6H4N2O/c7-2-5-1-6(5,3-8)9-4-5/h1,4H2/t5-,6-/m0/s1
