19
gdb 68339	2.87856	1.50245	1.17024	0.7507	90.82	-0.2132	-0.0224	0.1908	1102.0713	0.158954	-348.703793	-348.695647	-348.694703	-348.735998	32.842	
C	-0.0632379047	 1.5390202674	 0.0298758555	-0.509127
C	 0.0094175864	 0.0312822655	 0.0320417016	 0.236305
C	 0.9507914413	-0.7889921042	-0.9213815222	-0.24336
C	 0.6290143231	-1.9282694481	 0.1053674431	-0.071191
C	 0.6668597717	-0.7996587491	 1.1919134047	-0.243359
C	-0.8784389703	-2.0608925161	-0.0979629296	-0.20813
C	-1.3040700691	-0.7852606138	-0.148435726	 0.241218
C	-2.5876242189	-0.2405182057	-0.318009624	 0.085849
C	-3.6695956476	 0.2744722641	-0.4606720001	-0.385558
H	 0.9300471737	 1.9784568419	 0.1659457948	 0.111485
H	-0.473354229	 1.91288758	-0.9142447065	 0.125432
H	-0.7091388325	 1.904042138	 0.8354209331	 0.12544
H	 0.6252815753	-0.9318049267	-1.9547030591	 0.096264
H	 1.9919165986	-0.4516302877	-0.8823297607	 0.092187
H	 1.2258808741	-2.8357312443	 0.1809731855	 0.06492
H	 1.6809106858	-0.4632702757	 1.4323805189	 0.092186
H	 0.0803596383	-0.9522930195	 2.1012125607	 0.096266
H	-1.4506212722	-2.9736528341	-0.1795593459	 0.111042
H	-4.6286752841	 0.7114643383	-0.5872452738	 0.18213
119.766	135.9071	190.8639	286.8029	299.3438	408.0952	467.7513	488.4133	520.7181	564.6022	578.6593	634.4603	634.9924	658.1849	765.6697	809.1104	837.9837	855.7743	878.5355	910.6541	948.5295	991.2107	1026.2475	1055.8718	1073.4731	1111.9762	1168.6956	1183.6894	1188.6922	1226.157	1228.1869	1252.3214	1286.2841	1320.7963	1415.4995	1479.9002	1488.8753	1490.2748	1517.7805	1636.0666	2214.1781	3031.8896	3039.2778	3050.108	3099.5242	3102.1959	3111.7343	3116.8096	3129.5015	3237.6894	3502.9889
CC12CC(C1)C=C2C#C	C[C@@]12C[C@@H](C1)C=C2C#C	
InChI=1S/C9H10/c1-3-8-4-7-5-9(8,2)6-7/h1,4,7H,5-6H2,2H3	InChI=1S/C9H10/c1-3-8-4-7-5-9(8,2)6-7/h1,4,7H,5-6H2,2H3/t7-,9+
