17
gdb 30036	3.2984	1.63476	1.16064	3.7316	80.74	-0.2161	-0.0146	0.2014	1038.4759	0.139269	-380.916196	-380.909126	-380.908182	-380.947618	27.858	
C	-0.0912331332	 1.5841376999	-0.0125207622	-0.383771
C	 0.0062326684	 0.0470858579	 0.0023220892	-0.211091
C	 0.8468352354	-0.5203385812	-1.1384187833	-0.126174
C	 1.859032117	-1.2535974332	-0.6628550497	-0.039019
N	 1.8057499132	-1.2668565861	 0.7436115561	-0.022587
C	 2.4600733638	-1.7614280095	 1.8332926696	-0.012543
N	 1.8728538508	-1.3746728562	 2.9464006564	-0.278919
C	 0.7950932037	-0.5980768919	 2.5624165632	-0.225171
C	 0.733629504	-0.5180987052	 1.1968797585	 0.324084
H	 0.9034556032	 2.035351342	 0.0365593151	 0.128571
H	-0.5856243246	 1.9323780838	-0.9248897197	 0.116188
H	-0.6705187605	 1.9392987529	 0.8446683433	 0.127004
H	-1.0133114228	-0.3599870952	-0.059649002	 0.110861
H	 0.6420245515	-0.3352835026	-2.1834320772	 0.113548
H	 2.6390843361	-1.7893275001	-1.1830919109	 0.140012
H	 3.3372599365	-2.3856156604	 1.7591736169	 0.130938
H	 0.1404829776	-0.1554397649	 3.2972893666	 0.108069
133.0291	151.8445	245.3671	281.5706	359.5071	469.7377	550.4563	661.6116	664.2063	689.0382	708.4101	765.733	786.9422	820.4291	840.8503	908.3127	914.9564	943.951	1022.7241	1076.1256	1089.6975	1100.7977	1123.6996	1189.8254	1237.9964	1249.3771	1289.2625	1307.6799	1328.8721	1378.2323	1407.6182	1431.8762	1490.7672	1495.7077	1498.2999	1588.6584	1655.8822	3002.5755	3039.0938	3110.8008	3121.9136	3231.9839	3250.7435	3256.7223	3259.1943
CC1C=CN2C=NC=C12	C[C@H]1C=Cn2cncc12	
InChI=1S/C7H8N2/c1-6-2-3-9-5-8-4-7(6)9/h2-6H,1H3	InChI=1S/C7H8N2/c1-6-2-3-9-5-8-4-7(6)9/h2-6H,1H3/t6-/m0/s1
