18
gdb 39982	3.63424	1.56953	1.39752	3.0574	73.85	-0.2371	0.0735	0.3106	961.4282	0.149854	-401.892921	-401.886223	-401.885279	-401.923878	27.558	
C	 0.035040134	 1.501728383	 0.0028832183	-0.266932
O	 1.194459403	 0.6609439199	 0.0051154404	-0.279237
C	-0.0932208862	 0.0432182562	 0.0116547438	 0.484036
C	-0.4737718638	-0.8078212529	 1.2256584693	-0.345066
C	-0.7098162398	-2.1754921561	 0.6003543252	-0.023311
C	-1.6985537843	-2.3495076287	-0.4953784646	-0.035004
C	-2.0166510153	-1.0452685819	-1.211654736	-0.259248
C	-0.4859872976	-0.7827471648	-1.1887830399	-0.08993
N	-0.2173634601	-2.2403504345	-0.80064514	-0.148354
H	-0.1379974857	 2.0640260385	 0.9200015574	 0.114155
H	-0.1363620858	 2.0599778526	-0.9173947052	 0.113098
H	 0.357667228	-0.8313222682	 1.9350015511	 0.129517
H	-1.3552540223	-0.4225785222	 1.7481246194	 0.113072
H	-0.4766498613	-3.0605238489	 1.1834259576	 0.097147
H	-2.2342285604	-3.2846992812	-0.6294879791	 0.091889
H	-2.3753850303	-1.2266398746	-2.2266466112	 0.117155
H	-2.6773854794	-0.3205602333	-0.7235101368	 0.098354
H	-0.0029873025	-0.4811135229	-2.1166115697	 0.088659
106.4907	247.5411	314.1457	349.45	399.4308	452.8814	538.3828	704.025	742.794	764.1503	783.9636	803.3115	833.0116	882.9552	918.1635	947.7965	962.8998	973.5577	995.8905	1011.0129	1049.5964	1078.5734	1086.9041	1125.1443	1140.5207	1161.3655	1180.8288	1202.9387	1231.9533	1241.5262	1269.6516	1280.5135	1297.5504	1348.383	1401.7862	1438.7667	1479.9572	1497.5958	1535.8818	3041.3876	3052.7245	3075.7131	3102.463	3110.7964	3133.4953	3151.317	3159.505	3169.6025
C1OC11CC2C3CC1N23	C1O[C@]21C[C@H]1[C@H]3C[C@@H]2N13	
InChI=1S/C7H9NO/c1-4-5-2-7(3-9-7)6(1)8(4)5/h4-6H,1-3H2	InChI=1S/C7H9NO/c1-4-5-2-7(3-9-7)6(1)8(4)5/h4-6H,1-3H2/t4-,5+,6+,7+,8?/m1/s1
