17
gdb 54597	2.77642	1.58692	1.20069	2.0302	68.31	-0.2306	0.0118	0.2424	1037.3484	0.137025	-455.127617	-455.119504	-455.11856	-455.160506	30.758	
N	 0.372787151	 0.6676046392	-0.9053517056	-0.534176
C	-0.0574512049	 0.1610479035	 0.2765394967	 0.311937
O	 0.4749120699	 0.3551440417	 1.3553363373	-0.377399
C	-1.2760508972	-0.7267600197	 0.1524758903	 0.351155
C	-2.3011984051	-0.7264948174	 1.307253938	-0.21741
N	-2.3925743192	-2.2189582445	 1.2490068138	-0.326352
C	-1.2859480258	-2.2801691491	 0.2698525363	-0.099861
C	-1.7904791612	-2.2488364682	-1.1824624987	-0.077795
O	-1.8520332393	-0.7924840469	-1.1708477201	-0.355161
H	 1.1479455429	 1.308895154	-0.9114954234	 0.262311
H	-0.1794059254	 0.5142822002	-1.7331587907	 0.273749
H	-1.8477651688	-0.3359771329	 2.2228439118	 0.13219
H	-3.2438641593	-0.2125834544	 1.097703257	 0.112406
H	-2.1604526106	-2.6577838515	 2.1318154783	 0.228291
H	-0.421948223	-2.8959077639	 0.519845024	 0.093197
H	-1.0763589965	-2.6025274611	-1.9359982003	 0.103666
H	-2.7731304175	-2.701529659	-1.3415256048	 0.119251
69.5072	119.5221	173.1124	250.9833	323.2205	353.4528	399.9766	425.9465	489.1182	630.8958	632.5057	678.8177	739.2766	751.515	842.5649	887.5871	928.2896	983.7413	998.2224	1035.1107	1047.1361	1082.288	1091.1374	1121.0793	1128.0073	1165.3584	1185.4388	1212.552	1287.0342	1332.8412	1349.5636	1388.5285	1397.3756	1489.9037	1501.6338	1590.6714	1791.5437	3025.1783	3047.7782	3098.4362	3108.2446	3113.533	3549.4734	3593.3556	3735.681
NC(=O)C12CNC1CO2	NC(=O)[C@]12CN[C@H]1CO2	
InChI=1S/C5H8N2O2/c6-4(8)5-2-7-3(5)1-9-5/h3,7H,1-2H2,(H2,6,8)	InChI=1S/C5H8N2O2/c6-4(8)5-2-7-3(5)1-9-5/h3,7H,1-2H2,(H2,6,8)/t3-,5-/m0/s1
