18
gdb 80978	2.38131	1.83016	1.65569	1.5204	70.69	-0.2424	0.0066	0.2489	934.4007	0.148686	-439.08411	-439.076444	-439.075499	-439.115615	30.764	
C	 0.0164403145	 1.5014192421	 0.0976908593	-0.470174
C	-0.0256727115	-0.0037426965	-0.0204219191	 0.256681
C	 0.3002675684	-0.7235943593	-1.3658566037	-0.284283
C	-0.5972184914	-1.8696046054	-0.847744861	 0.052411
O	 0.1516016764	-2.6696226308	 0.093837702	-0.225983
C	 0.799026886	-1.9062050785	 0.9990085848	 0.079366
N	 0.7815858962	-0.6361058374	 1.0479732716	-0.301843
C	-1.3884410454	-0.7716055304	-0.0723466891	 0.130102
O	-2.0777108506	-1.0739398038	 1.0984478622	-0.442913
H	 1.0482601207	 1.8620950432	 0.0409699454	 0.125419
H	-0.5647605114	 1.9732938754	-0.7007375879	 0.107295
H	-0.394033237	 1.8184836669	 1.0615551263	 0.128356
H	-0.1477781741	-0.2204662408	-2.225311008	 0.111847
H	 1.3468004259	-0.9602314795	-1.5638688793	 0.116645
H	-1.0929978277	-2.5681105298	-1.5191284378	 0.092246
H	 1.3562247974	-2.5100871394	 1.71144367	 0.135528
H	-2.0857264783	-0.2784223927	-0.754936329	 0.095636
H	-1.4270104281	-1.1911108231	 1.8014588133	 0.293664
200.0613	204.8197	234.9697	244.0909	306.3232	363.4648	405.1969	445.8351	505.1221	546.5127	686.1485	700.9141	745.3007	804.8033	840.7567	851.6246	896.3478	945.2262	963.7241	985.5385	1000.5188	1103.9343	1118.8863	1145.8509	1153.4388	1172.3056	1214.4799	1245.0126	1247.8761	1308.9652	1320.8148	1350.5456	1388.6017	1413.2512	1430.2828	1479.8223	1482.9259	1491.6613	1682.0223	3035.8755	3072.5596	3082.1542	3108.8366	3110.9465	3136.0306	3139.073	3172.7471	3779.4396
CC12CC(OC=N1)C2O	C[C@@]12C[C@@H](O[CH][N]1)[C@H]2O	
InChI=1S/C6H9NO2/c1-6-2-4(5(6)8)9-3-7-6/h3-5,8H,2H2,1H3	InChI=1S/C6H9NO2/c1-6-2-4(5(6)8)9-3-7-6/h3-5,8H,2H2,1H3/t4-,5-,6+/m1/s1
