18
gdb 31534	3.31588	1.11579	0.86131	2.4296	78.03	-0.1686	0.0473	0.2159	1351.3354	0.146315	-439.108083	-439.098337	-439.097393	-439.143081	34.696	
C	-0.1776368922	 1.4309375844	-0.1723076086	-0.33037
N	-0.0853869504	 0.0954998684	 0.4158890798	-0.383011
C	-1.1670481446	-0.759252517	 0.2640501367	 0.420433
C	-1.285893071	-2.0889462177	 0.0040422762	-0.401721
C	-2.6986468301	-2.4014700065	 0.0785840899	 0.179271
C	-3.359286762	-3.7255348323	-0.13497188	-0.506779
C	-3.3068936087	-1.2293459369	 0.3720406802	 0.267072
O	-4.5962662901	-0.9188886708	 0.6211266408	-0.426828
O	-2.3927927829	-0.2087103698	 0.502511621	-0.20921
H	 0.7316700837	 1.9848724667	 0.0726070123	 0.123991
H	-0.3052020613	 1.4243988544	-1.2661135603	 0.109148
H	-1.0254428219	 1.9597788826	 0.2674305209	 0.148777
H	 0.7739706651	-0.3774678533	 0.1726413573	 0.239888
H	-0.4832347606	-2.7721140679	-0.2269302503	 0.089996
H	-3.0489528451	-4.4598149743	 0.6180393024	 0.125744
H	-4.4461042905	-3.6256038705	-0.0755927477	 0.130866
H	-3.1093005999	-4.1471618183	-1.1158056706	 0.120524
H	-4.8837476276	-0.2209788011	 0.0192881101	 0.302207
45.9528	124.1576	137.8275	172.4311	186.2331	231.5709	245.2498	256.5032	335.5928	396.9669	533.7969	566.6121	632.8305	656.6027	686.9409	711.09	735.2978	819.2241	974.8693	994.2671	1062.7655	1065.7632	1108.3495	1147.5907	1152.4736	1197.0719	1262.688	1271.4804	1352.2618	1392.8926	1422.1996	1453.5664	1484.9397	1486.3939	1491.7755	1498.7536	1516.6333	1664.3082	1729.8194	2981.2686	3023.0929	3068.8124	3093.6248	3116.5013	3136.7236	3247.3698	3590.446	3761.1389
CNC1=CC(C)=C(O)O1	CNc1cc(C)c(O)o1	
InChI=1S/C6H9NO2/c1-4-3-5(7-2)9-6(4)8/h3,7-8H,1-2H3	InChI=1S/C6H9NO2/c1-4-3-5(7-2)9-6(4)8/h3,7-8H,1-2H3
