21
gdb 99129	4.1267	0.72742	0.66217	2.2135	79.56	-0.2374	-0.003	0.2344	1746.634	0.179421	-424.231683	-424.221164	-424.220219	-424.269223	37.274	
C	 0.0989166188	 1.4440626721	 0.2347501536	-0.37472
C	 0.1149491039	-0.0587803312	-0.0322431095	-0.276059
C	 0.7695047949	-0.4389497052	-1.3554422264	 0.378127
O	 1.3471055831	 0.373978696	-2.0411388518	-0.301792
C	 0.6356199156	-1.9014213712	-1.7685012332	-0.323035
C	 1.5340250112	-2.2852688978	-2.9190680764	 0.006403
C	 2.9338586267	-2.8047234838	-2.6551688376	-0.319359
C	 1.8594428272	-3.7261751853	-3.1783818932	 0.071881
O	 1.2794166282	-4.6663041161	-2.3164838633	-0.419453
H	 1.1123817285	 1.8516199001	 0.2134426432	 0.133777
H	-0.4775339132	 1.9712892454	-0.5303043889	 0.126926
H	-0.3447082162	 1.6605864624	 1.2106254082	 0.107903
H	 0.6591184725	-0.5926412862	 0.7604346264	 0.122005
H	-0.8977044991	-0.4836407537	-0.0124519904	 0.116703
H	 0.8018419118	-2.5505763052	-0.902586012	 0.123309
H	-0.4209488343	-2.0578588898	-2.0358100538	 0.126664
H	 1.4233236028	-1.6535487377	-3.7937207446	 0.103276
H	 3.7407518683	-2.5017321131	-3.3130068133	 0.114389
H	 3.2199246241	-2.9402494732	-1.6166320355	 0.108212
H	 1.9252124717	-4.0470461178	-4.2180282175	 0.086473
H	 1.9247452137	-5.3640908686	-2.1635721737	 0.288368
25.6608	42.4275	65.7283	108.7468	196.3805	200.7504	258.5588	301.5102	318.1934	377.2152	455.127	469.2935	539.64	656.3323	730.8605	773.3527	828.0996	833.7057	874.9874	899.6954	984.6966	993.7269	1014.1366	1029.3762	1054.702	1092.0688	1124.3234	1131.4474	1157.1964	1175.2003	1234.1067	1239.0743	1284.7017	1299.769	1318.9251	1369.9012	1402.3978	1413.2712	1425.1975	1447.7769	1458.3046	1490.7848	1493.087	1498.4632	1806.7805	3002.999	3014.3176	3043.5669	3050.7424	3078.4172	3097.1369	3119.613	3128.4674	3129.1237	3170.4786	3218.0492	3808.1525
CCC(=O)CC1CC1O	CCC(=O)C[C@H]1C[C@H]1O	
InChI=1S/C7H12O2/c1-2-6(8)3-5-4-7(5)9/h5,7,9H,2-4H2,1H3	InChI=1S/C7H12O2/c1-2-6(8)3-5-4-7(5)9/h5,7,9H,2-4H2,1H3/t5-,7+/m0/s1
