17
gdb 68018	2.93878	1.53809	1.20744	2.3461	68.19	-0.2537	-0.0211	0.2326	1022.4695	0.135445	-458.971574	-458.963747	-458.962803	-459.003331	31.537	
O	-0.0653479638	 1.3821773025	-0.0004648906	-0.478733
C	-0.0084146446	-0.006083743	 0.0173306298	 0.414658
C	 0.3112635676	-0.8304974835	 1.3061407363	-0.360554
C	-0.4681479317	-1.9451730226	 0.5217575636	 0.340485
O	-0.9816076723	-3.0789409507	 1.1034578476	-0.484941
C	-1.3474797246	-0.777927289	-0.0541992858	-0.326929
C	 0.4784245764	-2.1607279576	-0.641283813	 0.37543
O	 0.8139858157	-3.2305151786	-1.081589371	-0.35515
C	 0.8484086352	-0.7293328504	-1.0528770932	-0.40878
H	 0.8315911563	 1.7286436542	 0.0598462812	 0.28227
H	 1.3553968101	-1.0146051588	 1.5753737175	 0.099179
H	-0.2623067558	-0.4837428742	 2.1675489795	 0.121595
H	-0.6015221408	-3.8267259001	 0.6166995126	 0.293727
H	-2.0645175011	-0.4247714601	 0.6888801425	 0.123587
H	-1.8243863691	-0.9095211587	-1.0288551401	 0.107036
H	 0.5430797599	-0.5044235681	-2.0793171134	 0.135699
H	 1.9249673827	-0.5484939413	-0.9585984534	 0.121421
135.348	245.3671	256.9962	273.9183	319.2968	385.8644	396.6561	465.8866	498.8774	512.6055	558.5568	627.8342	635.5232	701.659	783.0588	802.736	885.7523	947.1601	975.7545	1010.8776	1013.5109	1053.9466	1073.7067	1127.0164	1143.1722	1163.1317	1171.043	1198.8316	1223.297	1316.317	1360.3936	1388.5871	1415.3465	1459.2776	1481.6801	1530.2947	1856.7274	3048.1507	3057.0571	3066.6063	3101.3126	3133.2974	3138.8759	3706.7626	3805.3232
OC12CC(O)(C1)C(=O)C2	O[C@@]12C[C@@](O)(C1)C(=O)C2	
InChI=1S/C6H8O3/c7-4-1-5(8)2-6(4,9)3-5/h8-9H,1-3H2	InChI=1S/C6H8O3/c7-4-1-5(8)2-6(4,9)3-5/h8-9H,1-3H2/t5-,6+
