19
gdb 62025	4.12411	0.70098	0.62276	4.4446	73.85	-0.2507	-0.0308	0.2199	1769.444	0.153326	-460.178149	-460.167186	-460.166242	-460.216317	36.603	
C	-0.4285420874	 1.2958002297	 0.0693177587	-0.407123
C	-0.0022759623	-0.1695915646	-0.0103633645	 0.047197
O	 0.6912758077	-0.516178162	-1.193997028	-0.240357
C	-0.0941323657	-0.6075391913	-2.3454429669	-0.166178
C	 0.7027235058	-1.2628424266	-3.4743546309	 0.363081
C	 0.0051771973	-1.2689753416	-4.8235760473	-0.484235
O	 1.798399543	-1.7305020254	-3.2998323927	-0.26827
C	 0.9332290253	-0.5537495294	 1.1348055126	 0.145154
O	 0.8273336826	-0.1344997558	 2.2566847708	-0.245049
H	 0.4247046671	 1.9462965779	-0.14362131	 0.134591
H	-1.2303447652	 1.5230185187	-0.6379538909	 0.116312
H	-0.7823541519	 1.5075474712	 1.0810461069	 0.148235
H	-0.8942807597	-0.8162667002	 0.0991721777	 0.095095
H	-0.9982136305	-1.2208426371	-2.1726660243	 0.109292
H	-0.4521925037	 0.3763202112	-2.6929120126	 0.112059
H	 0.0401020995	-0.2628091919	-5.2581669918	 0.148842
H	 0.5150937448	-1.9601956477	-5.4953728616	 0.150797
H	-1.0509616024	-1.5436682343	-4.7320119302	 0.13346
H	 1.7195515858	-1.2784162807	 0.8340051648	 0.107095
32.6103	51.216	80.5836	86.5267	107.4621	146.0412	218.8281	251.7767	266.8028	326.1599	425.6503	466.7977	486.2136	558.5545	638.5815	816.2068	853.8933	865.598	909.589	927.7313	975.4983	1092.7383	1111.1618	1124.1796	1138.6528	1176.4468	1205.7919	1261.5028	1327.3162	1337.0826	1380.1468	1383.4606	1402.0417	1415.5615	1462.9807	1476.162	1485.5359	1489.4262	1500.7555	1838.5198	1840.7534	2917.5573	2925.1059	2940.5615	2978.2715	3036.8622	3049.0827	3098.022	3123.1085	3137.085	3154.2335
CC(OCC(C)=O)C=O	C[C@@H](OCC(=O)C)C=O	
InChI=1S/C6H10O3/c1-5(8)4-9-6(2)3-7/h3,6H,4H2,1-2H3	InChI=1S/C6H10O3/c1-5(8)4-9-6(2)3-7/h3,6H,4H2,1-2H3/t6-/m1/s1
