19
gdb 103068	2.15706	1.36032	1.12085	4.1373	67.84	-0.2381	0.0474	0.2855	1181.231	0.155467	-497.265524	-497.255147	-497.254203	-497.300135	38.638	
C	-0.0284233346	 1.5325523099	 0.0109930666	-0.453914
C	-0.0051316194	 0.0230702135	 0.0267000765	 0.251988
O	-1.1513224919	-0.5936344983	-0.5037952795	-0.45227
C	 1.3044711819	-0.7445276137	-0.1629448467	-0.082032
O	 2.5340963043	-0.068539732	-0.1731169558	-0.425238
C	 0.6136117223	-0.7327334648	 1.1825363977	 0.332158
O	 1.2620446239	 0.0007812604	 2.1882995443	-0.485241
C	-0.0220008548	-1.9780338572	 1.7561471605	-0.106051
O	 0.942033903	-2.7751275598	 2.4173455017	-0.422979
H	 0.8307358706	 1.955005312	 0.5338184057	 0.126836
H	-0.0312671674	 1.9147513333	-1.0182493557	 0.101076
H	-0.9364927844	 1.891427751	 0.5040055027	 0.13856
H	-1.16364873	-0.4373580936	-1.45528025	 0.280852
H	 1.2683770823	-1.6608427564	-0.7506461247	 0.102735
H	 2.5623171904	 0.5306775428	-0.9259836191	 0.298471
H	 2.1235037558	 0.2522735391	 1.8249011141	 0.298741
H	-0.8327368214	-1.6787901687	 2.439786514	 0.09436
H	-0.4645892613	-2.5797803594	 0.960826156	 0.117691
H	 1.4178375107	-2.170926758	 3.0002426616	 0.284257
87.4664	144.0766	153.7007	175.2074	231.8367	240.766	277.6301	298.3833	315.6143	326.8589	386.607	407.7701	440.3221	515.2327	526.8156	581.0714	609.4747	726.2405	797.146	900.9604	957.0661	975.1823	1024.121	1070.2522	1071.1155	1122.6523	1138.494	1177.3345	1215.0927	1267.9461	1283.0763	1307.5684	1336.3593	1372.3469	1388.4297	1414.55	1427.3942	1468.4246	1484.131	1501.0677	1509.1499	2978.9745	3023.1734	3096.3172	3114.942	3120.9215	3144.2068	3729.2785	3781.6632	3785.9666	3811.7064
CC1(O)C(O)C1(O)CO	C[C@@]1(O)[C@@H](O)[C@]1(O)CO	
InChI=1S/C5H10O4/c1-4(8)3(7)5(4,9)2-6/h3,6-9H,2H2,1H3	InChI=1S/C5H10O4/c1-4(8)3(7)5(4,9)2-6/h3,6-9H,2H2,1H3/t3-,4-,5-/m1/s1
