17
gdb 122774	3.50576	0.72902	0.63038	2.7142	74.15	-0.2635	-0.0396	0.2239	1745.329	0.132228	-458.937512	-458.927383	-458.926439	-458.974408	34.231	
C	 0.0942248143	 1.32073862	 0.0632406164	-0.226909
O	 0.0367590196	-0.0823300046	-0.0387189612	-0.226414
C	-1.2599878098	-0.5924405471	 0.1483279318	-0.068244
C	-1.2104183776	-2.1013373974	 0.0760799975	-0.078997
O	-0.5424541291	-2.580420756	 1.2588821508	-0.228334
C	-0.3974894643	-3.9128051063	 1.3362155377	 0.30158
O	-0.7874706822	-4.6990813161	 0.5087660273	-0.356121
C	 0.2900676951	-4.2867210437	 2.5538086122	 0.22859
C	 0.8554460572	-4.6559246708	 3.5473614489	-0.358385
H	 1.1339373614	 1.6162392487	-0.0943298096	 0.131993
H	-0.5345068183	 1.812444178	-0.6963333601	 0.104352
H	-0.2293861953	 1.6714095217	 1.0557634305	 0.108036
H	-1.6730623674	-0.2790127047	 1.1213094352	 0.100608
H	-1.9459322775	-0.2273749595	-0.6358785805	 0.092273
H	-2.2193742688	-2.5230823064	 0.0336041987	 0.125149
H	-0.660791606	-2.430967917	-0.8098585249	 0.138753
H	 1.3567328788	-4.9815288087	 4.4261428692	 0.21207
32.8344	57.1553	85.8428	130.3196	158.1594	226.4463	248.6927	272.3708	305.0418	325.1814	521.7973	538.0823	612.3622	656.5735	696.873	774.4604	851.3988	882.2186	954.6189	1058.5457	1062.7979	1126.3421	1171.4309	1187.0267	1227.7222	1258.287	1261.4566	1298.9428	1393.615	1434.4498	1479.7948	1485.7726	1491.4784	1497.7947	1521.5098	1790.6951	2238.0557	2954.5138	2972.2928	2991.2482	3015.8078	3060.9114	3112.7426	3119.3458	3498.1861
COCCOC(=O)C#C	COCCOC(=O)C#C	
InChI=1S/C6H8O3/c1-3-6(7)9-5-4-8-2/h1H,4-5H2,2H3	InChI=1S/C6H8O3/c1-3-6(7)9-5-4-8-2/h1H,4-5H2,2H3
