17
gdb 116665	3.57679	0.82082	0.67316	5.812	76.52	-0.2561	-0.0435	0.2126	1618.4521	0.133254	-455.179915	-455.17009	-455.169146	-455.215647	33.379	
C	 0.318759264	 0.8865850226	-0.8036962761	-0.402529
C	-0.3154295604	 0.3535569823	 0.4826200657	-0.115895
N	-1.5190925471	-0.4587289326	 0.3831547665	-0.252484
C	-2.0323190408	-0.7207716754	-0.7359290826	 0.13202
N	-3.2002039294	-1.5056902761	-0.8719154872	-0.170511
C	-3.8327072131	-2.0281253469	 0.2925350918	 0.17044
O	-4.8217625555	-2.7014454294	 0.286365172	-0.252339
C	-3.678872275	-1.7294551185	-2.1782587446	 0.173397
O	-4.646047789	-2.363977694	-2.48150629	-0.256912
H	 1.2073550919	 1.4723777992	-0.552433311	 0.126323
H	 0.6350479947	 0.0779482952	-1.4712595564	 0.125528
H	-0.3626766318	 1.5421239443	-1.3564049147	 0.125531
H	 0.4193608207	-0.2459260181	 1.0352513526	 0.125653
H	-0.5599718983	 1.1914755107	 1.1480413143	 0.125655
H	-1.6510798113	-0.385031771	-1.7052936845	 0.109749
H	-3.2772792512	-1.7203721517	 1.1896395751	 0.142061
H	-3.0251764584	-1.2267384106	-2.9192435308	 0.094313
46.8112	101.7917	111.6044	134.6247	176.8635	228.6169	250.8817	277.871	282.3425	377.3365	467.1917	507.6476	522.9842	777.1035	798.7833	896.0044	922.9282	984.7185	1024.2277	1053.7726	1060.5648	1091.5933	1146.7713	1230.1607	1291.4576	1312.7678	1375.2191	1397.4593	1418.5448	1436.2419	1475.8159	1483.619	1494.3384	1504.6095	1762.2047	1811.7467	1887.6492	2925.6726	3024.7793	3034.1794	3046.7975	3049.8041	3069.3404	3102.1317	3114.0851
CCN=CN(C=O)C=O	CCN=CN(C=O)C=O	
InChI=1S/C5H8N2O2/c1-2-6-3-7(4-8)5-9/h3-5H,2H2,1H3	InChI=1S/C5H8N2O2/c1-2-6-3-7(4-8)5-9/h3-5H,2H2,1H3
