23
gdb 118736	3.40067	0.81967	0.77036	3.0311	86.5	-0.238	-0.0162	0.2219	1605.2315	0.203037	-388.31356	-388.303292	-388.302348	-388.349394	38.28	
C	-0.1521401923	 1.5849681722	 0.24387408	-0.377821
C	-0.020227471	 0.0645337285	 0.1108726546	-0.177184
C	-1.372123321	-0.6279702317	-0.1039019283	-0.237595
C	-1.3287110227	-2.1597633638	-0.1505611534	 0.336018
C	-0.4771383484	-2.697939796	-1.3035796346	-0.449229
C	-0.9797337938	-2.8605089191	 1.2126859272	-0.387276
C	-2.2650409886	-3.685589861	 1.0670008993	 0.410729
O	-2.696290224	-4.6536815864	 1.6232218423	-0.293003
C	-2.7447708547	-2.8386860575	-0.1189437396	-0.399032
H	 0.8228687861	 2.0583915483	 0.3947179021	 0.113085
H	-0.5995002978	 2.0229383898	-0.6553207099	 0.115215
H	-0.7892326395	 1.8550632611	 1.0934047766	 0.114534
H	 0.6545855926	-0.166600155	-0.7216247224	 0.101034
H	 0.4577975464	-0.3410621262	 1.0123657203	 0.098877
H	-2.0542726044	-0.3239013009	 0.7027121359	 0.087658
H	-1.8243087978	-0.2577049679	-1.035146272	 0.094467
H	 0.5741439002	-2.4135709092	-1.197740304	 0.121288
H	-0.5169345951	-3.7921677357	-1.3440405476	 0.11678
H	-0.8351155455	-2.3171624948	-2.2667903322	 0.115807
H	-0.0475743221	-3.4292453397	 1.2727152233	 0.124009
H	-1.0313825277	-2.1886470358	 2.0770597584	 0.124458
H	-3.5511071688	-2.1561065393	 0.1724037922	 0.123786
H	-3.06300555	-3.39148287	-1.007419288	 0.123396
37.4298	85.4731	92.2587	160.5787	238.4287	256.4164	300.6064	323.6434	332.2334	367.1526	402.7387	421.4431	510.7727	648.4739	683.5721	738.4637	747.2169	856.6222	877.7783	888.8512	904.9617	937.2788	976.7247	1004.6649	1051.4693	1055.0716	1081.9711	1109.2141	1139.887	1169.2031	1188.866	1210.3303	1245.5081	1285.5936	1304.8901	1321.1777	1344.4103	1394.024	1410.0345	1415.9049	1424.3729	1444.6006	1479.7621	1493.5934	1496.9476	1498.505	1503.8577	1510.8781	1891.1287	2995.8506	3020.4515	3026.9406	3028.6459	3030.0768	3043.1392	3048.3885	3061.533	3090.5769	3096.9894	3102.364	3103.4668	3104.0472	3105.5563
CCCC1(C)CC(=O)C1	CCCC1(C)CC(=O)C1	
InChI=1S/C8H14O/c1-3-4-8(2)5-7(9)6-8/h3-6H2,1-2H3	InChI=1S/C8H14O/c1-3-4-8(2)5-7(9)6-8/h3-6H2,1-2H3
