17
gdb 71434	4.53946	1.07442	0.99673	2.471	73.06	-0.2385	-0.0191	0.2194	1180.1808	0.135226	-421.774519	-421.766836	-421.765892	-421.806793	29.915	
O	-0.090184959	 1.3301801411	-0.0789128898	-0.460901
C	 0.0354282262	-0.0402351713	-0.0509756854	 0.390366
C	 0.8804537487	-0.9264320443	-0.9603094654	-0.305149
C	-0.0143000989	-2.08700985	-0.4381849807	-0.082154
C	-1.101649325	-1.0152144569	-0.0250468182	-0.130242
C	-0.2609858575	-0.8483205274	 1.2325941946	-0.153013
C	 0.3886508994	-2.2266759994	 1.0731231713	-0.099502
C	-0.4001468079	-3.302773568	 1.7652777283	 0.162592
O	 0.0730654773	-4.1531491614	 2.4767293463	-0.263575
H	 0.6284001044	 1.7158328151	 0.435002338	 0.289318
H	 0.673999513	-0.7113524483	-2.0122561557	 0.111788
H	 1.9613048735	-1.0013231274	-0.7943182762	 0.093074
H	-0.1862399407	-2.9714503311	-1.0464110096	 0.089426
H	-2.1591235507	-0.9073892865	-0.2118622535	 0.106452
H	-0.5367635779	-0.3361170905	 2.145837015	 0.098394
H	 1.4517853569	-2.3479512814	 1.3023273872	 0.081381
H	-1.4970161719	-3.2614557423	 1.5690365339	 0.071745
79.5205	142.005	253.2871	293.4599	335.76	377.7097	394.9482	460.5934	501.6834	627.259	747.2232	772.7354	823.1004	840.3293	874.7382	921.5019	924.3179	961.4567	996.3693	1012.6477	1030.4901	1060.5463	1097.7179	1119.4589	1131.1241	1156.8044	1181.4915	1218.7712	1233.9596	1244.0804	1283.0086	1302.5604	1317.7249	1429.6546	1439.5709	1503.0465	1825.7323	2860.7292	3035.0686	3068.0975	3104.3957	3147.6781	3197.0612	3237.7259	3790.0362
OC12CC3C1C2C3C=O	O[C@]12C[C@@H]3[C@H]1[C@H]2[C@H]3C=O	
InChI=1S/C7H8O2/c8-2-4-3-1-7(9)5(3)6(4)7/h2-6,9H,1H2	InChI=1S/C7H8O2/c8-2-4-3-1-7(9)5(3)6(4)7/h2-6,9H,1H2/t3-,4-,5-,6+,7+/m0/s1
