21
gdb 59425	3.68051	1.00591	0.88866	2.14	78.79	-0.2518	0.0676	0.3194	1381.3446	0.180535	-424.186716	-424.177177	-424.176233	-424.221498	35.045	
C	 1.016880469	-0.5744580268	-0.8160599792	-0.406303
C	 0.0438010608	 0.1799040066	 0.0985437198	-0.003057
C	-0.1545285345	 1.6257266297	-0.3898666644	-0.384051
C	-1.3157103535	-0.4891674747	 0.2291200251	-0.031723
O	-1.9020876863	-1.0609137688	-0.9615034414	-0.27816
C	-1.6093241953	-1.9183258431	 0.1235614367	 0.348835
C	-0.7677393694	-3.1918843056	 0.0375103242	-0.157148
O	-1.8058710348	-3.9354062743	 0.7115753487	-0.278438
C	-2.6669158135	-2.7796760902	 0.8094414323	-0.151454
H	 1.9270981604	 0.0140420251	-0.9643400875	 0.112089
H	 1.3169834044	-1.5388293862	-0.3984882049	 0.116798
H	 0.5609695928	-0.7519473633	-1.7938559628	 0.13617
H	 0.4666746458	 0.2206898805	 1.1129629001	 0.081776
H	 0.8002139717	 2.1590194644	-0.4254866692	 0.11388
H	-0.5866858404	 1.6363231696	-1.3961772483	 0.130915
H	-0.8272549044	 2.1832602875	 0.2701525363	 0.112374
H	-2.031083785	 0.0989346318	 0.8112395835	 0.088399
H	-0.5856250864	-3.5486140242	-0.9836574403	 0.117683
H	 0.1707367485	-3.2038589951	 0.6040443415	 0.108797
H	-2.9076001114	-2.5296250717	 1.8503746436	 0.106563
H	-3.5940634286	-2.8943710312	 0.2340653664	 0.116054
44.3543	115.1052	140.5305	170.7555	211.9724	239.9572	287.5826	293.2459	383.5214	391.6997	461.4183	602.5611	613.717	779.7163	849.185	867.6518	911.1315	928.8861	942.0575	968.523	981.6453	1015.4087	1027.3256	1063.4189	1110.479	1127.6274	1148.4355	1158.3485	1170.7202	1200.6738	1201.5622	1299.6127	1321.1098	1337.4727	1357.6623	1385.6599	1399.9336	1421.6957	1489.23	1492.3922	1497.6169	1504.7759	1511.1461	1523.3286	1531.2019	3003.1873	3010.0356	3022.9534	3032.354	3048.6058	3060.8026	3066.6619	3067.449	3102.2573	3107.2434	3114.8091	3127.4683
CC(C)C1OC11COC1	CC(C)[C@H]1OC21COC2	
InChI=1S/C7H12O2/c1-5(2)6-7(9-6)3-8-4-7/h5-6H,3-4H2,1-2H3	InChI=1S/C7H12O2/c1-5(2)6-7(9-6)3-8-4-7/h5-6H,3-4H2,1-2H3/t6-/m1/s1
