20
gdb 12417	2.87408	2.02933	1.48616	1.7644	70.56	-0.2454	0.0774	0.3227	931.5497	0.178609	-386.156972	-386.149114	-386.148169	-386.188593	30.996	
C	-0.0292653849	 1.5236466269	-0.0137908681	-0.402895
C	 0.0677076257	 0.0070840608	 0.0350065587	 0.102956
O	 0.821897636	-0.4163998007	-1.1050004051	-0.272614
C	 0.8087769913	-1.8310318887	-1.2652552873	-0.067929
C	 1.4481931756	-2.5428018553	-0.0709951154	-0.21267
C	 0.8039512313	-2.0693600662	 1.2414621867	-0.221467
C	 0.766169787	-0.532019218	 1.2965554498	 0.143521
O	 2.0750274053	 0.0152649228	 1.4046204762	-0.448006
H	 0.958072667	 1.9761460249	 0.1043045116	 0.129232
H	-0.4541114258	 1.8445621483	-0.9681769738	 0.120435
H	-0.6697463734	 1.8870466873	 0.7956002959	 0.115079
H	-0.9438004334	-0.4304209308	-0.0218507773	 0.062336
H	-0.2311569726	-2.1749803103	-1.3982125914	 0.087667
H	 1.3510523301	-2.0370531844	-2.1928101145	 0.106557
H	 1.3494672488	-3.6275379529	-0.1881993661	 0.097312
H	 2.5218427558	-2.3213199104	-0.0535219413	 0.105933
H	-0.2231199113	-2.4520393577	 1.3133989925	 0.090629
H	 1.3556611826	-2.4510996911	 2.1057557495	 0.104297
H	 0.2226150408	-0.2030521088	 2.1896729238	 0.075813
H	 2.438328764	 0.0156566643	 0.5099560257	 0.283815
136.8583	196.8742	211.2443	265.3692	320.679	329.7729	387.8565	446.0939	462.1349	528.077	593.367	714.1815	776.0798	851.7387	856.5381	879.4419	944.18	976.8243	991.7526	1037.4308	1074.7932	1086.9398	1110.9521	1146.3441	1166.4301	1217.4172	1231.1073	1276.4496	1303.2805	1327.2602	1353.7114	1368.9842	1377.928	1393.302	1408.3769	1413.8307	1434.4806	1478.5494	1486.6877	1487.3445	1496.6493	1501.2111	2955.9824	2964.6337	3021.1086	3035.967	3046.7518	3051.1329	3076.515	3082.1024	3086.6417	3121.1432	3134.1507	3775.4518
CC1OCCCC1O	C[C@H]1OCCC[C@H]1O	
InChI=1S/C6H12O2/c1-5-6(7)3-2-4-8-5/h5-7H,2-4H2,1H3	InChI=1S/C6H12O2/c1-5-6(7)3-2-4-8-5/h5-7H,2-4H2,1H3/t5-,6-/m1/s1
