18
gdb 51866	3.97727	0.96451	0.85383	4.3171	76.56	-0.2446	0.004	0.2487	1348.8998	0.148936	-439.110421	-439.10205	-439.101106	-439.144439	30.786	
O	-0.0615318679	 0.2546738851	-0.9693310763	-0.319275
C	-0.0268281496	 1.2598799441	-0.2930002028	 0.155908
N	 1.0706071064	 1.7297492693	 0.3620947362	-0.288914
C	 2.371242683	 1.0725534884	 0.3198691175	-0.023805
C	 3.3496558959	 1.8475065788	-0.5819421484	-0.092599
O	 4.6614292729	 1.338022326	-0.4619296509	-0.24305
C	 5.2079752121	 1.5236787137	 0.8295573481	-0.114741
C	 4.2500675777	 1.1754799473	 1.9345210631	-0.083804
C	 2.9602423975	 0.9448777855	 1.7023718886	-0.079553
H	-0.9086391616	 1.9114397265	-0.1316409597	 0.076379
H	 0.9835346954	 2.5865595993	 0.8870497608	 0.246524
H	 2.1813770978	 0.0860490798	-0.1158411005	 0.139329
H	 3.065950986	 1.7494199801	-1.6326040679	 0.125863
H	 3.3168892859	 2.9180124302	-0.3144187516	 0.078691
H	 6.0965534689	 0.8835338241	 0.8790035104	 0.123829
H	 5.5599496875	 2.564814289	 0.9554409437	 0.10049
H	 4.6623299828	 1.1131702667	 2.9381454344	 0.1002
H	 2.2812361794	 0.6662517061	 2.5038085953	 0.098528
35.8974	93.3983	178.635	204.9276	290.806	313.9894	396.1715	453.131	497.382	537.6406	542.0491	697.6919	747.2269	817.3668	898.557	929.7762	983.0501	999.441	1027.4759	1030.1093	1063.9199	1082.2553	1102.8173	1149.7915	1203.9027	1217.6374	1244.5208	1305.049	1319.8058	1344.7701	1371.5983	1406.5593	1423.5616	1429.8518	1483.7307	1496.8951	1520.7927	1723.3649	1805.2482	2933.1999	2935.2844	2956.8961	3054.286	3068.6033	3102.0803	3154.7012	3177.0553	3622.3947
O=CNC1COCC=C1	O=CN[C@H]1COCC=C1	
InChI=1S/C6H9NO2/c8-5-7-6-2-1-3-9-4-6/h1-2,5-6H,3-4H2,(H,7,8)	InChI=1S/C6H9NO2/c8-5-7-6-2-1-3-9-4-6/h1-2,5-6H,3-4H2,(H,7,8)/t6-/m1/s1
