19
gdb 38633	3.36237	1.97567	1.65805	1.7141	77.25	-0.2368	0.0843	0.3211	873.1867	0.16336	-385.840699	-385.834786	-385.833842	-385.870501	26.427	
C	-0.0204382083	 1.5093506657	 0.0167362515	-0.216208
C	 1.5285769367	 1.8352074235	-0.1012474551	-0.338668
C	 1.9403853496	 0.3867876001	-0.12968124	 0.486273
O	 3.0826925012	-0.391889027	-0.4776392214	-0.369559
C	 2.0678062416	-1.466140815	-0.6491049025	 0.021712
C	 1.6424736977	-1.77061929	 0.7932085716	-0.23641
C	 1.130764059	-0.3462540962	 1.0427960266	-0.089565
C	-0.0375197631	-0.0588421806	 0.0767807633	-0.072064
C	 0.9801298783	-0.4042590753	-1.0322018596	-0.084525
H	-0.4606027491	 1.9437603996	 0.9185136908	 0.103107
H	-0.5750674137	 1.8910416334	-0.845013243	 0.102842
H	 1.7739413554	 2.3783139957	-1.0172655701	 0.108645
H	 1.9054005169	 2.400677873	 0.7551895687	 0.105692
H	 2.404214767	-2.25574099	-1.3181058178	 0.08058
H	 0.8725526502	-2.5443126079	 0.8677863413	 0.097092
H	 2.4981058142	-2.0402908173	 1.4166545329	 0.107723
H	 1.1201623612	 0.0489486191	 2.0584959058	 0.061763
H	-1.0192336971	-0.524575544	 0.183133959	 0.058953
H	 0.8513137425	-0.1380774068	-2.0805638021	 0.072617
266.37	319.8895	391.891	446.1833	522.6061	598.3855	660.2125	719.3063	762.7615	791.9081	831.5931	841.7912	869.2327	887.1343	905.1193	926.4768	947.3261	958.3435	979.1954	998.527	1012.4577	1053.0902	1064.4917	1067.2368	1122.1667	1154.1027	1167.1017	1204.0093	1215.7411	1219.8844	1231.7126	1246.5054	1261.689	1280.7841	1300.9721	1307.8907	1343.2353	1364.8838	1481.9309	1490.5913	1514.2612	3054.4211	3059.4022	3063.0018	3089.5892	3095.9804	3112.1073	3113.9396	3119.0022	3125.5519	3144.6004
C1CC23OC4CC2C1C34	C1C[C@@]23O[C@H]4C[C@@H]2[C@@H]1[C@@H]34	
InChI=1S/C8H10O/c1-2-8-5-3-6(9-8)7(8)4(1)5/h4-7H,1-3H2	InChI=1S/C8H10O/c1-2-8-5-3-6(9-8)7(8)4(1)5/h4-7H,1-3H2/t4-,5-,6+,7-,8-/m1/s1
