18
gdb 36818	8.25207	0.46052	0.44096	4.5481	80.49	-0.2676	0.0217	0.2893	2324.1193	0.144703	-401.915163	-401.904831	-401.903887	-401.952088	35.073	
C	 0.03311753	-1.1927813894	-0.0045540613	-0.408075
C	 0.0435650908	 0.0076540097	 0.0018616804	 0.279232
C	 0.0201016113	 1.4635584581	 0.0096850863	-0.210819
O	 1.3426966448	 1.9687426563	 6.2198*^-6	-0.244679
C	 1.384596977	 3.3776182162	 0.006908145	-0.044081
C	 2.8475247308	 3.8018857211	-0.004516164	-0.198214
C	 2.988320009	 5.3356610546	 0.0021345282	-0.343962
C	 4.3833019807	 5.7695732082	-0.0085707615	 0.259961
N	 5.4901656414	 6.1007460586	-0.0173264109	-0.300021
H	 0.0314864901	-2.2548521919	-0.0105216511	 0.204226
H	-0.5384517625	 1.8316229994	-0.8680446237	 0.120935
H	-0.5219626328	 1.8223492103	 0.9014783846	 0.120925
H	 0.8572546774	 3.7862314491	-0.8734277826	 0.091165
H	 0.8737786692	 3.7770447636	 0.9010951221	 0.091165
H	 3.3522469557	 3.3775571612	 0.8683168517	 0.13671
H	 3.3358624429	 3.3866792812	-0.8909515093	 0.136712
H	 2.4856763452	 5.7702810393	-0.8702012228	 0.154414
H	 2.5020609189	 5.7611564043	 0.8881411589	 0.154407
51.6084	59.3808	66.3772	126.8329	135.1444	150.7235	223.4297	332.6078	336.2624	396.665	396.6824	554.388	572.8723	613.4734	681.3236	757.3987	870.296	938.1024	970.7352	1014.0143	1031.136	1048.1535	1094.8974	1123.4117	1151.5129	1219.0334	1254.5842	1276.7277	1300.086	1314.4581	1366.593	1392.927	1452.875	1470.9666	1495.6388	1501.7812	1530.2425	2250.1281	2365.2261	2940.2236	2955.7162	2966.5392	2973.3938	3036.753	3065.8648	3071.1791	3113.907	3504.9356
C#CCOCCCC#N	C#CCOCCCC#N	
InChI=1S/C7H9NO/c1-2-6-9-7-4-3-5-8/h1H,3-4,6-7H2	InChI=1S/C7H9NO/c1-2-6-9-7-4-3-5-8/h1H,3-4,6-7H2
