15
gdb 71529	2.59736	1.57452	1.44089	3.2319	70.62	-0.2601	-0.0191	0.241	968.4238	0.111832	-416.705533	-416.698018	-416.697074	-416.737464	28.673	
C	 0.0256231153	 1.4830069944	-0.0696478479	-0.534058
C	 0.0485833925	-0.0104965111	-0.068533631	 0.242905
N	 0.6936013334	-0.8679612745	-1.1119699844	-0.362402
C	 0.1121015221	-1.8785391198	-0.183982725	-0.123838
C	 0.4532656465	-1.0155869808	 1.0614870285	 0.048827
O	-0.8800069857	-1.0939841255	 1.6499583006	-0.343551
C	-1.1462079502	-1.0239933398	 0.2274066489	 0.372534
C	-2.4902643331	-1.0383269945	-0.2782107958	 0.143666
N	-3.5470450349	-1.0318508545	-0.7484897707	-0.339625
H	 1.0450069544	 1.8774004261	-0.1176018229	 0.145981
H	-0.5338525603	 1.8680323539	-0.928165607	 0.140739
H	-0.4522830462	 1.8467835567	 0.8448204753	 0.149587
H	 0.170853963	-0.8334937925	-1.9902726743	 0.22476
H	 0.1783613946	-2.9566904908	-0.3222475835	 0.113835
H	 1.3218379585	-1.0311505674	 1.7147255393	 0.120638
118.2145	143.025	218.7034	241.8902	302.8099	409.2397	496.9127	536.3912	537.6255	613.9291	699.9109	757.4929	788.5715	823.5286	841.0338	882.3629	931.4489	956.2058	1011.5014	1057.8993	1091.5257	1123.0461	1134.8587	1179.701	1224.4026	1264.4652	1283.0178	1320.3779	1367.5308	1415.2139	1480.5555	1486.7747	2346.6518	3040.4329	3111.7767	3121.6736	3139.2777	3167.3533	3421.1834
CC12NC3C1OC23C#N	C[C@@]12N[C@H]3[C@@H]1O[C@@]23C#N	
InChI=1S/C6H6N2O/c1-5-4-3(8-5)6(5,2-7)9-4/h3-4,8H,1H3	InChI=1S/C6H6N2O/c1-5-4-3(8-5)6(5,2-7)9-4/h3-4,8H,1H3/t3-,4-,5+,6+/m0/s1
