16
gdb 27351	2.00622	1.79058	0.95244	5.6914	76.78	-0.2174	-0.0159	0.2015	1182.3952	0.124708	-437.94939	-437.94112	-437.940176	-437.982024	31.412	
C	 0.1314730528	 1.466885363	 0.0044051916	-0.471527
C	-0.0381102635	-0.0158303638	-0.0327338544	 0.384846
C	-1.186099645	-0.7038263682	-0.1045054066	-0.33708
C	-1.2150517819	-2.1768452901	-0.1273880057	 0.401822
O	-2.2589484732	-2.8161444345	-0.1837604734	-0.395525
C	 0.108274029	-2.7749403355	-0.0699620155	-0.370865
C	 1.220840963	-2.004732579	-0.011055117	 0.440701
N	 2.5253568137	-2.4394469146	-0.025692763	-0.566602
O	 1.1785186999	-0.6503593124	 0.0158634669	-0.261123
H	 0.7370658972	 1.8090615971	-0.8419243574	 0.145419
H	-0.8405575104	 1.9600138055	-0.03531053	 0.144341
H	 0.6472876526	 1.7760722079	 0.9202236886	 0.142396
H	-2.1310046027	-0.176172031	-0.1424475942	 0.113033
H	 0.1952092021	-3.8543387866	-0.0812082047	 0.099474
H	 2.6606846644	-3.4036320912	 0.2351078323	 0.268181
H	 3.189969312	-1.8046160166	 0.3917143328	 0.262509
141.9266	166.7795	173.5913	203.3004	281.9199	319.5992	358.3123	503.8467	505.4691	537.8397	545.6078	552.2458	621.151	688.846	732.2855	839.1658	888.2735	910.7038	933.8521	998.0037	1059.0402	1067.5149	1115.7053	1178.3647	1232.9655	1284.5934	1363.863	1417.806	1436.3545	1471.547	1485.0441	1621.7449	1662.4286	1720.6069	1744.712	3038.3814	3092.5766	3147.5956	3208.7223	3214.9632	3580.4285	3692.7082
CC1=CC(=O)C=C(N)O1	Cc1cc(=O)cc(N)o1	
InChI=1S/C6H7NO2/c1-4-2-5(8)3-6(7)9-4/h2-3H,7H2,1H3	InChI=1S/C6H7NO2/c1-4-2-5(8)3-6(7)9-4/h2-3H,7H2,1H3
