12
gdb 129220	3.73683	1.25066	0.93705	4.6964	74.05	-0.2633	-0.1084	0.155	1126.273	0.079317	-427.831432	-427.824371	-427.823427	-427.863254	26.001	
N	-0.0558941631	 1.3774877284	 0.0110181845	-0.53624
C	-0.0234125587	 0.101513063	 0.0036378277	 0.441003
N	 1.1299540043	-0.7065651007	-0.0071339844	-0.301966
N	 1.2041887995	-2.0505285121	-0.0151328127	-0.028928
N	 0.1435066483	-2.7387200943	-0.0133143759	-0.252262
C	-1.0900730328	-2.0660247692	-0.002881789	 0.257728
C	-1.2167667476	-0.7193284854	 0.0054134852	-0.208751
C	-2.2351098125	-2.9274457426	-0.0015836236	 0.27312
N	-3.1715543902	-3.6057109343	-0.0003764592	-0.308905
H	 0.8762518386	 1.7942205654	 0.0083554882	 0.217337
H	 2.0430833273	-0.2723289123	-0.0095994555	 0.281796
H	-2.1778673131	-0.221839816	 0.0133972346	 0.166067
131.1046	145.8365	155.9114	345.9929	407.1046	466.9409	471.7499	552.7774	576.9736	658.3244	676.734	751.1756	764.9314	820.8114	928.7131	946.2771	999.1801	1082.0282	1120.7746	1188.5432	1291.1014	1336.0542	1422.8748	1553.6205	1630.0104	1727.9523	2358.4279	3231.7119	3470.0128	3602.2796
N=C1NN=NC(=C1)C#N	[NH]c1[nH]nnc(c1)C#N	
InChI=1S/C4H3N5/c5-2-3-1-4(6)8-9-7-3/h1H,(H2,6,7,8)	InChI=1S/C4H8N5/c5-2-3-1-4(6)8-9-7-3/h3-4,6-9H,1H2
