18
gdb 16443	4.13375	1.91275	1.69917	1.991	70.72	-0.2388	0.0708	0.3095	837.6653	0.154579	-347.745321	-347.738504	-347.73756	-347.775863	27.441	
C	-0.0283358061	 1.552760009	 0.0545731439	-0.498643
C	 0.0322692799	 0.0525297746	 0.0100488986	 0.346602
C	-0.853156175	-0.8279575308	 0.8465734485	-0.3433
C	 0.6355088809	-0.9521286815	 1.0179345364	-0.108534
C	 1.2392309443	-1.7458888106	-0.1563740169	 0.11674
O	 0.4310475347	-2.8167403832	-0.71485935	-0.300025
C	-0.0655843824	-1.9457330428	-1.7660333152	-0.1097
C	 0.6742934135	-0.7343640759	-1.166056697	-0.127108
H	 0.9318067409	 2.0025402136	-0.2240107658	 0.116024
H	-0.7878653152	 1.9406627157	-0.6358267288	 0.120574
H	-0.2846905769	 1.9071411457	 1.0583541957	 0.119211
H	-1.3589091287	-0.3100892438	 1.6559761028	 0.107422
H	-1.4173642527	-1.6561558061	 0.4314011062	 0.128726
H	 1.1245481731	-0.7717460962	 1.9686058186	 0.080398
H	 2.2958440967	-2.0118980945	-0.0781310277	 0.076142
H	 0.3115166627	-2.2600944099	-2.7472522851	 0.1
H	-1.160962983	-1.9085138423	-1.7958464091	 0.10096
H	 1.3158061532	-0.1421186913	-1.8176720254	 0.074509
168.2822	205.952	265.5006	291.3821	349.3888	443.7663	525.899	617.2156	701.5067	759.232	827.6	855.2813	883.6935	912.131	919.357	960.9665	978.2539	988.2093	1009.8281	1039.7997	1050.2451	1070.4391	1103.2796	1120.4732	1159.9775	1187.6459	1212.4159	1238.5851	1259.3677	1301.4757	1312.2259	1348.1486	1393.8391	1421.9477	1485.0016	1495.2245	1499.3374	1520.327	3014.2257	3017.3207	3059.7738	3073.8769	3081.6585	3095.4591	3118.067	3127.7974	3172.456	3208.4741
CC12CC1C1OCC21	C[C@]12C[C@H]1[C@H]1OC[C@@H]21	
InChI=1S/C7H10O/c1-7-2-4(7)6-5(7)3-8-6/h4-6H,2-3H2,1H3	InChI=1S/C7H10O/c1-7-2-4(7)6-5(7)3-8-6/h4-6H,2-3H2,1H3/t4-,5+,6+,7-/m0/s1
