19
gdb 104354	2.52483	1.49097	1.20489	4.3619	70.51	-0.2653	0.0029	0.2682	1094.5457	0.159809	-460.214144	-460.20543	-460.204486	-460.247279	32.858	
C	 0.0421233606	 1.5082958174	 0.0179111608	-0.427544
C	-0.0587669904	-0.0282730213	-0.049903428	 0.083927
C	-1.5366698653	-0.4760753772	-0.0430350913	-0.093276
O	-2.2467385683	 0.0095589581	 1.0701439501	-0.424423
C	 0.7604268172	-0.6263641754	-1.2061199843	-0.284792
C	 2.1355418666	-0.8629957274	-0.5642080103	-0.092483
O	 1.8774559845	-1.0786542502	 0.8381786018	-0.216988
C	 0.6492029201	-0.6253264001	 1.1706134408	 0.454667
O	 0.2167513494	-0.7125706938	 2.291918451	-0.372737
H	 1.0805534889	 1.8488793695	 0.0792146904	 0.118083
H	-0.4076315167	 1.9452931977	-0.8796369869	 0.121841
H	-0.5003662605	 1.8814112434	 0.888019789	 0.151892
H	-2.0349311171	-0.0839032204	-0.9376072457	 0.105968
H	-1.5739058408	-1.5771035587	-0.1030167173	 0.086791
H	-1.7395446092	-0.2588704783	 1.8514380596	 0.299926
H	 0.3273825431	-1.580481871	-1.5259939939	 0.116814
H	 0.8185946369	 0.0284641513	-2.0782095376	 0.117067
H	 2.6549478814	-1.7456861679	-0.9416247585	 0.131063
H	 2.7984673394	 0.0032353644	-0.6635211696	 0.124204
96.754	163.8115	192.985	207.9851	218.8736	270.8923	306.7019	351.3822	406.6461	525.29	578.1623	649.4409	678.8574	727.4676	766.0121	831.9623	918.4428	950.1018	964.8496	974.8623	1038.0222	1054.2563	1089.8662	1123.7915	1180.7436	1202.143	1217.2457	1225.4291	1247.5284	1305.6908	1344.143	1383.3434	1400.7209	1410.3149	1461.7145	1485.4251	1491.6171	1500.7324	1508.0195	1527.2082	1836.6664	2958.9144	3038.1023	3047.5984	3050.8202	3054.2344	3103.3352	3107.9189	3119.6304	3141.584	3709.8464
CC1(CO)CCOC1=O	C[C@@]1(CO)CCOC1=O	
InChI=1S/C6H10O3/c1-6(4-7)2-3-9-5(6)8/h7H,2-4H2,1H3	InChI=1S/C6H10O3/c1-6(4-7)2-3-9-5(6)8/h7H,2-4H2,1H3/t6-/m0/s1
