21
gdb 63392	3.12561	1.10197	0.94893	2.5139	79.88	-0.2624	-0.0348	0.2275	1312.2598	0.179335	-424.237654	-424.227875	-424.22693	-424.272046	37.239	
C	-0.6475904193	 1.4926719025	-0.0873896732	-0.444499
C	 0.0243366214	 0.1254249476	 0.0238023765	 0.358605
C	-1.0023694469	-0.9945188413	-0.1570622334	-0.447167
C	 1.2963026898	-0.047870447	-0.8668722894	-0.339827
C	 2.1559304293	-0.4189474738	 0.3894562911	 0.352646
O	 3.29731576	 0.3595297158	 0.5890814258	-0.482741
C	 0.9248401684	-0.0550993836	 1.2878184918	-0.339796
C	 2.521519285	-1.8802123109	 0.4475615427	 0.107618
O	 3.6549879534	-2.2521655257	 0.6411599029	-0.282101
H	 0.0774862321	 2.302809119	 0.0403050903	 0.118213
H	-1.1230156645	 1.6184427501	-1.0671607917	 0.114334
H	-1.4237079249	 1.6125445821	 0.677507929	 0.114339
H	-1.4852050387	-0.9268317485	-1.1385433169	 0.11715
H	-0.5477813444	-1.988366275	-0.0819029715	 0.109649
H	-1.7863047353	-0.932614268	 0.6062393027	 0.117146
H	 1.2372591415	-0.7941250257	-1.6651655793	 0.099174
H	 1.6680277279	 0.889032996	-1.2869697521	 0.120684
H	 4.0279436264	-0.2681654609	 0.7115429025	 0.289536
H	 1.1333928497	 0.8787360506	 1.8140548998	 0.120698
H	 0.6029015124	-0.8063606885	 2.0155484457	 0.099182
H	 1.6929883868	-2.6030272248	 0.3027931365	 0.097158
57.2712	92.6046	221.7369	230.6394	248.7445	260.25	319.5336	329.431	349.2028	360.9765	422.4009	430.1353	486.4211	520.7727	676.6885	801.5392	837.9125	839.1102	882.5195	908.5701	930.8368	941.1423	963.6035	999.9796	1025.9937	1079.7554	1100.9106	1101.2429	1213.6678	1220.7275	1232.7853	1283.5498	1299.7512	1317.0844	1387.5311	1404.0404	1420.7713	1439.7406	1458.3403	1477.8592	1482.4279	1489.6076	1503.4337	1505.667	1803.4743	2928.7619	3019.3124	3024.1494	3049.7055	3053.0754	3085.239	3089.7209	3092.232	3098.1858	3119.276	3120.1403	3678.5924
CC1(C)CC(O)(C1)C=O	CC1(C)CC(O)(C1)C=O	
InChI=1S/C7H12O2/c1-6(2)3-7(9,4-6)5-8/h5,9H,3-4H2,1-2H3	InChI=1S/C7H12O2/c1-6(2)3-7(9,4-6)5-8/h5,9H,3-4H2,1-2H3
