18
gdb 36348	5.0891	0.81634	0.77753	4.5561	77.18	-0.2407	0.0343	0.275	1459.8218	0.14714	-401.926845	-401.918146	-401.917202	-401.9612	31.55	
N	-0.042364648	-1.0502090114	-0.8537042073	-0.305324
C	-0.0390492792	-0.013394884	-0.3436815711	 0.270587
C	-0.0182504793	 1.3007288265	 0.3029116636	-0.371573
C	 1.3655953532	 1.9293225245	 0.3092600641	-0.088284
C	 1.9005540137	 2.645558732	-0.923991861	-0.352732
C	 1.5256904022	 3.4181916225	 0.2982937308	 0.445735
C	 0.4991056052	 4.5317887024	 0.4884437781	-0.360798
C	 1.6073806872	 5.1791823319	 1.3477823132	-0.072591
O	 2.5005360331	 4.0640750106	 1.1125626157	-0.304215
H	-0.7294198269	 1.9496473593	-0.2218315974	 0.148663
H	-0.3958253322	 1.1872245268	 1.3263474563	 0.154776
H	 2.1060616942	 1.3922201895	 0.894514731	 0.11865
H	 2.9567123794	 2.534959908	-1.1433335215	 0.134045
H	 1.2590929526	 2.718474172	-1.7976590022	 0.120751
H	 0.2260800813	 5.0772983434	-0.4164319344	 0.121519
H	-0.4071750242	 4.2533322371	 1.0307302406	 0.115754
H	 2.0210086185	 6.1161343981	 0.9598054395	 0.113246
H	 1.3790325192	 5.2965736408	 2.4125410221	 0.111793
51.9521	81.9877	104.2027	181.9965	220.4307	340.0239	382.9715	391.6972	452.8064	517.1542	613.2496	791.7503	833.2987	852.7518	872.2714	887.7036	904.9376	936.5869	969.8072	1005.6388	1020.6841	1056.648	1095.2432	1116.8987	1140.1012	1165.0487	1193.7341	1215.0499	1247.2233	1254.3904	1312.8354	1338.205	1365.406	1417.4826	1461.5923	1483.1249	1491.9461	1533.7095	2362.0427	3033.2868	3035.1345	3071.7432	3072.6142	3077.8114	3125.351	3127.1683	3160.3836	3218.7328
N#CCC1CC11CCO1	N#CC[C@H]1C[C@]21CCO2	
InChI=1S/C7H9NO/c8-3-1-6-5-7(6)2-4-9-7/h6H,1-2,4-5H2	InChI=1S/C7H9NO/c8-3-1-6-5-7(6)2-4-9-7/h6H,1-2,4-5H2/t6-,7-/m0/s1
