16
gdb 32152	3.88906	1.15454	0.89525	1.7474	76.17	-0.2283	-0.0053	0.223	1247.0852	0.125676	-437.950537	-437.942645	-437.941701	-437.982977	29.769	
C	-0.0124058993	 1.4130082697	 0.0493446248	-0.2291
O	-0.0221690087	-0.0124256046	 0.0159412013	-0.265175
C	-1.224920933	-0.6194104159	 0.0021078185	 0.478109
N	-2.3274746024	 0.1225678561	 0.0198577022	-0.377892
C	-3.4946846785	-0.5334577569	 0.0048634567	 0.008052
C	-3.6159668774	-1.9109623239	-0.0273806379	-0.278936
C	-2.4355606551	-2.6704620974	-0.0455646985	 0.428427
O	-2.4370545901	-4.0252808454	-0.0773169257	-0.433382
C	-1.213383976	-2.0184937141	-0.0306835495	-0.330271
H	 1.0415734725	 1.6954613953	 0.055622184	 0.124743
H	-0.5125639622	 1.8333213512	-0.82782116	 0.132825
H	-0.5119881737	 1.7917608468	 0.945561614	 0.132825
H	-4.3875871773	 0.0871485911	 0.0197010061	 0.109237
H	-4.5923234108	-2.384435568	-0.0381634141	 0.085845
H	-3.3472223039	-4.3406640381	-0.0843905218	 0.301234
H	-0.2818499543	-2.5684073958	-0.0438714802	 0.113459
99.3156	168.83	231.6562	236.3115	241.6674	375.7269	403.9645	475.5262	478.6048	530.1373	637.2137	676.1492	764.321	785.6332	799.7107	880.183	952.7247	971.7994	1002.8385	1066.9785	1125.9276	1175.1888	1178.8771	1204.0772	1251.3306	1328.0729	1344.3343	1368.7431	1448.5597	1479.122	1496.3882	1512.962	1520.8513	1615.6632	1663.7549	3041.625	3112.0682	3143.3499	3152.9399	3181.699	3223.352	3817.4078
COC1=NC=CC(O)=C1	COc1nccc(O)c1	
InChI=1S/C6H7NO2/c1-9-6-4-5(8)2-3-7-6/h2-4H,1H3,(H,7,8)	InChI=1S/C6H7NO2/c1-9-6-4-5(8)2-3-7-6/h2-4H,1H3,(H,7,8)
