19
gdb 42018	3.02195	1.60356	1.22285	2.8943	77.1	-0.2423	0.0114	0.2537	1050.8932	0.161918	-423.038151	-423.030594	-423.02965	-423.070791	29.059	
C	 0.3011592295	 1.403723673	-0.5320106241	-0.114606
O	 1.3901039701	 1.8696481769	 0.2629914185	-0.271898
C	 1.835773946	 0.8322721204	 1.1240640047	 0.17187
O	 3.2370437474	 0.6899160501	 1.1189879468	-0.252535
C	 3.7022645308	-0.3740328036	 0.2929167688	-0.079719
C	 3.222719714	-1.7329531187	 0.8266579966	-0.202602
C	 1.6793194624	-1.7255019583	 1.0990370599	-0.315206
C	 1.1329931113	-0.4141037542	 0.6390831662	 0.24576
C	 0.2560615797	-0.0817642183	-0.3015023674	-0.231239
H	-0.6286353497	 1.9092956215	-0.2260604335	 0.107123
H	 0.4767430146	 1.6587214518	-1.5870438007	 0.110918
H	 1.5886385696	 1.1059473394	 2.161854107	 0.07981
H	 3.3743944612	-0.2278633058	-0.7454930027	 0.101616
H	 4.7932391524	-0.3115574142	 0.3096547578	 0.107787
H	 3.4793123047	-2.5109044653	 0.099714749	 0.103198
H	 3.761557696	-1.9629927108	 1.7501400619	 0.110859
H	 1.1800684611	-2.5568177673	 0.5948828469	 0.109548
H	 1.5012972558	-1.851722817	 2.1737711123	 0.115861
H	-0.3774398968	-0.7529704795	-0.868736288	 0.103456
53.1416	107.1022	219.0847	271.0151	335.847	419.4085	494.1317	513.6561	657.8167	673.6299	776.484	784.3591	836.5295	862.8025	904.6818	944.2594	947.6495	963.4048	1010.3223	1037.7568	1043.4897	1069.8202	1101.9316	1120.4169	1184.1722	1196.3081	1208.7852	1263.2582	1266.9271	1296.436	1320.5884	1354.057	1366.2468	1383.4421	1390.0682	1415.3274	1473.2614	1494.7109	1505.2659	1518.1542	1741.1584	2975.4111	2979.5155	3010.8697	3012.2309	3030.3557	3048.0098	3082.5786	3096.3212	3104.2307	3207.5366
C1OC2OCCCC2=C1	C1O[C@@H]2OCCCC2=C1	
InChI=1S/C7H10O2/c1-2-6-3-5-9-7(6)8-4-1/h3,7H,1-2,4-5H2	InChI=1S/C7H10O2/c1-2-6-3-5-9-7(6)8-4-1/h3,7H,1-2,4-5H2/t7-/m0/s1
