16
gdb 55564	3.40825	0.87949	0.7824	6.1811	71.51	-0.2731	-0.0584	0.2147	1449.2655	0.120609	-437.936478	-437.926637	-437.925693	-437.9737	33.251	
C	 0.1989229442	 1.1024392363	 0.0847517962	-0.475333
C	-0.4917949074	-0.0850098516	-0.5403811518	 0.378855
O	-0.0887494615	-0.6327653772	-1.5398563256	-0.288272
C	-1.7541786257	-0.5968889518	 0.1827587344	-0.393867
C	-1.5268641098	-2.0206989096	 0.6948584501	 0.385031
O	-1.3116452215	-2.2544202428	 1.8538224954	-0.262474
C	-1.5715015721	-3.102246539	-0.3918330046	-0.464476
C	-1.1882497395	-4.4262943268	 0.0780592117	 0.286134
N	-0.8861027977	-5.4835010849	 0.4296486799	-0.295638
H	 1.0815735867	 1.3742940278	-0.4944317965	 0.153548
H	-0.4905202289	 1.9525631134	 0.1414603925	 0.150785
H	 0.4837644354	 0.8589930276	 1.1152436667	 0.162673
H	-2.0133587911	 0.032600367	 1.0343830312	 0.137884
H	-2.5691965543	-0.5867789408	-0.5487825063	 0.146259
H	-2.5902119777	-3.1348431811	-0.7998337639	 0.172645
H	-0.9290249192	-2.7760300666	-1.2194997395	 0.206247
14.8328	52.5421	75.6259	145.1447	166.1418	179.0284	291.0127	379.8704	389.3871	427.0168	488.4584	501.206	577.2797	665.1048	783.0358	816.6084	904.8021	929.0691	950.4837	997.9772	1045.4821	1096.6398	1162.4982	1201.8421	1237.8168	1289.8782	1339.952	1383.4958	1441.5458	1457.1326	1466.1193	1470.8777	1802.149	1836.2476	2376.1957	3034.9739	3035.3029	3059.6432	3072.2678	3095.443	3141.8726	3159.2556
CC(=O)CC(=O)CC#N	CC(=O)CC(=O)CC#N	
InChI=1S/C6H7NO2/c1-5(8)4-6(9)2-3-7/h2,4H2,1H3	InChI=1S/C6H7NO2/c1-5(8)4-6(9)2-3-7/h2,4H2,1H3
