18
gdb 84788	2.77914	1.54046	1.20323	0.2975	71.22	-0.254	0.0153	0.2694	1059.5363	0.148265	-439.07775	-439.069743	-439.068798	-439.111146	29.804	
C	-0.2757749647	 1.4833884144	 0.0132714643	-0.394637
C	 0.0692081505	-0.0035595028	-0.0537456372	-0.05467
N	 1.0145846344	-0.2667845543	-1.1577700921	-0.264978
C	 2.0064395574	-0.8517493655	-0.635105587	 0.098448
O	 2.0144933252	-1.1086309322	 0.6965269793	-0.249487
C	 0.7618509359	-0.6056595487	 1.2065786217	 0.318963
C	 0.9260217402	 0.1768882264	 2.5278534342	-0.125283
O	 0.1160087288	-0.7783287779	 3.2414096925	-0.269683
C	 0.0032256821	-1.6241285753	 2.0807603769	-0.118991
H	 0.6119112028	 2.0858301954	 0.2305499122	 0.122698
H	-0.6720356327	 1.8050108541	-0.952827718	 0.136168
H	-1.0309662176	 1.6832896756	 0.7795141812	 0.122615
H	-0.8522862579	-0.5635799915	-0.2584821055	 0.094672
H	 2.8949789934	-1.1861033592	-1.1591433379	 0.142925
H	 1.9632560871	 0.1970177958	 2.8829051838	 0.113554
H	 0.5035686114	 1.1858355441	 2.5680162848	 0.109288
H	-1.0423627207	-1.8076611656	 1.8026036376	 0.105147
H	 0.5286988948	-2.5792593028	 2.2002931892	 0.113251
47.243	71.2635	233.1483	273.4035	291.93	306.9251	402.1137	459.656	503.5399	579.0596	740.7659	803.6713	854.8445	873.6639	934.3083	946.8726	962.7519	987.4776	1015.5395	1040.3662	1074.2885	1105.4358	1140.4486	1153.4891	1156.0054	1162.1283	1188.2144	1242.7345	1305.1909	1308.3683	1336.3552	1362.0445	1382.8385	1407.1277	1488.7254	1496.5299	1501.0955	1525.8232	1711.1103	3010.8589	3018.2584	3030.6373	3040.6191	3065.4267	3083.2277	3112.1623	3127.1335	3215.8153
CC1N=COC11COC1	C[C@H]1N=COC21COC2	
InChI=1S/C6H9NO2/c1-5-6(2-8-3-6)9-4-7-5/h4-5H,2-3H2,1H3	InChI=1S/C6H9NO2/c1-5-6(2-8-3-6)9-4-7-5/h4-5H,2-3H2,1H3/t5-/m1/s1
