20
gdb 93421	3.01808	1.21988	0.91998	4.445	82.9	-0.2366	-0.0239	0.2128	1288.6304	0.172902	-403.197847	-403.189163	-403.188219	-403.231287	33.156	
C	-0.0385644641	 1.5838132495	-0.0598536913	-0.401578
C	-0.0504993397	 0.0499181408	-0.0270030937	 0.015306
C	 0.7728812952	-0.5286934622	-1.1911453672	-0.168584
N	 0.3817091249	-1.8724046476	-1.5724942159	-0.320754
C	 0.3525620326	-3.0086698804	-0.8117323732	 0.358654
O	 0.0818695298	-4.089326347	-1.3173750463	-0.383534
C	 0.6638903925	-2.9393753823	 0.6430438807	-0.127471
C	 0.6968972863	-1.9211313525	 1.5089877579	-0.070493
C	 0.4623833582	-0.4500346666	 1.3288100601	-0.251454
H	 0.9865601237	 1.9708865671	-0.0154312035	 0.117903
H	-0.50066242	 1.9651008137	-0.9758562441	 0.116004
H	-0.5856948274	 2.0021106492	 0.790937847	 0.118258
H	-1.0818480102	-0.2977284959	-0.16313807	 0.090599
H	 0.6322821552	 0.0951271072	-2.0784979754	 0.108387
H	 1.8438821807	-0.4807405476	-0.9413461592	 0.110557
H	 0.1788242701	-2.0522992189	-2.5438537625	 0.244466
H	 0.8442019685	-3.9394960803	 1.0255684165	 0.112167
H	 0.9370824407	-2.1861204815	 2.5386532687	 0.101458
H	 1.4088230706	 0.0639659419	 1.5639508076	 0.114777
H	-0.2292645676	-0.1206739766	 2.1170571242	 0.115333
69.4963	104.6151	204.0172	226.611	310.0783	331.0683	333.0407	367.2404	422.7589	495.0758	527.3338	614.1586	647.5661	735.3187	825.9212	843.5057	846.7053	900.9541	911.9158	949.8485	1012.7903	1036.1405	1095.6839	1114.3783	1138.896	1169.8408	1234.7269	1253.3871	1307.0686	1323.1719	1332.582	1384.8242	1394.2256	1407.7219	1418.8924	1435.1603	1461.0633	1471.8984	1495.9761	1500.5436	1507.7446	1705.604	1756.9723	2981.1948	2987.94	3019.4443	3027.5041	3040.4516	3080.8379	3094.4016	3105.3799	3124.7934	3181.5516	3625.1548
CC1CNC(=O)C=CC1	C[C@H]1CNC(=O)C=CC1	
InChI=1S/C7H11NO/c1-6-3-2-4-7(9)8-5-6/h2,4,6H,3,5H2,1H3,(H,8,9)	InChI=1S/C7H11NO/c1-6-3-2-4-7(9)8-5-6/h2,4,6H,3,5H2,1H3,(H,8,9)/t6-/m1/s1
