15
gdb 34129	3.59154	1.48904	1.3914	4.5741	69.4	-0.2596	0.006	0.2657	934.058	0.115108	-416.760281	-416.753938	-416.752994	-416.790991	25.722	
N	 0.0014651172	-1.120721072	 0.0299262172	-0.337678
C	-0.0130898273	 0.0354736498	 0.0380157105	 0.173785
C	-0.0136204025	 1.4776338903	 0.0249108341	 0.171457
C	-0.8404020078	 2.2377005599	-1.0467849956	-0.256309
C	-0.0522681534	 3.5405941171	-0.8421177618	 0.038664
O	 1.2781400552	 3.1363894184	-1.286959054	-0.2753
C	 1.3344037528	 2.3920966913	-0.0892948821	 0.079145
C	 0.4062440005	 3.3334537686	 0.6851154654	-0.060452
N	-0.2903708359	 2.2016415643	 1.2962237194	-0.332744
H	-0.7199843895	 1.8618096855	-2.0637203652	 0.137844
H	-1.8994384378	 2.2786423576	-0.7792753457	 0.112734
H	-0.3995726035	 4.4771937774	-1.2718937377	 0.098283
H	 2.2956314239	 1.9793734769	 0.2041892412	 0.121502
H	 0.708552409	 4.1859346967	 1.2886931595	 0.104311
H	-1.2834891109	 2.3328163381	 1.4866886548	 0.224757
148.9328	164.2413	403.8122	460.2355	477.0728	551.626	564.8262	581.5082	697.922	724.9245	780.3264	832.3491	858.8715	895.7143	936.4364	951.5662	976.9116	1006.1446	1030.7401	1041.0934	1067.1795	1109.4083	1148.8826	1167.5512	1209.0607	1226.0642	1266.0217	1271.4647	1315.863	1325.1379	1349.196	1472.2845	2354.9869	3073.6558	3141.164	3150.9159	3158.6303	3173.1804	3460.858
N#CC12CC3OC1C3N2	N#C[C@]12C[C@@H]3O[C@H]1[C@@H]3N2	
InChI=1S/C6H6N2O/c7-2-6-1-3-4(8-6)5(6)9-3/h3-5,8H,1H2	InChI=1S/C6H6N2O/c7-2-6-1-3-4(8-6)5(6)9-3/h3-5,8H,1H2/t3-,4+,5-,6+/m0/s1
