23
gdb 106326	2.68881	1.2238	1.02784	0.9366	86.39	-0.2339	0.0838	0.3177	1306.9958	0.204236	-388.253801	-388.243832	-388.242888	-388.288294	37.512	
C	-0.4108402547	 1.6854646314	 0.8473763741	-0.255232
O	-0.3529483282	 0.2716512562	 0.9110495693	-0.27793
C	-1.5794517666	-0.3340102532	 0.7170653845	 0.423231
C	-2.6160716987	-0.5176405155	 1.8403896971	-0.341065
C	-2.7928985532	-2.0093879351	 1.385050251	 0.053107
C	-4.1823568974	-2.589451322	 1.1417053874	-0.413123
C	-1.8244575284	-1.7513145554	 0.2172632767	-0.195767
C	-2.1700779216	-0.5447841345	-0.6484514638	-0.055853
C	-3.5324614781	-0.0961035414	-1.1397386262	-0.423966
H	 0.6039288233	 2.0562191304	 1.0097055829	 0.12482
H	-0.7679216527	 2.030094444	-0.1336040462	 0.107807
H	-1.068987788	 2.1022432427	 1.6234951431	 0.109658
H	-2.1683983987	-0.4316494688	 2.832766251	 0.106389
H	-3.5054248792	 0.1194949292	 1.7997491289	 0.091373
H	-2.2780277881	-2.64626247	 2.1124533552	 0.07971
H	-4.7707412017	-1.9923229114	 0.4412702204	 0.117278
H	-4.1103019865	-3.6030503187	 0.7313383268	 0.113769
H	-4.7450338462	-2.6534284084	 2.080079277	 0.111113
H	-1.0968324253	-2.472550586	-0.1384030355	 0.085348
H	-1.3912550687	-0.4259192768	-1.4013874587	 0.089193
H	-4.2617724564	 0.0009185076	-0.332551735	 0.121419
H	-3.4555950631	 0.8840694398	-1.6238909003	 0.111457
H	-3.9429713717	-0.7956654541	-1.8764505297	 0.117262
72.9422	132.8327	164.3003	183.0093	194.62	230.0314	239.7851	282.5622	338.6586	369.5545	416.4214	472.5543	582.334	640.3338	684.1629	762.9219	825.5067	885.8754	892.454	957.8578	975.9535	988.8968	1029.6826	1053.6616	1080.0948	1097.3155	1120.1588	1130.3481	1151.2327	1179.9881	1183.605	1207.8181	1234.3559	1249.8391	1259.1638	1303.8652	1339.5508	1376.379	1409.51	1413.7566	1448.9148	1479.6219	1487.1879	1489.8368	1497.1436	1502.371	1505.8258	1506.7206	1510.181	2987.4626	3029.8948	3030.9941	3039.1732	3039.8017	3049.2846	3084.1258	3088.2787	3108.254	3110.8568	3117.4135	3122.0289	3129.6054	3170.5153
COC12CC(C)C1C2C	CO[C@]12C[C@@H](C)[C@H]1[C@H]2C	
InChI=1S/C8H14O/c1-5-4-8(9-3)6(2)7(5)8/h5-7H,4H2,1-3H3	InChI=1S/C8H14O/c1-5-4-8(9-3)6(2)7(5)8/h5-7H,4H2,1-3H3/t5-,6-,7+,8+/m1/s1
