18
gdb 18529	5.52869	1.12786	1.06709	1.0705	68.29	-0.2495	0.0892	0.3387	1150.9238	0.152829	-384.883858	-384.875834	-384.87489	-384.916872	28.977	
C	 0.0781598159	 1.3801803577	-0.0120869824	-0.224719
O	 0.1347150156	-0.0254044648	-0.0270044081	-0.23567
C	 0.569858916	-0.5696210719	 1.2022590916	-0.065138
C	 0.6338613558	-2.0764357705	 1.0576260966	-0.03129
C	 1.7254573468	-2.6874622615	 0.1025500355	-0.259338
C	 2.2942940262	-3.4374994712	 1.3137007675	 0.035331
O	 2.6571089897	-2.4529426626	 2.2904662404	-0.244861
C	 1.2843881673	-2.8580476456	 2.2143409096	 0.000744
H	 1.0634134085	 1.8277519218	 0.1944523075	 0.10434
H	-0.2577982868	 1.7062438451	-0.9996459638	 0.124981
H	-0.6304143359	 1.7535342836	 0.7448644682	 0.101603
H	 1.5638008979	-0.1799119144	 1.4717205561	 0.102126
H	-0.1255994505	-0.2910917407	 2.0144238613	 0.07995
H	-0.3562471068	-2.472230091	 0.8140091698	 0.084826
H	 1.2948151988	-3.3419271446	-0.6579848591	 0.108115
H	 2.4102856024	-1.9795228745	-0.3694364579	 0.114483
H	 2.8145594579	-4.3872326402	 1.3570461325	 0.103955
H	 0.8325131014	-3.2421774946	 3.1219988146	 0.100562
72.8582	99.7798	125.7386	209.0313	240.8683	342.1733	365.0204	466.9512	567.5304	731.1463	819.4134	842.4652	865.1068	890.7939	932.0369	968.4557	986.8222	1008.8855	1048.6645	1089.3784	1113.6657	1156.0129	1174.1582	1194.368	1206.3702	1231.067	1238.6121	1241.1599	1264.7035	1280.1712	1344.7294	1386.3902	1426.5511	1473.1226	1479.8378	1484.5273	1504.1344	1529.7008	2942.7506	2968.1509	3001.1299	3010.4511	3071.4516	3076.6032	3111.2903	3130.5731	3176.2033	3192.954
COCC1CC2OC12	COC[C@H]1C[C@H]2O[C@@H]12	
InChI=1S/C6H10O2/c1-7-3-4-2-5-6(4)8-5/h4-6H,2-3H2,1H3	InChI=1S/C6H10O2/c1-7-3-4-2-5-6(4)8-5/h4-6H,2-3H2,1H3/t4-,5-,6+/m1/s1
