19
gdb 126693	3.12583	1.19587	0.96011	3.2891	78.61	-0.2067	0.0073	0.214	1263.0991	0.159318	-419.196245	-419.187196	-419.186252	-419.230637	32.847	
C	-0.1333955389	 1.5391624267	-0.0147674487	-0.380983
C	-0.0036421865	 0.009939828	-0.0084643981	-0.164828
N	-1.2671291129	-0.7133046962	 0.0378603536	-0.143269
C	-2.0504746771	-0.7868426098	-1.1857018395	-0.334413
C	-1.9487274218	-0.8049377004	 1.2252897983	 0.475193
N	-3.2429949276	-1.083707051	 1.2473512202	-0.253682
O	-3.5832417693	-1.1746033117	 2.6069934023	-0.179942
C	-2.4953003945	-0.9259787882	 3.3393395643	 0.088292
C	-1.4207755503	-0.6774099828	 2.5550650757	-0.358614
H	 0.8558686578	 2.0064149801	-0.0578630195	 0.116924
H	-0.7064679392	 1.8840211813	-0.8807982208	 0.125926
H	-0.6392492854	 1.8926504144	 0.8888799523	 0.130352
H	 0.5250274756	-0.3214657621	-0.9091367444	 0.1086
H	 0.6108546449	-0.3099301663	 0.8391455523	 0.114226
H	-1.3720151164	-0.9309466979	-2.0308600301	 0.115363
H	-2.734686881	-1.6356696918	-1.1264149322	 0.156313
H	-2.6552194258	 0.11381677	-1.3648643386	 0.121924
H	-2.6282498019	-0.9612411387	 4.4103277624	 0.145974
H	-0.4168822898	-0.4499192536	 2.8682000603	 0.116646
65.5497	71.9602	142.0794	165.0805	214.726	263.3542	299.3051	389.6766	436.5024	506.7909	587.2191	607.3772	724.4114	766.6561	793.1716	865.1362	878.8504	912.4383	932.8327	974.7146	1030.1135	1081.8786	1097.5764	1109.2999	1152.9711	1176.8246	1213.9341	1281.1858	1313.1989	1377.2575	1388.0367	1408.1749	1443.4656	1452.2704	1479.7356	1487.5963	1492.5246	1506.3258	1511.8017	1554.7349	1630.2975	3001.3314	3038.0564	3041.5812	3077.4648	3084.1412	3109.3145	3117.5676	3132.702	3254.0257	3289.4885
CCN(C)C1=NOC=C1	CCN(C)c1nocc1	
InChI=1S/C6H10N2O/c1-3-8(2)6-4-5-9-7-6/h4-5H,3H2,1-2H3	InChI=1S/C6H10N2O/c1-3-8(2)6-4-5-9-7-6/h4-5H,3H2,1-2H3
