14
gdb 25512	4.56662	1.14271	0.914	4.9998	73.98	-0.247	-0.0447	0.2023	1179.6365	0.103674	-432.942331	-432.935052	-432.934108	-432.975112	26.191	
O	 1.8946004262	 4.1960520128	 0.1828127898	-0.253591
C	 1.0640931732	 3.3323245036	 0.1358358262	 0.160397
N	 1.2703775028	 1.9644849512	-0.0039555134	-0.397306
C	 2.4530664529	 1.2382161947	-0.1243402188	 0.460498
N	 3.6198890662	 1.8776496008	-0.1144930492	-0.28125
C	 4.7081200663	 1.1167517886	-0.2339615782	 0.076315
N	 4.7691588266	-0.2072456618	-0.3622545086	-0.258909
C	 3.5828805529	-0.8295426469	-0.3697522825	 0.033063
C	 2.3804442959	-0.157661118	-0.2536275854	-0.229625
H	-0.0259999121	 3.5295544226	 0.2016403142	 0.082791
H	 0.4256744743	 1.4122800084	-0.0202912656	 0.256397
H	 5.6571941503	 1.6476424206	-0.2248830091	 0.12804
H	 3.6019130606	-1.9119222705	-0.4733020145	 0.121797
H	 1.4335331438	-0.6864720062	-0.2625018348	 0.101383
38.8356	158.1347	168.4184	277.905	348.9729	383.987	525.1865	565.9878	606.2905	682.6212	801.1069	803.7583	846.6405	888.1392	986.394	1001.4119	1022.452	1023.9202	1098.0499	1125.1711	1203.4555	1242.1408	1313.4679	1354.3792	1419.1366	1452.9299	1507.461	1516.4012	1616.8832	1628.3088	1851.6988	2918.405	3158.1111	3167.2367	3188.3896	3616.0074
O=CNC1=NC=NC=C1	O=CNc1ncncc1	
InChI=1S/C5H5N3O/c9-4-8-5-1-2-6-3-7-5/h1-4H,(H,6,7,8,9)	InChI=1S/C5H5N3O/c9-4-8-5-1-2-6-3-7-5/h1-4H,(H,6,7,8,9)
