19
gdb 79774	3.04505	1.9343	1.75247	1.7536	77.37	-0.1948	0.0566	0.2513	881.0395	0.161872	-381.964375	-381.957697	-381.956753	-381.995258	27.617	
C	-0.3956820688	 1.514221341	 0.0176362131	-0.345192
N	 0.1325407681	 0.167037512	 0.0755499575	-0.043239
C	 1.0230996745	-0.4691601754	-0.8988877937	-0.041906
C	 2.5474820364	-0.0357794615	-0.8101108139	-0.01522
C	 2.8176383236	 1.0690574844	 0.2246191231	-0.250779
C	 2.4196636036	 0.0029125587	 1.2586569592	-0.015209
C	 0.8949450291	-0.4303258774	 1.1752269593	-0.041912
C	 1.3739103573	-1.5283228931	 0.1839913265	 0.001182
N	 2.8195685351	-1.0988847846	 0.2652799855	-0.173262
H	 0.332809226	 2.3363158627	 0.0468615958	 0.106009
H	-0.9773422229	 1.6198248039	-0.9054086322	 0.123368
H	-1.0856990638	 1.6531274861	 0.8579121335	 0.123373
H	 0.6041653513	-0.6534053807	-1.8910661649	 0.070192
H	 3.1262889628	-0.0859446462	-1.7351195659	 0.068344
H	 3.8923246128	 1.2632225414	 0.2873780621	 0.114342
H	 2.2852387071	 2.0168680219	 0.174025273	 0.104044
H	 2.8801048185	-0.0114376422	 2.2490933884	 0.068341
H	 0.3566488441	-0.5784095521	 2.1144703438	 0.070193
H	 1.0836623253	-2.5779142888	 0.1857073796	 0.077331
105.564	229.1541	239.0879	343.3147	493.7516	557.2029	601.4529	702.628	742.0514	768.9918	770.5987	807.0748	850.384	877.9702	918.8018	923.1924	962.8188	974.4055	983.997	992.8946	1029.3519	1086.8229	1099.1435	1125.7914	1149.0224	1167.2437	1177.6213	1185.3964	1216.761	1223.2288	1238.7278	1267.5206	1270.9268	1287.6079	1306.1146	1309.0145	1358.5333	1445.6657	1470.0023	1503.1918	1511.5954	2995.6926	3051.9882	3062.8678	3071.2513	3071.4579	3081.4114	3086.5518	3086.6584	3123.1164	3147.9842
CN1C2C3CC4C1C2N34	CN1[C@H]2[C@H]3C[C@H]4[C@@H]1[C@@H]2N34	
InChI=1S/C7H10N2/c1-8-5-3-2-4-6(8)7(5)9(3)4/h3-7H,2H2,1H3	InChI=1S/C7H10N2/c1-8-5-3-2-4-6(8)7(5)9(3)4/h3-7H,2H2,1H3/t3-,4+,5+,6-,7-
