18
gdb 30832	2.46422	1.28736	0.89592	2.8698	76.85	-0.1712	0.0487	0.22	1306.8813	0.148438	-435.315852	-435.306384	-435.30544	-435.35025	34.78	
C	-0.4240313965	 1.5859084344	 0.2305653986	-0.362848
C	 0.0971515487	 0.1599602854	-0.0297715451	-0.311149
C	 0.8367538861	-0.4437762866	 1.1141423794	 0.202571
C	 2.1524182465	-0.7527506726	 1.3120190892	 0.265066
O	 3.1635099176	-0.5865187406	 0.4236832417	-0.446433
N	 2.3944028362	-1.2605439722	 2.5658353285	-0.399882
C	 1.2140396322	-1.2816063097	 3.1499811653	 0.379361
N	 0.9422494719	-1.8081495264	 4.4116006938	-0.596599
N	 0.2398670759	-0.7940473232	 2.3415632823	-0.351137
H	 0.4029059403	 2.2644749862	 0.4595134926	 0.124964
H	-0.9577170239	 1.9743397049	-0.6430460596	 0.109996
H	-1.1156836056	 1.6093894354	 1.0800016944	 0.102006
H	-0.7467207085	-0.4803542518	-0.3272910551	 0.095332
H	 0.781034174	 0.1718488883	-0.8843501642	 0.128315
H	 3.9604613364	-0.9000758364	 0.8664921278	 0.296088
H	 0.4223057837	-1.1763512425	 5.0097503702	 0.247335
H	 1.8102002844	-2.0669585664	 4.8638430807	 0.259727
H	-0.7483864093	-0.8374576463	 2.5224030695	 0.257288
51.2113	117.6314	182.3293	212.8733	238.6655	274.1163	281.0146	315.4729	329.4356	395.017	455.3713	538.2534	611.5503	650.7946	687.8353	724.6975	777.2692	793.651	829.0653	965.9184	1046.6684	1055.6844	1080.	1122.3028	1155.7501	1226.4326	1252.6687	1321.5608	1346.638	1367.9217	1405.8479	1445.583	1475.7873	1495.8858	1504.1667	1523.5705	1597.4099	1651.7612	1709.2951	2991.3002	3030.6913	3076.0113	3099.088	3112.984	3524.3424	3623.3487	3668.6702	3813.3921
CCC1=C(O)N=C(N)N1	CCc1c(O)nc(N)[nH]1	
InChI=1S/C5H9N3O/c1-2-3-4(9)8-5(6)7-3/h9H,2H2,1H3,(H3,6,7,8)	InChI=1S/C5H9N3O/c1-2-3-4(9)8-5(6)7-3/h9H,2H2,1H3,(H3,6,7,8)
