20
gdb 102830	1.7055	1.49444	0.90525	4.1916	76.44	-0.2444	0.0355	0.28	1326.6762	0.170427	-440.292535	-440.282711	-440.281767	-440.327878	35.354	
O	 0.0268494765	 1.6027407379	-0.0668619708	-0.429798
C	 0.1332001801	 0.1979211281	-0.2833215355	-0.101363
C	-1.2298182885	-0.4125830558	 0.039960532	 0.009305
N	-1.5772785924	-0.0568130113	 1.4133462726	-0.271223
C	-2.1807543435	-0.9122133221	 2.2725008464	 0.160376
O	-2.4981790678	-2.0582448757	 2.0188759667	-0.338508
C	-2.2951712719	 0.0082148557	-0.9573754002	 0.028949
C	-2.5350588607	-0.8377924317	-2.1841249788	-0.27327
C	-3.5577326729	-0.8028016547	-1.0752208527	-0.276304
H	 0.8875502206	 2.0032084716	-0.2165866822	 0.295142
H	 0.3927394971	-0.02799991	-1.3270466847	 0.101905
H	 0.8993544331	-0.2428143453	 0.3708192095	 0.096573
H	-1.1400365106	-1.5032580482	 0.0208036697	 0.108309
H	-1.3667615396	 0.8846051973	 1.7066776815	 0.254271
H	-2.3507046669	-0.4487119951	 3.2649164598	 0.073319
H	-2.3822126795	 1.0831850091	-1.0820741888	 0.090755
H	-2.763023705	-0.3353227137	-3.1176076804	 0.109317
H	-1.948722451	-1.7438807923	-2.3022773552	 0.110035
H	-3.6455203008	-1.6726760926	-0.4342897499	 0.144502
H	-4.4891623663	-0.276657051	-1.2527833091	 0.107708
64.3868	80.3603	112.5859	155.9203	186.1331	242.7465	259.7258	270.1098	318.5988	396.7742	485.0357	581.8986	624.9414	744.7052	793.8155	836.0877	860.5402	920.3526	942.9931	961.7853	987.6888	1032.6083	1060.8088	1085.9631	1105.0958	1110.8357	1143.5443	1170.1954	1192.8014	1201.7571	1227.9792	1240.8637	1276.3573	1322.0995	1336.5258	1426.9051	1428.802	1449.7757	1474.3609	1503.1685	1512.2097	1519.1382	1791.0376	2932.0635	2990.8966	3032.4611	3074.3091	3127.885	3139.2585	3157.8716	3208.5437	3230.2303	3633.8163	3841.6198
OCC(NC=O)C1CC1	OC[C@@H](NC=O)C1CC1	
InChI=1S/C6H11NO2/c8-3-6(7-4-9)5-1-2-5/h4-6,8H,1-3H2,(H,7,9)	InChI=1S/C6H11NO2/c8-3-6(7-4-9)5-1-2-5/h4-6,8H,1-3H2,(H,7,9)/t6-/m1/s1
