15
gdb 19258	2.97647	2.31379	1.77321	1.4288	60.67	-0.2556	-0.0571	0.1985	774.1138	0.118902	-399.7481	-399.741082	-399.740138	-399.779304	26.395	
O	 0.474678633	 1.2501893687	 0.0848099955	-0.432995
C	 0.111220488	-0.0892811489	-0.0555900268	 0.116403
C	-1.3624525038	-0.5041646398	-0.0402480803	-0.046056
C	-2.0784716754	-0.0822128862	-1.2538937084	-0.26079
N	-1.2295137172	-1.2915388731	-1.3485863242	-0.153243
C	 0.2176917308	-0.8047238938	-1.4427376218	-0.108956
C	 0.4876176983	 0.0180780337	-2.6718957815	 0.162541
O	 0.3373016884	 1.2210227523	-2.7248496293	-0.262875
H	 0.2808860571	 1.6939730013	-0.7528540313	 0.298603
H	 0.6725388844	-0.6506575502	 0.6963908062	 0.104358
H	-1.8772539485	-0.9303879924	 0.8145270216	 0.102304
H	-3.133392796	-0.3304392558	-1.3118266557	 0.132523
H	-1.7989280643	 0.8237240816	-1.7827369961	 0.138248
H	 0.8690167776	-1.6821272932	-1.4349677475	 0.099774
H	 0.8030095874	-0.5445436642	-3.5753015303	 0.110162
106.443	159.511	219.284	269.5285	378.0494	421.2278	531.9732	568.6791	658.9513	732.3418	754.6275	789.9026	849.4408	889.8185	961.5496	1007.5348	1036.0919	1058.8464	1073.2626	1126.07	1139.7741	1175.2983	1212.0137	1235.7645	1261.4155	1334.9486	1357.8748	1380.8313	1421.708	1465.3807	1508.1015	1784.3165	2917.5845	3070.5867	3084.7147	3129.1068	3169.2499	3214.6236	3735.3087
OC1C2CN2C1C=O	O[C@H]1[C@H]2CN2[C@H]1C=O	
InChI=1S/C5H7NO2/c7-2-4-5(8)3-1-6(3)4/h2-5,8H,1H2	InChI=1S/C5H7NO2/c7-2-4-5(8)3-1-6(3)4/h2-5,8H,1H2/t3-,4+,5+,6?/m1/s1
