16
gdb 60679	2.23253	1.41291	1.17143	3.3727	69.61	-0.2903	-0.0673	0.223	1112.6097	0.121906	-437.882391	-437.873378	-437.872434	-437.916424	32.564	
O	 0.030391497	 1.5024579984	 0.0632048582	-0.440125
C	-0.0148238278	 0.1109791687	-0.0703573913	 0.132257
C	 0.7451942157	-0.5407754649	 1.1083361517	 0.132927
O	 1.2663917775	 0.139630193	 1.9508536367	-0.248179
C	-1.4118121331	-0.3806007623	 0.0118019253	 0.253593
N	-2.4916705307	-0.7851129198	 0.0901326439	-0.338356
C	 0.6539573362	-0.3290732187	-1.3701199882	-0.009668
C	 0.3310715611	-1.6399086536	-2.0477277121	-0.288678
C	-0.0947369874	-0.339502455	-2.676176091	-0.27806
H	 0.431834591	 1.6720779896	 0.9324764408	 0.30299
H	 0.7909124331	-1.6443964417	 1.1065219233	 0.132071
H	 1.6861769849	 0.0063660572	-1.4009102725	 0.111595
H	 1.1547533208	-2.1908001898	-2.4865727837	 0.124128
H	-0.4480444003	-2.2616023599	-1.620366532	 0.140731
H	-1.1509608108	-0.0958164524	-2.6555426744	 0.145229
H	 0.433331723	 0.0164629211	-3.5527559748	 0.127545
74.7099	93.9709	138.5084	177.669	213.0301	301.0232	324.4269	365.8646	420.1934	473.9961	512.7202	579.3724	614.0753	783.6714	811.462	829.9382	877.2584	937.1363	957.5892	1005.7516	1046.0452	1069.8322	1093.6111	1132.6096	1167.1128	1196.0249	1199.0974	1237.8054	1366.6418	1380.5204	1426.583	1467.7323	1502.3791	1826.2552	2348.3798	2985.9266	3141.2908	3145.9549	3157.9647	3223.1364	3237.2663	3665.9154
OC(C=O)(C#N)C1CC1	O[C@@](C=O)(C#N)C1CC1	
InChI=1S/C6H7NO2/c7-3-6(9,4-8)5-1-2-5/h4-5,9H,1-2H2	InChI=1S/C6H7NO2/c7-3-6(9,4-8)5-1-2-5/h4-5,9H,1-2H2/t6-/m1/s1
