18
gdb 52459	5.51244	0.53023	0.50448	1.3102	71.89	-0.2565	-0.0382	0.2183	2072.5495	0.144637	-476.240064	-476.229698	-476.228754	-476.27845	33.927	
O	-0.1472544497	 0.4780089861	 0.9284932335	-0.231548
C	 0.1025492875	 1.1957084968	-0.0016702202	 0.140482
C	 1.3539871276	 2.0527134459	-0.0910678864	-0.143751
O	 1.3042739874	 2.7818326396	-1.2910979528	-0.259067
C	 2.4282519377	 3.6209400633	-1.4994833544	-0.062158
C	 2.2007376124	 4.384436908	-2.7947155826	-0.171085
N	 1.0030023758	 5.1999392994	-2.7287611017	-0.269714
C	 1.0102372917	 6.5455344983	-2.9235140728	 0.157254
O	 1.9870720619	 7.20716966	-3.2050370643	-0.322696
H	-0.5674354955	 1.2925607303	-0.8847780447	 0.093398
H	 1.3996530642	 2.7110288824	 0.7924749741	 0.127882
H	 2.2370603113	 1.3932943826	-0.046567744	 0.127654
H	 2.5414652388	 4.3215176416	-0.6575146734	 0.107089
H	 3.3491723017	 3.0206712385	-1.5699642435	 0.100946
H	 3.0362881059	 5.0596132867	-2.9905524865	 0.153568
H	 2.1312135813	 3.6708349323	-3.6251158985	 0.120861
H	 0.1448862854	 4.7466233115	-2.4584497795	 0.254147
H	-0.0001352154	 6.9822419367	-2.7978899123	 0.07674
28.7304	40.9023	49.7578	95.2782	121.1775	156.3672	222.6979	247.4202	344.3072	391.7615	476.5112	558.9484	592.6177	739.9185	756.09	863.0502	917.4918	1031.5348	1034.6391	1057.6723	1091.3184	1114.5146	1134.6332	1168.8988	1214.2226	1237.4006	1258.9076	1290.7355	1345.0331	1388.0875	1401.1138	1429.2204	1432.7717	1479.3238	1481.8991	1516.5625	1527.5577	1805.4682	1847.8923	2893.7494	2940.423	2965.5566	2977.9709	2996.8736	3011.4802	3038.0649	3127.4295	3644.1558
O=CCOCCNC=O	O=CCOCCNC=O	
InChI=1S/C5H9NO3/c7-2-4-9-3-1-6-5-8/h2,5H,1,3-4H2,(H,6,8)	InChI=1S/C5H9NO3/c7-2-4-9-3-1-6-5-8/h2,5H,1,3-4H2,(H,6,8)
