15
gdb 44761	2.71724	1.70296	1.25018	5.9318	70.24	-0.2563	-0.0347	0.2216	981.2954	0.114173	-416.802675	-416.795551	-416.794607	-416.834299	27.589	
O	-0.0055392728	 0.0528343564	-0.0597662799	-0.300317
C	-0.0163836171	 1.2441902493	-0.0089184583	 0.453756
C	-1.1903813127	 2.2398066265	 0.0435327929	-0.318976
C	-0.3485696504	 3.5249487438	 0.0364658106	-0.020516
C	 0.7043208109	 3.2676010081	-1.0726569702	-0.27152
C	 1.1851529506	 2.2320328016	-0.0053394689	 0.085845
N	 0.6807683767	 3.1629740429	 1.092843282	-0.34921
C	 2.523453912	 1.7048906307	 0.0540390082	 0.171254
N	 3.605026863	 1.2993506711	 0.088048191	-0.327658
H	-1.8506963203	 2.123658513	-0.819560951	 0.137159
H	-1.7674167058	 2.1140329996	 0.9620231319	 0.151712
H	-0.8635560531	 4.476976854	 0.1440305753	 0.098423
H	 0.3859678559	 2.9032648916	-2.0542306813	 0.124397
H	 1.4214651545	 4.0843390248	-1.1767187608	 0.130143
H	 1.3522127085	 3.9308425567	 1.1528084485	 0.235509
126.1568	135.2063	195.1888	390.2411	401.4044	479.0274	509.1279	524.0176	606.9382	615.7535	633.951	768.6635	830.8912	879.6377	906.3336	916.2931	966.3739	975.1583	1011.2293	1031.4197	1089.8318	1123.386	1161.563	1200.4153	1234.7885	1252.9961	1294.0296	1301.0616	1364.2022	1448.804	1497.4246	1900.9707	2361.0621	3054.2087	3077.7119	3127.9561	3133.1461	3146.6148	3443.1756
O=C1CC2CC1(N2)C#N	O=C1C[C@@H]2C[C@]1(N2)C#N	
InChI=1S/C6H6N2O/c7-3-6-2-4(8-6)1-5(6)9/h4,8H,1-2H2	InChI=1S/C6H6N2O/c7-3-6-2-4(8-6)1-5(6)9/h4,8H,1-2H2/t4-,6+/m1/s1
