17
gdb 32437	3.21694	1.19877	0.88224	0.4978	72.11	-0.164	0.0598	0.2238	1272.8355	0.135403	-455.153632	-455.143978	-455.143034	-455.187775	35.209	
C	 0.0403918798	 1.3927988567	-0.0680726332	-0.317033
N	-0.1544418045	-0.0385981127	 0.0741386592	-0.397782
C	 0.5660281267	-0.6746691613	 1.0917399419	 0.22329
C	 1.2432748548	-0.1276652335	 2.1584254533	-0.19617
N	 1.7213517817	-1.1848047317	 2.9380093985	-0.32549
C	 1.3751509211	-2.3649329978	 2.3589973655	 0.344775
O	 1.7622368904	-3.5400374636	 2.913170412	-0.443218
C	 0.6512073943	-2.0979500957	 1.2241069659	 0.024431
O	 0.1689370113	-3.057951844	 0.3525401759	-0.466565
H	 1.0973868885	 1.6857167735	-0.184923665	 0.105101
H	-0.5215127405	 1.75214278	-0.9338388488	 0.116501
H	-0.3495140696	 1.9037413612	 0.8195780846	 0.127148
H	-0.0499800154	-0.5325131297	-0.8034164135	 0.230957
H	 1.4018611039	 0.892973486	 2.4570811986	 0.10821
H	 2.3266137701	-1.1024029721	 3.7341747271	 0.262609
H	 1.4487652254	-4.235462811	 2.3225693218	 0.307635
H	-0.7948883079	-3.0392128242	 0.3842478263	 0.295602
78.3712	152.811	163.0461	183.2801	234.0495	242.1734	281.1065	294.0503	340.1334	373.6973	408.2627	540.5521	564.49	585.0977	638.1428	676.8366	714.7562	768.9005	790.2854	1015.5675	1073.6278	1108.8863	1156.4047	1170.5418	1192.7462	1220.1136	1280.6208	1303.6161	1394.736	1403.1917	1455.7138	1479.2539	1499.7423	1523.2137	1575.9086	1614.2137	1690.5895	2962.3835	3056.6651	3112.2473	3288.1133	3551.3506	3702.6669	3765.8908	3807.0165
CNC1=CNC(O)=C1O	CNc1c[nH]c(O)c1O	
InChI=1S/C5H8N2O2/c1-6-3-2-7-5(9)4(3)8/h2,6-9H,1H3	InChI=1S/C5H8N2O2/c1-6-3-2-7-5(9)4(3)8/h2,6-9H,1H3
