21
gdb 54844	2.91504	1.30929	1.20674	2.4592	82.87	-0.2355	-0.0086	0.2269	1165.4438	0.183363	-387.116958	-387.108057	-387.107112	-387.151453	33.115	
C	-0.064375923	 1.5217937591	 0.0020572477	-0.483992
C	 0.0396413797	 0.0099413303	 0.1376652652	 0.388747
O	 0.1018637771	-0.5149878574	 1.2318813948	-0.333802
C	 0.0575829665	-0.7380298291	-1.149928232	-0.118353
C	 0.884107056	-2.003708065	-1.4101523018	-0.060769
C	 1.4722276469	-2.789201618	-0.2436519234	-0.217721
C	 0.2739471435	-3.350005441	 0.5741472266	-0.19092
C	-1.026711551	-2.9556561379	-0.1821237181	-0.217749
C	-0.6057369538	-2.1028721172	-1.3734048548	-0.060761
H	 0.7789093916	 1.9104936327	-0.5805095638	 0.137457
H	-0.9769785697	 1.7937249672	-0.5408330876	 0.137359
H	-0.0724515549	 1.9820321089	 0.9906262707	 0.137412
H	-0.0070588436	-0.0883008472	-2.018169223	 0.080954
H	 1.4267949215	-2.0036080119	-2.349635609	 0.0876
H	 2.084592721	-3.5988251075	-0.6548943646	 0.094685
H	 2.1301156954	-2.1788430398	 0.3810950337	 0.111485
H	 0.3487042055	-4.4373118732	 0.6702289436	 0.085137
H	 0.2704896977	-2.9275713265	 1.5765589668	 0.129459
H	-1.5456775336	-3.8406645487	-0.5655767308	 0.094701
H	-1.7283747355	-2.4359362413	 0.4760769196	 0.111471
H	-1.1890089373	-2.1777118063	-2.2851868496	 0.087599
45.3758	68.8461	133.2223	151.2805	193.11	301.1266	347.984	406.3917	594.2896	625.6204	688.0468	698.7252	731.48	750.0337	786.9336	876.5424	886.3242	897.6718	942.2427	960.5345	981.0546	1010.0338	1031.7957	1051.1862	1098.2456	1098.499	1122.8267	1163.5849	1195.6814	1223.974	1252.6663	1262.7	1298.1562	1317.0114	1317.2705	1366.468	1375.0002	1387.4087	1430.73	1464.3638	1475.7053	1477.4431	1487.7394	1506.5173	1785.1002	3032.3977	3041.4728	3045.0365	3063.6086	3087.4189	3087.8383	3092.6047	3140.3802	3151.9694	3152.3854	3155.9565	3169.2086
CC(=O)C1C2CCCC12	CC(=O)[C@H]1[C@H]2CCC[C@@H]12	
InChI=1S/C8H12O/c1-5(9)8-6-3-2-4-7(6)8/h6-8H,2-4H2,1H3	InChI=1S/C8H12O/c1-5(9)8-6-3-2-4-7(6)8/h6-8H,2-4H2,1H3/t6-,7+,8-
