14
gdb 49954	2.53372	1.31218	0.99612	2.8134	77.18	-0.2625	-0.0204	0.2421	1167.258	0.096942	-399.460025	-399.451077	-399.450133	-399.493797	32.396	
O	 0.2055205468	 0.2005077531	-0.7615783146	-0.274651
C	 0.124891679	 1.3034189978	-0.2873343615	 0.149738
N	 1.101075236	 1.8744400383	 0.5293632209	-0.099838
C	 2.5050951892	 1.7906957404	 0.2562112367	-0.252318
C	 1.7902162088	 3.1413023468	 0.217637875	-0.050471
C	 1.566242169	 3.7410140214	-1.0776780106	 0.298371
C	 1.3669240183	 4.2439740367	-2.15024371	-0.449246
C	 1.9574676365	 4.0648066925	 1.3153082828	 0.268867
C	 2.1153569143	 4.8377144611	 2.2204443866	-0.411509
H	-0.7601751083	 1.9561870633	-0.3837423048	 0.104601
H	 3.1495476755	 1.5850354151	 1.1052304485	 0.14511
H	 2.8073425171	 1.3657943538	-0.6969412395	 0.152503
H	 1.1961038348	 4.6879115222	-3.1002875168	 0.212081
H	 2.246203763	 5.5202983076	 3.0238742672	 0.206762
82.2537	119.8211	132.7915	177.9694	209.6175	270.7847	327.4227	444.0447	466.9551	543.0236	561.9441	602.9552	624.6473	632.7512	664.9864	678.2351	740.2614	847.8177	910.7398	944.1584	1034.4887	1114.2183	1127.4384	1148.8623	1240.7238	1369.4456	1414.5736	1494.3067	1808.4095	2242.3338	2248.6762	2989.5633	3118.3447	3218.4861	3498.9344	3500.7035
O=CN1CC1(C#C)C#C	O=CN1CC1(C#C)C#C	
InChI=1S/C7H5NO/c1-3-7(4-2)5-8(7)6-9/h1-2,6H,5H2	InChI=1S/C7H5NO/c1-3-7(4-2)5-8(7)6-9/h1-2,6H,5H2
