22
gdb 60146	3.43162	1.01332	0.95012	1.9275	82.6	-0.2305	0.0643	0.2948	1364.3339	0.193545	-404.297491	-404.288219	-404.287275	-404.331727	35.541	
C	 0.3774349938	 1.312016277	-0.1111659109	-0.406865
C	 0.0150733551	-0.1549054678	 0.1199849521	 0.137198
O	 0.2827808148	-0.5484089052	 1.4651129078	-0.426101
C	-1.4366066423	-0.455913259	-0.2711222569	-0.149561
N	-1.676183674	-1.8892797422	-0.2867841582	-0.073573
C	-1.986061318	-2.6673279686	 0.8898647998	-0.014954
C	-2.9164859888	-1.9376229102	 1.8758347304	-0.236375
C	-3.9528348487	-1.7482964282	 0.723580695	-0.245392
C	-2.9910394462	-2.4890004243	-0.2274138308	-0.050179
H	 1.4037076114	 1.5013055856	 0.2143861587	 0.125791
H	 0.2918851656	 1.5831628162	-1.1682554129	 0.118165
H	-0.2884212445	 1.9745486713	 0.4571577988	 0.10539
H	 0.6649037971	-0.7962797118	-0.4852871769	 0.099052
H	-0.1880906626	 0.0604243463	 2.0451219425	 0.274916
H	-2.1028699645	 0.1114769124	 0.4014995997	 0.075285
H	-1.6224549925	-0.0831531821	-1.2858708967	 0.099124
H	-1.3443008091	-3.5074168146	 1.1305116486	 0.091146
H	-3.2902583202	-2.6004771432	 2.6590324636	 0.10474
H	-2.5081896754	-1.04007281	 2.3492191333	 0.083059
H	-4.8720775164	-2.3106022649	 0.9011933736	 0.10459
H	-4.2230909665	-0.7248544438	 0.4450675329	 0.097025
H	-3.2836896782	-3.1644825328	-1.0247562635	 0.087519
58.1929	90.2691	144.0655	234.9427	253.6447	272.8122	303.186	347.6037	385.1001	466.2765	503.6875	548.7271	743.3569	778.8522	789.7138	839.3439	855.4588	907.4857	924.5349	944.6819	951.3046	965.6704	987.4446	1039.4062	1062.016	1078.2372	1098.3373	1113.8923	1129.3152	1166.3722	1213.4065	1218.7655	1241.7466	1250.218	1274.3557	1288.1731	1315.049	1334.5051	1384.5293	1400.2183	1405.9064	1426.6503	1472.2391	1487.343	1493.7811	1496.3064	1505.9736	2954.5628	3022.7541	3046.7777	3050.7402	3059.8315	3061.3188	3094.6264	3100.9701	3118.7548	3120.0719	3159.2617	3176.584	3797.1802
CC(O)CN1C2CCC12	C[C@@H](O)CN1[C@H]2CC[C@@H]12	
InChI=1S/C7H13NO/c1-5(9)4-8-6-2-3-7(6)8/h5-7,9H,2-4H2,1H3	InChI=1S/C7H13NO/c1-5(9)4-8-6-2-3-7(6)8/h5-7,9H,2-4H2,1H3/t5-,6-,7+,8?/m1/s1
