21
gdb 42127	2.03814	1.83367	1.13105	0.125	81.	-0.2362	0.0229	0.2591	1139.0579	0.184798	-424.22109	-424.212801	-424.211857	-424.253826	32.374	
C	-0.0422742802	 1.4211442287	 0.0306836035	-0.065985
C	 1.2980239175	 2.1773631066	-0.0309075226	-0.254389
C	 2.0147202496	 2.3475294862	 1.2891715919	-0.055054
C	 2.631710253	 1.4041592897	 2.0020285227	-0.016938
C	 2.706616843	-0.0587317257	 1.67264239	-0.269081
C	 1.6719694175	-0.8759780283	 2.475957604	-0.066273
O	 0.3438965008	-0.3822179732	 2.3826533082	-0.221014
C	-0.3267257178	-0.6667202422	 1.1901568803	 0.005869
O	 0.1625063222	 0.0103977546	 0.0646284719	-0.236514
H	-0.6272744018	 1.7480177287	 0.898516057	 0.105842
H	-0.6190283482	 1.6429875912	-0.8768172278	 0.097084
H	 1.9268342028	 1.6528182006	-0.7607203414	 0.119148
H	 1.0983415539	 3.1678134255	-0.4551812964	 0.096847
H	 2.0070682871	 3.3576655102	 1.6938721764	 0.081932
H	 3.0825917395	 1.6963765176	 2.9497229277	 0.080006
H	 2.5409163536	-0.2279235116	 0.6070342366	 0.120571
H	 3.6986466338	-0.4574267244	 1.9242563013	 0.092585
H	 1.7060962814	-1.9303076716	 2.1586680016	 0.089057
H	 1.9161993424	-0.8379057496	 3.5427441371	 0.105701
H	-0.242012308	-1.7332652417	 0.9348354061	 0.093373
H	-1.3764449419	-0.4065538312	 1.3838317518	 0.097231
93.3506	165.0828	179.0482	238.6486	288.803	313.748	370.1791	425.8649	479.5135	558.3075	578.7017	639.047	744.1728	796.3543	841.049	859.3099	923.3582	967.0518	1000.8986	1005.5523	1013.0367	1035.0695	1051.1366	1096.5422	1128.0499	1151.9773	1178.0919	1238.8362	1258.537	1278.77	1306.8144	1309.8324	1335.7977	1357.9525	1361.9258	1397.6068	1412.4659	1431.6704	1448.9771	1475.706	1485.6809	1490.3159	1500.6547	1502.7275	1727.7042	2981.0304	2989.7223	3008.9094	3023.2182	3030.3922	3041.3938	3064.0621	3069.6656	3071.6468	3113.7818	3127.7258	3151.4532
C1CC=CCCOCO1	C1CC=CCCOCO1	
InChI=1S/C7H12O2/c1-2-4-6-9-7-8-5-3-1/h1-2H,3-7H2/b2-1-	InChI=1S/C7H12O2/c1-2-4-6-9-7-8-5-3-1/h1-2H,3-7H2/b2-1-
