23
gdb 116506	3.10706	1.06256	0.86077	1.7172	82.58	-0.2408	0.0802	0.321	1414.8534	0.206825	-425.420521	-425.411162	-425.410218	-425.454825	35.2	
C	 0.0113544183	 1.1669753933	-0.5697490054	-0.238655
O	-0.0662008967	-0.1584143512	-0.1029800138	-0.245157
C	 0.547652406	-0.3928892858	 1.1591496229	 0.13563
C	-0.0260821198	-1.720581416	 1.66988451	-0.198196
C	 0.2918972471	-1.9847166204	 3.1495227896	-0.241951
C	 1.6736494524	-2.6126130852	 3.4048181351	-0.060222
O	 2.6953268215	-2.2130644661	 2.5100242205	-0.240494
C	 2.8357983204	-0.8189911952	 2.2977317985	-0.090781
C	 2.0795116825	-0.3635832873	 1.0464207286	-0.203784
H	 1.0331258872	 1.465111553	-0.8468063382	 0.105858
H	-0.6174179861	 1.23068774	-1.461826137	 0.125415
H	-0.3643796649	 1.8842604536	 0.177806818	 0.099375
H	 0.2308053846	 0.4031061123	 1.858692073	 0.05514
H	-1.1099909726	-1.6654344083	 1.5294351321	 0.102018
H	 0.3351708673	-2.5424855721	 1.0414563272	 0.109515
H	 0.1925956682	-1.0460039135	 3.7089743374	 0.097937
H	-0.4565033473	-2.6615624016	 3.577214365	 0.10078
H	 1.977559856	-2.4182043699	 4.4470322148	 0.084803
H	 1.6150772751	-3.699232083	 3.2810581369	 0.107728
H	 2.5279469471	-0.2456374405	 3.1857354435	 0.087759
H	 3.9066790146	-0.6346885059	 2.1542870423	 0.10489
H	 2.3751829459	-1.0171945731	 0.2172473048	 0.113856
H	 2.4099475632	 0.6512161231	 0.7929536643	 0.088537
70.9935	100.1225	148.7817	205.2682	233.0431	262.2937	279.3772	324.4891	402.6828	428.9702	474.9098	541.6796	575.809	761.6387	843.1197	852.826	880.1854	913.7846	937.5493	1016.7032	1019.9086	1029.5374	1079.0768	1124.8293	1130.6424	1155.0501	1160.3452	1182.0907	1211.1312	1220.4354	1256.9511	1266.2433	1302.5366	1315.7396	1340.1168	1352.3808	1378.7735	1389.1029	1401.7454	1408.1254	1423.6113	1473.1107	1477.8397	1489.5937	1491.8062	1495.2647	1500.1725	1510.8538	1511.9205	2925.6885	2963.7159	2972.1766	2988.2084	3020.0945	3026.7061	3030.2358	3043.2599	3055.5774	3057.1291	3075.807	3077.462	3090.0956	3106.3298
COC1CCCOCC1	CO[C@H]1CCCOCC1	
InChI=1S/C7H14O2/c1-8-7-3-2-5-9-6-4-7/h7H,2-6H2,1H3	InChI=1S/C7H14O2/c1-8-7-3-2-5-9-6-4-7/h7H,2-6H2,1H3/t7-/m0/s1
