19
gdb 33088	6.43572	0.75161	0.68036	1.132	80.89	-0.1682	0.0539	0.2222	1656.8988	0.159621	-419.226505	-419.217067	-419.216123	-419.260921	34.948	
C	-0.0172248776	 1.5136951387	 0.0525712316	-0.400535
C	-0.0351051288	-0.005628125	-0.0743866116	-0.107262
N	 0.8132319375	-0.447033811	-1.1708911224	-0.400123
C	 0.8629935364	-1.8136403917	-1.4358758337	 0.320483
C	 0.4286025797	-2.8438521417	-0.6571435794	-0.13563
O	 0.7398527947	-4.0508777264	-1.2727910576	-0.191163
C	 1.3505135551	-3.7537076557	-2.4345114698	 0.415715
N	 1.6681428806	-4.8425537613	-3.236044881	-0.59531
C	 1.4656904443	-2.4065890501	-2.6050911128	-0.405372
H	 1.0024348666	 1.87881352	 0.2063398226	 0.128482
H	-0.4159374272	 1.99010664	-0.8509628256	 0.113634
H	-0.6338554572	 1.8378884251	 0.8955074034	 0.119939
H	 0.3516766927	-0.4589344568	 0.8473767654	 0.111277
H	-1.0726727766	-0.366723244	-0.1870692408	 0.090243
H	 0.6804821369	 0.1037585962	-2.0091712205	 0.225449
H	-0.0648858022	-2.9211434488	 0.2935210685	 0.116347
H	 1.8455674187	-5.6774361486	-2.691928252	 0.253573
H	 2.4380280419	-4.6556948284	-3.8634358725	 0.253286
H	 1.9225673846	-1.8914843704	-3.435108962	 0.086966
65.2706	96.988	128.1942	180.536	221.1833	257.6792	330.8288	335.9378	368.544	470.3693	557.3607	571.7176	641.4587	666.5698	688.9382	721.5249	751.0166	784.0679	822.1773	922.4051	970.8564	1009.5195	1076.9153	1091.9747	1132.0301	1152.9132	1170.6064	1220.7874	1268.6545	1289.5837	1324.1845	1391.9809	1414.2308	1451.338	1489.6242	1499.575	1517.1755	1527.9988	1610.4995	1644.0097	1681.0134	2946.0904	3030.0328	3036.0718	3099.8583	3120.4917	3253.8764	3308.4895	3546.0302	3560.2455	3646.1998
CCNC1=COC(N)=C1	CCNc1coc(N)c1	
InChI=1S/C6H10N2O/c1-2-8-5-3-6(7)9-4-5/h3-4,8H,2,7H2,1H3	InChI=1S/C6H10N2O/c1-2-8-5-3-6(7)9-4-5/h3-4,8H,2,7H2,1H3
