21
gdb 94197	2.76417	1.28223	1.09325	1.4716	78.53	-0.2531	0.0765	0.3297	1210.0377	0.181472	-424.197976	-424.188839	-424.187895	-424.231757	35.045	
C	 0.0124577431	 1.5688280941	 0.0885387112	-0.421992
C	 0.0607106233	 0.0512613041	 0.0326642507	 0.003451
C	 1.0176420342	-0.6463131149	-0.9744353058	-0.241526
C	 1.3646544847	-1.6892321908	 0.1208433519	-0.2568
C	 0.7932154588	-0.7248199583	 1.1905108732	 0.381104
O	 1.8550190584	 0.0121838168	 1.7635552409	-0.486142
C	-0.0777123222	-1.3071732629	 2.2815440975	 0.006296
C	 0.4774326627	-1.7309313662	 3.5714496355	-0.186235
O	-0.2160744365	-0.4785372874	 3.447549876	-0.256095
H	 1.009910415	 1.9777512364	 0.2741138542	 0.125741
H	-0.3548958147	 1.981889685	-0.8571428216	 0.112958
H	-0.6528773717	 1.9211696197	 0.8850366709	 0.116436
H	-0.9511287088	-0.356965787	-0.0796612566	 0.063749
H	 0.5814822381	-1.0172035172	-1.9047115731	 0.093364
H	 1.8761931548	-0.0144241747	-1.216708504	 0.110819
H	 0.7705658989	-2.6039039662	 0.0347351012	 0.097235
H	 2.413810536	-1.9544527221	 0.2635084386	 0.111317
H	 1.4596837256	 0.5253376524	 2.4827070014	 0.287556
H	-1.0097876117	-1.7627701474	 1.9457433424	 0.092308
H	-0.0413267204	-2.4857690843	 4.1591816537	 0.118348
H	 1.5483951824	-1.6471324291	 3.7370600117	 0.128108
80.2012	94.3988	176.8416	219.4972	228.8656	279.8691	314.6132	359.4449	412.63	462.2102	520.4819	560.8987	659.7328	724.8919	772.6315	846.0879	888.2271	893.154	913.3658	947.4451	966.8582	1006.532	1032.0237	1046.5472	1088.4039	1107.0097	1134.9248	1162.7418	1170.2524	1179.3313	1204.5095	1252.5139	1260.7805	1267.8187	1279.1078	1314.331	1365.1946	1378.5047	1404.0528	1442.0389	1468.2639	1491.7961	1493.2443	1505.3547	1514.8487	3026.99	3031.7819	3058.2097	3063.0262	3091.2711	3098.2739	3109.202	3109.7321	3113.0223	3127.326	3195.0734	3740.8252
CC1CCC1(O)C1CO1	C[C@H]1CC[C@]1(O)[C@H]1CO1	
InChI=1S/C7H12O2/c1-5-2-3-7(5,8)6-4-9-6/h5-6,8H,2-4H2,1H3	InChI=1S/C7H12O2/c1-5-2-3-7(5,8)6-4-9-6/h5-6,8H,2-4H2,1H3/t5-,6+,7+/m0/s1
