18
gdb 114500	2.6991	1.43707	1.09954	4.5606	72.86	-0.2416	0.0279	0.2695	1134.8686	0.147671	-439.076143	-439.067813	-439.066868	-439.10949	30.982	
C	-0.1615251567	 1.3398494084	 0.0828798456	-0.238616
O	 0.3486612105	 0.042092008	-0.1309441574	-0.22637
C	 0.7939484674	-0.5803178917	 1.0380837811	 0.147442
C	-0.2700655298	-1.1853231141	 2.0167184099	-0.281493
C	 0.3684973937	-2.5869014184	 1.8105486408	 0.018923
N	-0.1809393258	-3.3587898869	 0.6966149305	-0.323393
C	 0.6475715297	-2.8122347965	-0.2719885475	 0.438515
O	 0.7092730379	-2.9607149323	-1.4590869797	-0.351095
C	 1.4035065703	-1.9877241366	 0.7982991433	-0.2524
H	 0.5971222733	 2.003984198	 0.5259612282	 0.106292
H	-0.4543907455	 1.7355559977	-0.8918500792	 0.135677
H	-1.0421607211	 1.3341007478	 0.7427193136	 0.107519
H	 1.498595292	 0.0712655781	 1.576864646	 0.073364
H	-0.1988945819	-0.8027967858	 3.0374791741	 0.106104
H	-1.304591853	-1.112055254	 1.6739036637	 0.107704
H	 0.6484903568	-3.1719689844	 2.686460619	 0.089195
H	-1.1008307034	-3.7639922554	 0.5834460787	 0.244576
H	 2.4830979756	-2.1057485019	 0.8590623394	 0.098056
81.0004	112.3464	118.7623	193.9522	275.314	374.4218	408.2219	422.1494	474.8623	519.5812	637.4068	737.1892	777.2932	811.5143	872.7408	881.5802	938.8424	989.9298	1027.005	1038.0557	1062.783	1121.0309	1132.8255	1151.8961	1176.1387	1183.6088	1191.8603	1228.0814	1245.7821	1269.2573	1304.1891	1334.0019	1365.4463	1387.1243	1464.658	1480.8205	1487.6958	1508.0837	1900.0932	2973.4627	2982.8328	3023.5509	3066.5855	3109.5638	3123.2255	3126.7576	3146.018	3580.5757
COC1CC2NC(=O)C12	CO[C@H]1C[C@H]2NC(=O)[C@@H]12	
InChI=1S/C6H9NO2/c1-9-4-2-3-5(4)6(8)7-3/h3-5H,2H2,1H3,(H,7,8)	InChI=1S/C6H9NO2/c1-9-4-2-3-5(4)6(8)7-3/h3-5H,2H2,1H3,(H,7,8)/t3-,4+,5-/m1/s1
