20
gdb 50694	3.00808	1.25511	0.98652	3.3079	79.18	-0.2332	-0.0172	0.216	1220.8286	0.173111	-403.150539	-403.14235	-403.141406	-403.183882	31.31	
O	-0.0152843244	-0.0528065669	-0.0250665095	-0.254134
C	 0.0365430473	 1.1486339315	 0.0510463589	 0.142138
C	 1.3127088204	 1.9672224276	 0.0192834997	-0.05797
C	 1.3760194821	 2.7994229233	-1.2816762164	-0.224313
C	 2.5657693278	 3.7665886791	-1.2492589709	-0.208484
C	 2.425700458	 4.8242980727	-0.141229673	-0.198773
C	 1.9277829999	 4.2414892965	 1.1744717018	-0.03319
N	 0.4742655111	 4.009458694	 1.2767086014	-0.332728
C	 1.3872281097	 2.8540778262	 1.2551103259	-0.051607
H	-0.8869575606	 1.763314019	 0.1472467987	 0.086671
H	 2.1515176455	 1.261755393	 0.0380755073	 0.088435
H	 1.4589324825	 2.1173393293	-2.1337764473	 0.107459
H	 0.4428974334	 3.3617037991	-1.4029999348	 0.119022
H	 3.4853998879	 3.1884881536	-1.0900127267	 0.098746
H	 2.673676917	 4.2620608802	-2.2198014333	 0.098053
H	 3.3912732078	 5.3147725953	 0.0215088972	 0.097131
H	 1.7235888839	 5.6044527576	-0.4569973016	 0.112628
H	 2.4207480635	 4.6124961252	 2.0703253227	 0.087024
H	 0.1479660811	 4.1858860331	 2.2225276352	 0.233054
H	 1.5372568261	 2.3161754305	 2.1894405148	 0.090838
56.7819	89.9776	193.129	251.2102	307.6848	339.1035	410.4018	440.7342	463.3014	604.7595	647.9169	775.3078	792.3037	844.3971	874.1962	896.7496	917.7145	951.9732	963.8255	1000.7483	1048.5715	1076.6977	1087.0364	1107.1964	1144.6315	1171.5861	1176.1587	1216.3572	1240.3296	1268.286	1280.3184	1294.1024	1342.629	1363.1846	1375.7347	1380.7284	1407.5684	1419.1509	1452.8512	1478.6639	1487.0608	1496.7312	1827.6874	2881.5836	3021.7586	3035.2705	3039.4687	3047.9979	3069.0194	3080.1388	3087.8161	3117.5707	3130.9209	3509.7239
O=CC1CCCC2NC12	O=C[C@H]1CCC[C@H]2N[C@@H]12	
InChI=1S/C7H11NO/c9-4-5-2-1-3-6-7(5)8-6/h4-8H,1-3H2	InChI=1S/C7H11NO/c9-4-5-2-1-3-6-7(5)8-6/h4-8H,1-3H2/t5-,6-,7+/m1/s1
