19
gdb 67935	2.40857	1.70646	1.24906	2.9561	80.54	-0.2277	-0.0201	0.2076	1059.9145	0.159217	-385.918183	-385.910214	-385.90927	-385.950595	31.497	
C	-0.2811471494	 1.4424446203	 0.1952559621	-0.476971
C	 0.0856062515	-0.0153069933	-0.0472364762	 0.342974
C	-1.1099073021	-1.0111374613	 0.1428178528	-0.40639
C	-0.4142010701	-1.5686269124	 1.3942296959	 0.415402
O	-0.7521547167	-2.3058222893	 2.2731776849	-0.299616
C	 0.8628854511	-0.7456023765	 1.1203368415	-0.223808
C	 1.9292674571	-1.5281774927	 0.4023949314	-0.083858
C	 1.9450784338	-1.2813428278	-0.9087410526	-0.06134
C	 0.9189819859	-0.25846258	-1.3287712914	-0.32724
H	 0.6149999128	 2.0694923396	 0.2551811313	 0.119716
H	-0.907019614	 1.8312710657	-0.6161998755	 0.119414
H	-0.8383220566	 1.5664239963	 1.1305095572	 0.117136
H	-2.0886888853	-0.5622732059	 0.3368312676	 0.127037
H	-1.2227070456	-1.7534830555	-0.6538081498	 0.128938
H	 1.2307568078	-0.1647292401	 1.9733035073	 0.090476
H	 2.5816102145	-2.2208791677	 0.9217483733	 0.10751
H	 2.6288067953	-1.7415939927	-1.6142355697	 0.098394
H	 0.2902115212	-0.6096507648	-2.1576825043	 0.106755
H	 1.4023918988	 0.6618890082	-1.6853947559	 0.105473
68.8551	161.5547	250.9804	278.5873	318.6134	331.9536	411.6249	443.0395	534.4202	577.4463	600.2795	736.261	756.2857	780.894	827.1857	876.2459	920.6627	944.8172	964.3945	979.483	982.6822	1007.095	1069.2751	1076.2588	1107.0964	1133.4468	1162.6824	1180.3356	1218.7134	1229.8626	1248.7874	1266.5941	1342.4453	1360.4693	1413.811	1434.7635	1484.5682	1496.9825	1497.1386	1672.4755	1887.5068	3006.9797	3023.4495	3035.7536	3050.6689	3053.8588	3089.2996	3094.1126	3105.8845	3182.7444	3208.8813
CC12CC(=O)C1C=CC2	C[C@]12CC(=O)[C@H]1C=CC2	
InChI=1S/C8H10O/c1-8-4-2-3-6(8)7(9)5-8/h2-3,6H,4-5H2,1H3	InChI=1S/C8H10O/c1-8-4-2-3-6(8)7(9)5-8/h2-3,6H,4-5H2,1H3/t6-,8+/m1/s1
