14
gdb 21552	3.94691	1.89434	1.28286	4.6319	71.17	-0.1979	-0.0253	0.1726	889.0803	0.110363	-374.908571	-374.90168	-374.900736	-374.939381	26.598	
N	 0.0981973164	 1.3778010965	 0.1488698674	-0.588404
C	-0.0359746103	-0.0052965611	 0.0459562599	 0.436851
C	-1.2074590577	-0.6912095802	 0.0233634641	-0.252109
C	-1.204573806	-2.137489044	-0.0016994373	 0.28874
N	-2.2943843146	-2.8294476607	-0.0239533306	-0.560605
C	 0.154732101	-2.7036727167	-0.0136733083	-0.054058
N	 1.2592043468	-2.0359636954	 0.0039035091	-0.188294
N	 1.1574394792	-0.6877434216	 0.0118910561	-0.283561
H	 0.7727621343	 1.7760522381	-0.4935051098	 0.254043
H	-0.7869331154	 1.8595399965	 0.0705904267	 0.263211
H	-2.154806977	-0.1665839875	 0.0094448878	 0.098634
H	-2.0746592191	-3.8274540426	-0.0527022075	 0.198398
H	 0.2686080716	-3.7854309917	-0.0306214963	 0.117775
H	 2.0228804406	-0.2083239695	 0.1979146287	 0.26938
142.8025	198.8762	279.0703	330.1504	390.4506	466.0273	491.382	532.8736	552.2177	618.0063	726.4334	729.3144	751.7893	821.2787	864.0285	937.3262	956.2312	1032.4843	1092.6891	1156.6381	1170.539	1258.4248	1357.9411	1386.1737	1420.6926	1513.0715	1626.2094	1642.7722	1670.8104	1699.8944	3157.3565	3207.6957	3437.1901	3536.6945	3638.3772	3650.0568
NC1=CC(=N)C=NN1	N[C@@H]1C=C([NH])C=NN1	
InChI=1S/C4H6N4/c5-3-1-4(6)8-7-2-3/h1-2H,(H4,5,6,8)	InChI=1S/C4H7N4/c5-3-1-4(6)8-7-2-3/h1-2,4-5,8H,6H2/t4-/m0/s1
