12
gdb 133398	2.33516	1.86304	1.03628	2.8054	63.14	-0.2245	-0.0591	0.1653	1007.8009	0.077542	-518.047719	-518.040681	-518.039737	-518.079381	26.41	
F	 0.0366061025	 0.0254251441	 0.0028389231	-0.047395
C	-0.0321143586	 1.3509052355	 0.0110456618	 0.140091
C	-1.2211059712	 1.9954729087	 0.0307851326	 0.138003
F	-2.3645921884	 1.3436342175	 0.0428130792	-0.021366
C	-1.2728612215	 3.4511961462	 0.0394332472	 0.29433
N	-2.3829297232	 4.0860183854	 0.0581094273	-0.55201
N	 0.0145543586	 4.0138654675	 0.0249613941	-0.308159
N	 1.2059695439	 3.394334325	 0.0053526039	-0.178584
C	 1.187789384	 2.0977920604	-0.0015101015	-0.094005
H	-2.2443640292	 5.0970232261	 0.0617882808	 0.208202
H	 0.0821577572	 5.0211886171	 0.0296057304	 0.271809
H	 2.139614416	 1.5809346465	-0.0173133089	 0.149084
121.5703	188.3988	279.5389	291.2779	323.538	479.7967	520.8933	532.3517	572.3401	588.6528	667.5381	689.7911	732.4354	781.801	871.9737	874.0868	1042.2901	1136.8035	1162.7775	1277.9871	1284.6273	1390.5428	1417.221	1469.6496	1611.3593	1704.2538	1723.9804	3211.7322	3473.8379	3613.9183
FC1=C(F)C(=N)NN=C1	F[C@@H]1C(=C([NH])NN=C1)F	
InChI=1S/C4H3F2N3/c5-2-1-8-9-4(7)3(2)6/h1H,(H2,7,9)	InChI=1S/C4H4F2N3/c5-2-1-8-9-4(7)3(2)6/h1-2,7,9H/t2-/m0/s1
