21
gdb 106799	2.37726	1.50191	1.1088	2.5317	78.05	-0.232	0.0803	0.3123	1175.269	0.182565	-424.217691	-424.208666	-424.207722	-424.251144	34.77	
C	-0.0245856746	 1.5214127794	-0.0482807896	-0.480826
C	 0.0301799345	 0.0148853461	 0.0358685477	 0.252285
C	 1.3418419812	-0.7279892684	-0.1985903984	-0.401361
C	 0.6739209493	-0.7621030303	 1.155098619	 0.398039
C	 1.3086192196	-0.2216123806	 2.4050083555	-0.138268
O	 2.2172480596	-1.1471934582	 2.978578316	-0.418841
O	-0.1004887743	-1.9045227971	 1.4617309057	-0.313699
C	-1.0064118041	-2.1384776333	 0.3833302021	-0.102508
C	-1.232444674	-0.7745283177	-0.3001445178	-0.286477
H	 0.9000203145	 1.9787658071	 0.3164925855	 0.119643
H	-0.1634372965	 1.8513137349	-1.0845454513	 0.120262
H	-0.8555857985	 1.9252688581	 0.5417050038	 0.117536
H	 1.3541414906	-1.6240620858	-0.8104948953	 0.111459
H	 2.2371964668	-0.1208281619	-0.2864271198	 0.114732
H	 1.8815868394	 0.6823638946	 2.1789780165	 0.103959
H	 0.5153831104	 0.048909804	 3.1202141793	 0.089272
H	 1.7395173635	-1.9811077858	 3.0523644989	 0.291892
H	-0.5756369279	-2.8636639343	-0.3205365142	 0.10124
H	-1.9184199743	-2.5759946354	 0.7982528274	 0.111033
H	-2.099835978	-0.2593749277	 0.1285988836	 0.105538
H	-1.407834767	-0.8833061876	-1.3753207746	 0.10509
83.0881	136.7675	189.0961	215.5346	224.1737	273.8915	343.1953	369.9088	402.2937	458.4862	468.1989	571.0703	669.0237	705.0151	772.8662	861.794	901.3027	913.8219	939.9968	949.8882	963.2716	998.5205	1037.8931	1050.268	1067.3247	1071.2833	1124.7023	1151.7807	1211.5247	1225.4953	1244.1143	1260.6875	1271.6077	1346.2454	1377.3385	1391.0988	1396.6896	1418.0028	1447.0386	1484.8746	1491.1211	1492.8232	1498.276	1508.7093	1530.4014	2977.9194	3007.0933	3022.7282	3036.1815	3078.1432	3080.8859	3086.2358	3091.3333	3101.6222	3127.5592	3211.5001	3805.2832
CC12CC1(CO)OCC2	C[C@@]12C[C@]1(CO)OCC2	
InChI=1S/C7H12O2/c1-6-2-3-9-7(6,4-6)5-8/h8H,2-5H2,1H3	InChI=1S/C7H12O2/c1-6-2-3-9-7(6,4-6)5-8/h8H,2-5H2,1H3/t6-,7-/m1/s1
