17
gdb 69694	2.90035	1.46574	1.29273	4.3902	72.69	-0.2294	-0.0011	0.2283	1038.0929	0.133591	-421.757433	-421.749443	-421.748498	-421.790018	30.607	
C	-0.2120187166	 1.4410761936	-0.0639059801	-0.507824
C	 0.1149454992	-0.0128250697	-0.0329870706	 0.425379
O	-0.783583137	-0.9159587933	 0.6439736725	-0.278257
C	 0.6138191816	-0.9325842069	 0.9896785023	-0.05523
C	 1.375435753	-1.7787657023	-0.0730848681	-0.129041
C	 0.4494834513	-2.2756128257	-1.1477405939	-0.117211
C	-0.9576078307	-2.7912417724	-0.9452704642	 0.151876
O	-1.8110372717	-2.6988863398	-1.7903803877	-0.272202
C	 0.8504343612	-0.8233640235	-1.1497018689	-0.147388
H	 0.6729765512	 2.0290257751	-0.3273871706	 0.130767
H	-0.987410738	 1.6443264993	-0.8108257379	 0.144295
H	-0.5768535198	 1.7711897757	 0.9119373999	 0.139021
H	 0.87171349	-0.796083482	 2.0332145153	 0.113142
H	 2.3844600513	-2.1435749179	 0.0640722853	 0.100375
H	 0.9676943952	-2.8361570645	-1.9246558334	 0.121734
H	-1.1265868279	-3.3451561878	 0.0008031355	 0.07836
H	 1.3941688377	-0.3628808177	-1.9640928754	 0.102205
75.0576	147.415	198.0138	239.6412	273.1609	315.4126	444.3343	468.5082	589.1004	595.7211	689.5999	727.8775	772.2223	777.7088	856.5069	872.6858	884.6426	946.5394	986.2419	990.4088	1011.1807	1027.4978	1050.9487	1073.3694	1101.3614	1160.8427	1177.7649	1248.3762	1266.0181	1298.1241	1376.9099	1406.7812	1418.9559	1469.4004	1485.2676	1499.0376	1812.0655	2912.1616	3037.0585	3101.2717	3125.8646	3130.8207	3188.3834	3199.6351	3209.9437
CC12OC1C1C(C=O)C21	C[C@]12O[C@H]1[C@H]1[C@@H](C=O)[C@@H]21	
InChI=1S/C7H8O2/c1-7-5-3(2-8)4(5)6(7)9-7/h2-6H,1H3	InChI=1S/C7H8O2/c1-7-5-3(2-8)4(5)6(7)9-7/h2-6H,1H3/t3-,4+,5-,6+,7-/m1/s1
