14
gdb 24373	3.7752	1.70186	1.1959	2.4083	71.53	-0.1987	-0.0353	0.1634	951.5492	0.103887	-436.714005	-436.707679	-436.706735	-436.744778	24.653	
C	 0.0624877268	 1.4648981439	 0.1439430805	-0.142921
O	 1.387235721	 2.0537002122	 0.0819652029	-0.2652
C	 2.1670904896	 1.4361506913	-0.8184338835	 0.32519
C	 1.9750285586	 0.1551757124	-1.2429701682	 0.196118
O	 3.0162522371	-0.1459534043	-2.0833974075	-0.18312
C	 3.7601696375	 0.9848070412	-2.0945864458	 0.05396
N	 3.3132746187	 1.9591867664	-1.3555703672	-0.328131
C	 0.9598395589	-0.6907711498	-0.6903025101	-0.168863
C	 0.0506528913	-0.0490697738	 0.0652330034	-0.116721
H	-0.3607980138	 1.8212045212	 1.0848332301	 0.130899
H	-0.5328078394	 1.8951507415	-0.6803368258	 0.115637
H	 4.6369078401	 0.9801993839	-2.7219699978	 0.155551
H	 0.9798603797	-1.7667884168	-0.8141953068	 0.117457
H	-0.7295957219	-0.5774467707	 0.5999455835	 0.110144
147.9978	164.5474	342.6201	411.9498	451.0164	528.5132	604.9559	638.4064	676.245	727.4637	764.7885	810.9911	834.2757	914.9818	953.5217	958.4953	1014.5856	1025.2418	1131.5468	1163.2165	1185.2832	1259.2592	1289.5485	1321.6006	1346.6575	1401.4057	1474.8603	1495.6004	1525.9642	1623.3313	1664.7408	2946.0977	3108.8815	3195.3946	3214.2025	3282.8831
C1OC2=C(OC=N2)C=C1	C1Oc2c(ocn2)C=C1	
InChI=1S/C6H5NO2/c1-2-5-6(8-3-1)7-4-9-5/h1-2,4H,3H2	InChI=1S/C6H5NO2/c1-2-5-6(8-3-1)7-4-9-5/h1-2,4H,3H2
