19
gdb 65535	2.8334	1.56175	1.31611	3.6262	78.58	-0.2437	0.0342	0.2779	1028.8454	0.161675	-382.052319	-382.044609	-382.043665	-382.084165	30.709	
C	-0.098154708	 1.5481043477	 0.0047153635	-0.456002
C	 0.0296983086	 0.0155335199	 0.0355172264	 0.130372
C	 1.0304704822	-0.5839975125	-1.05306516	-0.216129
N	 2.0339921521	-1.3053841297	-0.2329792177	-0.114708
C	 1.1190492898	-1.9884676042	 0.7692878644	-0.195356
C	 0.7878586588	-0.5590861379	 1.2674280759	-0.053823
C	 2.2606203778	-0.2913198101	 0.8682998635	-0.194059
C	-1.307130421	-0.5710849622	-0.0796452625	 0.251885
N	-2.3643750779	-1.0306997172	-0.1755078961	-0.353945
H	 0.8813008555	 2.0225154944	 0.1012517126	 0.124809
H	-0.542537632	 1.8784000812	-0.938499471	 0.139569
H	-0.7357359205	 1.9047754393	 0.8186582737	 0.137574
H	 0.5366809657	-1.2713419979	-1.7416524048	 0.132213
H	 1.5101156207	 0.2121621111	-1.6277336064	 0.11618
H	 0.3228177735	-2.5991038584	 0.336670597	 0.128504
H	 1.7088473878	-2.57521237	 1.4756747892	 0.116366
H	 0.3673809669	-0.337382007	 2.2494242075	 0.082632
H	 2.979250668	-0.6785261715	 1.5932219955	 0.11788
H	 2.568662302	 0.701473935	 0.5321312693	 0.106038
145.2114	158.3084	201.6682	255.1932	289.687	417.7599	475.0587	490.7766	539.089	583.4933	618.6644	739.8368	813.8532	836.453	846.8242	876.8893	910.2496	939.4899	969.5676	980.1104	1036.7367	1039.7636	1069.1593	1076.9803	1149.1834	1171.5029	1189.0113	1220.4216	1227.0603	1238.7992	1269.3862	1276.9295	1292.2671	1331.5637	1415.7755	1489.2418	1493.5034	1499.4432	1507.1493	1538.5079	2344.4695	3046.3057	3066.6202	3069.071	3074.4063	3108.7055	3117.5715	3123.5787	3128.2376	3132.6142	3134.8043
CC1(CN2CC1C2)C#N	C[C@]1(CN2C[C@H]1C2)C#N	
InChI=1S/C7H10N2/c1-7(4-8)5-9-2-6(7)3-9/h6H,2-3,5H2,1H3	InChI=1S/C7H10N2/c1-7(4-8)5-9-2-6(7)3-9/h6H,2-3,5H2,1H3/t7-/m1/s1
