14
gdb 131954	2.70449	1.6661	1.03751	6.2011	68.	-0.2684	-0.0733	0.1951	1062.1978	0.101884	-469.947091	-469.939434	-469.938489	-469.979889	27.6	
C	-0.034986331	 1.5784979754	-0.0178586583	-0.494887
C	-0.0122354733	 0.0840153183	 0.0144500279	 0.146886
C	-0.0250912494	-0.7808099366	-1.0610433453	-0.085047
N	 0.0054163886	-2.0452628504	-0.5593536789	-0.177865
N	 0.0376990124	-2.0910315233	 0.7700386946	-0.251113
C	 0.0270967435	-0.8088951543	 1.1164856223	 0.344368
N	 0.0553239567	-0.4574027014	 2.5216400708	 0.383942
O	 0.088303781	-1.3545163997	 3.346734191	-0.344512
O	 0.0434952275	 0.7462119813	 2.7762387173	-0.38472
H	 0.8460374953	 1.9978949315	 0.4748732636	 0.151873
H	-0.0640526383	 1.9373054728	-1.050185112	 0.117152
H	-0.9044013323	 1.9721256514	 0.5151399705	 0.151846
H	-0.0531097733	-0.5898656006	-2.122306616	 0.151211
H	 0.0059836625	-2.9124437844	-1.0717789377	 0.290867
55.6728	154.0017	211.1334	214.2182	281.778	330.8045	446.0651	544.3509	569.449	649.0003	681.5953	692.4721	795.8131	803.6018	852.2998	949.0051	1017.3629	1068.5155	1096.7522	1151.4205	1247.925	1321.7649	1391.8689	1409.1965	1425.6973	1433.1767	1475.7704	1487.7583	1503.9324	1602.45	1644.1109	3049.9437	3115.5059	3124.3644	3263.2443	3659.6898
CC1=CNN=C1N(=O)=O	Cc1c[nH]nc1N(=O)=O	
InChI=1S/C4H5N3O2/c1-3-2-5-6-4(3)7(8)9/h2H,1H3,(H,5,6)	InChI=1S/C4H5N3O2/c1-3-2-5-6-4(3)7(8)9/h2H,1H3,(H,5,6)
