24
gdb 102657	2.79253	0.92631	0.75881	2.9781	86.52	-0.2429	0.0826	0.3255	1600.6451	0.21682	-405.51439	-405.503968	-405.503024	-405.550337	38.36	
C	-0.1271107334	 1.5303224655	-0.1228116082	-0.389829
C	-0.1199268394	 0.0167322876	 0.1148980887	-0.183854
C	 0.7569710473	-0.4401282241	 1.2956131964	-0.003479
C	 0.1336248122	-0.099071823	 2.6602409361	-0.05015
O	 1.0724021524	-0.1377996074	 3.7167979849	-0.439244
C	 1.056353605	-1.9457922221	 1.1547989428	-0.154442
N	 1.6613409455	-2.5222561228	 2.3630432006	-0.092044
C	 0.8288627297	-3.4250054543	 3.1631926557	-0.216451
C	 1.9427234017	-3.9535229567	 2.33381389	-0.22358
H	 0.8829586209	 1.899606094	-0.3307088798	 0.117941
H	-0.7588022928	 1.7883772486	-0.978538093	 0.112185
H	-0.5074219214	 2.0805290298	 0.7430656252	 0.124016
H	-1.1475953753	-0.3392520732	 0.2734482047	 0.094984
H	 0.2291249078	-0.4817945169	-0.799112919	 0.092074
H	 1.7134920758	 0.0983561029	 1.2539998426	 0.082102
H	-0.2731282055	 0.9177811886	 2.6446904452	 0.09748
H	-0.7201309055	-0.7765099384	 2.8480771168	 0.069597
H	 1.6177772656	-0.9231727555	 3.5576650321	 0.288424
H	 0.1311597396	-2.4854849538	 0.8847753169	 0.084121
H	 1.7597091339	-2.0894208785	 0.325953597	 0.10622
H	 0.9324716497	-3.3340143933	 4.240194015	 0.129705
H	-0.1854816571	-3.6118787372	 2.8163190071	 0.118774
H	 1.6744342034	-4.498075315	 1.4301152986	 0.11235
H	 2.8781320599	-4.2619805849	 2.7914016736	 0.123099
60.8564	79.0225	102.4421	139.5768	157.008	212.7937	265.1411	301.7301	325.0208	361.634	419.0148	463.5239	523.6056	594.3894	766.8748	769.973	835.201	866.6534	887.4694	911.5252	944.3635	1001.6675	1015.0536	1040.5732	1055.3435	1084.8485	1109.2214	1120.6835	1124.4432	1143.4352	1165.2692	1179.7666	1192.673	1242.5083	1272.1874	1297.6808	1314.759	1317.7115	1355.1795	1374.7989	1397.5503	1406.4987	1417.1509	1475.7053	1480.6316	1488.6661	1496.0145	1501.7272	1505.687	1516.6561	1524.3465	2929.7229	2943.7672	3006.3945	3019.1635	3035.5506	3038.8789	3051.904	3062.2483	3099.0613	3101.7864	3104.958	3109.2918	3183.4693	3198.6985	3681.6411
CCC(CO)CN1CC1	CC[C@@H](CO)CN1CC1	
InChI=1S/C7H15NO/c1-2-7(6-9)5-8-3-4-8/h7,9H,2-6H2,1H3	InChI=1S/C7H15NO/c1-2-7(6-9)5-8-3-4-8/h7,9H,2-6H2,1H3/t7-/m1/s1
