19
gdb 53491	3.59516	0.78772	0.75406	3.2304	80.98	-0.2505	-0.0287	0.2218	1587.0011	0.153943	-423.017223	-423.005944	-423.005	-423.056191	38.379	
C	 0.1396454921	 1.4304094803	-0.2054164999	-0.500502
C	 0.0602392	-0.0173070382	-0.063496265	 0.116865
C	 0.0308632719	-1.2151686995	 0.0708417572	-0.003401
C	-0.0692559687	-2.6650384524	 0.190936299	-0.375483
C	-1.5384371112	-3.1487786369	 0.0444894859	 0.262007
C	-2.4125878043	-2.6750301612	 1.2182120287	-0.422476
O	-2.083811488	-2.7445198961	-1.2004777198	-0.471666
C	-1.5598705639	-4.6754151121	 0.0126285793	 0.146929
O	-0.9456437371	-5.3708788825	 0.7787422004	-0.264955
H	 0.9258627859	 1.8450761028	 0.4348056345	 0.154792
H	 0.3655036103	 1.7193036151	-1.2376158845	 0.151411
H	-0.8031092562	 1.9119912714	 0.0760484413	 0.149883
H	 0.5323505929	-3.1423160319	-0.5918012144	 0.136068
H	 0.3247725569	-3.0180049275	 1.1493701648	 0.146232
H	-2.3823097412	-1.5832468272	 1.2835154335	 0.127809
H	-3.4495269511	-2.9853745745	 1.0629860906	 0.127149
H	-2.0538803095	-3.0943196112	 2.1624199334	 0.134084
H	-1.9318791308	-1.7946139694	-1.2806227215	 0.285825
H	-2.2123910079	-5.0937608689	-0.7843337634	 0.09943
17.9912	27.4786	55.6562	86.1959	201.2204	210.2797	246.311	269.6651	278.0301	345.3368	346.7954	387.911	417.5209	420.1123	527.7238	613.3922	762.2017	791.9924	889.3912	920.139	966.0948	995.1933	1051.6874	1055.0096	1120.4451	1130.7543	1164.6757	1194.5195	1268.0787	1312.5407	1379.7716	1391.2916	1408.686	1415.9396	1461.5407	1477.7401	1479.0364	1491.2165	1495.5044	1835.0772	2362.6975	2904.7823	3029.3863	3037.1668	3041.36	3083.5821	3090.6514	3091.7448	3118.7685	3125.8667	3777.0019
CC#CCC(C)(O)C=O	CC#CC[C@@](C)(O)C=O	
InChI=1S/C7H10O2/c1-3-4-5-7(2,9)6-8/h6,9H,5H2,1-2H3	InChI=1S/C7H10O2/c1-3-4-5-7(2,9)6-8/h6,9H,5H2,1-2H3/t7-/m1/s1
