16
gdb 35445	2.42715	1.44424	1.09199	1.8642	83.55	-0.2289	0.022	0.2509	1132.6977	0.122549	-363.496252	-363.487879	-363.486934	-363.529101	32.334	
C	 0.0287500967	-1.2358226052	-0.1248783285	-0.454863
C	 0.0182429233	-0.0378935946	-0.0258243914	 0.351668
C	-0.013573512	 1.4047530002	 0.0909259384	-0.271529
C	-0.2172476084	 2.0599513657	 1.515474989	-0.23295
C	 1.0995096397	 2.8122593135	 1.3226590923	-0.124582
N	 2.1416149141	 1.7846908212	 1.1609628087	-0.362881
C	 1.327766145	 2.1816691805	-0.0212778547	 0.224685
C	 1.9116275783	 2.6991406291	-1.2064245333	 0.19766
C	 2.3884373552	 3.1251275279	-2.2264679626	-0.417475
H	 0.0522642193	-2.2938858823	-0.2096098276	 0.195334
H	-0.7336669469	 1.8284733242	-0.6144993196	 0.113904
H	-1.0974337579	 2.7038027929	 1.5444345343	 0.112361
H	-0.2289508941	 1.3645861641	 2.3557878499	 0.125303
H	 1.3454798787	 3.8165162401	 1.6439629721	 0.111783
H	 3.0384471943	 2.2613693639	 1.0672414283	 0.239767
H	 2.8122518049	 3.5009975986	-3.1246053953	 0.191814
91.1376	128.7941	158.6978	207.0694	303.345	416.143	443.627	480.7948	540.5827	545.2155	581.1346	619.411	635.2031	652.0504	664.7986	700.3278	803.5829	873.0435	903.0831	941.5359	990.4649	1019.0018	1048.1387	1073.6164	1110.8119	1167.7822	1196.5343	1224.1005	1283.9202	1303.124	1354.7717	1399.7608	1477.6171	2230.9921	2238.4362	3070.6344	3083.3875	3145.4105	3198.2042	3479.2137	3502.3754	3504.8431
C#CC1CC2NC12C#C	C#C[C@H]1C[C@H]2N[C@@]12C#C	
InChI=1S/C8H7N/c1-3-6-5-7-8(6,4-2)9-7/h1-2,6-7,9H,5H2	InChI=1S/C8H7N/c1-3-6-5-7-8(6,4-2)9-7/h1-2,6-7,9H,5H2/t6-,7+,8-/m0/s1
