17
gdb 71064	2.43715	1.78357	1.54314	3.4271	74.67	-0.2141	-0.0527	0.1614	953.5266	0.134569	-417.862868	-417.854838	-417.853893	-417.894795	31.344	
C	-0.060924384	 1.4449630708	-0.0893114441	-0.497535
C	-0.0698895187	-0.0548725374	-0.0857450049	 0.27201
N	 0.7458862069	-0.7926123279	-1.2104548637	-0.375334
C	 0.0422847195	-1.925167358	-0.5877250778	 0.051733
N	 0.7182569597	-2.6723343807	 0.1915122864	-0.15725
C	 0.2662414143	-2.2804726959	 1.5575292191	-0.188547
C	-0.3812629889	-0.9052819119	 1.2844788572	-0.17948
C	-1.1342016664	-1.0550085302	 0.0168599136	 0.27971
O	-2.469716666	-0.9812597051	-0.3044389192	-0.46241
H	 0.9416704329	 1.8287160922	 0.1193376222	 0.145297
H	-0.3782844283	 1.8307169757	-1.0645180996	 0.131044
H	-0.7492098578	 1.8340794842	 0.6657415695	 0.136029
H	 0.2518100083	-0.4783702281	-2.0542601216	 0.224763
H	-0.4358192166	-2.9666449476	 2.0583783091	 0.102844
H	 1.175108476	-2.2391634578	 2.1660332361	 0.131229
H	-0.7489884874	-0.2719898108	 2.0894740072	 0.092739
H	-2.9399316633	-1.6775627216	 0.1683749106	 0.293157
166.3326	184.2284	211.6046	254.4934	276.3872	303.8149	325.7598	459.8889	499.7186	572.8691	599.5007	624.5988	696.7434	728.0547	827.1341	904.8732	918.3407	948.3562	952.6769	1013.7077	1041.392	1050.0243	1092.8471	1129.0126	1143.7139	1179.0039	1236.5847	1239.2686	1276.83	1289.5319	1327.5358	1407.5354	1474.4258	1481.7827	1489.0095	1521.1334	1615.3059	2975.0249	3036.6855	3072.759	3102.3624	3122.6919	3142.6539	3361.5174	3791.2575
CC12NC3=NCC1C23O	C[C@@]12N[C]3[N]C[C@@H]1[C@@]23O	
InChI=1S/C6H8N2O/c1-5-3-2-7-4(8-5)6(3,5)9/h3,9H,2H2,1H3,(H,7,8)	InChI=1S/C6H8N2O/c1-5-3-2-7-4(8-5)6(3,5)9/h3,9H,2H2,1H3,(H,7,8)/t3-,5+,6-/m0/s1
