19
gdb 88036	2.35465	1.34848	1.04939	1.7259	81.98	-0.2471	0.043	0.2902	1223.7675	0.156913	-385.834107	-385.824987	-385.824043	-385.867924	34.446	
C	-0.0270455623	 1.5472620746	-0.1176564399	-0.41862
C	-0.012173	 0.0496954067	 0.0327579827	-0.020414
O	 1.2709065149	-0.6037359024	-0.0961779676	-0.29589
C	 0.6270370241	-0.6370818102	 1.1565724279	 0.430913
C	 1.1768078197	-0.0757298561	 2.4691074148	-0.325362
C	 0.3439711748	-1.1577737397	 3.2151775922	-0.233679
C	 0.1677632054	-1.9347121761	 1.8633969959	-0.258927
C	-1.1202565009	-2.5066725141	 1.535487464	 0.31636
C	-2.2011655635	-2.9588123393	 1.2621358001	-0.450545
H	 0.7984796788	 2.0062363269	 0.4321550943	 0.126541
H	 0.0675381353	 1.8273408889	-1.1718883189	 0.131673
H	-0.971304181	 1.9592886537	 0.2549314962	 0.123485
H	-0.8187894176	-0.4849480885	-0.4704875888	 0.104132
H	 2.2543958462	-0.2442199239	 2.5533056639	 0.118619
H	 0.9643371556	 0.9704215116	 2.6993356194	 0.110594
H	 0.8383577863	-1.7036198201	 4.0192619867	 0.112575
H	-0.6110773952	-0.7722966792	 3.5755796607	 0.118773
H	 0.9574359513	-2.6878013055	 1.7584812025	 0.114453
H	-3.1511301319	-3.3685292373	 1.0233251139	 0.195319
84.6566	105.2939	158.2103	182.5871	210.8806	249.3356	342.9768	428.2038	456.2977	487.7929	561.2351	575.2971	616.9125	631.9547	701.7687	789.0735	799.0749	860.8436	933.6318	940.4819	974.5349	1020.1378	1068.0123	1076.5047	1098.1552	1119.9787	1135.0312	1187.9378	1216.2954	1227.9819	1254.7971	1267.4581	1340.0341	1355.4503	1409.1647	1469.9531	1477.6686	1489.7028	1495.2625	1525.127	2231.5784	3036.8653	3042.4975	3062.1762	3084.2072	3100.6906	3103.8419	3113.6065	3127.6596	3143.9938	3503.8496
CC1OC11CCC1C#C	C[C@H]1O[C@]21CC[C@H]2C#C	
InChI=1S/C8H10O/c1-3-7-4-5-8(7)6(2)9-8/h1,6-7H,4-5H2,2H3	InChI=1S/C8H10O/c1-3-7-4-5-8(7)6(2)9-8/h1,6-7H,4-5H2,2H3/t6-,7-,8+/m1/s1
