21
gdb 115769	3.30068	0.82144	0.69847	1.3038	80.12	-0.2492	-0.0268	0.2224	1630.7499	0.18039	-424.21903	-424.208944	-424.208	-424.255892	35.014	
C	 0.1465195178	 1.6438480705	 0.0423755804	-0.389257
C	-0.2558682358	 0.1775302342	-0.1506420506	-0.186186
C	 0.6075179982	-0.507219511	-1.1952716135	 0.145505
O	 2.0037365422	-0.5672976837	-0.8093854237	-0.289945
C	 2.0812930858	-1.9716330328	-1.111604119	-0.081247
C	 0.5625006415	-2.0516204974	-1.3928926555	-0.082962
C	-0.279269903	-2.8780918456	-0.4134440628	-0.297811
C	-0.0979473064	-4.3623771131	-0.6436498133	 0.157043
O	-0.9918025595	-5.1396736804	-0.8582171041	-0.236089
H	 1.1972949105	 1.7151452531	 0.3365022549	 0.140336
H	 0.0169028353	 2.2148768126	-0.8835381094	 0.115266
H	-0.4599122381	 2.1200378984	 0.8180663641	 0.113538
H	-0.1703402734	-0.356058258	 0.8024666549	 0.098673
H	-1.3057114532	 0.1099266157	-0.4648078185	 0.099351
H	 0.5054774136	 0.0251692169	-2.1535251158	 0.073067
H	 2.7253235577	-2.173018108	-1.9772059718	 0.104196
H	 2.4497758911	-2.5529687699	-0.2563994956	 0.100437
H	 0.3163333113	-2.3412440395	-2.4177000238	 0.090426
H	 0.0353691788	-2.6612088312	 0.6168278996	 0.125289
H	-1.3445908471	-2.64652851	-0.5014066873	 0.125249
H	 0.9613314626	-4.7103947009	-0.6075672395	 0.07512
38.9759	62.9201	70.2902	108.1339	134.2788	212.0314	230.1007	277.3476	370.9751	442.3847	476.8247	526.2807	745.9067	790.3265	818.979	844.1579	883.3659	935.1242	959.3156	982.0171	1026.4163	1043.2502	1051.2182	1107.193	1118.7643	1145.7022	1167.6062	1172.8768	1231.4625	1244.5371	1281.1693	1297.7302	1301.9809	1334.9268	1367.4543	1381.9649	1406.0698	1414.4861	1433.4023	1461.233	1476.2043	1496.7388	1508.9371	1527.1672	1834.9953	2853.6751	2978.8135	3006.5162	3019.548	3026.5108	3037.7403	3044.563	3069.2367	3074.4904	3100.0814	3106.1044	3121.4791
CCC1OCC1CC=O	CC[C@H]1OC[C@H]1CC=O	
InChI=1S/C7H12O2/c1-2-7-6(3-4-8)5-9-7/h4,6-7H,2-3,5H2,1H3	InChI=1S/C7H12O2/c1-2-7-6(3-4-8)5-9-7/h4,6-7H,2-3,5H2,1H3/t6-,7-/m1/s1
