21
gdb 121372	3.29243	1.01354	0.84702	1.6003	75.35	-0.2513	0.0762	0.3275	1415.227	0.181721	-461.351034	-461.341299	-461.340355	-461.386998	34.44	
C	 0.5656259817	 1.36886404	-0.1082219147	-0.226576
O	 0.7764051194	-0.0102706718	-0.3042569092	-0.238306
C	-0.2527030869	-0.6220402444	-1.0502186764	-0.093363
C	 0.05975206	-2.1065631987	-1.1312154652	 0.060409
O	-0.9945450062	-2.7516355582	-1.8345121712	-0.254729
C	-0.4415376857	-3.9784602487	-2.2345080615	 0.022805
O	 0.8993001333	-3.7345829692	-2.5904422424	-0.272938
C	 1.3290987268	-2.5376716027	-1.9203574973	 0.13366
C	 1.8530688383	-1.5526234205	-2.9564111282	-0.408146
H	 0.5203275193	 1.9150432644	-1.0632365748	 0.108072
H	-0.3683137787	 1.5617441479	 0.4422481424	 0.108309
H	 1.4066536052	 1.7479406311	 0.4769856329	 0.129834
H	-1.2299699005	-0.4877992767	-0.5598505399	 0.101171
H	-0.327528942	-0.1888790835	-2.0589659082	 0.100012
H	 0.1268497644	-2.5042124528	-0.1060682973	 0.080046
H	-0.4929897094	-4.7126740348	-1.4085582016	 0.080031
H	-0.9940214975	-4.3527767209	-3.1021797827	 0.115146
H	 2.1303164303	-2.7937785905	-1.2167764774	 0.08359
H	 1.0673933299	-1.2777822455	-3.6663117911	 0.121499
H	 2.2299497105	-0.6501446331	-2.4678110182	 0.126906
H	 2.6685890481	-2.0146816915	-3.5191693381	 0.122568
27.0577	76.5512	108.8662	138.4955	217.7086	250.6206	277.7729	294.7816	341.918	387.8532	414.3355	561.5908	714.7753	741.9011	774.6101	886.5244	976.2368	998.4604	1013.2448	1036.9969	1080.2412	1098.0859	1129.0035	1145.5919	1157.2214	1168.9021	1187.6925	1197.6381	1224.2573	1240.6431	1244.5528	1320.3352	1335.0154	1373.9049	1388.3493	1408.3879	1429.0024	1441.2094	1482.2813	1486.1676	1494.5336	1496.9003	1506.1606	1532.4101	1544.5168	2924.6149	2971.3362	2974.8153	2983.4366	3018.026	3021.8209	3031.7801	3045.7231	3075.1003	3117.71	3119.9345	3128.5601
COCC1OCOC1C	COC[C@H]1OCO[C@H]1C	
InChI=1S/C6H12O3/c1-5-6(3-7-2)9-4-8-5/h5-6H,3-4H2,1-2H3	InChI=1S/C6H12O3/c1-5-6(3-7-2)9-4-8-5/h5-6H,3-4H2,1-2H3/t5-,6+/m0/s1
