16
gdb 131527	3.1473	1.6068	1.17406	3.9167	70.04	-0.2576	-0.0051	0.2525	1012.913	0.127633	-434.067694	-434.060487	-434.059543	-434.09964	27.173	
O	-0.2922946178	 1.5033919195	-0.212200886	-0.42081
C	 0.0405989275	 0.1413293602	 0.020835165	-0.009567
C	-1.2046320188	-0.7969168786	 0.1754872521	-0.248758
C	-1.3809656855	-1.5356013528	-1.1767737131	-0.187809
N	-0.0497517095	-1.3856082664	-1.7511973184	 0.071216
N	 0.5211384172	-1.9389316417	-2.822548419	-0.172323
N	 1.7235449732	-1.4146404795	-2.9088767872	-0.18862
C	 1.9074588616	-0.5249666795	-1.8921373098	-0.216504
C	 0.760529567	-0.4986227041	-1.1293171245	 0.301581
H	-0.5343435664	 1.6026058077	-1.1394188751	 0.28551
H	 0.628340299	 0.1511540323	 0.9417102479	 0.113281
H	-1.0107826955	-1.5266358272	 0.9663183372	 0.127035
H	-2.0824094433	-0.2143777459	 0.4590322984	 0.129137
H	-1.635368768	-2.5911273516	-1.0655573237	 0.148026
H	-2.1256204141	-1.0703332114	-1.830340145	 0.137961
H	 2.8322719135	 0.0161663888	-1.7784810387	 0.130643
91.2141	150.1912	207.3954	262.6566	335.5216	432.1889	462.9079	623.788	694.3213	709.0311	739.053	795.7558	813.4537	855.4461	924.6761	985.9662	1007.3084	1023.1432	1090.2301	1128.9455	1144.6763	1196.36	1202.9004	1247.7433	1267.689	1276.0751	1288.9209	1334.3806	1335.874	1352.9066	1429.4206	1476.3415	1485.282	1526.4424	1571.5587	3059.5693	3069.8636	3089.6926	3117.2292	3135.0454	3275.7655	3807.6981
OC1CCN2N=NC=C12	O[C@H]1CCn2nncc12	
InChI=1S/C5H7N3O/c9-5-1-2-8-4(5)3-6-7-8/h3,5,9H,1-2H2	InChI=1S/C5H7N3O/c9-5-1-2-8-4(5)3-6-7-8/h3,5,9H,1-2H2/t5-/m0/s1
