23
gdb 116058	2.9324	1.07123	0.83589	1.4071	87.18	-0.2331	0.0255	0.2586	1424.4617	0.207365	-388.300972	-388.291618	-388.290673	-388.335252	35.714	
O	-0.091883465	 1.4832192168	 0.1382278517	-0.423171
C	 0.0137052606	 0.0673146804	 0.0722138507	-0.093119
C	-1.3935018645	-0.5278966165	-0.035073505	 0.04333
C	-2.0845896613	-0.0350805289	-1.3170357262	-0.180373
C	-3.5965331686	-0.3080931862	-1.400681066	-0.261787
C	-3.9971731819	-1.750131648	-1.6048403321	-0.047662
C	-3.6004907961	-2.7965489279	-0.8802506861	-0.049558
C	-2.6675511797	-2.7689046075	 0.3076630047	-0.257522
C	-1.3189458813	-2.0578806311	 0.0914863459	-0.192996
H	 0.794313197	 1.8536938957	 0.103087535	 0.286047
H	 0.6139599839	-0.2455407142	-0.7987398663	 0.082086
H	 0.5114915863	-0.3285210167	 0.9720177164	 0.080829
H	-1.9586288515	-0.139742885	 0.8261308958	 0.074534
H	-1.9237931169	 1.0451732839	-1.3817081974	 0.112022
H	-1.5883662775	-0.4834399724	-2.18882779	 0.085055
H	-4.0731103572	 0.080913123	-0.4876554435	 0.106654
H	-4.0087421131	 0.2885639235	-2.2214141459	 0.094785
H	-4.6923810647	-1.9370287948	-2.4208846355	 0.080192
H	-3.9949568978	-3.7749133593	-1.1469397298	 0.079905
H	-3.1747443021	-2.2996287509	 1.1646200052	 0.106434
H	-2.4649742419	-3.8000100833	 0.6165120275	 0.094878
H	-0.8306306775	-2.4763941315	-0.7986327637	 0.093696
H	-0.6725226592	-2.3035128493	 0.9444177146	 0.08574
57.4107	113.1097	172.687	200.3855	229.1625	251.9083	303.8151	325.4921	413.8298	450.2593	477.9848	526.9466	671.0536	720.3548	754.8581	848.1513	873.7905	906.6185	916.7772	959.7583	992.6277	1003.7029	1032.7308	1060.3224	1077.2481	1094.8136	1102.1953	1142.8837	1163.5876	1204.6599	1252.976	1261.9424	1272.8752	1283.3865	1298.5792	1327.7275	1343.8034	1368.5422	1369.3618	1390.6832	1411.8607	1426.0038	1455.1845	1478.8275	1481.144	1484.2294	1494.6559	1519.6386	1727.4456	2956.1188	2981.1245	2991.466	2993.0456	2998.3524	3008.344	3018.9504	3050.0534	3059.0933	3060.6275	3085.5514	3130.5574	3155.8641	3835.5216
OCC1CCC=CCC1	OC[C@H]1CCC=CCC1	
InChI=1S/C8H14O/c9-7-8-5-3-1-2-4-6-8/h1-2,8-9H,3-7H2	InChI=1S/C8H14O/c9-7-8-5-3-1-2-4-6-8/h1-2,8-9H,3-7H2
