20
gdb 53291	2.6544	0.8986	0.73109	1.1932	90.05	-0.2291	0.0452	0.2742	1621.2998	0.169862	-365.947121	-365.937283	-365.936339	-365.984442	34.989	
C	 0.1887240311	 1.5532257048	 0.0621061839	-0.500013
C	 0.0971039718	 0.1009142188	 0.0364309868	 0.089819
C	 0.0211775944	-1.1013938494	 0.0273841873	 0.139094
C	-0.0496097287	-2.5358874671	-0.0207455472	-0.272266
N	-0.5509944634	-3.246087076	 1.1852553509	-0.335718
C	-1.3483237741	-3.2879172931	-0.0452621784	-0.013306
C	-2.673880745	-2.6059791271	-0.0262497422	 0.035875
C	-3.5723339984	-2.688544527	-1.2356969411	-0.269099
C	-3.9397766479	-3.4263572556	 0.0266386417	-0.271599
H	 1.2207987348	 1.8892624148	-0.0880264633	 0.147754
H	-0.4255895117	 2.0084858882	-0.7228707063	 0.146472
H	-0.1519950915	 1.9532789043	 1.02354899	 0.150629
H	 0.7714071278	-3.0076101117	-0.558328647	 0.100452
H	-0.0313228994	-4.1115323248	 1.3077291514	 0.231636
H	-1.3301196575	-4.2139763914	-0.621604262	 0.07848
H	-2.6748252162	-1.6702276784	 0.5216144568	 0.099196
H	-4.1435066333	-1.8086775997	-1.5093183046	 0.113392
H	-3.2300744244	-3.2737392947	-2.0833970624	 0.108153
H	-3.8447265727	-4.5075199492	 0.0282345584	 0.107511
H	-4.7642785657	-3.0543445058	 0.6243680875	 0.113539
12.6714	53.0475	74.0068	129.9244	185.4917	238.774	287.9956	325.8123	379.6954	451.2626	531.5621	589.2857	714.6996	764.3236	815.3414	829.7839	878.3054	891.2873	925.1008	949.2222	980.0005	1045.2243	1052.141	1053.4765	1062.3958	1076.3093	1114.5532	1130.8051	1152.1495	1196.5799	1212.3113	1223.0869	1239.446	1277.1151	1332.1452	1413.9769	1418.2328	1469.6762	1477.016	1477.2735	1478.7202	1510.2013	2370.276	3025.3859	3084.6552	3087.3602	3091.9876	3114.3768	3128.8661	3133.584	3174.7031	3207.0181	3222.6312	3499.5589
CC#CC1NC1C1CC1	CC#C[C@H]1N[C@H]1C1CC1	
InChI=1S/C8H11N/c1-2-3-7-8(9-7)6-4-5-6/h6-9H,4-5H2,1H3	InChI=1S/C8H11N/c1-2-3-7-8(9-7)6-4-5-6/h6-9H,4-5H2,1H3/t7-,8+/m1/s1
