23
gdb 115947	3.06818	1.19231	0.99045	1.8024	84.5	-0.2408	0.0779	0.3187	1299.1986	0.207628	-388.296102	-388.287424	-388.28648	-388.329539	33.648	
C	-0.0195937654	 1.6299433867	 0.0240928342	-0.383223
C	-0.0007543776	 0.0984915048	 0.083993026	-0.195621
C	-1.3806405209	-0.5447034917	-0.0934231054	 0.043033
C	-2.0589390318	-0.3252829712	-1.4660341839	-0.224797
C	-3.1845173547	-1.3761731148	-1.4956313925	-0.228408
C	-2.5707235061	-2.5946246154	-0.8093541758	 0.129811
O	-1.631412295	-3.2936652743	-1.6626050699	-0.29837
C	-0.5202218322	-2.936399178	-0.8161265965	-0.082136
C	-1.4196148039	-2.0754351257	 0.0980752878	-0.091554
H	 0.9784770491	 2.0433155066	 0.1994320422	 0.11164
H	-0.3596359508	 1.9906952232	-0.9518682601	 0.119781
H	-0.6903712563	 2.0474500512	 0.7836229024	 0.112572
H	 0.6843856317	-0.2838355958	-0.683244618	 0.095909
H	 0.4161926264	-0.2180935416	 1.0492309069	 0.091484
H	-2.0462942681	-0.1190969595	 0.6730355934	 0.067484
H	-2.4268269183	 0.6949376693	-1.6013008864	 0.095218
H	-1.3438638217	-0.524098454	-2.2735680973	 0.107416
H	-4.0468541293	-1.0306215711	-0.9111867467	 0.09327
H	-3.5379307695	-1.6160932308	-2.5024868203	 0.106965
H	-3.3063543634	-3.2852525161	-0.3822963647	 0.065585
H	-0.082052446	-3.8167252141	-0.3280697929	 0.095871
H	 0.2684660311	-2.4166646806	-1.373698465	 0.098174
H	-1.4217138471	-2.3713441573	 1.1483224426	 0.069896
88.3569	110.3891	161.2043	191.5452	234.4505	290.0883	361.4969	379.1679	474.3887	580.5696	618.3817	763.1375	792.956	821.4281	845.0515	889.172	894.881	933.6854	951.7647	969.2282	988.0638	1018.9814	1031.0766	1042.5639	1062.8234	1095.0752	1129.4258	1148.2566	1165.3673	1200.011	1203.3243	1224.8606	1275.8491	1287.461	1302.0056	1319.7161	1327.7523	1338.9376	1349.3353	1366.1056	1384.284	1390.9275	1412.9425	1469.4483	1487.3761	1493.938	1500.3549	1507.8338	1524.9529	2983.8748	3006.8358	3016.5963	3026.4143	3031.1545	3038.8094	3044.9095	3045.6996	3053.3232	3092.0386	3095.8307	3097.7408	3099.1478	3105.5564
CCC1CCC2OCC12	CC[C@H]1CC[C@H]2OC[C@@H]12	
InChI=1S/C8H14O/c1-2-6-3-4-8-7(6)5-9-8/h6-8H,2-5H2,1H3	InChI=1S/C8H14O/c1-2-6-3-4-8-7(6)5-9-8/h6-8H,2-5H2,1H3/t6-,7-,8+/m0/s1
