17
gdb 46467	2.98252	1.52667	1.10388	5.876	76.68	-0.2343	-0.0478	0.1865	1086.7986	0.137061	-418.026133	-418.017897	-418.016952	-418.060271	30.567	
N	-0.1111243456	 1.2978030785	-0.0171003331	-0.520613
C	-0.0013997081	 0.0281929515	-0.0222871794	 0.295386
N	 1.1004339925	-0.7921733647	-0.0387559558	-0.362776
C	 0.8454761625	-2.2282916893	-0.0415769028	-0.264449
C	-0.6755040557	-2.3036630013	-0.0209972007	 0.232247
C	-1.4790843857	-3.3586500305	-0.7586273603	-0.29048
C	-1.4586287868	-3.3628385644	 0.7326355746	-0.290401
C	-1.2041525964	-0.9051518624	-0.0095431416	 0.300349
O	-2.3634036422	-0.5798888582	 0.0067164303	-0.313891
H	 0.8035517627	 1.7555008893	-0.0276025125	 0.202593
H	 2.0367328324	-0.4239821529	-0.0514422792	 0.246777
H	 1.2703535054	-2.703168047	-0.9360096541	 0.116207
H	 1.2948240126	-2.7108981516	 0.8365844654	 0.116229
H	-2.3775250839	-3.0057272759	-1.2533259223	 0.144961
H	-0.9183829506	-4.1209007594	-1.2891709115	 0.121446
H	-0.8835786829	-4.1279551965	 1.2433178544	 0.121453
H	-2.3431234803	-3.0127575051	 1.2537690286	 0.144961
22.3558	68.5007	227.3842	244.8187	308.1142	331.856	390.7952	468.6199	477.8557	570.3917	655.3948	728.9603	789.3801	789.4326	844.4242	871.0172	888.5786	967.0172	972.8339	1036.4699	1052.3667	1073.3217	1076.6737	1101.7671	1144.0563	1204.1673	1213.8972	1245.8399	1297.5891	1370.2223	1382.3413	1450.849	1454.4459	1486.5783	1534.6568	1740.4453	1843.1269	3000.378	3027.1156	3131.6796	3132.9814	3219.119	3233.6016	3439.5326	3651.7944
N=C1NCC2(CC2)C1=O	[NH][C]1NCC2(CC2)C1=O	
InChI=1S/C6H8N2O/c7-5-4(9)6(1-2-6)3-8-5/h1-3H2,(H2,7,8)	InChI=1S/C6H8N2O/c7-5-4(9)6(1-2-6)3-8-5/h1-3H2,(H2,7,8)
