14
gdb 18854	3.87599	2.31279	1.94398	3.3125	60.57	-0.2429	-0.0044	0.2385	708.1986	0.108716	-382.525499	-382.519752	-382.518808	-382.555307	22.799	
O	-0.0034184087	 0.038525767	-0.1149515444	-0.336035
C	-0.0433759729	 1.227609798	 0.0345452899	 0.452075
C	-1.1456102338	 2.2309755846	 0.0438171081	-0.237841
C	-0.7310202447	 3.4081772057	 0.9469764567	 0.121494
O	 0.1400862465	 3.1813732422	 2.02247775	-0.262845
C	 1.3908049093	 2.7475532618	 1.4698884565	-0.090121
C	 1.0536282429	 2.3258418771	 0.0350606252	-0.208725
C	-0.0824019418	 3.313057182	-0.3659548983	-0.130443
H	-2.1688920639	 2.0977139919	-0.2862443465	 0.110957
H	-1.5067336742	 4.1317807901	 1.1662274985	 0.124157
H	 2.1176469582	 3.5719616329	 1.4861257936	 0.106142
H	 1.7717389189	 1.9233297692	 2.0797476216	 0.13053
H	 1.9024370385	 2.1664397993	-0.6273612932	 0.103592
H	-0.1072359442	 3.999092958	-1.1997504578	 0.117064
136.8955	240.5146	404.4346	459.5189	565.1136	676.3518	716.47	739.482	799.9038	814.8115	853.5458	883.1359	915.6481	953.9143	957.3016	1006.1105	1030.8986	1045.7355	1068.2356	1121.394	1132.6328	1171.1727	1228.5938	1241.08	1245.9207	1299.802	1350.3677	1408.9248	1515.2935	1877.5357	3005.0934	3090.6453	3145.49	3191.3687	3199.3885	3228.0531
O=C1C2C3OCC1C23	O=C1[C@H]2[C@H]3OC[C@@H]1[C@@H]23	
InChI=1S/C6H6O2/c7-5-2-1-8-6-3(2)4(5)6/h2-4,6H,1H2	InChI=1S/C6H6O2/c7-5-2-1-8-6-3(2)4(5)6/h2-4,6H,1H2/t2-,3+,4+,6+/m1/s1
