16
gdb 69629	3.6142	1.19869	1.15643	1.1533	77.18	-0.2101	0.0247	0.2348	1103.7258	0.122304	-400.619189	-400.611215	-400.610271	-400.651217	31.954	
O	-0.05171178	 1.4144213131	-0.0117644127	-0.455479
C	-0.008175416	 0.0355793209	 0.0049542686	 0.393199
C	-0.2392557047	-0.8425888366	-1.193614683	-0.358483
C	-1.1786010035	-0.9174885711	-0.004618125	-0.171231
C	-0.5493853502	-1.6854408761	 1.2032710199	 0.207628
N	 0.8250001406	-2.1506487867	 0.8164542561	-0.375946
C	 0.6106948082	-0.7482978174	 1.2091337681	-0.203549
C	-1.2652784366	-2.2656795964	 2.2791531878	 0.166387
C	-1.8961826229	-2.7593016021	 3.1784100827	-0.394636
H	 0.7184234942	 1.7351427553	-0.4951979914	 0.288826
H	-0.6720956922	-0.3045298022	-2.0320235272	 0.114428
H	 0.4196981378	-1.6637364973	-1.4452645599	 0.143005
H	-2.2366492992	-0.7059547742	-0.0696885667	 0.105954
H	 1.2017398326	-2.6453317677	 1.6255388171	 0.239045
H	 1.1097074742	-0.2915328249	 2.0544256504	 0.112249
H	-2.4489839622	-3.1899074667	 3.9760237951	 0.188603
113.5404	148.7649	260.0467	303.24	344.0157	394.8651	437.9071	468.3238	508.2595	531.0646	561.3546	590.87	647.9962	666.8074	784.9789	814.7715	850.5172	872.2316	924.0928	933.0315	969.1936	1000.4755	1024.8048	1047.1762	1090.2582	1104.4938	1189.9348	1200.9277	1240.5154	1289.6197	1324.8035	1386.7448	1404.0531	1481.264	2229.5846	3135.6119	3201.5226	3218.5035	3233.605	3471.1468	3503.0289	3781.2834
OC12CC1C1(NC21)C#C	O[C@]12C[C@H]1[C@]1(N[C@@H]21)C#C	
InChI=1S/C7H7NO/c1-2-6-4-3-7(4,9)5(6)8-6/h1,4-5,8-9H,3H2	InChI=1S/C7H7NO/c1-2-6-4-3-7(4,9)5(6)8-6/h1,4-5,8-9H,3H2/t4-,5+,6+,7+/m0/s1
