19
gdb 39113	3.73848	1.16468	1.08027	3.0805	75.27	-0.2372	0.0697	0.3069	1175.9875	0.159678	-422.954547	-422.946606	-422.945662	-422.987751	29.916	
C	 0.0141963015	 1.5150362893	 0.1397896222	-0.339898
C	 1.3444140662	 0.8077513921	-0.038839754	-0.191687
C	 1.6417450863	 0.0032971589	 1.2184693264	-0.08758
O	 0.3322038137	-0.6289003228	 1.1739563343	-0.320488
C	 0.0405718614	 0.0300635551	-0.0704011346	 0.477813
C	-0.6935353922	-0.745880605	-1.1038673013	-0.154211
C	-0.2507532249	-2.201676757	-1.387044688	-0.085218
O	-1.5797923447	-2.700262909	-1.1368606447	-0.271135
C	-2.0310135758	-1.4103167658	-0.6817086294	-0.084538
H	-0.2730569996	 1.9137793076	 1.1092457494	 0.116494
H	-0.30038329	 2.1058568701	-0.7150842809	 0.11564
H	 2.0441405604	 1.0492446335	-0.8274191252	 0.102423
H	 2.4321547168	-0.7444010943	 1.0898852493	 0.111002
H	 1.801983214	 0.5559074767	 2.1518414318	 0.106948
H	-0.789422487	-0.1432737104	-2.0101737316	 0.083466
H	 0.0882482213	-2.4241080424	-2.4052847691	 0.09732
H	 0.4751177104	-2.5904007468	-0.6626601385	 0.108368
H	-2.2141162902	-1.3968276388	 0.3999004224	 0.115151
H	-2.9320517277	-1.0766310411	-1.2086572383	 0.100128
68.1875	86.8883	141.119	215.0708	311.1442	355.7768	420.4321	500.9471	619.8987	750.8187	808.7909	845.3137	872.8898	891.0981	933.2481	956.1408	973.246	983.3453	993.8387	1016.4684	1031.916	1039.1453	1042.686	1072.7644	1097.5639	1130.6375	1161.1766	1165.8439	1173.4752	1203.5501	1245.5472	1279.7554	1310.462	1311.6088	1344.439	1378.7901	1434.2886	1490.3152	1504.2444	1518.8667	1532.1726	3014.2702	3024.3444	3025.1867	3061.8329	3066.3204	3073.9511	3088.5624	3112.606	3200.4739	3208.8658
C1C2COC12C1COC1	C1[C@H]2CO[C@@]12C1COC1	
InChI=1S/C7H10O2/c1-5-4-9-7(1,5)6-2-8-3-6/h5-6H,1-4H2	InChI=1S/C7H10O2/c1-5-4-9-7(1,5)6-2-8-3-6/h5-6H,1-4H2/t5-,7-/m0/s1
