14
gdb 130418	4.0358	1.02617	0.83194	7.1967	72.26	-0.2681	-0.0466	0.2215	1296.9581	0.103655	-429.070439	-429.062543	-429.061599	-429.103434	28.296	
N	-0.2638634589	 0.7264230991	 0.0368274663	-0.528664
H	 0.8078359126	-0.6657906309	 1.8526477502	 0.295367
H	-0.0727722853	 1.1001003846	-0.8861858631	 0.247943
H	-1.2075179907	 0.3516967794	 0.0078890839	 0.24563
C	-0.1728188044	 1.7932994033	 1.0409724125	-0.287809
C	-0.0267109925	 1.1872969025	 2.40157269	 0.382877
N	 0.5144018951	-0.0427853621	 2.5903129906	-0.317361
C	 0.5024668866	-0.2271007679	 3.9467084526	 0.272198
N	-0.0131299596	 0.8313543033	 4.5425264367	-0.253602
N	-0.3510153157	 1.721714703	 3.5608582108	-0.260325
C	 0.9763895777	-1.4043482205	 4.5784773983	 0.245731
N	 1.3716063998	-2.3787759334	 5.0614040147	-0.327581
H	 0.723295606	 2.3867420083	 0.8220979774	 0.146198
H	-1.0163578306	 2.4958435712	 1.067373069	 0.1394
86.5239	122.7983	142.7524	223.8653	273.89	307.8601	459.5541	514.4688	558.3433	581.3869	658.6041	694.0967	732.9726	741.4579	873.1427	980.2245	1041.662	1047.0043	1062.295	1115.5479	1167.8218	1185.6815	1304.41	1382.6858	1410.3228	1451.9665	1482.5781	1496.1097	1569.9678	1664.3225	2356.9522	3019.1907	3057.732	3504.9741	3586.9486	3639.3493
[NH3+]CC1=NC(=N[N-]1)C#N	NCc1[nH]c(nn1)C#N	
InChI=1S/C4H4N5/c5-1-3-7-4(2-6)9-8-3/h1,5H2/q-1/p+1	InChI=1S/C4H5N5/c5-1-3-7-4(2-6)9-8-3/h1,5H2,(H,7,8,9)
