14
gdb 9446	2.80732	1.81385	1.69848	0.7916	64.68	-0.2538	-0.04	0.2138	857.5205	0.103561	-382.499376	-382.491272	-382.490328	-382.531854	29.138	
C	-0.1755389652	 1.611647418	 0.0972357235	-0.428481
C	-0.0001489809	 0.0977372973	 0.0287779068	 0.089653
O	 1.1213667423	-0.2912160829	-0.8254214619	-0.305797
C	 1.8557256382	-0.940401868	 0.2297858877	-0.19128
C	 0.7744959937	-0.5340464282	 1.2307009765	 0.311912
O	 0.5981740653	-0.6115603533	 2.4033730397	-0.263254
C	-1.2251829904	-0.6046870513	-0.3149834098	 0.339052
C	-2.2383900769	-1.1966653486	-0.5752731115	-0.458146
H	 0.7671245825	 2.0896482123	 0.3761608531	 0.127421
H	-0.4903684445	 1.9913756161	-0.8781427893	 0.145156
H	-0.9389871521	 1.8643081456	 0.8376366487	 0.146878
H	 1.9539617482	-2.0235268279	 0.081535485	 0.141572
H	 2.8478318643	-0.5043247392	 0.3984409086	 0.137441
H	-3.1332715944	-1.7180843796	-0.8118669269	 0.207872
89.5954	119.347	187.2933	195.1236	215.7643	344.3117	389.7577	500.3105	533.2722	570.4646	625.4146	654.8184	676.6101	716.9608	854.6014	936.1454	961.6494	1010.6836	1036.3857	1110.9438	1137.9603	1172.4559	1218.0662	1296.9898	1397.476	1476.7702	1479.9697	1486.0034	1932.5016	2231.4505	3020.0297	3048.1323	3067.7366	3129.7758	3133.517	3499.5635
CC1(OCC1=O)C#C	C[C@]1(OCC1=O)C#C	
InChI=1S/C6H6O2/c1-3-6(2)5(7)4-8-6/h1H,4H2,2H3	InChI=1S/C6H6O2/c1-3-6(2)5(7)4-8-6/h1H,4H2,2H3/t6-/m0/s1
