18
gdb 113490	2.99161	1.2556	1.09633	1.5222	72.68	-0.2285	0.0212	0.2497	1160.8583	0.147341	-439.064943	-439.056539	-439.055595	-439.098457	30.871	
C	 0.0307932103	 1.1035947712	 0.3782068262	-0.241776
O	-0.1735719284	 0.0023379696	-0.4904940443	-0.230611
C	-1.376899989	-0.6512179435	-0.254471874	 0.045984
C	-1.539930654	-2.0261710302	-0.8489974393	-0.394104
C	-1.3899435861	-1.8653616756	 0.6339295644	 0.364129
C	-0.2032760739	-2.3559345899	 1.465169346	-0.253475
N	-0.7939489706	-2.6733937621	 2.779014175	-0.263394
C	-2.0407961929	-2.4949998869	 2.646950808	 0.106878
O	-2.5447643819	-2.0737823014	 1.4584167971	-0.245935
H	 1.0016823601	 1.5346974308	 0.1250740025	 0.132379
H	-0.7474240661	 1.8688814748	 0.2411497651	 0.113069
H	 0.0342951094	 0.7985480817	 1.433705155	 0.117431
H	-2.2604242016	-0.0110023973	-0.2290322145	 0.096721
H	-2.5144448513	-2.2867939526	-1.2463226575	 0.130741
H	-0.6907134828	-2.4413955798	-1.382732325	 0.13322
H	 0.2645010938	-3.2551052363	 1.0465232959	 0.120763
H	 0.5815111342	-1.6000797567	 1.5642807004	 0.128
H	-2.7877366893	-2.6540306358	 3.4165049889	 0.139981
64.5915	133.4169	154.7616	159.2205	219.1045	321.355	391.9072	446.654	481.4812	534.084	586.7293	798.3989	814.399	864.0358	909.9096	921.7134	958.0323	978.1944	1008.3041	1041.1485	1070.7318	1076.3213	1116.1986	1139.3461	1171.7553	1183.7997	1193.3324	1205.0756	1250.418	1289.4419	1337.0657	1349.1736	1402.9772	1467.3122	1485.2647	1492.6649	1500.8775	1513.0037	1705.6817	2989.6354	3032.3909	3043.243	3077.9576	3091.8181	3125.2537	3131.7907	3218.692	3226.7634
COC1CC11CN=CO1	CO[C@H]1C[C@]21CN=CO2	
InChI=1S/C6H9NO2/c1-8-5-2-6(5)3-7-4-9-6/h4-5H,2-3H2,1H3	InChI=1S/C6H9NO2/c1-8-5-2-6(5)3-7-4-9-6/h4-5H,2-3H2,1H3/t5-,6+/m0/s1
