19
gdb 83600	2.16293	1.65402	1.27035	1.8094	75.51	-0.2401	-0.027	0.2131	1093.8195	0.157453	-423.016805	-423.007767	-423.006823	-423.050671	33.116	
C	-0.7337433039	 1.2301658663	-0.5424877439	-0.407443
C	-0.0828530303	-0.1492318872	-0.4235760341	-0.131683
C	 0.9351411984	-0.5433507432	-1.530173331	 0.051306
O	 1.0222589622	-1.9674150862	-1.7143352872	-0.287856
C	 2.1296306664	-2.0724097076	-0.7962787927	-0.121676
C	 2.1245546628	-0.5474586122	-0.5033816526	 0.147634
C	 3.427109165	 0.217157752	-0.5589678727	-0.497424
C	 1.0953581205	-0.1795893783	 0.5787754006	 0.356727
O	 1.197929662	 0.1076529403	 1.7373227804	-0.309382
H	 0.0065767724	 2.005514179	-0.7682058461	 0.119721
H	-1.4848654421	 1.2388830871	-1.3379676696	 0.126293
H	-1.2196694073	 1.5015933893	 0.3986826013	 0.141505
H	-0.8348256509	-0.926019373	-0.2538026934	 0.111801
H	 0.9180153407	 0.0144913411	-2.4697316861	 0.082319
H	 1.9244150566	-2.7459525262	 0.0439808321	 0.115528
H	 3.0428214166	-2.4035483932	-1.3071474122	 0.109808
H	 3.9953737732	-0.0329412468	-1.460635684	 0.124521
H	 3.2591251961	 1.2985971254	-0.5488146396	 0.127459
H	 4.0447202316	-0.0255094064	 0.3125555908	 0.140844
57.8031	162.9293	169.2942	194.0644	209.4847	224.5886	266.812	291.936	392.4281	479.8349	607.3863	645.9438	718.0465	776.8112	845.7215	891.7264	914.0833	957.5464	975.4371	1006.5661	1025.9183	1057.7213	1063.8353	1099.4827	1142.1358	1158.02	1172.6402	1210.7025	1232.8963	1269.4059	1293.1402	1319.6903	1369.4921	1406.1144	1409.1242	1487.1663	1490.4777	1495.538	1496.7389	1523.4724	1879.6965	3011.78	3032.2659	3035.4948	3061.8746	3067.5525	3083.8115	3101.4961	3103.2478	3105.301	3119.4076
CC1C2OCC2(C)C1=O	C[C@H]1[C@@H]2OC[C@]2(C)C1=O	
InChI=1S/C7H10O2/c1-4-5(8)7(2)3-9-6(4)7/h4,6H,3H2,1-2H3	InChI=1S/C7H10O2/c1-4-5(8)7(2)3-9-6(4)7/h4,6H,3H2,1-2H3/t4-,6+,7-/m1/s1
