16
gdb 23007	2.63213	1.20533	0.95252	1.6237	78.24	-0.2346	-0.0467	0.1879	1235.5917	0.121409	-437.787035	-437.777973	-437.777029	-437.820989	33.968	
O	-0.4407082444	 1.28519959	 0.8096884368	-0.383038
N	-0.4632038588	-0.0995331189	 0.9111319081	-0.226378
C	-1.433699402	-0.640144058	 0.249627249	 0.212757
C	-2.378744568	 0.1082769125	-0.5107438675	 0.316752
C	-3.1990293804	 0.6932911498	-1.1691106682	-0.433594
C	-1.5964248308	-2.113221476	 0.3024426236	-0.163606
C	-0.3770115734	-3.0334732775	 0.3747021926	-0.329001
C	-1.2303736295	-2.8709103422	 1.5900773692	 0.14453
O	-0.7964922552	-2.2018696957	 2.7170386844	-0.416954
H	 0.3432111448	 1.5220662842	 1.3181467772	 0.311304
H	-3.9150140692	 1.2257333804	-1.7456785724	 0.208728
H	-2.4531592508	-2.4708620736	-0.2549989223	 0.102776
H	-0.4176517461	-3.9586605775	-0.1903222157	 0.117668
H	 0.5874476167	-2.5365835582	 0.382734678	 0.13094
H	-1.8947227029	-3.6854021609	 1.8611926313	 0.112345
H	-0.3994458801	-1.3639707485	 2.4221859659	 0.29477
50.8151	139.433	156.358	194.1766	265.1436	300.9397	352.5871	407.0815	431.5032	477.0375	503.3679	533.89	635.6795	648.893	654.9251	731.0612	753.76	774.2125	836.9754	923.7378	997.4207	1018.2327	1055.3549	1115.909	1119.1748	1147.3272	1204.4315	1237.2192	1364.5239	1388.136	1416.6019	1457.7269	1488.2084	1654.0267	2223.2832	3128.8802	3163.9463	3187.7773	3224.7801	3499.4742	3618.9964	3809.3213
ON=C(C#C)C1CC1O	ON=C(C#C)[C@H]1C[C@H]1O	
InChI=1S/C6H7NO2/c1-2-5(7-9)4-3-6(4)8/h1,4,6,8-9H,3H2	InChI=1S/C6H7NO2/c1-2-5(7-9)4-3-6(4)8/h1,4,6,8-9H,3H2/t4-,6-/m1/s1
