19
gdb 68166	3.54495	1.43917	1.22892	3.9978	77.07	-0.2376	0.0298	0.2674	1060.3615	0.161498	-419.200451	-419.192687	-419.191743	-419.232353	30.911	
C	-0.0330611888	 1.5549629187	-0.0096657807	-0.486929
C	 0.0238817992	 0.0435591432	-0.0455863856	 0.275212
C	 0.7257956861	-0.7015296514	-1.2117150679	-0.274175
C	 1.0856156578	-1.7160671166	-0.0990170924	-0.091145
N	 0.9438666969	-0.6321744147	 0.9465072433	-0.358353
C	-0.0734472126	-2.6529754739	 0.1008131212	 0.469327
N	 0.062051023	-3.9088128827	 0.147973431	-0.542416
O	-1.2882242929	-2.036352113	 0.1831304864	-0.272588
C	-1.3394500378	-0.5977462229	 0.2049683497	-0.070995
H	 0.9591992338	 1.9822600301	-0.187770069	 0.119351
H	-0.7076604762	 1.9426121032	-0.7804678425	 0.127852
H	-0.3866167608	 1.9102319984	 0.9642691466	 0.133941
H	 0.1334933092	-1.0376247796	-2.068340601	 0.109465
H	 1.6088430917	-0.1578076014	-1.558404708	 0.100321
H	 2.0236927108	-2.266553668	-0.1208720748	 0.098457
H	 1.8208595048	-0.1109080722	 0.956434074	 0.216447
H	-0.8485028766	-4.35719216	 0.2731563006	 0.217822
H	-1.7126943057	-0.294899652	 1.1894263345	 0.119091
H	-2.0621596419	-0.2946100351	-0.5610896453	 0.109314
116.6833	185.219	211.473	267.6771	327.2701	388.6111	418.233	450.2408	465.4643	640.6812	671.5647	709.4478	777.5337	839.3254	886.7965	902.0194	918.6386	923.1083	949.9283	972.917	994.4265	1029.7497	1037.5376	1088.6333	1148.4129	1156.6772	1192.6645	1223.9068	1244.4261	1260.6567	1292.0766	1309.7894	1327.1539	1409.3004	1413.219	1433.67	1487.5505	1491.4635	1496.7261	1502.4344	1768.1374	3029.0587	3034.3848	3047.1675	3079.794	3101.3481	3103.8878	3107.753	3145.4853	3450.7972	3458.3951
CC12CC(N1)C(=N)OC2	C[C@@]12C[C@@H](N1)[C]([NH])OC2	
InChI=1S/C6H10N2O/c1-6-2-4(8-6)5(7)9-3-6/h4,7-8H,2-3H2,1H3	InChI=1S/C6H10N2O/c1-6-2-4(8-6)5(7)9-3-6/h4,7-8H,2-3H2,1H3/t4-,6+/m1/s1
