25
gdb 68919	2.17096	1.65308	1.16952	0.1579	92.23	-0.2474	0.0832	0.3305	1207.9956	0.230503	-352.374083	-352.36488	-352.363936	-352.407109	37.288	
C	-0.0055731352	 1.5467334147	-0.1008255118	-0.471353
C	 0.0238590644	 0.0304492138	-0.0048571273	 0.323046
C	 1.3580905858	-0.6647667585	-0.1993296421	-0.36973
C	 0.7175561371	-0.6603456126	 1.1700790456	 0.305807
C	 1.3769969737	 0.1567565437	 2.2676849775	-0.46304
C	 0.1379545755	-1.9672681723	 1.7062760607	-0.243883
C	-0.7816786327	-2.7115936755	 0.7324377859	-0.217041
C	-1.84600426	-1.7568380352	 0.1887203658	-0.184841
C	-1.2188426879	-0.6238125506	-0.635376346	-0.271118
H	 0.9210929405	 2.0130605169	 0.2411685032	 0.110703
H	-0.1579759849	 1.8536843887	-1.1427753443	 0.113348
H	-0.8302313502	 1.9682832409	 0.4869540697	 0.110998
H	 1.375255494	-1.5896399222	-0.76880931	 0.099571
H	 2.2377199287	-0.0446223602	-0.3476415708	 0.096142
H	 1.8919144327	 1.0415477032	 1.8874109093	 0.111413
H	 0.6438583794	 0.4891271439	 3.012799507	 0.110529
H	 2.1228881989	-0.4521640539	 2.7932251664	 0.111938
H	 0.9626687226	-2.6169940958	 2.0289276215	 0.088879
H	-0.4395019095	-1.7374170996	 2.6136666288	 0.089353
H	-0.2031117922	-3.1381455176	-0.0976106515	 0.094067
H	-1.2477564737	-3.5585002249	 1.2479692727	 0.090043
H	-2.579198052	-2.2937690444	-0.4234645181	 0.087371
H	-2.399295364	-1.33084126	 1.036852214	 0.091013
H	-1.9755035842	 0.1505394884	-0.8049540624	 0.091022
H	-0.9546607569	-1.0048345308	-1.630915904	 0.095765
119.5995	156.2939	184.1677	209.1317	305.	310.7858	341.8865	360.8956	395.3261	409.6418	471.2322	501.115	552.3898	637.7994	697.3273	814.9546	846.234	888.699	896.652	916.9113	930.9851	947.3248	957.9856	1006.2563	1029.447	1058.9122	1072.0248	1074.6245	1095.0576	1130.6072	1163.6852	1193.9576	1209.3666	1229.6153	1271.5516	1289.9728	1311.9155	1364.3786	1371.6038	1383.6168	1389.6302	1403.6865	1409.4988	1421.7626	1480.5155	1484.5382	1487.7721	1491.995	1494.6806	1496.3512	1502.4697	1508.3276	1517.7569	2996.0236	3009.872	3012.4962	3017.5261	3018.6417	3022.9627	3034.7527	3055.0827	3063.7436	3067.0814	3072.1646	3073.9011	3107.6691	3112.2123	3123.5499	3193.5163
CC12CC1(C)CCCC2	C[C@@]12C[C@]1(C)CCCC2	
InChI=1S/C9H16/c1-8-5-3-4-6-9(8,2)7-8/h3-7H2,1-2H3	InChI=1S/C9H16/c1-8-5-3-4-6-9(8,2)7-8/h3-7H2,1-2H3/t8-,9+
