16
gdb 82156	3.41619	1.19495	1.04592	5.8465	65.68	-0.2562	0.0107	0.2669	1137.818	0.124025	-474.986096	-474.97808	-474.977135	-475.019261	29.499	
O	 0.1241654374	 1.4099161431	-0.1048883163	-0.426715
C	 0.0794837288	 0.0195703307	-0.0724221998	 0.103119
C	-1.3062298932	-0.6335708244	 0.042211078	-0.08128
N	-2.0447346396	-0.0612594702	-1.1031291808	-0.344123
C	-1.1802568469	-1.2466499971	-1.3158501819	-0.094476
C	 0.2363737568	-0.7286888536	-1.4706972411	 0.09325
O	 0.435692539	 0.080121579	-2.6193946596	-0.192963
C	 1.6116977262	 0.7409617547	-2.697429768	 0.180431
O	 1.8775588544	 1.4636953003	-3.6095790744	-0.2779
H	-0.6224558594	 1.6819309695	-0.6594981102	 0.303774
H	 0.8046142715	-0.3271586476	 0.6658549198	 0.09803
H	-1.8167961626	-0.9965271445	 0.9247836678	 0.106416
H	-3.0089120151	-0.3846687232	-1.0573876742	 0.244209
H	-1.5897523252	-2.1719723385	-1.6989717482	 0.109981
H	 0.9809186461	-1.5301093317	-1.4229256717	 0.095478
H	 2.2878805318	 0.5288957235	-1.8492975394	 0.08277
74.2825	118.6891	137.5721	209.413	262.2313	311.2934	457.7308	509.7533	557.8449	646.635	699.253	737.1493	822.4397	845.3531	861.2521	910.4023	952.8407	1014.6498	1028.6924	1039.4433	1089.0279	1107.7711	1110.9347	1143.9521	1172.4398	1174.3119	1247.9363	1259.8631	1322.2901	1329.9645	1368.9288	1386.2579	1437.7872	1450.0115	1867.6049	2972.5567	3056.0183	3104.3874	3198.3081	3211.2631	3501.2064	3730.9274
OC1C2NC2C1OC=O	O[C@H]1[C@H]2N[C@H]2[C@H]1OC=O	
InChI=1S/C5H7NO3/c7-1-9-5-3-2(6-3)4(5)8/h1-6,8H	InChI=1S/C5H7NO3/c7-1-9-5-3-2(6-3)4(5)8/h1-6,8H/t2-,3+,4-,5+/m0/s1
