18
gdb 49198	4.34922	1.08492	0.96398	4.5298	84.43	-0.2121	-0.0389	0.1731	1228.7135	0.149579	-401.95545	-401.947825	-401.94688	-401.987947	28.927	
O	-0.0554114756	-0.1515332753	-0.0629925739	-0.300888
C	 0.026656854	 1.0428565728	 0.15738167	 0.062628
C	 1.2285324469	 1.8272198824	-0.0118854824	 0.184996
C	 1.3527678656	 3.1427636435	 0.2863251924	-0.117569
N	 2.5852754153	 3.6816254834	-0.0297911253	-0.075885
C	 3.5081844074	 4.1021025492	 1.0743442481	-0.17584
C	 4.2856588471	 2.7653016714	 0.9232729842	-0.244182
C	 3.4754269145	 2.5144745257	-0.3777050712	 0.032661
C	 2.5534644612	 1.2846209844	-0.5184738431	-0.353833
H	-0.8522519868	 1.6174492202	 0.5302809133	 0.051612
H	 0.5935913581	 3.7812774017	 0.7261888525	 0.125745
H	 4.0805229604	 4.9889651668	 0.7897966196	 0.121094
H	 3.0118688242	 4.2847099321	 2.0306843684	 0.118146
H	 5.369914348	 2.8366787357	 0.8216297992	 0.113093
H	 4.0443392898	 2.0467586866	 1.7104311122	 0.120145
H	 4.0546243198	 2.717253363	-1.2817168354	 0.090722
H	 2.8933876285	 0.4221323836	 0.0665341083	 0.123604
H	 2.4838921717	 0.9476867928	-1.5581421867	 0.123752
86.5583	122.3876	173.6752	234.8976	337.7523	378.5815	446.327	517.3196	662.2989	670.9255	733.7178	797.7984	837.8683	878.4954	901.6005	922.9611	950.6927	971.78	1019.2393	1029.0846	1068.6246	1090.2209	1126.3071	1187.1142	1209.3887	1238.0826	1241.4332	1260.6997	1285.0765	1297.8743	1335.5822	1355.0914	1372.1565	1424.1717	1481.8966	1493.228	1510.3664	1639.3389	1760.6236	2860.6422	3038.5886	3057.3517	3064.8346	3070.9831	3079.5112	3108.4375	3133.235	3192.6048
O=CC1=CN2CCC2C1	O=CC1=CN2CC[C@H]2C1	
InChI=1S/C7H9NO/c9-5-6-3-7-1-2-8(7)4-6/h4-5,7H,1-3H2	InChI=1S/C7H9NO/c9-5-6-3-7-1-2-8(7)4-6/h4-5,7H,1-3H2/t7-/m0/s1
