19
gdb 52250	4.79866	0.83314	0.768	3.6648	77.22	-0.2453	0.0326	0.2778	1477.3467	0.160489	-419.182132	-419.17359	-419.172646	-419.216703	31.419	
O	-0.1292183777	 0.0931433935	 0.8689334566	-0.325623
C	-0.1009191115	 1.1873187832	 0.3450320143	 0.154558
N	 0.946820079	 1.6929672843	-0.3556732011	-0.274939
C	 2.2076405735	 0.9892169354	-0.5171969137	-0.171946
C	 3.3654571955	 1.9412775272	-0.2688716041	 0.05782
C	 4.8216726779	 1.5449713311	-0.6333950169	-0.292256
C	 4.8349389275	 2.7911374468	-1.5175687668	-0.002756
C	 3.7594943983	 2.7280051804	-2.5199603505	-0.244103
N	 3.4078217488	 3.1742747633	-1.1528372526	-0.159945
H	-0.9486690529	 1.8997303197	 0.3858529014	 0.074575
H	 0.8862669092	 2.6303602427	-0.7235050294	 0.261528
H	 2.2175388243	 0.1698544479	 0.2067305818	 0.147928
H	 2.2726007653	 0.5356913642	-1.5151856704	 0.107427
H	 3.3019857874	 2.3044491676	 0.760396011	 0.098626
H	 5.498346915	 1.5893774551	 0.2207621431	 0.118233
H	 4.9737764633	 0.5942364266	-1.1537899252	 0.108497
H	 5.6264270833	 3.532363872	-1.5520287392	 0.101076
H	 3.6885461338	 3.5359966289	-3.2412136434	 0.125637
H	 3.41732428	 1.76460532	-2.890157475	 0.115663
30.8958	71.0791	148.7632	190.7163	266.3592	296.1643	391.0078	421.5424	534.2555	565.8407	690.5759	755.5748	762.6378	789.0319	845.5295	907.8031	952.0229	965.067	996.7442	1032.774	1058.443	1074.4252	1094.7683	1107.8836	1119.3643	1131.9206	1185.4349	1214.2078	1227.8114	1254.0899	1270.2417	1300.1411	1337.8779	1367.0051	1413.2014	1428.4265	1487.3551	1498.5276	1514.0316	1526.1044	1803.6651	2937.425	3015.9746	3056.0064	3070.4376	3103.3071	3114.1791	3124.9674	3168.0029	3202.368	3624.5493
O=CNCC1CC2CN12	O=CNC[C@H]1C[C@H]2CN12	
InChI=1S/C6H10N2O/c9-4-7-2-5-1-6-3-8(5)6/h4-6H,1-3H2,(H,7,9)	InChI=1S/C6H10N2O/c9-4-7-2-5-1-6-3-8(5)6/h4-6H,1-3H2,(H,7,9)/t5-,6+,8?/m1/s1
