15
gdb 42584	3.06062	2.29108	1.74765	4.9386	66.51	-0.2433	-0.0041	0.2392	786.6067	0.115559	-416.7514	-416.74574	-416.744796	-416.781282	23.74	
O	 0.0366148159	 0.0624544678	 0.3404352084	-0.315467
C	 0.0234554941	 1.2178154619	 0.0432159454	 0.403434
N	-1.1774686804	 2.0192301229	-0.0530325029	-0.160944
C	-1.0171121714	 3.3419084845	 0.6524306663	-0.075841
C	-0.8709910272	 3.2194658717	-0.823700927	-0.06586
C	 0.6609773833	 3.3693321332	-0.6437938282	-0.028647
C	 0.4759835891	 3.7655859194	 0.8395117593	-0.058796
C	 1.4545484819	 2.6389130478	 1.2072713329	-0.205605
N	 1.1885096449	 2.0351375851	-0.1732537302	-0.174049
H	-1.8598998197	 3.6382961184	 1.2631077646	 0.119929
H	-1.503096697	 3.5007420106	-1.6557217303	 0.114928
H	 1.2879778195	 3.8843149158	-1.3663178103	 0.095213
H	 0.5953957375	 4.7835814715	 1.2107809261	 0.090114
H	 2.4930945909	 2.97212613	 1.2783795314	 0.123959
H	 1.2269370489	 1.9660989094	 2.0381785244	 0.13763
153.3207	333.8328	440.0066	494.591	631.3068	643.2401	711.6656	755.3397	780.89	797.7091	828.4318	874.6526	889.9491	929.6885	931.2111	955.9024	969.9268	983.5861	1012.0751	1044.7357	1060.9819	1075.4384	1158.8749	1178.3489	1192.7199	1232.1137	1243.5239	1248.8722	1272.3693	1308.8046	1338.9475	1514.3424	1883.9888	3058.7425	3112.9301	3117.0262	3156.6402	3197.8791	3209.9811
O=C1N2C3C2C2C3CN12	O=C1N2[C@@H]3[C@H]2[C@H]2[C@@H]3CN12	
InChI=1S/C6H6N2O/c9-6-7-1-2-3(7)5-4(2)8(5)6/h2-5H,1H2	InChI=1S/C6H6N2O/c9-6-7-1-2-3(7)5-4(2)8(5)6/h2-5H,1H2/t2-,3+,4-,5+,8?/m0/s1
