21
gdb 55683	2.92556	1.13909	0.98905	2.5834	78.79	-0.2344	-0.0068	0.2276	1295.8185	0.180142	-424.241066	-424.231248	-424.230304	-424.275984	36.616	
C	-1.6403166198	 0.6609767417	-1.8305939233	-0.477574
C	-2.4046093734	-0.439194421	-1.1270238108	 0.392554
O	-3.4112653688	-0.9300227498	-1.5886458219	-0.311301
C	-1.831705718	-0.9352068973	 0.201009617	-0.318234
C	-1.0140683317	-2.2227593322	 0.0133511748	 0.41481
O	 0.05466958	-1.8784801197	-0.8486112504	-0.486106
C	-0.6625575981	-2.9127192268	 1.3654144532	-0.276425
C	-1.8655882148	-3.869502203	 1.1478851916	-0.215826
C	-1.8789360537	-3.4674112921	-0.3519064221	-0.278865
H	-2.1113844369	 0.8994526435	-2.7849827622	 0.133054
H	-1.6055484008	 1.5576044985	-1.2003372741	 0.132094
H	-0.6066801012	 0.3333455881	-1.9808326432	 0.161885
H	-1.1819825825	-0.1804287093	 0.6559333834	 0.105434
H	-2.6677131359	-1.1361450226	 0.8763609389	 0.121326
H	 0.5442338821	-2.6808949289	-1.0552316408	 0.277027
H	 0.2949471691	-3.4383584351	 1.2846742598	 0.09191
H	-0.6421460736	-2.2895680218	 2.2636075213	 0.099086
H	-1.7078981196	-4.9243778078	 1.3786909884	 0.101129
H	-2.7630677874	-3.534484982	 1.673746467	 0.111096
H	-2.8357955915	-3.2796925188	-0.8395542805	 0.136013
H	-1.2991652236	-4.1689805535	-0.9619153463	 0.086914
48.6686	101.1895	148.763	163.6481	169.9131	263.2126	298.9372	300.1671	408.3438	420.4309	437.942	522.5273	573.2426	655.2334	732.6024	786.1845	802.5166	873.3025	896.2969	913.3389	929.8482	977.5341	983.3284	1019.4885	1035.2283	1090.5957	1111.5574	1139.2557	1197.5676	1210.8802	1223.314	1243.5499	1258.8763	1267.9761	1308.9491	1326.048	1375.979	1390.7811	1460.2639	1469.6503	1474.4912	1476.3003	1485.826	1505.4749	1804.0501	3036.0485	3042.8325	3048.6579	3051.6948	3068.9956	3098.0902	3104.2035	3109.6368	3120.5578	3137.6275	3153.7285	3818.0578
CC(=O)CC1(O)CCC1	CC(=O)CC1(O)CCC1	
InChI=1S/C7H12O2/c1-6(8)5-7(9)3-2-4-7/h9H,2-5H2,1H3	InChI=1S/C7H12O2/c1-6(8)5-7(9)3-2-4-7/h9H,2-5H2,1H3
