17
gdb 49521	2.91258	1.80587	1.48419	5.1909	72.63	-0.2294	0.0357	0.2651	917.8654	0.138423	-417.958962	-417.95229	-417.951346	-417.989946	27.108	
O	 0.0866413517	 0.0431598604	 0.4200240961	-0.329214
C	 0.1109880023	 1.2440830899	 0.2859041233	 0.164044
N	 1.1508967367	 1.9360125892	-0.2903940454	-0.03829
C	 2.5841506153	 1.6031607873	-0.1870890605	-0.037671
C	 2.8217047374	 2.951116668	-0.9467273911	-0.22406
C	 1.5692586656	 3.3419525037	-0.0926239269	-0.048569
C	 2.2018301473	 3.3348083733	 1.3307803314	-0.047788
N	 1.7485121174	 2.1943392667	 2.143430436	-0.318996
C	 2.9310196446	 2.0461256383	 1.2688982232	-0.036116
H	-0.7498701984	 1.9071827698	 0.5063516342	 0.064468
H	 2.9190650492	 0.633486513	-0.545995782	 0.103703
H	 3.7517206209	 3.486933554	-0.7464830076	 0.100808
H	 2.6080918446	 2.8826589568	-2.0135351492	 0.118617
H	 0.8764747112	 4.1356200252	-0.3677966662	 0.08889
H	 2.579710211	 4.240681492	 1.7885486592	 0.099875
H	 2.0554509813	 2.3137922847	 3.1061467206	 0.238176
H	 3.9117604719	 1.8734004676	 1.6935141551	 0.102123
128.9827	182.4198	271.4981	395.6877	411.4202	492.7736	591.7679	687.0959	706.8728	768.8787	797.8316	827.1338	857.5626	862.5756	875.8571	918.1355	926.1856	1018.1882	1030.4867	1038.6409	1059.3453	1072.2481	1099.6352	1117.3469	1123.8073	1169.7499	1200.7155	1225.4896	1239.8869	1251.4376	1290.2225	1317.2169	1359.8178	1381.3556	1422.8612	1486.7843	1801.3254	2928.2855	3079.7096	3134.5919	3154.25	3161.3303	3188.2573	3200.6591	3504.3723
O=CN1C2CC1C1NC21	O=CN1[C@H]2C[C@@H]1[C@H]1N[C@@H]21	
InChI=1S/C6H8N2O/c9-2-8-3-1-4(8)6-5(3)7-6/h2-7H,1H2	InChI=1S/C6H8N2O/c9-2-8-3-1-4(8)6-5(3)7-6/h2-7H,1H2/t3-,4+,5-,6+
