19
gdb 90448	2.9464	1.44205	1.23445	1.8151	77.31	-0.2242	0.0201	0.2443	1085.4345	0.160575	-419.178685	-419.170388	-419.169444	-419.211488	31.612	
C	 0.1503185144	 1.1189872896	-0.3861218119	-0.331759
N	 0.0430896579	 0.0410122571	 0.5759845035	-0.127412
C	-1.1371529724	-0.8886493453	 0.6826558149	-0.21995
C	-0.1451216157	-2.0175804109	 1.1112242543	-0.119226
C	 0.2921551482	-3.2625375644	 0.295794174	 0.088523
O	-0.3016936889	-3.3457319621	-0.9873171287	-0.433361
C	 1.8315919239	-2.9630550315	 0.1927598252	-0.196333
N	 1.9333434747	-1.4807239669	 0.0093627825	-0.3381
C	 0.884018228	-1.0587634696	 0.5970581693	 0.359273
H	 1.1391506613	 1.5756768875	-0.3011595612	 0.150652
H	 0.0213449012	 0.7697719176	-1.4226889685	 0.112163
H	-0.6037060619	 1.8816156332	-0.173592715	 0.128922
H	-1.8864385215	-0.5721854454	 1.4114373448	 0.116525
H	-1.6031661374	-1.0831410301	-0.2901190095	 0.120177
H	-0.1368820496	-2.2030771996	 2.1870433183	 0.099122
H	 0.0667243898	-4.2081870265	 0.7952916382	 0.086251
H	 0.1019080688	-2.6636356857	-1.5371979338	 0.287601
H	 2.3701027609	-3.297988767	 1.0897461924	 0.10498
H	 2.2688312485	-3.4764984703	-0.6688212187	 0.111952
99.5398	127.3154	165.1232	245.6032	250.3402	308.5853	378.1409	399.7259	516.5856	551.5716	613.8516	720.13	742.9031	821.6564	824.7735	865.0111	950.2961	969.7636	978.6281	994.4194	1054.2075	1087.5929	1120.9274	1125.9405	1159.9024	1174.3273	1188.5308	1212.9577	1242.9972	1260.1439	1284.3339	1294.0065	1342.5132	1386.7269	1430.0004	1451.0596	1485.8969	1489.1772	1496.7162	1508.5425	1740.217	2983.8956	3015.7013	3040.881	3082.7395	3086.1377	3086.9938	3096.7567	3112.8623	3130.6502	3787.0467
CN1CC2C(O)CN=C12	CN1C[C@H]2[C@@H](O)C[N][C]12	
InChI=1S/C6H10N2O/c1-8-3-4-5(9)2-7-6(4)8/h4-5,9H,2-3H2,1H3	InChI=1S/C6H10N2O/c1-8-3-4-5(9)2-7-6(4)8/h4-5,9H,2-3H2,1H3/t4-,5-/m0/s1
