19
gdb 101909	6.74156	0.52555	0.50113	0.8548	69.89	-0.2648	-0.0378	0.227	2091.2252	0.155227	-497.28296	-497.272204	-497.27126	-497.320609	36.366	
O	 0.0383891831	 1.424584311	-0.0569841686	-0.426041
C	 0.0970225667	 0.0173874072	 0.0262863358	-0.048209
C	-1.3030451496	-0.5825257263	 0.1126703477	 0.086711
O	-1.9907848677	-0.130848744	-1.0480430436	-0.450857
C	-1.3012552213	-2.1035040525	 0.1672250253	-0.081381
O	-2.6593847561	-2.5148011447	 0.1726356468	-0.266605
C	-2.8369485248	-3.9077376475	 0.1164976873	-0.144455
C	-4.3281091276	-4.199995664	 0.1153683874	 0.140317
O	-4.7873363113	-5.3089955946	 0.0718897595	-0.231586
H	-0.6121127511	 1.6198257694	-0.7424774136	 0.294655
H	 0.6183420578	-0.417616045	-0.8426696372	 0.089573
H	 0.6706194109	-0.2307501046	 0.925444828	 0.10718
H	-1.7970214427	-0.1983500117	 1.0189767442	 0.08432
H	-2.8533294184	-0.5604190311	-1.046398569	 0.294026
H	-0.7854756577	-2.5137652489	-0.7151572618	 0.101768
H	-0.7842172542	-2.4645960727	 1.0703066358	 0.098926
H	-2.3875763719	-4.3448056581	-0.7907460015	 0.128726
H	-2.3778734649	-4.415626711	 0.9808223996	 0.128465
H	-4.9621359494	-3.2867284811	 0.1590718582	 0.094468
38.9111	55.6818	81.1613	92.3759	129.6994	152.6013	210.3586	281.0977	306.1538	383.4212	432.8097	447.7195	486.1401	530.5729	610.0081	740.0484	877.4909	929.807	990.4865	1041.4951	1077.3351	1086.074	1111.2537	1129.4501	1137.5088	1173.5242	1206.6362	1238.6265	1266.5038	1281.0176	1324.061	1357.8818	1382.5858	1402.1323	1423.64	1437.8733	1453.0005	1477.6249	1499.3787	1513.5443	1847.9098	2894.8925	2965.4758	2968.1757	2976.8069	2988.3133	2999.7395	3018.7721	3076.5309	3791.2762	3811.2694
OCC(O)COCC=O	OC[C@@H](O)COCC=O	
InChI=1S/C5H10O4/c6-1-2-9-4-5(8)3-7/h1,5,7-8H,2-4H2	InChI=1S/C5H10O4/c6-1-2-9-4-5(8)3-7/h1,5,7-8H,2-4H2/t5-/m1/s1
