20
gdb 91899	2.33338	1.5235	1.00701	2.0121	81.3	-0.2334	0.0105	0.2439	1209.2298	0.172084	-403.136221	-403.127678	-403.126734	-403.16917	33.37	
C	-0.1068850597	 1.5119311637	 0.0815297289	-0.48794
C	-0.0413106095	 0.0128997458	 0.0043465746	 0.356366
C	-0.1426844971	-0.6788302522	-1.1335609954	-0.204129
C	-0.0437922866	-2.1858186514	-1.2221071358	 0.086605
O	 0.3853291547	-2.6036718079	-2.5147681047	-0.433264
C	 0.8672607857	-2.7600912071	-0.1207097736	-0.230881
C	 0.5916405423	-2.1366004435	 1.2417371378	-0.049991
N	 1.5289780904	-1.0757632131	 1.6748471027	-0.340035
C	 0.1379179961	-0.7260870167	 1.2884738611	-0.134147
H	 0.8170678103	 1.9153489838	 0.5143172157	 0.135586
H	-0.2506844109	 1.9616909239	-0.9044119907	 0.121606
H	-0.9280818669	 1.8426496454	 0.7307063099	 0.119806
H	-0.3052460491	-0.16912942	-2.0811418014	 0.086192
H	-1.0481402135	-2.6213435138	-1.1268520464	 0.097422
H	 1.2572539145	-2.2201053195	-2.6633741367	 0.275352
H	 0.7581127806	-3.8482588486	-0.087542964	 0.101339
H	 1.906112744	-2.5422663726	-0.3933318337	 0.103849
H	 0.2141810657	-2.8041891318	 2.0120146943	 0.085001
H	 1.6052239002	-1.0816359021	 2.6902410079	 0.226995
H	-0.5330613811	-0.4295560223	 2.0937497696	 0.08427
90.0412	154.6644	197.5085	214.7318	290.0542	319.12	381.729	414.7771	441.272	466.0883	526.0842	625.3036	637.4688	785.4627	825.4482	862.4204	900.3908	916.5558	936.7519	972.5487	994.3527	1035.5103	1062.3282	1065.0263	1107.095	1125.7882	1153.9186	1183.8214	1210.8628	1227.8952	1256.1505	1272.5099	1306.1261	1343.5416	1360.8357	1404.9568	1409.5718	1422.2573	1457.759	1474.7483	1479.0126	1491.3328	1728.7944	3009.5555	3016.6346	3039.7234	3065.3953	3089.9756	3109.1246	3112.9835	3137.3129	3150.1099	3479.5235	3793.0954
CC1=CC(O)CC2NC12	CC1=C[C@@H](O)C[C@H]2N[C@@H]12	
InChI=1S/C7H11NO/c1-4-2-5(9)3-6-7(4)8-6/h2,5-9H,3H2,1H3	InChI=1S/C7H11NO/c1-4-2-5(9)3-6-7(4)8-6/h2,5-9H,3H2,1H3/t5-,6-,7+/m1/s1
