24
gdb 102551	2.06573	1.30866	0.96399	2.3106	85.43	-0.2348	0.0782	0.3131	1374.7723	0.215449	-405.519813	-405.508856	-405.507912	-405.556191	39.881	
C	 0.378087173	 0.8813495829	 0.9600290723	-0.392301
C	 0.2640547555	-0.4948271317	 0.300712007	-0.169364
C	 0.5357343214	-0.4647287844	-1.210425381	 0.019123
O	 1.8671425111	 0.0133937795	-1.4020845793	-0.25037
C	 1.9960036899	 1.0623546214	-2.3382458161	-0.241224
C	 0.3637081665	-1.8416456284	-1.8629502955	 0.347711
C	-1.0431066555	-2.4068346469	-1.8345318551	-0.45692
C	 1.2580975833	-2.2275291678	-2.9847508784	-0.286189
N	 1.4302649252	-2.8366524449	-1.6492829489	-0.356731
H	 1.3760415076	 1.3011695899	 0.8098038149	 0.128554
H	-0.3524406963	 1.5844158987	 0.5429759455	 0.107719
H	 0.1956216516	 0.8161580032	 2.0368491497	 0.112539
H	 0.9731887722	-1.1919118646	 0.7632826044	 0.107268
H	-0.7355192375	-0.906509057	 0.4739340973	 0.100711
H	-0.1743460581	 0.233562624	-1.6810824718	 0.066579
H	 3.0608058895	 1.2998218347	-2.4109183261	 0.126963
H	 1.6295069104	 0.7776574359	-3.3349349878	 0.109283
H	 1.4552699783	 1.9633338733	-2.0138932391	 0.111164
H	-1.750741384	-1.7249191323	-2.3206291292	 0.109389
H	-1.071992091	-3.3635077961	-2.3614474566	 0.127326
H	-1.3905155076	-2.5851631818	-0.812389163	 0.123354
H	 0.8863285217	-2.9021776842	-3.7518014218	 0.106855
H	 2.0157912364	-1.5279319734	-3.3187770444	 0.113789
H	 2.2175103065	-2.3685617501	-1.2021429069	 0.234773
37.3155	86.806	115.3109	171.0463	180.3372	188.6044	218.3124	269.2167	302.2303	319.2758	357.1146	396.6272	433.3317	500.4442	539.4382	747.9643	769.8445	846.0137	878.6768	928.1637	945.861	951.2923	983.6996	1027.7301	1055.5884	1075.2895	1099.6668	1120.6362	1128.1966	1148.87	1166.0313	1184.2404	1223.6145	1267.1649	1289.7534	1306.867	1339.2895	1369.0486	1386.2993	1394.4739	1405.4318	1420.3924	1475.6259	1481.8032	1486.2844	1488.2074	1497.0247	1500.8595	1505.4061	1507.8387	1513.807	2973.7748	2988.5284	3032.8973	3033.5704	3037.2078	3039.0298	3078.7936	3098.8396	3100.2112	3108.8829	3115.3176	3121.0864	3122.6919	3210.5941	3477.1741
CCC(OC)C1(C)CN1	CC[C@@H](OC)[C@@]1(C)CN1	
InChI=1S/C7H15NO/c1-4-6(9-3)7(2)5-8-7/h6,8H,4-5H2,1-3H3	InChI=1S/C7H15NO/c1-4-6(9-3)7(2)5-8-7/h6,8H,4-5H2,1-3H3/t6-,7-/m1/s1
