21
gdb 36881	4.32202	0.93998	0.91262	1.6544	83.26	-0.2622	0.1007	0.3629	1371.7217	0.183659	-387.01162	-387.003628	-387.002684	-387.045143	31.064	
C	-0.0291664313	 1.5333755057	 0.4653852012	-0.295826
C	-0.0228529915	 0.0252131253	 0.3670192045	 0.11176
C	-1.1885819306	-0.7438169845	-0.0834980537	-0.184193
O	-0.0739553593	-0.5298389589	-0.9519382981	-0.233689
C	 1.3414497777	 2.1214826035	 0.1435294868	 0.078227
C	 1.8799443831	 2.2055372785	-1.3236525678	-0.036941
C	 0.9248935809	 3.4125110904	-1.5608003876	-0.220581
C	 1.5492449564	 3.6421276869	-0.1524944339	-0.068894
C	 2.9123866765	 3.2411548818	-0.7892488767	-0.21875
H	-0.8091704048	 1.9221469235	-0.1951328884	 0.102762
H	-0.3087919014	 1.8152659871	 1.4902094944	 0.099149
H	 0.6887370326	-0.4815924471	 1.0230422052	 0.088449
H	-1.3295969117	-1.7699603267	 0.2538416136	 0.11216
H	-2.1026583416	-0.2182481277	-0.358379332	 0.111044
H	 2.0804357073	 1.7168791099	 0.8477201816	 0.057023
H	 2.0677736027	 1.3710527371	-1.9990706406	 0.082391
H	 1.2280722174	 4.1174450764	-2.3398380915	 0.087879
H	-0.145756857	 3.2128332256	-1.6218051487	 0.091934
H	 1.3606251673	 4.4758608278	 0.527011124	 0.063502
H	 3.6825566732	 2.8651602039	-0.1093895895	 0.085499
H	 3.328458294	 3.9371759316	-1.5223971927	 0.087094
54.4245	68.5154	136.1081	285.4065	333.9093	354.9516	447.5346	566.6436	588.7732	754.802	782.6824	802.8252	827.5082	863.7367	892.398	900.953	905.1036	959.8669	965.4479	1005.8528	1017.2547	1031.3136	1057.8131	1078.7773	1105.3851	1112.6663	1136.0017	1144.764	1157.1931	1159.7811	1171.8715	1188.1201	1215.8024	1234.5606	1242.986	1256.0308	1277.161	1295.4293	1320.5079	1426.8263	1446.7716	1467.9584	1504.2192	1530.2021	1542.5353	3012.0325	3018.3208	3046.7048	3059.917	3076.3251	3081.0161	3089.828	3094.4813	3112.5635	3116.5648	3125.1079	3164.6762
C(C1CO1)C1C2CC1C2	C([C@H]1CO1)[C@H]1[C@H]2C[C@@H]1C2	
InChI=1S/C8H12O/c1-5-2-6(1)8(5)3-7-4-9-7/h5-8H,1-4H2	InChI=1S/C8H12O/c1-5-2-6(1)8(5)3-7-4-9-7/h5-8H,1-4H2/t5-,6+,7-,8-/m0/s1
