13
gdb 48352	3.12359	0.88792	0.72456	2.3655	83.23	-0.2546	-0.0532	0.2014	1474.9107	0.085213	-419.347342	-419.338552	-419.337608	-419.38152	31.071	
O	-0.5389193637	 0.7110926776	-0.7864467163	-0.228198
C	 0.2664964236	 0.8786141887	 0.0850439653	 0.112394
C	 1.4518110483	 1.8111511339	 0.0005251542	-0.007427
C	 1.8027247432	 2.5226234569	 1.2636004873	-0.202399
O	 2.5374153278	 1.3891627932	 0.8595174653	-0.242518
C	 1.7923464845	 2.370266369	-1.2729373972	 0.403842
C	 2.0612593034	 2.827488519	-2.3600921324	-0.130876
C	 2.3701988355	 3.3468576082	-3.5774503936	 0.28589
C	 2.6455947168	 3.8091114345	-4.6581809357	-0.566015
H	 0.2235797868	 0.353615174	 1.0644736901	 0.096182
H	 2.3080445687	 3.4817587404	 1.1731682736	 0.146353
H	 1.1683692388	 2.3932585422	 2.1404742599	 0.132841
H	 2.8863965164	 4.2137284624	-5.6101495504	 0.19993
65.4265	100.9783	121.7536	195.2104	261.9902	263.2907	358.3975	427.3465	498.7761	517.0291	528.7086	558.1751	605.2552	614.097	653.8408	816.7096	880.9445	924.7773	1033.6488	1057.6997	1137.3442	1164.2404	1276.9607	1345.5792	1416.5431	1512.7028	1844.4044	2186.0123	2362.4779	2902.4304	3084.0817	3184.8403	3502.3388
O=CC1(CO1)C#CC#C	O=C[C@]1(CO1)C#CC#C	
InChI=1S/C7H4O2/c1-2-3-4-7(5-8)6-9-7/h1,5H,6H2	InChI=1S/C7H4O2/c1-2-3-4-7(5-8)6-9-7/h1,5H,6H2/t7-/m0/s1
