14
gdb 28666	5.81511	1.01594	0.86484	0.4696	83.31	-0.226	-0.0301	0.1958	1242.452	0.102309	-399.591513	-399.58418	-399.583236	-399.623239	28.46	
O	 0.0690717788	 1.3453276409	 0.0803375099	-0.413174
C	 0.061239731	-0.000582047	 0.0572682497	 0.441096
N	 0.0968273409	-0.591583908	-1.1325171302	-0.357496
C	 0.0894505805	-1.923991646	-1.167059946	-0.071321
C	 0.0465088927	-2.7336451375	-0.0254778386	 0.092822
C	 0.009515945	-2.0764650181	 1.2194036719	-0.154339
C	 0.0166160797	-0.6975108419	 1.2711377241	-0.19867
C	 0.0408777268	-4.151156939	-0.1288368763	 0.221178
C	 0.0361657996	-5.3522680291	-0.2188197049	-0.414905
H	 0.1014766077	 1.6283919297	-0.8445710658	 0.300909
H	 0.1190829666	-2.3828447036	-2.1511175636	 0.122903
H	-0.0243969004	-2.6617223985	 2.1313505024	 0.11937
H	-0.0108814972	-0.1539533772	 2.2070143422	 0.117431
H	 0.0319935082	-6.4110089547	-0.2985540249	 0.194195
104.1402	145.1874	249.4074	406.6758	417.867	442.0311	472.6152	528.1371	534.5614	565.5894	595.7302	653.6654	662.6248	730.51	787.1937	862.7824	875.6172	965.1295	989.8735	1032.0679	1142.0107	1190.1173	1236.817	1308.4384	1344.6703	1363.0276	1433.5225	1523.717	1615.9286	1646.985	2226.9875	3174.2219	3197.7337	3217.2388	3503.3883	3762.0808
OC1=NC=C(C=C1)C#C	Oc1ncc(cc1)C#C	
InChI=1S/C7H5NO/c1-2-6-3-4-7(9)8-5-6/h1,3-5H,(H,8,9)	InChI=1S/C7H5NO/c1-2-6-3-4-7(9)8-5-6/h1,3-5H,(H,8,9)
