17
gdb 77174	2.97322	1.20303	0.98063	2.5025	68.6	-0.2483	-0.0054	0.2429	1212.7345	0.137015	-455.129049	-455.120568	-455.119624	-455.162736	30.873	
N	 0.279726416	 1.2011012552	 0.3966259351	-0.513597
C	 0.0437938737	-0.1295580288	-0.1043406498	-0.178081
C	-1.4226545639	-0.6246087396	-0.2063582889	 0.101692
O	-1.2041446985	-0.9810521961	-1.615845867	-0.266759
C	 0.067298828	-0.441612918	-1.6166079667	 0.417963
O	 0.7878187173	-0.2927169087	-2.5491463215	-0.31691
C	-1.8542169588	-1.7969510392	 0.6284253465	-0.015367
C	-2.7465857196	-2.840587096	 0.0723816679	-0.240735
N	-1.3293189708	-3.1418623571	 0.3600816702	-0.323019
H	 1.2744403787	 1.3813819897	 0.4784432451	 0.249999
H	-0.0963746565	 1.903084877	-0.2336107038	 0.24177
H	 0.6677719014	-0.8408491151	 0.444954007	 0.133658
H	-2.1432516628	 0.1976769199	-0.1423709832	 0.104736
H	-1.9297028196	-1.5515182719	 1.6865960995	 0.109163
H	-3.4641176816	-3.3393847895	 0.7169324995	 0.124033
H	-3.0446976473	-2.7446793883	-0.9675720346	 0.131624
H	-0.8194031958	-3.1301776036	-0.5215839853	 0.23983
80.627	87.8771	159.2397	201.8568	226.8898	259.9845	333.3225	392.0094	513.486	617.0618	710.9976	729.0642	800.0101	823.1463	853.1828	899.1835	927.3928	943.8197	985.9987	1015.0512	1058.4158	1104.4174	1133.4459	1144.5861	1168.269	1187.9548	1202.8949	1218.7166	1269.9783	1291.0661	1304.4909	1371.7248	1416.3787	1432.286	1508.7144	1667.1091	1935.3186	3057.2895	3079.1052	3117.1855	3125.8143	3207.1374	3488.9064	3504.4837	3586.7555
NC1C(OC1=O)C1CN1	N[C@H]1[C@@H](OC1=O)[C@H]1CN1	
InChI=1S/C5H8N2O2/c6-3-4(2-1-7-2)9-5(3)8/h2-4,7H,1,6H2	InChI=1S/C5H8N2O2/c6-3-4(2-1-7-2)9-5(3)8/h2-4,7H,1,6H2/t2-,3+,4+/m1/s1
