23
gdb 113196	3.2087	0.89015	0.85336	2.1748	82.51	-0.2506	0.0589	0.3096	1526.9266	0.202922	-425.41867	-425.407844	-425.4069	-425.454312	40.478	
C	-0.4471331914	 1.4795607486	 0.277995682	-0.372888
C	 0.2775304507	 0.1713105207	-0.0576398863	-0.199262
C	 0.878899768	-0.4941511498	 1.1627179196	-0.030316
C	 0.0190139244	-1.356069154	 2.0763213599	-0.366071
C	 1.1012929181	-1.9763840224	 1.2326485119	 0.352229
O	 0.7252118116	-2.7023436602	 0.0803408926	-0.475776
C	 2.3730611459	-2.5260093618	 1.8587690373	 0.101503
C	 2.1748231919	-3.916811895	 2.4732741479	-0.409832
O	 3.4106674895	-2.5427536709	 0.8877612501	-0.441011
H	 0.2336376438	 2.2051229093	 0.7370171209	 0.112666
H	-0.8663535814	 1.9406182697	-0.6218510132	 0.110072
H	-1.268063087	 1.3069261304	 0.982155644	 0.114256
H	-0.4091692418	-0.526837878	-0.5460012782	 0.105484
H	 1.0750424167	 0.3699610126	-0.7849316398	 0.101518
H	 1.6402038772	 0.0987227417	 1.6655626877	 0.08918
H	 0.1559363034	-1.296931475	 3.1513193885	 0.10999
H	-1.0050516807	-1.5318466904	 1.7602902286	 0.109361
H	 0.2579604671	-3.4949220605	 0.3656262768	 0.288109
H	 2.70157898	-1.8342350923	 2.6438958242	 0.079841
H	 1.8352828074	-4.6325586762	 1.7154124209	 0.09978
H	 3.1235791402	-4.2848716279	 2.8713593034	 0.126765
H	 1.4382949066	-3.8954348056	 3.2836127539	 0.111545
H	 3.00108425	-2.869936133	 0.0765347573	 0.282856
64.0722	87.8745	129.033	150.1014	227.3732	244.2848	268.8485	273.6395	294.163	317.9346	342.6389	437.5721	449.9782	467.29	541.9426	615.0918	737.0949	778.1602	806.6661	873.1924	907.7158	934.1174	952.8967	976.2117	1020.8041	1041.2417	1058.0643	1080.7985	1110.5845	1117.69	1129.5339	1193.5584	1242.6711	1255.6285	1292.014	1298.26	1331.4368	1347.9907	1376.36	1396.8178	1410.0293	1418.3113	1438.3916	1483.9467	1490.6547	1496.4543	1498.3665	1500.8968	1508.8569	3028.7723	3029.1328	3030.4709	3038.0165	3075.4962	3096.0637	3100.3411	3102.8815	3120.1571	3121.9415	3130.5736	3207.1271	3771.6683	3802.4338
CCC1CC1(O)C(C)O	CC[C@H]1C[C@]1(O)[C@@H](C)O	
InChI=1S/C7H14O2/c1-3-6-4-7(6,9)5(2)8/h5-6,8-9H,3-4H2,1-2H3	InChI=1S/C7H14O2/c1-3-6-4-7(6,9)5(2)8/h5-6,8-9H,3-4H2,1-2H3/t5-,6+,7+/m1/s1
