16
gdb 49855	3.47405	1.17652	0.96417	2.7625	69.79	-0.2392	-0.0364	0.2027	1171.424	0.124412	-437.892899	-437.885106	-437.884162	-437.925979	28.871	
O	-0.1441249407	 0.0106612979	 0.0572477874	-0.246834
C	 0.0073602873	 1.2044475362	 0.026567476	 0.153605
C	 1.3519265563	 1.9024330713	 0.0313660955	-0.07617
C	 1.5476775942	 2.8358207769	-1.1917333108	-0.373888
C	 2.3708757567	 4.0260919917	-0.6729827578	 0.453443
O	 3.121730564	 4.7084873814	-1.3184530956	-0.315097
C	 2.1315527732	 4.1183835899	 0.8082551113	-0.166164
N	 0.6742466469	 4.0376564066	 1.1220518602	-0.330141
C	 1.5072845257	 2.8367199658	 1.2390645752	-0.066265
H	-0.8597915015	 1.9013185188	-0.0048594279	 0.094102
H	 2.1304590199	 1.1349479949	 0.0636461105	 0.104889
H	 2.0512124017	 2.3532669854	-2.0299467711	 0.142122
H	 0.5872354399	 3.2211239252	-1.5538281642	 0.148996
H	 2.7907741762	 4.7084560134	 1.43268059	 0.1154
H	 0.5275410217	 4.4439950589	 2.0432338677	 0.248924
H	 1.7057282185	 2.4133479458	 2.2176902837	 0.113078
64.2544	88.8286	169.9383	260.4955	320.0163	397.869	453.9356	472.8039	533.6798	638.5672	699.3397	799.3291	823.1829	868.9625	885.5513	911.3105	940.2005	974.9668	1020.8583	1080.9121	1097.8121	1119.1287	1145.3271	1185.8452	1195.2678	1243.3506	1256.9899	1304.3136	1316.796	1355.6164	1396.9077	1418.6526	1450.6091	1831.3952	1852.7993	2889.394	3052.4616	3078.6108	3134.2971	3174.0831	3201.9694	3503.716
O=CC1CC(=O)C2NC12	O=C[C@H]1CC(=O)[C@H]2N[C@@H]12	
InChI=1S/C6H7NO2/c8-2-3-1-4(9)6-5(3)7-6/h2-3,5-7H,1H2	InChI=1S/C6H7NO2/c8-2-3-1-4(9)6-5(3)7-6/h2-3,5-7H,1H2/t3-,5+,6-/m1/s1
