18
gdb 48738	4.14122	1.24963	1.14957	4.013	76.87	-0.2357	-0.0401	0.1956	1096.1824	0.147999	-401.884212	-401.876708	-401.875763	-401.91615	29.412	
O	-0.015376623	 0.0033347407	-0.4558879206	-0.255036
C	 0.1117715803	 0.99898997	 0.2151321032	 0.066107
C	 1.2244210918	 1.9653411103	 0.0720234283	 0.229726
C	 2.0510208868	 1.9954776736	-1.1627698529	-0.275082
N	 2.7030264002	 1.4684908415	 0.0263545595	-0.159739
C	 3.0440836441	 2.6162163395	 0.9687215744	 0.040378
C	 3.4475471076	 4.0059348459	 0.4042294252	-0.244396
C	 1.9581522564	 4.4765171573	 0.5107352058	-0.250021
C	 1.5742281535	 3.0766621911	 1.072650752	-0.106162
H	-0.6269447138	 1.2627350975	 1.0060959936	 0.071519
H	 1.8202388928	 1.2132498965	-1.8794067518	 0.150099
H	 2.350388733	 2.9443981317	-1.596230893	 0.123105
H	 3.6090216636	 2.2267989418	 1.8143968529	 0.089647
H	 4.1181352937	 4.5413691176	 1.0802379384	 0.111258
H	 3.9004121333	 4.0131779603	-0.5901597215	 0.113823
H	 1.8113614226	 5.2841524069	 1.2308927114	 0.109857
H	 1.4700864717	 4.7601183388	-0.4253740817	 0.106521
H	 1.0175286053	 3.028487849	 2.0090464768	 0.078399
102.6117	166.1919	193.9171	254.884	348.0434	357.6754	475.0128	570.402	646.2004	680.9411	719.5912	753.7571	815.6059	852.5086	878.7762	901.1223	948.0085	957.7072	962.4572	1017.461	1032.7062	1090.1981	1109.9245	1134.7476	1163.0973	1174.9811	1181.4998	1222.0655	1240.5465	1261.3242	1273.2079	1306.3319	1310.5521	1363.764	1427.7765	1473.3303	1482.2925	1507.6641	1804.2131	2870.048	3062.2729	3068.2956	3100.9544	3109.4667	3117.7366	3127.4641	3128.598	3216.289
O=CC12CN1C1CCC21	O=C[C@]12CN1[C@H]1CC[C@@H]21	
InChI=1S/C7H9NO/c9-4-7-3-8(7)6-2-1-5(6)7/h4-6H,1-3H2	InChI=1S/C7H9NO/c9-4-7-3-8(7)6-2-1-5(6)7/h4-6H,1-3H2/t5-,6+,7+,8?/m1/s1
