22
gdb 102104	2.17787	1.10654	0.85091	2.922	83.4	-0.2454	-0.021	0.2243	1464.3255	0.191779	-404.338799	-404.328104	-404.32716	-404.376048	37.652	
C	 0.0225669236	 1.5282459424	 0.3044556021	-0.394366
C	-0.1053934629	 0.0087528233	 0.1653785166	-0.193291
C	-1.5239633202	-0.4612716469	-0.2283705672	-0.059359
C	-1.8530262632	 0.0033787436	-1.6338138007	 0.168331
O	-2.7207281974	 0.783624445	-1.9295384803	-0.254883
C	-1.6151726134	-1.9788249396	-0.1697366818	-0.042984
N	-1.7211744469	-2.5849199732	 1.1672028381	-0.343084
C	-2.8361514542	-2.7417548605	 0.2140251097	-0.00284
C	-4.1593865692	-2.1154895172	 0.5837614528	-0.398249
H	 1.0428511219	 1.8098600171	 0.5817281075	 0.115311
H	-0.2254081078	 2.044275129	-0.6287655351	 0.127685
H	-0.6520801423	 1.9093206043	 1.0781996586	 0.124744
H	 0.6152820592	-0.3615197813	-0.5772268882	 0.093705
H	 0.1464793867	-0.4801972692	 1.1124851034	 0.120959
H	-2.2555719198	-0.0141241722	 0.4491947347	 0.096844
H	-1.1946283192	-0.4415674654	-2.4205020051	 0.065328
H	-0.9555679766	-2.4764971857	-0.8825296049	 0.081377
H	-1.1663064795	-3.4344106472	 1.2214318106	 0.231306
H	-2.9291258075	-3.7169857348	-0.2638008288	 0.083347
H	-4.0197554252	-1.1796371455	 1.1281430521	 0.133363
H	-4.7587357182	-1.911655463	-0.309779113	 0.126264
H	-4.7311359479	-2.7915250728	 1.2282989388	 0.120492
30.8629	49.7092	89.6783	120.9586	169.1132	183.9313	234.8522	246.9847	326.5831	368.8086	387.8468	460.3738	522.1227	535.2328	773.39	784.9073	834.3742	893.7416	907.0462	962.3745	979.9141	1001.6	1014.4051	1034.9076	1066.7831	1106.453	1114.4028	1152.3721	1162.3336	1211.0477	1250.0503	1259.1519	1273.5196	1290.3269	1332.506	1365.5875	1402.8812	1417.381	1424.9478	1431.7295	1466.1472	1488.042	1490.1212	1499.848	1501.6676	1503.8211	1833.6351	2825.6418	3013.4529	3036.6806	3039.5659	3068.8411	3082.6182	3094.2321	3100.0147	3104.3463	3106.7056	3108.607	3135.947	3506.331
CCC(C=O)C1NC1C	CC[C@@H](C=O)[C@H]1N[C@H]1C	
InChI=1S/C7H13NO/c1-3-6(4-9)7-5(2)8-7/h4-8H,3H2,1-2H3	InChI=1S/C7H13NO/c1-3-6(4-9)7-5(2)8-7/h4-8H,3H2,1-2H3/t5-,6-,7-/m0/s1
