16
gdb 50492	4.12819	1.0079	0.92963	2.4401	68.82	-0.263	-0.0483	0.2147	1233.3911	0.124249	-437.907981	-437.899607	-437.898663	-437.942738	29.333	
O	-0.3441040568	 0.5565848331	 1.149449805	-0.225837
C	 0.3572021206	 0.6922587164	 0.1819008592	 0.130076
C	 1.150273582	 1.9592716336	-0.1523421391	 0.024903
C	 1.3987682233	 2.8655904913	 1.0735048912	-0.278574
C	 2.9473505393	 2.8512706693	 1.2321977783	-0.154651
C	 3.3429503544	 1.6075611295	 0.4005538548	-0.102417
O	 2.4222478311	 1.5835567374	-0.6768593537	-0.249008
C	 3.5658081278	 4.0678611073	 0.7058435229	 0.272587
N	 4.0556460307	 5.0295887342	 0.2924692538	-0.319052
H	 0.4954272226	-0.1166056762	-0.5680368703	 0.102972
H	 0.61149131	 2.4717519047	-0.9594190066	 0.122317
H	 1.0179053344	 3.8753502936	 0.9251137076	 0.141824
H	 0.9083880548	 2.4403000127	 1.9513625644	 0.146092
H	 3.2447399379	 2.7417897627	 2.278484166	 0.136134
H	 4.3505105307	 1.6536561872	-0.0148010566	 0.143402
H	 3.2527811871	 0.7091324232	 1.030257523	 0.109232
25.706	68.045	124.9724	171.6068	249.6568	297.4083	399.4509	464.8331	567.047	601.9014	703.4319	755.2979	795.4605	832.1008	898.3364	937.2063	971.7086	976.6756	1058.7367	1081.6059	1103.97	1121.5015	1199.887	1206.9312	1248.4938	1302.7211	1309.9033	1341.6251	1355.1858	1382.3421	1400.1035	1498.1469	1512.4374	1834.1721	2358.9896	2907.2698	2989.7237	3035.55	3081.681	3093.1749	3127.7761	3146.2478
O=CC1CC(CO1)C#N	O=C[C@H]1C[C@@H](CO1)C#N	
InChI=1S/C6H7NO2/c7-2-5-1-6(3-8)9-4-5/h3,5-6H,1,4H2	InChI=1S/C6H7NO2/c7-2-5-1-6(3-8)9-4-5/h3,5-6H,1,4H2/t5-,6-/m1/s1
