15
gdb 13655	5.58743	0.87094	0.80191	4.3327	76.06	-0.2628	-0.0615	0.2014	1380.7358	0.117172	-362.614015	-362.605452	-362.604508	-362.64826	29.125	
C	-0.0836755363	 1.5200304611	-0.1195495338	-0.398473
C	-0.0046413602	 0.0227878175	 0.0293935203	 0.020441
N	 1.300905698	-0.6009376683	-0.1633069499	-0.313625
C	 0.6866056081	-0.6451759261	 1.1900108737	-0.268736
C	 1.323845706	 0.1030471099	 2.2299010384	 0.191645
C	 1.8270172911	 0.7201134112	 3.1402160944	 0.029124
C	 2.4570863575	 1.4779033375	 4.187052599	 0.018942
O	 2.2987734134	 1.280590895	 5.3709050558	-0.232973
H	 0.809941347	 1.9961396868	 0.2889517176	 0.140369
H	-0.1636987248	 1.7904300727	-1.1774107451	 0.127469
H	-0.9614982497	 1.9153482967	 0.4013930964	 0.126308
H	-0.874766635	-0.5233506875	-0.3338584226	 0.09791
H	 1.2094369826	-1.5164341085	-0.5965750265	 0.241956
H	 0.2587458423	-1.5913596693	 1.513633886	 0.120513
H	 3.12284753	 2.2854771012	 3.8195003463	 0.09913
47.9013	85.6458	108.1291	179.6331	190.1473	252.9965	349.4273	408.7252	485.0891	580.1042	631.8253	762.5078	800.5231	857.4604	920.0116	981.6575	1007.7011	1020.7174	1064.9451	1126.5209	1154.8125	1206.4951	1239.3931	1266.729	1393.325	1420.3046	1421.9475	1451.7264	1486.0719	1494.9302	1763.4365	2320.4228	2916.2225	3042.6761	3106.7878	3108.9026	3132.8256	3139.6913	3503.9827
CC1NC1C#CC=O	C[C@H]1N[C@H]1C#CC=O	
InChI=1S/C6H7NO/c1-5-6(7-5)3-2-4-8/h4-7H,1H3	InChI=1S/C6H7NO/c1-5-6(7-5)3-2-4-8/h4-7H,1H3/t5-,6+/m1/s1
