17
gdb 90661	4.16676	1.02491	0.99365	2.1291	71.1	-0.2549	-0.0344	0.2205	1214.1327	0.13425	-458.9343	-458.925845	-458.924901	-458.967273	32.091	
O	 0.0303907531	 1.3451081533	 0.0158283016	-0.440715
C	-0.0169042403	-0.0648676642	-0.0024584531	 0.126124
C	 0.2602402111	-0.7413283897	 1.3847077454	-0.277171
C	-1.2072872826	-1.1867322492	 1.4371025828	-0.137465
C	-1.4763195475	-0.5202331519	 0.0885653412	-0.146767
C	-1.499938171	-2.0302773754	 0.2101733178	 0.360161
O	-0.5285426185	-2.8231182449	-0.3801658548	-0.480579
C	-2.848094507	-2.6376220791	 0.1789294423	 0.097988
O	-3.0412514811	-3.7244419479	-0.3198634008	-0.295594
H	 0.9552514017	 1.6111018554	-0.0084635335	 0.285539
H	 0.5444067028	-0.4770361315	-0.8492698181	 0.088581
H	 1.0074923639	-1.5368196577	 1.4245299694	 0.115118
H	 0.4799750284	 0.028002869	 2.1274076623	 0.112092
H	-1.8277509853	-1.2361497768	 2.3250457085	 0.095269
H	-2.3206249182	 0.0623484371	-0.2622582312	 0.102917
H	-1.0021459874	-3.6181348722	-0.673770024	 0.297363
H	-3.6654122824	-2.0461990541	 0.6381250641	 0.097139
89.031	128.9934	191.12	269.0341	300.0278	307.2468	324.7451	407.645	417.3131	453.5045	550.9161	624.3983	743.6326	814.6804	837.6131	863.3237	883.5329	966.258	987.4579	999.4299	1019.6435	1045.7959	1053.4241	1108.6272	1132.9778	1180.357	1212.6363	1236.0073	1254.0583	1288.1145	1316.4572	1353.8768	1385.6274	1426.4533	1461.9337	1473.2194	1791.6477	2936.4634	3033.5242	3070.3942	3133.3743	3167.5734	3181.3725	3689.1454	3816.288
OC1CC2C1C2(O)C=O	O[C@H]1C[C@H]2[C@@H]1[C@]2(O)C=O	
InChI=1S/C6H8O3/c7-2-6(9)3-1-4(8)5(3)6/h2-5,8-9H,1H2	InChI=1S/C6H8O3/c7-2-6(9)3-1-4(8)5(3)6/h2-5,8-9H,1H2/t3-,4-,5-,6-/m0/s1
