14
gdb 133686	3.5511	0.8641	0.8098	2.4368	52.01	-0.2884	-0.0526	0.2358	1336.5765	0.094971	-605.339539	-605.33068	-605.329735	-605.374469	30.955	
O	 0.0896168818	 1.5167269933	 0.0165557306	-0.428198
C	 0.0361011843	 0.1213098812	 0.0007800345	 0.044371
C	 0.6966332559	-0.4630834869	-1.2600153628	-0.358832
C	-0.1014529155	-0.1941267693	-2.5240078904	 0.289775
F	-0.1795093529	 1.1049337617	-2.8160745739	-0.060207
F	 0.4626887368	-0.8144499017	-3.5734321652	-0.078723
F	-1.3580136462	-0.6619535168	-2.4102353358	-0.088029
C	 0.6916750534	-0.45129709	 1.2454644824	 0.132715
O	 1.1472893499	 0.2638186595	 2.1025252163	-0.25078
H	 0.5068130526	 1.755112801	 0.8600316115	 0.298077
H	-1.0114909278	-0.2312164584	 0.0200800613	 0.115608
H	 1.6943501176	-0.0353732573	-1.3884776799	 0.147956
H	 0.7903692169	-1.5506501487	-1.1734797251	 0.131209
H	 0.7175889433	-1.5570763178	 1.3277705863	 0.105058
41.2627	82.5446	110.2491	179.4962	283.9524	299.3618	339.7015	371.6069	415.9393	490.4682	536.3036	557.7365	647.1563	760.5173	831.9433	855.9173	896.9153	999.6567	1043.1397	1127.4203	1170.2838	1195.3586	1258.4721	1271.6275	1314.2011	1348.0598	1376.1121	1404.8124	1444.5427	1458.2415	1819.905	2929.9295	2954.1792	3061.4399	3121.508	3687.3652
OC(CC(F)(F)F)C=O	O[C@@H](CC(F)(F)F)C=O	
InChI=1S/C4H5F3O2/c5-4(6,7)1-3(9)2-8/h2-3,9H,1H2	InChI=1S/C4H5F3O2/c5-4(6,7)1-3(9)2-8/h2-3,9H,1H2/t3-/m0/s1
