18
gdb 113492	2.88626	1.21761	1.05662	1.5761	72.1	-0.2416	0.0155	0.2571	1182.8032	0.147978	-439.073937	-439.065533	-439.064589	-439.107603	31.168	
O	 0.2132286323	 0.8465972089	 0.726944395	-0.418666
C	-0.2078000089	 0.2340095926	-0.4808868196	-0.076287
C	-1.5110506714	-0.5151796577	-0.3354265897	-0.111407
C	-1.8906870937	-1.6163038909	-1.3154152579	-0.369656
C	-1.5275319483	-1.9556388268	 0.0916588882	 0.404659
C	-0.3259214311	-2.7983316751	 0.5409123287	-0.264553
N	-0.8187464738	-3.5437346078	 1.7129905411	-0.263234
C	-2.0404034226	-3.2276502447	 1.8290703049	 0.109148
O	-2.6003053376	-2.3499801844	 0.9629503173	-0.244521
H	 0.2437665778	 0.1678201985	 1.4090859363	 0.287021
H	-0.3231971566	 1.0506520214	-1.2013758874	 0.118416
H	 0.5666055698	-0.43921715	-0.8846563999	 0.085503
H	-2.3363408139	 0.0830094888	 0.0408373185	 0.110304
H	-2.932836634	-1.6971507421	-1.6024327149	 0.131321
H	-1.1801826918	-1.8811654505	-2.0937020679	 0.120256
H	 0.0064338982	-3.5020246549	-0.2311930948	 0.124954
H	 0.5463775988	-2.1953702112	 0.8192595196	 0.113473
H	-2.7201256231	-3.6046417444	 2.5848852523	 0.143272
54.7362	110.5646	142.0175	187.4423	294.5174	324.485	402.3961	425.8482	478.7904	534.9744	550.3218	790.966	803.9936	859.2884	891.1973	932.5687	957.2691	974.507	982.5776	1018.6071	1030.2872	1066.5659	1075.2927	1099.2689	1145.3789	1160.6485	1189.7867	1213.3446	1232.7076	1288.761	1332.3866	1340.1461	1367.4402	1406.9368	1431.8443	1486.515	1503.6317	1508.4677	1705.7811	2966.1819	3028.3053	3055.1696	3070.244	3124.0778	3156.0215	3219.1639	3219.7862	3813.6771
OCC1CC11CN=CO1	OC[C@H]1C[C@]21CN=CO2	
InChI=1S/C6H9NO2/c8-2-5-1-6(5)3-7-4-9-6/h4-5,8H,1-3H2	InChI=1S/C6H9NO2/c8-2-5-1-6(5)3-7-4-9-6/h4-5,8H,1-3H2/t5-,6-/m1/s1
