16
gdb 45186	2.95853	1.9031	1.61649	4.3319	67.31	-0.2362	0.007	0.2432	862.9392	0.127391	-437.875318	-437.869079	-437.868134	-437.905779	25.916	
O	 0.0143340309	 0.0046584991	 0.1211644526	-0.379348
C	 0.0074378832	 1.2111073218	 0.0112973417	 0.419605
N	-1.1092869026	 1.9979388633	-0.1427052989	-0.285312
C	-0.9378729256	 3.4103783163	 0.1516114739	-0.07437
C	-0.260366519	 3.5716299252	 1.5469993529	-0.252228
C	 1.0865500983	 3.4253551249	 0.8186917083	-0.091084
C	 0.4452264235	 3.893331094	-0.5033405303	 0.139553
O	 1.0781682911	 2.8913013007	-1.2847569635	-0.281803
C	 1.2418243691	 2.1151965519	-0.0526765818	-0.041281
H	-2.0111264915	 1.5581746998	-0.0326345589	 0.251602
H	-1.8488498438	 3.9644364241	-0.0710071644	 0.087204
H	-0.3637597508	 4.5876315447	 1.9405189681	 0.111587
H	-0.5454769437	 2.848658154	 2.3156090461	 0.112656
H	 2.01440462	 3.8222902125	 1.2290476582	 0.08801
H	 0.4724195176	 4.894578977	-0.9350715548	 0.090321
H	 2.1719686332	 1.5500195309	-0.0228986293	 0.104887
126.0102	327.142	407.8558	422.3671	452.405	476.3719	558.1717	660.7936	711.2353	757.6003	786.3866	806.6667	835.3745	867.8164	890.6113	950.233	984.0374	1006.105	1041.7897	1072.7404	1082.2065	1096.8255	1128.3516	1190.3508	1211.3362	1236.6515	1251.2531	1262.1099	1287.5521	1320.7895	1330.2363	1365.7204	1433.6461	1483.8281	1826.432	3052.5989	3107.2146	3110.8999	3119.5749	3124.3425	3139.8112	3614.9392
O=C1NC2CC3C2OC13	O=C1N[C@H]2C[C@@H]3[C@H]2O[C@H]13	
InChI=1S/C6H7NO2/c8-6-5-2-1-3(7-6)4(2)9-5/h2-5H,1H2,(H,7,8)	InChI=1S/C6H7NO2/c8-6-5-2-1-3(7-6)4(2)9-5/h2-5H,1H2,(H,7,8)/t2-,3+,4-,5+/m1/s1
