18
gdb 95656	2.3972	1.58494	1.10902	1.625	69.35	-0.2653	0.0052	0.2705	1101.4212	0.148943	-476.23281	-476.224361	-476.223417	-476.265928	32.286	
O	 0.0194563433	 1.4509565174	 0.0218573231	-0.44924
C	-0.0442653317	 0.0424385133	 0.0337749316	 0.128614
C	-1.4729915492	-0.5003311454	-0.0583090161	-0.243603
C	-1.4334975072	-2.0193349957	 0.0117619088	-0.088233
O	-0.6012559918	-2.6107666215	-1.0039613677	-0.250567
C	 0.5893611449	-2.0429955751	-1.3209815176	 0.361878
N	 1.5079426414	-2.6884151032	-1.9111568217	-0.516188
C	 0.7809227161	-0.5453037127	-1.1138990318	 0.024938
O	 0.3338831791	 0.137215388	-2.2904823567	-0.450437
H	-0.0399830774	 1.7109394804	-0.9067735411	 0.293123
H	 0.4009487943	-0.2828600364	 0.9830780011	 0.090422
H	-2.078084344	-0.1103077681	 0.7654708149	 0.112861
H	-1.9274737464	-0.1764733116	-1.0001420221	 0.122534
H	-1.064212801	-2.3498408926	 0.9926974468	 0.112105
H	-2.4202821511	-2.4608087045	-0.1420992051	 0.124988
H	 1.2210675355	-3.6593287874	-2.0565076132	 0.221279
H	 1.8490918634	-0.3658001779	-0.9532776458	 0.103165
H	 0.8617982619	-0.189546197	-3.0271852974	 0.302361
64.2589	133.0977	230.4877	264.772	285.9076	327.9333	374.6109	411.3656	437.6175	448.7513	496.5307	642.1211	650.9482	729.8398	815.88	865.609	912.9587	924.7088	963.19	1003.4728	1048.6233	1098.503	1105.8213	1120.1106	1167.3166	1197.9625	1238.9602	1268.0333	1292.1155	1320.4453	1344.3009	1356.3351	1392.1287	1417.7773	1431.4419	1450.7397	1479.5064	1513.7908	1734.7943	3011.5866	3028.2935	3056.5864	3058.1457	3104.735	3110.3136	3456.8549	3772.413	3816.5475
OC1CCOC(=N)C1O	O[C@H]1CCO[C]([NH])[C@H]1O	
InChI=1S/C5H9NO3/c6-5-4(8)3(7)1-2-9-5/h3-4,6-8H,1-2H2	InChI=1S/C5H9NO3/c6-5-4(8)3(7)1-2-9-5/h3-4,6-8H,1-2H2/t3-,4-/m0/s1
