20
gdb 110231	2.09465	1.5263	1.04799	2.979	81.45	-0.254	0.0226	0.2766	1234.3866	0.169747	-403.136057	-403.126863	-403.125919	-403.170157	34.487	
C	 0.0858774302	 1.3490426042	-0.4759351085	-0.375044
C	-0.0042513891	-0.0072946882	 0.231817892	-0.217455
C	-1.3907163472	-0.6129226259	 0.159442573	-0.06503
C	-2.0000244893	-1.2460785166	-1.1090067006	-0.275729
C	-0.9697281774	-2.110557567	-1.7488014555	 0.443533
N	-0.5413467809	-2.2756378705	-2.9156421865	-0.562585
O	-0.6393797039	-2.7808690119	-0.5701411155	-0.302063
C	-1.7055537153	-2.0689700528	 0.1363266263	 0.4164
C	-2.5482963743	-2.8763452028	 1.0640740998	-0.490468
H	 1.0919595645	 1.7700368447	-0.3886982953	 0.114973
H	-0.1470590085	 1.2487907882	-1.5405752729	 0.133664
H	-0.6164222372	 2.0718463477	-0.0458388947	 0.110683
H	 0.7189041068	-0.7053318385	-0.1993814831	 0.122616
H	 0.2693903777	 0.1051107339	 1.2888024157	 0.098781
H	-2.1551619341	-0.042658021	 0.6881168074	 0.096284
H	-2.9275900368	-0.9160358854	-1.5538730385	 0.116313
H	 0.1601098424	-3.0177577303	-2.9461285085	 0.227517
H	-1.9578145584	-3.2221601172	 1.9195929009	 0.138631
H	-3.375151597	-2.271310714	 1.4466019258	 0.130789
H	-2.9599984423	-3.7530381365	 0.5553626689	 0.13819
58.2612	127.312	156.4594	197.8303	206.3006	256.1709	300.1324	307.4359	448.847	465.1678	549.3349	649.2954	675.8682	725.4554	780.5252	825.3175	867.8402	892.4913	908.3429	924.238	968.5608	977.4882	990.1493	1059.1778	1080.6365	1115.2945	1121.6	1149.3067	1172.1085	1221.1053	1282.2726	1306.3203	1327.2165	1363.3533	1411.1108	1413.8773	1475.1243	1484.2188	1490.6617	1498.8044	1501.1506	1510.9361	1827.0515	3029.0043	3033.6915	3037.184	3084.1486	3102.8391	3104.1968	3111.8082	3116.6664	3121.3232	3224.5329	3474.8865
CCC1C2C(=N)OC12C	CC[C@H]1[C@H]2[C]([NH])O[C@@]12C	
InChI=1S/C7H11NO/c1-3-4-5-6(8)9-7(4,5)2/h4-5,8H,3H2,1-2H3	InChI=1S/C7H11NO/c1-3-4-5-6(8)9-7(4,5)2/h4-5,8H,3H2,1-2H3/t4-,5-,7-/m0/s1
