21
gdb 87038	2.33321	1.35718	0.99593	0.7182	89.32	-0.2357	0.056	0.2917	1281.6465	0.180695	-349.898839	-349.889251	-349.888306	-349.933108	36.792	
C	-0.0813588032	 1.3319297925	-0.2067094981	-0.414093
C	 0.2018908698	-0.1311553599	 0.0390980382	-0.022934
C	 1.6028270944	-0.669767842	 0.0387963752	-0.339518
C	 0.8179313507	-0.637413425	 1.3463195229	 0.131084
C	 1.2254186426	 0.3384549996	 2.3255697388	 0.289239
C	 1.5482490781	 1.1345566585	 3.1686107149	-0.464323
C	 0.2830471202	-1.909794495	 1.9606024331	-0.061798
C	 0.2401096255	-3.2265278384	 1.2279644679	-0.288844
C	 1.2047859382	-3.0295061849	 2.3712780096	-0.254433
H	 0.676026489	 1.9654676034	 0.2621310691	 0.129885
H	-0.0913100664	 1.5487349517	-1.2806089638	 0.114932
H	-1.0550023132	 1.6209568344	 0.2032485828	 0.119747
H	-0.5475076001	-0.8121288305	-0.356290832	 0.092357
H	 1.8003388699	-1.6322977953	-0.4194446207	 0.115632
H	 2.4173270217	 0.0408030552	-0.0479345902	 0.121676
H	 1.8404500796	 1.8371363732	 3.9088247643	 0.187822
H	-0.5534807617	-1.7255738488	 2.6294428754	 0.090988
H	-0.627901728	-3.8573402577	 1.3852497559	 0.111196
H	 0.6479311853	-3.2902309209	 0.2251705264	 0.112875
H	 2.2550880976	-2.9226499239	 2.1221565426	 0.115941
H	 1.0166669602	-3.5404836261	 3.3087496679	 0.11257
59.6794	134.0542	142.826	173.3888	202.2638	241.9162	301.5864	363.9692	432.8675	445.588	534.2567	576.9989	605.1489	623.5767	642.0164	770.2978	803.8568	830.575	863.6931	898.1449	908.3514	936.9005	955.2834	1010.4084	1053.1175	1060.4619	1075.3623	1079.4815	1125.0387	1141.8659	1152.2482	1191.6844	1197.518	1212.6533	1262.6749	1294.0681	1397.8936	1405.8512	1423.4858	1464.4054	1487.539	1494.0318	1501.2378	1508.8687	2228.4845	3032.9492	3092.3808	3115.4728	3134.2876	3136.3414	3138.3643	3141.3701	3143.7748	3210.9887	3224.0847	3226.1892	3504.1503
CC1CC1(C#C)C1CC1	C[C@H]1C[C@]1(C#C)C1CC1	
InChI=1S/C9H12/c1-3-9(6-7(9)2)8-4-5-8/h1,7-8H,4-6H2,2H3	InChI=1S/C9H12/c1-3-9(6-7(9)2)8-4-5-8/h1,7-8H,4-6H2,2H3/t7-,9-/m0/s1
