19
gdb 38216	3.23126	1.80225	1.46548	1.5898	78.77	-0.2398	0.0138	0.2537	937.3623	0.162433	-385.865637	-385.8592	-385.858256	-385.895994	27.904	
C	 0.0224582254	 1.6765527418	 0.0362385975	-0.260856
C	 1.4982159599	 1.2672854324	-0.0544475558	 0.062491
C	 1.7721815024	 0.7573565196	 1.3952968513	-0.286281
C	 0.5786156692	-0.2389375749	 1.449519593	-0.014638
C	-0.6494888602	-0.2807841938	 2.3266554989	-0.131717
C	-1.7252787692	-0.5284066853	 1.5653061598	-0.054964
C	-1.3947665085	-0.6037016015	 0.0706327695	-0.413847
C	-0.0720698095	 0.1354362452	 0.1007765696	 0.461735
O	 1.0684965983	 0.0718929065	-0.8081069795	-0.358468
H	-0.32104321	 2.2764329879	 0.8817363028	 0.097288
H	-0.3640399029	 2.0501347256	-0.9129682521	 0.104554
H	 2.2634563201	 1.8492626272	-0.5670709412	 0.078755
H	 2.7366496038	 0.2564605298	 1.4977625783	 0.103393
H	 1.728341303	 1.5787742453	 2.1160075888	 0.103646
H	 0.9811511977	-1.2574765765	 1.366883571	 0.092341
H	-0.65467922	-0.2139492116	 3.4086442894	 0.094871
H	-2.7320108934	-0.6834950931	 1.9374758806	 0.094982
H	-1.2693822081	-1.6464998261	-0.2542107762	 0.120768
H	-2.1538387179	-0.1454776386	-0.5703538655	 0.105946
192.3455	271.9947	359.0379	396.6385	446.6108	539.4292	556.5851	647.4715	649.2335	747.5083	766.0731	812.3079	841.7074	855.2863	902.7789	907.1899	924.2976	961.4438	965.8257	1000.0586	1022.7592	1037.2855	1075.2845	1100.0547	1121.3614	1137.4316	1153.8112	1175.236	1213.0409	1223.8482	1251.0394	1279.653	1290.6025	1299.5316	1337.3531	1342.9341	1381.1609	1481.0889	1483.5008	1500.0563	1637.2021	3006.414	3013.8312	3064.4965	3071.6575	3078.414	3116.8535	3128.6778	3142.4595	3182.5983	3206.5967
C1C2CC3C=CCC13O2	C1[C@H]2C[C@H]3C=CC[C@@]13O2	
InChI=1S/C8H10O/c1-2-6-4-7-5-8(6,3-1)9-7/h1-2,6-7H,3-5H2	InChI=1S/C8H10O/c1-2-6-4-7-5-8(6,3-1)9-7/h1-2,6-7H,3-5H2/t6-,7-,8-/m1/s1
