14
gdb 132805	2.30688	1.84738	1.02586	0.9721	67.86	-0.2207	0.0069	0.2276	1055.1253	0.101161	-481.854481	-481.847072	-481.846128	-481.886028	29.157	
O	 0.0720476253	 1.3536605173	-0.0231723892	-0.438016
C	 0.0547764022	-0.0048776392	-0.0402007189	 0.300623
C	-0.0135606541	-0.6960924054	-1.2485953332	-0.234144
C	-0.0297643508	-2.0884176279	-1.2358966552	-0.077307
C	 0.0204790191	-2.8121371511	-0.0473266252	-0.234143
C	 0.0889191809	-2.1271463388	 1.1646012228	 0.300623
O	 0.1390103999	-2.8080128909	 2.3393888599	-0.438016
C	 0.1045553041	-0.7369784652	 1.1408688755	 0.007911
F	 0.1713232508	-0.065043979	 2.3225943207	-0.116634
H	 0.1211259561	 1.6429532573	 0.8958520536	 0.303214
H	-0.0525763594	-0.1317613606	-2.1720103245	 0.110341
H	-0.0829775585	-2.6238228673	-2.1775091598	 0.101993
H	 0.0079613516	-3.8949090208	-0.0356895358	 0.110341
H	 0.1823385227	-2.1660297484	 3.0581970592	 0.303214
162.2529	250.2994	281.3779	300.1411	303.7796	418.4051	424.8086	501.9787	511.2817	535.7749	580.579	605.4975	701.9574	705.8459	784.2162	824.2358	863.0301	944.4219	1048.7244	1071.724	1175.9217	1177.1346	1219.8734	1290.773	1318.3706	1395.2358	1398.4852	1533.0855	1541.7246	1657.9006	1663.1164	3186.7064	3209.6551	3214.8979	3799.4349	3802.0766
OC1=CC=CC(O)=C1F	Oc1cccc(O)c1F	
InChI=1S/C6H5FO2/c7-6-4(8)2-1-3-5(6)9/h1-3,8-9H	InChI=1S/C6H5FO2/c7-6-4(8)2-1-3-5(6)9/h1-3,8-9H
