14
gdb 7628	5.40803	1.32427	1.10557	3.3508	59.48	-0.2533	-0.037	0.2163	1000.972	0.106901	-415.89311	-415.885561	-415.884616	-415.925317	27.393	
N	-0.0830303949	 1.3305810475	 0.057419017	-0.554402
C	-0.0149586052	-0.0521772601	 0.0892835513	 0.417536
O	 1.0182395018	-0.6778451712	-0.0495228734	-0.38221
N	-1.2384354383	-0.6725599998	 0.270740215	-0.125721
C	-2.5422875429	-0.2208963461	-0.2637184447	-0.309888
C	-2.839162868	-1.7073460245	-0.5652199009	 0.389795
O	-3.782974232	-2.3020808229	-0.9824494324	-0.266659
C	-1.4285104558	-2.0907890474	-0.0871162058	-0.28158
H	 0.819696634	 1.7727570204	 0.1402320903	 0.265568
H	-0.8217950672	 1.782363757	 0.5741961819	 0.256392
H	-3.2122122941	 0.2470690855	 0.46666995	 0.138037
H	-2.473587004	 0.4146261011	-1.1554102995	 0.149307
H	-0.7509206224	-2.4395715522	-0.8751035273	 0.158122
H	-1.3879510409	-2.7902762472	 0.7539963884	 0.145703
76.2315	113.0672	190.061	229.1074	416.9889	426.6314	442.1348	458.0502	546.7714	576.2937	661.4154	741.1131	773.8324	779.3935	933.0053	1050.0098	1056.7984	1085.0152	1096.7413	1136.6482	1159.571	1189.048	1260.3074	1292.8058	1420.9626	1464.0484	1487.3717	1623.0077	1796.6341	1930.1332	3024.2426	3044.6171	3074.8037	3091.4142	3579.9166	3695.8555
NC(=O)N1CC(=O)C1	NC(=O)N1CC(=O)C1	
InChI=1S/C4H6N2O2/c5-4(8)6-1-3(7)2-6/h1-2H2,(H2,5,8)	InChI=1S/C4H6N2O2/c5-4(8)6-1-3(7)2-6/h1-2H2,(H2,5,8)
