18
gdb 125570	4.44918	0.98154	0.85821	1.3276	80.59	-0.2235	0.0177	0.2412	1362.5873	0.149753	-398.129997	-398.12154	-398.120596	-398.164155	30.961	
C	-0.4327285083	 1.3538949514	-0.0359012058	-0.491402
C	-0.0318393423	-0.0868821149	 0.013030557	 0.359293
N	 0.9651760927	-0.5383403403	-0.7469632694	-0.285974
N	 1.0485006033	-1.8516278053	-0.4500079709	-0.278613
C	 0.1446856617	-2.2587801197	 0.4780417454	 0.432816
C	-0.5818415706	-1.1255749091	 0.8020754268	-0.409367
C	 0.0634677986	-3.6652870469	 0.9107044121	-0.112317
C	-0.5993600165	-4.0312662074	 2.1911601765	-0.236174
N	-1.23867622	-4.3743311675	 0.9153451308	-0.311658
H	-0.3371262209	 1.8302109698	 0.9459928345	 0.127301
H	 0.2024656014	 1.8916185364	-0.7427739076	 0.140345
H	-1.4753724114	 1.4691431442	-0.3519884835	 0.127255
H	 1.7375585067	-2.4163581751	-0.917723924	 0.2708
H	-1.3872049287	-1.0497305028	 1.5159755126	 0.097341
H	 0.8844378694	-4.2902538473	 0.5650014717	 0.087517
H	-0.2315954352	-4.8788088391	 2.7628063353	 0.124339
H	-1.0101917739	-3.223356777	 2.7901534754	 0.122312
H	-1.9728112562	-3.7012286792	 0.7053908233	 0.236185
36.9817	97.4761	129.8429	157.7599	277.9447	336.6465	411.9847	435.3302	510.8563	602.7993	690.605	707.5383	730.2715	793.8445	813.9043	885.0363	963.7639	987.1651	993.602	1010.8335	1041.6254	1066.3151	1105.2307	1135.3905	1165.7227	1183.6285	1193.9446	1246.4623	1279.3813	1303.4378	1398.7521	1409.5854	1437.9156	1473.2461	1484.6839	1490.137	1507.7516	1523.9934	1609.2343	3035.2833	3086.1608	3111.0831	3125.1961	3133.2004	3198.0164	3250.8738	3495.2133	3668.1733
CC1=NNC(=C1)C1CN1	Cc1n[nH]c(c1)[C@H]1CN1	
InChI=1S/C6H9N3/c1-4-2-5(9-8-4)6-3-7-6/h2,6-7H,3H2,1H3,(H,8,9)	InChI=1S/C6H9N3/c1-4-2-5(9-8-4)6-3-7-6/h2,6-7H,3H2,1H3,(H,8,9)/t6-/m1/s1
