26
gdb 113933	2.82754	0.8405	0.73238	1.1266	94.01	-0.2198	0.0833	0.3031	1724.8405	0.238739	-369.594161	-369.58307	-369.582126	-369.630543	41.137	
C	 2.6549506253	 0.359921343	 0.6653181242	-0.370819
C	 1.4331616402	-0.5246940671	 0.4231462012	-0.118641
N	 1.4303253426	-0.9997645755	-0.9560957569	-0.078189
C	 2.1268526228	-2.2535870872	-1.2230548562	-0.270696
C	 0.6441981821	-2.1747755251	-1.3553133836	 0.013452
C	-0.2830755002	-2.9670987114	-0.4491546999	-0.208101
C	-1.7747857272	-2.6171657575	-0.620344527	 0.045123
C	-2.6520619098	-3.5837705512	 0.1856314823	-0.39279
C	-2.0867255886	-1.1600745224	-0.25484496	-0.384662
H	 3.5813190533	-0.2078248956	 0.5290406201	 0.116708
H	 2.6670399607	 1.1972443181	-0.0379138928	 0.125359
H	 2.6486479313	 0.7577791926	 1.6849238334	 0.107857
H	 1.4278318293	-1.3444120249	 1.1618876548	 0.080088
H	 0.5174070084	 0.0553894272	 0.5834648407	 0.102173
H	 2.7705337822	-2.2793490861	-2.0991051752	 0.10813
H	 2.5112056265	-2.8067528976	-0.3647479433	 0.100101
H	 0.2519170582	-2.068798381	-2.3680060289	 0.083658
H	-0.1517055765	-4.0323798139	-0.6823760048	 0.097572
H	 0.0061529757	-2.8531931214	 0.6022584352	 0.094519
H	-2.016853142	-2.7533369901	-1.6848172686	 0.07243
H	-2.4511167198	-3.4927075906	 1.2600726629	 0.11107
H	-3.7160020171	-3.3765657224	 0.0306480438	 0.109747
H	-2.4676537986	-4.625136597	-0.0991259066	 0.108606
H	-1.875824546	-0.9684724503	 0.8042188059	 0.110041
H	-1.4928992367	-0.457999756	-0.8474719313	 0.129442
H	-3.1441008961	-0.9322618069	-0.4261491694	 0.107823
62.6063	76.5665	90.7537	153.4023	187.1941	225.4448	233.2055	261.2256	280.8575	312.8748	385.3014	390.8969	431.5832	461.3729	533.8747	735.1354	793.5222	814.8857	830.3938	883.9974	927.2002	933.9661	954.8825	967.9052	981.8667	1044.3725	1059.0095	1093.4864	1107.4364	1118.2366	1145.9003	1155.216	1195.2243	1196.3353	1202.0529	1259.1579	1306.5662	1310.5388	1335.9393	1366.1173	1374.3263	1386.9278	1400.0258	1408.3009	1416.452	1426.7584	1472.9046	1487.5823	1488.1708	1489.857	1495.4534	1503.7293	1505.6602	1510.2251	1518.0322	2951.7286	2993.5179	3015.4806	3022.4097	3027.9102	3037.9341	3057.8071	3060.0188	3074.6668	3086.0447	3088.1268	3092.8558	3098.7503	3106.8233	3108.0331	3119.1476	3162.1125
CCN1CC1CC(C)C	CCN1C[C@H]1CC(C)C	
InChI=1S/C8H17N/c1-4-9-6-8(9)5-7(2)3/h7-8H,4-6H2,1-3H3	InChI=1S/C8H17N/c1-4-9-6-8(9)5-7(2)3/h7-8H,4-6H2,1-3H3/t8-,9?/m1/s1
