20
gdb 62227	4.81479	0.53755	0.50158	2.297	81.48	-0.2594	-0.0308	0.2286	2099.8495	0.168474	-403.181557	-403.170947	-403.170003	-403.218971	36.218	
C	-0.0582956454	 1.588004634	 0.248714278	-0.391551
C	 0.0242574409	 0.061065525	 0.0517755316	-0.146612
C	 0.7320674755	-0.3619968121	-1.2591399881	-0.178359
C	-0.0309960342	 0.0369493644	-2.5268864571	-0.211728
C	 0.6689865181	-0.4597642066	-3.8045587508	-0.276875
C	-0.1433142398	-0.1526951214	-5.0430148738	 0.158914
O	 0.2467256589	 0.4875301002	-5.9839581374	-0.231583
C	 0.7037244545	-0.5562426674	 1.1967184669	 0.265809
N	 1.2507045443	-1.0404620926	 2.0924463549	-0.32026
H	 0.9411888302	 2.0323633237	 0.2427509759	 0.139146
H	-0.6467608087	 2.0458549914	-0.5495829	 0.130288
H	-0.5329780658	 1.8304609146	 1.2023752	 0.142014
H	-0.996393027	-0.3445985031	 0.0365437786	 0.127106
H	 1.7385739985	 0.0729835002	-1.273776423	 0.121761
H	 0.8655103076	-1.4495981967	-1.2469649983	 0.12141
H	-1.0490522521	-0.373939248	-2.4851700606	 0.106831
H	-0.1373540717	 1.1260370441	-2.5827407083	 0.12169
H	 1.6615096661	-0.0142613753	-3.9184450272	 0.127261
H	 0.7887613678	-1.5516042135	-3.7484112648	 0.122902
H	-1.1780870976	-0.5710847408	-5.0247213868	 0.071836
44.6075	47.9679	89.2391	106.3503	127.0195	187.7369	212.462	265.9946	293.5546	355.1852	393.8025	522.1231	555.0119	580.5381	747.05	785.7332	838.5495	898.1153	918.9715	989.3335	1012.7125	1040.4201	1057.6536	1111.2973	1123.6058	1161.4384	1207.5973	1249.47	1288.1143	1313.9675	1330.3282	1345.394	1363.3828	1396.4334	1414.2482	1430.0451	1465.1448	1483.0061	1496.1329	1500.2971	1505.8026	1839.5204	2356.6119	2848.3606	3013.1293	3017.8806	3021.2348	3038.092	3052.0937	3061.5194	3083.8484	3102.0045	3127.4052	3133.8377
CC(CCCC=O)C#N	C[C@@H](CCCC=O)C#N	
InChI=1S/C7H11NO/c1-7(6-8)4-2-3-5-9/h5,7H,2-4H2,1H3	InChI=1S/C7H11NO/c1-7(6-8)4-2-3-5-9/h5,7H,2-4H2,1H3/t7-/m0/s1
