20
gdb 59839	3.52977	0.63856	0.55802	3.8896	88.23	-0.2664	0.0201	0.2865	1979.0036	0.16855	-366.010604	-365.999844	-365.9989	-366.049455	37.381	
C	 0.4981296667	 0.7734545432	-0.803021539	-0.383824
C	-0.18277893	-0.2613763007	 0.0992205832	 0.046863
C	 0.5937249177	-0.4641253387	 1.4054261755	-0.391345
C	-1.6479367365	 0.1338819058	 0.4136306189	-0.348713
C	-2.5034016156	 0.2103955602	-0.7648738925	 0.054652
C	-3.1914102854	 0.2592895552	-1.7505278179	 0.118405
C	-4.0346328662	 0.3257437444	-2.9417163628	-0.474815
C	-3.317200083	 0.8187340263	-4.1259544938	 0.279616
N	-2.7622433555	 1.2041849326	-5.0622357086	-0.303018
H	 1.5176107339	 0.4622318069	-1.0514195797	 0.114154
H	-0.0515779529	 0.9117434738	-1.7380483908	 0.135097
H	 0.5607533514	 1.7469158895	-0.3014527459	 0.11091
H	-0.2143074171	-1.2184452091	-0.4372492178	 0.086469
H	 0.6358655739	 0.4656473316	 1.9854840077	 0.1145
H	 0.1303651503	-1.2307630352	 2.0356513977	 0.111209
H	 1.6236201214	-0.7738280058	 1.2028864421	 0.115847
H	-2.0744865186	-0.5918046415	 1.1181430078	 0.1269
H	-1.6542625318	 1.1023354259	 0.9330334087	 0.127923
H	-4.4477203485	-0.6626038999	-3.1820258746	 0.179176
H	-4.8974505941	 0.9823576754	-2.7693967983	 0.179994
5.8744	47.2323	73.7045	132.8085	215.6887	228.7404	255.6795	290.0836	322.1156	361.4801	374.7418	391.4059	415.2897	469.8393	594.0259	797.1304	819.8903	881.8854	924.2274	933.2258	937.3459	953.971	969.6542	1126.6217	1139.3574	1162.7037	1190.9579	1234.0557	1256.2625	1308.8377	1337.57	1366.916	1368.4269	1402.333	1422.7691	1449.4388	1467.276	1488.2656	1493.3678	1503.8567	1510.0959	2368.9937	2378.3612	3008.6418	3021.06	3022.7365	3024.4717	3031.1721	3047.0013	3051.8389	3089.5774	3096.2183	3103.5182	3116.113
CC(C)CC#CCC#N	CC(C)CC#CCC#N	
InChI=1S/C8H11N/c1-8(2)6-4-3-5-7-9/h8H,5-6H2,1-2H3	InChI=1S/C8H11N/c1-8(2)6-4-3-5-7-9/h8H,5-6H2,1-2H3
