16
gdb 125666	2.44037	1.78154	1.03627	5.3425	78.83	-0.1914	-0.0169	0.1745	1096.2756	0.125493	-434.078818	-434.070547	-434.069603	-434.111305	31.585	
C	 0.1620423958	 1.4251362273	 0.0154434696	-0.448256
C	 0.0243441656	-0.0662834779	 0.0112051448	 0.3061
N	-0.0166397812	-0.6624312368	-1.1465608737	-0.256709
N	-0.1399059796	-1.9986841252	-1.1570012227	-0.245847
C	-0.225223228	-2.7758334744	-0.032441982	-0.124648
C	-0.1868255814	-2.1991264992	 1.1927522585	 0.279484
O	-0.2637763745	-2.8783932488	 2.3702943838	-0.439619
C	-0.0548865017	-0.7541159121	 1.3094819742	 0.175397
N	-0.0058632859	-0.076843705	 2.406725809	-0.562066
H	 1.0581258501	 1.7211114977	 0.5703967898	 0.142793
H	 0.2122405174	 1.8032490883	-1.006555321	 0.121583
H	-0.6811179368	 1.8817952944	 0.5438598435	 0.14265
H	-0.1665688666	-2.4082281937	-2.0743009641	 0.274468
H	-0.3217343901	-3.8435234167	-0.1976770189	 0.115968
H	-0.3493252706	-3.8227497399	 2.2032662154	 0.299138
H	-0.0740025225	-0.710001518	 3.2049395639	 0.219562
96.117	170.8387	265.4617	288.0436	299.5941	331.9182	337.6862	349.7671	473.5271	488.0799	534.4947	564.2838	586.7566	700.897	771.8577	819.3748	875.5085	884.5965	949.5051	1006.939	1057.0975	1086.5298	1187.7198	1250.0034	1263.6295	1330.4389	1388.8339	1413.1691	1452.2106	1464.9263	1470.8663	1531.9528	1620.4149	1646.1099	1687.8401	3044.923	3098.2643	3147.8079	3183.8785	3467.4039	3673.314	3822.3893
CC1=NNC=C(O)C1=N	CC1=NNCC(=C1[NH])O	
InChI=1S/C5H7N3O/c1-3-5(6)4(9)2-7-8-3/h2H,1H3,(H2,6,7)(H,8,9)	InChI=1S/C5H8N3O/c1-3-5(6)4(9)2-7-8-3/h6-7,9H,2H2,1H3
