22
gdb 112839	2.9148	1.14575	0.93818	2.2981	81.11	-0.2354	0.0719	0.3072	1334.1502	0.19584	-404.340465	-404.331557	-404.330613	-404.374109	34.662	
C	-0.028428023	 1.5394688726	 0.1002744715	-0.383773
C	 0.0426354435	 0.0111353256	 0.0296964343	-0.181755
C	 0.6946826766	-0.5209005779	-1.2523295556	 0.036594
C	 2.1791656396	-0.1219005536	-1.4421827018	-0.267261
C	 2.8529705797	-1.2590570201	-2.2593988699	 0.151947
O	 4.2207529169	-1.4511122118	-1.9491649218	-0.44342
C	 1.9890747247	-2.4777650309	-1.9769976195	-0.083546
N	 1.8011826132	-2.6525052639	-0.5146516925	-0.354356
C	 0.7299584309	-2.041858243	-1.3408911368	-0.055645
H	 0.969637837	 1.988951677	 0.0805125118	 0.120618
H	-0.5927397038	 1.9497885022	-0.7451432239	 0.110479
H	-0.5216036079	 1.8699606549	 1.0197105836	 0.110657
H	 0.6016079254	-0.3792369756	 0.8889774918	 0.108727
H	-0.9720912325	-0.4016364726	 0.1084192663	 0.085678
H	 0.112796479	-0.1644196718	-2.115137171	 0.067939
H	 2.3017908416	 0.8507134541	-1.9232930062	 0.100095
H	 2.6744281213	-0.0675288464	-0.4675365173	 0.107122
H	 2.8257304059	-1.035200129	-3.3318066605	 0.085001
H	 4.2393265594	-1.7798988187	-1.0416004243	 0.284275
H	 2.0609343813	-3.3567160596	-2.6091070169	 0.086172
H	 1.5601497233	-3.6219153167	-0.3255622931	 0.232117
H	-0.1963564721	-2.5945782047	-1.4687896682	 0.082335
90.62	102.9523	146.1895	192.1175	248.9838	313.0968	377.5033	416.3274	434.8709	475.2237	563.0775	609.0796	659.2758	785.9556	806.2019	836.0747	881.8619	893.6884	918.4188	955.5018	964.6643	996.8738	1022.9571	1063.6854	1069.3472	1091.4941	1115.0773	1123.9225	1149.2797	1167.4846	1216.3158	1257.3842	1267.1546	1291.9557	1305.1251	1323.0786	1337.6726	1349.876	1366.0606	1390.8865	1412.4491	1428.1417	1439.0248	1484.9353	1491.4917	1501.9697	1507.672	2996.7975	3015.0538	3030.3181	3049.0824	3056.2282	3058.8931	3096.709	3103.8525	3111.4801	3149.5903	3168.7799	3506.2617	3777.8879
CCC1CC(O)C2NC12	CC[C@H]1C[C@@H](O)[C@H]2N[C@@H]12	
InChI=1S/C7H13NO/c1-2-4-3-5(9)7-6(4)8-7/h4-9H,2-3H2,1H3	InChI=1S/C7H13NO/c1-2-4-3-5(9)7-6(4)8-7/h4-9H,2-3H2,1H3/t4-,5+,6-,7+/m0/s1
