14
gdb 128935	7.58024	0.75349	0.69139	5.4929	69.23	-0.2277	-0.0112	0.2165	1488.653	0.102898	-429.04203	-429.034086	-429.033142	-429.075797	27.94	
N	 0.098298952	-1.1788253329	-0.0427352818	-0.285269
C	 0.1063642791	-0.0262334206	-0.1080777301	 0.258412
C	 0.1144753005	 1.4337865199	-0.2179970219	-0.272761
N	 1.3798114765	 1.9829918053	 0.2356877745	-0.391903
C	 1.5407200674	 3.3584930263	 0.1466978417	 0.385602
C	 0.6121290311	 4.3788545547	 0.1542516416	-0.170444
N	 1.3881536794	 5.4976091827	 0.0990494339	-0.154254
N	 2.6881205182	 5.2031626024	 0.0530244011	-0.103859
N	 2.7890922259	 3.9016230127	 0.0786029719	-0.269019
H	-0.1360575094	 1.7052585972	-1.2580922776	 0.148774
H	-0.6940481391	 1.824163732	 0.4131327283	 0.163108
H	 2.1943395895	 1.4885132246	-0.1038816148	 0.263621
H	-0.4617456178	 4.4153145932	 0.1971864107	 0.14211
H	 1.0998914767	 6.4627862924	 0.0845365325	 0.285882
50.1004	75.7625	106.63	221.8412	334.2434	390.	417.4692	503.351	548.4956	626.5997	680.6693	707.3957	749.3313	791.1547	959.5316	991.4348	1009.0085	1038.0594	1080.9292	1130.6287	1146.046	1240.0061	1273.5778	1303.519	1355.1229	1392.9302	1463.7283	1496.1521	1536.7873	1630.0209	2374.4748	2959.3022	3041.5592	3294.8887	3585.6972	3660.3373
N#CCNC1=CNN=N1	N#CCNc1c[nH]nn1	
InChI=1S/C4H5N5/c5-1-2-6-4-3-7-9-8-4/h3H,2H2,(H2,6,7,8,9)	InChI=1S/C4H5N5/c5-1-2-6-4-3-7-9-8-4/h3H,2H2,(H2,6,7,8,9)
