19
gdb 91012	4.0919	1.27763	1.12321	2.0081	74.21	-0.2324	0.0665	0.2989	1095.3054	0.16118	-422.96696	-422.959795	-422.958851	-422.998279	29.53	
O	-0.0907501804	 1.4967452374	 0.0422389317	-0.437852
C	 0.0056937004	 0.0813537096	 0.0248543327	 0.126925
C	 0.7422980131	-0.4866789399	 1.2464240506	-0.283889
C	 0.4764644072	-1.9845989752	 1.3838208819	-0.005909
C	-0.0711759101	-2.7926350812	 0.1640819994	 0.019904
O	-0.632858772	-3.7813338684	 1.1031747062	-0.313301
C	-0.972312549	-2.459443017	 1.6695527975	 0.045673
C	-1.4031086516	-1.9828327023	 0.2569191563	-0.010994
C	-1.4104123845	-0.4880042655	-0.0527537844	-0.247843
H	 0.8016166281	 1.8574414243	 0.0575576747	 0.280203
H	 0.5486914079	-0.2496235036	-0.8771605706	 0.067582
H	 1.8189101315	-0.2944696918	 1.1586974371	 0.092015
H	 0.3989616661	 0.0402432926	 2.1460719047	 0.108871
H	 1.2262134708	-2.5302138331	 1.960049111	 0.080769
H	 0.4534800926	-3.1792415487	-0.711098239	 0.088379
H	-1.5325564991	-2.437583508	 2.6061877949	 0.088026
H	-2.2651843082	-2.5291615045	-0.1303107761	 0.081907
H	-2.046999777	 0.0439935666	 0.6655708862	 0.111484
H	-1.8306136759	-0.2963701913	-1.0451264649	 0.108051
125.6955	238.6074	288.4402	336.7339	360.7482	411.2735	439.7667	460.6278	622.9531	722.3918	743.7661	784.5326	801.0763	856.2333	875.2283	897.1442	929.4	977.3905	1006.2456	1027.4422	1050.1126	1067.4667	1099.3055	1116.2046	1151.4437	1158.8815	1164.1389	1199.7791	1214.3775	1247.0752	1257.8312	1264.9374	1285.896	1306.5209	1329.8673	1345.4744	1391.9189	1404.482	1444.4268	1488.0441	1501.3934	2946.4031	3018.8511	3033.5053	3057.9263	3078.3054	3093.8018	3098.9629	3099.568	3112.2512	3814.8149
OC1CC2C3OC2C3C1	O[C@H]1C[C@@H]2[C@H]3O[C@@H]2[C@H]3C1	
InChI=1S/C7H10O2/c8-3-1-4-6-5(2-3)7(4)9-6/h3-8H,1-2H2	InChI=1S/C7H10O2/c8-3-1-4-6-5(2-3)7(4)9-6/h3-8H,1-2H2/t3-,4-,5+,6-,7+
