16
gdb 47575	2.92978	1.69241	1.23096	4.0114	65.15	-0.2569	0.0345	0.2914	987.8022	0.126195	-475.036401	-475.029111	-475.028167	-475.068321	28.06	
O	-0.0614616428	-0.1060116187	 0.0400186738	-0.366193
C	-0.0351889132	 1.0954049435	 0.0471935314	 0.440331
N	-1.1395948275	 1.8994498219	 0.094996622	-0.328059
C	-1.1235271927	 3.3259691952	 0.1236105892	-0.012955
C	-1.5800196264	 4.0309980395	 1.3897681676	-0.337141
C	-0.1246696058	 3.9709847696	 1.0554342897	 0.113633
O	 0.6426917916	 3.1115858436	 1.8420623571	-0.237651
C	 1.6318451157	 2.4262288477	 1.1159469378	-0.004136
O	 1.1387344989	 1.8212927586	-0.0645768208	-0.241119
H	-2.018280385	 1.407447483	 0.1496008403	 0.259855
H	-1.3155583387	 3.8225583411	-0.8247755202	 0.10843
H	-2.0978695763	 4.9779020928	 1.2924079694	 0.125926
H	-1.9059661407	 3.3999042599	 2.2082599428	 0.137689
H	 0.3892806932	 4.8674440557	 0.711858647	 0.100861
H	 2.4280957793	 3.0978136682	 0.7708591814	 0.112113
H	 2.0297903502	 1.6757011584	 1.8070268117	 0.128418
82.7021	175.1423	221.234	308.7849	347.9422	427.0099	470.3896	532.5401	555.8041	679.1525	735.9901	806.466	809.0371	819.9749	841.3537	907.4365	987.0486	1037.8083	1062.1936	1085.0069	1101.39	1127.4882	1150.9295	1173.8866	1192.6041	1225.9199	1292.8811	1316.4959	1386.3594	1406.1611	1448.3951	1456.3423	1482.2497	1521.1381	1854.5881	3023.3395	3084.8099	3114.2424	3126.4878	3147.002	3241.1088	3626.388
O=C1NC2CC2OCO1	O=C1N[C@H]2C[C@H]2OCO1	
InChI=1S/C5H7NO3/c7-5-6-3-1-4(3)8-2-9-5/h3-4H,1-2H2,(H,6,7)	InChI=1S/C5H7NO3/c7-5-6-3-1-4(3)8-2-9-5/h3-4H,1-2H2,(H,6,7)/t3-,4+/m0/s1
