17
gdb 113527	3.69201	0.98413	0.87145	2.9334	70.55	-0.256	0.0152	0.2712	1317.4541	0.136298	-455.12823	-455.11941	-455.118466	-455.162417	31.74	
O	 0.0545180089	 1.3343395554	-0.46472842	-0.415766
C	 0.0585410095	 0.1170437973	 0.2571067189	-0.06037
C	-1.3208716406	-0.4966758344	 0.305041175	-0.112815
N	-1.758868725	-1.0996981026	-0.9719599173	-0.390487
C	-1.5443385503	-1.9532234146	 0.1856938459	 0.179871
C	-0.618892453	-3.1829741327	 0.2791792966	-0.235305
N	-1.7269364181	-3.8315615837	 0.9993379012	-0.351053
C	-2.6100417045	-2.7803362977	 0.9011182729	 0.386567
O	-3.7548506628	-2.6137992318	 1.2287427145	-0.372046
H	-0.2858355714	 1.1262084941	-1.3427973727	 0.292006
H	 0.7650268668	-0.6069062663	-0.1773046418	 0.08954
H	 0.4024638158	 0.3571801753	 1.2685756191	 0.114613
H	-2.0653315701	 0.058701804	 0.8725324741	 0.115725
H	-2.759964914	-0.9680011702	-1.1079260005	 0.252426
H	-0.3801209853	-3.638286274	-0.6862741482	 0.127732
H	 0.2905329389	-3.0578450944	 0.8746325913	 0.120836
H	-1.8290089246	-4.7590904038	 1.380425961	 0.258527
70.1343	99.3357	117.6786	157.4677	223.8299	265.9898	346.9343	426.2284	461.8407	471.4292	578.6605	643.6844	745.4825	787.9412	852.2265	870.6152	959.8786	984.4557	1001.9636	1019.2435	1074.8933	1085.8537	1099.8466	1151.1849	1164.1313	1179.2207	1239.5765	1263.5008	1291.1235	1332.9024	1374.0238	1391.5619	1426.1519	1495.0327	1498.8899	1522.4103	1893.034	2987.4186	3047.4638	3077.474	3099.1983	3136.0762	3482.7317	3634.193	3795.0307
OCC1NC11CNC1=O	OC[C@H]1N[C@]21CNC2=O	
InChI=1S/C5H8N2O2/c8-1-3-5(7-3)2-6-4(5)9/h3,7-8H,1-2H2,(H,6,9)	InChI=1S/C5H8N2O2/c8-1-3-5(7-3)2-6-4(5)9/h3,7-8H,1-2H2,(H,6,9)/t3-,5+/m1/s1
