17
gdb 18077	4.74526	1.23377	1.15259	1.9961	77.26	-0.2212	0.0392	0.2604	1104.4409	0.142024	-326.654692	-326.646629	-326.645684	-326.688899	28.814	
C	 0.0354197061	 1.5106180729	-0.0307558669	-0.500087
C	-0.0004719492	 0.056117142	 0.0139596917	 0.058412
C	-0.0217461478	-1.1488632538	 0.0488442813	 0.120194
C	-0.0270262467	-2.5841805352	 0.0649925851	-0.207983
C	-0.4658954983	-3.3990911793	 1.2294076903	-0.022785
C	-1.5718444103	-2.7144187338	 2.0256812436	-0.254969
C	-2.353493271	-2.6549952753	 0.6873094102	-0.150373
N	-1.2715379749	-3.4056051623	-0.0512623074	-0.152133
H	 1.0575520643	 1.8835917229	 0.0982824554	 0.151659
H	-0.337667512	 1.8910454219	-0.9881562561	 0.151009
H	-0.5787381948	 1.9488767421	 0.763514906	 0.149426
H	 0.7623020885	-3.041006598	-0.5278742781	 0.113627
H	 0.1070912435	-4.2643211543	 1.5505206606	 0.094652
H	-2.0378293624	-3.3725121619	 2.7608471654	 0.110034
H	-1.3066973137	-1.7682532404	 2.504362639	 0.112251
H	-3.2671504405	-3.2516824242	 0.6819792179	 0.110738
H	-2.5601937409	-1.6650622133	 0.2733289918	 0.116328
15.1768	95.6878	114.214	238.6186	274.3267	344.6063	408.035	518.0917	529.9021	753.559	753.77	776.0222	796.747	817.9802	947.9181	957.8921	1004.9101	1029.78	1051.2847	1053.2767	1066.6738	1099.8722	1154.0479	1174.7542	1222.5425	1244.3427	1267.692	1292.0989	1352.3833	1405.1474	1415.4286	1476.2958	1478.1054	1478.9199	1500.0819	2361.985	3026.8105	3064.4119	3070.4567	3087.1593	3089.103	3114.8512	3131.4102	3132.6041	3152.4029
CC#CC1C2CCN12	CC#C[C@H]1[C@H]2CCN12	
InChI=1S/C7H9N/c1-2-3-6-7-4-5-8(6)7/h6-7H,4-5H2,1H3	InChI=1S/C7H9N/c1-2-3-6-7-4-5-8(6)7/h6-7H,4-5H2,1H3/t6-,7+,8?/m0/s1
