15
gdb 11012	4.38148	1.7705	1.47389	4.326	61.21	-0.2407	0.0097	0.2504	855.9428	0.119298	-399.825649	-399.818507	-399.817563	-399.856828	26.843	
C	 0.0352400563	 1.5173054715	-0.0495084181	-0.489658
C	-0.0706129961	 0.0291604649	 0.1223820039	 0.419738
C	-1.367536507	-0.7008918049	-0.2320066718	-0.220664
N	-1.3002838874	-1.9075172785	 0.5741697095	-0.336014
C	-0.2313117993	-1.9985480015	 1.428814282	 0.452138
O	-0.0237832882	-2.8723264278	 2.240083707	-0.380155
C	 0.618220458	-0.7739303257	 1.1442924993	-0.178697
O	 1.0753808666	-0.7535007179	-0.2234990762	-0.284525
H	 1.0269072755	 1.8620666105	 0.2517106043	 0.141683
H	-0.1187663197	 1.7973257613	-1.0974824561	 0.13431
H	-0.7170893599	 2.035646446	 0.5532795628	 0.13051
H	-2.2410716243	-0.0879144033	 0.0268969283	 0.1138
H	-1.4080162805	-0.9222284335	-1.3056110348	 0.125471
H	-1.953460306	-2.6693461614	 0.4896546797	 0.256344
H	 1.3019134219	-0.3917941396	 1.8944213601	 0.115717
124.1093	183.4735	200.2838	279.9475	376.1846	404.9432	470.8427	491.5114	560.142	674.4781	727.2647	796.034	845.664	897.8185	922.1557	983.8676	1015.2111	1066.1854	1078.1664	1121.3835	1212.7028	1226.8923	1250.8289	1303.4541	1340.9039	1407.5759	1438.9376	1460.7368	1485.8632	1494.3645	1513.2262	1837.7152	3012.7605	3038.8129	3052.3744	3101.8974	3131.5335	3185.4138	3650.1664
CC12CNC(=O)C1O2	C[C@]12CNC(=O)[C@H]1O2	
InChI=1S/C5H7NO2/c1-5-2-6-4(7)3(5)8-5/h3H,2H2,1H3,(H,6,7)	InChI=1S/C5H7NO2/c1-5-2-6-4(7)3(5)8-5/h3H,2H2,1H3,(H,6,7)/t3-,5+/m1/s1
