25
gdb 118753	3.02533	0.81537	0.74298	1.5697	88.96	-0.2536	0.0742	0.3278	1681.849	0.22726	-389.490844	-389.480158	-389.479214	-389.526602	40.399	
C	-0.4452716819	 1.634773148	-0.1058152801	-0.377114
C	-0.1349564104	 0.1347755888	-0.1085697489	-0.173673
C	 0.4061673718	-0.3604906251	 1.2391535026	-0.233238
C	 0.8380168949	-1.8311113527	 1.2745564163	 0.347886
C	-0.3346761058	-2.7841129901	 1.0149876618	-0.447856
C	 2.0967853895	-2.1990514266	 0.419542654	-0.302485
C	 2.6415165628	-3.0078575463	 1.6253583237	 0.173922
O	 4.0172862474	-2.9916651739	 1.916120136	-0.436247
C	 1.647665494	-2.2519794696	 2.5450618844	-0.318091
H	 0.4509497193	 2.2248878076	 0.1165713695	 0.111927
H	-0.8293609486	 1.9657163839	-1.0758306652	 0.110473
H	-1.1974211298	 1.8823097459	 0.6517462409	 0.113602
H	-1.0426447322	-0.4197166383	-0.3742408906	 0.098888
H	 0.5977231481	-0.0850898769	-0.8962622306	 0.098295
H	 1.2684970638	 0.2609296077	 1.5184858251	 0.079099
H	-0.3514984558	-0.1913729959	 2.0184182134	 0.089017
H	-0.7471866358	-2.6535058352	 0.0095219359	 0.116564
H	-0.0291740474	-3.8314894891	 1.1066967732	 0.114455
H	-1.1433075372	-2.6122600731	 1.7350886517	 0.111102
H	 1.9451602151	-2.7268084522	-0.5258951019	 0.096028
H	 2.7225158357	-1.318489895	 0.2305033388	 0.083736
H	 2.3821015188	-4.0667065795	 1.5434811616	 0.091541
H	 4.290532571	-2.0720766518	 2.0011178749	 0.273493
H	 2.1334465942	-1.3877416494	 3.0131488786	 0.083208
H	 1.1281110384	-2.821732851	 3.3204907348	 0.095468
64.9446	75.7166	105.9824	169.192	235.8271	244.468	273.5276	304.3024	321.731	336.2198	354.3172	386.7455	459.1843	473.6817	622.654	742.0143	744.9206	829.5085	859.9797	894.9462	897.3912	906.6371	955.3038	977.6422	1008.0578	1039.3163	1054.7737	1065.2723	1096.4697	1110.1415	1120.6973	1178.0269	1214.7559	1222.4676	1254.8224	1277.6967	1292.5617	1303.3093	1320.5964	1331.7739	1347.8212	1392.6668	1409.2531	1415.3238	1440.0747	1468.0784	1476.8399	1491.6229	1495.2825	1498.1109	1498.8669	1503.6889	1510.8159	2993.706	3020.4725	3025.7942	3026.1133	3027.8296	3029.9213	3037.5895	3059.6749	3070.6315	3091.0312	3093.7057	3094.8166	3099.4686	3101.0276	3102.9701	3804.7683
CCCC1(C)CC(O)C1	CCC[C@@]1(C)C[C@@H](O)C1	
InChI=1S/C8H16O/c1-3-4-8(2)5-7(9)6-8/h7,9H,3-6H2,1-2H3	InChI=1S/C8H16O/c1-3-4-8(2)5-7(9)6-8/h7,9H,3-6H2,1-2H3/t7-,8+
