27
gdb 60376	3.16472	0.703	0.68904	0.0771	96.71	-0.2604	0.0827	0.3432	1876.4257	0.250269	-353.561849	-353.550578	-353.549634	-353.598612	42.361	
C	 0.1115128086	 1.4385316166	-0.3215033117	-0.389306
C	 0.0758649489	-0.0543861917	 0.0330210999	 0.045203
C	 0.7648196364	-0.3023331252	 1.3828372334	-0.379779
C	-1.371673199	-0.5802131498	 0.003957692	-0.165591
C	-1.5079669987	-2.102791748	 0.1559233689	-0.277181
C	-2.9260122274	-2.6268996585	-0.0322693373	 0.395278
C	-3.9413946871	-2.1611314079	 0.9954488877	-0.460419
C	-3.4092240034	-2.8478931632	-1.4469531088	-0.293818
C	-3.0782435098	-4.031426282	-0.5662015304	-0.315458
H	 1.1383988876	 1.8187678491	-0.3412305405	 0.10688
H	-0.3360864282	 1.6272997376	-1.3030690513	 0.10777
H	-0.4456428078	 2.0288023734	 0.4162121815	 0.109869
H	 0.6421280222	-0.5964126677	-0.7390916342	 0.067447
H	 0.8284461455	-1.367135787	 1.6247599448	 0.113932
H	 1.7847309745	 0.0966108694	 1.380606916	 0.107578
H	 0.2178478599	 0.1924911433	 2.1949866155	 0.108959
H	-1.9444185079	-0.0726505898	 0.7921262404	 0.090674
H	-1.8345094322	-0.2829798689	-0.9464359724	 0.090353
H	-0.8519583746	-2.590546789	-0.5777118006	 0.085812
H	-1.1449996515	-2.4152122888	 1.1439538935	 0.094038
H	-4.0778945561	-1.0746063256	 0.9700982434	 0.116938
H	-4.9198223137	-2.6183073641	 0.8170557024	 0.109653
H	-3.6276385001	-2.4331393574	 2.010692314	 0.111212
H	-4.4529214868	-2.6542005738	-1.6721309814	 0.105193
H	-2.7324491734	-2.617640021	-2.2636800759	 0.105006
H	-2.1793370364	-4.5969093194	-0.7896600525	 0.104999
H	-3.8989052596	-4.6360652508	-0.1937766263	 0.104759
39.3376	70.5854	123.0869	128.0845	215.5584	222.3608	237.7742	246.1895	305.3732	343.1961	356.4384	376.8018	420.2642	441.587	491.0658	718.5624	769.8197	788.5311	825.2189	867.7516	915.2697	927.3891	933.1466	951.0866	954.7181	964.2576	991.2179	1034.9224	1049.4682	1060.2906	1077.5148	1108.953	1136.6012	1150.1127	1187.9607	1193.53	1234.0247	1286.5179	1305.673	1323.5227	1353.4496	1371.0882	1375.0143	1396.0534	1400.2929	1420.7469	1421.8146	1469.0108	1475.3468	1486.7789	1489.7863	1495.7183	1499.0202	1502.0567	1504.6476	1510.6138	1512.5353	2991.4225	3004.972	3013.5688	3021.3282	3022.7181	3027.0096	3034.5673	3058.5416	3083.5645	3085.0048	3091.3049	3096.4121	3097.6265	3105.8488	3122.6728	3127.5508	3199.4262	3214.0463
CC(C)CCC1(C)CC1	CC(C)CCC1(C)CC1	
InChI=1S/C9H18/c1-8(2)4-5-9(3)6-7-9/h8H,4-7H2,1-3H3	InChI=1S/C9H18/c1-8(2)4-5-9(3)6-7-9/h8H,4-7H2,1-3H3
