18
gdb 11259	5.379	1.21886	1.03205	0.817	83.79	-0.2231	-0.014	0.2091	1148.2886	0.15348	-310.662426	-310.654363	-310.653419	-310.694705	30.751	
C	-0.6830753861	 1.3070178312	-0.0984533599	-0.405712
C	 0.1692087572	 0.04740987	 0.0435590496	 0.040346
C	 1.0993847782	-0.2412684037	-1.1662052851	-0.25963
C	 2.2938606386	-0.9097235798	-0.5410368315	-0.17098
C	 2.3165120456	-0.7599445219	 0.7927761574	 0.199707
C	 1.1174734514	 0.0469657547	 1.2702910837	-0.326014
C	 3.3175543771	-1.2228462089	 1.6797215197	 0.195492
C	 4.1407035853	-1.5990202172	 2.4760876206	-0.414284
H	-0.0523327519	 2.1967614788	-0.2092193603	 0.114357
H	-1.3345924056	 1.2492189182	-0.9770124221	 0.113521
H	-1.3213277721	 1.4582168547	 0.7785774192	 0.114615
H	-0.4984537608	-0.8164791578	 0.1500226259	 0.080405
H	 0.6134706926	-0.8562850541	-1.9325038069	 0.105037
H	 1.4011223636	 0.6906663876	-1.6697021773	 0.107099
H	 3.0630121373	-1.4153994486	-1.1130726816	 0.097687
H	 1.4344043595	 1.0651249003	 1.5376817038	 0.108969
H	 0.6535107618	-0.3797170498	 2.165132489	 0.110544
H	 4.8761825682	-1.9359158236	 3.1634797659	 0.188842
80.3493	142.7576	170.7503	248.5563	309.1537	365.0784	414.0493	486.5821	537.5432	550.3631	590.8999	631.6715	632.6726	829.9368	850.3875	872.96	910.8167	939.4426	949.6504	1001.5929	1063.5709	1107.0097	1138.0939	1149.0445	1196.4122	1235.7417	1275.1231	1306.4031	1312.9559	1350.2953	1373.0904	1413.2502	1482.0337	1491.4142	1497.716	1500.8743	1671.9267	2220.1097	2987.6243	3008.8523	3022.3216	3026.6919	3052.718	3073.3696	3093.6219	3096.5558	3203.4168	3504.2753
CC1CC=C(C1)C#C	C[C@H]1CC=C(C1)C#C	
InChI=1S/C8H10/c1-3-8-5-4-7(2)6-8/h1,5,7H,4,6H2,2H3	InChI=1S/C8H10/c1-3-8-5-4-7(2)6-8/h1,5,7H,4,6H2,2H3/t7-/m0/s1
