19
gdb 65571	3.19009	1.00208	0.91509	2.1011	70.82	-0.2575	0.0534	0.3108	1323.3876	0.157578	-460.108225	-460.099249	-460.098305	-460.142686	32.904	
O	 0.1144988002	 1.5525994353	-0.1575794901	-0.473325
C	 0.0094413843	 0.1591052373	 0.0088147889	 0.333678
C	-1.4632548148	-0.1519318292	 0.2585473236	-0.264394
C	-2.3654704331	 0.2834239906	-0.8736356157	 0.09211
C	-2.8613216869	-0.6552373499	-1.8909114866	-0.17836
O	-3.7064297516	-0.2099614779	-0.8307585497	-0.237969
C	 0.71207963	-0.754643112	-1.0328769449	-0.127835
O	 1.3519980529	-1.5056959037	 0.015856235	-0.268782
C	 0.9770879663	-0.5293317843	 1.0069705296	-0.129634
H	 1.033716114	 1.7733285246	-0.3418422303	 0.282534
H	-1.5841453667	-1.2260747643	 0.4319865083	 0.116796
H	-1.769386075	 0.3655118286	 1.176196848	 0.118685
H	-2.2859776046	 1.3339520198	-1.1483929245	 0.111082
H	-3.123645169	-0.2930920298	-2.8841461147	 0.115702
H	-2.570133653	-1.7044888135	-1.8438901724	 0.112011
H	 0.0870809766	-1.3834664649	-1.6753094517	 0.110385
H	 1.4379567654	-0.2123126405	-1.6586357007	 0.087942
H	 1.8213588873	 0.1139476704	 1.2986527525	 0.088517
H	 0.5464245278	-0.9875470966	 1.9042229755	 0.110856
67.3699	76.3848	110.2244	163.1723	274.6902	323.8004	331.7735	365.923	403.8652	451.3401	487.0918	701.022	823.7602	840.0448	867.9783	884.9121	921.7946	941.9471	977.7586	1008.7292	1027.8176	1050.3077	1088.0169	1120.8242	1137.3391	1144.725	1158.2303	1163.5348	1182.9528	1202.945	1282.3136	1287.9269	1292.7456	1333.3974	1371.4747	1410.7562	1444.2849	1476.0077	1502.6433	1527.3457	1530.692	2978.494	2990.991	3035.8877	3063.8369	3069.4698	3077.9227	3088.7876	3131.333	3163.9792	3808.3556
OC1(CC2CO2)COC1	OC1(C[C@H]2CO2)COC1	
InChI=1S/C6H10O3/c7-6(3-8-4-6)1-5-2-9-5/h5,7H,1-4H2	InChI=1S/C6H10O3/c7-6(3-8-4-6)1-5-2-9-5/h5,7H,1-4H2/t5-/m0/s1
