17
gdb 127582	3.29665	1.36297	0.97596	3.1673	80.27	-0.2292	-0.0516	0.1776	1191.7721	0.136496	-418.059044	-418.050531	-418.049587	-418.092404	30.981	
C	-0.061857611	 1.4507841004	-0.008232632	-0.31389
N	-0.0266452767	-0.0073964932	 0.0051719204	-0.052349
N	-0.1273417877	-0.617317258	-1.1794109915	-0.211683
C	-0.0987388693	-1.9199741107	-1.1966911658	-0.055132
C	 0.0337381376	-2.7320560451	-0.0253494789	 0.295239
C	 0.0554445964	-4.229666087	-0.160078856	-0.49447
C	 0.1345028577	-2.0883258889	 1.1678726648	-0.309566
C	 0.1094597366	-0.642574988	 1.2562433918	 0.433961
O	 0.1927350774	 0.026492363	 2.2752806172	-0.404262
H	 0.8579619242	 1.850761099	 0.425747438	 0.151598
H	-0.1696568092	 1.7654078565	-1.0444149796	 0.144887
H	-0.8986415387	 1.809914984	 0.5960910958	 0.151598
H	-0.1836769409	-2.3708538718	-2.1801204157	 0.119612
H	 0.8857004142	-4.5525027163	-0.798264834	 0.143222
H	 0.1611658465	-4.7156861365	 0.812052872	 0.136902
H	-0.8663226553	-4.5932067346	-0.628070525	 0.143227
H	 0.2379803581	-2.6192813929	 2.1076168485	 0.121104
97.6051	109.3026	121.8279	190.832	281.4325	289.9534	331.4348	434.5753	461.2547	512.4358	615.884	638.1893	732.4503	757.66	771.8408	884.1808	919.0903	969.6537	1035.173	1041.6156	1065.4726	1146.5846	1149.7096	1212.3869	1278.5395	1303.1476	1362.6509	1412.2385	1424.6662	1444.3632	1470.7212	1480.6538	1485.3243	1504.1593	1561.3622	1658.6511	1762.6146	3034.6996	3058.9686	3088.8486	3121.3287	3129.3599	3179.9052	3182.5189	3199.5011
CN1N=CC(C)=CC1=O	Cn1ncc(C)cc1=O	
InChI=1S/C6H8N2O/c1-5-3-6(9)8(2)7-4-5/h3-4H,1-2H3	InChI=1S/C6H8N2O/c1-5-3-6(9)8(2)7-4-5/h3-4H,1-2H3
