13
gdb 29392	5.00272	0.91954	0.85763	3.4685	64.8	-0.2344	-0.02	0.2144	1280.4481	0.089794	-452.787928	-452.780149	-452.779205	-452.82144	27.767	
O	 0.3210934166	 1.3375208865	-0.1616162364	-0.4242
C	 0.1237202005	 0.0113451214	-0.0939863848	 0.327136
C	-0.2260675394	-0.841476852	-1.0901855112	-0.144789
O	-0.3007186651	-2.0976951787	-0.5259387413	-0.163028
C	 0.0046030378	-1.9156737652	 0.7674655782	 0.407118
C	 0.0291128171	-3.1103267238	 1.6686000373	-0.43288
C	-1.2713790448	-3.7775183998	 1.7769488756	 0.267448
N	-2.2926555637	-4.3088876332	 1.8644518001	-0.294491
N	 0.2676003381	-0.685769097	 1.0900523387	-0.378897
H	 0.5430144068	 1.6366083704	 0.7284875495	 0.311411
H	-0.4426245319	-0.75534538	-2.1381551039	 0.157407
H	 0.7651194193	-3.840991491	 1.3117861717	 0.178879
H	 0.3490305388	-2.7734289576	 2.6577848165	 0.188887
30.291	98.549	235.3822	274.4908	338.3304	369.7278	374.5436	435.064	493.6347	642.3091	676.0595	715.172	737.8158	799.6826	916.5131	939.3978	1005.8789	1031.4164	1124.2408	1175.104	1215.6	1272.0329	1326.4064	1368.5548	1406.9191	1446.018	1604.7736	1698.4911	2371.7487	3045.6094	3115.9301	3320.5937	3808.528
OC1=COC(CC#N)=N1	Oc1coc(CC#N)n1	
InChI=1S/C5H4N2O2/c6-2-1-5-7-4(8)3-9-5/h3,8H,1H2	InChI=1S/C5H4N2O2/c6-2-1-5-7-4(8)3-9-5/h3,8H,1H2
