14
gdb 131571	7.27923	0.64654	0.59601	3.1486	77.61	-0.2311	-0.0092	0.2219	1745.2209	0.101492	-432.824543	-432.816117	-432.815173	-432.860453	28.89	
O	 0.0208546708	 1.4326150621	 0.0096192112	-0.409797
C	 0.0014051311	 0.0109570827	 0.0025905105	-0.228368
C	-1.3785894951	-0.4562875092	 0.0125809238	 0.227943
C	-2.5094549736	-0.8715042706	 0.0206198412	-0.039214
C	-3.8393611187	-1.3482458543	 0.0301316186	 0.200857
C	-5.0173912674	-0.6273775984	 0.0409583875	-0.202081
N	-5.9781011142	-1.575253523	 0.0465473254	-0.154752
N	-5.4516819327	-2.8167913549	 0.0398495134	-0.114301
N	-4.1619524492	-2.6876222617	 0.0299836447	-0.263594
H	 0.9438227437	 1.7060412861	 0.0027194131	 0.292128
H	 0.5088559198	-0.3932469554	-0.8888572298	 0.123145
H	 0.5246528301	-0.4022354698	 0.8806803518	 0.123175
H	-5.223635221	 0.4287139839	 0.0447893498	 0.157552
H	-6.9795050937	-1.4635157177	 0.0546867288	 0.287308
8.4129	74.3077	107.9955	205.2971	222.9464	288.8643	416.1507	492.6495	526.4697	576.6546	622.3932	693.4885	736.9567	808.3595	940.1881	981.4655	1025.8587	1039.3544	1049.137	1081.0822	1128.4149	1242.1292	1249.3776	1262.3992	1301.1631	1355.9079	1458.1706	1488.2077	1502.6946	1576.7366	2371.9837	2962.1922	2980.3021	3294.4956	3657.7366	3820.1076
OCC#CC1=CNN=N1	OCC#Cc1c[nH]nn1	
InChI=1S/C5H5N3O/c9-3-1-2-5-4-6-8-7-5/h4,9H,3H2,(H,6,7,8)	InChI=1S/C5H5N3O/c9-3-1-2-5-4-6-8-7-5/h4,9H,3H2,(H,6,7,8)
