18
gdb 39932	2.95639	1.55028	1.21281	1.4531	87.32	-0.2088	-0.0393	0.1694	1058.4764	0.149965	-364.801252	-364.793863	-364.792919	-364.833097	29.754	
C	 0.1997141386	 1.5692321083	-0.0009124433	-0.256632
N	 1.3601127394	 0.6659537623	 0.0476390595	-0.367243
C	 0.0108179728	 0.0830677823	 0.0000627834	 0.246664
C	-0.4102862451	-0.6227788591	 1.2428513962	-0.142816
C	-1.6896859109	-0.9020383679	 1.552178988	-0.061615
C	-2.8452645765	-0.701310383	 0.7076796299	-0.103196
C	-2.8661770326	-0.6864398045	-0.6490141277	-0.111703
C	-1.7335505751	-0.8725245442	-1.526756195	-0.051764
C	-0.4467615786	-0.5962317165	-1.2466508509	-0.18301
H	 0.0180966257	 2.1317737906	 0.9109721314	 0.118073
H	-0.0139619549	 2.1015659797	-0.9244209057	 0.110617
H	 1.7923673404	 0.613282574	-0.8721796756	 0.227377
H	 0.3894809888	-0.8842005597	 1.9303518951	 0.108423
H	-1.8897514239	-1.3345184231	 2.5302696291	 0.094064
H	-3.8044779918	-0.6609720233	 1.2187794441	 0.092503
H	-3.8389603494	-0.6363032174	-1.1324002665	 0.091208
H	-1.9573024746	-1.296111339	-2.5038693473	 0.094426
H	 0.3227235278	-0.8790090295	-1.9635395945	 0.094624
64.6985	224.3761	291.1411	306.8399	377.0809	385.9902	442.2765	490.6846	625.9584	630.7449	714.0505	773.8025	788.7519	842.3228	865.3416	909.1688	935.1454	945.5131	955.8547	978.8011	985.02	995.3242	1004.9584	1021.7014	1083.2208	1124.4458	1220.5997	1223.8079	1252.2184	1256.4107	1317.5343	1330.998	1403.6184	1437.0712	1475.8008	1500.1442	1599.2728	1668.6635	1684.1239	3101.9393	3128.3155	3138.2672	3146.4978	3154.2635	3166.5885	3175.7217	3193.1385	3488.8088
C1NC11C=CC=CC=C1	C1N[C@]21C=CC=CC=C2	
InChI=1S/C8H9N/c1-2-4-6-8(5-3-1)7-9-8/h1-6,9H,7H2	InChI=1S/C8H9N/c1-2-4-6-8(5-3-1)7-9-8/h1-6,9H,7H2
