20
gdb 99626	2.19524	1.30263	1.03092	2.4375	81.63	-0.2359	0.0415	0.2774	1262.4912	0.168562	-403.072737	-403.062807	-403.061863	-403.107917	36.783	
C	-1.3109708746	 1.0434333638	 1.3283407127	-0.425399
C	-0.8297769899	-0.3852681009	 1.2159493986	 0.031253
C	 0.2943563539	-0.7494357757	 0.313685219	-0.253605
N	 0.4625813128	-0.8175019448	 1.766351501	-0.118745
C	 1.3335177251	 0.1380958958	 2.4919186217	-0.158297
C	 2.2779287789	-0.7273044846	 3.3614262465	-0.055542
O	 2.9589869641	-1.687807629	 2.5928606133	-0.416639
C	 2.0810921989	 1.0769422968	 1.6554775616	 0.375071
C	 2.7005866235	 1.8534775086	 0.9769757754	-0.49104
H	-0.5188277803	 1.7608083171	 1.1006410984	 0.138726
H	-2.1348875198	 1.2137623236	 0.6274875242	 0.124618
H	-1.6896592503	 1.2557945721	 2.3349445155	 0.122143
H	-1.6119907412	-1.1272583264	 1.3742527893	 0.090723
H	 0.3107044311	-1.7068501913	-0.201057617	 0.111825
H	 0.7912665641	 0.0609155736	-0.2136190108	 0.130245
H	 0.7013487025	 0.7174024648	 3.1783944477	 0.10547
H	 3.0318124814	-0.0957462678	 3.8402042007	 0.112111
H	 1.663515594	-1.195340602	 4.1461859336	 0.086876
H	 2.2655563351	-2.1855688515	 2.1405848637	 0.289265
H	 3.2582187407	 2.5359334576	 0.3841273049	 0.200941
39.5557	96.7272	133.0575	171.6408	210.7172	236.2768	266.8614	325.0449	378.2689	431.0167	486.4694	499.3652	573.6325	622.6546	647.5932	656.6519	760.8262	826.8614	852.1409	904.5245	932.5812	967.4662	1033.4154	1064.1819	1071.1095	1105.9072	1128.2705	1142.8911	1166.5993	1193.0788	1232.1513	1289.3936	1321.2469	1334.2401	1396.1943	1403.1147	1423.8351	1428.2378	1495.4454	1496.1735	1501.1957	1510.8815	2224.8498	2981.9767	3017.3733	3032.9504	3091.1661	3091.3663	3100.6553	3104.059	3128.9172	3189.7435	3500.7485	3768.7656
CC1CN1C(CO)C#C	C[C@H]1CN1[C@@H](CO)C#C	
InChI=1S/C7H11NO/c1-3-7(5-9)8-4-6(8)2/h1,6-7,9H,4-5H2,2H3	InChI=1S/C7H11NO/c1-3-7(5-9)8-4-6(8)2/h1,6-7,9H,4-5H2,2H3/t6-,7+,8?/m0/s1
