18
gdb 7079	6.48598	0.80815	0.76017	2.1355	69.82	-0.2523	-0.0386	0.2137	1433.0397	0.149748	-384.962669	-384.953047	-384.952103	-384.998565	32.333	
C	 0.0383672426	 1.6002535682	-0.1562046644	-0.393711
C	-0.0008466705	 0.0764794345	 0.0327494569	-0.003272
C	-1.451551851	-0.445438563	 0.0804583733	-0.278084
C	-2.2086847008	 0.0638388389	 1.287633271	 0.159625
O	-3.2778693937	 0.6145752692	 1.2554859366	-0.235827
C	 0.7994932196	-0.6460066835	-1.070218468	-0.278111
C	 2.2793122772	-0.3360777884	-1.0068299426	 0.159634
O	 2.9465985653	 0.0576557898	-1.9272599562	-0.235835
H	 1.0657977965	 1.9768593798	-0.1608081556	 0.130432
H	-0.4230671771	 1.88362438	-1.1086159571	 0.131191
H	-0.5041965249	 2.1167857234	 0.6414616239	 0.130479
H	 0.4707422109	-0.1653528582	 0.9974401102	 0.084826
H	-2.005977059	-0.1736084298	-0.8233715901	 0.124775
H	-1.4379122097	-1.5428597655	 0.1530088747	 0.117968
H	-1.687929682	-0.1182738152	 2.2587397032	 0.071545
H	 0.6961718877	-1.7330132411	-0.937724966	 0.118022
H	 0.4287244033	-0.390822492	-2.0680201763	 0.124795
H	 2.7358970355	-0.5103455372	-0.0025557235	 0.071546
50.4083	59.567	62.9741	99.3987	183.0917	227.2399	264.1615	303.6659	407.7909	408.8608	527.4187	532.4801	766.5788	786.2776	892.0816	939.7222	942.2317	1002.7617	1022.9271	1026.1327	1137.972	1150.3381	1157.6612	1200.8053	1255.1699	1260.789	1319.3979	1369.601	1375.361	1421.4749	1428.5927	1430.4396	1454.1347	1464.8567	1496.4812	1496.9221	1836.2748	1839.1194	2840.8018	2842.7701	2991.8004	3009.936	3012.9825	3035.2532	3089.1613	3092.7918	3104.6226	3110.2986
CC(CC=O)CC=O	CC(CC=O)CC=O	
InChI=1S/C6H10O2/c1-6(2-4-7)3-5-8/h4-6H,2-3H2,1H3	InChI=1S/C6H10O2/c1-6(2-4-7)3-5-8/h4-6H,2-3H2,1H3
