22
gdb 80671	3.7193	1.00922	0.97189	0.8641	87.29	-0.2288	0.0886	0.3175	1349.6265	0.194645	-367.149047	-367.140408	-367.139464	-367.182433	33.658	
C	-0.0503280152	 1.5132366031	-0.0551907176	-0.416939
C	 0.1437206645	 0.0104507307	-0.0465518171	-0.004279
C	 1.4489422031	-0.7116600277	-0.2550020935	-0.065066
C	 2.6201731337	 0.0110696306	 0.4229983181	-0.260422
C	 1.8691584913	-0.0752622878	 1.7892216137	 0.056348
C	 0.7118527071	-0.8008737169	 1.0884464439	-0.081345
N	 2.5617897652	-0.9408934974	 2.7307103645	-0.065395
C	 3.441575599	-0.2736835392	 3.6857368292	-0.225614
C	 2.1368932232	-0.841465663	 4.1240848476	-0.226513
H	 0.7883772062	 2.0490288988	 0.3965759512	 0.119137
H	-0.1600999758	 1.8827030926	-1.0808205951	 0.114457
H	-0.9546098698	 1.7933444653	 0.4966997342	 0.114808
H	-0.6781812228	-0.51898981	-0.5268881641	 0.083108
H	 1.5574420312	-1.472874257	-1.018709005	 0.078925
H	 3.5211744334	-0.6035828581	 0.459732356	 0.114473
H	 2.8793951132	 1.0069481864	 0.0490852779	 0.088057
H	 1.6066617913	 0.8924603451	 2.2522643436	 0.04509
H	 0.1812574447	-1.6390197744	 1.5249689034	 0.083249
H	 4.3722217691	-0.7864093333	 3.9109805946	 0.114857
H	 3.5186408239	 0.811642543	 3.6377170956	 0.108472
H	 1.345741599	-0.1338306854	 4.3678809149	 0.10963
H	 2.0971143244	-1.7765704555	 4.675360894	 0.114961
85.1819	105.7116	162.7598	185.4933	262.963	305.0055	334.5149	436.5476	477.442	539.1389	719.0729	726.3932	769.8664	816.1192	834.3419	888.0619	907.2457	916.9004	943.4228	984.0408	996.4042	1003.0818	1041.9231	1059.1755	1068.9461	1086.0084	1104.1497	1111.9844	1116.6408	1131.0458	1168.5916	1174.2641	1204.2465	1212.6241	1250.0555	1255.8287	1305.0079	1321.5628	1336.5559	1389.5779	1414.3575	1441.676	1479.5043	1489.7713	1497.7954	1504.2394	1517.3065	2928.9846	3032.0112	3047.6459	3087.0986	3092.199	3096.5985	3107.8693	3119.8398	3125.18	3170.7975	3175.4117	3183.1128	3189.7696
CC1C2CC(C12)N1CC1	C[C@H]1[C@H]2C[C@@H]([C@@H]12)N1CC1	
InChI=1S/C8H13N/c1-5-6-4-7(8(5)6)9-2-3-9/h5-8H,2-4H2,1H3	InChI=1S/C8H13N/c1-5-6-4-7(8(5)6)9-2-3-9/h5-8H,2-4H2,1H3/t5-,6+,7-,8-/m0/s1
