15
gdb 69904	3.02516	1.51451	1.16241	3.5398	66.6	-0.2433	-0.0432	0.2001	1024.3441	0.109828	-457.677471	-457.669656	-457.668712	-457.70971	29.809	
O	-0.3216041662	 1.4319805664	-0.0546642785	-0.445492
C	-0.1241044504	 0.0679285188	-0.0594985653	 0.311479
C	-0.4071220961	-0.8505906205	-1.2105366114	-0.353262
C	-1.178748812	-1.0045428789	 0.0900352852	-0.152885
C	-0.3027385042	-1.6776008828	 1.1829265991	-0.023487
O	 0.9823104196	-1.9982838064	 0.6764352977	-0.255837
C	 0.7467651775	-0.6378774986	 1.0516979003	 0.230849
C	 1.5442274813	 0.0060498886	 2.1146968715	 0.049612
O	 2.2983014939	-0.5777212072	 2.8538905221	-0.260454
H	 0.3451811769	 1.8400145965	-0.620016164	 0.295694
H	-0.9938598071	-0.3833808461	-1.9952803986	 0.12459
H	 0.3021891391	-1.6032404108	-1.5315085905	 0.142498
H	-2.2523976106	-0.8995726661	 0.1557903552	 0.113041
H	-0.6375568598	-2.1952873783	 2.0739894723	 0.13253
H	 1.3696704183	 1.1001465756	 2.1919513449	 0.091123
104.3434	158.1364	184.7501	292.3199	312.3247	345.828	415.1292	449.4275	497.5058	555.1333	650.8938	737.7744	782.7538	839.1389	854.0713	900.1162	921.9294	933.7363	996.957	1008.69	1023.6259	1046.8929	1090.6689	1118.9623	1212.6142	1234.8306	1256.9211	1300.9432	1382.4093	1402.2214	1428.9207	1484.4123	1806.4791	2909.2024	3139.4811	3194.4121	3221.5291	3235.2784	3778.2477
OC12CC1C1OC21C=O	O[C@]12C[C@H]1[C@H]1O[C@@]21C=O	
InChI=1S/C6H6O3/c7-2-6-4(9-6)3-1-5(3,6)8/h2-4,8H,1H2	InChI=1S/C6H6O3/c7-2-6-4(9-6)3-1-5(3,6)8/h2-4,8H,1H2/t3-,4+,5+,6+/m0/s1
