16
gdb 25364	5.72394	1.03086	0.88334	5.4947	82.24	-0.2183	-0.0262	0.1921	1258.5618	0.126086	-400.768327	-400.760915	-400.75997	-400.800497	27.658	
O	-0.1420789274	 0.01532169	 0.2906646152	-0.297029
C	-0.0295654649	 1.217427449	 0.160081529	 0.079497
C	 1.2239949641	 1.9277086588	-0.0519525717	 0.191978
C	 2.4833933192	 1.3189173836	-0.1356131136	-0.218317
N	 3.3525941389	 2.333870162	-0.3335773044	 0.019194
C	 4.7060469693	 2.8823768972	-0.5410061512	-0.170988
C	 4.0222738209	 4.3038517077	-0.6023690202	-0.37644
C	 2.7216668276	 3.5470739981	-0.3805873724	 0.385907
C	 1.3762858779	 3.3534312383	-0.208891031	-0.475495
H	-0.9254743607	 1.8791020907	 0.1973030217	 0.055609
H	 2.7555746133	 0.2794479772	-0.0648655808	 0.154437
H	 5.3794756014	 2.7163295614	 0.303429618	 0.137527
H	 5.1784180357	 2.5432184112	-1.4662012647	 0.137528
H	 4.3255063926	 4.9855610459	 0.1960131009	 0.131903
H	 4.1256017671	 4.8134218307	-1.5634900844	 0.131902
H	 0.582440825	 4.0834660984	-0.1901641605	 0.112787
98.6554	147.0717	171.6704	245.5303	264.9105	421.7618	493.8395	630.0633	642.9119	710.0696	758.2671	790.2518	812.7043	814.0415	833.2252	919.5079	1005.3012	1038.6366	1057.0555	1083.8647	1128.4063	1140.0925	1182.6932	1186.1613	1232.1454	1271.8706	1330.2549	1393.3328	1442.8396	1462.5243	1490.9225	1492.41	1529.6928	1575.4287	1777.9363	2863.2289	3063.9109	3068.7362	3109.0352	3124.7442	3256.6006	3283.1861
O=CC1=CN2CCC2=C1	O=Cc1cn2CCc2c1	
InChI=1S/C7H7NO/c9-5-6-3-7-1-2-8(7)4-6/h3-5H,1-2H2	InChI=1S/C7H7NO/c9-5-6-3-7-1-2-8(7)4-6/h3-5H,1-2H2
