19
gdb 31516	3.17159	1.04135	0.83627	0.7584	80.55	-0.1736	0.0525	0.2262	1408.3439	0.159218	-419.240225	-419.230187	-419.229243	-419.2757	36.254	
C	 0.2166925613	 1.5332191284	 0.2007796318	-0.363416
C	-0.0966404957	 0.0573532848	-0.107722083	-0.298886
C	 0.5866206301	-0.4659485596	-1.3318675732	 0.331155
C	 0.0766708301	-0.7872100996	-2.577709902	-0.383325
C	 1.1657744128	-1.2112466974	-3.3870093686	 0.279754
O	 1.151708815	-1.6309613538	-4.6912634233	-0.458646
C	 2.3165931947	-1.1441479823	-2.6323146781	 0.157985
N	 3.6720819118	-1.4429823227	-2.8943603452	-0.616544
N	 1.9356262076	-0.6851750754	-1.3822147186	-0.315473
H	 1.2886074721	 1.6870998295	 0.3633955463	 0.110708
H	-0.0857498321	 2.1755958081	-0.6316166305	 0.123266
H	-0.3091357832	 1.8657832851	 1.1017346805	 0.109732
H	 0.1690149368	-0.5559011817	 0.7647311076	 0.100786
H	-1.1761311708	-0.0639410926	-0.2447851185	 0.110798
H	-0.9628815077	-0.7234940454	-2.8669140349	 0.08038
H	 0.2446704689	-1.599521808	-5.0069759743	 0.293291
H	 4.034840788	-0.8786762738	-3.6570183478	 0.242473
H	 3.7897274622	-2.4127036687	-3.1727118619	 0.242577
H	 2.591718898	-0.5535609448	-0.6315414364	 0.253386
38.2429	92.0641	118.7335	195.6476	197.4536	241.8604	260.0067	282.7295	305.7086	382.3778	471.1114	510.0889	585.1213	660.6462	672.3584	697.0486	749.9637	782.9113	791.8031	846.7143	949.7789	1028.2922	1066.3591	1081.1297	1116.7124	1177.6056	1216.6328	1239.8515	1280.5535	1285.116	1347.7875	1362.485	1407.2972	1461.0087	1481.7736	1495.8301	1502.6916	1504.8009	1547.8245	1658.9563	1684.9593	3008.0726	3033.4426	3070.3708	3102.5561	3112.4422	3224.9271	3487.9246	3544.0688	3675.3099	3849.5259
CCC1=CC(O)=C(N)N1	CCc1cc(O)c(N)[nH]1	
InChI=1S/C6H10N2O/c1-2-4-3-5(9)6(7)8-4/h3,8-9H,2,7H2,1H3	InChI=1S/C6H10N2O/c1-2-4-3-5(9)6(7)8-4/h3,8-9H,2,7H2,1H3
