21
gdb 101919	1.9187	1.29433	0.93195	2.2243	79.08	-0.2426	-0.0159	0.2267	1363.1846	0.179246	-424.227732	-424.217184	-424.21624	-424.264616	36.882	
C	-0.1679324651	 1.5899326227	 0.0566847197	-0.391903
C	-0.0925975825	 0.0614486314	-0.0032726801	-0.18162
C	-1.4753624766	-0.639060054	-0.0350265981	-0.131436
C	-2.2336940809	-0.3546125699	-1.3170320649	 0.106541
C	-3.6985662262	-0.2705263876	-1.3536720569	-0.185848
O	-2.8937337023	 0.9094698936	-1.4128921843	-0.241677
C	-1.2487983522	-2.1478480626	 0.1013857401	 0.391498
C	-1.3989374299	-2.7386235752	 1.4896844243	-0.483504
O	-0.9443233837	-2.822030062	-0.8569222455	-0.315258
H	 0.8383868462	 2.0195659091	 0.0856123908	 0.11194
H	-0.6927380433	 2.0023662478	-0.8076369688	 0.147333
H	-0.7002164674	 1.9234586257	 0.9539591379	 0.114563
H	 0.4698229882	-0.2597853819	-0.8880789125	 0.11805
H	 0.470743994	-0.3075340958	 0.8636619431	 0.096265
H	-2.0706638669	-0.2771093987	 0.8123242151	 0.078161
H	-1.7202604254	-0.6674342895	-2.2249759631	 0.112266
H	-4.2333796743	-0.5196366903	-2.2685774307	 0.119687
H	-4.269603484	-0.3976998533	-0.4342376988	 0.109243
H	-0.8265553935	-2.1603696554	 2.2232254005	 0.139721
H	-2.4502405215	-2.6840904522	 1.7976140781	 0.142951
H	-1.0732276629	-3.7794832418	 1.493743094	 0.143028
32.1474	65.4189	92.4336	142.5814	164.6771	167.8376	196.1558	268.3838	325.7197	359.4254	390.2146	470.8336	590.8534	595.5838	763.964	843.9502	849.3972	886.3249	908.0237	955.6166	968.1276	1011.2684	1027.3113	1064.9252	1106.3819	1122.1972	1150.6238	1164.6665	1172.0351	1194.0652	1270.8155	1287.6026	1311.8886	1340.2229	1366.289	1382.3167	1417.2209	1442.2054	1461.1337	1473.9789	1487.6448	1496.3004	1504.8475	1530.4718	1804.7033	3019.9469	3031.5095	3036.1006	3039.3311	3063.0305	3082.1072	3093.699	3102.0893	3128.7078	3132.9117	3151.7427	3169.7511
CCC(C1CO1)C(C)=O	CC[C@@H]([C@H]1CO1)C(=O)C	
InChI=1S/C7H12O2/c1-3-6(5(2)8)7-4-9-7/h6-7H,3-4H2,1-2H3	InChI=1S/C7H12O2/c1-3-6(5(2)8)7-4-9-7/h6-7H,3-4H2,1-2H3/t6-,7-/m1/s1
