16
gdb 54203	2.72981	1.53186	1.27287	4.544	64.61	-0.2375	0.0181	0.2556	1012.0895	0.122781	-475.003687	-474.995298	-474.994354	-475.036705	32.015	
N	 0.1227886967	 1.0507935947	 0.7815518175	-0.53328
C	 0.1115377205	 0.0177104798	-0.1066229553	 0.380375
O	 1.0805334174	-0.3456105026	-0.7416582164	-0.357228
C	-1.228290386	-0.7159759648	-0.1895525633	 0.273415
O	-2.2665557653	 0.2015602055	 0.1096497797	-0.48906
C	-1.4726305593	-1.5866474359	-1.4704548587	-0.303659
C	-1.6388094983	-2.8114006579	-0.554329387	 0.019095
O	-0.4100824698	-2.965882065	 0.1624387348	-0.211868
C	-1.3462739914	-2.0202892109	 0.6549483724	-0.058524
H	 0.948513408	 1.6262579373	 0.8148028504	 0.259435
H	-0.7515138768	 1.4228525954	 1.1123140898	 0.269517
H	-3.0886196651	-0.2905457101	 0.2153337723	 0.285921
H	-2.3888457243	-1.274764633	-1.9782286975	 0.104746
H	-0.6394786986	-1.6431578351	-2.1707591915	 0.144846
H	-2.2481771891	-3.6974800312	-0.6868827013	 0.110137
H	-1.6713968487	-2.100600566	 1.6876774044	 0.106132
58.6378	130.3085	204.679	283.4653	308.6074	352.9786	394.0875	398.2025	450.8611	466.4214	544.8004	603.6351	655.238	761.455	794.6063	836.4744	860.9424	893.9896	953.1809	987.4833	1023.489	1048.5369	1065.4479	1098.5398	1138.5236	1173.8098	1220.1362	1242.219	1261.0945	1300.4332	1374.3663	1426.919	1460.1193	1601.9143	1806.0226	3076.1283	3152.2872	3166.9761	3194.183	3596.0293	3731.6655	3795.5584
NC(=O)C1(O)CC2OC12	NC(=O)[C@@]1(O)C[C@H]2O[C@@H]12	
InChI=1S/C5H7NO3/c6-4(7)5(8)1-2-3(5)9-2/h2-3,8H,1H2,(H2,6,7)	InChI=1S/C5H7NO3/c6-4(7)5(8)1-2-3(5)9-2/h2-3,8H,1H2,(H2,6,7)/t2-,3-,5-/m1/s1
