19
gdb 96438	1.90288	1.7696	1.11709	4.2552	71.26	-0.2424	-0.0209	0.2216	1126.7101	0.159121	-460.172175	-460.163472	-460.162527	-460.205791	32.471	
O	 0.1211075544	 1.4536712667	 0.0538633158	-0.439648
C	 0.1007368664	 0.0331161294	 0.0471281822	 0.105142
C	 0.8197075858	-0.5907482949	 1.2475785913	-0.245386
C	 0.6151904457	-2.1101363282	 1.2358892631	-0.072753
O	-0.7584327904	-2.4446742251	 1.2433400476	-0.24171
C	-1.4492764484	-1.9486853622	 0.1099565002	-0.092574
C	-1.3674948493	-0.4182080634	 0.0217954178	-0.120761
C	-2.223132027	 0.2491913184	 1.098733666	 0.160914
O	-3.218124151	-0.2502692942	 1.559904126	-0.256431
H	 1.033572606	 1.741481596	 0.1598737278	 0.28512
H	 0.5796603338	-0.34408068	-0.8727723885	 0.070282
H	 1.8918519541	-0.3569304683	 1.2182069491	 0.089867
H	 0.4129479779	-0.1730238712	 2.1762594345	 0.11836
H	 1.1111556857	-2.547851726	 0.3513351834	 0.086529
H	 1.0507705992	-2.5722800637	 2.1258119082	 0.114756
H	-1.0443434806	-2.3981801443	-0.811988981	 0.08575
H	-2.4903076915	-2.2537244822	 0.2274584311	 0.135615
H	-1.8044872657	-0.0889027772	-0.9330233202	 0.111754
H	-1.8896991651	 1.2604783904	 1.4040054457	 0.105172
60.7653	130.0387	167.1963	221.8388	268.0321	275.8799	351.9514	366.7685	414.753	475.8383	559.2537	593.7797	704.9253	790.3346	868.2809	874.1579	896.1923	951.6011	1017.4909	1028.5224	1033.3344	1093.7585	1125.074	1146.5308	1151.7091	1208.1468	1241.5621	1255.4826	1279.2292	1311.0352	1338.781	1357.6285	1377.4437	1397.837	1415.3517	1418.5833	1438.7583	1483.0684	1485.0562	1501.1475	1822.8033	2942.9063	2945.5227	2952.7051	2970.3228	3008.8903	3022.8749	3072.6008	3091.3992	3122.6815	3816.1803
OC1CCOCC1C=O	O[C@H]1CCOC[C@H]1C=O	
InChI=1S/C6H10O3/c7-3-5-4-9-2-1-6(5)8/h3,5-6,8H,1-2,4H2	InChI=1S/C6H10O3/c7-3-5-4-9-2-1-6(5)8/h3,5-6,8H,1-2,4H2/t5-,6+/m1/s1
