15
gdb 129101	5.03784	1.27846	1.02766	0.3662	73.67	-0.1988	0.0047	0.2035	1081.3345	0.116823	-413.008516	-413.001574	-413.00063	-413.039817	27.144	
N	-0.1052910546	 1.2620180038	-0.0821567776	-0.538655
C	-0.0017355594	-0.0001376802	 0.0075645313	 0.382658
C	-1.2359441599	-0.9381753567	 0.033146138	-0.429264
C	-0.5732173583	-2.2762462976	-0.0239788776	 0.340187
C	 0.7927335991	-2.1523021492	 0.0026145844	 0.253098
N	 1.1513756173	-0.7953048804	 0.1027271191	-0.462016
C	 1.3043420603	-3.4593817924	-0.01344745	-0.138614
N	 0.2959668795	-4.3433049872	-0.0546340058	-0.225114
N	-0.8332699214	-3.6029220238	-0.0481071033	-0.325758
H	 0.8080527496	 1.719234206	-0.081909951	 0.206728
H	-1.8104802388	-0.7649176304	 0.9499148102	 0.15037
H	-1.8927717764	-0.7037810485	-0.8097625672	 0.150249
H	 2.0439335692	-0.4339080366	-0.1913906928	 0.25028
H	 2.3233696307	-3.8136218143	-0.0073616988	 0.111104
H	-1.7193749268	-4.0769761825	-0.0792171389	 0.274746
103.3935	201.9766	303.3476	336.7861	357.1419	489.2786	526.1904	539.7618	555.0225	678.0933	694.7958	743.3322	832.4817	843.6297	851.3613	855.1214	963.6675	982.3897	1077.1842	1106.456	1152.0705	1157.5983	1227.2495	1244.615	1310.1191	1334.6143	1342.5798	1409.2613	1457.2928	1482.2066	1580.6062	1611.1464	1749.5644	3049.4385	3088.044	3257.0106	3458.6605	3647.051	3678.6998
N=C1CC2=C(N1)C=NN2	[NH][C]1Cc2c(N1)cn[nH]2	
InChI=1S/C5H6N4/c6-5-1-3-4(8-5)2-7-9-3/h2H,1H2,(H2,6,8)(H,7,9)	InChI=1S/C5H6N4/c6-5-1-3-4(8-5)2-7-9-3/h2H,1H2,(H2,6,8)(H,7,9)
