16
gdb 65293	2.81769	1.3205	1.06746	3.243	69.77	-0.2707	-0.0062	0.2645	1134.2945	0.12213	-437.852299	-437.843665	-437.842721	-437.88582	31.028	
C	-0.0600029698	 1.5374311521	-0.0154041119	-0.471841
C	-0.0566464931	 0.0298943688	 0.0809864478	 0.137807
O	 1.203236251	-0.6324461215	-0.1625470356	-0.283038
C	 0.6726470634	-0.6931824884	 1.1391273965	 0.317525
C	 1.347096432	-0.1927478043	 2.4124422111	-0.156405
O	 0.9060393167	-1.3767864968	 3.1089290539	-0.269572
C	 0.3449336248	-1.9644410466	 1.912051144	-0.16225
C	-1.2021210209	-0.6409551318	-0.5127844747	 0.268461
N	-2.1321161218	-1.1593506913	-0.9624574068	-0.330691
H	 0.8247520014	 1.9433363646	 0.4795215194	 0.142446
H	-0.0498479121	 1.8520751582	-1.0625536119	 0.155317
H	-0.9556043693	 1.9497186395	 0.4585014323	 0.149597
H	 2.44006951	-0.1268924777	 2.3398628315	 0.124401
H	 0.950603004	 0.7270712594	 2.8582516974	 0.118043
H	-0.7154248744	-2.2158777217	 2.0230358519	 0.132703
H	 0.9026269381	-2.8462763925	 1.5743607653	 0.127496
91.5926	119.6208	148.1977	184.2184	210.2772	241.5372	366.0891	399.3175	451.1557	500.1937	584.663	624.3006	671.6246	833.57	896.7689	904.0354	940.6192	993.5334	1025.6061	1074.6164	1122.0391	1124.6357	1142.0243	1146.2208	1176.0436	1223.3152	1300.4716	1347.3556	1413.3365	1471.1606	1483.7052	1497.5417	1509.3006	1523.7844	2357.5171	3016.3763	3031.2148	3050.5758	3066.7893	3081.5132	3123.7148	3138.7556
CC1(OC11COC1)C#N	C[C@]1(OC21COC2)C#N	
InChI=1S/C6H7NO2/c1-5(2-7)6(9-5)3-8-4-6/h3-4H2,1H3	InChI=1S/C6H7NO2/c1-5(2-7)6(9-5)3-8-4-6/h3-4H2,1H3/t5-/m0/s1
