20
gdb 82179	2.81982	1.62506	1.27534	3.0745	78.02	-0.2365	0.0727	0.3092	1067.7966	0.171119	-403.116626	-403.108383	-403.107439	-403.148894	32.643	
C	 0.1475289254	 1.5905076338	 0.022231094	-0.392517
C	 0.0105566256	 0.0649229227	-0.0170130208	-0.019521
C	 0.6507717869	-0.5928132113	-1.2489956461	-0.054992
N	 2.0996651157	-0.3613858407	-1.3992253897	-0.314877
C	 1.6205534645	-1.6311535431	-0.8129831338	-0.136112
C	 1.6282970711	-1.6599107672	 0.7115074626	 0.445837
C	 1.9804953408	-2.930776031	 1.433216341	-0.500437
O	 2.0772512277	-0.4329933859	 1.3006072829	-0.280175
C	 0.6653830056	-0.6419197143	 1.1727783999	-0.046312
H	 1.2050730431	 1.8624644815	 0.0196383341	 0.154122
H	-0.3316473672	 2.0509370908	-0.8478660834	 0.106415
H	-0.3187448772	 2.0065488314	 0.9212304081	 0.10871
H	-1.0528777062	-0.2108493128	-0.0118546864	 0.071583
H	 0.0498501676	-0.706828314	-2.1467748182	 0.083237
H	 2.3591651479	-0.5276436938	-2.3694925559	 0.228799
H	 1.7698262821	-2.5601374344	-1.3533707981	 0.081006
H	 3.0299282769	-3.195564189	 1.2625107413	 0.130671
H	 1.8297715916	-2.8162238109	 2.509409108	 0.130589
H	 1.3622446689	-3.7638482777	 1.0809439486	 0.119673
H	 0.125709839	-0.7154260141	 2.1165763721	 0.084302
137.2974	189.6795	196.3485	216.1686	244.0441	299.5936	357.5421	445.0489	522.7085	566.2585	596.1815	690.8762	747.2159	802.3042	839.9915	869.5645	874.3626	901.2894	912.4006	945.7662	1002.1863	1032.2364	1055.0056	1056.4917	1107.3001	1128.8696	1134.6084	1152.9211	1172.0972	1222.4514	1243.0407	1295.4305	1326.1972	1337.6671	1365.0942	1398.3928	1410.9224	1425.899	1459.6176	1485.4498	1494.7942	1496.8595	1503.4226	3017.6512	3032.6548	3038.2965	3093.6116	3099.2469	3113.5783	3122.6378	3136.373	3144.185	3166.4581	3486.2453
CC1C2NC2C2(C)OC12	C[C@H]1[C@H]2N[C@H]2[C@@]2(C)O[C@@H]12	
InChI=1S/C7H11NO/c1-3-4-5(8-4)7(2)6(3)9-7/h3-6,8H,1-2H3	InChI=1S/C7H11NO/c1-3-4-5(8-4)7(2)6(3)9-7/h3-6,8H,1-2H3/t3-,4+,5+,6-,7+/m0/s1
