25
gdb 57401	2.84577	1.1901	1.17292	0.0569	92.53	-0.2859	0.0816	0.3675	1265.617	0.228933	-352.305116	-352.29575	-352.294806	-352.338691	37.706	
C	-0.3501268131	 1.5523318149	 0.1059881986	-0.406573
C	-0.0295953606	 0.0436700743	 0.0778396576	 0.239063
C	 0.7975233964	-0.3418013797	 1.3215762583	-0.40657
C	-1.3693276677	-0.7208704443	 0.1513907163	-0.411874
C	 0.6736786669	-0.3825394842	-1.2502590145	 0.041543
C	 1.3306397459	 0.6189900374	-2.2630207782	-0.058894
C	 2.5631414708	 0.7198509097	-1.3167338884	-0.215347
C	 2.1845010009	-0.7899706059	-1.3587102059	-0.058894
C	 2.0298066995	-0.6173779592	-2.8966209766	-0.231445
H	 0.549912777	 2.1723121441	 0.1053013921	 0.112247
H	-0.9546794499	 1.8418225674	-0.7600709301	 0.10929
H	-0.922049337	 1.8031012958	 1.006701873	 0.103966
H	 0.2387061915	-0.1126942527	 2.2361799764	 0.103968
H	 1.018296092	-1.4144341412	 1.3296701531	 0.10929
H	 1.7487029103	 0.1937732933	 1.3750790098	 0.112245
H	-2.009563268	-0.4771158689	-0.7035531454	 0.108423
H	-1.2055452268	-1.8041111649	 0.1479412593	 0.108424
H	-1.9178001896	-0.466953112	 1.0649949569	 0.103667
H	 0.0295018871	-1.1038951742	-1.7659421611	 0.056153
H	 0.8395045084	 1.4356942868	-2.7948860927	 0.0659
H	 3.5119255105	 0.9912139419	-1.7897944554	 0.0847
H	 2.4406043188	 1.2506189399	-0.3740807994	 0.092606
H	 2.6850319635	-1.6096266745	-0.8403153138	 0.0659
H	 1.3896578609	-1.3374413859	-3.4140787321	 0.086535
H	 2.9482551223	-0.4197650578	-3.4559399781	 0.085678
57.9803	189.2182	205.548	214.1352	248.3255	303.4327	324.0853	340.374	351.2908	398.8899	443.8537	543.3902	592.1243	770.2276	788.7424	809.0974	866.8269	880.6495	899.3165	905.5693	930.6071	934.0149	957.7914	997.663	1011.9096	1028.3856	1035.3193	1046.5681	1065.062	1090.3524	1113.4171	1138.362	1142.075	1189.9926	1217.2285	1221.4359	1231.3519	1247.7328	1259.7579	1264.3001	1276.0101	1396.5404	1402.5456	1419.5486	1447.2394	1480.8779	1484.7865	1485.9374	1497.6569	1506.7143	1508.1669	1517.4773	1548.1664	3020.2852	3025.7056	3028.1808	3035.009	3046.3205	3056.6632	3086.9265	3088.9597	3091.5787	3094.5957	3097.2122	3098.4404	3111.7752	3114.5172	3116.3725	3149.2333
CC(C)(C)C1C2CC1C2	CC(C)(C)[C@H]1[C@H]2C[C@@H]1C2	
InChI=1S/C9H16/c1-9(2,3)8-6-4-7(8)5-6/h6-8H,4-5H2,1-3H3	InChI=1S/C9H16/c1-9(2,3)8-6-4-7(8)5-6/h6-8H,4-5H2,1-3H3/t6-,7+,8-
