17
gdb 97308	3.48616	1.09858	0.84405	2.7709	81.93	-0.2397	-0.0459	0.1938	1339.9424	0.136687	-418.060954	-418.052627	-418.051683	-418.0942	30.385	
C	 0.1675339128	 1.556030801	 0.7265265396	-0.310342
N	 0.2599817627	 0.1796707937	 1.1694819407	-0.248907
C	 0.3218899007	-0.7155232012	 0.2741418534	 0.106108
N	 0.4118923334	-2.0539180346	 0.5978817353	-0.138986
C	 0.4440786253	-2.5620407162	 1.9556154514	-0.209474
C	 0.544283753	-4.0468311135	 1.7408523412	-0.083848
C	 0.5656412828	-4.3368929239	 0.4382057014	-0.194751
C	 0.4827532403	-3.0824019483	-0.3539959614	 0.424409
O	 0.4737136038	-2.9281641008	-1.555007545	-0.380123
H	 0.1614197959	 1.672010556	-0.368763818	 0.103072
H	-0.7457412295	 2.0113967403	 1.1273418919	 0.126415
H	 1.009858649	 2.1302041251	 1.1301261118	 0.126415
H	 0.3122880876	-0.549400835	-0.8083927854	 0.126712
H	 1.2976709149	-2.1549049742	 2.5119370662	 0.146459
H	-0.4579903253	-2.2730199618	 2.5093425758	 0.146486
H	 0.5899348635	-4.7445847496	 2.5666708244	 0.128604
H	 0.6313577691	-5.3056377271	-0.0351483132	 0.13175
86.1395	141.0625	154.0633	212.4233	219.514	342.1199	357.1512	375.2434	400.6083	590.1869	672.0842	683.352	767.7646	822.7537	884.6034	958.7749	969.1901	1005.728	1013.9614	1017.931	1079.899	1138.7612	1142.0838	1152.5258	1189.5882	1239.0542	1333.2737	1354.6235	1380.4743	1417.6634	1449.4304	1480.7515	1489.7121	1504.2919	1653.0585	1747.5214	1815.2916	2977.5809	3032.5438	3057.7263	3058.3699	3072.8755	3079.8376	3222.1452	3254.9987
CN=CN1CC=CC1=O	CN=CN1CC=CC1=O	
InChI=1S/C6H8N2O/c1-7-5-8-4-2-3-6(8)9/h2-3,5H,4H2,1H3	InChI=1S/C6H8N2O/c1-7-5-8-4-2-3-6(8)9/h2-3,5H,4H2,1H3
