17
gdb 127800	3.10496	1.46478	1.05713	5.1544	75.68	-0.2252	0.0103	0.2356	1115.1586	0.137331	-414.152632	-414.144493	-414.143549	-414.186122	29.343	
C	 0.4880907309	 1.2373085337	 0.2634660718	-0.332629
N	 0.0386263417	-0.1242079971	 0.0770099594	-0.007909
N	 0.1584524545	-0.7397820466	-1.126405832	-0.158206
N	-0.3464623887	-1.9317541586	-1.0071097985	-0.188636
C	-0.7898886865	-2.1091621476	 0.2670351696	-0.149039
C	-0.5456546177	-0.9529494925	 0.9797294551	 0.353206
N	-0.8425277995	-0.5194721981	 2.2709685021	-0.172089
C	-0.9762232321	-1.5218971909	 3.3210736632	-0.222758
C	 0.1981485787	-0.6090648155	 3.3119576203	-0.231952
H	 1.385432174	 1.2769531897	 0.8892028769	 0.139686
H	 0.7175859632	 1.640067098	-0.7228552363	 0.167307
H	-0.3000301611	 1.8284294405	 0.736560903	 0.153592
H	-1.2647300662	-3.02248719	 0.5851970358	 0.116091
H	-1.7949833342	-1.3550808564	 4.013594233	 0.132582
H	-0.7976808873	-2.5604278067	 3.0551568981	 0.135431
H	 1.1564970572	-1.0345737295	 3.0262692513	 0.133955
H	 0.242688863	 0.2376498476	 3.9890600372	 0.131367
52.1242	113.0044	161.4894	178.3337	210.6664	309.5002	398.4074	510.3169	569.4682	704.6556	724.3112	732.717	812.8347	825.3203	885.8013	922.024	984.195	1027.6239	1041.1991	1112.7957	1134.5332	1140.8337	1153.7242	1165.6144	1177.846	1200.4219	1272.7586	1295.1659	1311.5466	1378.2401	1438.7765	1480.2737	1487.5557	1497.9295	1506.9779	1515.3528	1599.3357	3046.033	3112.533	3115.3046	3119.2419	3164.6781	3202.0494	3216.2044	3271.5416
CN1N=NC=C1N1CC1	Cn1nncc1N1CC1	
InChI=1S/C5H8N4/c1-8-5(4-6-7-8)9-2-3-9/h4H,2-3H2,1H3	InChI=1S/C5H8N4/c1-8-5(4-6-7-8)9-2-3-9/h4H,2-3H2,1H3
