22
gdb 123180	7.29924	0.46065	0.44758	3.7846	81.04	-0.2443	0.0749	0.3193	2427.6378	0.192751	-441.435225	-441.42451	-441.423565	-441.472971	36.835	
O	-0.2005823516	 1.3713327993	 0.3445007844	-0.418694
C	-0.0460759801	-0.0142631393	 0.0810772583	-0.071996
C	-1.4269177323	-0.653575789	 0.1434924558	-0.18216
C	-1.3931807062	-2.1508341277	-0.1274438674	-0.051295
O	-2.7104162212	-2.6507109892	-0.0398774086	-0.244755
C	-2.7986651085	-4.0377213371	-0.284533361	-0.078865
C	-4.2429144822	-4.4535424704	-0.2306749439	 0.017919
C	-4.591820767	-5.8098595729	 0.2605101931	-0.246924
N	-4.9195246123	-4.6210396195	 1.0625526713	-0.303667
H	 0.6673997404	 1.7832171687	 0.3066005893	 0.285756
H	 0.4014312428	-0.1830958682	-0.9126516847	 0.084596
H	 0.6206738795	-0.4882972305	 0.8206586405	 0.084277
H	-1.8618526692	-0.4742006386	 1.1322891927	 0.117905
H	-2.0815458893	-0.1676366278	-0.5874806934	 0.118113
H	-0.9729468059	-2.3560874055	-1.1280613505	 0.083824
H	-0.7408042008	-2.6629271968	 0.6024148748	 0.08177
H	-2.3707789361	-4.2813975683	-1.2730920727	 0.0897
H	-2.2166416619	-4.602207715	 0.4671270228	 0.074616
H	-4.8697547794	-3.9932518478	-0.991180496	 0.099466
H	-5.4471536242	-6.3350568814	-0.1543421695	 0.120627
H	-3.7809076153	-6.4574506213	 0.5861730841	 0.108614
H	-4.2470396292	-4.5092527816	 1.8181185907	 0.231174
39.5025	50.7237	82.0432	97.4005	126.2199	151.9696	203.1052	266.9224	281.7456	344.4118	411.9436	509.177	525.007	778.1709	808.6617	837.5548	889.3418	933.2716	943.7406	1000.1354	1017.7585	1041.3131	1056.8637	1071.9769	1105.5764	1130.0263	1152.9111	1162.0167	1177.3624	1214.6236	1235.025	1244.6135	1251.9786	1278.6982	1303.434	1305.9533	1313.4489	1318.0932	1370.3967	1422.0988	1464.0293	1466.8649	1497.0539	1504.2399	1514.7902	1525.7612	1536.064	2929.3356	2942.0448	2956.0867	2961.224	2964.799	2979.4256	3052.6705	3099.0586	3106.2046	3136.9809	3191.0669	3493.1171	3831.6768
OCCCOCC1CN1	OCCCOC[C@H]1CN1	
InChI=1S/C6H13NO2/c8-2-1-3-9-5-6-4-7-6/h6-8H,1-5H2	InChI=1S/C6H13NO2/c8-2-1-3-9-5-6-4-7-6/h6-8H,1-5H2/t6-/m1/s1
