21
gdb 70362	2.62763	1.76226	1.36527	1.7444	80.88	-0.2495	0.085	0.3344	1037.4518	0.183956	-387.086128	-387.078309	-387.077364	-387.118005	31.723	
C	-0.3607003493	 1.3193523187	 0.2376207724	-0.491059
C	 0.1481216139	-0.0721611022	-0.0250967313	 0.408536
O	-0.3031406736	-1.0872452344	 0.8985399412	-0.300541
C	 1.1017871447	-0.7975912384	 0.837547023	-0.006578
C	 1.8936623112	-1.8122701332	 0.0365585751	-0.26686
C	 1.1971825011	-1.8514399787	-1.3407208587	-0.004847
C	-0.0458965206	-2.7702485571	-1.543542668	-0.218948
C	-0.8991736075	-1.5267855195	-1.9249690252	-0.222161
C	 0.259822658	-0.6019971992	-1.4476785523	-0.089404
H	 0.2633231347	 2.0640482202	-0.267925686	 0.119672
H	-1.3848429522	 1.4336364468	-0.1350664272	 0.127539
H	-0.3652331088	 1.5333308374	 1.30941819	 0.127566
H	 1.519552424	-0.3598859843	 1.742941839	 0.083963
H	 2.9332028958	-1.4723383641	-0.0491141933	 0.097556
H	 1.9117072809	-2.7937603223	 0.5238302537	 0.108971
H	 1.9160881203	-1.9442411954	-2.1574579592	 0.066582
H	 0.0534948036	-3.5393155865	-2.3139508503	 0.087331
H	-0.3767466526	-3.2385147988	-0.6154048982	 0.113501
H	-1.0798179468	-1.4453974301	-2.9997508927	 0.094047
H	-1.8503834664	-1.4119990621	-1.4008674325	 0.104812
H	 0.5565315195	 0.1989778133	-2.1309252494	 0.060322
129.497	187.5766	210.5573	231.7077	295.7817	356.1291	430.7217	487.5076	579.666	676.6329	681.7461	728.3983	763.837	813.1378	863.5133	874.29	880.507	948.5728	953.6443	963.9277	999.5274	1025.3789	1028.8172	1066.2049	1084.6397	1114.3223	1137.1052	1184.7294	1217.3522	1227.2983	1230.2099	1256.3966	1266.1231	1277.7603	1298.9626	1317.4727	1345.6609	1350.3502	1410.2825	1449.7649	1469.7083	1476.1171	1485.4481	1488.8064	1497.8645	3029.3481	3032.9653	3056.6083	3062.0936	3065.8373	3071.0206	3083.8836	3094.5165	3110.1638	3120.4944	3124.9769	3131.6564
CC12OC1CC1CCC21	C[C@]12O[C@H]1C[C@H]1CC[C@@H]21	
InChI=1S/C8H12O/c1-8-6-3-2-5(6)4-7(8)9-8/h5-7H,2-4H2,1H3	InChI=1S/C8H12O/c1-8-6-3-2-5(6)4-7(8)9-8/h5-7H,2-4H2,1H3/t5-,6-,7+,8-/m1/s1
