21
gdb 81221	2.49535	1.81484	1.41921	1.817	82.03	-0.2441	0.073	0.3171	1017.9925	0.184758	-387.025862	-387.018454	-387.01751	-387.057186	30.916	
C	-0.1190118992	 1.5551887454	-0.0011877541	-0.445204
C	 0.0353799281	 0.0384182692	 0.0088331578	 0.049429
C	 1.1643211042	-0.6092283162	-0.8442328941	-0.032216
C	 2.1492855295	-0.2451875779	 0.3500820918	-0.355026
C	 0.8742286466	-0.5810623046	 1.164874521	 0.279236
C	 0.1492313568	-0.9188667558	 2.479778688	-0.223451
O	-0.3908322919	-2.1192070602	 1.830893358	-0.315054
C	 0.7354447863	-2.0671002087	 0.8997432915	 0.152643
C	 0.7741030134	-2.110545863	-0.6501725355	-0.292644
H	 0.8248760565	 2.0912672203	 0.1279543234	 0.11643
H	-0.5603865121	 1.8875354029	-0.947124928	 0.116685
H	-0.7921934635	 1.8772900906	 0.8012872577	 0.117382
H	-0.9498204163	-0.4196743205	-0.1252783508	 0.074279
H	 1.3855726023	-0.2719020263	-1.8582738848	 0.063323
H	 3.0226340218	-0.8825289538	 0.5141826234	 0.096458
H	 2.4577221417	 0.7992401127	 0.3175161018	 0.106746
H	 0.798575455	-1.1885052839	 3.3232449704	 0.101203
H	-0.6438093322	-0.2437714685	 2.8150715777	 0.107891
H	 1.5495753398	-2.6685795408	 1.3280482121	 0.069038
H	-0.1824519814	-2.3347205467	-1.1289655991	 0.116338
H	 1.5177052248	-2.8242289642	-1.014689228	 0.096514
181.5342	193.6183	233.4934	302.4464	343.1425	407.2797	432.3679	515.4896	567.5428	643.9308	739.924	782.9557	799.8368	817.1398	875.8113	892.1318	914.26	941.3747	974.4299	988.2243	1013.2707	1055.9801	1059.571	1074.15	1096.4087	1106.6092	1142.6287	1157.7898	1187.0792	1191.1267	1206.1642	1225.1696	1260.8695	1270.1503	1294.1319	1299.6626	1328.4908	1391.4647	1403.3923	1416.0122	1487.9689	1496.0314	1498.6941	1509.6506	1519.7896	2991.6744	3014.4559	3032.4874	3050.9417	3062.5817	3067.0818	3085.0974	3088.8551	3103.3909	3110.606	3112.9998	3140.0128
CC1C2CC11COC1C2	C[C@H]1[C@H]2C[C@]31CO[C@H]3C2	
InChI=1S/C8H12O/c1-5-6-2-7-8(5,3-6)4-9-7/h5-7H,2-4H2,1H3	InChI=1S/C8H12O/c1-5-6-2-7-8(5,3-6)4-9-7/h5-7H,2-4H2,1H3/t5-,6+,7-,8+/m0/s1
