19
gdb 127154	4.31644	0.92328	0.86348	0.5713	78.11	-0.2134	-0.0053	0.2081	1393.9015	0.160885	-415.375073	-415.366215	-415.365271	-415.409817	31.9	
C	-0.0326748848	 1.4690264858	-0.0347217678	-0.31263
N	 0.0374590858	 0.0186394587	 0.0226009582	-0.042816
C	 0.8621647658	-0.4309482018	 1.1318791036	-0.319453
C	-1.2982502989	-0.5757261716	 0.0352856992	-0.263186
C	-1.2933784892	-2.0581276699	-0.1896768387	 0.310249
N	-1.0861778727	-2.5941689286	-1.3982022604	-0.253493
N	-1.171734443	-3.8961497878	-1.1740433233	-0.070151
N	-1.422618095	-4.2758858779	 0.0711600185	-0.196651
C	-1.5054480719	-3.1124578626	 0.718340817	-0.12522
H	 0.9778122514	 1.8822847237	-0.1113921534	 0.118565
H	-0.5955440744	 1.7804854633	-0.9203378875	 0.118937
H	-0.5158071137	 1.9214715976	 0.8539789093	 0.088154
H	 0.4600927149	-0.1320435467	 2.1207281402	 0.084643
H	 0.9511015644	-1.5202954509	 1.1180821321	 0.126473
H	 1.8666048675	-0.0076801948	 1.0357870481	 0.119198
H	-1.8332897087	-0.3672756053	 0.9836076608	 0.081473
H	-1.8759680364	-0.1041444005	-0.7661046045	 0.119809
H	-1.0607921601	-4.5671915326	-1.9171786948	 0.292963
H	-1.709426541	-3.0797492882	 1.7770305033	 0.123135
31.0111	76.5428	119.0524	251.6839	254.0625	315.8681	328.7388	353.0354	368.4949	469.9513	544.5464	698.3738	726.7494	804.4914	855.0755	892.9185	975.6473	997.4092	1028.2599	1055.5475	1069.208	1120.9906	1155.6453	1171.5365	1202.2658	1212.7382	1249.424	1299.0187	1309.6443	1353.3036	1399.9836	1407.5762	1441.8107	1468.8502	1480.4885	1484.0166	1492.2628	1499.8494	1500.0938	1512.9179	1563.7596	2901.1819	2906.2184	2918.7844	3058.928	3068.5552	3070.8812	3104.5826	3116.1472	3266.6669	3665.7638
CN(C)CC1=NNN=C1	CN(C)Cc1n[nH]nc1	
InChI=1S/C5H10N4/c1-9(2)4-5-3-6-8-7-5/h3H,4H2,1-2H3,(H,6,7,8)	InChI=1S/C5H10N4/c1-9(2)4-5-3-6-8-7-5/h3H,4H2,1-2H3,(H,6,7,8)
