17
gdb 41300	3.70484	1.73463	1.63373	2.3067	70.11	-0.2253	0.0715	0.2969	864.9833	0.138265	-421.722207	-421.71631	-421.715366	-421.752111	25.604	
C	 0.019685506	 1.471808549	 0.217683411	-0.141417
O	 1.4131751557	 1.5892714947	-0.2418630497	-0.353768
C	 1.2791481771	 0.2863943165	-0.7859578377	 0.428142
C	 2.1083528649	-0.9780568411	-0.8923220875	-0.313564
C	 0.9361524221	-1.6661780097	-1.6813363288	 0.056093
O	 0.9770168376	-0.9204589753	-2.9283960959	-0.282762
C	 0.3997587868	 0.1246342803	-2.1468011491	 0.028094
C	-0.3836151429	-0.8271335414	-1.2320303969	-0.107277
C	 0.0340268417	-0.078143646	 0.0267230847	-0.120053
H	-0.0764308473	 1.8110822619	 1.2513875438	 0.120309
H	-0.6595700635	 2.0411463009	-0.425670848	 0.113902
H	 2.9911835943	-0.9508240619	-1.5334589291	 0.121601
H	 2.3447795528	-1.4183595812	 0.0785348319	 0.105537
H	 0.9417036061	-2.7482473817	-1.8031434873	 0.090945
H	 0.0504761671	 1.0002954423	-2.6897282053	 0.093492
H	-1.3502539929	-1.2702844112	-1.4704406687	 0.078979
H	 0.1431531544	-0.6265401063	 0.9637438126	 0.081745
243.7875	318.4741	367.9317	451.278	511.9249	566.8352	680.8809	714.7686	760.3793	777.1205	819.0644	824.1852	881.8385	896.8787	911.7893	928.9467	950.5769	1000.5737	1030.4256	1035.7992	1054.5502	1079.5568	1103.3618	1149.0311	1159.9824	1172.3364	1190.5383	1196.1384	1233.508	1238.5423	1269.0935	1295.866	1329.9745	1339.0567	1358.2134	1483.6305	1506.8585	3042.9451	3075.053	3090.1208	3111.9481	3117.404	3134.9694	3137.4892	3147.5443
C1OC23CC4OC2C4C13	C1O[C@]23C[C@@H]4O[C@H]2[C@@H]4[C@H]13	
InChI=1S/C7H8O2/c1-4-5-3-2-8-7(1,3)6(5)9-4/h3-6H,1-2H2	InChI=1S/C7H8O2/c1-4-5-3-2-8-7(1,3)6(5)9-4/h3-6H,1-2H2/t3-,4-,5+,6-,7-/m0/s1
