19
gdb 120317	3.28523	0.90157	0.81226	1.828	71.95	-0.2266	0.0605	0.2871	1444.4309	0.157582	-460.098114	-460.088846	-460.087901	-460.13272	34.113	
O	-0.0603461859	 1.3983212572	 0.0769035383	-0.421208
C	-0.0622945289	-0.0157747352	 0.1987484056	-0.065425
C	-1.4421454032	-0.5163318047	-0.2156166214	-0.217192
C	-1.5437497338	-2.0240790824	-0.1501960292	-0.076357
C	-1.9327307453	-2.7987582017	 1.0921936135	-0.009514
O	-2.9201525739	-2.0851788425	 1.8470101011	-0.280508
C	-3.8665482692	-2.1668988172	 0.7480463401	-0.152863
C	-2.81688146	-2.827484693	-0.1441555681	 0.277458
O	-3.0660454545	-3.7554195177	-1.131630724	-0.446857
H	 0.7930145407	 1.7249759744	 0.3759451614	 0.284724
H	 0.7095342593	-0.4716267108	-0.444044154	 0.08007
H	 0.1463891794	-0.3307703847	 1.2333387303	 0.092873
H	-2.18237767	-0.0595830174	 0.4474910403	 0.122623
H	-1.6525391122	-0.1639798571	-1.2321875069	 0.109329
H	-0.7848423948	-2.5655171369	-0.715591147	 0.096111
H	-1.3200726959	-3.5248798903	 1.6138444191	 0.105244
H	-4.6938748008	-2.8416520527	 1.0053567593	 0.099168
H	-4.264760503	-1.1898988978	 0.4532527959	 0.114638
H	-3.5749353882	-4.4801056896	-0.7495807143	 0.287687
59.2577	88.1627	126.2655	222.2696	254.8292	259.9047	287.4184	326.6886	381.5435	414.0446	489.1369	615.9312	641.185	761.0133	810.5754	854.6163	917.3992	928.1837	985.055	996.8993	1018.0097	1042.3842	1066.741	1078.7639	1092.7859	1129.8004	1146.7541	1203.352	1230.0716	1241.5702	1265.8003	1288.2904	1318.0836	1324.3367	1346.567	1378.5155	1461.9442	1485.0928	1491.9919	1514.8938	1527.1482	2958.2563	2992.1818	3013.3726	3044.1921	3072.4006	3097.5824	3121.059	3182.8683	3784.1145	3831.3677
OCCC1C2OCC12O	OCC[C@H]1[C@H]2OC[C@@]12O	
InChI=1S/C6H10O3/c7-2-1-4-5-6(4,8)3-9-5/h4-5,7-8H,1-3H2	InChI=1S/C6H10O3/c7-2-1-4-5-6(4,8)3-9-5/h4-5,7-8H,1-3H2/t4-,5+,6+/m0/s1
