19
gdb 103710	2.9072	1.16391	0.9741	2.9832	77.63	-0.2408	0.0145	0.2554	1264.4731	0.157163	-419.200533	-419.190421	-419.189477	-419.235141	37.374	
C	 0.199752056	 1.3835385291	 0.4185288499	-0.376539
C	-0.2626610471	 0.0675412791	-0.2162967009	-0.225944
C	 0.6510510405	-0.3908047633	-1.3406507909	 0.287797
N	 0.6249006964	 0.4849803066	-2.4799385404	-0.552339
C	 1.9594570763	-1.0426691246	-1.006955817	-0.37724
C	 0.822349653	-1.9167176327	-1.5343234927	 0.167845
O	 0.1546390684	-2.7698554728	-0.654874685	-0.442174
C	 0.9173072968	-2.3974374661	-2.8933826307	 0.24615
N	 0.9870836506	-2.7732651247	-3.9862153564	-0.353232
H	 1.1805724106	 1.2696519066	 0.8924893458	 0.112563
H	 0.2825723614	 2.1700492938	-0.3353163195	 0.136664
H	-0.5072631054	 1.710189728	 1.1868242825	 0.112492
H	-0.3310464101	-0.7226439802	 0.5345281638	 0.120626
H	-1.2741884921	 0.1887759972	-0.6261736783	 0.100025
H	 1.3028289708	 0.2153529958	-3.1845527235	 0.243083
H	-0.2889922272	 0.4644370213	-2.9245310591	 0.239833
H	 2.8163571152	-0.8691718602	-1.6497938504	 0.132341
H	 2.1965442271	-1.1880322566	 0.041743365	 0.131524
H	 0.7327028187	-3.5154290362	-0.453289312	 0.296525
81.8161	110.535	132.2043	203.5686	215.8238	238.176	270.5043	288.3859	322.2714	393.2818	401.0281	431.9811	465.9736	584.4246	634.0654	709.496	730.4929	791.4599	845.8351	862.19	923.817	946.6888	979.8714	1048.2551	1070.0073	1090.4453	1097.056	1189.8727	1226.6869	1266.0399	1328.4194	1344.2931	1371.3893	1404.2245	1415.9368	1469.6453	1487.8183	1492.9911	1511.549	1660.607	2336.6269	3025.4664	3040.3044	3100.8343	3107.4146	3128.6016	3130.4707	3221.1671	3495.0444	3581.6954	3779.8248
CCC1(N)CC1(O)C#N	CC[C@@]1(N)C[C@]1(O)C#N	
InChI=1S/C6H10N2O/c1-2-5(8)3-6(5,9)4-7/h9H,2-3,8H2,1H3	InChI=1S/C6H10N2O/c1-2-5(8)3-6(5,9)4-7/h9H,2-3,8H2,1H3/t5-,6+/m1/s1
