21
gdb 90778	3.73541	1.30045	1.20252	1.8005	81.37	-0.2452	0.0811	0.3263	1120.8983	0.18399	-387.07853	-387.070517	-387.069573	-387.110515	32.688	
C	 0.0439957668	 1.4947923172	 0.0727766634	-0.504226
C	-0.0028285106	-0.0047533065	 0.0074674183	 0.360957
C	-1.2849978382	-0.8375518335	-0.1082999852	-0.301837
C	-0.5427273143	-2.0247552414	 0.5836868578	-0.065356
C	 0.6139317856	-1.0441631091	 0.9359369883	-0.158257
C	 1.1852146472	-0.8381998529	-0.4492382802	-0.087426
C	 0.9381673775	-2.0607884242	-1.3326358337	-0.278914
C	 0.0547962176	-2.9873611761	-0.4498430037	 0.1525
O	 0.8069111893	-4.0216159899	 0.170427454	-0.443033
H	 1.0424395992	 1.8509092241	 0.3483184135	 0.116115
H	-0.2108609474	 1.943432776	-0.8953299837	 0.118856
H	-0.6648885934	 1.8831531651	 0.8135175189	 0.115345
H	-2.0732762326	-0.4335034488	 0.5331620027	 0.098463
H	-1.7031113895	-1.0138608353	-1.1074392173	 0.086042
H	-1.0719635187	-2.5291188201	 1.3913020062	 0.070913
H	 1.1427384111	-0.9209820436	 1.8727367733	 0.080008
H	 2.1166965765	-0.2901704871	-0.5439466805	 0.078604
H	 0.4451278013	-1.8007036547	-2.2755341693	 0.099158
H	 1.8670040601	-2.5807755364	-1.5849376506	 0.102374
H	-0.7164901842	-3.5029063609	-1.030289368	 0.080954
H	 1.473467307	-3.596891032	 0.7230951657	 0.27876
120.2451	196.1138	214.8731	284.1918	297.9586	335.7475	401.9397	418.3826	461.6284	607.8093	690.8767	736.089	745.5893	825.2811	829.9553	856.0714	898.1864	923.2343	932.8898	962.29	987.9358	990.0539	1012.1301	1036.0012	1068.1812	1081.0729	1102.3107	1153.3037	1184.0151	1199.1836	1205.8489	1227.9685	1243.8982	1273.7794	1289.8233	1307.3623	1316.9328	1330.5054	1412.7182	1424.8267	1439.555	1483.7918	1486.0037	1496.9939	1506.1994	3017.0796	3022.3217	3043.2317	3069.6636	3075.5675	3085.3408	3090.2329	3091.5687	3121.6953	3167.9246	3189.1442	3788.7227
CC12CC3C1C2CC3O	C[C@]12C[C@@H]3[C@H]1[C@H]2C[C@H]3O	
InChI=1S/C8H12O/c1-8-3-4-6(9)2-5(8)7(4)8/h4-7,9H,2-3H2,1H3	InChI=1S/C8H12O/c1-8-3-4-6(9)2-5(8)7(4)8/h4-7,9H,2-3H2,1H3/t4-,5+,6+,7-,8+/m0/s1
