16
gdb 127590	4.85929	0.85576	0.79328	2.9599	73.44	-0.2472	-0.0306	0.2166	1423.6981	0.124133	-434.083975	-434.075096	-434.074152	-434.121949	29.514	
C	-0.0974183169	 1.4693265363	-0.215844821	-0.312326
N	-0.0244921907	 0.0298507031	-0.0660522528	 0.158909
N	 0.2530331426	-0.7738998598	-1.0854189358	-0.21706
C	 0.239872347	-1.9898368964	-0.5368952018	-0.13215
C	-0.0595570095	-1.8689655527	 0.8301067178	 0.278417
C	-0.1573097725	-2.9186359469	 1.8918276815	-0.381271
C	 1.1909319064	-3.1772848693	 2.5566802853	 0.160044
O	 1.6606546309	-4.2683946786	 2.7380318495	-0.230785
N	-0.2197663673	-0.5680594488	 1.1025265033	-0.301359
H	 0.7113546199	 1.9492404243	 0.341401434	 0.154109
H	-0.0007045319	 1.6917423164	-1.2771799443	 0.166662
H	-1.0562624705	 1.8314210244	 0.160775349	 0.156509
H	 0.430794918	-2.8703402483	-1.1296156931	 0.131479
H	-0.8414658519	-2.5684681144	 2.6750243973	 0.145761
H	-0.5352566123	-3.8649078747	 1.4978281219	 0.133064
H	 1.7208895887	-2.2512096048	 2.8733305892	 0.089997
5.6699	25.0538	59.5342	137.9069	214.0788	262.9176	384.3965	421.3011	453.5242	655.8115	681.5811	733.3093	744.5373	836.8651	873.5922	1011.6508	1017.3964	1044.0318	1051.2905	1092.372	1150.4308	1174.0994	1223.3264	1287.7691	1344.6629	1356.2294	1416.0121	1424.1527	1441.6937	1450.8455	1457.8821	1479.0385	1507.5891	1545.6118	1838.0891	2887.279	3040.5471	3060.608	3116.5667	3129.8514	3179.9588	3268.915
CN1N=CC(CC=O)=N1	Cn1ncc(CC=O)n1	
InChI=1S/C5H7N3O/c1-8-6-4-5(7-8)2-3-9/h3-4H,2H2,1H3	InChI=1S/C5H7N3O/c1-8-6-4-5(7-8)2-3-9/h3-4H,2H2,1H3
