18
gdb 49935	4.38003	0.75141	0.73297	2.9391	77.33	-0.2604	-0.032	0.2284	1541.1702	0.14687	-401.96612	-401.957088	-401.956143	-402.001371	31.929	
O	-0.8047318172	 1.16021167	-0.1292108349	-0.241285
C	 0.2813511041	 0.9470588293	 0.3490309474	 0.138603
C	 1.5017265321	 1.7891063588	 0.0993133147	-0.072765
C	 1.3751126198	 2.9786051079	-0.8814067391	-0.271206
C	 2.1277538323	 3.8693103258	 0.1424251261	 0.041854
C	 1.6052125337	 5.2940198787	 0.3594748993	-0.363251
C	 2.2969909411	 5.981423939	 1.4491041841	 0.259809
N	 2.8592700954	 6.499173552	 2.3158879988	-0.305533
C	 1.8550652099	 2.807411896	 1.243130443	-0.254126
H	 0.4361324874	 0.1029596156	 1.0597087508	 0.080986
H	 2.355820777	 1.1369179379	-0.1107533165	 0.095446
H	 1.819756755	 2.8658719043	-1.8716666304	 0.112061
H	 0.324226564	 3.2598253296	-0.994094908	 0.128203
H	 3.1963744649	 3.9086445839	-0.0875713003	 0.097902
H	 1.7224027946	 5.88370581	-0.5576240512	 0.15483
H	 0.5323622871	 5.2704320908	 0.5851286711	 0.153034
H	 0.9756127322	 3.0589793578	 1.8441613475	 0.120489
H	 2.6763297966	 2.5489574224	 1.9125251074	 0.12495
41.3471	68.8679	90.3257	134.6956	231.2974	306.8345	336.5992	376.8036	397.9071	493.959	603.659	693.267	782.3597	813.0885	868.5397	912.1397	931.1623	938.6408	971.3689	1002.2065	1055.9297	1096.6044	1119.482	1125.0533	1176.7189	1236.4866	1239.4669	1260.6987	1269.2618	1288.4509	1324.6864	1354.5027	1386.7292	1421.0401	1464.1174	1477.4778	1500.0635	1822.0657	2361.0279	2870.636	3036.6581	3057.0381	3060.2628	3063.0163	3068.9268	3080.7769	3125.5102	3130.6002
O=CC1CC(CC#N)C1	O=C[C@H]1C[C@@H](CC#N)C1	
InChI=1S/C7H9NO/c8-2-1-6-3-7(4-6)5-9/h5-7H,1,3-4H2	InChI=1S/C7H9NO/c8-2-1-6-3-7(4-6)5-9/h5-7H,1,3-4H2/t6-,7+
