17
gdb 32688	3.46936	1.27121	0.99234	3.3551	75.13	-0.223	0.0306	0.2536	1163.4072	0.138536	-417.99908	-417.991338	-417.990394	-418.032023	28.705	
O	 0.0085788852	 1.4449717288	 0.2046151277	-0.41352
C	 0.0015600157	 0.0997893154	-0.2289027499	-0.069272
C	-1.3866946842	-0.526640666	-0.100170615	-0.182529
C	-1.4411599795	-2.1021881278	-0.1805583604	-0.204927
N	-1.8829456857	-2.0753903202	 1.233476418	-0.007615
C	-2.3179805828	-2.5958352433	 2.4126709193	-0.027966
N	-2.58658556	-1.6108940579	 3.2523993476	-0.260388
C	-2.3331630778	-0.4206384688	 2.5976251856	-0.237662
C	-1.8896406423	-0.7138555084	 1.3311542051	 0.289427
H	-0.182267312	 1.4419417912	 1.1495175938	 0.290379
H	 0.3136438182	 0.1148901079	-1.2788515955	 0.113225
H	 0.7309082213	-0.5099679647	 0.3279007791	 0.092113
H	-2.0890554762	-0.0233707468	-0.7697789445	 0.105931
H	-2.189049175	-2.5144299422	-0.8611051055	 0.136835
H	-0.480378965	-2.6018261041	-0.3303370803	 0.131744
H	-2.4178466103	-3.6497314475	 2.6184993973	 0.134597
H	-2.4984540096	 0.5284843143	 3.0824495975	 0.109629
71.2771	107.6348	136.2802	219.3116	358.5652	398.6867	414.9472	516.8945	661.4751	673.9185	715.0604	788.5405	792.0254	825.4358	863.6135	935.6187	963.8462	1019.3662	1076.1833	1092.1043	1112.5715	1132.2545	1158.9338	1186.2379	1218.564	1241.6703	1245.6189	1287.0133	1331.5836	1374.3827	1390.5319	1413.2966	1421.6093	1459.4161	1502.4666	1510.4348	1556.9164	2978.4285	3063.6146	3066.8759	3084.0458	3123.4051	3256.0256	3265.0469	3798.5123
OCC1CN2C=NC=C12	OC[C@H]1Cn2cncc12	
InChI=1S/C6H8N2O/c9-3-5-2-8-4-7-1-6(5)8/h1,4-5,9H,2-3H2	InChI=1S/C6H8N2O/c9-3-5-2-8-4-7-1-6(5)8/h1,4-5,9H,2-3H2/t5-/m1/s1
