13
gdb 29442	6.99571	0.88166	0.78608	2.6487	64.58	-0.2216	-0.0165	0.2051	1339.8885	0.089117	-489.900646	-489.892791	-489.891847	-489.934017	27.903	
O	 0.1896837353	 1.2982074332	-0.0561143835	-0.424473
C	 0.0775025864	-0.0384320906	-0.0758772526	 0.341948
C	-0.1183784143	-0.8493443961	-1.1416468676	-0.161602
O	-0.1704669528	-2.1511456685	-0.6347084286	-0.193263
C	 0.0091017476	-1.9944345527	 0.6822171405	 0.520886
O	-0.017723735	-3.0675607446	 1.4773015828	-0.208104
C	 0.1697344131	-4.3193125505	 0.9381851841	 0.112682
N	-0.0061635308	-5.3094319333	 1.6883897885	-0.410011
N	 0.1625375102	-0.7790287683	 1.0930292928	-0.428793
H	 0.321356156	 1.5546070911	 0.8649082472	 0.312226
H	-0.233932386	-0.732003128	-2.2016155335	 0.153075
H	 0.4696414445	-4.2988892035	-0.110231362	 0.139814
H	 0.1859873659	-6.1711896481	 1.1811848419	 0.245615
49.3956	79.864	171.5533	250.6322	348.8592	361.0611	387.8421	468.6244	550.8021	610.146	689.9646	708.2193	746.3954	812.0679	838.7172	970.653	1016.9855	1048.6876	1080.553	1095.288	1189.7651	1259.6617	1277.1156	1379.2461	1403.6285	1428.0759	1641.3576	1709.3509	1758.7856	3127.1487	3328.153	3522.5194	3806.6149
OC1=COC(OC=N)=N1	Oc1coc(O[CH][NH])n1	
InChI=1S/C4H4N2O3/c5-2-9-4-6-3(7)1-8-4/h1-2,5,7H	InChI=1S/C4H4N2O3/c5-2-9-4-6-3(7)1-8-4/h1-2,5,7H
