16
gdb 28053	5.04161	0.84943	0.75191	5.8769	74.39	-0.213	0.0069	0.2199	1460.7949	0.123753	-437.944043	-437.935256	-437.934312	-437.979037	30.94	
C	-0.4233578	 1.351475842	-0.1967042719	-0.502396
C	-0.0519367173	-0.0877867807	-0.0556648825	 0.338537
C	-0.0174573874	-1.1050236696	-0.986697489	-0.341819
C	 0.4108151025	-2.2757272987	-0.3038605069	 0.319066
O	 0.6428269294	-3.5210948031	-0.8590880429	-0.218686
C	-0.4262337012	-4.1768785695	-1.3776811411	 0.150634
O	-0.3219622435	-5.2295976114	-1.9276758038	-0.267449
C	 0.6306921117	-1.9618647332	 1.0139222545	-0.184513
N	 0.3462778763	-0.6232627932	 1.1447091365	-0.292142
H	 0.4031271754	 2.0189236354	 0.0764664142	 0.132163
H	-0.690962421	 1.565807478	-1.2334846461	 0.143388
H	-1.2830825707	 1.6203449153	 0.4294514365	 0.131364
H	-0.2531370829	-1.0180530925	-2.0359174288	 0.106722
H	-1.3698427934	-3.6226034124	-1.2237397561	 0.088033
H	 0.9696547318	-2.5655324915	 1.8382962309	 0.133407
H	 0.4217302903	-0.1062598949	 2.0035952866	 0.263692
26.1386	89.044	120.2131	137.7483	232.8802	295.287	396.8302	443.9181	466.8236	485.7645	641.789	659.668	669.315	720.7072	797.4321	830.8625	972.3061	1003.9298	1017.4501	1047.4076	1062.3824	1128.531	1145.7032	1176.654	1265.3391	1328.9583	1409.6333	1418.754	1434.518	1447.9412	1481.0173	1503.7564	1551.712	1633.8287	1870.1107	2978.3472	3020.5758	3066.3784	3127.6716	3254.1743	3282.4562	3677.1955
CC1=CC(OC=O)=CN1	Cc1cc(OC=O)c[nH]1	
InChI=1S/C6H7NO2/c1-5-2-6(3-7-5)9-4-8/h2-4,7H,1H3	InChI=1S/C6H7NO2/c1-5-2-6(3-7-5)9-4-8/h2-4,7H,1H3
