18
gdb 25616	5.84896	0.71987	0.67889	1.5459	80.05	-0.21	-0.0345	0.1755	1615.8347	0.14783	-401.98739	-401.978687	-401.977743	-402.022624	31.016	
O	-0.1675925586	-0.0440348786	-0.2276233751	-0.227863
C	-0.0082231295	 1.1396200504	-0.0819093402	 0.156519
C	 1.3254497408	 1.8489032829	-0.1502030694	-0.266793
C	 1.3427873327	 2.9158695372	-1.2661233622	-0.191163
N	 2.5475573843	 3.7187972995	-1.2625578903	 0.042751
C	 2.7361442507	 4.8719955273	-0.536888159	-0.102704
C	 4.0372690399	 5.2821399695	-0.7082057573	-0.16457
C	 4.6672670565	 4.3387474969	-1.5664566286	-0.164607
C	 3.7274664757	 3.3877206013	-1.8868798851	-0.101367
H	-0.8762890901	 1.8134499178	 0.1140561141	 0.074038
H	 1.4931348636	 2.3548024842	 0.8099354494	 0.132753
H	 2.1187244585	 1.1127832774	-0.2997463007	 0.134257
H	 1.2517476394	 2.4322858853	-2.2434621391	 0.135692
H	 0.4837018705	 3.5864657184	-1.1571284631	 0.124755
H	 1.9236103397	 5.3015722986	 0.0282754942	 0.111294
H	 4.4816286478	 6.1678117947	-0.2807497235	 0.095538
H	 5.686708793	 4.3631161171	-1.9195366303	 0.095852
H	 3.789307135	 2.50671236	-2.5065246537	 0.115621
45.1722	60.4764	71.9125	100.459	268.972	330.9299	352.1545	516.7041	623.3241	634.2461	680.0968	721.7028	741.7783	779.4039	800.2312	852.5169	859.9238	884.6748	972.6667	994.1117	1075.9392	1080.8782	1089.251	1113.1105	1116.6198	1192.4948	1272.8176	1288.6242	1314.	1318.4259	1395.0449	1423.7435	1429.0536	1437.9533	1464.3641	1492.0981	1534.5683	1564.0618	1838.0055	2849.1426	3031.8909	3048.2056	3091.4553	3120.8694	3239.011	3248.1786	3259.4493	3269.0898
O=CCCN1C=CC=C1	O=CCCn1cccc1	
InChI=1S/C7H9NO/c9-7-3-6-8-4-1-2-5-8/h1-2,4-5,7H,3,6H2	InChI=1S/C7H9NO/c9-7-3-6-8-4-1-2-5-8/h1-2,4-5,7H,3,6H2
