16
gdb 85582	2.88796	1.47603	1.02092	1.7091	67.1	-0.2537	-0.0466	0.207	1118.5573	0.123505	-475.051955	-475.043663	-475.042719	-475.085441	30.282	
C	 0.087175236	 1.5265903619	-0.0959612754	-0.40272
C	 0.107592757	 0.0145798022	 0.0275827655	 0.006651
O	 0.8615790145	-0.5179191748	-1.0786664373	-0.233689
C	 0.9320336257	-1.8642263725	-1.1735858029	 0.447736
N	 0.9749586021	-2.4261056765	-2.2985115189	-0.54532
O	 0.9451049974	-2.5272076188	 0.0211793767	-0.249929
C	 1.4553401799	-1.8096731697	 1.1466974502	-0.19587
C	 0.7424810407	-0.4770962842	 1.3261283319	 0.369752
O	 0.7006324849	 0.115654339	 2.3727409558	-0.292135
H	 1.1072199597	 1.9177402231	-0.1317594153	 0.139502
H	-0.4373858099	 1.825395635	-1.0054421238	 0.139074
H	-0.4168736122	 1.9518000018	 0.7740010044	 0.148767
H	-0.9169598263	-0.386053563	-0.0137547553	 0.127493
H	 1.1274705744	-3.4257700833	-2.1788709637	 0.232185
H	 1.2993306812	-2.4417187656	 2.02228878	 0.158305
H	 2.5337684952	-1.6279464946	 1.037455048	 0.150198
48.3311	123.5276	190.4758	196.5188	259.1942	317.6251	390.8339	439.8716	468.1723	559.125	618.9195	704.6767	746.8904	749.9655	831.1742	856.4003	945.2511	959.1266	1048.1106	1087.401	1093.894	1127.8828	1147.9332	1205.2518	1244.5496	1293.41	1335.4032	1348.6334	1381.6683	1406.6723	1467.5885	1481.2118	1495.814	1779.71	1844.5583	2994.7496	3018.0316	3061.0066	3129.4152	3138.4903	3151.332	3523.5168
CC1OC(=N)OCC1=O	C[C@H]1O[C]([NH])OCC1=O	
InChI=1S/C5H7NO3/c1-3-4(7)2-8-5(6)9-3/h3,6H,2H2,1H3	InChI=1S/C5H7NO3/c1-3-4(7)2-8-5(6)9-3/h3,6H,2H2,1H3/t3-/m1/s1
