14
gdb 131465	4.90935	1.2907	1.1887	3.3466	66.71	-0.2557	-0.0131	0.2426	1000.8613	0.103006	-432.803742	-432.797182	-432.796238	-432.8347	25.372	
O	-0.0348215129	 1.2039701371	-0.2713995256	-0.418167
C	-0.0812721691	-0.1626850038	-0.049747035	 0.104865
C	-0.5002648986	-0.6165670686	 1.3394004284	-0.071176
C	-1.48899293	-0.6957284785	 0.1636629679	-0.2239
C	-1.3394682542	-2.193482623	 0.2952211493	 0.295636
N	-1.1873498332	-3.3542971009	-0.3070973334	-0.338812
C	-0.2318564054	-3.929642184	 0.5059283992	 0.033644
N	 0.2630959319	-3.1793502758	 1.4899813777	-0.265478
N	-0.5471823593	-2.0879351262	 1.3867103223	 0.045701
H	 0.8680036585	 1.5083022108	-0.1278413615	 0.302844
H	 0.6342358168	-0.7695250316	-0.6046790054	 0.130092
H	-0.5165060001	 0.00637041	 2.2224930582	 0.137178
H	-2.3671819776	-0.0945271225	-0.0183589595	 0.136879
H	 0.0953315132	-4.9506357429	 0.3679254071	 0.130694
124.4693	246.6446	283.0087	308.4933	340.4705	493.1013	515.3466	676.2272	748.335	781.3115	829.7446	837.6348	881.3949	899.8574	920.3562	985.7189	1017.6403	1086.5223	1101.5364	1125.281	1155.8918	1165.0552	1190.2228	1254.7597	1256.3092	1275.216	1278.6368	1384.3351	1403.2196	1447.8792	1563.5402	3110.8045	3224.9968	3239.7843	3250.3165	3810.3057
OC1C2C1C1=NC=NN21	O[C@H]1[C@H]2[C@@H]1c1ncnn21	
InChI=1S/C5H5N3O/c9-4-2-3(4)8-5(2)6-1-7-8/h1-4,9H	InChI=1S/C5H5N3O/c9-4-2-3(4)8-5(2)6-1-7-8/h1-4,9H/t2-,3+,4+/m0/s1
