17
gdb 67630	2.44242	1.95431	1.60536	0.4464	70.06	-0.2181	0.0725	0.2905	915.1913	0.135701	-421.76296	-421.755641	-421.754697	-421.79428	29.572	
C	-0.1063595322	 1.5019134727	 0.0046584184	-0.520435
C	-0.0011029674	 0.0087137376	-0.0362256555	 0.251325
C	 0.9268596015	-0.8438257057	-0.9324860495	-0.185805
C	 1.1021771837	-2.1124480045	-0.120147135	 0.077998
O	 0.8182532264	-1.9102182028	 1.2384217915	-0.230413
C	-0.1892357473	-0.9394124	 1.1534585483	-0.074255
C	-1.0460956801	-1.0975721857	-0.0890155376	 0.30062
O	-2.4169583994	-0.9919893142	-0.1588681232	-0.462903
C	-0.1235120651	-1.9505922486	-0.996324555	-0.221426
H	 0.8313363294	 1.9554263368	 0.3467385287	 0.123255
H	-0.3397819765	 1.9159885149	-0.9824084686	 0.125609
H	-0.9001539799	 1.8172493318	 0.68888183	 0.127034
H	 1.6141958211	-0.482954477	-1.6852419021	 0.091241
H	 1.8800599795	-2.8404505823	-0.3089946053	 0.108135
H	-0.5877741578	-0.6017690727	 2.1014968007	 0.106846
H	-2.8055600881	-1.6984314443	 0.3703918656	 0.288134
H	-0.4189115078	-2.598395326	-1.8097788012	 0.095041
164.6589	180.7322	240.2107	271.9952	341.8624	356.8388	539.2865	589.468	611.5985	672.6952	736.7028	754.3763	769.8267	775.5023	832.3501	877.5594	900.3742	957.4811	966.8607	987.5633	995.6226	1036.6329	1058.8208	1096.081	1104.0079	1130.3282	1182.2533	1208.547	1234.9109	1251.7082	1306.8323	1343.6767	1367.9326	1415.8354	1484.3596	1485.7656	1503.7774	3024.5698	3083.4558	3101.2131	3204.252	3207.8909	3211.0846	3220.8439	3777.7098
CC12C3C4OC1C2(O)C34	C[C@@]12[C@H]3[C@H]4O[C@@H]1[C@]2(O)[C@@H]34	
InChI=1S/C7H8O2/c1-6-2-3-4(2)9-5(6)7(3,6)8/h2-5,8H,1H3	InChI=1S/C7H8O2/c1-6-2-3-4(2)9-5(6)7(3,6)8/h2-5,8H,1H3/t2-,3+,4-,5+,6-,7-/m1/s1
