17
gdb 18356	3.39635	2.19625	1.63239	3.7318	67.72	-0.2466	0.0194	0.266	825.8422	0.144019	-363.840661	-363.833848	-363.832904	-363.871427	26.529	
C	-0.0956726155	 1.5896052244	-0.1393249514	-0.399042
C	-0.049177185	 0.0633816219	-0.0340622285	-0.034237
C	 0.9593269362	-0.5604181915	-1.0873404873	-0.16712
N	 2.3071653439	-0.5774884391	-0.4374217153	-0.308756
C	 2.0084619559	-0.5709272828	 0.7871492797	 0.436248
O	 2.6323581471	-0.2065675998	 1.9491554743	-0.27546
C	 1.3081872253	 0.2416623582	 2.4558918933	-0.129313
C	 0.6030668598	-0.4747824165	 1.2618916187	-0.151728
H	 0.9049315189	 2.0265790415	-0.0534615305	 0.133595
H	-0.5039724474	 1.8925961184	-1.1085144286	 0.121712
H	-0.7276705753	 2.0263684591	 0.6406560401	 0.114254
H	-1.0567085512	-0.3400989438	-0.1715683637	 0.074942
H	 0.6562631092	-1.5730184987	-1.3842191621	 0.104934
H	 1.0151875532	 0.0447412344	-1.99708701	 0.112201
H	 1.1182945868	-0.1651182485	 3.450007864	 0.127784
H	 1.2697128043	 1.3328954633	 2.4597360481	 0.132952
H	 0.1689910137	-1.4250490806	 1.5824628691	 0.107034
130.4925	217.0768	251.8619	278.2771	353.7979	455.7288	480.572	670.0342	711.1648	717.8737	775.4159	825.2676	904.7841	930.6638	940.8304	972.275	987.5509	1019.72	1073.8796	1100.9142	1136.9829	1149.0137	1171.9118	1208.4048	1230.864	1263.5625	1303.8491	1329.6155	1348.9883	1380.9212	1411.4163	1493.2677	1496.1072	1503.4408	1507.1675	1774.4474	3020.91	3032.9841	3060.3591	3074.5857	3082.3301	3084.1899	3103.202	3105.189	3145.1839
CC1CN=C2OCC12	C[C@H]1C[N][C]2OC[C@@H]12	
InChI=1S/C6H9NO/c1-4-2-7-6-5(4)3-8-6/h4-5H,2-3H2,1H3	InChI=1S/C6H9NO/c1-4-2-7-6-5(4)3-8-6/h4-5H,2-3H2,1H3/t4-,5-/m0/s1
