18
gdb 6582	4.10219	1.83805	1.59612	1.3153	72.01	-0.2262	0.0122	0.2384	864.6361	0.153439	-347.774686	-347.76737	-347.766426	-347.805412	29.967	
C	 0.0038297458	 1.5361758612	 0.0239364063	-0.502614
C	 0.0259893912	 0.0254942407	 0.030975071	 0.291444
C	 0.9742024487	-0.8150083973	-0.9054941404	-0.270194
C	 0.6042987755	-1.9321680376	 0.1111140767	 0.373793
O	 1.3772016713	-3.0885952935	 0.1508048371	-0.486321
C	 0.6505323094	-0.8086554505	 1.2093859041	-0.305312
C	-0.9187175294	-2.0282524482	-0.1191875692	-0.176742
C	-1.29217825	-0.7493018516	-0.1691250434	-0.112603
H	 1.0064206985	 1.9489367941	 0.1740787989	 0.115424
H	-0.3764755206	 1.9214773582	-0.929016136	 0.117723
H	-0.6401361956	 1.9257175512	 0.8205963625	 0.116917
H	 0.6656748858	-0.9567455234	-1.9435713006	 0.092837
H	 2.0234807912	-0.5093750657	-0.8393852595	 0.094318
H	 1.0351142166	-3.6588441066	 0.8475589624	 0.278192
H	 1.6714608058	-0.5025133252	 1.4604797323	 0.092457
H	 0.0416614161	-0.9446952638	 2.1070457927	 0.083908
H	-1.4887559329	-2.941552147	-0.2234123441	 0.098286
H	-2.2687008375	-0.3080587349	-0.3185492306	 0.098488
202.5382	230.105	249.3438	269.5815	363.843	387.0848	462.3444	540.04	550.6447	589.3751	637.4053	691.4499	712.0239	823.5207	862.6481	894.6873	900.1701	929.0616	979.4711	998.4588	1043.117	1049.3095	1061.5979	1125.0432	1140.1002	1172.6432	1192.6435	1215.338	1241.9571	1312.6418	1347.5279	1362.7121	1415.9151	1475.1386	1493.8162	1494.1653	1515.631	1633.2288	3025.9524	3038.4811	3052.1508	3088.2988	3098.8535	3112.0297	3122.2491	3205.5063	3234.8705	3807.1313
CC12CC(O)(C1)C=C2	C[C@@]12C[C@@](O)(C1)C=C2	
InChI=1S/C7H10O/c1-6-2-3-7(8,4-6)5-6/h2-3,8H,4-5H2,1H3	InChI=1S/C7H10O/c1-6-2-3-7(8,4-6)5-6/h2-3,8H,4-5H2,1H3/t6-,7-
