19
gdb 28905	2.34456	1.76335	1.02015	3.1657	87.38	-0.2046	-0.0033	0.2013	1171.6494	0.160609	-382.147012	-382.138288	-382.137344	-382.179775	33.769	
C	 0.0363439194	 1.5044706213	-0.0176459302	-0.501745
C	 0.0049555827	-0.0025413901	-0.0017303022	 0.287406
N	-0.0626473435	-0.620514272	-1.1825460251	-0.328212
C	-0.0812713099	-1.9549113176	-1.2036630359	-0.030368
C	-0.0284927432	-2.7280323635	-0.0516906703	-0.200257
C	 0.042293916	-2.1096983742	 1.193859057	 0.266825
C	 0.1137594723	-2.9031760795	 2.4713872274	-0.517697
C	 0.0553620055	-0.7054316299	 1.2204978714	 0.15933
N	 0.181039965	-0.0159021146	 2.4300586965	-0.594459
H	 0.9320314993	 1.8966332334	 0.480137299	 0.129501
H	 0.0285100612	 1.8503019903	-1.0516736194	 0.143414
H	-0.8341369488	 1.9395428531	 0.4936670548	 0.11657
H	-0.1376798497	-2.4220875676	-2.1833900442	 0.096129
H	-0.0409461531	-3.8115372307	-0.1188026858	 0.085976
H	 1.0055701374	-2.6433212335	 3.0545943427	 0.139143
H	-0.756200987	-2.7178456856	 3.11675566	 0.125052
H	 0.1436334501	-3.9757238046	 2.2668634318	 0.129951
H	-0.1652367986	-0.5091464375	 3.2397973034	 0.245473
H	-0.1545600049	 0.9355319228	 2.411303909	 0.247967
123.1101	167.1196	186.1414	229.4839	291.9775	298.2257	304.1918	352.1044	480.6442	505.6443	532.411	554.1502	568.359	634.973	692.7711	787.3005	847.7339	861.1409	909.5024	954.596	991.5716	1021.1991	1056.58	1059.3521	1125.6878	1180.9896	1257.4973	1291.4601	1305.6982	1326.9808	1400.9839	1410.4102	1454.6984	1477.9529	1483.9675	1487.0456	1498.0281	1516.302	1612.8303	1629.053	1661.6412	3005.8267	3009.5079	3057.2063	3061.0313	3120.3743	3145.5381	3154.3403	3178.9155	3568.9683	3665.8892
CC1=NC=CC(C)=C1N	Cc1nccc(C)c1N	
InChI=1S/C7H10N2/c1-5-3-4-9-6(2)7(5)8/h3-4H,8H2,1-2H3	InChI=1S/C7H10N2/c1-5-3-4-9-6(2)7(5)8/h3-4H,8H2,1-2H3
