18
gdb 115693	2.41172	1.37719	0.97461	5.622	69.07	-0.2355	0.0263	0.2618	1221.5401	0.146578	-476.213709	-476.204372	-476.203428	-476.248993	33.117	
C	 0.2152615889	 1.5775448615	-0.1597764061	-0.24737
O	-0.3181792923	 0.3167033107	-0.5196930887	-0.244365
C	 0.5786080104	-0.4827569325	-1.2433983907	 0.064558
C	 1.6584334841	-1.2784644011	-0.4763698467	-0.096825
O	 1.2256733968	-2.5049325205	-1.0988924296	-0.25798
C	 0.0511196776	-1.8836533392	-1.6418907432	-0.022593
C	-1.2434518548	-2.4144025336	-1.000438704	 0.357333
N	-2.32483019	-1.5863124838	-1.1628727907	-0.52245
O	-1.2983608466	-3.5169084594	-0.5047636636	-0.341786
H	 1.0861728033	 1.4736100583	 0.5020107567	 0.12256
H	 0.5161271989	 2.1533559366	-1.0474275415	 0.116735
H	-0.5689348076	 2.1205213637	 0.3713376923	 0.137681
H	 0.9848550082	 0.0763184694	-2.0974926281	 0.084203
H	 2.7070134665	-1.0528086915	-0.6959759706	 0.10804
H	 1.4959605368	-1.2858785233	 0.6098285859	 0.111924
H	-0.0300499953	-2.0524256961	-2.7235567129	 0.113544
H	-2.1423155993	-0.5924656695	-1.1683352263	 0.262253
H	-3.1615934856	-1.8844622496	-0.6819083322	 0.254538
42.2515	66.6372	103.249	163.0108	197.1851	250.1111	307.1453	378.7729	431.4282	486.8008	531.0499	584.9169	599.3	685.7652	758.5793	846.6591	903.223	986.6865	1025.7243	1047.4082	1079.1832	1079.7669	1130.8037	1161.2394	1176.1811	1184.242	1224.3859	1266.1216	1278.0081	1301.5181	1337.6426	1363.1814	1406.665	1483.4886	1489.2997	1507.31	1512.0253	1629.8853	1821.2908	2989.6424	3005.5835	3013.141	3029.2023	3045.8857	3077.4526	3128.4803	3549.6123	3673.3768
COC1COC1C(N)=O	CO[C@H]1CO[C@H]1C(=O)N	
InChI=1S/C5H9NO3/c1-8-3-2-9-4(3)5(6)7/h3-4H,2H2,1H3,(H2,6,7)	InChI=1S/C5H9NO3/c1-8-3-2-9-4(3)5(6)7/h3-4H,2H2,1H3,(H2,6,7)/t3-,4+/m0/s1
