22
gdb 118104	2.4433	1.13037	0.90087	2.6385	79.	-0.2339	0.065	0.2989	1399.1142	0.192301	-441.442472	-441.431926	-441.430982	-441.478252	38.388	
C	-0.1300760965	 1.4292643173	 0.9504416017	-0.231082
O	 0.205972775	 0.0589136719	 0.9722364902	-0.229156
C	 1.5934550433	-0.1680875941	 1.1236625234	-0.105699
C	 1.9104979816	-1.6642937061	 1.0018745847	 0.024345
O	 3.3288448177	-1.8078185004	 0.9177113586	-0.424935
C	 1.3431126737	-2.5971832042	 2.0714242347	 0.305341
C	 1.6056220588	-4.0632808406	 1.7863986488	-0.434342
C	 1.2604615407	-2.1319567946	 3.4875577489	-0.294521
N	 0.038140289	-2.3232282115	 2.6899550023	-0.357509
H	 0.3644938738	 1.94893228	 0.116167392	 0.113528
H	-1.2124769751	 1.4981791646	 0.8221570484	 0.134585
H	 0.1528322345	 1.9332905308	 1.8873827771	 0.108871
H	 2.1586982857	 0.3464749662	 0.3323266053	 0.108621
H	 1.9515422262	 0.2336301076	 2.0871452617	 0.083518
H	 1.5319327855	-1.9951115534	 0.0267686564	 0.101012
H	 3.675561585	-1.7245839089	 1.8134894086	 0.281302
H	 2.6760240422	-4.2570090418	 1.6749583646	 0.119008
H	 1.2088182588	-4.6829629892	 2.5937909759	 0.120806
H	 1.1098243771	-4.3654699402	 0.8567530705	 0.117799
H	 1.4037374545	-2.8494165158	 4.2917727178	 0.112353
H	 1.5653776408	-1.1191762487	 3.7392186203	 0.102852
H	-0.3083198823	-1.4232785889	 2.365205478	 0.243303
43.9819	95.9329	131.2049	168.2235	190.9234	232.6522	256.7471	284.2052	322.0843	339.4734	361.3152	387.8694	439.6615	528.8448	552.2989	695.5118	844.1157	877.6532	926.4693	988.6934	993.3437	1009.4966	1033.2137	1067.8207	1084.4128	1109.1869	1114.1556	1145.6061	1161.5694	1184.9748	1221.2398	1240.5055	1263.1738	1300.3866	1327.6523	1367.6532	1376.8652	1408.9556	1417.2352	1426.0892	1480.0994	1482.5542	1486.3158	1496.6288	1501.1544	1510.9493	1533.6205	2961.526	2980.5315	3010.2682	3028.5824	3036.3723	3043.4865	3102.0639	3103.5209	3122.5131	3130.1799	3181.4703	3502.3392	3794.7456
COCC(O)C1(C)CN1	COC[C@@H](O)[C@@]1(C)CN1	
InChI=1S/C6H13NO2/c1-6(4-7-6)5(8)3-9-2/h5,7-8H,3-4H2,1-2H3	InChI=1S/C6H13NO2/c1-6(4-7-6)5(8)3-9-2/h5,7-8H,3-4H2,1-2H3/t5-,6-/m1/s1
