13
gdb 10594	3.34466	1.72883	1.36678	2.3131	61.21	-0.272	-0.0602	0.2117	878.9601	0.094176	-398.606268	-398.598823	-398.597879	-398.637828	27.251	
O	-0.1361803421	 1.3682711404	 0.0889706276	-0.392171
C	-0.0437300114	 0.0113925971	 0.0950766868	 0.138162
C	-0.4189183159	-0.8321084221	 1.2371201316	-0.346028
C	-1.3871803279	-0.8809887617	 0.0315935424	-0.005338
C	-2.6280004823	-0.0891528758	 0.138659583	 0.114245
O	-2.7106220036	 0.9136405477	 0.8225097536	-0.307008
C	-1.4013986225	-2.0406036992	-0.8055926972	 0.215538
N	-1.4095382547	-2.9753772608	-1.4885335278	-0.327913
H	-0.91691416	 1.6230200708	 0.6118417417	 0.316763
H	 0.7233450032	-0.3425390752	-0.584795146	 0.155283
H	 0.1361253945	-1.7443736349	 1.4222906253	 0.158199
H	-0.8343935373	-0.3420897599	 2.1119180347	 0.156521
H	-3.4801335399	-0.4419475464	-0.4707243357	 0.123748
146.8042	162.9329	195.3133	240.8369	285.0303	386.4982	477.2208	517.0829	546.6499	570.1186	589.2984	635.1414	751.1098	886.8791	951.1583	1005.1837	1040.4135	1090.6164	1113.9776	1191.9774	1251.3074	1285.6949	1374.8552	1425.3313	1449.7081	1484.9044	1758.1334	2345.4138	2970.2004	3138.7433	3192.8773	3238.6147	3638.484
OC1CC1(C=O)C#N	O[C@H]1C[C@]1(C=O)C#N	
InChI=1S/C5H5NO2/c6-2-5(3-7)1-4(5)8/h3-4,8H,1H2	InChI=1S/C5H5NO2/c6-2-5(3-7)1-4(5)8/h3-4,8H,1H2/t4-,5+/m0/s1
