17
gdb 31399	3.34812	1.12739	0.89979	4.9657	79.22	-0.2331	-0.052	0.1811	1289.9016	0.136446	-421.896476	-421.888298	-421.887354	-421.929823	30.41	
C	 0.0413295233	 1.5572962986	 0.1655553702	-0.373532
C	 0.0036577078	 0.0366559893	-0.0705732621	-0.287017
C	-1.3977807798	-0.5184654466	-0.0507897253	 0.329276
C	-2.0206686947	-0.9482559607	-1.1805297896	-0.361918
C	-3.3730376069	-1.4621037478	-1.184890278	 0.433744
O	-4.0106228215	-1.8596891071	-2.121507455	-0.344023
O	-4.0011235178	-1.4901036965	 0.0831328414	-0.220737
C	-3.3737798009	-1.0685558978	 1.1884134281	 0.095522
C	-2.1165809518	-0.5853595924	 1.1926362324	-0.254285
H	 1.0733977602	 1.9192263051	 0.161448072	 0.124161
H	-0.5103064229	 2.0862780402	-0.6171538564	 0.131288
H	-0.4054387544	 1.8245881531	 1.1280701344	 0.124687
H	 0.4739655111	-0.1993360271	-1.0299704183	 0.115276
H	 0.5946101456	-0.4636159917	 0.7070121887	 0.11642
H	-1.5313740832	-0.9285175328	-2.1471378321	 0.118034
H	-3.9981558399	-1.1673285341	 2.0693746113	 0.142324
H	-1.6656625842	-0.2651130917	 2.1229237183	 0.110779
55.3763	131.2702	157.2991	208.8261	286.4314	328.5422	422.811	460.9367	519.9219	581.8873	683.1707	728.6703	750.4815	791.8506	806.1924	819.4856	890.1799	945.9578	965.9962	982.8553	1071.4396	1085.7544	1098.0918	1140.2115	1212.251	1271.3479	1293.274	1346.9201	1357.5257	1410.4913	1472.1426	1485.3378	1497.3439	1507.8469	1584.0899	1684.8801	1844.7776	3030.3034	3041.8787	3080.8281	3115.1839	3118.5728	3198.1821	3204.7824	3221.2053
CCC1=CC(=O)OC=C1	CCc1cc(=O)occ1	
InChI=1S/C7H8O2/c1-2-6-3-4-9-7(8)5-6/h3-5H,2H2,1H3	InChI=1S/C7H8O2/c1-2-6-3-4-9-7(8)5-6/h3-5H,2H2,1H3
