21
gdb 76550	2.50348	1.23469	1.10839	3.0152	78.85	-0.2367	0.0638	0.3005	1236.7951	0.180465	-424.190953	-424.181165	-424.180221	-424.225432	36.195	
C	-0.0745358244	 1.5273664918	-0.0653015194	-0.420255
C	 0.0824554589	 0.0223439599	-0.0680232046	-0.127769
C	 1.4593179726	-0.6171923888	-0.1388407512	 0.005587
O	 2.6071955141	 0.1817466007	-0.0805082182	-0.420644
C	 0.6699316169	-0.6937630618	 1.1220665561	 0.250878
C	 1.0612017537	-0.121577081	 2.4774840715	-0.135012
O	 0.5302062019	-1.2896227052	 3.1446950897	-0.301239
C	 0.1647667103	-1.9182366567	 1.8887896876	 0.081122
C	-1.3109980681	-2.2609769548	 1.8246983654	-0.399513
H	 0.8011079115	 2.0111885901	 0.3752668345	 0.131003
H	-0.1918146298	 1.9124323846	-1.0845182936	 0.113503
H	-0.9561340633	 1.8352875823	 0.5067456321	 0.12218
H	-0.6994144444	-0.5191825842	-0.5973439357	 0.083536
H	 1.5652659021	-1.5288396439	-0.7295827612	 0.083681
H	 2.7352066185	 0.5890337792	-0.9439502809	 0.290561
H	 2.139138393	-0.0028770983	 2.6384625763	 0.114039
H	 0.5474505652	 0.7966626373	 2.7896585845	 0.09817
H	 0.7726895938	-2.8200638617	 1.7209915566	 0.073036
H	-1.9253139216	-1.3654709531	 1.956676048	 0.119441
H	-1.5617259218	-2.7198374904	 0.861554938	 0.110824
H	-1.564009749	-2.974396626	 2.6151755245	 0.12687
75.4864	127.4496	166.5306	171.1261	187.6619	220.7095	241.7845	288.7741	322.4389	416.7925	449.2561	519.4358	579.2636	613.957	780.6558	798.8841	862.1097	882.0362	955.1118	997.0982	1008.3484	1023.6653	1037.6629	1080.6634	1096.032	1115.3708	1142.7444	1150.9296	1159.1669	1174.3263	1214.4212	1274.3039	1285.3235	1307.9867	1363.552	1374.4939	1383.358	1405.7507	1413.4389	1479.5324	1486.7351	1492.4372	1497.75	1508.681	1527.6558	2985.3197	3012.54	3031.8374	3033.2744	3057.6116	3081.0499	3088.7284	3103.0274	3112.505	3116.7912	3128.6579	3802.5259
CC1C(O)C11COC1C	C[C@H]1[C@@H](O)[C@]21CO[C@H]2C	
InChI=1S/C7H12O2/c1-4-6(8)7(4)3-9-5(7)2/h4-6,8H,3H2,1-2H3	InChI=1S/C7H12O2/c1-4-6(8)7(4)3-9-5(7)2/h4-6,8H,3H2,1-2H3/t4-,5-,6+,7-/m0/s1
