16
gdb 33971	2.35767	1.7743	1.21764	2.5064	76.69	-0.2376	0.0118	0.2494	1031.4983	0.122664	-400.637201	-400.629356	-400.628412	-400.669425	30.448	
C	 0.0645115537	-1.1959446522	 0.0390484648	-0.404337
C	 0.0236997482	 0.0058220837	 0.0153194856	 0.227517
C	-0.0748167354	 1.4239206993	-0.0083938948	 0.058573
C	 0.267722749	 2.2833880355	-1.1757519173	-0.268218
N	 1.1226691131	 2.4001254309	 0.0090616087	-0.160043
C	 0.3561318018	 3.2705952436	 0.97577832	-0.256471
C	-0.8088895656	 2.2811628765	 1.011366194	 0.390782
C	-2.2364556638	 2.3891764144	 1.3110001098	-0.273556
O	-1.3099553958	 1.7616160264	 2.2168417839	-0.259383
H	 0.112983828	-2.2563871698	 0.0701556187	 0.195185
H	 0.7573920415	 1.7968481702	-2.0131531866	 0.139361
H	-0.3945063042	 3.1059423913	-1.4424420462	 0.11412
H	 0.8766689156	 3.3137609826	 1.9344299356	 0.136818
H	 0.1693526854	 4.2833285509	 0.6046968474	 0.113083
H	-2.6498463264	 3.3366599039	 1.653345692	 0.121034
H	-2.9415545548	 1.7141233627	 0.8285531843	 0.125534
105.7129	134.7331	183.9104	289.7448	321.7117	416.6857	454.5897	482.	560.7199	579.8705	601.5362	627.7446	666.1851	751.2725	849.3038	863.1711	868.0553	893.2838	960.7822	998.5518	1075.6289	1108.962	1121.461	1127.5733	1141.2302	1165.4137	1194.6901	1249.4426	1276.5436	1340.3535	1440.8104	1483.4039	1500.4956	1536.1822	2237.1969	3052.6087	3084.8689	3095.3276	3123.5767	3174.6859	3201.7835	3501.6502
C#CC12CN1CC21CO1	C#C[C@]12CN1C[C@]12CO1	
InChI=1S/C7H7NO/c1-2-6-3-8(6)4-7(6)5-9-7/h1H,3-5H2	InChI=1S/C7H7NO/c1-2-6-3-8(6)4-7(6)5-9-7/h1H,3-5H2/t6-,7-,8?/m1/s1
