19
gdb 39179	2.27262	1.79553	1.61629	1.1737	83.02	-0.2414	0.0029	0.2443	976.7456	0.160728	-385.863307	-385.855798	-385.854854	-385.894927	30.353	
C	 0.1690611021	 1.3954128962	 0.4141740985	-0.23179
C	 1.6354513005	 1.4069890239	-0.116735086	 0.046411
O	 1.7611590804	 2.0799150166	-1.3628798365	-0.273623
C	 1.4600914345	 1.3602327739	-2.5528651666	-0.120232
C	 0.1046976855	 0.6918545232	-2.6452497716	-0.077618
C	-0.5246869025	 0.0642858204	-1.6512121689	-0.060965
C	 2.3980381929	-1.0964990206	-0.0439072193	-0.485824
C	 1.5276275315	-0.1111379832	-0.1926231389	 0.368495
C	 0.0021676584	-0.0245009789	-0.2375099628	-0.159005
H	 0.1339043001	 1.3516842233	 1.5059706965	 0.102037
H	-0.4770013897	 2.1902613188	 0.0384368139	 0.105272
H	 2.4056374666	 1.8289920731	 0.5346861908	 0.083823
H	 1.5510011091	 2.1066530592	-3.3475388968	 0.111384
H	 2.2380003548	 0.6005348103	-2.7357965975	 0.112124
H	-0.349656114	 0.7080901315	-3.6331012959	 0.092551
H	-1.4901243351	-0.3969482559	-1.8421831733	 0.090316
H	 2.088099129	-2.1370500825	-0.0214538296	 0.110806
H	 3.4598099091	-0.8987816962	 0.0692025267	 0.112888
H	-0.5471543532	-0.772030733	 0.3393042973	 0.072947
128.497	170.3967	203.71	318.7242	364.8114	402.2602	427.5905	481.3512	623.9989	676.6118	718.0575	756.3218	768.9504	812.8303	843.5436	885.7757	915.3852	928.3122	943.5103	952.4542	984.5727	1029.0263	1053.7163	1065.21	1114.2202	1151.0052	1157.4598	1215.7749	1229.0232	1250.191	1268.2466	1292.9942	1324.9347	1358.372	1397.5208	1409.0223	1448.2757	1466.5839	1480.6532	1710.855	1754.0952	2969.5412	3060.4655	3072.6123	3078.1586	3080.706	3135.1858	3137.2501	3146.039	3169.5977	3217.1949
C1C2OCC3C4CC23C14	C1[C@@H]2OCC=C[C@H]1C2=C	
InChI=1S/C8H10O/c1-5-4-2-8(5)6(4)3-9-7(1)8/h4-7H,1-3H2	InChI=1S/C8H10O/c1-6-7-3-2-4-9-8(6)5-7/h2-3,7-8H,1,4-5H2/t7-,8+/m1/s1
