17
gdb 53296	2.82244	0.88985	0.73192	3.5932	78.53	-0.2503	0.0217	0.2719	1556.6449	0.133082	-421.750876	-421.741411	-421.740467	-421.787566	32.497	
C	 0.0932884815	 1.539115348	-0.2400631994	-0.501956
C	 0.0146446851	 0.0899694535	-0.1398553623	 0.122654
C	-0.0511309881	-1.1093447103	-0.047532693	 0.076948
C	-0.090491408	-2.5446946477	 0.0317685828	-0.180681
O	-0.2686919378	-3.1460985485	 1.3270364671	-0.243329
C	-1.3185729182	-3.298926056	 0.3754907564	 0.051337
C	-2.6071826521	-2.6137668285	 0.6747659145	 0.054077
C	-3.8060160875	-2.8851549429	-0.1297142765	-0.179557
O	-3.656715874	-3.4516054098	 1.1699597925	-0.232049
H	 0.9874832765	 1.8494930256	-0.7912091684	 0.15484
H	-0.7792821594	 1.9519878145	-0.7579546129	 0.152126
H	 0.1390676418	 1.998020939	 0.7535218301	 0.157989
H	 0.6422496276	-3.0605678533	-0.5891457976	 0.114095
H	-1.427482886	-4.3074976029	-0.026752598	 0.104154
H	-2.5114535764	-1.6520908886	 1.1747766557	 0.113961
H	-4.5689394508	-2.1144378662	-0.2266549463	 0.120541
H	-3.7532669044	-3.5918669457	-0.9573915345	 0.11485
19.787	55.0122	78.6824	128.6385	193.3362	244.5561	316.5961	333.9722	390.1244	469.8361	535.0497	584.6636	734.9873	834.9956	864.4467	871.6878	902.9726	955.4199	1047.8427	1051.4074	1056.6569	1084.7933	1109.8943	1154.4464	1161.2429	1178.3739	1196.8474	1279.6998	1286.9704	1328.8148	1403.6432	1413.6884	1475.0942	1476.6358	1481.3336	1531.6324	2369.3218	3029.3913	3082.2294	3091.1982	3093.6474	3097.8459	3108.5041	3140.6221	3169.5517
CC#CC1OC1C1CO1	CC#C[C@H]1O[C@H]1[C@H]1CO1	
InChI=1S/C7H8O2/c1-2-3-5-7(9-5)6-4-8-6/h5-7H,4H2,1H3	InChI=1S/C7H8O2/c1-2-3-5-7(9-5)6-4-8-6/h5-7H,4H2,1H3/t5-,6-,7-/m1/s1
