22
gdb 109341	2.78817	1.26552	0.97372	1.43	88.71	-0.2266	0.0212	0.2478	1305.7356	0.196332	-367.208265	-367.199526	-367.198582	-367.24189	33.813	
C	-0.2450153173	 1.563504541	-0.0826068408	-0.374349
C	 0.0870184383	 0.0645086448	 0.0229612955	-0.280599
C	 0.791172501	-0.4948038518	-1.1885448885	 0.364321
C	 2.0671510338	-0.8917417699	-1.1731633732	-0.162563
C	 2.7726219226	-1.483069131	-2.3708647116	-0.255524
C	 1.807743607	-2.2644974247	-3.2843783034	-0.209799
C	 0.5135520447	-1.4979138975	-3.5295315798	-0.028569
N	-0.6555106588	-1.9092081438	-2.7201769243	-0.340089
C	 0.0114180696	-0.6062135032	-2.4564165927	-0.140735
H	 0.6660002563	 2.1560525446	-0.214222984	 0.117597
H	-0.9058323598	 1.7763275002	-0.9292124262	 0.114593
H	-0.7501798834	 1.9137541929	 0.8230703762	 0.112405
H	 0.7098216488	-0.1031882827	 0.9088383826	 0.097524
H	-0.8433189119	-0.4973783995	 0.1829676544	 0.109544
H	 2.6409752731	-0.800612342	-0.2528139029	 0.076631
H	 3.2656717704	-0.6825791083	-2.9426623722	 0.106509
H	 3.5799030781	-2.1446239364	-2.037485371	 0.100419
H	 2.296422637	-2.4993809825	-4.235961365	 0.089953
H	 1.5538425681	-3.2151511586	-2.8055587424	 0.116678
H	 0.3181386187	-1.1952471348	-4.555431105	 0.079221
H	-1.5097770467	-1.7460541507	-3.249636775	 0.223948
H	-0.5357694295	 0.285419184	-2.7568653806	 0.082885
63.68	103.7751	177.1875	202.7432	244.2644	296.4354	368.2291	418.9271	463.486	527.7263	624.1263	650.7829	778.437	784.1632	791.047	861.9969	876.7046	898.82	929.6212	932.0455	971.0291	981.0943	1036.1267	1058.0496	1076.5981	1108.2694	1112.6285	1161.0951	1182.3887	1204.1032	1229.5772	1249.2155	1279.0589	1281.3307	1331.4355	1344.8606	1359.5758	1381.3603	1409.3437	1414.8715	1457.9542	1477.1041	1481.5604	1486.5418	1500.5732	1506.6337	1727.0464	2995.4296	3015.8213	3034.8154	3041.1276	3057.7585	3060.2857	3089.0863	3102.4556	3107.0157	3117.4653	3133.3863	3142.0289	3479.4661
CCC1=CCCC2NC12	CCC1=CCC[C@H]2N[C@@H]12	
InChI=1S/C8H13N/c1-2-6-4-3-5-7-8(6)9-7/h4,7-9H,2-3,5H2,1H3	InChI=1S/C8H13N/c1-2-6-4-3-5-7-8(6)9-7/h4,7-9H,2-3,5H2,1H3/t7-,8+/m1/s1
