13
gdb 49125	3.52934	1.25235	0.92435	3.7333	72.74	-0.2611	-0.1117	0.1494	1152.3809	0.089773	-452.804929	-452.797286	-452.796342	-452.837584	27.525	
N	-0.1359213334	 1.2992863186	 0.0110088837	-0.514453
C	-0.0043896874	 0.0328737741	 0.0032654289	 0.416885
N	 1.1331881436	-0.7687015685	-0.0071054042	-0.415958
C	 0.8255418372	-2.1359706858	-0.0130735447	 0.379401
O	 1.6261010693	-3.0322244094	-0.0224023109	-0.31834
C	-0.6843840083	-2.1774785261	-0.005649721	 0.087082
C	-1.5234123063	-3.3905405167	-0.0081756302	 0.090088
O	-1.1104827722	-4.5222886462	-0.0164999701	-0.232718
C	-1.1408661557	-0.9131928951	 0.0038019626	-0.227196
H	 0.7669475529	 1.7782232401	 0.0090281653	 0.227732
H	 2.0834451822	-0.4340731203	-0.0102462424	 0.268159
H	-2.6139563942	-3.1673668641	-0.0015028812	 0.084247
H	-2.1669539476	-0.5708374905	 0.0109610442	 0.15507
78.6979	138.8237	167.7811	217.6927	357.0008	372.4967	433.0903	474.7096	531.7996	642.9076	677.9714	756.847	763.8402	788.7578	880.0496	928.7643	948.7799	1039.9802	1091.0934	1145.7688	1179.0439	1335.886	1346.8134	1393.2647	1427.9817	1652.9845	1736.6068	1798.3199	1862.7139	2879.5359	3239.0863	3462.033	3654.4711
N=C1NC(=O)C(C=O)=C1	[NH]C1=C[C](C(=O)N1)C=O	
InChI=1S/C5H4N2O2/c6-4-1-3(2-8)5(9)7-4/h1-2H,(H2,6,7,9)	InChI=1S/C5H4N2O2/c6-4-1-3(2-8)5(9)7-4/h1-2H,(H2,6,7,9)
