22
gdb 14046	3.99239	1.55771	1.45478	0.0734	80.83	-0.28	0.0772	0.3572	995.1835	0.202838	-313.080109	-313.072311	-313.071367	-313.113266	30.329	
C	 0.0910418729	 1.667841684	-0.0482094364	-0.207988
C	 1.6024904942	 1.4711536714	 0.2419922876	-0.259349
C	 1.308443615	-0.0197468486	 0.6171340341	 0.396032
C	-0.067984389	 0.1241302717	-0.089868533	-0.288429
C	 2.294787719	-1.0973319901	 0.1433704241	-0.2822
C	 3.3229244008	-1.2786315787	 1.2952803712	-0.199508
C	 2.7305617566	-0.5095841147	 2.5092283091	-0.203033
C	 1.2599273997	-0.256507808	 2.1351914528	-0.255993
H	-0.4379941868	 2.1138880062	 0.7982871368	 0.100539
H	-0.1768033047	 2.223878407	-0.9496255889	 0.093215
H	 2.2081721184	 1.5503364375	-0.6662435794	 0.091945
H	 2.0546624462	 2.1022284567	 1.0130530533	 0.090511
H	-0.9331945115	-0.3116409671	 0.4191416602	 0.089132
H	-0.0403112172	-0.2624898512	-1.1138145371	 0.093374
H	 1.7458693803	-2.0325811369	-0.0231724901	 0.093384
H	 2.7642941673	-0.8358981534	-0.8101970102	 0.087947
H	 3.4644327538	-2.3384123311	 1.5265461617	 0.096824
H	 4.3075488171	-0.8870364881	 1.0247569842	 0.096647
H	 2.8402750018	-1.0539569843	 3.4512781086	 0.091293
H	 3.2481039043	 0.447721667	 2.6362788436	 0.098091
H	 0.8105126271	 0.5737041088	 2.6899382458	 0.088595
H	 0.6556643347	-1.1503020681	 2.3419252821	 0.088968
21.4794	119.8804	165.4925	253.7842	366.2012	371.7966	458.344	602.0338	673.6219	717.4081	783.2983	793.6811	824.948	870.9194	889.9539	907.8166	920.6413	942.2984	958.3107	992.7726	1008.2452	1019.0476	1037.3747	1083.3243	1125.8142	1190.7245	1199.6189	1213.6824	1223.2864	1240.7266	1257.1697	1261.086	1274.4151	1291.7928	1295.8888	1311.3958	1332.034	1342.3257	1358.5872	1474.1113	1481.9242	1484.1588	1491.9598	1493.3662	1506.3706	1516.7314	3013.7855	3024.7508	3038.1421	3039.7016	3043.4017	3054.3986	3059.4532	3066.872	3073.6809	3082.4496	3084.6089	3090.5356	3100.2924	3113.7719
C1CC2(C1)CCCC2	C1CC2(C1)CCCC2	
InChI=1S/C8H14/c1-2-5-8(4-1)6-3-7-8/h1-7H2	InChI=1S/C8H14/c1-2-5-8(4-1)6-3-7-8/h1-7H2
