14
gdb 34838	3.70775	1.15867	0.97506	2.047	73.32	-0.2719	0.0017	0.2736	1155.6596	0.099632	-399.446914	-399.439318	-399.438373	-399.479165	28.697	
C	 0.0081895147	-1.2832745666	-0.0159841307	-0.394105
C	 0.0104268465	-0.0821347359	 0.0081458173	 0.309463
C	-0.0282553593	 1.3609303002	-0.00205905	-0.235372
C	 0.0915005165	 2.1180236522	 1.3592508924	 0.044906
O	 1.500944196	 1.7042676134	 1.4529968641	-0.29347
C	 1.3234623921	 2.141852451	 0.0588903712	 0.044906
C	 0.5767354614	 3.3992191034	 0.6084619082	-0.155364
C	-0.3252503934	 4.1652585773	-0.2320436447	 0.272879
N	-1.0438886562	 4.7751171592	-0.9017076341	-0.331483
H	 0.016603749	-2.3453134239	-0.0274748682	 0.202407
H	-0.7721244611	 1.7552599381	-0.6995751637	 0.137922
H	-0.5298461023	 2.0456592872	 2.2502554903	 0.126792
H	 2.1806894591	 2.0980898217	-0.6107692571	 0.126792
H	 1.213579487	 4.0344854529	 1.2234490549	 0.143726
106.9647	141.9962	188.0387	195.2799	384.3862	437.2569	484.2078	535.9474	539.8603	640.2011	647.6287	649.4084	760.9448	807.2905	871.1218	901.3059	905.9876	940.5001	1034.8455	1054.7991	1071.3106	1112.8108	1142.4738	1172.0216	1180.5648	1230.237	1260.2203	1347.2775	1384.5622	2244.6101	2354.8377	3082.0078	3130.7508	3141.9284	3146.8909	3503.1055
C#CC1C2OC1C2C#N	C#C[C@H]1[C@H]2O[C@@H]1[C@H]2C#N	
InChI=1S/C7H5NO/c1-2-4-6-5(3-8)7(4)9-6/h1,4-7H	InChI=1S/C7H5NO/c1-2-4-6-5(3-8)7(4)9-6/h1,4-7H/t4-,5-,6+,7-
