19
gdb 5949	4.03554	1.2421	1.20406	4.8066	68.49	-0.2466	0.0318	0.2784	1076.1283	0.162896	-402.22415	-402.214259	-402.213315	-402.258458	35.249	
C	-0.0539201591	 1.5808680459	 0.0913792795	-0.403617
C	 0.0031270786	 0.0440374594	 0.0821127786	 0.27557
C	 0.7153749119	-0.4853356661	 1.3382330671	-0.403685
C	-1.4203607358	-0.5372813581	-0.004012289	-0.109603
O	-2.1464568337	-0.1242335398	 1.1361503208	-0.413944
N	 0.6873607817	-0.4352361004	-1.1347205318	-0.31417
C	 1.9714830493	-0.1644134641	-1.4805961033	 0.160199
O	 2.7560389398	 0.5155735119	-0.8507471324	-0.332652
H	 0.9549976002	 1.9932219846	 0.1299622919	 0.150085
H	-0.5470007878	 1.9519431277	-0.8131605596	 0.101544
H	-0.6218212255	 1.9234769373	 0.9589585329	 0.130385
H	 0.1655135368	-0.1800928317	 2.2310115653	 0.130658
H	 0.7641975619	-1.5791027892	 1.3196945338	 0.101405
H	 1.732206096	-0.0935749317	 1.3849805753	 0.149862
H	-1.896282972	-0.1798661438	-0.9327104825	 0.086357
H	-1.3541753892	-1.6372091958	-0.0588245635	 0.0857
H	-3.038201781	-0.4773188824	 1.0743454464	 0.293997
H	 0.168387956	-1.0251894535	-1.7671047454	 0.239713
H	 2.2403653318	-0.6502695203	-2.4420340041	 0.072197
65.5246	109.1976	170.9298	188.9744	210.1443	229.542	256.2139	265.179	340.5905	349.0616	395.0218	417.7312	512.4905	524.1447	721.9311	833.9193	895.1103	925.3232	970.2574	1004.3099	1030.2514	1057.6445	1103.2604	1179.55	1208.1859	1216.571	1243.4645	1296.3178	1300.6849	1392.0777	1405.6704	1436.2126	1461.4622	1479.9539	1492.6751	1496.0261	1509.7678	1528.3284	1534.5186	1800.002	2912.1124	2948.8866	2982.354	3045.0782	3049.0504	3119.9582	3123.6525	3152.2046	3156.3484	3614.3445	3840.9487
CC(C)(CO)NC=O	CC(C)(CO)NC=O	
InChI=1S/C5H11NO2/c1-5(2,3-7)6-4-8/h4,7H,3H2,1-2H3,(H,6,8)	InChI=1S/C5H11NO2/c1-5(2,3-7)6-4-8/h4,7H,3H2,1-2H3,(H,6,8)
