25
gdb 123025	4.73878	0.5369	0.5095	0.8444	91.56	-0.2473	0.0917	0.339	2287.9468	0.226973	-389.478802	-389.467582	-389.466638	-389.516579	39.814	
C	-0.0192377094	 1.4889594357	 0.0409604015	-0.383943
C	-0.0343472269	-0.018861814	 0.2292766736	-0.026995
O	-1.3179349267	-0.5027124302	-0.1028527161	-0.24437
C	-1.4445118433	-1.9001528069	 0.0451385789	-0.039584
C	-2.8634118942	-2.3064002121	-0.339661049	-0.230652
C	-3.079356065	-3.7999458272	-0.214244044	 0.009322
C	-3.446879598	-4.42911259	 1.1125460672	-0.291004
C	-4.4430132696	-4.4272533577	-0.0222808687	-0.006343
C	-5.7210344704	-3.6204799222	 0.0549338562	-0.403111
H	 0.9656534901	 1.895928724	 0.2891014776	 0.112288
H	-0.2513961217	 1.7478895399	-0.9960556119	 0.125367
H	-0.7642281699	 1.9632330706	 0.6862319364	 0.125086
H	 0.730035732	-0.4956510029	-0.4087180617	 0.082075
H	 0.2140321084	-0.2805426198	 1.2725298221	 0.082153
H	-0.7098123267	-2.4221415996	-0.5936132926	 0.078808
H	-1.2320853187	-2.2003227879	 1.0856238046	 0.085825
H	-3.5609568872	-1.7536914152	 0.2980081463	 0.103294
H	-3.0517564906	-1.9758916831	-1.3687746684	 0.103587
H	-2.3978469146	-4.3854229292	-0.8285551984	 0.077585
H	-2.9772080743	-5.3618545628	 1.4056350303	 0.105701
H	-3.6425741564	-3.7541777509	 1.9413013796	 0.106343
H	-4.5678272653	-5.3833064389	-0.5253025194	 0.080278
H	-5.5848811734	-2.6867320591	 0.6075610472	 0.117504
H	-6.0943699879	-3.3635631681	-0.9429701021	 0.115797
H	-6.5059546003	-4.1891908724	 0.5659134609	 0.114989
45.3389	51.2798	82.6554	111.3736	136.3029	167.3953	207.2924	237.1881	247.1625	327.403	372.5067	427.3317	473.6833	537.0423	757.2053	796.8103	820.6652	831.462	862.8591	904.1731	908.5093	946.5755	1009.9075	1039.6814	1056.9255	1077.2446	1093.582	1113.0826	1146.5342	1154.112	1167.6549	1179.9328	1198.5923	1200.2779	1242.0003	1253.4176	1295.8845	1301.0732	1312.0639	1385.6555	1394.0679	1407.1325	1419.0849	1430.7012	1451.6053	1483.2265	1484.8351	1493.654	1497.8707	1499.7781	1505.7933	1516.6665	1538.7501	2938.9287	2952.6717	2970.0662	2971.9921	3027.9606	3033.4876	3043.9621	3078.3539	3085.5762	3105.5025	3118.0296	3118.2159	3120.1971	3121.3666	3134.9878	3205.3749
CCOCCC1CC1C	CCOCC[C@H]1C[C@H]1C	
InChI=1S/C8H16O/c1-3-9-5-4-8-6-7(8)2/h7-8H,3-6H2,1-2H3	InChI=1S/C8H16O/c1-3-9-5-4-8-6-7(8)2/h7-8H,3-6H2,1-2H3/t7-,8+/m1/s1
