19
gdb 127648	3.24131	1.01058	0.82435	2.0153	78.54	-0.2309	0.0229	0.2538	1392.4578	0.160118	-419.225147	-419.215755	-419.214811	-419.260771	33.052	
C	 0.0186728933	 1.3914252738	 0.0393995457	-0.334022
N	 0.0174864629	-0.0567158422	 0.0621919169	-0.00906
N	-0.0279750056	-0.7316907016	-1.1080966654	-0.267731
C	-0.0481478105	-2.0141564632	-0.75760968	-0.002536
C	-0.0205648409	-2.17250162	 0.6401004172	-0.30816
C	 0.0186371956	-0.8844178753	 1.1458772556	 0.355819
C	 0.1045339765	-0.3911349095	 2.5554953629	-0.341
C	 1.5554970168	-0.2081929225	 3.0431612467	-0.055749
O	 1.623191534	 0.3181214296	 4.3553935156	-0.411668
H	 0.9164688721	 1.7978816338	 0.5152474488	 0.139756
H	 4.1501*^-6	 1.6923863448	-1.0071201956	 0.164052
H	-0.8634368034	 1.7962128089	 0.5460113123	 0.139775
H	-0.0853275672	-2.775619105	-1.5229047602	 0.108672
H	-0.0344475317	-3.0878735831	 1.210474328	 0.096262
H	-0.42113809	 0.5623723217	 2.6763006925	 0.115945
H	-0.3986373152	-1.1122466787	 3.2105842484	 0.107871
H	 2.0935597792	-1.1636774801	 2.9538500456	 0.100414
H	 2.0767239582	 0.5128847999	 2.4049638848	 0.117397
H	 1.2691424459	-0.3423843415	 4.9594499703	 0.283962
42.9618	60.9522	96.4176	115.811	205.5767	272.7439	301.9442	346.7417	363.3613	436.834	662.8103	669.1919	708.7569	768.8448	788.4709	802.9241	884.7445	944.6567	1005.509	1023.0868	1039.6747	1069.1679	1075.8833	1138.1068	1148.7775	1207.5009	1231.0395	1297.8968	1308.0291	1327.3149	1367.5589	1392.1975	1416.2268	1422.672	1455.8953	1483.0441	1486.6517	1501.3965	1510.5265	1515.5258	1578.6589	2996.5809	3033.9358	3038.7218	3067.9451	3088.554	3096.2253	3167.2513	3240.7062	3262.0373	3815.8329
CN1N=CC=C1CCO	Cn1nccc1CCO	
InChI=1S/C6H10N2O/c1-8-6(3-5-9)2-4-7-8/h2,4,9H,3,5H2,1H3	InChI=1S/C6H10N2O/c1-8-6(3-5-9)2-4-7-8/h2,4,9H,3,5H2,1H3
