17
gdb 46335	3.18874	1.27043	1.1744	3.0651	67.46	-0.2674	0.004	0.2714	1090.0876	0.137649	-458.988796	-458.981124	-458.98018	-459.021945	28.195	
O	-0.3614306881	 0.1502904812	-0.2501036614	-0.332461
C	-0.1664241106	 1.2931638803	 0.014330113	 0.419509
O	-1.0615899346	 2.2181982833	 0.4849503441	-0.244524
C	-0.0297877106	 3.2586877645	 0.5429784844	-0.128021
C	 1.013258937	 2.2684428137	-0.0169991244	 0.11885
C	 2.2635661638	 1.9248840232	 0.8280258663	-0.325098
C	 3.4426509041	 2.1867026241	-0.1406656043	-0.078036
O	 2.9224483601	 3.0256815281	-1.1608511857	-0.236683
C	 1.6135901375	 2.5536138504	-1.4092644147	-0.156413
H	-0.2962197702	 4.1026748766	-0.0972628183	 0.127785
H	 0.1222679211	 3.5884713948	 1.5730417329	 0.12556
H	 2.3170856516	 2.5708404004	 1.707687406	 0.119597
H	 2.2421265256	 0.8881832216	 1.1720589681	 0.134001
H	 4.2862160549	 2.7022520859	 0.3234840195	 0.117186
H	 3.8037171201	 1.2394925124	-0.5698015406	 0.103611
H	 1.6316124767	 1.6188444652	-1.9930372737	 0.114832
H	 1.0716029618	 3.3137708243	-1.9764645712	 0.120303
42.4782	131.6171	161.2934	231.4869	286.4608	379.3358	412.9322	599.3304	668.2617	720.4842	740.6672	796.4517	838.3292	909.7437	931.286	964.0272	969.532	982.393	1024.278	1104.1347	1112.1678	1144.8132	1154.2375	1181.1407	1192.1143	1246.6272	1256.3101	1286.3541	1321.7964	1354.8418	1358.0875	1400.4521	1485.6885	1501.4073	1517.0742	1523.6485	1931.9221	2977.2172	2989.689	3066.6201	3069.099	3101.5558	3104.2809	3119.8844	3129.3556
O=C1OCC11CCOC1	O=C1OC[C@]21CCOC2	
InChI=1S/C6H8O3/c7-5-6(4-9-5)1-2-8-3-6/h1-4H2	InChI=1S/C6H8O3/c7-5-6(4-9-5)1-2-8-3-6/h1-4H2/t6-/m0/s1
