16
gdb 27104	2.94706	1.38332	1.01058	2.8505	74.65	-0.2082	-0.0024	0.2057	1144.6088	0.124419	-437.941479	-437.932995	-437.932051	-437.975576	30.402	
C	-0.5048628442	 1.2896869065	-0.2169172565	-0.525582
C	-0.0051194035	-0.1126554093	-0.049323711	 0.180155
C	 0.3780445608	-1.0043707408	-1.0084055972	 0.338827
N	 0.4272508624	-0.982141295	-2.4021886701	-0.402296
C	-0.5407421771	-0.5022321487	-3.2458279453	 0.138385
O	-1.5705859268	 0.0364596505	-2.9124899036	-0.296608
O	 0.8265364011	-2.1688572004	-0.4593400773	-0.179346
C	 0.7294573395	-2.0223360098	 0.8928136541	-0.022988
C	 0.2206896505	-0.8032951607	 1.1936695268	-0.24195
H	-0.9973035202	 1.630419791	 0.6980522466	 0.120584
H	 0.315785896	 1.9874466783	-0.4244603956	 0.124073
H	-1.2155438046	 1.353467721	-1.0434474765	 0.172991
H	 1.1993096589	-1.4758967975	-2.8270459779	 0.261384
H	-0.2484544081	-0.6554159859	-4.3026194533	 0.084614
H	 1.0638977348	-2.8625258694	 1.4774875522	 0.136397
H	 0.0286445804	-0.4124601897	 2.1813565545	 0.111359
39.5848	80.1824	164.4383	201.3333	247.561	299.1298	336.7953	447.912	528.4727	606.5173	621.2795	670.2165	691.3647	728.7993	833.1633	864.7053	910.3179	992.0265	1016.5406	1065.696	1073.0253	1123.1924	1151.4676	1213.4953	1248.7543	1281.5978	1408.9018	1419.1435	1435.8818	1487.296	1507.2664	1536.7675	1551.8668	1673.2054	1810.1178	2948.9868	3029.5891	3092.155	3135.3393	3249.2044	3289.1201	3601.263
CC1=C(NC=O)OC=C1	Cc1c(NC=O)occ1	
InChI=1S/C6H7NO2/c1-5-2-3-9-6(5)7-4-8/h2-4H,1H3,(H,7,8)	InChI=1S/C6H7NO2/c1-5-2-3-9-6(5)7-4-8/h2-4H,1H3,(H,7,8)
