18
gdb 13396	5.31667	1.18435	1.07864	0.808	70.59	-0.2512	0.0106	0.2618	1151.0107	0.153333	-384.942053	-384.933911	-384.932967	-384.975371	29.197	
C	 0.2273337164	 1.4645612439	 0.0272383672	-0.384489
C	 0.0853092598	-0.0471431039	-0.0035739552	-0.037972
O	 0.7029450159	-0.577772211	 1.1629326245	-0.251965
C	 0.5836695495	-1.9696137212	 1.2863687612	 0.188309
O	 1.3361518061	-2.6741449652	 0.307226824	-0.268547
C	 2.474848274	-3.2832103602	 0.9092602556	-0.119872
C	 2.2673700143	-3.1149479172	 2.3874301466	-0.086811
C	 1.1766921604	-2.3914415282	 2.6044507858	-0.107331
H	 1.2829786112	 1.7501952733	 0.0431447976	 0.126857
H	-0.2386047988	 1.9085004426	-0.8577640673	 0.113515
H	-0.2522544301	 1.8797112405	 0.9184185656	 0.122901
H	-0.9781977078	-0.3380704701	-0.0260391113	 0.08399
H	 0.5592366045	-0.4678642231	-0.9002371479	 0.107554
H	-0.4732267521	-2.2520597086	 1.1443480531	 0.067547
H	 2.5135944501	-4.3369625118	 0.6004355074	 0.112613
H	 3.4066588919	-2.8061888555	 0.5671295521	 0.111693
H	 2.9398147825	-3.5249735336	 3.130159582	 0.110089
H	 0.7658816922	-2.0741397509	 3.5528180791	 0.111918
59.924	93.7054	118.7753	186.3743	249.5295	333.3859	360.2548	466.2994	584.6262	719.0412	782.3246	817.7867	820.9608	906.0074	929.5891	943.5619	958.5111	1009.3192	1038.933	1048.4912	1084.3743	1116.01	1136.2941	1147.4268	1186.8749	1201.5296	1292.9765	1311.3745	1367.5011	1373.8006	1388.6499	1404.1166	1442.0512	1483.3674	1500.8437	1512.4743	1528.2206	1692.1845	2958.5378	2970.0893	2985.0601	3022.6072	3033.9393	3043.4699	3117.2741	3120.4078	3213.8379	3242.6797
CCOC1OCC=C1	CCO[C@H]1OCC=C1	
InChI=1S/C6H10O2/c1-2-7-6-4-3-5-8-6/h3-4,6H,2,5H2,1H3	InChI=1S/C6H10O2/c1-2-7-6-4-3-5-8-6/h3-4,6H,2,5H2,1H3/t6-/m0/s1
