18
gdb 34306	3.2043	1.4662	1.29367	4.9106	74.71	-0.2785	0.0132	0.2916	1024.3153	0.150808	-401.98129	-401.974039	-401.973095	-402.012927	28.831	
N	 0.0160537338	-1.0935170216	-0.0222452234	-0.337594
C	-0.005954452	 0.0612389722	-0.0175993368	 0.200667
C	-0.0012882153	 1.517649799	 0.0452998971	 0.28864
C	-0.8099891905	 2.1218230554	 1.2287207866	-0.258964
C	-1.152154809	 3.5273992055	 0.6540561467	-0.222564
C	-0.4710013852	 3.4614947811	-0.7303873073	 0.069113
C	 1.0614545111	 3.5721661793	-0.5745857566	-0.222546
C	 1.411451722	 2.1669640493	-0.0037933799	-0.258923
O	-0.649843961	 2.0832930803	-1.1028259959	-0.284129
H	-1.7079932954	 1.5301170628	 1.4122796558	 0.129181
H	-0.2246920371	 2.1511313607	 2.1498680449	 0.115913
H	-2.2311579189	 3.654103217	 0.5466586336	 0.117093
H	-0.7721980599	 4.3466541014	 1.2690497506	 0.10689
H	-0.9099435884	 4.0975597932	-1.4980614543	 0.08813
H	 1.5366483959	 3.7298556003	-1.5447211191	 0.117091
H	 1.3571372115	 4.389964041	 0.0868845443	 0.106886
H	 1.8821264581	 2.1943238727	 0.9809245622	 0.115911
H	 2.0605335301	 1.6063303904	-0.6780539385	 0.129207
121.2145	162.8625	180.4897	322.8124	386.1615	511.7097	512.4944	547.9535	574.1155	593.7587	759.4277	811.9459	828.5996	835.6713	869.7487	933.8661	945.9008	954.1517	982.309	985.8291	1025.2377	1064.7847	1094.6036	1171.2111	1181.0234	1196.5975	1221.8973	1248.2672	1253.6826	1303.916	1313.6746	1330.9897	1332.8826	1349.4985	1478.6595	1491.8826	1495.6207	1514.3539	2368.194	3069.2262	3072.1213	3081.179	3084.8663	3112.4291	3115.5271	3131.7435	3132.999	3139.1769
N#CC12CCC(CC1)O2	N#C[C@@]12CC[C@@H](CC1)O2	
InChI=1S/C7H9NO/c8-5-7-3-1-6(9-7)2-4-7/h6H,1-4H2	InChI=1S/C7H9NO/c8-5-7-3-1-6(9-7)2-4-7/h6H,1-4H2/t6-,7+
