16
gdb 124892	3.74725	1.26297	1.04594	4.5299	70.45	-0.2536	-0.0059	0.2477	1123.1637	0.125109	-434.047836	-434.040047	-434.039103	-434.080564	28.899	
C	-0.255227518	 1.4476862008	-0.6372676432	-0.473424
C	-0.0546070484	 0.0573755609	-0.0812168204	 0.286313
C	 1.0895382653	-0.7658813309	-0.5254451875	-0.212958
O	 1.1021062301	-0.1296509431	 0.7559207018	-0.283515
C	-1.2616383152	-0.623593752	 0.4438190996	 0.33158
C	-2.5929161988	-0.6511513335	 0.0917101505	-0.185518
N	-3.2576486447	-1.4801507224	 0.9457397621	-0.184663
N	-2.4157484173	-1.96304955	 1.8139890096	-0.11131
N	-1.2077916257	-1.4538248365	 1.512613207	-0.241693
H	 0.6978145939	 1.8624295748	-0.9727765054	 0.134836
H	-0.9451074619	 1.4255471964	-1.4868844469	 0.135659
H	-0.6771650199	 2.1088026536	 0.1250827958	 0.143569
H	 1.0096895573	-1.8512378776	-0.5098444026	 0.124623
H	 1.7872647821	-0.356692904	-1.2544327938	 0.126159
H	-3.1011704599	-0.1415087267	-0.7103362055	 0.122261
H	-0.400774859	-1.6478134397	 2.085764179	 0.288081
65.4878	148.862	180.5004	204.1043	315.6078	358.4072	424.9941	482.8727	560.9349	638.7324	719.0249	741.288	796.7971	846.7334	871.4844	923.9095	995.9318	1020.6765	1049.549	1072.3202	1100.1597	1126.7343	1137.1897	1166.2198	1179.1602	1264.9458	1328.6738	1363.1979	1388.506	1415.3728	1437.5979	1481.9121	1493.1768	1522.5997	1606.6737	3045.9158	3087.4641	3114.8205	3133.9413	3180.0299	3273.6571	3650.2982
CC1(CO1)C1=CN=NN1	C[C@]1(CO1)c1cnn[nH]1	
InChI=1S/C5H7N3O/c1-5(3-9-5)4-2-6-8-7-4/h2H,3H2,1H3,(H,6,7,8)	InChI=1S/C5H7N3O/c1-5(3-9-5)4-2-6-8-7-4/h2H,3H2,1H3,(H,6,7,8)/t5-/m0/s1
