25
gdb 70597	1.97599	1.77387	1.38314	0.16	91.15	-0.2525	0.078	0.3305	1140.1837	0.229506	-352.374194	-352.364836	-352.363892	-352.407038	38.286	
C	-0.5674219672	 1.3513282134	 0.0176416779	-0.495095
C	-0.0704828438	-0.0779289529	 0.0187708706	 0.373405
C	-0.5824626391	-1.0038372387	 1.1024282447	-0.35175
C	 0.8719754504	-0.5946858741	 1.087288964	-0.071415
C	 1.8476542227	-1.5698051261	 0.4492828605	-0.22695
C	 1.1650764694	-1.9767779269	-0.8755483355	-0.257601
C	 0.3133248234	-0.7516104798	-1.3189941478	 0.244207
C	-0.9130960383	-1.1807526951	-2.1368968109	-0.432878
C	 1.1843644959	 0.1987191418	-2.1647831618	-0.428897
H	 0.1756045432	 2.0470438037	-0.3852137411	 0.115744
H	-1.4816959743	 1.4596536779	-0.5785221625	 0.114417
H	-0.8042511044	 1.6779966219	 1.0351358635	 0.110632
H	-1.2144303236	-0.5555920203	 1.8622069521	 0.101603
H	-0.8489834963	-2.0297419996	 0.8695206034	 0.103168
H	 1.2284194619	 0.0605533307	 1.8760377118	 0.072372
H	 2.8012548678	-1.0638112839	 0.2569961257	 0.096775
H	 2.069452338	-2.4368696982	 1.0817379072	 0.092749
H	 1.8850746581	-2.2684704103	-1.6458496647	 0.089792
H	 0.5165969276	-2.8438819184	-0.7144523366	 0.09517
H	-1.5629161952	-1.8449156922	-1.5582319271	 0.109605
H	-1.5094516925	-0.3154208399	-2.4470594569	 0.108157
H	-0.6124067131	-1.7131977216	-3.0465035337	 0.106396
H	 1.5370123726	-0.3126756182	-3.0669672623	 0.106922
H	 0.6270532137	 1.0836863621	-2.4869922567	 0.111974
H	 2.0635117527	 0.5420774546	-1.609206794	 0.111498
133.3277	207.3942	221.2274	234.7096	244.0127	276.6738	317.3376	340.6067	370.6397	404.1483	443.5513	462.0925	566.8997	615.4425	643.5148	788.6744	819.1311	827.6036	886.8822	913.5648	941.6133	947.6713	954.3979	959.3365	1008.7025	1017.1328	1044.9555	1053.7124	1073.2827	1098.1085	1126.4242	1166.4151	1166.7625	1224.3412	1237.5776	1242.1167	1287.5814	1308.3112	1334.9968	1347.6829	1393.3703	1400.2944	1417.2118	1425.3854	1482.002	1483.5057	1488.1734	1494.7132	1498.1301	1502.6552	1507.8594	1514.8868	1516.7843	3022.8653	3024.4748	3028.643	3030.8741	3046.9621	3063.5557	3082.76	3087.0061	3088.1465	3094.7818	3097.9737	3099.3443	3104.2203	3126.676	3154.3023	3205.4457
CC12CC1CCC2(C)C	C[C@]12C[C@H]1CCC2(C)C	
InChI=1S/C9H16/c1-8(2)5-4-7-6-9(7,8)3/h7H,4-6H2,1-3H3	InChI=1S/C9H16/c1-8(2)5-4-7-6-9(7,8)3/h7H,4-6H2,1-3H3/t7-,9+/m1/s1
