23
gdb 83637	2.08004	1.65117	1.30173	1.2888	84.47	-0.2441	0.0709	0.315	1136.3936	0.204954	-388.26916	-388.25983	-388.258886	-388.302594	37.027	
C	-0.6252536692	 1.3802634316	 0.054840515	-0.424288
C	-0.0639723001	-0.0312091595	-0.0503562053	-0.015335
C	 0.7333315067	-0.4766647733	-1.3043849219	-0.041087
C	 1.8227986381	 0.4952741176	-1.8522978404	-0.234114
C	 2.9203845048	-0.2949048302	-1.0779585476	-0.235518
C	 1.822390826	-1.134544239	-0.3858350965	-0.038455
C	 1.1216401017	-0.5235415594	 0.8674935545	 0.377749
C	 1.8758874888	 0.5312402342	 1.6676970782	-0.457184
O	 0.749621725	-1.6011332975	 1.7218614454	-0.477071
H	 0.1412688153	 2.1496668205	-0.0779063803	 0.115205
H	-1.3932077408	 1.5482068031	-0.7086597412	 0.115654
H	-1.0935496212	 1.5510400074	 1.0310687736	 0.108004
H	-0.8748327204	-0.7517179211	 0.1033692396	 0.074994
H	 0.1798631813	-1.0338329113	-2.061734713	 0.059713
H	 1.9344934572	 0.4803205387	-2.938950729	 0.099277
H	 1.7037713012	 1.5392291197	-1.5491533698	 0.094444
H	 3.5301862733	-0.9088176588	-1.7461653404	 0.099619
H	 3.5985885668	 0.2761871642	-0.4383887702	 0.094063
H	 1.9686570312	-2.2109278509	-0.2975342252	 0.071523
H	 2.1969096976	 1.377542568	 1.0548917291	 0.118184
H	 1.2362444314	 0.9337940423	 2.4634478624	 0.101729
H	 2.7596857362	 0.0879630022	 2.1367421305	 0.123752
H	 0.2226446593	-1.2378182886	 2.4426865827	 0.269139
65.9977	194.2127	224.0066	235.4164	247.0426	265.6817	276.8752	323.6348	378.6525	419.5697	454.6974	528.9651	594.4221	675.6884	745.1088	777.9008	825.0484	851.8267	862.7557	939.5764	954.2011	956.7783	988.6214	1009.0754	1011.4839	1076.6748	1101.0809	1125.104	1132.4376	1145.3204	1185.378	1205.2251	1210.4444	1238.3407	1248.0199	1277.2241	1281.9265	1294.7803	1328.1546	1360.603	1371.8899	1404.8251	1413.5638	1474.1316	1485.4105	1486.951	1497.5592	1502.4434	1509.1123	3023.9075	3027.7293	3040.1478	3055.2468	3060.7566	3085.0949	3085.5458	3090.0124	3096.3351	3100.9153	3109.2777	3115.2688	3119.66	3790.7992
CC1C2CCC2C1(C)O	C[C@H]1[C@H]2CC[C@H]2[C@]1(C)O	
InChI=1S/C8H14O/c1-5-6-3-4-7(6)8(5,2)9/h5-7,9H,3-4H2,1-2H3	InChI=1S/C8H14O/c1-5-6-3-4-7(6)8(5,2)9/h5-7,9H,3-4H2,1-2H3/t5-,6+,7+,8+/m0/s1
