20
gdb 94275	3.02909	1.55139	1.22967	2.4434	78.63	-0.2362	0.0763	0.3125	1069.0078	0.171587	-403.048013	-403.040168	-403.039224	-403.080342	30.873	
C	-0.2960530282	 1.4849309033	-0.0445549585	-0.406622
C	 0.1090812587	 0.022029142	-0.0484585395	 0.048472
O	 1.3206809172	-0.1947141576	-0.8161246309	-0.29924
C	 1.9953789456	-0.8148452655	 0.2953720466	-0.176792
C	 0.7819195343	-0.5815078268	 1.200583548	 0.348227
C	 0.768744454	-0.0463108833	 2.6450687219	-0.137846
C	-0.6458623906	-0.6631734534	 2.7000157183	-0.177053
N	 0.1455867258	-1.7574524677	 1.9572663445	-0.18121
C	 1.2383567883	-1.4719351888	 3.0075082624	-0.178584
H	 0.488067246	 2.1081299103	 0.3961287261	 0.118256
H	-0.4611940887	 1.8223986554	-1.0724348172	 0.131889
H	-1.2240283642	 1.6389845419	 0.5157553851	 0.117802
H	-0.7068037154	-0.6087210666	-0.4291217226	 0.086668
H	 2.222567315	-1.8719877357	 0.1068339499	 0.112205
H	 2.9198939818	-0.2871686266	 0.5633460539	 0.102423
H	 1.1229583825	 0.9174261602	 3.0264730287	 0.070224
H	-1.0227507762	-0.9909022873	 3.6725466865	 0.102852
H	-1.4400780043	-0.212160026	 2.1016767231	 0.107315
H	 2.2385040849	-1.788201029	 2.7007269032	 0.10758
H	 0.9907254635	-1.8549341387	 4.0010491602	 0.103433
81.6479	164.4128	213.8322	233.9737	277.5695	348.2264	459.967	468.5978	583.119	616.6938	753.755	781.7938	800.2101	832.7042	883.0324	906.0388	922.1236	989.1875	1014.7914	1022.8852	1034.0614	1055.6284	1084.8137	1097.4323	1108.1034	1144.8707	1162.2898	1172.7488	1181.6613	1196.9192	1209.1122	1224.3477	1262.1463	1289.0248	1299.0461	1369.6123	1376.5998	1404.9343	1484.719	1493.0768	1512.7607	1515.5645	1550.9505	3001.6852	3009.4467	3036.4164	3040.908	3050.6124	3056.5983	3065.3049	3109.0746	3113.8628	3120.8317	3128.1198
CC1OCC11C2CN1C2	C[C@H]1OC[C@]21[C@H]1CN2C1	
InChI=1S/C7H11NO/c1-5-7(4-9-5)6-2-8(7)3-6/h5-6H,2-4H2,1H3	InChI=1S/C7H11NO/c1-5-7(4-9-5)6-2-8(7)3-6/h5-6H,2-4H2,1H3/t5-,7+/m1/s1
