21
gdb 39497	2.22722	1.87305	1.31863	0.508	77.58	-0.2383	0.0843	0.3226	1051.6166	0.185448	-424.201938	-424.194097	-424.193153	-424.234056	31.52	
C	 0.0167093636	 1.514690054	-0.3119609697	-0.33905
C	 1.2671099179	 0.6982108906	-0.0186611326	-0.024722
C	 2.11572349	 0.911949754	 1.2416073748	-0.217446
C	 1.7451235605	 0.0982364405	 2.5015648433	-0.209534
C	 0.6251847065	 0.7121916205	 3.3540909436	-0.066179
O	-0.4631665184	 1.2551785568	 2.6146061606	-0.229856
C	-1.3134236671	 0.3213051591	 2.0146271528	-0.002843
O	-0.6794145971	-0.529740618	 1.1009831364	-0.238875
C	-0.09437067	 0.0386578454	-0.0437012297	 0.103446
H	-0.2929222143	 2.2018362582	 0.4640054013	 0.140936
H	-0.1637974324	 1.8609314579	-1.3242750178	 0.104019
H	 1.8672399859	 0.4657280221	-0.8941667821	 0.08121
H	 3.1431410724	 0.6422266794	 0.9754520191	 0.098312
H	 2.1478897261	 1.9786737478	 1.4964954098	 0.101815
H	 1.491934886	-0.9253314619	 2.2167078116	 0.119326
H	 2.6298106036	 0.0381943038	 3.1485194916	 0.087748
H	 0.2532356203	-0.0259432977	 4.0822692505	 0.089133
H	 1.0188673289	 1.5649699368	 3.9173227092	 0.10566
H	-1.7513538618	-0.35513089	 2.7632318344	 0.098033
H	-2.0984158983	 0.9163081218	 1.5310567002	 0.103349
H	-0.2990515724	-0.601623131	-0.8969757773	 0.095519
87.23	230.1368	245.4009	251.9381	304.178	339.2479	376.9193	459.5586	525.8611	636.441	674.224	711.6834	757.0503	810.6693	839.524	879.1357	890.9893	958.5842	971.9491	1026.7869	1061.1182	1067.3591	1079.3608	1100.1975	1134.7819	1142.0904	1155.8968	1181.2365	1200.6814	1250.3058	1261.8015	1278.1361	1308.2889	1342.9185	1368.1759	1384.3569	1395.4406	1405.0215	1414.5601	1451.812	1474.4999	1484.4001	1492.6776	1496.7504	1507.5063	2982.3708	2997.5028	3022.5793	3030.7216	3053.7698	3062.8444	3066.7169	3109.8408	3131.3172	3137.6393	3148.1953	3241.7379
C1C2CCCOCOC12	C1[C@H]2CCCOCO[C@@H]12	
InChI=1S/C7H12O2/c1-2-6-4-7(6)9-5-8-3-1/h6-7H,1-5H2	InChI=1S/C7H12O2/c1-2-6-4-7(6)9-5-8-3-1/h6-7H,1-5H2/t6-,7+/m1/s1
