14
gdb 53891	4.56286	0.76052	0.65505	3.1841	60.29	-0.262	-0.0581	0.2039	1575.2791	0.097651	-511.019565	-511.009943	-511.008999	-511.05661	31.763	
N	-0.034474043	 1.2789629046	-0.0445438693	-0.513111
C	 0.0681216944	-0.0666638322	 0.0451235443	 0.296905
O	 1.0911848068	-0.7117309142	 0.0714039885	-0.33192
C	-1.3360303911	-0.7101407002	 0.1126264582	 0.385666
O	-2.3636717266	-0.0771352034	 0.085000726	-0.364718
O	-1.2547445838	-2.036330454	 0.2018402341	-0.2165
C	-2.5000719507	-2.7402139182	 0.2629367243	-0.161528
C	-2.1909719263	-4.2237407604	 0.1654367793	 0.136393
O	-3.0386799749	-5.0671767497	 0.2756178458	-0.22945
H	 0.8007925621	 1.8367790316	-0.0975068236	 0.27476
H	-0.9450328057	 1.7078956979	-0.0589458887	 0.284084
H	-3.0223228372	-2.520505403	 1.2000692337	 0.16077
H	-3.1551283464	-2.4336116585	-0.559970527	 0.163231
H	-1.1218957774	-4.4594697903	-0.0215931257	 0.115418
22.5871	49.3494	69.9481	104.5495	154.3477	262.1379	311.9817	320.5878	385.5067	490.8955	492.7328	571.8758	650.8735	651.6203	722.1464	837.7298	880.1038	1037.9918	1059.5597	1097.8598	1107.5956	1235.9582	1259.7811	1334.9794	1383.2472	1410.1378	1467.1399	1594.728	1804.4654	1830.6115	1847.2705	2919.9934	3051.5921	3097.2902	3601.9521	3742.6994
NC(=O)C(=O)OCC=O	NC(=O)C(=O)OCC=O	
InChI=1S/C4H5NO4/c5-3(7)4(8)9-2-1-6/h1H,2H2,(H2,5,7)	InChI=1S/C4H5NO4/c5-3(7)4(8)9-2-1-6/h1H,2H2,(H2,5,7)
