17
gdb 127538	4.78694	1.24145	1.01057	1.1046	76.	-0.2311	-0.005	0.2261	1159.0292	0.139674	-414.180207	-414.172395	-414.17145	-414.213562	28.173	
C	-0.0966643069	 1.398611306	 0.010174563	-0.309535
N	-0.0475020174	-0.04808374	 0.0020766733	 0.125844
N	 0.0037329662	-0.7473413225	-1.1418763984	-0.346536
C	 0.0906534257	-1.9987559911	-0.7049100584	 0.29665
C	 0.2113638309	-3.3919552575	-1.2440340914	-0.29533
N	 0.0651491237	-4.2424882062	-0.0212845294	-0.308875
C	 0.2239790973	-3.4052927868	 1.2090764198	-0.295323
C	 0.0978111945	-2.0063212871	 0.6864015083	 0.296562
N	 0.0154518185	-0.7597358772	 1.1378098682	-0.346362
H	 0.9120952697	 1.8246890782	 0.0028187511	 0.146607
H	-0.6344437967	 1.7302235483	-0.8782100315	 0.157831
H	-0.6173185263	 1.7201972908	 0.9122921252	 0.157961
H	-0.5475302773	-3.6573726675	-1.986365887	 0.121175
H	 1.1916141324	-3.5608645226	-1.7094035131	 0.126119
H	-0.8743233183	-4.6195024815	-0.0185033156	 0.225924
H	-0.5272556914	-3.6788187669	 1.9562395758	 0.121172
H	 1.2089543754	-3.5792035364	 1.6624729202	 0.126116
41.1963	91.2059	154.7406	255.1794	273.4368	292.3006	513.9277	544.9057	651.5716	696.8427	737.9924	744.923	758.0911	866.5	889.1819	998.0675	1008.8681	1039.2554	1047.8683	1063.6229	1144.9779	1180.2213	1197.1749	1239.9093	1299.3017	1319.7635	1337.8305	1369.2854	1442.3758	1462.8436	1464.5514	1484.4142	1501.1869	1503.7763	1508.6472	1527.5635	1578.1797	3013.8251	3015.3647	3048.205	3073.8971	3074.4969	3129.4897	3171.9096	3551.0076
CN1N=C2CNCC2=N1	Cn1nc2CNCc2n1	
InChI=1S/C5H8N4/c1-9-7-4-2-6-3-5(4)8-9/h6H,2-3H2,1H3	InChI=1S/C5H8N4/c1-9-7-4-2-6-3-5(4)8-9/h6H,2-3H2,1H3
