19
gdb 58404	2.23621	1.15737	0.92051	2.2797	77.32	-0.2468	-0.0333	0.2136	1323.956	0.156613	-419.211007	-419.20068	-419.199736	-419.247001	35.825	
C	 0.3660984668	-0.3919102621	 1.5472722507	-0.333587
N	-0.0572985003	-0.1619705538	 0.1695429267	-0.046349
C	 0.9710658225	-0.5581555506	-0.7911791509	-0.344182
C	-1.386206132	-0.6989338084	-0.1028262411	-0.134207
C	-1.953525467	-0.1623656611	-1.4308305328	-0.311679
C	-1.8421633001	 1.3510000856	-1.4651513472	 0.176062
O	-1.4102475472	 1.9745437213	-2.3974680308	-0.238539
C	-1.4435384588	-2.1829424426	-0.072359621	 0.279403
N	-1.4289572304	-3.3386479018	-0.040121197	-0.324361
H	 1.2962501498	 0.152614699	 1.7301256812	 0.132155
H	-0.3928803045	-0.0092714485	 2.2368518206	 0.123571
H	 0.5387763217	-1.4568092398	 1.7777949265	 0.124795
H	 1.1517943163	-1.6458221016	-0.8078867663	 0.124384
H	 0.7036206255	-0.228696038	-1.797544715	 0.14096
H	 1.9055781592	-0.0601902366	-0.5208154364	 0.132629
H	-2.0374287471	-0.3450991297	 0.7066593223	 0.129815
H	-1.4466617679	-0.5826292675	-2.3010796368	 0.145544
H	-3.0133960493	-0.4395326	-1.497908559	 0.143941
H	-2.2191612274	 1.8616038461	-0.5500734637	 0.079645
52.0619	85.4941	101.4905	131.6653	162.8171	217.6475	240.4509	281.2532	316.8112	353.1424	417.222	456.7148	462.137	602.7402	621.912	743.7906	834.3523	905.8751	990.4203	1045.814	1061.5287	1073.0787	1109.7218	1124.7363	1182.3661	1189.3407	1247.3968	1271.4457	1305.2556	1346.0539	1380.5311	1428.1478	1445.3135	1462.9525	1478.7761	1487.5478	1500.3042	1501.078	1515.955	1840.6531	2341.8349	2875.7206	2967.8245	2975.6802	3030.1856	3043.8047	3070.6753	3089.8586	3114.5203	3125.8471	3133.2585
CN(C)C(CC=O)C#N	CN(C)[C@@H](CC=O)C#N	
InChI=1S/C6H10N2O/c1-8(2)6(5-7)3-4-9/h4,6H,3H2,1-2H3	InChI=1S/C6H10N2O/c1-8(2)6(5-7)3-4-9/h4,6H,3H2,1-2H3/t6-/m0/s1
