20
gdb 86117	2.81311	1.31492	1.04473	3.2142	82.91	-0.2084	0.0013	0.2097	1213.8754	0.171775	-403.213873	-403.204855	-403.203911	-403.247359	34.237	
C	-0.0934162105	 1.5432231032	 0.1144879091	-0.3982
C	 0.0161247658	 0.010528829	-0.0111536462	-0.097958
C	 0.7608737688	-0.4170548782	-1.2911123462	-0.328985
C	 2.2585704912	-0.2422100684	-1.1733452716	 0.269783
C	 3.0651535303	 0.0100826951	-2.4121463246	-0.483444
C	 2.8119846601	-0.3674713584	 0.0358666128	-0.069799
N	 2.0519859372	-0.6120966698	 1.1888652246	-0.327836
C	 0.6797418229	-0.5258404656	 1.2573418081	 0.393401
O	 0.0705189467	-0.7967458147	 2.2733235397	-0.375716
H	 0.8949719458	 2.0134452484	 0.1082540115	 0.126876
H	-0.6665576607	 1.950544821	-0.7246236548	 0.114838
H	-0.6007082004	 1.8169617818	 1.043181116	 0.136465
H	-0.9944327951	-0.406328703	-0.0137223534	 0.101238
H	 0.5390105682	-1.4711340167	-1.5181123513	 0.112865
H	 0.3735893491	 0.1577586444	-2.141273104	 0.10275
H	 2.777722801	 0.9528918606	-2.895879217	 0.123382
H	 4.1365056593	 0.0564362188	-2.1958233759	 0.119275
H	 2.9066209605	-0.7811465626	-3.1572968187	 0.124151
H	 3.8803532751	-0.2936711886	 0.2056121545	 0.105619
H	 2.5113284247	-0.8819239061	 2.0454360774	 0.251293
90.8181	104.8245	198.5827	223.8595	243.729	298.0814	307.9552	327.0174	437.0186	467.535	481.0067	570.413	596.0117	729.0653	747.2743	771.9781	849.2718	877.8268	902.0859	935.7757	1014.1797	1043.3298	1053.3818	1092.0856	1105.0279	1147.6398	1197.7362	1246.5409	1290.7436	1303.6102	1337.4634	1377.5035	1394.2046	1405.6199	1419.5876	1462.4417	1474.1896	1479.3767	1496.152	1497.1016	1502.2459	1747.0851	1796.0106	2989.6125	3008.4582	3036.8575	3045.7551	3050.6729	3075.7033	3102.9702	3106.8898	3122.6431	3191.2421	3626.3164
CC1CC(C)=CNC1=O	C[C@H]1CC(=CNC1=O)C	
InChI=1S/C7H11NO/c1-5-3-6(2)7(9)8-4-5/h4,6H,3H2,1-2H3,(H,8,9)	InChI=1S/C7H11NO/c1-5-3-6(2)7(9)8-4-5/h4,6H,3H2,1-2H3,(H,8,9)/t6-/m0/s1
