20
gdb 89968	3.15756	1.24299	1.08128	2.5116	80.26	-0.2349	-0.0215	0.2134	1211.1099	0.170571	-403.140523	-403.131661	-403.130717	-403.174228	33.389	
C	-0.9039267232	 1.1815628501	 0.1794562927	-0.389212
C	 0.0148418976	-0.0279360949	 0.0957526168	-0.069239
N	 1.1321962453	 0.0623885672	-0.8912575682	-0.405221
C	 2.1589924861	-0.3428455626	 0.0896367681	 0.255157
C	 2.9159040016	-1.7064765371	 0.0595391657	-0.283775
C	 4.1269913597	-0.9857706969	 0.7090403178	-0.205941
C	 3.5243121902	 0.3691549213	 0.2495445079	-0.268282
C	 1.0951144479	-0.1954705022	 1.1816237496	 0.333263
O	 1.1066152257	-0.1805316145	 2.377747713	-0.3058
H	-0.3189991258	 2.1012468736	 0.2653630583	 0.126172
H	-1.5295622332	 1.2570566939	-0.7153393574	 0.119798
H	-1.5589739861	 1.0980883835	 1.0524568499	 0.129216
H	-0.5778382307	-0.9518533761	 0.0106589546	 0.093872
H	 1.0462210155	-0.560370348	-1.6869601948	 0.216647
H	 2.4660744051	-2.5525179181	 0.5853851593	 0.107441
H	 3.1246324849	-1.9987664047	-0.975303793	 0.103072
H	 4.1106682492	-1.0823232281	 1.7967459563	 0.124579
H	 5.1207985881	-1.2478387251	 0.342087819	 0.100616
H	 3.9043487385	 0.6837134171	-0.7267308236	 0.108086
H	 3.5640259736	 1.2142335916	 0.9406008979	 0.109551
68.9725	112.2199	157.7438	197.3784	208.5728	267.4827	314.9252	382.6959	485.6678	521.0397	658.6935	678.4214	719.4988	747.6735	795.965	839.0921	892.991	929.931	940.9122	965.2555	982.3029	982.7419	1036.3399	1076.235	1093.0994	1135.1984	1182.6797	1190.8179	1204.6573	1236.1584	1245.8625	1273.7487	1278.2937	1293.0817	1350.7453	1374.1841	1403.6002	1466.6755	1480.5392	1484.4547	1496.0488	1500.2608	1900.973	2986.8113	3039.1467	3043.0468	3059.5644	3074.3423	3100.7857	3110.5615	3113.536	3122.2847	3133.4036	3534.5648
CC1NC2(CCC2)C1=O	C[C@H]1NC2(CCC2)C1=O	
InChI=1S/C7H11NO/c1-5-6(9)7(8-5)3-2-4-7/h5,8H,2-4H2,1H3	InChI=1S/C7H11NO/c1-5-6(9)7(8-5)3-2-4-7/h5,8H,2-4H2,1H3/t5-/m1/s1
