21
gdb 90125	2.84239	1.64375	1.45569	1.3868	83.32	-0.2255	0.0654	0.2909	1006.3723	0.184852	-386.999794	-386.992408	-386.991464	-387.031011	31.343	
O	 0.2464397775	 1.4282197701	-0.12719038	-0.413576
C	 0.1605359704	 0.0241629053	-0.0540477955	 0.036637
C	 0.2916781989	-0.6209282393	 1.4158554565	-0.380699
C	-1.2658445428	-0.5636011874	 1.4746203742	 0.306463
C	-2.6046544652	-1.3819220541	 1.4006249916	-0.321989
C	-2.8446490088	-0.3955214037	 0.1552793592	-0.090166
C	-3.0031448027	 0.9554164522	 0.859598091	-0.203472
C	-1.8276046272	 0.830867172	 1.8731877247	-0.230326
C	-1.2914826736	-0.5773411044	-0.0351728813	 0.042729
H	 1.1639889408	 1.6781224186	 0.0235119193	 0.28588
H	 0.8155540048	-0.436337238	-0.8071204839	 0.068468
H	 0.7058882527	-1.6307899791	 1.3533440004	 0.102442
H	 0.8519870549	-0.043851606	 2.1588310441	 0.091995
H	-2.4781978442	-2.4215387883	 1.0930188192	 0.098133
H	-3.3176099547	-1.3091752581	 2.2294689496	 0.086592
H	-3.5576737292	-0.6512075945	-0.6310434222	 0.059458
H	-2.8761392988	 1.7980722336	 0.1753582739	 0.105968
H	-3.9810717975	 1.0516726882	 1.3410007042	 0.088733
H	-2.1647626319	 0.8207072098	 2.9150523636	 0.082666
H	-1.0982576059	 1.6296449376	 1.7553823324	 0.110197
H	-1.1386382176	-1.6062705446	-0.3815103312	 0.073867
156.4828	226.8438	271.9975	318.1362	343.4061	413.1538	447.5815	484.6694	601.5569	647.7626	730.2906	767.0169	779.1971	825.7607	848.2521	859.6397	881.3065	921.7998	953.6474	975.0642	987.8576	1010.8285	1030.8193	1047.3896	1081.9572	1118.2148	1133.0959	1153.2362	1160.6442	1189.2024	1200.0517	1218.6384	1229.494	1248.8205	1258.5519	1275.2479	1299.7355	1317.7069	1334.1761	1412.7206	1424.7068	1470.1394	1489.4255	1492.1056	1518.4795	2988.501	3024.9353	3038.5806	3043.6759	3046.4887	3056.6008	3095.934	3099.2578	3108.132	3122.5836	3149.5519	3809.6615
OC1CC23CC(CC2)C13	O[C@H]1C[C@@]23C[C@@H](CC2)[C@@H]13	
InChI=1S/C8H12O/c9-6-4-8-2-1-5(3-8)7(6)8/h5-7,9H,1-4H2	InChI=1S/C8H12O/c9-6-4-8-2-1-5(3-8)7(6)8/h5-7,9H,1-4H2/t5-,6+,7+,8+/m1/s1
