18
gdb 53353	3.15917	1.03671	0.85651	2.1853	81.19	-0.2454	0.0212	0.2665	1385.1689	0.146732	-401.941586	-401.932083	-401.931139	-401.978653	32.869	
C	 0.1445391045	 1.5966211497	-0.2002257736	-0.49898
C	 0.1002007544	 0.1500778016	-0.0496441367	 0.043408
C	 0.0641027229	-1.0460587772	 0.0832669436	 0.119676
C	 0.0357794897	-2.4923489166	 0.215075974	-0.104187
O	 0.3467670224	-2.8757195915	 1.5927992161	-0.222744
C	-0.6682655837	-3.6803103511	 1.9828032019	 0.118962
N	-1.6195154636	-3.944027312	 1.1920956622	-0.267812
C	-1.3461056754	-3.2080817962	-0.0566612144	 0.014365
C	-2.5133318475	-2.2923328075	-0.4143141204	-0.385613
H	 0.9110329868	 1.898558623	-0.9220976424	 0.152305
H	-0.8167145375	 1.9913560391	-0.5466456848	 0.15244
H	 0.3780489739	 2.0808503981	 0.7541991316	 0.156575
H	 0.8212392673	-2.9331361959	-0.4076985553	 0.117093
H	-0.5731038422	-4.050450983	 2.9981451014	 0.140869
H	-1.2122778204	-3.9393473621	-0.8614814389	 0.092648
H	-2.6764921015	-1.5449789893	 0.3665795863	 0.127084
H	-2.3266199128	-1.7690741988	-1.3561966941	 0.117197
H	-3.4225052274	-2.8901031106	-0.5171253464	 0.126714
17.2836	24.4633	90.6217	134.4836	234.2214	262.1825	306.013	348.0395	372.663	450.4088	521.4609	583.6053	716.0769	782.2915	846.8146	854.4537	926.1107	944.1439	964.0285	1050.2114	1053.7443	1064.1862	1101.8395	1127.2173	1138.1084	1196.5813	1283.7439	1303.9684	1333.0802	1354.4853	1378.784	1409.6603	1413.7288	1475.3403	1477.5348	1485.5767	1491.7869	1712.0876	2370.4817	3029.427	3031.6907	3047.6635	3051.438	3091.6639	3092.8062	3123.7221	3128.537	3209.4052
CC#CC1OC=NC1C	CC#C[C@H]1OC=N[C@H]1C	
InChI=1S/C7H9NO/c1-3-4-7-6(2)8-5-9-7/h5-7H,1-2H3	InChI=1S/C7H9NO/c1-3-4-7-6(2)8-5-9-7/h5-7H,1-2H3/t6-,7+/m0/s1
