17
gdb 14647	6.6707	0.70177	0.67119	3.5805	74.96	-0.2428	0.027	0.2698	1662.7952	0.140473	-363.868924	-363.859081	-363.858136	-363.907013	32.141	
C	 0.0763431583	 1.4427455428	-0.069371345	-0.496608
C	-0.014018539	-0.0105149405	-0.0692209868	 0.092141
C	-0.0759584853	-1.2130252919	-0.080446964	 0.037879
C	-0.1974361554	-2.6652034993	-0.0727553543	-0.342561
C	-1.5730260064	-3.1298370922	 0.4581407672	-0.155321
N	-1.6960037454	-4.5770471524	 0.5125847171	-0.267336
C	-2.0545191993	-5.3179054509	-0.5696826258	 0.148961
O	-2.3303698081	-4.8625575823	-1.6595382634	-0.321618
H	 0.3202187062	 1.8262756341	-1.0662751554	 0.149269
H	-0.8709475709	 1.9001460914	 0.2371455398	 0.147314
H	 0.8516110278	 1.7953584712	 0.6199586383	 0.145994
H	-0.0720686035	-3.0668552137	-1.0848831665	 0.152999
H	 0.5952732569	-3.1095626765	 0.5433293013	 0.117093
H	-1.7437762989	-2.7255713827	 1.4593150472	 0.116559
H	-2.3573547519	-2.7515389581	-0.2008762858	 0.15151
H	-1.4321895856	-5.0613321452	 1.3553757237	 0.249034
H	-2.0784436693	-6.4022382138	-0.3403930476	 0.074689
10.1976	36.3562	50.5147	91.4295	192.0231	214.5758	273.9345	300.1794	388.5221	395.8607	486.7027	513.5447	721.3835	776.3354	824.2636	975.6408	1017.3553	1036.2197	1051.084	1054.2335	1088.4196	1168.2281	1202.5425	1243.8958	1306.6155	1332.5393	1397.3532	1415.3836	1429.2613	1468.87	1478.5787	1479.2858	1481.7017	1527.0181	1804.6744	2373.9139	2932.4014	3019.9082	3025.8963	3061.8397	3071.9357	3085.8384	3086.7087	3127.8488	3639.4767
CC#CCCNC=O	CC#CCCNC=O	
InChI=1S/C6H9NO/c1-2-3-4-5-7-6-8/h6H,4-5H2,1H3,(H,7,8)	InChI=1S/C6H9NO/c1-2-3-4-5-7-6-8/h6H,4-5H2,1H3,(H,7,8)
