19
gdb 94602	3.30809	0.95546	0.83001	3.5646	73.36	-0.2361	0.0592	0.2952	1412.6737	0.15941	-456.369967	-456.360386	-456.359441	-456.405282	35.09	
N	 0.2288163828	 1.2668835238	-0.5260205217	-0.565659
C	 0.2180449715	-0.0705028129	-0.1460396683	 0.446618
O	 1.236075657	-0.7285881375	-0.0362603247	-0.390611
N	-1.0491259222	-0.572330229	 0.0732535571	-0.352831
C	-1.2672510525	-1.9846968784	 0.2172690052	 0.061322
C	-1.9908184173	-2.5368318402	 1.4819722861	-0.25818
C	-2.7891384668	-3.4893750557	 0.5456218017	-0.266691
C	-2.4155515995	-2.5852965403	-0.6547957891	 0.110168
O	-3.4029088781	-1.6135210812	-0.9880552258	-0.443023
H	 1.1450344812	 1.6815021597	-0.4486712036	 0.258578
H	-0.5179501911	 1.8544376638	-0.1865920634	 0.245699
H	-1.8311940696	-0.0843955323	-0.3430985898	 0.23819
H	-0.3176345484	-2.49589826	 0.0508790678	 0.118515
H	-1.3694099172	-2.9866669947	 2.2586063847	 0.111405
H	-2.6269621133	-1.7762450281	 1.9443975049	 0.094583
H	-2.3315327292	-4.4786042132	 0.4658377962	 0.118163
H	-3.8591759436	-3.622998459	 0.7327455302	 0.097826
H	-2.1260798184	-3.0638006566	-1.593822437	 0.088508
H	-4.0387140753	-1.5614029581	-0.2676605205	 0.28742
41.2581	91.4627	99.9805	144.1816	186.7501	255.9263	357.4455	393.3668	408.3417	440.6877	536.6812	571.6064	589.4078	628.5862	715.1722	774.8436	799.392	859.1474	902.4403	921.9291	945.3597	995.4373	1029.6389	1096.8378	1098.5169	1121.4777	1191.3776	1212.6834	1232.7508	1239.0475	1259.2899	1277.8372	1309.1505	1331.7199	1384.0333	1411.5146	1476.1103	1494.1945	1525.4469	1626.7987	1801.9458	3052.2674	3060.3294	3077.1742	3104.5471	3108.7281	3125.6178	3573.322	3579.8603	3689.7015	3821.4089
NC(=O)NC1CCC1O	NC(=O)N[C@H]1CC[C@H]1O	
InChI=1S/C5H10N2O2/c6-5(9)7-3-1-2-4(3)8/h3-4,8H,1-2H2,(H3,6,7,9)	InChI=1S/C5H10N2O2/c6-5(9)7-3-1-2-4(3)8/h3-4,8H,1-2H2,(H3,6,7,9)/t3-,4+/m0/s1
