17
gdb 70894	3.57547	1.51916	1.4487	1.8049	65.84	-0.2279	0.0659	0.2938	952.399	0.135842	-458.948965	-458.941687	-458.940742	-458.980109	29.84	
C	-0.0650021626	 1.4497643935	 0.1168520702	-0.485897
C	 0.0386448213	-0.0382387658	-0.0299010265	 0.444744
C	 0.7099245226	-0.6859007015	-1.2664633475	-0.332993
C	 0.475498227	-2.1134479453	-0.7875192627	 0.284429
O	 0.7807946737	-3.2566581659	-1.5020074696	-0.46439
C	 0.524938644	-1.9988515018	 0.7372943259	-0.045995
O	 0.7465222163	-0.642916786	 1.0650329191	-0.278817
C	-0.8096993409	-2.0207857976	 0.0147297218	 0.000064
O	-1.2448651747	-0.6782315866	-0.0022611769	-0.275999
H	 0.9318209415	 1.896301775	 0.12383525	 0.1334
H	-0.6369848414	 1.8691425068	-0.7137962542	 0.135119
H	-0.5697506813	 1.6918156426	 1.0549143793	 0.143491
H	 0.1808836545	-0.4534541048	-2.1928219303	 0.116491
H	 1.7661228964	-0.416020582	-1.3456961405	 0.103369
H	 1.7361200149	-3.3844591346	-1.4768334299	 0.288736
H	 0.8992451977	-2.7328272942	 1.4358436575	 0.114474
H	-1.5760405591	-2.7783601417	 0.0829811942	 0.119773
174.3978	236.5708	249.9792	312.555	356.9449	378.1967	456.3895	554.958	562.276	603.8375	674.9403	715.7193	744.1854	805.8654	820.3839	881.5255	897.9066	923.1972	982.2394	992.593	1032.8772	1053.409	1071.3528	1099.7087	1120.4276	1161.8164	1184.4391	1220.0935	1276.1636	1283.9477	1321.6663	1357.936	1423.9117	1445.53	1479.6085	1487.1485	1487.3522	3060.103	3069.1077	3130.5926	3140.5048	3141.2162	3229.2607	3239.7994	3785.2789
CC12CC3(O)C(O1)C3O2	C[C@@]12C[C@@]3(O)[C@@H](O1)[C@H]3O2	
InChI=1S/C6H8O3/c1-5-2-6(7)3(8-5)4(6)9-5/h3-4,7H,2H2,1H3	InChI=1S/C6H8O3/c1-5-2-6(7)3(8-5)4(6)9-5/h3-4,7H,2H2,1H3/t3-,4+,5+,6+
