17
gdb 50322	3.71463	1.25956	1.06029	4.8472	77.7	-0.2142	-0.0101	0.2041	1125.2051	0.138728	-418.015958	-418.008551	-418.007607	-418.048098	28.569	
O	-0.1656937361	-0.1364793653	-0.2710793497	-0.326245
C	-0.1205132426	 1.0566933721	-0.0734980959	 0.156905
N	 1.016827652	 1.7665277372	 0.2344874599	-0.084859
C	 0.9616213223	 3.2275360639	 0.3136895642	-0.17453
C	 2.0279883892	 3.8104667849	 1.2197844512	-0.049837
N	 2.217185761	 3.1890671954	 2.5294793041	-0.326888
C	 3.2568034002	 3.0145538799	 1.4631726056	-0.083646
C	 3.3326272028	 1.6687699134	 0.8543418795	-0.122769
C	 2.2463627731	 1.1036124012	 0.3197461309	 0.022425
H	-1.0105829896	 1.7128146505	-0.1177760817	 0.077146
H	 1.1087827698	 3.6617096767	-0.6861251627	 0.118842
H	-0.037837569	 3.5157144903	 0.6556060111	 0.126568
H	 2.1204492173	 4.8915420726	 1.1336611116	 0.093149
H	 2.5286066102	 3.8881232838	 3.2004041783	 0.233821
H	 4.1914958964	 3.5508429188	 1.5973578455	 0.090039
H	 4.2621888251	 1.1147761568	 0.8914410303	 0.102042
H	 2.214716968	 0.0938008779	-0.0676390523	 0.147838
66.3381	202.444	250.4072	263.5685	333.4362	344.6159	456.2245	543.8191	615.1532	667.3798	727.9555	785.5538	816.3941	853.6139	872.0371	927.3072	963.7475	977.7336	991.9022	1022.512	1052.6003	1108.1449	1153.2032	1162.638	1202.388	1230.5592	1276.6072	1317.2896	1341.7363	1365.2571	1409.6993	1436.1738	1455.2377	1466.3952	1501.8101	1708.8993	1799.1486	2950.6376	2997.7993	3069.1569	3123.9396	3152.9122	3205.8079	3233.1388	3491.4278
O=CN1CC2NC2C=C1	O=CN1C[C@H]2N[C@H]2C=C1	
InChI=1S/C6H8N2O/c9-4-8-2-1-5-6(3-8)7-5/h1-2,4-7H,3H2	InChI=1S/C6H8N2O/c9-4-8-2-1-5-6(3-8)7-5/h1-2,4-7H,3H2/t5-,6+/m0/s1
