20
gdb 70009	3.50801	1.39566	1.16439	1.6234	86.27	-0.2196	0.0166	0.2362	1125.0141	0.172346	-365.95694	-365.949162	-365.948218	-365.988794	31.375	
C	-0.2025393934	 1.5495972475	 0.0410073484	-0.510926
C	 0.1584552501	 0.0987406413	-0.014132629	 0.211461
N	-0.6909362316	-0.96004201	 0.6385846946	-0.357874
C	 0.7388529759	-0.8471225998	 1.0041539885	-0.154477
C	 1.5912828383	-1.5395469799	-0.0922494014	-0.020683
C	 1.5120886205	-2.947765539	-0.6973742872	-0.253952
C	 1.4754379564	-2.628335832	-2.2334843878	-0.237133
C	 0.7628966671	-1.2733007544	-2.2998872271	-0.240524
C	 0.8397216	-0.7033146507	-1.1038918317	 0.303124
H	 0.6491332862	 2.1772494892	-0.240529996	 0.129575
H	-1.0271656085	 1.7789481514	-0.6439950548	 0.131684
H	-0.5152575091	 1.8366145034	 1.0508349798	 0.117308
H	-1.2160203099	-0.4870930845	 1.3770570144	 0.221229
H	 1.031359839	-0.6510292754	 2.0295086391	 0.086167
H	 2.6283560803	-1.1917992491	 0.0162267857	 0.07601
H	 2.3342446289	-3.6143596749	-0.4212695562	 0.085862
H	 0.5672426227	-3.4193378758	-0.4097815797	 0.118344
H	 2.4904051993	-2.5846699824	-2.655721425	 0.10028
H	 0.9384965354	-3.3951103628	-2.8027731438	 0.102796
H	 0.2308715724	-0.9267839523	-3.1780604208	 0.091732
154.655	162.4794	205.1141	230.7694	300.6728	338.1432	481.4204	527.6351	567.7293	618.2499	667.3159	741.9222	806.8335	825.1624	832.6599	874.3862	888.5953	897.9893	954.0015	970.5825	981.411	1027.9777	1054.8853	1067.9002	1091.6266	1111.7197	1114.29	1161.1786	1184.4818	1222.4405	1257.0194	1272.8471	1294.7862	1313.8067	1332.2345	1359.5829	1399.4728	1428.7518	1477.5912	1480.7742	1490.5935	1497.6287	1733.7454	2998.1267	3005.9798	3025.3879	3050.5359	3063.3857	3087.4417	3099.914	3104.2127	3176.4427	3197.7779	3438.9808
CC12NC1C1CCC=C21	C[C@]12N[C@H]1[C@H]1CC[CH][C]21	
InChI=1S/C8H11N/c1-8-6-4-2-3-5(6)7(8)9-8/h4-5,7,9H,2-3H2,1H3	InChI=1S/C8H11N/c1-8-6-4-2-3-5(6)7(8)9-8/h4-5,7,9H,2-3H2,1H3/t5-,7-,8+/m0/s1
