16
gdb 97280	2.66113	1.13895	0.80154	0.4087	72.12	-0.2603	-0.037	0.2233	1373.8584	0.123283	-471.27216	-471.262778	-471.261834	-471.306936	32.889	
C	-0.6076539168	 1.3852373312	-0.2230938515	-0.318126
N	-0.0705653913	 0.0514935298	-0.0410872904	-0.242241
C	 0.2139628588	-0.6063367471	-1.0783736179	 0.131825
N	 0.7451028856	-1.9209445396	-1.0159125524	-0.232497
C	 0.9567305483	-2.5002760708	 0.2306795461	 0.19669
O	 1.4031272976	-3.6116827458	 0.4301430266	-0.338553
C	 1.0212621533	-2.5461877573	-2.2951711614	 0.507627
N	 1.5246716	-3.7903842248	-2.2103221385	-0.573202
O	 0.7963267165	-1.9467300624	-3.325023629	-0.384762
H	 0.0398963864	 2.1091992354	 0.283659873	 0.135369
H	-0.7087687652	 1.680668811	-1.2782284041	 0.110501
H	-1.5913855585	 1.4484062739	 0.2549539861	 0.135369
H	 0.0967007394	-0.2723017775	-2.1100778751	 0.153973
H	 0.6639986501	-1.8136895573	 1.034089203	 0.153204
H	 1.6818689893	-4.219537034	-1.306693903	 0.294695
H	 1.7273386065	-4.2542655149	-3.0787612215	 0.270128
60.0289	91.4726	144.0764	171.3005	199.9184	250.0392	307.4257	375.1701	386.6574	396.2054	425.3683	459.6799	617.0968	689.7786	730.7843	782.8253	841.6506	1009.1284	1033.4524	1064.7695	1129.9743	1144.9111	1160.8538	1200.1226	1296.769	1345.8839	1394.8983	1430.5192	1447.3872	1480.3129	1500.6924	1591.237	1761.0193	1784.4721	1832.7765	2988.3464	3071.2996	3080.2093	3086.5426	3129.0762	3505.7231	3715.1705
CN=CN(C=O)C(N)=O	CN=CN(C=O)C(=O)N	
InChI=1S/C4H7N3O2/c1-6-2-7(3-8)4(5)9/h2-3H,1H3,(H2,5,9)	InChI=1S/C4H7N3O2/c1-6-2-7(3-8)4(5)9/h2-3H,1H3,(H2,5,9)
