21
gdb 78763	2.48614	1.55015	1.25557	1.132	82.37	-0.2322	0.074	0.3062	1119.3807	0.181037	-387.049601	-387.040594	-387.03965	-387.082539	35.365	
C	-0.0312327382	 1.6248402042	 0.0451709922	-0.431227
C	 0.09538927	 0.1071022743	-0.0086816878	-0.027155
C	 0.8282564638	-0.5976608778	-1.1522002474	-0.1244
C	 1.3009300382	-1.7121368512	-0.2468846504	-0.181679
C	 2.3198389679	-0.730101937	-0.7788988764	 0.353134
C	 3.385338924	-0.9484028396	-1.811226883	-0.502655
C	 2.4931853226	-0.0899265036	 0.6015992918	-0.360472
C	 1.086853219	-0.6719675579	 0.9191858022	 0.367554
O	 0.7282815905	-1.0596423186	 2.2026759789	-0.483004
H	 0.9234696717	 2.1267206397	-0.135865322	 0.117455
H	-0.7364554876	 1.9814083231	-0.7137512656	 0.11646
H	-0.4101185334	 1.956915029	 1.0195987675	 0.105153
H	-0.8892927915	-0.3588860904	 0.1163706038	 0.074127
H	 0.5143358069	-0.6863386383	-2.1854838999	 0.0777
H	 1.211861447	-2.7869894399	-0.3049574792	 0.090352
H	 3.0106222561	-1.5559923021	-2.6422966179	 0.117383
H	 3.7369640413	 0.0024315721	-2.2293619657	 0.117542
H	 4.252934169	-1.4658332276	-1.3860637504	 0.117389
H	 3.2572965972	-0.6200086045	 1.178747688	 0.097401
H	 2.6507306111	 0.992169836	 0.6831736122	 0.079127
H	 0.7387642743	-0.2803157097	 2.7696232295	 0.279816
149.135	160.3776	180.3913	203.9995	220.0108	262.2798	286.7452	370.1017	392.8986	490.4009	559.8057	576.9023	626.7522	702.5793	756.8846	806.7253	854.0636	882.0717	890.6179	928.1129	956.0101	964.4468	1015.6953	1045.8359	1067.8962	1087.5381	1116.2322	1125.026	1142.7957	1164.6174	1191.6298	1207.6396	1253.8604	1260.1531	1318.5327	1364.6215	1395.3118	1404.9768	1408.0667	1427.6848	1485.8083	1491.0198	1492.7912	1499.6638	1512.6731	3019.0599	3022.4593	3026.823	3039.2395	3078.9361	3083.5925	3087.3326	3090.5124	3109.3339	3182.8941	3226.0831	3798.4567
CC1C2C3C2(C)CC13O	C[C@H]1[C@@H]2[C@H]3[C@]2(C)C[C@@]13O	
InChI=1S/C8H12O/c1-4-5-6-7(5,2)3-8(4,6)9/h4-6,9H,3H2,1-2H3	InChI=1S/C8H12O/c1-4-5-6-7(5,2)3-8(4,6)9/h4-6,9H,3H2,1-2H3/t4-,5+,6-,7+,8+/m0/s1
