18
gdb 80355	3.25953	1.28882	1.12585	4.7595	75.81	-0.2687	0.0381	0.3069	1113.15	0.147259	-401.929873	-401.921294	-401.92035	-401.962611	32.921	
C	-0.215613801	 1.6001002501	 0.0212215492	-0.461034
C	 0.0067909341	 0.0820091226	 0.0270500769	 0.142588
C	 1.1313703368	-0.5313331513	-0.8975087269	-0.284585
C	 1.7430031618	-1.241747029	 0.3156680303	-0.103527
C	 2.156093082	-0.2405400049	 1.3477343099	 0.079118
O	 2.6376021033	 1.0360253705	 1.0349396096	-0.415
C	 0.7033167483	-0.5692354455	 1.2485071391	-0.112464
C	-1.2631772865	-0.6025935399	-0.2242738319	 0.255504
N	-2.2724395838	-1.1324953418	-0.4193166402	-0.349264
H	 0.7313841549	 2.1111871493	 0.1895805191	 0.153656
H	-0.6378420917	 1.9202929814	-0.9362929941	 0.127716
H	-0.9171511185	 1.8874495936	 0.8101912774	 0.130748
H	 0.7327026707	-1.2083330547	-1.652222121	 0.131664
H	 1.7709630202	 0.2140643331	-1.3765955319	 0.107459
H	 2.1021917375	-2.2634682194	 0.3184166611	 0.096582
H	 2.6175332897	-0.6841171156	 2.2312122587	 0.100724
H	 3.5372446975	 0.9415204751	 0.7034144364	 0.291295
H	 0.1574545147	-0.9818585336	 2.0883852481	 0.108822
129.6811	136.3642	213.9491	229.2282	244.0234	288.5564	299.3501	352.7446	481.4697	534.6116	574.5023	597.9566	654.261	738.8198	785.2906	851.6372	868.7378	906.596	959.5294	991.5111	1007.4828	1026.3881	1040.2587	1084.633	1136.3873	1161.5629	1176.0077	1220.7117	1239.2127	1265.5958	1292.2184	1303.4704	1349.2225	1407.3462	1454.7594	1481.8438	1493.7877	1502.4148	2349.1762	3046.8917	3070.7948	3096.5566	3110.6942	3141.5466	3165.102	3181.9806	3191.8962	3802.3186
CC1(CC2C(O)C12)C#N	C[C@]1(C[C@H]2[C@@H](O)[C@@H]12)C#N	
InChI=1S/C7H9NO/c1-7(3-8)2-4-5(7)6(4)9/h4-6,9H,2H2,1H3	InChI=1S/C7H9NO/c1-7(3-8)2-4-5(7)6(4)9/h4-6,9H,2H2,1H3/t4-,5+,6-,7+/m1/s1
