18
gdb 117149	4.36927	0.79534	0.68153	4.5921	72.14	-0.2581	-0.0302	0.2279	1608.4641	0.144692	-476.253959	-476.243684	-476.24274	-476.290329	34.537	
C	 0.0204501667	 1.4000229274	-0.0027360581	-0.229918
O	 0.0078402708	-0.0097546231	 0.0228940019	-0.207775
C	 0.633620372	-0.5726897354	-1.0852766575	-0.189997
C	 0.5670888421	-2.0941769754	-0.9646240941	 0.410995
O	 0.0425063313	-2.6521477546	-0.0332601214	-0.312934
N	 1.1661897727	-2.7968845922	-2.026482032	-0.153615
C	 1.8070404884	-2.141269024	-3.1645706713	-0.358286
C	 1.1508341861	-4.1942326434	-1.9973650403	 0.172695
O	 1.6373769865	-4.884990711	-2.8596528326	-0.317145
H	 1.0466939746	 1.7997571643	-0.0065425008	 0.10814
H	-0.507797718	 1.7977046448	-0.8835197167	 0.10814
H	-0.4895577537	 1.7404811179	 0.9004964087	 0.139999
H	 0.1517892223	-0.2618515783	-2.0299667443	 0.113264
H	 1.6909128328	-0.2603605857	-1.161570812	 0.113276
H	 2.6492337192	-1.5209529247	-2.845486064	 0.140131
H	 2.1754452058	-2.9338522067	-3.8153060576	 0.179099
H	 1.0967495536	-1.5236142234	-3.7212726812	 0.140144
H	 0.6461216969	-4.5750701665	-1.1013700367	 0.143786
50.5934	66.9511	98.8708	138.9366	149.7209	186.4091	239.1534	290.5166	319.9561	325.3322	376.2795	416.88	551.9903	577.5325	756.5592	852.4752	971.2768	1024.4897	1026.7956	1059.629	1110.1857	1152.1999	1177.6859	1183.0774	1239.4878	1270.6521	1283.0971	1314.6942	1411.9158	1422.5363	1448.5213	1470.039	1486.7541	1490.9572	1504.952	1507.1488	1518.2601	1799.7139	1824.3829	2939.793	2961.361	2973.4374	3018.7273	3046.0436	3080.5625	3108.2984	3127.4164	3160.4121
COCC(=O)N(C)C=O	COCC(=O)N(C)C=O	
InChI=1S/C5H9NO3/c1-6(4-7)5(8)3-9-2/h4H,3H2,1-2H3	InChI=1S/C5H9NO3/c1-6(4-7)5(8)3-9-2/h4H,3H2,1-2H3
