20
gdb 113115	5.96567	0.63252	0.60847	3.1172	77.47	-0.2267	-0.0234	0.2032	1801.5163	0.168801	-440.254512	-440.244656	-440.243711	-440.290667	34.501	
O	 0.0340333881	 1.3561055126	-0.1268096196	-0.421005
C	 0.0995173709	-0.0491787714	 0.0647839521	-0.096901
C	-1.3196980154	-0.5716167383	 0.0838683434	 0.033514
C	-2.1227770002	-0.5649390182	-1.2411714628	-0.172483
N	-2.6236368635	-1.9151996356	-0.9069306214	-0.087013
C	-2.7959277603	-2.887740907	-1.9576842629	-0.235665
C	-3.5407842911	-4.1150246702	-1.4561128257	 0.158029
O	-3.3435353935	-5.2384469365	-1.8384029172	-0.237149
C	-1.5398500367	-2.1041702845	 0.0815280609	-0.205461
H	 0.9313490589	 1.700363857	-0.1587166874	 0.289294
H	 0.6640829864	-0.5376079897	-0.7465580705	 0.083737
H	 0.6024550151	-0.3037233258	 1.0125366699	 0.089302
H	-1.8782048419	-0.0841045784	 0.8864593316	 0.09413
H	-2.9008523191	 0.1926394349	-1.3742535512	 0.109762
H	-1.4569524376	-0.5498885433	-2.1195082788	 0.087592
H	-3.4303527274	-2.4410423297	-2.7385442781	 0.129702
H	-1.8584032047	-3.2129539369	-2.4441615485	 0.100467
H	-4.3148666657	-3.8766230087	-0.6918481512	 0.08374
H	-0.6712186702	-2.6470017572	-0.3298289416	 0.088135
H	-1.843380362	-2.5864310931	 1.0162843888	 0.108274
46.3545	59.0508	88.8234	111.589	188.8125	217.3815	268.3085	332.8767	373.8103	412.5836	440.8888	487.0282	674.3613	749.9925	825.191	900.8754	916.88	970.4966	1014.9571	1028.0061	1061.6598	1079.808	1104.3096	1130.7077	1145.5099	1151.5163	1186.8777	1224.5202	1242.99	1252.7462	1277.7802	1283.5573	1294.5759	1333.7262	1347.7437	1384.1348	1405.1401	1455.1572	1465.9822	1501.5242	1518.0154	1530.0435	1838.1895	2882.6344	2943.4427	2952.8379	2959.6839	2973.2291	2985.9913	3019.8942	3061.1162	3070.3208	3091.3528	3830.2836
OCC1CN(CC=O)C1	OCC1CN(CC=O)C1	
InChI=1S/C6H11NO2/c8-2-1-7-3-6(4-7)5-9/h2,6,9H,1,3-5H2	InChI=1S/C6H11NO2/c8-2-1-7-3-6(4-7)5-9/h2,6,9H,1,3-5H2
