21
gdb 101149	3.4595	0.91687	0.87413	2.744	82.27	-0.2248	0.0193	0.2441	1452.464	0.180906	-424.217186	-424.207244	-424.206299	-424.253053	35.058	
C	 0.0345299503	 1.3033972162	 0.1899116922	-0.231386
O	-0.0724768069	-0.0818374249	-0.0406037895	-0.251436
C	 0.6027277914	-0.5499519101	-1.2056288501	 0.010347
C	 2.1252984573	-0.6105574096	-0.998844921	-0.403588
C	 0.0272246782	-1.9012051209	-1.5148178792	 0.339339
C	-0.3539225491	-2.3868277821	-2.6918374789	-0.245171
C	-0.8380003141	-3.7999307605	-2.5366567371	-0.099288
O	-0.706035863	-4.08929873	-1.1482528127	-0.268919
C	-0.1893397344	-2.9552698591	-0.4562668433	-0.14857
H	 1.0590948523	 1.6181357549	 0.4355300998	 0.10752
H	-0.3055418887	 1.8866320159	-0.6804261749	 0.10458
H	-0.6103204203	 1.5360676276	 1.0410134786	 0.129805
H	 0.388081051	 0.1283537807	-2.0475143294	 0.068467
H	 2.6111729174	-0.9970028058	-1.8992639747	 0.123494
H	 2.5370904117	 0.3814675688	-0.7926294128	 0.117221
H	 2.3730131386	-1.2671573069	-0.1600208823	 0.128291
H	-0.3352159769	-1.8670358625	-3.6421606202	 0.096447
H	-1.8887490081	-3.9191669762	-2.8479425869	 0.102743
H	-0.245965293	-4.5180324181	-3.1273334559	 0.101225
H	 0.7414046894	-3.2306690909	 0.0645341301	 0.099847
H	-0.9011118631	-2.6174219764	 0.3098551781	 0.119033
47.9476	71.5756	102.5833	126.8714	177.3291	205.625	239.6783	315.7553	331.286	359.9181	490.5548	541.1703	675.8408	776.749	830.475	850.4127	908.3521	924.6266	964.5162	996.5046	1021.8149	1054.1035	1076.2025	1106.5376	1113.5364	1142.1751	1173.3341	1183.1959	1215.942	1218.483	1223.4623	1298.9566	1352.7417	1366.0003	1371.7733	1394.4909	1399.8073	1476.7507	1482.5658	1492.0224	1501.4297	1512.345	1518.0353	1529.9241	1734.7025	2964.1359	2965.6884	2977.3263	2977.4416	2978.8015	3016.185	3025.839	3045.303	3111.8315	3117.0886	3124.2788	3206.7117
COC(C)C1=CCOC1	CO[C@@H](C)C1=CCOC1	
InChI=1S/C7H12O2/c1-6(8-2)7-3-4-9-5-7/h3,6H,4-5H2,1-2H3	InChI=1S/C7H12O2/c1-6(8-2)7-3-4-9-5-7/h3,6H,4-5H2,1-2H3/t6-/m0/s1
