15
gdb 37886	3.1353	2.27624	2.20374	2.1549	60.75	-0.2369	0.0505	0.2874	721.9446	0.116482	-457.717094	-457.712173	-457.711229	-457.746189	21.961	
O	-0.0399401786	 1.4406618932	 0.0868668567	-0.277328
C	 1.3918328916	 1.469682715	-0.0430727658	 0.075587
C	 2.0414785687	 0.7987888888	 1.2403491579	 0.013648
O	 0.9962210114	 0.4016493185	 2.1125297829	-0.224274
C	 0.4014242641	-0.6350743063	 1.3481629569	 0.142009
O	 1.4778942171	-1.5080332073	 1.0501540667	-0.243498
C	 2.3020645888	-0.5370368929	 0.4142541133	 0.03509
C	 1.4450642038	 0.0753440623	-0.7093014101	-0.119098
C	 0.0319262119	-0.0000991403	-0.042203487	 0.050342
H	 1.7844349291	 2.4116613393	-0.4251915386	 0.083706
H	 2.8318113794	 1.3055549322	 1.7898747177	 0.091567
H	-0.376941909	-1.1359172868	 1.9189690301	 0.100403
H	 3.3077753307	-0.910637523	 0.2441156596	 0.093989
H	 1.5687729022	-0.14499034	-1.7667939434	 0.085731
H	-0.8291242011	-0.4364866126	-0.5480122069	 0.092126
414.7872	456.4781	569.7533	638.819	652.1055	674.5627	762.5504	798.1734	803.5611	822.5084	844.9469	885.5375	895.728	923.1642	959.4403	973.8066	987.5632	1015.7328	1034.261	1054.3123	1103.5839	1116.2783	1162.841	1181.4772	1204.3667	1236.5144	1254.444	1272.414	1280.8636	1286.6518	1312.1777	1340.0278	1353.846	3118.2698	3118.8179	3142.0078	3144.881	3162.811	3169.7169
O1C2C3OC4OC3C2C14	O1[C@H]2[C@H]3O[C@@H]4O[C@H]3[C@H]2[C@H]14	
InChI=1S/C6H6O3/c7-2-1-3-5(2)9-6(8-3)4(1)7/h1-6H	InChI=1S/C6H6O3/c7-2-1-3-5(2)9-6(8-3)4(1)7/h1-6H/t1-,2+,3-,4-,5+,6-/m0/s1
