25
gdb 100029	2.40888	1.10532	0.96113	1.4027	88.94	-0.261	0.0713	0.3323	1403.8986	0.226731	-389.476293	-389.465161	-389.464217	-389.512406	41.838	
C	-1.8744108323	-0.3217470051	 1.4034411357	-0.414353
C	-0.7394000867	 0.0301456297	 0.463916037	-0.00782
C	-0.2484107156	 1.4517821492	 0.3187093871	-0.323956
C	 0.6851586162	 0.3899353112	 0.8501721718	 0.002811
C	 1.3581242961	 0.4027916125	 2.2294951608	 0.229891
C	 2.6997117387	 1.1530991439	 2.0811134767	-0.401474
C	 0.5519604457	 1.0751534964	 3.3549031787	-0.428974
C	 1.6355926202	-1.0642730369	 2.6074394424	-0.07766
O	 2.3612139137	-1.1070083633	 3.829497473	-0.429681
H	-1.9420305217	 0.360888792	 2.2523138365	 0.122664
H	-2.8296853394	-0.2670853483	 0.8687562337	 0.113732
H	-1.7794466042	-1.3400503567	 1.7977444194	 0.111993
H	-0.7898279269	-0.5308382216	-0.4671672749	 0.079317
H	-0.0698753672	 1.8647495607	-0.6686373966	 0.104314
H	-0.6472672693	 2.1708175809	 1.0273931189	 0.110398
H	 1.3966732299	 0.0422060285	 0.1021229487	 0.076224
H	 2.5264903082	 2.2007894624	 1.8152931525	 0.108439
H	 3.2665248264	 1.1177858896	 3.0143352587	 0.126445
H	 3.3178690483	 0.7063937772	 1.2941342611	 0.100189
H	-0.3741118212	 0.541580878	 3.5799382776	 0.110841
H	 1.1493571758	 1.0854447721	 4.2695709318	 0.130502
H	 0.3021291751	 2.1101506474	 3.1036625197	 0.10694
H	 0.6789818137	-1.6014816868	 2.6997948128	 0.086304
H	 2.2070458672	-1.5440269834	 1.7961457991	 0.076592
H	 2.5273195391	-2.0278143196	 4.0486683379	 0.286324
30.1246	114.2778	149.8489	198.3803	213.7031	222.5604	234.7448	272.0702	287.5591	294.4237	362.9054	368.8695	390.5908	407.5179	503.5266	598.48	705.2517	770.3953	827.8174	864.4017	920.226	929.1509	934.2709	959.8987	995.5107	1031.381	1034.8582	1073.9902	1083.3364	1100.3034	1131.153	1161.0034	1179.7813	1204.2654	1213.4533	1228.8466	1261.7344	1285.5155	1324.2383	1390.7927	1394.9898	1405.0281	1421.9454	1425.1689	1456.6072	1483.4383	1489.2444	1493.4351	1499.94	1501.6252	1504.4832	1521.5796	1522.6008	2963.346	2998.6165	3029.5426	3030.8769	3050.7696	3080.294	3093.2904	3100.4025	3113.855	3119.6788	3124.5987	3126.5511	3127.5627	3138.2603	3206.9583	3837.5302
CC1CC1C(C)(C)CO	C[C@H]1C[C@H]1C(C)(C)CO	
InChI=1S/C8H16O/c1-6-4-7(6)8(2,3)5-9/h6-7,9H,4-5H2,1-3H3	InChI=1S/C8H16O/c1-6-4-7(6)8(2,3)5-9/h6-7,9H,4-5H2,1-3H3/t6-,7+/m0/s1
