21
gdb 113303	2.08855	1.20233	0.99137	0.773	86.37	-0.2279	0.0524	0.2802	1349.2224	0.179082	-387.036847	-387.026356	-387.025412	-387.072264	38.361	
C	 0.0407747102	 1.2774618274	 0.3067517977	-0.380625
C	-0.2084235052	-0.15415806	-0.1781946087	-0.257894
C	 0.6930135923	-0.5579366054	-1.3416618369	 0.100164
C	 2.1370435349	-0.9627397542	-1.0153342972	-0.355447
C	 1.1766686457	-2.0143029993	-1.4427764953	 0.073374
O	 0.7901821322	-2.9395722985	-0.485006661	-0.231344
C	-0.393754625	-3.6358929321	-0.8342933097	-0.240576
C	 0.4648521477	 0.1282375876	-2.5833425933	 0.291758
C	 0.2598027573	 0.6955153904	-3.6254512449	-0.466698
H	 1.0686780864	 1.3995289978	 0.6639949135	 0.115055
H	-0.1192504696	 1.9973691349	-0.5016320741	 0.129031
H	-0.6345571799	 1.5336832589	 1.1288338829	 0.110184
H	-0.050156663	-0.8654483177	 0.6380829636	 0.111841
H	-1.254691189	-0.2573708154	-0.4902101581	 0.100731
H	 2.9255773271	-0.6660902018	-1.6960626159	 0.125658
H	 2.4023529851	-0.9528130888	 0.0364621671	 0.128004
H	 1.2657633682	-2.4164713326	-2.452481716	 0.096652
H	-1.2532908684	-2.9582338851	-0.9238215903	 0.117722
H	-0.2734748826	-4.1746681338	-1.7854896183	 0.113135
H	-0.5860023551	-4.3584075466	-0.0382165455	 0.129924
H	 0.0822064508	 1.1990990841	-4.5429078195	 0.18935
87.5326	95.2601	111.891	148.7452	162.5534	207.6134	218.5541	264.3497	330.5154	360.5597	473.3588	484.5318	538.1257	567.6016	605.7038	643.6495	666.8742	788.8018	809.7144	878.8062	917.0847	985.4081	1004.3797	1041.0936	1072.1013	1089.7318	1100.1099	1134.4251	1177.2369	1182.7352	1238.6581	1257.8131	1280.7629	1322.7042	1359.6458	1404.7561	1408.6027	1466.6619	1486.4762	1487.5027	1492.6666	1495.6388	1506.4723	1509.6568	2226.0878	2992.5624	3032.5173	3036.3893	3049.1789	3082.4754	3098.7362	3105.4635	3113.6128	3124.5099	3140.4347	3234.6801	3504.2201
CCC1(CC1OC)C#C	CC[C@]1(C[C@H]1OC)C#C	
InChI=1S/C8H12O/c1-4-8(5-2)6-7(8)9-3/h1,7H,5-6H2,2-3H3	InChI=1S/C8H12O/c1-4-8(5-2)6-7(8)9-3/h1,7H,5-6H2,2-3H3/t7-,8+/m1/s1
