16
gdb 11654	2.95902	2.00386	1.51627	2.3464	65.81	-0.2499	-0.041	0.2089	874.0185	0.12848	-383.676038	-383.668373	-383.667429	-383.708591	27.936	
C	-0.0885986849	 1.6431476347	 0.0722888321	-0.440013
C	 0.0406137884	 0.1321717703	 0.0889089607	 0.012479
C	 1.1227011865	-0.6636534076	-0.6968505854	 0.028696
C	 2.2249512611	-0.184802819	 0.2762762451	-0.265351
C	 0.9821268613	-0.6397270165	 1.0860834532	 0.310126
O	 0.8713638378	-1.818938345	 0.2022409238	-0.340437
C	 0.8028620021	-0.8331434477	 2.55510191	 0.030649
O	 1.0552263011	 0.0194821734	 3.3685214475	-0.250635
H	 0.8713430565	 2.1614946885	 0.1227882228	 0.127304
H	-0.5962560538	 1.9660417873	-0.8431129585	 0.127048
H	-0.6933390742	 1.9805638116	 0.9200023064	 0.138131
H	-0.9309151958	-0.365018182	 0.0251616867	 0.092555
H	 1.1872753951	-0.8753865495	-1.7642281275	 0.10075
H	 3.0825385945	-0.8522825959	 0.3609496437	 0.117132
H	 2.5035424436	 0.8682722357	 0.2937735658	 0.11354
H	 0.3936152807	-1.8281731482	 2.8376342135	 0.098026
46.7206	136.6761	167.6102	221.4952	324.0128	335.1109	451.2933	551.3098	588.3827	679.9358	744.5731	789.487	808.8024	909.0127	928.9435	989.5931	1005.6123	1011.5098	1067.3654	1103.3149	1108.3649	1140.6038	1175.6483	1216.6	1228.1073	1244.0407	1290.6821	1379.5275	1404.1293	1417.2977	1487.5314	1491.4901	1505.621	1819.6443	2894.0601	3040.9045	3081.9888	3091.4814	3101.4075	3120.5678	3127.1333	3168.4195
CC1C2CC1(O2)C=O	C[C@H]1[C@H]2C[C@@]1(O2)C=O	
InChI=1S/C6H8O2/c1-4-5-2-6(4,3-7)8-5/h3-5H,2H2,1H3	InChI=1S/C6H8O2/c1-4-5-2-6(4,3-7)8-5/h3-5H,2H2,1H3/t4-,5+,6+/m0/s1
