15
gdb 77801	2.39599	1.51463	1.11297	5.1382	68.17	-0.2728	-0.0537	0.2191	1089.9484	0.110532	-457.768592	-457.760461	-457.759517	-457.801598	29.522	
C	 0.0279145566	 1.5746620804	 0.072108868	-0.423385
C	 0.0800486834	 0.063847701	 0.0655309629	-0.082085
C	 1.3116793318	-0.7674250809	-0.2677146527	-0.328356
C	 2.5152956896	-0.1588058221	 0.4112646955	 0.460703
O	 3.6265130965	 0.1392301347	 0.1291604791	-0.30945
O	 1.8996742953	-0.0577407768	 1.655724787	-0.271745
C	 0.731293485	-0.7428209019	 1.1541578355	 0.348411
C	 0.123467011	-1.8435699527	 1.9200029652	 0.07316
O	 0.4790501376	-2.2030169234	 3.0113659251	-0.246954
H	 0.9081157465	 2.0041336846	 0.5540319137	 0.157464
H	-0.0303860289	 1.9570440054	-0.9510059613	 0.137779
H	-0.8573231538	 1.9181699529	 0.6156011484	 0.137118
H	-0.8171478988	-0.4189102764	-0.3216536057	 0.119701
H	 1.3223972668	-1.5575720677	-1.0050846848	 0.143097
H	-0.7248291384	-2.3215577671	 1.3795967144	 0.084543
88.9663	136.6026	175.0179	195.367	241.6445	280.8251	398.0619	453.9082	483.4578	595.2237	661.4036	719.8253	768.6431	828.3537	890.5182	922.3592	938.9494	981.8512	1037.485	1050.2556	1079.1674	1090.1387	1132.37	1219.4211	1254.3369	1308.134	1408.7614	1422.6755	1455.3582	1489.7157	1501.4547	1822.9685	1953.3862	2876.6432	3050.1204	3115.0809	3120.1406	3143.5651	3225.6173
CC1C2C(=O)OC12C=O	C[C@H]1[C@H]2C(=O)O[C@@]12C=O	
InChI=1S/C6H6O3/c1-3-4-5(8)9-6(3,4)2-7/h2-4H,1H3	InChI=1S/C6H6O3/c1-3-4-5(8)9-6(3,4)2-7/h2-4H,1H3/t3-,4-,6-/m0/s1
