18
gdb 16237	3.04296	2.13018	1.54389	1.358	73.88	-0.2276	0.0216	0.2492	876.8835	0.154645	-347.800501	-347.7931	-347.792155	-347.832079	29.147	
O	 0.1089080101	 1.3587724583	-0.1809412996	-0.425875
C	 0.0353297625	-0.0494843472	 0.0119437572	 0.031786
C	 0.5963842637	-0.4802479501	 1.3970093058	-0.289752
C	-0.6390304199	-0.7950087062	 2.2079484034	-0.096215
C	-1.7288672626	-0.8552722431	 1.4401893553	-0.14059
C	-1.4162463645	-0.5675385549	 0.0166338957	 0.322223
C	-2.4316950137	-0.0107533213	-0.9550681274	-0.315111
C	-1.9592569325	-1.4288513563	-1.1086629552	-0.317548
H	-0.480303963	 1.7672167456	 0.4634710005	 0.279935
H	 0.6181513757	-0.46773322	-0.8125931354	 0.084164
H	 1.2461735362	-1.362021002	 1.3134379081	 0.108726
H	 1.2125577898	 0.3234292645	 1.8150166093	 0.108565
H	-0.6137065571	-0.9787006014	 3.275985294	 0.092749
H	-2.7320458187	-1.0920507199	 1.7790155665	 0.092713
H	-3.4410323919	 0.1588573838	-0.5941471171	 0.109514
H	-2.0733529117	 0.7319573045	-1.6590798414	 0.127861
H	-1.2886114012	-1.6597253659	-1.9301554122	 0.115742
H	-2.6401244413	-2.2327386885	-0.8485364074	 0.111112
64.9877	221.4252	244.604	284.0114	314.5753	413.33	427.9173	540.7566	563.0936	741.3607	762.5065	782.8609	817.6898	863.0265	913.1954	935.6192	949.1071	951.6051	967.4725	987.3223	1022.7945	1053.3136	1072.9951	1076.2307	1121.2394	1167.6722	1193.5419	1238.3812	1281.3411	1288.9779	1306.8013	1320.4726	1409.4391	1433.6469	1468.6715	1477.0242	1500.8395	1671.6712	3015.964	3065.2636	3082.2315	3124.5147	3130.8577	3178.9829	3205.6695	3206.1807	3222.8472	3797.1153
OC1CC=CC11CC1	O[C@H]1CC=CC21CC2	
InChI=1S/C7H10O/c8-6-2-1-3-7(6)4-5-7/h1,3,6,8H,2,4-5H2	InChI=1S/C7H10O/c8-6-2-1-3-7(6)4-5-7/h1,3,6,8H,2,4-5H2/t6-/m0/s1
