19
gdb 41959	2.36718	1.97691	1.67192	0.9637	70.26	-0.2219	0.0759	0.2978	919.7038	0.16269	-460.156946	-460.150008	-460.149064	-460.187973	28.236	
C	-0.0113300412	 1.5650236329	-0.0225777419	-0.081061
O	 1.2762068825	 2.1526209977	-0.0890693568	-0.243586
C	 2.0620364262	 1.5937181884	-1.1271146556	-0.081059
C	 2.1081142542	 0.0638619141	-1.0578828843	 0.063199
C	 2.7912637551	-0.5111979842	 0.1871066322	-0.081062
O	 2.0894245403	-0.1947516267	 1.3765298258	-0.243586
C	 0.7178900544	-0.539903788	 1.2916114755	-0.081063
C	 0.0533958612	 0.0354185476	 0.036688563	 0.063201
O	 0.7657686447	-0.4365341954	-1.1145124045	-0.285507
H	-0.4957696854	 1.9750270182	 0.8691906921	 0.10832
H	-0.6071395913	 1.848499517	-0.9064289709	 0.091658
H	 1.6547379464	 1.8797725266	-2.1114034367	 0.091658
H	 3.0633213363	 2.0243125277	-1.0268562838	 0.10832
H	 2.6167596967	-0.3174185291	-1.9507827628	 0.085304
H	 2.8620147724	-1.6050313195	 0.0643657196	 0.091659
H	 3.8022360229	-0.1085664995	 0.3048229444	 0.10832
H	 0.6001719933	-1.6363457748	 1.2692650538	 0.091659
H	 0.2430993671	-0.1578416697	 2.2008068812	 0.10832
H	-0.9629610557	-0.3669481833	-0.0438356605	 0.085303
156.3646	239.8289	275.464	338.7848	402.9303	411.4995	434.3529	464.8982	606.7467	750.2118	784.0181	795.0423	871.3988	887.7789	920.8496	937.4327	983.5529	984.6445	1008.6517	1045.9349	1102.7515	1122.7736	1151.0722	1155.9185	1176.4131	1244.3399	1268.209	1298.003	1313.0988	1327.5799	1347.4419	1365.8062	1371.301	1393.9236	1395.62	1411.632	1436.317	1473.1104	1484.3134	1486.0508	1493.9156	2963.1885	2963.5278	2967.577	2970.5746	3050.6642	3052.7888	3076.4497	3078.33	3083.7685	3085.8312
C1OCC2COCC1O2	C1OC[C@H]2COC[C@@H]1O2	
InChI=1S/C6H10O3/c1-5-2-8-4-6(9-5)3-7-1/h5-6H,1-4H2	InChI=1S/C6H10O3/c1-5-2-8-4-6(9-5)3-7-1/h5-6H,1-4H2/t5-,6+
