17
gdb 126204	2.11246	1.47361	0.92912	5.2218	77.9	-0.2453	-0.0382	0.2071	1245.3502	0.137078	-418.051793	-418.043193	-418.042249	-418.086135	30.662	
C	 0.0338595919	 1.5687352689	 0.1184003586	-0.370752
C	-0.0048417786	 0.031469615	 0.0258991373	-0.306543
C	-1.3945535897	-0.5169293933	-0.0756656574	 0.302999
C	-2.2394626183	-0.7428438916	-1.1644994568	 0.023924
C	-1.9518866292	-0.5409878118	-2.5755532645	 0.065124
O	-2.7370923522	-0.7467214098	-3.4767724368	-0.285331
C	-3.4463780142	-1.2276015186	-0.5903305642	-0.063276
N	-3.3731306012	-1.3005989905	 0.7260655125	-0.219243
N	-2.1192481878	-0.8606791973	 1.0099573471	-0.252114
H	 1.0663727149	 1.9208870751	 0.1972877148	 0.125465
H	-0.417192849	 2.0238566884	-0.7675971679	 0.13673
H	-0.5165784035	 1.9257547379	 0.993998025	 0.125286
H	 0.5715336687	-0.2978799504	-0.8438885691	 0.132896
H	 0.489763194	-0.4031625622	 0.9029177345	 0.113954
H	-0.9236647735	-0.1721945093	-2.7955105925	 0.05375
H	-4.3452963154	-1.5229685358	-1.109610351	 0.141868
H	-1.8225959869	-0.8366288248	 1.9723378804	 0.275264
32.9232	132.6349	159.4688	167.1692	221.0406	260.5083	321.4427	391.3808	533.0451	571.4304	623.7549	692.6988	731.7168	783.04	795.2928	918.6039	951.5374	973.6108	1035.967	1061.0544	1078.9377	1114.5834	1166.6307	1227.9701	1261.8753	1330.037	1353.6101	1401.5694	1411.0313	1424.7291	1467.4242	1486.3902	1496.3275	1506.247	1515.0365	1602.295	1784.608	2858.6541	3037.5658	3043.7652	3083.1501	3117.8964	3123.4743	3262.7088	3655.6069
CCC1=C(C=O)C=NN1	CCc1c(C=O)cn[nH]1	
InChI=1S/C6H8N2O/c1-2-6-5(4-9)3-7-8-6/h3-4H,2H2,1H3,(H,7,8)	InChI=1S/C6H8N2O/c1-2-6-5(4-9)3-7-8-6/h3-4H,2H2,1H3,(H,7,8)
