17
gdb 72003	2.67898	1.6607	1.20655	4.7902	74.67	-0.2394	-0.0261	0.2132	1038.9593	0.134427	-421.770138	-421.762305	-421.761361	-421.802378	30.039	
C	-0.1042719529	 1.5203803284	-0.0911491565	-0.509802
C	 0.0032311758	 0.0253642665	-0.0556777615	 0.226913
C	 0.9012077663	-0.8725796268	-0.9154574537	-0.275318
C	 0.0832949944	-2.0462607491	-0.3241244737	 0.064521
O	 0.4955041812	-2.0757761437	 1.069950391	-0.309337
C	-0.2248849205	-0.8667405855	 1.2288123829	 0.361014
C	-0.561723712	-0.3288129198	 2.5475562585	 0.041558
O	-0.184783425	-0.7899506713	 3.5967939133	-0.263897
C	-1.0769875206	-1.0298888951	-0.0097100047	-0.235991
H	 0.8175241627	 1.9924793978	 0.2650668606	 0.137383
H	-0.2843686192	 1.8669318954	-1.1150799633	 0.128878
H	-0.9287057884	 1.8869128869	 0.5278644425	 0.129032
H	 0.6927469933	-0.719455695	-1.9779389499	 0.109492
H	 1.9784503031	-0.8887727534	-0.7263016637	 0.111506
H	 0.0141089646	-3.0302863307	-0.7806846736	 0.098909
H	-1.2176926777	 0.5701238921	 2.5021599919	 0.072465
H	-2.1497984752	-1.0161230067	-0.1499420801	 0.112671
105.2143	166.1219	202.1138	241.1587	267.2294	329.1084	435.5417	474.5016	519.8131	622.8944	701.0485	718.2529	802.5636	820.8703	902.7707	909.6654	934.2947	940.3051	961.3977	1019.3263	1032.8775	1075.6418	1098.2917	1132.7479	1150.9396	1161.635	1235.9593	1250.7977	1280.3798	1363.4445	1376.4505	1418.5526	1448.0687	1484.585	1486.7895	1498.851	1809.5592	2869.5892	3030.1888	3053.3958	3091.1985	3105.3234	3115.8493	3157.9016	3203.502
CC12CC3OC1(C=O)C23	C[C@@]12C[C@H]3O[C@]1(C=O)[C@@H]23	
InChI=1S/C7H8O2/c1-6-2-4-5(6)7(6,3-8)9-4/h3-5H,2H2,1H3	InChI=1S/C7H8O2/c1-6-2-4-5(6)7(6,3-8)9-4/h3-5H,2H2,1H3/t4-,5-,6+,7-/m1/s1
