18
gdb 76984	2.97164	1.41171	1.19975	4.3951	72.8	-0.2299	-0.0287	0.2012	1083.8081	0.146188	-439.048864	-439.040123	-439.039179	-439.08212	32.713	
C	-0.0862846315	 1.5387648693	-0.0801132251	-0.518653
C	 0.1238381953	 0.057243505	-0.0940931747	 0.31753
N	-0.8769041572	-0.8853584115	 0.4548606186	-0.362743
C	 0.5076533406	-0.9052482181	 0.9804766294	-0.128321
C	 1.3147202897	-1.7876008165	-0.0020556908	-0.175325
C	 0.81465673	-3.1995149219	-0.1158599541	 0.171194
O	-0.0466785404	-3.5658842691	-0.881635422	-0.258327
C	 0.9305435419	-0.7480047183	-1.1364199939	 0.099854
O	 0.3125692442	-1.191359451	-2.2985496678	-0.43351
H	 0.8526386557	 2.071724628	-0.2637203954	 0.127475
H	-0.7965190113	 1.8361951586	-0.8597824397	 0.142888
H	-0.4831256984	 1.8764562874	 0.8838633433	 0.116708
H	-1.4496805544	-0.368469259	 1.1213437389	 0.229874
H	 0.7200135206	-0.7363636429	 2.0288520783	 0.100281
H	 2.3834484815	-1.7892008831	 0.2312889218	 0.089408
H	 1.2733451659	-3.9229102463	 0.5955158205	 0.086639
H	 1.8217938462	-0.1827792285	-1.4303502396	 0.090268
H	-0.2745390184	-1.9175991521	-2.0394969877	 0.304761
101.6269	111.4698	186.3	199.8151	228.5267	254.372	298.9044	407.1064	466.2107	506.2452	571.5688	623.696	698.8927	767.4334	813.3336	846.9763	868.7015	919.5785	953.483	988.2166	1019.3519	1063.5484	1071.7766	1102.9138	1106.8893	1163.8684	1194.4062	1238.7063	1282.4544	1287.9064	1345.6579	1348.581	1408.9441	1426.1582	1449.2498	1465.9328	1481.257	1498.1391	1802.4385	2873.7348	3025.5152	3050.6195	3073.8181	3092.0003	3095.9275	3193.1788	3476.5356	3716.9749
CC12NC1C(C=O)C2O	C[C@]12N[C@H]1[C@@H](C=O)[C@H]2O	
InChI=1S/C6H9NO2/c1-6-4(7-6)3(2-8)5(6)9/h2-5,7,9H,1H3	InChI=1S/C6H9NO2/c1-6-4(7-6)3(2-8)5(6)9/h2-5,7,9H,1H3/t3-,4+,5-,6+/m1/s1
