18
gdb 84216	3.02603	1.76149	1.60845	1.3648	81.74	-0.2	-0.0274	0.1726	922.2824	0.148493	-364.723082	-364.715977	-364.715033	-364.754227	29.138	
C	 0.1605503736	 1.5339437844	-0.0714317806	-0.390556
C	-0.0112667809	 0.0147147103	-0.0268734282	 0.033683
C	 0.7409838712	-0.6471757299	-1.1872397269	-0.108795
C	 1.5921739713	-1.5565465718	-0.6860367229	 0.030851
C	 3.0710413559	-1.2767806559	-0.7161438116	-0.149753
C	 3.2981224487	-0.6768391618	 0.4653198901	-0.079781
C	 2.1195860263	-0.8361648529	 1.4136708585	-0.061037
C	 1.2242051617	-1.8115325691	 0.7773617847	-0.09164
N	 0.5761180964	-0.5900940878	 1.201137582	-0.145939
H	 1.2157356617	 1.8067930242	-0.1713460305	 0.124124
H	-0.3891668714	 1.9670565153	-0.9127249118	 0.116033
H	-0.2216512972	 1.971137002	 0.8555173555	 0.130233
H	-1.0875446262	-0.2114426389	 0.0236644285	 0.087394
H	 0.8952176699	-0.116527368	-2.1217704916	 0.09827
H	 3.7273984128	-1.3064736144	-1.5758591834	 0.114004
H	 4.218375393	-0.1895653971	 0.7650046298	 0.104113
H	 2.3113008314	-0.8292101698	 2.4801884242	 0.102198
H	 0.9272217517	-2.7874321088	 1.157273224	 0.086598
110.1832	221.1237	245.3052	322.6844	385.8285	469.5796	533.4323	585.3386	646.688	710.5783	731.7619	757.5788	797.701	805.5999	848.7417	866.8745	896.1968	904.3719	937.7606	975.9373	1021.795	1037.743	1079.9421	1100.0565	1114.0367	1128.7734	1142.6066	1224.3567	1271.3325	1277.4172	1297.8018	1324.8492	1336.6537	1348.5601	1398.0548	1486.5122	1495.674	1587.224	1609.8116	2975.4354	3038.2353	3111.92	3116.3606	3117.7294	3175.2538	3182.9377	3199.4997	3226.9444
CC1C=C2C=CC3C2N13	C[C@H]1[CH][C]2C=C[C@@H]3[C@H]2N13	
InChI=1S/C8H9N/c1-5-4-6-2-3-7-8(6)9(5)7/h2-5,7-8H,1H3	InChI=1S/C8H9N/c1-5-4-6-2-3-7-8(6)9(5)7/h2-5,7-8H,1H3/t5-,7+,8-,9?/m0/s1
