15
gdb 30891	3.06933	1.25905	0.92811	1.4322	64.47	-0.174	0.0602	0.2342	1200.1993	0.11203	-491.103509	-491.094482	-491.093538	-491.137691	32.264	
C	-0.0049006894	 0.9035608145	-0.5526641502	-0.252373
O	-0.3847189913	 0.5441507954	 0.7782844134	-0.273423
C	 0.4605210755	-0.3161032655	 1.3900823829	 0.264659
C	 0.9462428555	-1.5588836817	 1.1099981487	 0.223549
O	 0.7052869493	-2.3023817834	-0.0001785779	-0.447891
N	 1.7772849397	-2.0085783773	 2.1164019338	-0.440889
C	 1.7793326103	-1.0445016629	 3.0020973956	 0.443323
O	 2.4300146328	-1.0353280187	 4.1793084038	-0.425008
N	 1.025823834	 0.0138397351	 2.6344090193	-0.368703
H	 0.0301129067	 0.0215467923	-1.2005256799	 0.146021
H	-0.7682906738	 1.5951837989	-0.914776133	 0.128781
H	 0.9752171683	 1.3962954952	-0.5612466447	 0.114644
H	 1.2286896012	-3.1064301876	 0.0942521913	 0.299315
H	 2.8821817972	-1.8854873936	 4.2452952653	 0.312887
H	 0.839600594	 0.8460070792	 3.1671272416	 0.275109
40.2326	143.8719	156.6938	236.1808	254.8537	295.3035	307.5603	322.6298	378.0034	410.3982	460.825	547.6357	629.9316	667.2039	698.5846	719.2635	825.2537	1030.2291	1064.1048	1129.2005	1177.6927	1184.3994	1214.0211	1244.0459	1283.5434	1360.8308	1433.3687	1482.3307	1496.5933	1507.4522	1572.543	1623.5107	1732.4959	3016.8064	3089.994	3132.4812	3679.6149	3809.7564	3815.8341
COC1=C(O)N=C(O)N1	COc1c(O)nc(O)[nH]1	
InChI=1S/C4H6N2O3/c1-9-3-2(7)5-4(8)6-3/h7H,1H3,(H2,5,6,8)	InChI=1S/C4H6N2O3/c1-9-3-2(7)5-4(8)6-3/h7H,1H3,(H2,5,6,8)
