15
gdb 45205	3.58531	1.60194	1.35859	4.1184	64.83	-0.273	-0.0177	0.2553	923.0448	0.11385	-457.703361	-457.697004	-457.696059	-457.734018	25.71	
O	-0.1288927509	 0.0407652423	 0.3327622298	-0.311099
C	-0.0284545056	 1.1823526113	 0.0451241613	 0.375423
O	-1.0530782712	 2.0849300142	-0.3049006602	-0.279096
C	-0.0539026324	 3.008549343	-0.9031723974	 0.119674
C	 0.337904818	 4.4819278087	-0.6469891577	-0.310096
C	 1.6702354462	 4.1311906121	 0.1272024	 0.048482
C	 1.1038680549	 3.2236321343	 1.218515113	-0.244464
C	 0.9838068517	 2.3398424803	-0.0454237397	 0.238587
O	 2.2398042614	 2.8998557484	-0.5145238173	-0.369777
H	 0.0168247271	 2.7541043326	-1.960502093	 0.117327
H	 0.4899870656	 5.010312599	-1.5892763181	 0.124769
H	-0.3301362428	 5.0698496652	-0.014971004	 0.134318
H	 2.4208226627	 4.9035292692	 0.2860711807	 0.102455
H	 1.8707343154	 2.8237339643	 1.8812568001	 0.13303
H	 0.19979564	 3.5164891452	 1.7546024526	 0.120468
152.938	244.2138	272.6521	408.4479	455.1513	562.4957	617.1115	671.917	683.4238	718.7883	772.9515	786.9514	820.9953	895.71	914.7716	959.1466	997.6807	1006.2101	1049.5546	1061.7222	1084.063	1126.2013	1158.682	1194.6985	1219.8931	1230.8536	1265.5446	1288.7549	1300.7745	1403.2749	1472.7765	1493.4478	1953.114	3083.3584	3087.8981	3108.4155	3141.0772	3145.3705	3163.2242
O=C1OC2CC3CC12O3	O=C1O[C@H]2C[C@H]3C[C@@]12O3	
InChI=1S/C6H6O3/c7-5-6-2-3(9-6)1-4(6)8-5/h3-4H,1-2H2	InChI=1S/C6H6O3/c7-5-6-2-3(9-6)1-4(6)8-5/h3-4H,1-2H2/t3-,4-,6-/m0/s1
