14
gdb 20512	4.93391	1.5899	1.21154	2.2015	66.21	-0.2574	-0.0552	0.2022	935.1211	0.108536	-378.76514	-378.757983	-378.757039	-378.796896	25.717	
C	-0.0627508169	 1.5018422501	 0.0098535188	-0.514092
C	 0.0488128916	-0.0145269659	 0.0032239675	 0.323338
O	 1.1232817295	-0.5789058588	-0.0082469864	-0.304255
C	-1.2042820297	-0.7900281263	 0.0109959492	 0.281046
C	-1.3967074723	-2.16416167	 0.0075107691	-0.271358
C	-2.7891638977	-2.3341364799	 0.0187614901	-0.00419
N	-3.4324481695	-1.1617772431	 0.0287019903	-0.212936
N	-2.4576786286	-0.2472238865	 0.0237108131	-0.266613
H	 0.9390512703	 1.931299364	 0.0030631065	 0.154254
H	-0.6130173336	 1.8565950589	-0.8695347187	 0.140396
H	-0.5982246808	 1.8499775129	 0.9009341083	 0.140377
H	-0.6193584148	-2.9095320473	-0.0019063005	 0.134044
H	-3.3579417343	-3.2518860835	 0.0202036946	 0.123007
H	-2.7081634031	 0.7274993555	 0.0293799281	 0.276982
88.1661	138.9658	186.3936	186.8634	375.5725	487.2289	534.4261	566.5172	627.9058	680.5351	709.0923	842.2738	914.4753	936.0074	939.7039	1010.5402	1042.3754	1053.2076	1132.6443	1167.6038	1265.1951	1297.2934	1352.8152	1384.1301	1448.0063	1467.5746	1475.5989	1480.0421	1584.9946	1777.5049	3030.7735	3091.8859	3156.9196	3253.2547	3287.0585	3668.2863
CC(=O)C1=CC=NN1	CC(=O)c1ccn[nH]1	
InChI=1S/C5H6N2O/c1-4(8)5-2-3-6-7-5/h2-3H,1H3,(H,6,7)	InChI=1S/C5H6N2O/c1-4(8)5-2-3-6-7-5/h2-3H,1H3,(H,6,7)
