16
gdb 45296	4.47391	1.3419	1.0822	4.0878	83.04	-0.2291	-0.0502	0.1789	1072.8688	0.127257	-400.780416	-400.773753	-400.772809	-400.811446	26.746	
N	-0.0605559654	 1.2682038506	 0.1962568023	-0.548157
C	-0.0385536186	 0.0216816526	-0.0211238721	 0.4135
O	 1.1113957614	-0.7014125524	-0.3222871373	-0.2702
C	 0.730615	-2.0357484149	-0.6290211682	 0.057204
C	 1.3747900464	-3.2380318843	 0.0946630765	-0.310591
C	 0.1806785128	-4.179607311	 0.1798943156	-0.065574
C	-0.99479637	-3.5453620204	-0.0013614713	-0.181418
C	-0.7162956909	-2.1376289555	-0.2255681551	 0.336915
C	-1.174800236	-0.913059687	 0.0604863251	-0.3734
H	 0.8776830378	 1.6625239107	 0.1175519542	 0.222184
H	 0.8432556361	-2.1832858309	-1.7131768203	 0.107607
H	 2.23432112	-3.6660651427	-0.4280081267	 0.117064
H	 1.7059198606	-2.9475688354	 1.1003068051	 0.136429
H	 0.2868351078	-5.231872924	 0.4180166838	 0.114049
H	-1.9774319399	-3.9892533869	 0.0891442576	 0.118186
H	-2.1468659121	-0.6014421384	 0.4111738409	 0.126203
125.3616	188.9759	303.2643	334.8937	449.4002	507.3985	575.5744	668.3455	688.4523	717.7911	765.413	786.7635	851.5569	856.267	879.8267	894.5229	935.092	971.2067	996.5554	1033.8262	1047.3893	1109.7467	1124.0263	1160.3012	1170.8854	1235.2033	1265.6973	1310.5567	1328.6258	1367.2762	1379.2301	1479.7747	1607.5334	1699.264	1752.673	2996.6011	3032.2687	3094.0299	3199.27	3228.0436	3256.3975	3483.8945
N=C1OC2CC=CC2=C1	[NH]C1=C[C]2[C@@H](O1)CC=C2	
InChI=1S/C7H7NO/c8-7-4-5-2-1-3-6(5)9-7/h1-2,4,6,8H,3H2	InChI=1S/C7H7NO/c8-7-4-5-2-1-3-6(5)9-7/h1-2,4,6,8H,3H2/t6-/m0/s1
