13
gdb 20516	5.02554	1.60471	1.22544	2.9784	61.23	-0.2524	-0.045	0.2073	912.8552	0.096279	-394.80421	-394.797166	-394.796222	-394.836053	24.77	
C	-0.0211928512	 1.4975810203	-0.0450752201	-0.481471
C	-0.0255195868	-0.0116756535	 0.0435759897	 0.308004
O	-0.0473054168	-0.6145369638	 1.0981251237	-0.314036
C	-0.0017459598	-0.7574901761	-1.2335349307	 0.219562
C	-0.0007081228	-2.1274812638	-1.4050641138	-0.13277
N	 0.0252693204	-2.2833835464	-2.7398144825	-0.158417
N	 0.0398577169	-1.0899142721	-3.3843554285	-0.101126
N	 0.0234861607	-0.1723456964	-2.4705128513	-0.250027
H	 0.8662658621	 1.8427808653	-0.5852135954	 0.152525
H	-0.8848921389	 1.8458187528	-0.6206000958	 0.152534
H	-0.0407295988	 1.9183523811	 0.9604175388	 0.13639
H	-0.015860905	-2.9426475305	-0.7026642688	 0.177995
H	 0.03449609	-3.1336964169	-3.2815242052	 0.290837
79.8408	120.4281	183.1907	199.9309	371.9117	500.1262	566.8663	615.7922	633.9502	705.372	742.5173	850.0217	947.0773	973.6486	1019.6332	1027.6744	1048.2084	1114.7064	1169.7604	1287.2084	1317.0931	1365.6168	1393.7103	1456.7029	1467.8858	1486.8281	1566.2551	1780.5775	3047.9203	3109.8263	3159.9864	3299.3416	3652.0197
CC(=O)C1=CNN=N1	CC(=O)c1c[nH]nn1	
InChI=1S/C4H5N3O/c1-3(8)4-2-5-7-6-4/h2H,1H3,(H,5,6,7)	InChI=1S/C4H5N3O/c1-3(8)4-2-5-7-6-4/h2H,1H3,(H,5,6,7)
