18
gdb 102332	1.70972	1.49215	1.14574	2.9896	77.98	-0.2783	0.0085	0.2868	1199.2864	0.144803	-401.922883	-401.912598	-401.911654	-401.958003	37.04	
C	-0.0278986621	 1.5655856936	 0.1832621819	-0.412786
C	-0.0334950567	 0.0468304309	 0.0069099541	-0.186082
C	 0.7143310201	-0.4550214874	-1.2698846924	-0.140549
C	-0.0050823193	 0.0209887321	-2.582390849	-0.082324
O	-1.3493473742	-0.3832870737	-2.6308473249	-0.414913
C	 2.1087371453	-0.0101582349	-1.3021431793	 0.33252
C	 3.2395070481	 0.3904890966	-1.3586629683	-0.436552
C	 0.6633332619	-1.930507872	-1.2796218671	 0.272517
N	 0.5538676463	-3.080415153	-1.3232407302	-0.344499
H	 0.9907410603	 1.9630611697	 0.1959363444	 0.134373
H	-0.5857934791	 2.0722806786	-0.6093581458	 0.130731
H	-0.5041560972	 1.8251648729	 1.1329250133	 0.125745
H	 0.4308524647	-0.4323467339	 0.8736955425	 0.122909
H	-1.0595777313	-0.3236581579	-0.0637671794	 0.131956
H	 0.0034763484	 1.1127013903	-2.5974553392	 0.134253
H	 0.5741929281	-0.3367068779	-3.4429302311	 0.120801
H	-1.374504312	-1.3392000651	-2.7574929411	 0.302504
H	 4.2451102386	 0.7310225611	-1.4008772584	 0.209394
73.3979	118.0226	125.2234	135.9739	173.821	192.9536	272.4999	285.4911	353.0742	392.0841	437.4363	483.3571	505.8769	575.2407	580.9374	652.3682	663.5734	697.6435	783.0377	890.6841	968.6045	986.7248	1047.3631	1083.4383	1110.9233	1147.0106	1185.5597	1248.794	1320.7638	1368.5937	1391.1176	1411.4815	1416.6984	1480.4868	1493.6404	1503.2312	1512.083	2240.2339	2351.5229	3029.3319	3047.7227	3061.8892	3103.9875	3115.4851	3121.0752	3128.5268	3498.5956	3793.749
CCC(CO)(C#C)C#N	CC[C@@](CO)(C#C)C#N	
InChI=1S/C7H9NO/c1-3-7(4-2,5-8)6-9/h1,9H,4,6H2,2H3	InChI=1S/C7H9NO/c1-3-7(4-2,5-8)6-9/h1,9H,4,6H2,2H3/t7-/m0/s1
