18
gdb 76239	2.38532	1.44176	1.0021	3.8143	80.61	-0.2416	0.0275	0.2692	1207.4062	0.145322	-401.942861	-401.933136	-401.932192	-401.97758	34.745	
C	-0.0644689386	 1.6399912776	 0.1201272777	-0.404701
C	 0.0308747239	 0.1264183013	 0.0318167354	 0.038402
C	 0.7530432004	-0.5013287419	-1.2226471923	-0.370703
C	 1.2617675724	 0.3826223119	-2.2444729135	 0.3559
C	 1.6919779858	 1.1211993556	-3.0900720493	-0.467129
C	 1.7767868714	-1.0650628098	-0.1772297839	 0.413347
O	 2.7648328917	-1.7466073526	-0.2143357517	-0.369956
N	 1.0809420798	-0.4940893686	 0.8514670305	-0.074051
C	 1.2615321862	-0.5904657454	 2.2771710923	-0.350354
H	 0.9022855711	 2.1056542216	-0.0872598945	 0.13655
H	-0.7890843158	 2.0165461351	-0.6077923678	 0.132411
H	-0.3974551486	 1.9484404936	 1.1166147756	 0.118145
H	-0.9518953628	-0.330628052	 0.2073495992	 0.084968
H	 0.1716871851	-1.3159955828	-1.6656977898	 0.128674
H	 2.0790920861	 1.7644394457	-3.8410722169	 0.201572
H	 2.1679324265	-1.1735094372	 2.456252843	 0.16525
H	 1.3818561416	 0.3973331596	 2.7363439178	 0.13327
H	 0.4144427138	-1.0969609417	 2.7568672281	 0.128406
72.6132	109.1108	126.7543	148.8735	185.6803	208.6715	243.1776	308.1352	385.6055	434.0479	473.364	570.6667	613.6717	642.4609	651.2077	739.0912	805.1515	811.4625	908.7411	991.7032	1043.0383	1068.4586	1101.1671	1130.0302	1142.4429	1169.3338	1249.5191	1284.6681	1322.1708	1381.8493	1411.983	1417.9745	1449.2088	1482.5311	1485.7314	1492.0929	1518.6619	1887.2956	2236.4127	3014.4594	3017.4348	3041.402	3066.6738	3070.7638	3109.7579	3128.6746	3131.3395	3503.6331
CC1C(C#C)C(=O)N1C	C[C@H]1[C@@H](C#C)C(=O)N1C	
InChI=1S/C7H9NO/c1-4-6-5(2)8(3)7(6)9/h1,5-6H,2-3H3	InChI=1S/C7H9NO/c1-4-6-5(2)8(3)7(6)9/h1,5-6H,2-3H3/t5-,6+/m0/s1
