19
gdb 54093	2.72212	1.43271	1.29503	2.1728	75.26	-0.2376	-0.0189	0.2187	1075.8422	0.156415	-422.972407	-422.963447	-422.962502	-423.006356	33.472	
C	 0.0428547992	 1.4104270003	-0.4175714784	-0.487054
C	 0.0454333171	 0.011376565	 0.1732589441	 0.295953
O	 1.0257719939	-0.4590896539	 0.7067147398	-0.308359
C	-1.2547188022	-0.7776442202	 0.0894347871	 0.270092
C	-2.210372082	-0.3589230061	 1.2040942811	-0.489229
C	-1.8807297955	-1.0889999362	-1.3178385905	-0.003189
C	-0.6694578456	-1.9879034947	-1.6585959056	-0.239288
C	-1.1471074083	-2.3036737864	-0.2215172166	 0.021058
O	-2.543011888	-2.2714627838	-0.7295830502	-0.313616
H	 0.9735763468	 1.9206582845	-0.1664422681	 0.144531
H	-0.0522562083	 1.3477529186	-1.5085117384	 0.14341
H	-0.8121976345	 1.9921685665	-0.0590000476	 0.140557
H	-2.4845056537	 0.6982183706	 1.1238693212	 0.117434
H	-3.1191331144	-0.9597330651	 1.1462708547	 0.150432
H	-1.7443006282	-0.5088745332	 2.1832865415	 0.133298
H	-2.4827158306	-0.4493485277	-1.9652230954	 0.093665
H	-0.8824945372	-2.7691098396	-2.3877625251	 0.111501
H	 0.3141263645	-1.5337916009	-1.7929128033	 0.114472
H	-0.869379913	-3.1217526376	 0.4416415397	 0.104331
47.9734	113.1183	155.6762	191.4987	224.8268	276.2758	300.1952	384.493	476.3238	521.2222	598.3173	612.1231	679.2273	744.0141	808.9333	863.3059	871.4616	896.2769	919.5868	967.6702	1011.5666	1021.2256	1032.2629	1099.3011	1104.8689	1135.6451	1158.3212	1166.8863	1185.6735	1207.9486	1262.9483	1277.5243	1304.2733	1380.7592	1391.059	1461.5465	1474.0448	1488.3252	1493.5577	1503.9319	1796.9038	3035.7228	3040.0857	3076.808	3097.7562	3102.189	3107.1576	3134.0846	3142.0823	3151.9904	3159.191
CC(=O)C1(C)C2CC1O2	CC(=O)[C@@]1(C)[C@H]2C[C@@H]1O2	
InChI=1S/C7H10O2/c1-4(8)7(2)5-3-6(7)9-5/h5-6H,3H2,1-2H3	InChI=1S/C7H10O2/c1-4(8)7(2)5-3-6(7)9-5/h5-6H,3H2,1-2H3/t5-,6+,7+
