19
gdb 114294	2.27506	1.53803	1.12859	1.6239	81.52	-0.2378	0.0533	0.2911	1152.4512	0.157728	-385.812054	-385.803166	-385.802222	-385.845712	33.5	
C	-0.1162597646	 1.3696876779	 0.1108219438	-0.23516
O	 0.4202809383	 0.0930514093	-0.1483762452	-0.23406
C	 0.7960031235	-0.593102895	 1.0106706468	 0.15158
C	-0.295662502	-1.2036536032	 1.9674048306	-0.295354
C	 0.4005347329	-2.5595977393	 1.8087443548	-0.071107
C	 0.3447873253	-3.0048562754	 0.3642828448	-0.202603
C	-0.7755469694	-2.7676209188	-0.5036787164	 0.351302
C	-1.731259644	-2.6325638479	-1.2212855295	-0.46231
C	 1.3809798644	-1.9781124448	 0.7874277676	-0.118801
H	 0.6028958559	 2.0128645187	 0.6437248146	 0.099999
H	-0.3504724033	 1.8262529276	-0.8535641888	 0.128034
H	-1.0378946403	 1.3160044126	 0.709431422	 0.108819
H	 1.4947336568	 0.0188271565	 1.6033396538	 0.069606
H	-0.2568947948	-0.7948926556	 2.9785469659	 0.10176
H	-1.3227185413	-1.168716045	 1.5949524556	 0.118323
H	 0.5950004967	-3.2686186004	 2.6036169748	 0.094081
H	 0.8058287386	-3.979195298	 0.2152057555	 0.114339
H	-2.5602294364	-2.4875145831	-1.8682808767	 0.19041
H	 2.4338002236	-2.1891341062	 0.6424182461	 0.091143
76.1824	124.2387	137.3019	184.0195	194.1613	289.5589	350.3886	446.7239	461.7577	538.1574	592.1146	605.8992	648.9685	730.9644	770.0266	803.1434	837.2598	920.3549	956.1264	975.7223	1001.4209	1030.3676	1050.2746	1073.4669	1089.5482	1137.7343	1176.5455	1178.8388	1186.9139	1225.22	1245.2095	1265.9883	1313.8579	1340.9327	1390.691	1416.1102	1478.8262	1483.5241	1488.376	1507.6091	2235.4381	2965.9088	2973.95	3019.747	3066.5006	3116.8254	3124.3653	3129.3849	3179.075	3193.5223	3505.3223
COC1CC2C(C#C)C12	CO[C@H]1C[C@H]2[C@@H](C#C)[C@@H]12	
InChI=1S/C8H10O/c1-3-5-6-4-7(9-2)8(5)6/h1,5-8H,4H2,2H3	InChI=1S/C8H10O/c1-3-5-6-4-7(9-2)8(5)6/h1,5-8H,4H2,2H3/t5-,6+,7+,8-/m1/s1
