19
gdb 13703	5.21346	0.84288	0.76852	1.2815	82.93	-0.2312	0.0458	0.277	1541.0924	0.164387	-327.882316	-327.872924	-327.87198	-327.917683	33.062	
C	 0.014315799	 1.6407513557	 0.0526743041	-0.363548
C	-0.0142031533	 0.1018709406	 0.0083374193	-0.315949
C	 0.6496277108	-0.4501928172	-1.1678782359	 0.098008
C	 1.2146527906	-0.8836771583	-2.1405155232	 0.120843
C	 1.8539156931	-1.3916277676	-3.3232780565	-0.254404
N	 3.1799591281	-2.0475205351	-3.172194896	-0.324477
C	 2.0309548159	-2.8566893763	-3.5912771139	 0.020494
C	 1.5563782067	-3.9187324402	-2.6331337336	-0.395408
H	 1.0435372145	 2.0093991718	 0.063438464	 0.129687
H	-0.4860020085	 2.0641049136	-0.8225755984	 0.126292
H	-0.4934072595	 2.006159986	 0.9503941375	 0.113068
H	 0.4624131219	-0.2987888123	 0.9123107714	 0.130879
H	-1.0551190457	-0.2459696597	 0.0388666537	 0.126672
H	 1.7182881432	-0.7694295026	-4.2063586453	 0.101008
H	 3.7622227381	-1.8098794596	-3.9713135868	 0.231357
H	 1.9801212881	-3.1331967707	-4.6442981871	 0.083343
H	 1.5976510731	-3.5521174711	-1.6053796375	 0.13858
H	 0.5243389174	-4.2086112289	-2.8576905405	 0.115772
H	 2.1853093765	-4.8121829182	-2.7071068753	 0.117782
25.6307	79.376	117.654	151.0107	184.5018	228.676	314.8324	333.6335	398.1618	490.3241	523.2072	571.4577	725.4006	774.2497	786.0108	851.5053	907.8957	960.4353	987.3853	1011.7577	1067.8227	1081.3442	1103.6475	1129.3497	1157.3202	1207.2891	1248.9939	1266.1767	1285.8649	1350.3734	1392.8783	1408.6048	1421.7976	1454.3275	1475.0984	1487.452	1494.2371	1495.6622	1505.82	2363.0878	3017.5996	3037.5615	3043.6851	3044.7776	3099.3441	3101.7777	3116.6358	3116.7958	3123.555	3136.3875	3499.1567
CCC#CC1NC1C	CCC#C[C@H]1N[C@H]1C	
InChI=1S/C7H11N/c1-3-4-5-7-6(2)8-7/h6-8H,3H2,1-2H3	InChI=1S/C7H11N/c1-3-4-5-7-6(2)8-7/h6-8H,3H2,1-2H3/t6-,7+/m0/s1
