18
gdb 11272	4.97042	1.24987	1.05022	0.7874	84.59	-0.2236	-0.0147	0.2089	1139.1484	0.153491	-310.662474	-310.654359	-310.653415	-310.694799	30.797	
C	-0.0814654767	 1.5808088385	-0.0333259878	-0.398055
C	 0.0270924744	 0.0523990992	 0.0135679233	 0.000501
C	 0.7956153001	-0.5658380311	-1.1855752856	-0.226016
C	 1.5526415036	-1.7883539101	-0.6184409123	-0.320138
C	 1.6277316608	-1.4813309804	 0.8713788599	 0.19253
C	 0.791864194	-0.4845153633	 1.199828876	-0.171918
C	 2.4537516412	-2.2210805063	 1.7509702491	 0.197903
C	 3.1775716276	-2.8770923992	 2.4573513386	-0.414213
H	 0.9121572878	 2.0418019477	-0.0499314387	 0.117442
H	-0.620431872	 1.9070391549	-0.9290731084	 0.114769
H	-0.6184447425	 1.9695179919	 0.8383937964	 0.113753
H	-0.9967492168	-0.354199294	 0.0469450861	 0.082797
H	 0.1382637335	-0.8222892438	-2.0204633451	 0.097755
H	 1.5188802996	 0.1695472345	-1.5561652279	 0.103434
H	 1.0039940224	-2.725931264	-0.778560621	 0.113047
H	 2.5417082184	-1.9265167064	-1.0659172618	 0.112261
H	 0.6438049824	-0.11723705	 2.2094224694	 0.095019
H	 3.8076764019	-3.4474131179	 3.0935442497	 0.189129
105.0576	125.6225	147.8648	232.2838	289.1043	335.2948	463.1363	520.8364	534.2577	551.3606	589.1899	611.3557	631.7925	813.4819	850.4678	886.9304	908.2025	932.0756	968.3017	998.0295	1043.4466	1103.0559	1124.2815	1167.1961	1201.2917	1239.379	1269.9165	1309.0933	1319.1936	1329.2384	1364.3343	1408.7503	1484.6075	1496.2315	1498.3518	1502.0132	1670.475	2219.9952	2967.1074	3022.3263	3027.9431	3041.3402	3075.6775	3095.8837	3098.6623	3100.8191	3195.4981	3504.2236
CC1CCC(=C1)C#C	C[C@H]1CCC(=C1)C#C	
InChI=1S/C8H10/c1-3-8-5-4-7(2)6-8/h1,6-7H,4-5H2,2H3	InChI=1S/C8H10/c1-3-8-5-4-7(2)6-8/h1,6-7H,4-5H2,2H3/t7-/m0/s1
