15
gdb 132361	2.0203	1.79094	0.95523	1.8256	72.02	-0.2298	-0.021	0.2088	1152.0436	0.113177	-458.179726	-458.171651	-458.170707	-458.212704	29.991	
C	 0.0046542949	 1.492670162	 0.0344175808	-0.46868
C	-0.0157018891	-0.0098610202	-0.0165369568	 0.343866
C	-0.1038016982	-0.6989960034	-1.224264415	-0.35192
C	-0.1037548183	-2.0846963315	-1.1164608386	 0.346469
F	-0.173301175	-2.8125445141	-2.2235703559	-0.065049
N	-0.0360796833	-2.7521110297	 0.0074229858	-0.370213
C	 0.0356440535	-1.985432584	 1.1147760484	 0.433984
N	 0.0630771206	-2.6456417439	 2.3040656099	-0.554581
N	 0.0566332305	-0.6474051602	 1.1582427267	-0.369483
H	 0.9136739201	 1.8380498151	 0.5365338506	 0.144678
H	-0.0402388855	 1.9339552849	-0.9634067157	 0.12349
H	-0.8425236624	 1.8584033005	 0.623161541	 0.146091
H	-0.1605516463	-0.2049644994	-2.1836798479	 0.109675
H	 0.2578658586	-3.6317392057	 2.2857781435	 0.266738
H	 0.3179470997	-2.1158501404	 3.1195426033	 0.264936
59.7007	181.1761	203.108	236.3314	294.9288	331.5335	340.6662	509.9947	528.3265	548.1044	574.8923	612.0919	640.605	718.7244	815.7597	826.1964	972.5898	979.5077	1015.3861	1057.6916	1100.3254	1125.5208	1187.9093	1303.5164	1395.5607	1413.2591	1472.5968	1474.0189	1489.9164	1497.55	1605.6956	1627.196	1653.9688	3045.2225	3106.7941	3133.9719	3230.8856	3617.6827	3750.1287
CC1=CC(F)=NC(N)=N1	Cc1cc(F)nc(N)n1	
InChI=1S/C5H6FN3/c1-3-2-4(6)9-5(7)8-3/h2H,1H3,(H2,7,8,9)	InChI=1S/C5H6FN3/c1-3-2-4(6)9-5(7)8-3/h2H,1H3,(H2,7,8,9)
