16
gdb 112248	2.08955	1.45382	0.94289	2.7577	67.08	-0.2569	-0.0363	0.2206	1201.9032	0.122581	-475.040933	-475.031792	-475.030848	-475.075755	31.901	
O	-0.146507384	 1.3648957599	-0.0818680513	-0.43227
C	 0.0150451121	-0.0138168556	 0.2361109331	-0.093125
C	-1.3732703952	-0.6138747069	 0.0964712428	 0.052118
N	-1.8781257278	-0.6333433829	-1.2839572058	-0.317437
C	-2.0692262633	-1.9802750254	-1.3781014702	 0.425328
O	-2.460287781	-2.716111856	-2.2398948719	-0.350805
C	-1.5779822066	-2.1583568417	 0.1102879303	-0.298598
C	-0.4406400821	-3.1206690249	 0.2981454031	 0.146946
O	 0.6853602125	-2.8315830726	 0.6183581761	-0.245174
H	 0.7211063997	 1.7790404349	-0.0723678609	 0.293648
H	 0.7153343914	-0.5086954071	-0.4461440197	 0.108174
H	 0.3821428135	-0.1606022932	 1.2607658776	 0.107043
H	-2.0511353017	-0.0876660691	 0.777924992	 0.101563
H	-2.019670747	 0.1150458082	-1.9456750444	 0.265172
H	-2.4164125512	-2.487660125	 0.7338648988	 0.130268
H	-0.7295736091	-4.1756090026	 0.0999883304	 0.107149
51.5615	88.2076	125.6254	168.1693	192.1483	253.3055	261.6104	386.545	416.6216	442.5599	509.2794	651.6725	681.007	772.6116	838.593	853.0592	931.0741	1006.7315	1053.9548	1065.3558	1068.0848	1120.7651	1148.3981	1190.5134	1215.5846	1254.2627	1281.5901	1341.1893	1376.2045	1387.5592	1425.9543	1463.4607	1502.7182	1817.4916	1902.8696	2903.5182	3015.9932	3042.3755	3066.1129	3071.6149	3624.1898	3836.669
OCC1NC(=O)C1C=O	OC[C@H]1NC(=O)[C@H]1C=O	
InChI=1S/C5H7NO3/c7-1-3-4(2-8)6-5(3)9/h1,3-4,8H,2H2,(H,6,9)	InChI=1S/C5H7NO3/c7-1-3-4(2-8)6-5(3)9/h1,3-4,8H,2H2,(H,6,9)/t3-,4+/m0/s1
