20
gdb 94351	2.70512	1.08225	1.02624	3.3895	80.89	-0.2449	-0.0264	0.2185	1291.8143	0.169673	-403.125894	-403.116718	-403.115774	-403.160469	33.905	
C	-0.1919986655	 1.462315154	-0.0254479081	-0.388517
C	 0.002126823	-0.0508999528	-0.0330510814	-0.065305
C	 1.2084696061	-0.564878671	-0.8832265809	-0.223598
C	 2.0144057052	-0.8503074312	 0.4198017613	-0.313795
C	 0.7259205145	-0.6025467631	 1.2133381408	 0.361676
N	 0.5789496146	-0.0869375943	 2.5531666767	-0.379814
C	 0.1974415964	-1.498734164	 2.294234869	-0.204888
C	-1.2566644435	-1.7854244453	 2.4029513503	 0.180153
O	-1.7178544265	-2.8823288292	 2.6001900989	-0.263687
H	 0.7515217107	 1.9829310384	 0.1727354488	 0.111764
H	-0.570271345	 1.8085265976	-0.9928348551	 0.11435
H	-0.9010035371	 1.7624972339	 0.751436414	 0.130366
H	-0.9457100609	-0.5463242879	-0.262698392	 0.080059
H	 0.9798548459	-1.4725780572	-1.4452587585	 0.110703
H	 1.6478641662	 0.1669055937	-1.5645794629	 0.103545
H	 2.4688266227	-1.8394041597	 0.5149045498	 0.111965
H	 2.7806244727	-0.0951357147	 0.6234904171	 0.110108
H	 1.472684361	-0.0523045259	 3.0382988801	 0.239865
H	 0.8489947814	-2.3017330303	 2.6311688435	 0.10294
H	-1.9001640319	-0.8860281312	 2.2801098887	 0.082108
47.863	83.0277	143.844	197.964	224.0325	230.6201	336.0439	382.613	410.5723	453.8869	546.9468	564.4654	728.7596	778.6189	831.2219	878.86	911.7854	931.8359	940.9457	971.2691	989.169	1018.6369	1064.5633	1072.2815	1086.7584	1133.8563	1178.3536	1200.4166	1210.2761	1238.5025	1257.886	1265.6734	1284.7644	1320.4441	1352.1339	1393.6602	1408.7961	1454.2624	1473.4912	1492.2553	1495.9132	1497.7721	1820.2737	2889.8773	3031.8204	3047.781	3055.6222	3071.0065	3098.6577	3099.7932	3111.9525	3125.6895	3143.3329	3497.0015
CC1CCC11NC1C=O	C[C@H]1CC[C@]21N[C@H]2C=O	
InChI=1S/C7H11NO/c1-5-2-3-7(5)6(4-9)8-7/h4-6,8H,2-3H2,1H3	InChI=1S/C7H11NO/c1-5-2-3-7(5)6(4-9)8-7/h4-6,8H,2-3H2,1H3/t5-,6-,7+/m0/s1
