20
gdb 26511	3.50403	1.18702	1.16271	2.0221	84.9	-0.1998	0.0458	0.2456	1176.9838	0.172053	-366.036381	-366.028073	-366.027129	-366.069342	32.658	
C	-0.2651924894	 1.3939075023	 0.4614981701	-0.4344
C	 0.0067860659	-0.0353947923	 0.0310698872	 0.321747
C	 1.3577267749	-0.3939369392	-0.5348897015	-0.299255
C	 0.9575049822	-0.8834804106	 0.8377871982	-0.299265
N	-1.1310057391	-0.7097897584	-0.5412293201	-0.007472
C	-2.103229104	-1.3764747416	 0.1693498764	-0.098498
C	-3.0936152533	-1.7588042947	-0.7043273328	-0.175967
C	-2.7164995878	-1.2984122414	-1.9967649717	-0.175965
C	-1.5106243866	-0.6516317041	-1.8630150929	-0.098491
H	 0.6338965521	 1.8497722874	 0.8864688356	 0.115528
H	-0.5870723513	 2.0010903497	-0.3907556658	 0.127695
H	-1.056387992	 1.4274593606	 1.2174716435	 0.127702
H	 1.3894102344	-1.1233998988	-1.3351970465	 0.127892
H	 2.0967175221	 0.3961661357	-0.6089590991	 0.116587
H	 1.4216730739	-0.4295080468	 1.7063029101	 0.116589
H	 0.7249419516	-1.9362146981	 0.9439682453	 0.127891
H	-1.9957020514	-1.5222083892	 1.2323439242	 0.113188
H	-3.9811715128	-2.3169815663	-0.4479814771	 0.090652
H	-3.2602279525	-1.4367498153	-2.918857362	 0.090654
H	-0.881783097	-0.1597628989	-2.587846701	 0.113187
64.7401	115.5379	194.9606	228.4682	304.2159	320.8417	390.323	510.3215	537.7292	624.0977	650.514	692.0729	746.2286	785.2876	805.637	821.9892	847.7937	876.1223	887.6164	941.3003	955.1236	974.8337	1044.7753	1067.7717	1073.8825	1087.4945	1091.4246	1105.3397	1133.463	1192.7357	1209.4767	1283.4113	1324.2391	1370.2227	1370.682	1416.6078	1426.3017	1461.0552	1484.2579	1493.6788	1507.8634	1522.8264	1560.5912	3034.9026	3103.6913	3112.0854	3139.6509	3143.6867	3224.3195	3237.4301	3237.5766	3249.3315	3264.7604	3271.3683
CC1(CC1)N1C=CC=C1	CC1(CC1)n1cccc1	
InChI=1S/C8H11N/c1-8(4-5-8)9-6-2-3-7-9/h2-3,6-7H,4-5H2,1H3	InChI=1S/C8H11N/c1-8(4-5-8)9-6-2-3-7-9/h2-3,6-7H,4-5H2,1H3
