16
gdb 85477	2.44394	1.50201	1.12321	3.7972	70.78	-0.2522	0.0017	0.2539	1097.4087	0.125531	-434.103065	-434.094806	-434.093862	-434.136145	30.511	
C	-0.4048641302	 1.554330844	 0.0288725751	-0.420037
C	 0.1368113683	 0.1431464728	-0.0515989259	 0.11805
O	 1.1834581659	 0.0694379892	-1.0327657931	-0.24956
C	 2.115269765	-0.8561218061	-0.6509015544	 0.463263
N	 3.1254747884	-1.2315412516	-1.3044202626	-0.582124
N	 1.7547418574	-1.3441205313	 0.6041383002	-0.32135
C	 0.8088320477	-0.4384900556	 1.2265332664	-0.166251
C	 1.4480721204	 0.5832763874	 2.0799471498	 0.285369
N	 1.9587732051	 1.362475828	 2.7637655087	-0.317892
H	 0.3788572807	 2.2601097969	 0.313373704	 0.157889
H	-0.8083438387	 1.8484993996	-0.9429400698	 0.142448
H	-1.2115386518	 1.6091040145	 0.7662210659	 0.133126
H	-0.6536836152	-0.5594270631	-0.3443498833	 0.111053
H	 3.1575996067	-0.7760357029	-2.2132413063	 0.231619
H	 2.5024548635	-1.7450345539	 1.150396276	 0.272927
H	 0.0744440167	-0.9748410777	 1.8352378293	 0.14147
84.4656	126.2265	149.4521	222.5032	264.2856	295.7016	411.4486	476.2804	488.1826	557.83	594.2219	690.2991	725.4152	750.9137	800.9644	854.384	895.1193	950.3329	965.4315	1048.7107	1100.1818	1115.2507	1134.4362	1166.4647	1236.1238	1308.8767	1363.3347	1380.1895	1395.4788	1409.9584	1422.8985	1483.4983	1497.5176	1800.4441	2352.444	3028.8024	3052.5468	3067.1405	3126.2232	3140.9319	3535.3495	3631.5312
CC1OC(=N)NC1C#N	C[C@H]1O[C]([NH])N[C@H]1C#N	
InChI=1S/C5H7N3O/c1-3-4(2-6)8-5(7)9-3/h3-4H,1H3,(H2,7,8)	InChI=1S/C5H7N3O/c1-3-4(2-6)8-5(7)9-3/h3-4H,1H3,(H2,7,8)/t3-,4+/m1/s1
