12
gdb 48231	2.84472	1.3821	0.93018	4.9441	65.12	-0.2927	-0.0998	0.1929	1132.9086	0.076206	-468.841991	-468.833383	-468.832439	-468.87648	28.702	
N	-0.0053849013	 1.3191686428	 0.0089284087	-0.452405
C	-0.0101196817	 0.0560158067	 0.0022158139	 0.113954
N	-1.2339673666	-0.6653754988	 0.009826133	-0.206644
C	-2.4645477648	 0.0461806058	 0.0252486316	 0.177698
O	-3.5391467677	-0.4837799373	 0.0339034084	-0.257288
C	-1.1433167435	-2.0646907662	 0.0015243107	 0.393759
O	-0.0851269473	-2.6476380692	-0.0108730042	-0.306969
C	-2.3850367426	-2.8382808278	 0.0094649872	 0.25639
N	-3.2294633209	-3.6273740933	 0.0133578686	-0.311031
H	 0.9487419021	 1.6740944718	 0.0018399268	 0.254671
H	 0.8472746716	-0.6153882766	-0.0094499389	 0.168098
H	-2.2844387272	 1.1278704821	 0.0305757042	 0.169767
33.2875	95.1877	174.6223	177.6016	234.6377	250.596	287.9694	339.468	443.8111	469.3842	625.6854	696.4292	771.0551	791.3461	842.081	1053.3281	1053.5543	1093.4809	1136.1206	1271.7797	1323.0864	1409.1911	1429.0655	1733.3716	1773.3419	1839.7807	2348.1953	3084.1492	3151.1511	3517.8267
N=CN(C=O)C(=O)C#N	N=CN(C=O)C(=O)C#N	
InChI=1S/C4H3N3O2/c5-1-4(9)7(2-6)3-8/h2-3,6H	InChI=1S/C4H3N3O2/c5-1-4(9)7(2-6)3-8/h2-3,6H
