20
gdb 112413	2.45916	1.21107	0.89134	4.9931	75.44	-0.2343	0.0387	0.273	1317.4805	0.171521	-440.331693	-440.322423	-440.321479	-440.365815	34.661	
C	-0.0474688397	 1.5903635968	-0.1601644663	-0.391629
C	-0.0213373211	 0.0680123657	 0.0377405746	-0.006452
N	 0.6737849669	-0.6113789973	-1.0474660479	-0.300695
C	 1.9648143653	-0.9914311787	-0.7736962431	 0.397951
O	 2.7521025416	-1.4483127406	-1.5722471146	-0.380756
C	 2.193077876	-0.7084136485	 0.7126938857	-0.338067
C	 0.7847349465	-0.4427243222	 1.2695971961	 0.027688
C	 0.7367917741	 0.4486742636	 2.500796651	-0.105789
O	 1.4147328415	-0.2422248718	 3.5395715949	-0.42147
H	 0.9635660832	 2.0083018346	-0.1914811738	 0.125646
H	-0.5385613646	 1.8369969132	-1.1071817756	 0.115703
H	-0.6062281926	 2.0868459941	 0.6395775734	 0.120767
H	-1.0560824968	-0.2903954876	 0.0989331404	 0.086066
H	 0.3596681671	-0.5701144394	-2.0050918883	 0.245089
H	 2.7103343491	-1.5374865512	 1.1954970097	 0.139978
H	 2.8434645216	 0.1710463494	 0.7980331154	 0.122233
H	 0.3507740362	-1.4066052558	 1.558383436	 0.098526
H	 1.2171229711	 1.4170588667	 2.2917144807	 0.089174
H	-0.3112098307	 0.6526779106	 2.7771165262	 0.086865
H	 1.4463214452	 0.3284977084	 4.3127413453	 0.28917
99.4715	104.1892	118.2678	182.9951	258.9922	266.8962	290.0918	381.5205	423.3731	457.6669	490.6314	503.7083	588.0153	646.2823	708.6802	796.6912	862.7771	908.926	941.4181	993.5922	1029.6129	1062.3275	1094.3154	1099.9408	1115.9583	1151.7657	1184.1843	1245.3993	1252.5139	1262.106	1292.2506	1315.2652	1337.9668	1385.26	1393.3496	1408.7735	1432.4219	1467.6689	1470.5892	1495.1157	1496.7061	1524.0233	1831.8217	2959.7238	2997.0812	3022.0775	3033.7777	3041.3821	3052.8416	3102.3611	3112.1584	3134.2995	3627.8283	3831.9241
CC1NC(=O)CC1CO	C[C@H]1NC(=O)C[C@H]1CO	
InChI=1S/C6H11NO2/c1-4-5(3-8)2-6(9)7-4/h4-5,8H,2-3H2,1H3,(H,7,9)	InChI=1S/C6H11NO2/c1-4-5(3-8)2-6(9)7-4/h4-5,8H,2-3H2,1H3,(H,7,9)/t4-,5+/m1/s1
