16
gdb 11224	4.46936	1.38626	1.19827	2.0882	73.32	-0.2409	0.0131	0.254	1030.4799	0.128927	-346.572754	-346.564707	-346.563762	-346.60537	29.367	
C	 0.0476401814	 1.540621015	 0.0429766654	-0.493139
C	 0.0420954835	 0.0473349833	 0.0098340831	 0.299834
C	-0.1329044226	-0.7676126713	-1.0253087795	-0.202153
C	-0.0872607363	-2.209751206	-0.5713814722	-0.082426
O	 0.2338598735	-2.139885791	 0.8234618012	-0.26401
C	 0.2339951526	-0.7828154015	 1.2537413597	-0.150687
C	-1.3534927361	-2.9186382741	-0.799555046	 0.338795
C	-2.3868314497	-3.4968914127	-1.0049447507	-0.477815
H	 1.0011384247	 1.9248991044	 0.4259272337	 0.132191
H	-0.1171343448	 1.9653519596	-0.9501136846	 0.131869
H	-0.7345972	 1.921736031	 0.7112533946	 0.13415
H	-0.3159867631	-0.490296433	-2.0550527496	 0.11053
H	 0.7149680977	-2.7711411573	-1.0755998511	 0.111831
H	 1.1867277385	-0.5656879107	 1.760244029	 0.106476
H	-0.5704525786	-0.6089673191	 1.9876153169	 0.106273
H	-3.2998091505	-4.0106358767	-1.17935509	 0.198281
66.9682	126.3722	168.8894	208.2657	271.846	306.1602	425.0188	501.4098	526.7601	610.3228	618.7122	666.2015	779.0714	832.8693	897.6023	908.0214	971.0393	990.5357	1005.008	1040.253	1090.8645	1096.3749	1200.4469	1208.124	1278.4752	1311.085	1350.7881	1384.5057	1415.0232	1480.1891	1488.3719	1519.5413	1735.0776	2232.4233	2967.3147	2975.4893	2998.3175	3023.0509	3070.0332	3119.3984	3223.533	3502.84
CC1=CC(OC1)C#C	CC1=C[C@@H](OC1)C#C	
InChI=1S/C7H8O/c1-3-7-4-6(2)5-8-7/h1,4,7H,5H2,2H3	InChI=1S/C7H8O/c1-3-7-4-6(2)5-8-7/h1,4,7H,5H2,2H3/t7-/m0/s1
