21
gdb 32786	3.04114	0.96686	0.77844	0.6892	86.27	-0.2065	0.0268	0.2333	1528.7342	0.182045	-387.137531	-387.127886	-387.126942	-387.172923	35.052	
C	-0.2442189863	 1.6203608502	 0.0369600754	-0.379257
C	-0.2222192381	 0.0908625734	 0.0820799736	-0.149079
C	 0.8161450425	-0.4642126083	 1.075608191	-0.317738
C	 0.8313768243	-1.9626612146	 1.1528778998	 0.168526
C	 1.7779128034	-2.8206458845	 0.6707177181	 0.267807
C	 3.0710416984	-2.6352598961	-0.0402767653	-0.493289
O	 1.4141014734	-4.1147455724	 0.9246016957	-0.181643
C	 0.2210383742	-4.0778788685	 1.575366178	-0.020407
C	-0.1852661018	-2.796605986	 1.7430409109	-0.265827
H	 0.729673686	 2.0228204412	-0.2641918799	 0.1124
H	-0.9898304653	 1.987972992	-0.6748747195	 0.111727
H	-0.4846371201	 2.0427906478	 1.0191725114	 0.113255
H	-1.2157949322	-0.2869414224	 0.3531936604	 0.099367
H	-0.0087171806	-0.311007713	-0.9158905122	 0.098334
H	 1.810240588	-0.0947446927	 0.7963594805	 0.096158
H	 0.6092664426	-0.0472157215	 2.0707063257	 0.102146
H	 3.9002290844	-3.093848761	 0.5106519736	 0.136441
H	 3.0521889507	-3.0895239404	-1.0379231025	 0.136102
H	 3.2891279514	-1.5717748487	-0.1585089821	 0.133353
H	-0.1940596011	-5.0343894841	 1.8472645971	 0.128236
H	-1.0909072939	-2.4680277305	 2.2301432302	 0.103387
44.3134	86.4685	112.2131	125.7975	229.1232	241.7741	267.1031	314.0163	354.0314	420.9157	619.6627	641.1592	677.512	739.2228	744.0723	761.7513	821.4175	870.6381	896.4048	913.3774	960.5472	1041.943	1054.078	1062.3105	1074.9532	1111.4008	1166.9677	1183.6299	1236.7502	1262.8874	1281.9847	1314.9405	1327.137	1382.8318	1410.1885	1412.2359	1439.118	1473.2163	1481.2148	1490.0637	1494.2585	1499.7632	1510.4251	1552.8698	1664.7674	3011.1943	3026.9706	3028.3602	3029.6063	3045.2898	3066.5034	3076.2368	3095.4765	3101.7842	3129.671	3244.8506	3281.1382
CCCC1=C(C)OC=C1	CCCc1c(C)occ1	
InChI=1S/C8H12O/c1-3-4-8-5-6-9-7(8)2/h5-6H,3-4H2,1-2H3	InChI=1S/C8H12O/c1-3-4-8-5-6-9-7(8)2/h5-6H,3-4H2,1-2H3
