21
gdb 38678	2.56571	1.83097	1.42392	1.4241	80.53	-0.2372	0.0766	0.3138	1003.9497	0.186423	-387.070106	-387.062959	-387.062015	-387.10123	30.018	
C	-0.0365225553	 1.419002821	 0.7714775489	-0.30214
C	 1.218894131	 0.91088448	 0.0992075005	-0.005651
C	 2.4961015691	 0.5317669844	 0.8450024758	-0.23815
C	 2.4632895518	-0.7038862888	 1.7385209329	 0.117144
C	 1.2903547744	-0.8659557814	 2.7277087701	-0.296461
C	 0.7183239428	-1.8003801873	 1.641354226	 0.117144
C	-0.3354664943	-1.2475206223	 0.6873296002	-0.23815
C	-0.0668341469	 0.1029655881	 0.0276161682	-0.00565
O	 2.0153428739	-1.8662433122	 0.9959437752	-0.296697
H	-0.0861411854	 1.4020741927	 1.853678628	 0.110554
H	-0.5471409547	 2.2704655121	 0.332905872	 0.102748
H	 1.4490051069	 1.425315702	-0.8303767287	 0.083913
H	 3.2758032068	 0.3404074807	 0.0970615298	 0.108863
H	 2.8481839297	 1.3876050088	 1.4384381458	 0.096039
H	 3.4610073777	-0.8687552711	 2.1621046303	 0.071737
H	 1.5858263129	-1.4155452411	 3.6234280141	 0.108059
H	 0.7212757566	 0.0135746474	 3.0222890607	 0.106146
H	 0.4031182411	-2.7902583605	 1.9918288011	 0.071737
H	-0.4396359428	-1.9942822131	-0.1098306502	 0.108863
H	-1.3037615491	-1.2213764322	 1.2072408148	 0.096039
H	-0.5543503563	 0.1664616829	-0.9419269357	 0.083914
153.4094	230.6745	298.8521	321.5303	344.2865	393.8007	407.0905	592.123	693.4031	715.4778	717.6608	817.1807	838.2673	843.1179	877.243	900.282	902.2464	917.3408	976.6023	1014.0818	1032.9762	1048.61	1060.1156	1066.9282	1123.5087	1124.1942	1145.0844	1156.1173	1168.3625	1221.2335	1236.5168	1264.9564	1272.6419	1294.6847	1338.9814	1339.8206	1364.0471	1386.3501	1408.5371	1410.2453	1432.0887	1469.8061	1470.3976	1491.3771	1518.8671	3006.1352	3006.6628	3032.0028	3035.403	3047.9463	3048.5075	3089.0827	3122.1419	3130.0003	3137.4246	3154.8313	3218.8176
C1C2CC3CC(CC12)O3	C1[C@H]2C[C@H]3C[C@@H](C[C@@H]12)O3	
InChI=1S/C8H12O/c1-5-2-7-4-8(9-7)3-6(1)5/h5-8H,1-4H2	InChI=1S/C8H12O/c1-5-2-7-4-8(9-7)3-6(1)5/h5-8H,1-4H2/t5-,6+,7-,8+
