21
gdb 96182	2.23495	1.86714	1.16977	2.3556	78.36	-0.2382	0.0779	0.3161	1107.3118	0.184409	-424.217142	-424.209031	-424.208087	-424.249751	31.64	
C	 0.0872647518	 1.5411665809	-0.0624232037	-0.404192
C	 0.0687732089	 0.0199325864	-0.0080179387	 0.098602
O	 0.6072752437	-0.4611014466	-1.2315502804	-0.253528
C	 0.6694965799	-1.874264534	-1.2744073664	-0.075387
C	 1.7389461867	-2.391636247	-0.3126126348	-0.217142
C	 1.4705761354	-1.9215540742	 1.1290887628	-0.083585
C	 2.6564516517	-1.1954070375	 1.7972851325	-0.080393
O	 2.0864842341	 0.0933079183	 1.487327507	-0.291265
C	 0.8054080184	-0.5211134879	 1.2132165812	 0.139171
H	 1.119024205	 1.8986075071	-0.0806606383	 0.145164
H	-0.4271093187	 1.886930955	-0.9623843059	 0.120734
H	-0.4127768656	 1.9637547244	 0.8140810384	 0.113348
H	-0.9746656415	-0.3386628879	 0.0774680655	 0.057961
H	-0.3173673767	-2.3081640478	-1.0347437397	 0.080982
H	 0.9107073879	-2.1438552372	-2.3068621458	 0.105922
H	 1.797705273	-3.48447152	-0.3590963736	 0.09543
H	 2.7024595368	-2.0008739234	-0.6571846621	 0.112346
H	 0.9867898971	-2.7007939387	 1.7216695424	 0.073364
H	 2.7300009833	-1.3535600454	 2.8826377354	 0.09339
H	 3.6449826781	-1.3298781362	 1.3438722784	 0.104587
H	 0.1462221907	-0.4210154384	 2.090068566	 0.064492
106.5597	117.1024	215.8199	222.3124	302.9707	335.3783	385.5729	438.9914	455.5636	574.9278	679.5868	761.7435	794.2135	836.1618	859.9808	918.3995	940.7986	972.9091	997.9967	999.3311	1025.0444	1061.5968	1101.1694	1110.0617	1138.9276	1151.5646	1172.523	1200.2094	1230.1942	1244.2625	1281.7806	1292.9702	1329.8051	1354.1506	1364.4965	1373.2561	1385.5756	1390.7757	1404.9327	1419.9968	1481.2726	1483.4053	1495.8436	1501.423	1524.4366	2920.6082	2952.743	2974.7693	2999.5138	3038.0444	3050.9249	3061.3452	3072.9807	3082.3457	3092.7468	3123.5434	3140.5923
CC1OCCC2COC12	C[C@H]1OCC[C@H]2CO[C@@H]12	
InChI=1S/C7H12O2/c1-5-7-6(4-9-7)2-3-8-5/h5-7H,2-4H2,1H3	InChI=1S/C7H12O2/c1-5-7-6(4-9-7)2-3-8-5/h5-7H,2-4H2,1H3/t5-,6+,7+/m1/s1
