22
gdb 60425	4.3782	0.606	0.55314	2.386	80.	-0.2638	0.0594	0.3232	2032.2265	0.192434	-441.543773	-441.53272	-441.531775	-441.581363	39.188	
C	-0.0984410832	 1.5383806174	 0.1133024608	-0.384671
C	-0.0210446049	 0.0106601662	-0.0266994641	 0.038482
C	-1.4287011436	-0.5967298297	-0.0948328427	-0.389153
C	 0.806692507	-0.4290011195	-1.248243796	-0.191133
C	 2.2711166253	-0.0222098097	-1.1803518181	-0.063946
O	 2.9269212026	-0.5899755781	-2.3275113414	-0.261647
C	 4.2256729724	-0.2360672932	-2.4811758471	 0.490617
N	 4.7569443334	-0.8788424688	-3.566387007	-0.563081
O	 4.8302334334	 0.5117791525	-1.748662881	-0.398068
H	 0.8866884955	 1.9935026857	 0.2503032412	 0.120356
H	-0.5537935411	 1.9879535218	-0.7774913776	 0.112398
H	-0.7123653187	 1.8182725951	 0.9755320093	 0.112413
H	 0.4724816404	-0.3867839117	 0.8722643349	 0.075341
H	-1.9680572072	-0.2354634149	-0.97870546	 0.112549
H	-1.3908359725	-1.6895629838	-0.1517983652	 0.110748
H	-2.0187938806	-0.3257104449	 0.7866938296	 0.110838
H	 0.7594944744	-1.5204578417	-1.3440925422	 0.1012
H	 0.3616164473	-0.016410634	-2.1633914061	 0.098736
H	 2.4084026885	 1.0620888743	-1.1956963772	 0.123498
H	 2.7502694694	-0.4007341544	-0.2699310393	 0.115215
H	 4.1300673145	-1.2884316852	-4.23797718	 0.262362
H	 5.6367754476	-0.5245459336	-3.8998530806	 0.266947
27.5482	54.389	97.7552	113.14	167.9523	225.2682	241.9559	252.733	270.1795	356.4706	393.3637	406.1888	452.5907	491.7581	537.0789	673.8077	779.514	791.2123	826.8701	928.4217	930.7105	956.4608	966.8545	995.625	1060.0032	1099.5574	1117.314	1157.8675	1190.6232	1196.2405	1254.7542	1300.2432	1312.1675	1348.7856	1368.0587	1377.6912	1402.734	1423.0649	1434.3388	1484.081	1491.1483	1498.5656	1506.4256	1511.6485	1524.1313	1611.9847	1832.6002	2996.5881	3020.2886	3024.4104	3030.3417	3042.9874	3060.216	3089.2068	3095.4025	3099.3813	3101.9839	3110.0015	3613.4746	3742.7943
CC(C)CCOC(N)=O	CC(C)CCOC(=O)N	
InChI=1S/C6H13NO2/c1-5(2)3-4-9-6(7)8/h5H,3-4H2,1-2H3,(H2,7,8)	InChI=1S/C6H13NO2/c1-5(2)3-4-9-6(7)8/h5H,3-4H2,1-2H3,(H2,7,8)
