23
gdb 104403	2.34452	1.34653	1.14885	1.5906	80.77	-0.2429	0.0706	0.3135	1224.4767	0.205	-425.431727	-425.421661	-425.420717	-425.466371	37.811	
C	 0.0242417728	 1.6656228386	 0.1407512886	-0.400464
C	 0.0329880766	 0.1346192848	 0.240118823	-0.227758
C	-1.3252787581	-0.5421917567	-0.0192196832	 0.267407
C	-2.3595260633	-0.1712241066	 1.0598119158	-0.443179
C	-1.8991827377	-0.2596933878	-1.4215786486	-0.093635
O	-2.8410023706	-1.2989919863	-1.6737393547	-0.267467
C	-2.4520081015	-2.4615123061	-0.9501110034	-0.094273
C	-1.2204741094	-2.0880405219	-0.1025083021	 0.063817
O	-0.0063261083	-2.4265070422	-0.7634590816	-0.442815
H	 1.0298777697	 2.0610273516	 0.3146278238	 0.113807
H	-0.2916081536	 2.0054324654	-0.8514384297	 0.118924
H	-0.6384921894	 2.1300300556	 0.877438084	 0.11562
H	 0.7603481537	-0.2670811727	-0.4689434009	 0.121787
H	 0.3856206569	-0.1603415819	 1.2371230705	 0.088929
H	-2.5193553967	 0.9098169615	 1.0936604473	 0.119282
H	-3.3297712135	-0.635028316	 0.861534041	 0.127411
H	-2.0233225259	-0.4910214768	 2.0520481191	 0.110597
H	-2.4323523222	 0.6929067693	-1.4932947234	 0.100749
H	-1.0958146801	-0.2714531531	-2.1735081796	 0.094069
H	-3.294273673	-2.7934551724	-0.3291608298	 0.098468
H	-2.2028521749	-3.2771603323	-1.6447364262	 0.083631
H	-1.2554268428	-2.5515500343	 0.8937647272	 0.061779
H	-0.0163723789	-3.3718193398	-0.940857727	 0.283313
78.5881	95.3619	153.6697	194.2834	209.2134	241.9551	257.2829	304.887	342.3546	346.7611	379.9106	464.6589	493.9777	606.4745	730.1275	784.865	810.91	865.818	920.2217	932.8108	950.1407	968.7884	1015.2899	1018.6129	1034.7126	1076.036	1111.6865	1120.0293	1173.0933	1199.0651	1215.354	1230.4785	1252.3988	1270.9167	1327.5974	1343.2798	1362.827	1369.6905	1388.2417	1407.4311	1416.5751	1432.224	1484.1958	1496.6132	1497.2449	1506.0299	1509.8151	1517.3969	1520.7819	2986.7815	2992.9959	2999.558	3024.8122	3034.1486	3036.4738	3040.4724	3079.9082	3092.0702	3101.4923	3107.3341	3113.8627	3119.5675	3824.5385
CCC1(C)COCC1O	CC[C@@]1(C)COC[C@H]1O	
InChI=1S/C7H14O2/c1-3-7(2)5-9-4-6(7)8/h6,8H,3-5H2,1-2H3	InChI=1S/C7H14O2/c1-3-7(2)5-9-4-6(7)8/h6,8H,3-5H2,1-2H3/t6-,7+/m1/s1
