13
gdb 128457	4.82469	1.13579	0.92475	4.7236	61.29	-0.2996	-0.0649	0.2347	1171.8292	0.089353	-486.066937	-486.059125	-486.058181	-486.100307	26.336	
C	-0.0511678892	 1.3495068464	 0.0708951112	-0.243183
O	 0.0272245397	-0.0852757163	-0.0402879413	-0.218976
C	 0.6429806256	-0.5264868558	-1.1210577128	 0.581039
O	 1.1367340867	 0.1144577779	-2.0073546693	-0.37055
N	 0.6669751702	-1.9479538041	-1.137324093	-0.116839
C	 1.2157566505	-2.7388497029	-2.0939566687	 0.099741
N	 1.0414853748	-3.9888282033	-1.7626447558	-0.226969
N	 0.3645642503	-3.9613145239	-0.5649339386	-0.071304
N	 0.1343732536	-2.7629646949	-0.1797004184	-0.100466
H	 0.951604451	 1.7803232799	 0.1030054088	 0.156994
H	-0.5983095468	 1.7640343894	-0.7781904457	 0.157058
H	-0.5827179652	 1.5344016578	 1.0025716961	 0.158011
H	 1.7069673588	-2.3520613802	-2.9704496125	 0.195445
76.5586	99.9591	123.2429	167.5468	218.8676	312.1118	413.8716	506.6833	651.8664	725.7012	782.3892	828.9409	902.5122	951.5402	981.507	1014.8229	1089.4844	1153.7806	1180.2448	1205.9449	1220.7098	1282.8046	1371.5262	1435.8927	1480.7982	1484.0705	1495.0319	1517.4206	1848.8608	3063.7944	3145.6488	3181.6208	3305.5816
COC(=O)N1C=NN=N1	COC(=O)n1cnnn1	
InChI=1S/C3H4N4O2/c1-9-3(8)7-2-4-5-6-7/h2H,1H3	InChI=1S/C3H4N4O2/c1-9-3(8)7-2-4-5-6-7/h2H,1H3
