17
gdb 19165	3.81691	1.53772	1.26578	3.1854	63.86	-0.2446	0.0511	0.2957	975.0317	0.141966	-400.936637	-400.9286	-400.927656	-400.969304	29.505	
O	 0.0310335333	 1.6115365802	 0.2774095214	-0.414296
C	 0.0949888314	 0.2147973663	 0.5209426954	-0.166557
C	-1.1721109185	-0.5277909789	 0.1057999139	 0.286229
C	-2.4934293851	 0.138523813	 0.2252686978	-0.280545
N	-1.8699292089	-0.064816144	-1.0965810176	-0.342108
C	-1.0697466499	-2.01290279	 0.2921655765	 0.002212
C	-1.5463178963	-2.9615536059	-0.718832387	-0.165418
O	-0.1488843288	-2.6947390427	-0.5685916755	-0.243086
H	-0.4354456318	 2.0262237866	 1.0087692493	 0.292023
H	 0.9247630982	-0.1651872	-0.0842505888	 0.140678
H	 0.3306633766	-0.0028212735	 1.5730372973	 0.098539
H	-3.3848974113	-0.4544474462	 0.4101550826	 0.117797
H	-2.5311076209	 1.1495575161	 0.6223349691	 0.095679
H	-1.4387483189	 0.8130064311	-1.3838505243	 0.24204
H	-1.022670268	-2.3423554591	 1.3324639729	 0.089277
H	-1.8647695928	-3.9565311054	-0.4102810862	 0.108162
H	-1.9980697784	-2.5647193274	-1.6237110768	 0.139373
71.2377	111.0583	181.9088	244.021	271.0958	341.458	344.4356	425.1548	468.8302	611.0566	706.3085	833.5768	861.7568	876.5324	928.7507	949.7267	983.5551	999.099	1051.6083	1070.3666	1092.9876	1116.3279	1133.2139	1158.3368	1175.9919	1214.4436	1284.4396	1289.7373	1307.4964	1362.9686	1393.0445	1411.8588	1453.1274	1500.1408	1505.4802	1518.2396	2998.7207	3079.5772	3083.9746	3093.8394	3107.1526	3190.6273	3196.3873	3481.1512	3835.2257
OCC1(CN1)C1CO1	OC[C@]1(CN1)[C@H]1CO1	
InChI=1S/C5H9NO2/c7-3-5(2-6-5)4-1-8-4/h4,6-7H,1-3H2	InChI=1S/C5H9NO2/c7-3-5(2-6-5)4-1-8-4/h4,6-7H,1-3H2/t4-,5-/m1/s1
