14
gdb 25173	3.08113	1.50138	1.00948	4.1825	84.07	-0.213	-0.0559	0.1571	1092.7461	0.102373	-399.590536	-399.583131	-399.582187	-399.622399	28.537	
O	-0.0804779723	-0.0754140151	 0.0044341414	-0.376596
C	-0.0037611804	 1.1378985824	 0.0096763948	 0.371166
N	-1.1787679445	 1.9168429008	 0.0289905569	-0.357884
C	-1.2413095355	 3.2738270757	 0.0366817202	 0.037298
C	-0.0963871607	 4.0111022552	 0.0254552809	-0.16399
C	 1.1425902883	 3.3239315131	 0.0057641914	-0.143086
C	 1.2201674318	 1.9503321307	-0.002220831	-0.0774
C	 2.4645360526	 1.2702235505	-0.0219510045	 0.277202
C	 3.529006527	 0.7071171974	-0.038752723	-0.398625
H	-2.0260060245	 1.3652989515	 0.0372402921	 0.265797
H	-2.2338696615	 3.7075312205	 0.0518544456	 0.139293
H	-0.1391176041	 5.0911442586	 0.0314865745	 0.112995
H	 2.0660975977	 3.8934075074	-0.0034278868	 0.118986
H	 4.459858786	 0.1966299713	-0.0535926026	 0.194844
111.0051	143.1428	200.2382	363.9983	393.9029	462.2341	473.2463	560.6072	576.6647	582.1772	589.2485	651.2381	710.833	716.5951	769.3721	806.2908	894.9164	928.8466	964.7101	1066.1297	1092.55	1158.0571	1219.2406	1249.9564	1340.4227	1437.5733	1491.9672	1580.0833	1653.9916	1783.9212	2224.7296	3188.6422	3207.0615	3234.9566	3503.5674	3604.2305
O=C1NC=CC=C1C#C	O=c1[nH]cccc1C#C	
InChI=1S/C7H5NO/c1-2-6-4-3-5-8-7(6)9/h1,3-5H,(H,8,9)	InChI=1S/C7H5NO/c1-2-6-4-3-5-8-7(6)9/h1,3-5H,(H,8,9)
