21
gdb 102749	3.05138	0.924	0.75484	4.1405	79.85	-0.2413	-0.0138	0.2275	1546.3365	0.17963	-424.21638	-424.206085	-424.20514	-424.252975	36.032	
C	-0.1071402081	 1.5650315869	-0.0666531045	-0.391277
C	 0.013297376	 0.0386350034	-0.056851252	-0.197823
C	 0.7836603287	-0.5372262646	-1.2694414775	-0.053859
C	 1.0827859115	-2.0355457858	-1.0747598633	-0.24902
C	 1.9329908912	-2.6189920542	-2.1773100508	 0.086662
C	 1.7261318472	-3.9793064019	-2.6873066385	-0.18076
O	 1.2740812229	-2.8438815349	-3.4286909004	-0.227441
C	-0.0516177515	-0.3071586658	-2.5191879363	 0.186349
O	 0.1517317081	 0.552369007	-3.3363439467	-0.258518
H	 0.8804825375	 2.036630305	-0.0305858875	 0.121096
H	-0.6081072564	 1.9256547216	-0.9696952203	 0.137867
H	-0.6774038732	 1.9143820276	 0.7992634995	 0.114815
H	 0.5246720648	-0.2865823343	 0.8573548717	 0.101687
H	-0.9863065984	-0.4163040953	-0.020867925	 0.102237
H	 1.7186412275	 0.0212972135	-1.3976440213	 0.091452
H	 1.5947623655	-2.1755260076	-0.1143753951	 0.107218
H	 0.140700453	-2.5955951512	-1.0175524662	 0.105959
H	 2.9291431236	-2.1845103356	-2.2809313191	 0.097712
H	 2.5558039187	-4.526061639	-3.1326438557	 0.118416
H	 0.9411998103	-4.5988899285	-2.2550909219	 0.114142
H	-0.932820709	-0.9858555161	-2.603121919	 0.073086
49.3323	62.0673	84.1852	103.2286	139.2549	216.7382	266.4271	288.2521	334.1612	351.1082	432.9263	469.6985	567.6362	773.0241	791.5105	844.6874	884.1364	893.3161	945.1176	965.5973	1013.8093	1033.7793	1050.725	1081.5448	1112.9569	1144.4664	1159.9666	1164.4248	1174.9969	1234.556	1263.52	1291.3378	1296.1856	1351.6374	1356.2833	1370.7731	1419.4246	1425.0891	1447.7163	1469.5918	1489.3683	1498.4155	1506.0511	1529.7876	1832.5293	2857.481	3013.2141	3023.1012	3039.5161	3041.3808	3052.0915	3065.6915	3083.4957	3097.4011	3106.3998	3116.6674	3170.6722
CCC(CC1CO1)C=O	CC[C@@H](C[C@H]1CO1)C=O	
InChI=1S/C7H12O2/c1-2-6(4-8)3-7-5-9-7/h4,6-7H,2-3,5H2,1H3	InChI=1S/C7H12O2/c1-2-6(4-8)3-7-5-9-7/h4,6-7H,2-3,5H2,1H3/t6-,7-/m0/s1
