21
gdb 34851	3.5401	1.22377	1.12512	0.96	88.04	-0.2473	0.0541	0.3014	1176.2096	0.184962	-349.925222	-349.917319	-349.916375	-349.957237	32.364	
C	-0.0592863344	-1.1675415666	-0.089604831	-0.405634
C	-0.0280387328	 0.0340579887	-0.0319752685	 0.274646
C	 0.0165706227	 1.4807469328	 0.0447397806	-0.189038
C	-0.1156642751	 2.0651442052	 1.4959267328	-0.003508
C	 1.430516908	 1.930169682	 1.6100335393	-0.242693
C	 1.4623916184	 2.0924929167	 0.0626000699	-0.003502
C	 1.3708581099	 3.5725596123	-0.3429938204	-0.215396
C	 0.560417096	 4.3812512499	 0.6988431385	-0.197298
C	-0.5386664466	 3.5394667444	 1.3914002406	-0.215399
H	-0.0920776893	-2.2271432888	-0.1463260794	 0.18644
H	-0.6641360629	 1.9163214384	-0.696392223	 0.08423
H	-0.7379491305	 1.5034889636	 2.1950053039	 0.071356
H	 1.974688194	 2.6532114178	 2.2229476874	 0.090309
H	 1.7173146125	 0.9195566611	 1.9065063984	 0.112356
H	 2.2283643364	 1.5548969147	-0.4992559758	 0.071356
H	 2.3744121043	 4.0029042381	-0.4364247365	 0.093378
H	 0.9119407083	 3.6395099509	-1.3374426575	 0.097133
H	 1.2526296418	 4.7389410129	 1.4677760641	 0.106502
H	 0.1316685364	 5.2792235667	 0.2439357448	 0.094254
H	-1.4857128679	 3.5979569538	 0.8403122259	 0.097132
H	-0.7358841592	 3.9490012656	 2.3886129658	 0.093377
127.4089	139.2654	212.7737	290.8543	340.6272	400.1959	457.4912	469.2222	526.2808	599.8315	609.424	630.1875	765.8996	816.6722	839.2115	847.3558	873.4028	893.5521	918.296	940.7487	951.2571	1020.8794	1057.3324	1078.8874	1088.6088	1099.7276	1116.5104	1126.1016	1166.2216	1232.9507	1234.5516	1248.3185	1266.4868	1287.0635	1312.3083	1322.7255	1351.9265	1353.8273	1377.2679	1386.4559	1484.9186	1491.047	1492.9664	1515.7813	2228.7892	3021.551	3022.2255	3029.3183	3042.312	3059.7007	3061.4426	3064.9681	3087.5531	3089.3494	3091.9612	3121.9385	3504.8841
C#CC1C2CC1CCC2	C#C[C@H]1[C@H]2C[C@@H]1CCC2	
InChI=1S/C9H12/c1-2-9-7-4-3-5-8(9)6-7/h1,7-9H,3-6H2	InChI=1S/C9H12/c1-2-9-7-4-3-5-8(9)6-7/h1,7-9H,3-6H2/t7-,8+,9+
