20
gdb 63263	2.10156	1.50752	1.37136	2.7307	75.51	-0.2411	0.0263	0.2674	1105.275	0.167616	-440.318696	-440.308428	-440.307484	-440.353153	38.297	
C	-0.1163295188	 1.5596841916	-0.0677667102	-0.433141
C	-0.0117653872	 0.0397794123	 0.0337711652	 0.294452
C	-1.3524514377	-0.6277887118	-0.2666625891	-0.411803
N	 1.1085786416	-0.5226241921	-0.7659550971	-0.377877
C	 1.7191520097	-1.1768615884	 0.2655366323	 0.408072
O	 2.6227838875	-1.971946901	 0.3385790559	-0.387145
C	 0.7421075032	-0.5600579419	 1.2990692259	 0.179349
C	 1.3602366501	 0.4065157244	 2.2987578818	-0.44734
O	-0.0205629579	-1.5477646689	 1.9673793624	-0.469162
H	 0.8526941493	 2.0447289026	 0.0654647574	 0.122273
H	-0.5025045296	 1.8468921975	-1.0519735641	 0.116127
H	-0.8090513161	 1.9513047711	 0.6839122529	 0.12631
H	-1.6854803184	-0.3640436875	-1.2768029583	 0.105814
H	-1.2808020078	-1.7126272997	-0.1865284993	 0.130785
H	-2.1166888313	-0.2878086218	 0.4385832474	 0.127689
H	 1.1998887242	-0.6549001033	-1.7643536547	 0.243394
H	 1.9698652796	 1.1741494133	 1.8158586017	 0.123348
H	 0.5791852918	 0.8921422266	 2.891602455	 0.125787
H	 2.0079606394	-0.1531318033	 2.9809128273	 0.127773
H	 0.5871514485	-2.2591972996	 2.2025747876	 0.295296
66.8743	140.8448	182.4143	211.9885	220.9699	230.0685	273.1462	280.3023	322.7263	334.8453	359.5697	417.0075	461.37	504.4236	597.528	629.5114	700.1228	759.7696	800.9089	858.4164	941.1667	968.0081	978.4227	1004.0251	1086.3005	1137.3276	1144.7572	1202.9201	1241.8603	1250.6995	1287.9201	1345.4228	1375.0258	1401.6351	1404.3714	1422.8944	1474.1063	1478.3263	1484.4084	1488.9191	1503.5899	1509.4396	1881.9355	3035.2619	3039.4813	3042.7575	3098.799	3106.2107	3110.9545	3121.0623	3132.8878	3147.5502	3583.4258	3790.2254
CC1(C)NC(=O)C1(C)O	CC1(C)NC(=O)[C@]1(C)O	
InChI=1S/C6H11NO2/c1-5(2)6(3,9)4(8)7-5/h9H,1-3H3,(H,7,8)	InChI=1S/C6H11NO2/c1-5(2)6(3,9)4(8)7-5/h9H,1-3H3,(H,7,8)/t6-/m0/s1
