17
gdb 82434	2.48905	1.83735	1.25434	4.1209	69.25	-0.2515	0.0253	0.2768	999.0985	0.137995	-455.128507	-455.120944	-455.119999	-455.160515	29.567	
O	 0.1976471516	 1.1659020756	 0.4620359034	-0.440199
C	-0.0330613819	-0.1223466935	-0.0355377526	 0.079661
C	-1.5068845402	-0.4621446586	-0.072750742	-0.062321
N	-2.1993201759	-0.1855876242	-1.3449309945	-0.322888
C	-1.8950978836	-1.5724294234	-0.9650852847	-0.058193
C	-0.8012945807	-2.2502926586	-1.7614019184	-0.084593
O	 0.2507345495	-1.366362815	-2.1636550096	-0.246085
C	 0.5747676348	-0.2830220294	-1.4225420129	 0.38677
N	 1.3917395656	 0.5970262831	-1.8225196423	-0.551962
H	 0.8142067867	 1.5713913828	-0.1718057999	 0.29774
H	 0.4533317241	-0.8717787608	 0.6183725938	 0.088764
H	-2.0425717343	-0.3080223571	 0.859509028	 0.100565
H	-3.179747986	 0.0225908027	-1.1788642482	 0.239857
H	-2.7057361616	-2.2343384026	-0.6688210373	 0.098214
H	-0.3778435124	-3.0751083947	-1.1718595593	 0.117185
H	-1.1913479293	-2.6676522383	-2.6945451333	 0.129062
H	 1.7366399636	 0.4002667121	-2.7611776204	 0.228422
100.8398	140.1964	238.5344	321.4779	333.9003	415.0114	452.8821	484.0006	514.7375	556.4785	666.8976	738.7805	801.7422	853.1142	875.9369	888.696	896.5016	964.6906	993.1776	1042.914	1069.5976	1094.2377	1140.6293	1146.45	1166.8788	1198.6952	1247.6047	1266.5052	1285.0022	1314.2482	1356.2669	1397.0482	1434.9481	1462.5295	1477.1109	1508.8125	1748.2959	2920.2981	3015.1959	3082.5701	3136.3428	3157.5571	3502.3584	3518.343	3644.9242
OC1C2NC2COC1=N	O[C@H]1[C@H]2N[C@H]2CO[C]1[NH]	
InChI=1S/C5H8N2O2/c6-5-4(8)3-2(7-3)1-9-5/h2-4,6-8H,1H2	InChI=1S/C5H8N2O2/c6-5-4(8)3-2(7-3)1-9-5/h2-4,6-8H,1H2/t2-,3-,4-/m0/s1
