18
gdb 19880	3.2509	2.16347	1.94115	1.4996	69.83	-0.2336	0.0708	0.3044	793.4858	0.156044	-347.772823	-347.766115	-347.765171	-347.803255	27.467	
O	-0.0080906663	 1.4517605945	-0.1399099845	-0.407181
C	-0.0600149082	 0.0583336292	-0.0166547713	 0.082729
C	-0.4600357452	-0.6353745927	 1.2599406216	-0.106435
C	-1.2090709321	 0.1519723808	 2.3458348332	-0.247989
C	-2.6244032474	 0.4319497154	 1.8197781652	-0.031183
C	-2.8308015085	 1.4142133533	 0.6945639754	-0.29789
C	-2.6985255276	-0.0620929442	 0.3886243011	-0.034246
C	-1.3674923591	-0.6910160736	 0.0278392612	-0.077675
H	 0.7352621929	 1.7624896012	 0.3884707327	 0.287145
H	 0.7214538418	-0.4482703004	-0.5864478971	 0.082905
H	 0.1328678522	-1.4877987387	 1.5770520066	 0.078961
H	-1.2668461479	-0.4602319445	 3.2509563923	 0.101657
H	-0.6831714686	 1.0737329422	 2.6247706604	 0.092454
H	-3.4494187067	 0.2729177895	 2.506421337	 0.077497
H	-3.8280047764	 1.8336806191	 0.6015276069	 0.09692
H	-2.028481967	 2.0783747034	 0.4116662798	 0.141527
H	-3.5754176397	-0.5856621343	 0.0244960014	 0.078501
H	-1.4193037963	-1.5842835001	-0.5854361619	 0.082303
157.206	227.4072	268.9787	290.3325	393.2064	514.5515	634.7181	665.4818	695.8132	710.3669	747.0047	802.9314	827.2719	851.7401	892.5884	960.8135	971.986	1018.5528	1035.9006	1059.285	1067.7053	1084.022	1100.4874	1109.9912	1121.3549	1130.5813	1205.1007	1228.7371	1251.1989	1288.2639	1306.734	1316.8419	1360.4652	1372.9608	1385.4119	1454.3314	1480.3119	1495.1739	3027.4269	3073.2141	3075.6403	3137.5963	3147.5473	3154.7568	3159.4642	3173.9958	3262.2485	3797.5637
OC1C2CC3CC3C12	O[C@H]1[C@H]2C[C@H]3C[C@H]3[C@@H]12	
InChI=1S/C7H10O/c8-7-5-2-3-1-4(3)6(5)7/h3-8H,1-2H2	InChI=1S/C7H10O/c8-7-5-2-3-1-4(3)6(5)7/h3-8H,1-2H2/t3-,4-,5+,6-,7+/m1/s1
