13
gdb 128629	3.1175	1.44874	0.9953	1.2351	63.89	-0.2638	-0.0899	0.1739	1094.6986	0.090214	-486.068749	-486.061257	-486.060313	-486.101213	26.63	
C	-0.0353289807	 1.3749947209	 0.0460468792	-0.235739
O	 0.0316656315	-0.0567462736	-0.0530738804	-0.217584
C	 0.6367327322	-0.5568654824	-1.1121003881	 0.513401
N	 1.1502483496	 0.2098048196	-2.0257745126	-0.412209
C	 1.7613860878	-0.4095820755	-3.0931438936	 0.469737
O	 2.2915011419	 0.124730403	-4.0331391701	-0.359087
N	 1.7249314343	-1.8275264314	-3.0101329382	-0.253441
N	 1.1805563202	-2.5529185747	-2.0423885812	-0.010528
N	 0.6227210055	-1.9532721097	-1.0686056312	-0.245659
H	 0.9692986521	 1.8026246778	 0.0719538144	 0.15497
H	-0.5758880683	 1.7911845164	-0.8068169974	 0.154997
H	-0.5660601007	 1.5707818356	 0.9767822095	 0.146886
H	 2.1521016747	-2.362915276	-3.7548431502	 0.294256
104.4963	144.1555	170.3919	224.0855	225.0874	450.0979	451.6876	518.3707	575.4682	627.8626	718.1273	764.6744	774.722	826.1113	977.0348	1002.7958	1052.0787	1147.7646	1179.0121	1202.2343	1246.1745	1372.5365	1395.2863	1479.1547	1480.8995	1492.4017	1546.6783	1625.1946	1851.5677	3059.8559	3139.7809	3172.3226	3601.3798
COC1=NC(=O)NN=N1	COc1nc(=O)[nH]nn1	
InChI=1S/C3H4N4O2/c1-9-3-4-2(8)5-7-6-3/h1H3,(H,4,5,6,8)	InChI=1S/C3H4N4O2/c1-9-3-4-2(8)5-7-6-3/h1H3,(H,4,5,6,8)
