20
gdb 75375	2.88001	1.52165	1.18632	1.8621	79.96	-0.2379	0.0371	0.275	1111.9559	0.172476	-403.164129	-403.155946	-403.155001	-403.19719	31.321	
C	 0.019107957	 1.4708767833	 0.082246605	-0.447248
C	-0.0294161174	-0.0219141877	-0.0750019102	 0.392641
N	 0.0101725316	-0.5724931774	-1.2154570935	-0.30502
C	-0.083529236	-2.0226687231	-1.3115972764	-0.191987
C	 0.2788927391	-2.7645371599	-0.0345742254	-0.02068
C	 1.7548692995	-2.7954281585	 0.4648774081	-0.240327
C	 1.2310423704	-2.5051008435	 1.8990806135	-0.227566
C	-0.1064217078	-2.0378636802	 1.2775594788	 0.110249
O	-0.1243509556	-0.6105077572	 1.1535838312	-0.281464
H	 0.8729345293	 1.7617188329	 0.7025229451	 0.133019
H	 0.0977555418	 1.9376139923	-0.8986350022	 0.141982
H	-0.8833482662	 1.8268841573	 0.5897477054	 0.134967
H	-1.1115702919	-2.2749760895	-1.6093905401	 0.108145
H	 0.5565959622	-2.3523775007	-2.1395169443	 0.10697
H	-0.1425318048	-3.7740854855	-0.036745662	 0.076705
H	 2.3100380403	-3.7224216823	 0.3081206878	 0.099376
H	 2.3395510427	-1.9648466017	 0.06008968	 0.116773
H	 1.1016984371	-3.4180399855	 2.4868633878	 0.104094
H	 1.754136943	-1.7604448643	 2.5019809633	 0.108886
H	-1.0362382441	-2.3213179489	 1.777617278	 0.080487
68.3555	111.8744	140.4092	244.9759	305.7101	320.6009	400.2039	498.5543	535.2762	605.2829	671.4388	727.836	754.8249	820.0134	875.5098	901.7783	920.0759	941.5992	959.4053	998.0072	1050.088	1057.0477	1069.9839	1117.9816	1144.9686	1152.783	1204.8174	1229.4806	1249.5302	1251.2159	1266.9741	1286.5523	1306.7489	1341.5836	1372.1244	1388.0103	1407.3836	1470.4432	1474.7755	1476.8464	1483.743	1492.5041	1752.4494	3001.8091	3037.1746	3046.8081	3058.0774	3061.5811	3064.941	3075.415	3103.232	3113.7149	3129.203	3166.6746
CC1=NCC2CCC2O1	CC1=NC[C@H]2CC[C@H]2O1	
InChI=1S/C7H11NO/c1-5-8-4-6-2-3-7(6)9-5/h6-7H,2-4H2,1H3	InChI=1S/C7H11NO/c1-5-8-4-6-2-3-7(6)9-5/h6-7H,2-4H2,1H3/t6-,7-/m1/s1
