19
gdb 80634	2.56097	1.60696	1.21247	4.652	79.59	-0.2287	0.0295	0.2582	1073.867	0.161367	-382.054135	-382.046369	-382.045425	-382.086263	30.535	
C	 0.0467903089	 1.4188145507	-0.0949052406	-0.337942
N	-0.0666402507	-0.0216469846	 0.0559906413	-0.06105
C	-1.4330780406	-0.5475870961	 0.2750946143	 0.01632
C	-1.6739898823	-0.4036740345	 1.8088747993	-0.250684
C	-0.5099426576	-1.4398935082	 1.8452991129	-0.038669
C	-1.136472919	-2.0411076402	 0.5518735671	-0.230897
C	 0.6341236917	-0.579842168	 1.2470686791	-0.14378
C	 1.8349773102	-1.3403297842	 0.8804211937	 0.305912
N	 2.7841287086	-1.9435097746	 0.6142628219	-0.335369
H	 1.0968383644	 1.6862186818	-0.2473566373	 0.13472
H	-0.5075746051	 1.73159906	-0.9849951247	 0.127452
H	-0.3312162478	 1.9986302393	 0.7665221311	 0.096788
H	-2.1394093202	-0.2085249811	-0.4818327114	 0.077863
H	-1.5184997051	 0.5728666101	 2.2754759574	 0.098725
H	-2.6203051459	-0.8341154556	 2.140505557	 0.109111
H	-0.2636546895	-2.0345417687	 2.7234141699	 0.088643
H	-2.0334758449	-2.6245566096	 0.76285453	 0.107423
H	-0.4819946395	-2.5599394419	-0.1507951318	 0.123359
H	 0.9367754744	 0.2065144053	 1.9518047808	 0.112076
113.3572	153.9603	207.9642	225.1301	323.2555	380.0919	476.4399	484.0229	528.7422	561.2814	637.5739	821.2679	830.7385	848.5023	854.6938	880.4291	909.8297	976.6365	1008.6815	1019.3461	1037.3734	1058.4409	1092.2191	1105.6901	1116.4729	1156.8057	1187.2781	1209.4271	1218.9464	1246.8051	1256.5836	1281.1193	1294.8136	1331.987	1364.6639	1457.3588	1480.5446	1494.5259	1502.9169	1521.0145	2357.6465	2943.0981	3010.6829	3064.9112	3068.2704	3080.7348	3109.0938	3127.3177	3130.2222	3135.1605	3148.0291
CN1C2CC(C2)C1C#N	CN1[C@@H]2C[C@@H](C2)[C@H]1C#N	
InChI=1S/C7H10N2/c1-9-6-2-5(3-6)7(9)4-8/h5-7H,2-3H2,1H3	InChI=1S/C7H10N2/c1-9-6-2-5(3-6)7(9)4-8/h5-7H,2-3H2,1H3/t5-,6+,7-/m1/s1
