16
gdb 8628	2.10775	1.87763	1.57809	1.9341	72.27	-0.2576	0.035	0.2925	950.601	0.125861	-346.522311	-346.512706	-346.511762	-346.555988	34.63	
C	-0.0148527435	 1.508124365	 0.0165636496	-0.414164
C	-0.0008188473	-0.0445193537	-0.0044805336	-0.154314
C	 0.7514630921	-0.5442276248	 1.2555640413	-0.074186
O	 0.7698334091	-1.9530310845	 1.2463663684	-0.407889
C	-1.3836799526	-0.5437486944	 0.0102820934	 0.382717
C	-2.5291204602	-0.9030365782	 0.0399664798	-0.491888
C	 0.6924995984	-0.508369676	-1.2152264652	 0.382711
C	 1.280704362	-0.8381041526	-2.2088529246	-0.491889
H	 1.0085071869	 1.8929333035	 0.0064144964	 0.125604
H	-0.5393322715	 1.8894063619	-0.8609524768	 0.141802
H	-0.5276239819	 1.8667625672	 0.9131640574	 0.125608
H	 1.7668177641	-0.1204846867	 1.2312643465	 0.095034
H	 0.2293239135	-0.1464668892	 2.1388866681	 0.095029
H	 1.2380222021	-2.2552020805	 2.0297482496	 0.292098
H	-3.5347912029	-1.243546248	 0.0567356348	 0.196864
H	 1.7896687317	-1.1528205291	-3.0860704152	 0.196863
107.4905	123.6324	151.647	154.2928	200.3924	233.8755	256.1579	267.5876	406.6908	464.7228	481.8451	560.8232	622.5645	630.4846	633.1718	646.1198	648.0935	682.2606	898.5795	929.0096	1035.3583	1068.9205	1117.6797	1163.6895	1208.8381	1269.485	1300.7504	1402.3617	1452.1964	1485.374	1495.177	1511.7623	2237.8296	2243.5652	2976.4135	3016.9768	3048.9969	3126.2849	3143.1687	3502.2809	3503.022	3837.1459
CC(CO)(C#C)C#C	CC(CO)(C#C)C#C	
InChI=1S/C7H8O/c1-4-7(3,5-2)6-8/h1-2,8H,6H2,3H3	InChI=1S/C7H8O/c1-4-7(3,5-2)6-8/h1-2,8H,6H2,3H3
