19
gdb 100246	2.5643	1.15012	0.98033	5.3185	76.24	-0.2489	-0.039	0.2099	1276.3738	0.156216	-419.217698	-419.207174	-419.20623	-419.25385	36.831	
C	-0.1809345385	 1.3334042288	-0.3223141249	-0.336247
N	-0.0218044009	-0.0967987818	-0.0613513109	-0.315809
C	 0.6898509582	-0.4614257969	 1.1697011126	 0.150346
C	 0.173426776	 0.1742775237	 2.4648167801	-0.433116
C	 0.618297334	-2.0143816751	 1.2252094246	-0.385998
C	 1.3467648048	-2.6103726621	 2.3407408599	 0.274257
N	 1.9245901786	-3.0822474566	 3.223004483	-0.305734
C	 2.1595498542	-0.0852315578	 0.9099701505	 0.17019
O	 2.8149432982	 0.6460558611	 1.599942366	-0.236423
H	 0.801012492	 1.8151486844	-0.3616053599	 0.142586
H	-0.6485260155	 1.4585834389	-1.3027787944	 0.12978
H	-0.7881486077	 1.8728589871	 0.4197574071	 0.113768
H	-0.9299196168	-0.5498701993	-0.0757038483	 0.22194
H	-0.8865227632	-0.0612694633	 2.6082256787	 0.108198
H	 0.7319941748	-0.1922919251	 3.3292941933	 0.155304
H	 0.2915069178	 1.2588939154	 2.438712159	 0.138638
H	-0.4341483944	-2.3148063324	 1.298978677	 0.151655
H	 0.9999600038	-2.4220162738	 0.2828405355	 0.165274
H	 2.5644211745	-0.5425238253	-0.020885199	 0.091392
46.8134	67.8234	99.6912	129.1888	196.3124	229.4176	256.8793	276.4492	318.6903	350.7536	393.0103	405.3064	431.6675	548.2037	608.2692	719.1371	768.7357	877.9827	892.5251	963.4979	968.2065	1015.7061	1085.3848	1116.3112	1145.2318	1164.0846	1196.6201	1235.3116	1288.4483	1323.2465	1398.6629	1419.0174	1460.8807	1463.2424	1476.9055	1483.7373	1494.2275	1508.5036	1525.8311	1842.6454	2364.5725	2886.1159	2992.8752	3036.6987	3046.6391	3075.8693	3083.0362	3114.17	3122.4947	3141.0685	3514.8599
CNC(C)(CC#N)C=O	CN[C@@](C)(CC#N)C=O	
InChI=1S/C6H10N2O/c1-6(5-9,8-2)3-4-7/h5,8H,3H2,1-2H3	InChI=1S/C6H10N2O/c1-6(5-9,8-2)3-4-7/h5,8H,3H2,1-2H3/t6-/m0/s1
