17
gdb 72948	2.78483	1.74602	1.46273	3.2921	66.69	-0.2401	0.0361	0.2762	933.8017	0.135939	-458.880379	-458.873034	-458.87209	-458.912818	28.606	
O	-0.2863326494	 1.3419317063	-0.2090338654	-0.469122
C	 0.0185789975	 0.0038581968	 0.01648167	 0.355196
C	-1.2247869095	-0.8794947056	 0.1899598235	-0.119898
O	-0.6716542679	-1.5055938932	 1.3725470392	-0.27318
C	 0.4812656814	-0.6563983992	 1.3631579286	 0.009414
C	 1.73225043	-1.2499603913	 0.6220698796	 0.103681
O	 1.5732286479	-2.5704032259	 0.0847897188	-0.275188
C	 1.2277197864	-2.0501715721	-1.221161864	-0.08935
C	 1.2707917133	-0.5974087762	-0.7081716415	-0.188871
H	 0.5323869838	 1.843078779	-0.2868211724	 0.284124
H	-2.111536828	-0.2799037155	 0.4275786126	 0.114683
H	-1.4703646823	-1.6028133162	-0.5936730727	 0.107951
H	 0.6496856424	-0.1364252166	 2.3111337523	 0.075093
H	 2.7061552556	-1.0921881579	 1.0955878734	 0.075903
H	 2.0098593658	-2.2787626864	-1.9557070446	 0.105214
H	 0.2718867709	-2.4376755418	-1.5891024734	 0.110723
H	 1.8628027123	 0.1233479857	-1.274966394	 0.073629
32.4183	246.4404	253.8937	305.0046	315.346	361.4125	440.3799	542.2694	640.1656	679.9203	774.1698	808.0681	842.5846	896.698	915.1851	962.0372	974.3929	1002.3732	1015.2519	1043.6265	1073.2903	1081.9406	1105.1101	1136.312	1146.3852	1161.3983	1184.2847	1226.8721	1236.8304	1286.6921	1295.3261	1313.7042	1336.6532	1360.307	1409.8287	1504.1718	1529.8482	3019.3888	3029.7765	3054.1788	3068.0051	3069.4904	3084.4875	3095.4107	3809.0336
OC12COC1C1OCC21	O[C@]12CO[C@H]1[C@H]1OC[C@@H]21	
InChI=1S/C6H8O3/c7-6-2-9-5(6)4-3(6)1-8-4/h3-5,7H,1-2H2	InChI=1S/C6H8O3/c7-6-2-9-5(6)4-3(6)1-8-4/h3-5,7H,1-2H2/t3-,4+,5+,6+/m1/s1
