18
gdb 30670	2.83255	1.3076	1.01106	2.215	74.28	-0.2436	-0.0029	0.2408	1208.0053	0.147139	-439.107521	-439.098568	-439.097624	-439.142565	31.75	
C	-0.1894020313	 0.9301891122	 0.8766575192	-0.238898
O	-0.2437496319	 0.1778477212	-0.3171412514	-0.238934
C	-1.3715408503	-0.6827026307	-0.4326136054	 0.014047
C	-1.4854627737	-1.0766633164	-1.8993750719	-0.394704
C	-1.2350387316	-1.8946820426	 0.4497617262	 0.397115
N	-0.7409436285	-3.0583689279	 0.1650322121	-0.300954
C	-0.8218007513	-3.7781668298	 1.3484659184	-0.113201
C	-1.3736139885	-2.9961022145	 2.3045889785	-0.047419
O	-1.6478528939	-1.7814791402	 1.7441163203	-0.17656
H	 0.6725372862	 1.5960149545	 0.7899320395	 0.128645
H	-1.0974239741	 1.5383071117	 1.0124065358	 0.104236
H	-0.0627699269	 0.2997883854	 1.7667762779	 0.116856
H	-2.2741094651	-0.1394173788	-0.1096235235	 0.082789
H	-0.6074771795	-1.6513499763	-2.2002766792	 0.15112
H	-2.3734854674	-1.6914091784	-2.0659302236	 0.122079
H	-1.5515973365	-0.1741680539	-2.5109918419	 0.12095
H	-0.4824802508	-4.7993188867	 1.4187905228	 0.126241
H	-1.6305357247	-3.119494629	 3.3423952161	 0.146592
22.5337	94.8441	135.6005	204.3487	210.1078	231.8463	285.4721	362.8682	432.4265	522.3552	633.3629	687.5192	762.1449	792.6525	864.2761	867.9638	930.8423	945.8366	1025.8887	1081.8541	1112.1932	1118.483	1138.4501	1157.2307	1168.7964	1183.9848	1205.576	1234.527	1343.4668	1367.6578	1408.6095	1412.9824	1477.5702	1482.2709	1490.4686	1493.9132	1510.5322	1546.3078	1608.8219	2978.5563	2983.9874	3044.279	3058.8488	3116.9099	3135.1361	3147.4346	3264.2667	3300.498
COC(C)C1=NC=CO1	CO[C@@H](C)c1ncco1	
InChI=1S/C6H9NO2/c1-5(8-2)6-7-3-4-9-6/h3-5H,1-2H3	InChI=1S/C6H9NO2/c1-5(8-2)6-7-3-4-9-6/h3-5H,1-2H3/t5-/m0/s1
