17
gdb 28256	4.59027	1.21386	0.97971	2.04	75.06	-0.1877	0.0554	0.2432	1170.4523	0.139634	-418.060613	-418.053157	-418.052213	-418.092438	29.004	
O	 0.1064106548	 1.2869352442	 0.1452626962	-0.426644
C	 0.0689472646	-0.0513640691	 0.0158342162	 0.412689
N	 0.0612914829	-0.7289524496	-1.1045055529	-0.452475
C	-0.0094691755	-2.0447594929	-0.6753379469	 0.271315
C	-0.0425159597	-2.1350455085	 0.6760250813	 0.293454
C	-0.0216972843	-3.5231935685	 1.2162759445	-0.348707
C	-0.2743318236	-4.3315363133	-0.1086975437	-0.191604
C	 0.0235558182	-3.3917731087	-1.3282256872	-0.337433
N	 0.0222543557	-0.8268012821	 1.1406884829	-0.432333
H	 0.1278230674	 1.6396778874	-0.7533150979	 0.313563
H	 0.9439533413	-3.7836363283	 1.6727542996	 0.105389
H	-0.7911446536	-3.7384942713	 1.9674028124	 0.101828
H	 0.3214469709	-5.2470173842	-0.1393904417	 0.099624
H	-1.3253745798	-4.6318779563	-0.1387828321	 0.110735
H	-0.7166245109	-3.5202682091	-2.1253126609	 0.106943
H	 1.0041437881	-3.6047917644	-1.7744271599	 0.105788
H	-0.0152201864	-0.4835753251	 2.0848408501	 0.267867
113.5196	160.0179	245.2077	297.3607	307.3606	407.6155	456.4884	518.0006	524.6277	664.571	686.9881	721.6033	724.4945	794.2718	852.7015	896.5929	916.6607	992.8796	1032.6572	1062.6721	1118.8694	1154.6333	1173.4906	1207.2525	1212.5859	1247.8112	1280.9885	1303.9802	1328.4984	1384.8564	1450.2501	1485.1429	1500.2569	1515.0974	1535.4261	1609.6308	1651.3291	2997.4047	3014.5302	3035.3378	3054.2799	3066.3783	3106.9327	3677.3822	3803.4841
OC1=NC2=C(CCC2)N1	Oc1nc2c(CCC2)[nH]1	
InChI=1S/C6H8N2O/c9-6-7-4-2-1-3-5(4)8-6/h1-3H2,(H2,7,8,9)	InChI=1S/C6H8N2O/c9-6-7-4-2-1-3-5(4)8-6/h1-3H2,(H2,7,8,9)
