15
gdb 7762	3.68729	1.75041	1.23138	3.2663	63.94	-0.2254	-0.0154	0.2099	925.3507	0.120291	-399.843469	-399.836284	-399.835339	-399.874936	27.338	
O	 0.0819844185	 1.4486235715	 0.1079066567	-0.431813
C	 0.0955053836	 0.0281515917	 0.0419573345	 0.087301
C	-1.3313133658	-0.5479078999	 0.1034155861	-0.342578
C	-1.4545221892	-2.0262478603	-0.2499029176	 0.391919
O	-2.2985825615	-2.7659684851	 0.2075050127	-0.353054
N	-0.56188088	-2.450157929	-1.2153064523	-0.332709
C	 0.4841244444	-1.6678151929	-1.7117671779	 0.025117
C	 0.8178068068	-0.4930879509	-1.1735829906	-0.174125
H	-0.3079624886	 1.7717965882	-0.7125695824	 0.275656
H	 0.6439915627	-0.270713574	 0.9466528931	 0.109827
H	-1.7912309267	-0.3862118771	 1.0788383326	 0.139481
H	-1.944719955	-0.0135176365	-0.6376766519	 0.121585
H	-0.677039188	-3.4022253276	-1.5279045746	 0.256906
H	 1.0104632184	-2.1020722429	-2.5537743597	 0.122308
H	 1.6498851104	 0.0790985346	-1.5648247287	 0.104177
107.9248	124.3087	295.9858	345.6073	359.8943	431.3399	455.9905	533.5982	545.8313	576.2692	657.2075	732.4861	775.4123	860.3628	934.7814	951.0498	989.1971	1064.3123	1086.2621	1114.4169	1149.9526	1217.2166	1249.1014	1287.3312	1333.8841	1356.0079	1410.4422	1427.6739	1455.0848	1465.0635	1716.3084	1809.7916	3000.2407	3015.9497	3132.3332	3195.2462	3216.5037	3629.5716	3791.8184
OC1CC(=O)NC=C1	O[C@H]1CC(=O)NC=C1	
InChI=1S/C5H7NO2/c7-4-1-2-6-5(8)3-4/h1-2,4,7H,3H2,(H,6,8)	InChI=1S/C5H7NO2/c7-4-1-2-6-5(8)3-4/h1-2,4,7H,3H2,(H,6,8)/t4-/m1/s1
