15
gdb 49410	4.4379	1.44367	1.39183	2.3801	68.12	-0.2504	0.0022	0.2526	922.1169	0.114363	-416.726102	-416.71989	-416.718945	-416.757033	24.495	
O	 0.0949279888	 0.0637156191	-0.4909195769	-0.310727
C	 0.073809667	 1.2350056532	-0.1874538542	 0.139758
N	 1.1250530504	 1.9124223318	 0.3709750453	-0.049005
C	 2.5566063887	 1.5682464719	 0.2732674392	-0.055939
C	 3.0811330708	 2.14628705	-1.0715088422	-0.041042
N	 3.6770402337	 3.3857383787	-0.4681952975	-0.176075
C	 2.3267391985	 3.4300938931	-1.122595677	-0.051965
C	 1.5192745857	 3.3271689578	 0.2031706423	-0.078661
C	 2.9170224768	 2.9885518734	 0.8016506249	 0.005907
H	-0.8290521748	 1.8737882546	-0.2760996206	 0.076348
H	 2.8953726209	 0.6098477343	 0.6526145112	 0.112828
H	 3.5222736907	 1.6445634142	-1.922423719	 0.113681
H	 2.134330201	 4.010022057	-2.0159572713	 0.110746
H	 0.8375811335	 4.1123893612	 0.5192901624	 0.102551
H	 3.2819099883	 3.2465451796	 1.7916599533	 0.101595
85.0232	184.9639	273.2823	478.1529	574.0756	608.4307	751.175	776.9061	787.9083	804.5169	839.2088	864.3816	867.9575	894.7781	906.2309	937.2933	983.1844	1033.0738	1037.5266	1055.8193	1071.1894	1134.5088	1140.8985	1167.1907	1203.8019	1210.9646	1216.9767	1276.9079	1283.017	1319.9577	1367.5746	1423.1268	1796.934	2924.5616	3156.0542	3166.1499	3183.4204	3199.6964	3212.9429
O=CN1C2C3N4C3C1C24	O=CN1[C@H]2[C@@H]3N4[C@@H]3[C@@H]1[C@@H]24	
InChI=1S/C6H6N2O/c9-1-7-2-4-3(7)6-5(2)8(4)6/h1-6H	InChI=1S/C6H6N2O/c9-1-7-2-4-3(7)6-5(2)8(4)6/h1-6H/t2-,3+,4-,5+,6-,8?
