17
gdb 56770	2.93413	1.33043	1.06643	3.6041	72.21	-0.2545	0.0152	0.2697	1133.8322	0.136279	-417.962513	-417.954043	-417.953099	-417.995945	31.438	
N	-0.0976186639	 1.5210858302	-0.0954072752	-0.499401
C	-0.0212235859	 0.0555009242	-0.0667723015	-0.264963
C	-1.3495299842	-0.5200808727	 0.1883805352	 0.308416
N	-2.3886147464	-0.996533118	 0.3535739995	-0.324404
C	 0.5807794164	-0.5490913688	-1.3160325607	 0.493412
C	-0.0960332394	-0.9253045846	-2.5966088556	-0.345416
C	 0.7809482595	-1.9377503578	-1.8765041156	-0.18932
C	 2.2393875259	-1.5219574447	-2.0243330859	-0.092126
O	 1.9414015866	-0.1708429197	-1.5597761365	-0.339054
H	 0.8441432696	 1.8741748196	-0.2457397574	 0.254799
H	-0.6463772751	 1.8126562975	-0.9006861951	 0.24215
H	 0.6218300811	-0.2139979952	 0.7808928233	 0.140554
H	-1.1590540488	-1.1328245209	-2.5273789673	 0.144222
H	 0.2346958944	-0.471471561	-3.5269401225	 0.119076
H	 0.4143124456	-2.8956129737	-1.5348730044	 0.120448
H	 2.9175649156	-2.0233281437	-1.3260449593	 0.117992
H	 2.6707926888	-1.5236150407	-3.0315054612	 0.113617
57.8643	121.8192	168.0326	210.6859	266.9639	315.1731	363.8162	410.5798	426.7987	522.3752	587.1123	719.8087	754.8173	847.736	879.003	893.6861	949.6637	955.3901	975.4027	998.0699	1009.3921	1028.0894	1079.6879	1122.0503	1129.6339	1147.1571	1173.8508	1205.3071	1263.928	1318.0142	1344.3617	1385.962	1409.3493	1482.1458	1517.9763	1659.7535	2366.4533	3033.5298	3036.4401	3085.6512	3117.9542	3211.2994	3218.1666	3482.933	3565.7593
NC(C#N)C12CC1CO2	N[C@@H](C#N)[C@]12C[C@H]1CO2	
InChI=1S/C6H8N2O/c7-2-5(8)6-1-4(6)3-9-6/h4-5H,1,3,8H2	InChI=1S/C6H8N2O/c7-2-5(8)6-1-4(6)3-9-6/h4-5H,1,3,8H2/t4-,5-,6-/m0/s1
