19
gdb 73312	3.36211	1.55397	1.35695	2.156	74.58	-0.2112	0.0812	0.2924	1020.5699	0.158286	-422.991779	-422.983816	-422.982872	-423.023578	31.784	
C	 0.064322949	 1.4468227402	 0.068764362	-0.482252
C	-0.0324948784	-0.0471360864	-0.0086351666	 0.441865
O	 0.9459194347	-0.6381889478	-0.8425559978	-0.304297
C	 0.4385782286	-1.8980362143	-1.2882566916	-0.099826
C	-0.7206241702	-2.199929781	-0.342405199	 0.38354
C	-1.5862035283	-3.3976766174	-0.6253753586	-0.489795
O	-0.1226293335	-2.2383281312	 1.0049271824	-0.334583
C	-0.4852640698	-0.8733876	 1.1866557884	 0.018463
C	-1.3321257265	-0.8012270644	-0.0628472085	-0.301879
H	 1.0604061711	 1.7459828775	 0.4093486486	 0.135792
H	-0.112872951	 1.9013624267	-0.911173269	 0.12713
H	-0.6718946207	 1.8452940577	 0.773193965	 0.120806
H	 0.1051930072	-1.83265094	-2.3360434746	 0.08729
H	 1.2300775114	-2.649514482	-1.2061743236	 0.114451
H	-0.9846253036	-4.3123611483	-0.6177323901	 0.132679
H	-2.3639772017	-3.4943003336	 0.1360503773	 0.134456
H	-2.0642575868	-3.3064877607	-1.6062720388	 0.122678
H	-0.6315640238	-0.5094767368	 2.1983753848	 0.099977
H	-2.3275213078	-0.4393818981	-0.2869326701	 0.093506
190.477	204.1115	212.4359	228.4158	248.9089	324.9242	371.9355	419.0035	533.024	586.807	626.1788	709.5904	746.911	829.2374	832.011	838.5138	882.1528	916.2867	934.1792	984.8016	1027.2464	1034.92	1058.2807	1072.2683	1107.0387	1141.5809	1159.5979	1187.2115	1224.8424	1244.7604	1278.49	1290.7373	1388.1852	1405.2496	1412.0352	1428.9037	1477.3034	1480.3461	1492.4002	1500.3282	1504.5844	2979.8252	3037.4386	3039.5397	3079.7489	3105.2247	3108.5101	3114.1877	3124.2547	3164.943	3189.7032
CC12OCC3(C)OC1C23	C[C@@]12OC[C@@]3(C)O[C@@H]1[C@@H]23	
InChI=1S/C7H10O2/c1-6-3-8-7(2)4(6)5(7)9-6/h4-5H,3H2,1-2H3	InChI=1S/C7H10O2/c1-6-3-8-7(2)4(6)5(7)9-6/h4-5H,3H2,1-2H3/t4-,5-,6-,7+/m1/s1
