19
gdb 93580	4.48385	1.00079	0.91663	2.5539	78.86	-0.242	0.0139	0.2558	1332.1538	0.160868	-419.203996	-419.195456	-419.194511	-419.238077	31.248	
C	 0.2178596813	 1.5465951382	-0.0568291491	-0.386918
C	 0.0218622872	 0.0344078601	 0.0408698274	 0.024116
C	 0.6666889854	-0.7632655503	-1.1286629631	-0.123459
O	 1.5432403933	-1.7068167368	-0.4759456779	-0.274508
C	 1.4530972721	-1.4349657616	 0.8615655716	 0.422105
N	 0.6680351066	-0.5139738316	 1.246070184	-0.331563
C	 2.3095109323	-2.2598839472	 1.7314409916	-0.087745
C	 2.5279198431	-3.6980274978	 1.3948386188	-0.23209
N	 3.6168081457	-2.7342609418	 1.2343134738	-0.318053
H	 1.2832131635	 1.7937880489	-0.1104495729	 0.120417
H	-0.2758901258	 1.9471698545	-0.9487473453	 0.112185
H	-0.2020268626	 2.0409053467	 0.8227908462	 0.133296
H	-1.0531292455	-0.1764141737	 0.1028693058	 0.089282
H	-0.0525694792	-1.3236964839	-1.7312382358	 0.118921
H	 1.2716071979	-0.1340374724	-1.7904327286	 0.114407
H	 2.2942191614	-1.9458785961	 2.768653964	 0.117882
H	 2.6545937317	-4.4087790454	 2.2060974616	 0.126863
H	 2.0371167423	-4.0839367071	 0.5069011196	 0.128965
H	 3.6975576692	-2.4843979327	 0.2509248284	 0.245897
44.3294	91.9544	139.175	180.4376	238.9161	292.9935	343.0791	422.2268	499.2644	652.4617	697.4812	738.5285	825.9786	848.6021	870.2105	923.9591	937.8579	949.2223	972.5482	989.3711	1025.6558	1084.0468	1104.9774	1122.1785	1139.8629	1160.5696	1173.049	1226.8595	1271.6195	1277.4965	1303.8759	1319.8153	1362.8584	1381.9804	1402.6684	1409.81	1487.6581	1496.5682	1500.9086	1521.425	1737.5744	3019.6675	3034.3077	3043.8894	3097.4301	3105.0696	3119.4098	3124.4105	3185.8904	3211.7979	3501.1326
CC1COC(=N1)C1CN1	C[C@H]1COC(=N1)[C@H]1CN1	
InChI=1S/C6H10N2O/c1-4-3-9-6(8-4)5-2-7-5/h4-5,7H,2-3H2,1H3	InChI=1S/C6H10N2O/c1-4-3-9-6(8-4)5-2-7-5/h4-5,7H,2-3H2,1H3/t4-,5+/m0/s1
