17
gdb 127923	5.08988	1.03731	0.87098	2.6713	85.02	-0.2083	-0.0715	0.1368	1328.3615	0.13644	-414.197167	-414.188375	-414.187431	-414.23124	31.386	
C	 0.0932499577	 1.437676157	 0.0436510357	-0.326675
N	 0.0050823002	-0.0060666413	 0.1294512133	-0.340543
C	-1.1313455189	-0.5718561821	 0.0760809269	 0.467826
N	-1.1604944926	-1.977111941	 0.1639704333	-0.264475
N	-2.2327011932	-2.7583502058	 0.1296450219	-0.204961
C	-3.3877666614	-2.1671152298	 0.0006165574	 0.296433
C	-4.6338528812	-3.0008246029	-0.0440345364	-0.482379
C	-3.4257618961	-0.725082998	-0.0950513957	-0.026756
N	-2.3853457438	 0.0370947701	-0.0619786701	-0.293426
H	 0.7285661545	 1.7128204859	-0.8075649177	 0.11626
H	-0.8745185912	 1.9396712381	-0.0647756189	 0.12638
H	 0.5908944228	 1.8251740184	 0.9414753155	 0.11626
H	-0.2717272956	-2.44666732	 0.264198383	 0.275935
H	-4.374446478	-4.0571074086	 0.0442340866	 0.147875
H	-5.3186989219	-2.7407053721	 0.7715629029	 0.136287
H	-5.180457967	-2.8533598839	-0.9828377635	 0.136285
H	-4.3966072142	-0.2367524741	-0.2030088441	 0.119673
49.8467	94.1429	132.6031	212.4932	215.4845	282.6822	334.2339	386.2993	443.9282	481.7935	583.4202	645.6509	690.1208	766.5188	781.6448	814.672	977.7581	980.8375	1027.6451	1064.1167	1067.584	1135.6989	1146.6804	1222.9818	1267.094	1300.6798	1414.8	1432.368	1437.5984	1439.0647	1480.1293	1484.1836	1495.9487	1496.6982	1570.2882	1676.6182	1745.9939	3008.1329	3028.731	3056.6652	3078.4956	3084.0474	3105.1634	3140.3612	3608.3391
CN=C1NN=C(C)C=N1	C[N]c1[nH]nc(C)cn1	
InChI=1S/C5H8N4/c1-4-3-7-5(6-2)9-8-4/h3H,1-2H3,(H,6,7,9)	InChI=1S/C5H13N4/c1-4-3-7-5(6-2)9-8-4/h4-5,7-9H,3H2,1-2H3
