19
gdb 7634	4.79752	1.23129	1.02519	2.7158	73.21	-0.2294	-0.0221	0.2073	1153.621	0.163382	-365.058984	-365.050403	-365.049459	-365.091941	31.861	
C	 0.2363768443	 1.5051027092	-0.2892275385	-0.387399
C	 0.0249378147	 0.0121478148	-0.0251282049	 0.073239
C	 0.7259552224	-0.422749949	 1.2643718543	-0.3874
N	-1.4024900901	-0.2755862731	 0.0676385571	-0.080363
C	-1.8227544238	-1.693197811	 0.1881570411	-0.293963
C	-2.9157712851	-1.3966084413	-0.8465987663	 0.397189
O	-3.8877854465	-1.9633041102	-1.2435223899	-0.282035
C	-2.2400014273	-0.0501281922	-1.1359026164	-0.293963
H	 1.3038116433	 1.7306222214	-0.3703693742	 0.114882
H	-0.2422354845	 1.8228088792	-1.2205074045	 0.115916
H	-0.1837984798	 2.0987289759	 0.5289887417	 0.124346
H	 0.4716508611	-0.5549866702	-0.869656674	 0.048891
H	 0.3179319458	 0.1231032481	 2.1210975873	 0.124346
H	 0.5998907197	-1.493367825	 1.4519161209	 0.115916
H	 1.7992704209	-0.2203946175	 1.2018719435	 0.114882
H	-1.0945513195	-2.4220840926	-0.207663367	 0.115373
H	-2.1411182649	-2.0151995968	 1.1846742043	 0.132385
H	-2.8678020037	 0.8463879876	-1.1213215507	 0.132385
H	-1.6880705172	-0.0848653674	-2.0910958937	 0.115373
89.6625	103.9118	184.154	224.3702	246.2355	299.3928	332.3921	408.6888	432.6295	461.4264	518.7479	632.9972	743.293	776.0672	880.6397	930.8329	945.1957	955.7317	1036.509	1054.1795	1081.8073	1090.7067	1095.6375	1159.6937	1169.2541	1193.1494	1231.8731	1259.5069	1300.9709	1365.9217	1374.4695	1401.1624	1419.4634	1456.3762	1482.9062	1484.7442	1488.8087	1498.7993	1514.2186	1921.5327	2867.9237	2959.6849	2969.2493	3036.5129	3040.8994	3072.8813	3073.4715	3108.3684	3110.7399	3111.3387	3117.3626
CC(C)N1CC(=O)C1	CC(C)N1CC(=O)C1	
InChI=1S/C6H11NO/c1-5(2)7-3-6(8)4-7/h5H,3-4H2,1-2H3	InChI=1S/C6H11NO/c1-5(2)7-3-6(8)4-7/h5H,3-4H2,1-2H3
