18
gdb 40118	2.365	1.9813	1.3037	1.5395	76.62	-0.2194	0.0217	0.2411	1002.1404	0.148067	-401.932235	-401.924661	-401.923717	-401.964812	30.096	
C	 0.1375059546	 1.5410714273	-0.0368182992	-0.326563
C	 1.3406176385	 0.6409185381	 0.1975826088	-0.326567
C	-0.01305294	 0.0537815514	-0.0423461447	 0.360095
O	-0.6630038336	-0.5157035845	 1.1066887188	-0.259018
C	-1.3608582694	-1.5733689769	 0.6264801602	 0.087367
N	-1.3193928278	-1.8405061192	-0.6126452546	-0.315726
C	-0.4530720175	-0.8354440187	-1.1987777351	 0.280168
C	-0.7736527572	-0.3503138942	-2.5878247112	-0.313436
C	 0.4207918839	-1.2441219781	-2.3550344131	-0.313431
H	-0.2662019949	 2.0732392617	 0.8171129086	 0.129549
H	 0.0599752555	 2.0701053439	-0.9805934704	 0.121243
H	 2.0857751891	 0.5544270539	-0.5859089534	 0.121243
H	 1.7324075035	 0.5779088836	 1.2064988106	 0.12955
H	-1.918350346	-2.1233981054	 1.3752035358	 0.140413
H	-1.650487214	-0.7783226766	-3.0592691496	 0.128985
H	-0.5955790451	 0.6946124109	-2.8190176208	 0.113572
H	 1.4110434274	-0.8069512166	-2.4279345674	 0.113573
H	 0.3555441032	-2.2794451507	-2.6683050333	 0.128985
31.8451	231.0898	235.6627	300.4257	321.6132	368.348	497.1371	541.5075	568.1533	607.1899	755.8412	767.5659	835.3278	840.7018	878.6375	911.0521	929.7979	941.3938	961.3946	971.5152	994.9818	996.9215	1040.9514	1062.7598	1070.1005	1074.4906	1128.0718	1185.1774	1193.1698	1196.4784	1230.8827	1318.8586	1347.8298	1397.8818	1445.9151	1459.9076	1488.1028	1503.2135	1696.1339	3131.793	3134.6888	3136.1698	3137.9475	3216.8499	3219.6099	3224.2633	3230.6953	3233.919
C1CC11OC=NC11CC1	C1CC21OC=NC12CC1	
InChI=1S/C7H9NO/c1-2-6(1)7(3-4-7)9-5-8-6/h5H,1-4H2	InChI=1S/C7H9NO/c1-2-6(1)7(3-4-7)9-5-8-6/h5H,1-4H2
