17
gdb 30440	3.60228	1.2152	0.91898	3.8404	84.4	-0.2169	-0.0587	0.1581	1267.8735	0.135438	-418.041809	-418.033068	-418.032124	-418.075803	31.256	
C	-0.1364822611	 1.3575274827	 0.0938314	-0.324463
N	-0.0393451124	-0.0812106981	-0.0458077542	-0.306125
C	 0.5699245004	-0.5670056325	-1.0360178938	 0.433474
O	 0.5900478093	-1.9856175041	-1.0498057223	-0.245154
C	 1.1971658643	-2.6579929839	-2.034223799	 0.409528
C	 1.1019653428	-4.1363288672	-1.8581041342	-0.476116
C	 1.8119832913	-2.006395237	-3.0492319711	-0.266136
C	 1.7731028928	-0.5764452294	-3.004669468	 0.030903
N	 1.196804463	 0.1085310411	-2.0705098786	-0.310888
H	 0.3039550431	 1.6529326648	 1.0537576927	 0.120475
H	 0.3508541905	 1.9194906501	-0.7100927571	 0.128161
H	-1.1951032432	 1.6407535907	 0.1364900783	 0.120478
H	 1.5541158141	-4.4311458695	-0.905328382	 0.158209
H	 0.0515549902	-4.4438520872	-1.823781967	 0.158208
H	 1.6045044008	-4.6592004678	-2.6729531102	 0.138428
H	 2.3044330096	-2.542345209	-3.8475919931	 0.110685
H	 2.2552635345	-0.007489264	-3.8007483704	 0.120333
57.9308	108.2138	136.3189	171.1577	221.0006	247.8092	324.0663	420.3683	496.6474	529.6747	601.8742	605.5671	767.9796	770.1181	792.8622	851.0944	974.2616	997.6343	1002.4174	1045.0658	1063.2784	1107.6016	1134.2382	1136.3097	1165.521	1248.6876	1390.0985	1412.5482	1416.3338	1435.571	1467.2419	1481.1145	1492.2807	1497.3321	1600.3533	1694.917	1759.4669	3013.7372	3044.5705	3066.5807	3090.8022	3102.8641	3121.2554	3148.4949	3237.0803
CN=C1OC(C)=CC=N1	C[N]C1=NC=C[C@H](O1)C	
InChI=1S/C6H8N2O/c1-5-3-4-8-6(7-2)9-5/h3-4H,1-2H3	InChI=1S/C6H9N2O/c1-5-3-4-8-6(7-2)9-5/h3-5H,1-2H3/t5-/m1/s1
