19
gdb 67372	2.2273	1.90078	1.8956	1.0616	78.79	-0.2332	0.0181	0.2513	914.6863	0.161359	-385.873359	-385.866289	-385.865345	-385.904251	29.74	
O	-0.0630086872	 1.3911587047	 0.0074013396	-0.490947
C	 0.0135465498	 0.0046587602	 0.000056299	 0.420174
C	-1.270227694	-0.8720911601	 0.0705919957	-0.066848
C	-0.8638880483	-1.5459215801	-1.2669990523	-0.231721
C	 0.5162669063	-0.7812114576	-1.2632056464	-0.140843
C	 1.6983170168	-1.5668091005	-0.7685319694	-0.087556
C	 1.7736934999	-1.569720762	 0.5674086568	-0.087569
C	 0.6549911205	-0.7865486636	 1.1953171735	-0.140869
C	-0.7161733994	-1.5515712736	 1.3510706699	-0.231718
H	 0.8336425508	 1.7433223759	-0.0417093973	 0.279327
H	-2.2708845432	-0.4441029031	 0.1279710615	 0.070552
H	-0.8012623612	-2.6371199423	-1.2675384292	 0.094623
H	-1.5031113037	-1.2291802781	-2.0950964748	 0.102076
H	 0.6980452225	-0.1947957206	-2.167694283	 0.067004
H	 2.3758906351	-2.0954891341	-1.4308683098	 0.090311
H	 2.5213295029	-2.1011091899	 1.1470327605	 0.09031
H	 0.9375370718	-0.2040140142	 2.0761444785	 0.066991
H	-1.2580940042	-1.2385163291	 2.2471718319	 0.102076
H	-0.6541802149	-2.6427492618	 1.3399006752	 0.094627
191.296	217.3847	262.2247	359.4176	362.8699	376.8111	517.5974	578.5155	632.2808	653.0788	758.0238	765.2776	794.5637	813.4126	862.5435	875.19	939.1849	971.526	982.0026	986.1957	1018.6449	1035.8113	1069.5611	1086.2432	1106.6233	1122.2971	1123.953	1167.4353	1173.4402	1193.663	1244.4107	1256.0819	1283.1801	1303.6753	1313.4109	1323.01	1372.0579	1385.5585	1472.0688	1486.0682	1655.0445	3053.8439	3054.8459	3070.5586	3073.1007	3103.5963	3109.5543	3116.6014	3172.8342	3197.7043	3784.103
OC12C3CC1C=CC2C3	O[C@@]12[C@H]3C[C@@H]1C=C[C@@H]2C3	
InChI=1S/C8H10O/c9-8-5-1-2-6(8)4-7(8)3-5/h1-2,5-7,9H,3-4H2	InChI=1S/C8H10O/c9-8-5-1-2-6(8)4-7(8)3-5/h1-2,5-7,9H,3-4H2/t5-,6+,7-,8-
