18
gdb 74142	2.48459	1.4954	1.17253	6.8	75.72	-0.2314	-0.0078	0.2236	1106.7044	0.146806	-439.15615	-439.147143	-439.146198	-439.18919	34.539	
C	-0.0052622109	 1.5222055332	 0.0225712792	-0.412985
C	-0.0045521782	-0.0117766997	 0.0435413188	 0.266207
C	-1.4209788616	-0.5895302802	-0.064809256	-0.400481
O	 0.7594879173	-0.4716795941	-1.0771079972	-0.267618
C	 1.8406463508	-1.2331410836	-0.6510889387	 0.424127
O	 2.607384338	-1.7186910443	-1.4364812756	-0.365133
C	 1.8103178136	-1.277293017	 0.8080363159	-0.415467
C	 0.7487610672	-0.5714183302	 1.24267959	 0.364205
N	 0.280821118	-0.372241371	 2.5067497393	-0.592421
H	 1.0165085197	 1.9050502048	 0.0822394757	 0.136013
H	-0.4552620603	 1.8754593961	-0.9086204162	 0.139828
H	-0.5852708014	 1.9349425595	 0.855228146	 0.10435
H	-1.8964796905	-0.2318155947	-0.9816971025	 0.13428
H	-1.3816799946	-1.680933041	-0.0942596688	 0.137702
H	-2.0367266648	-0.2872589386	 0.7878273477	 0.109688
H	 2.5499356762	-1.806642069	 1.3893080297	 0.109563
H	 0.8908742573	-0.5927453177	 3.2777095072	 0.266522
H	-0.3344838556	 0.4076334374	 2.6711217056	 0.261621
109.6198	173.233	206.5228	225.4964	241.5955	277.3953	316.1073	366.8009	388.2444	435.4592	474.8019	568.6413	590.9558	630.3785	680.932	738.435	742.7492	824.6018	897.3258	933.9627	936.7968	1000.1025	1017.0175	1081.0827	1124.1059	1200.8861	1225.233	1247.6089	1283.5337	1396.1136	1397.6386	1423.1337	1471.6324	1482.6595	1493.5729	1503.8948	1643.8519	1702.3194	1865.3946	3038.0824	3046.2851	3109.9159	3119.9643	3131.4602	3133.9213	3247.5872	3593.0857	3700.1173
CC1(C)OC(=O)C=C1N	CC1(C)OC(=O)C=C1N	
InChI=1S/C6H9NO2/c1-6(2)4(7)3-5(8)9-6/h3H,7H2,1-2H3	InChI=1S/C6H9NO2/c1-6(2)4(7)3-5(8)9-6/h3H,7H2,1-2H3
