13
gdb 27671	3.16141	1.29149	0.91691	2.0724	70.31	-0.189	0.0191	0.208	1163.4918	0.088829	-452.753533	-452.745354	-452.74441	-452.785959	30.923	
O	 0.0520900718	 1.3214915528	 0.1752243749	-0.429971
C	 0.0616169042	-0.0122396164	 0.0188154696	 0.425912
N	 0.063634901	-0.6786456037	-1.0903407463	-0.419233
C	 0.0748202517	-2.0310226783	-0.6978102408	 0.036823
C	 0.0808517719	-3.1409269898	-1.5641768779	 0.187929
C	 0.0862815353	-4.1332591157	-2.2510352672	-0.433989
C	 0.0788398356	-2.1009390879	 0.6734148371	 0.310083
O	 0.0886591609	-3.1205774287	 1.5491098417	-0.427101
N	 0.0704610921	-0.8064599022	 1.1373256501	-0.352197
H	 0.0469798276	 1.6973878953	-0.7145292594	 0.316613
H	 0.0906948907	-4.9918709294	-2.8750739968	 0.185157
H	 0.0934543026	-3.9390822744	 1.0357292043	 0.315983
H	 0.0707359048	-0.5104430116	 2.0989033109	 0.283989
122.106	141.3222	226.2116	312.6858	341.2735	375.3759	406.2273	418.5111	433.0662	448.5028	501.8692	541.7227	617.1083	665.6906	687.8156	708.1861	715.955	824.3162	1036.0214	1135.1549	1174.4659	1210.1466	1284.4838	1329.0156	1509.6441	1545.8848	1637.6582	1661.6215	2217.506	3502.1434	3672.2634	3785.7768	3801.585
OC1=NC(C#C)=C(O)N1	Oc1nc(C#C)c(O)[nH]1	
InChI=1S/C5H4N2O2/c1-2-3-4(8)7-5(9)6-3/h1,8H,(H2,6,7,9)	InChI=1S/C5H4N2O2/c1-2-3-4(8)7-5(9)6-3/h1,8H,(H2,6,7,9)
