20
gdb 126508	3.05676	0.96552	0.77946	3.4057	82.13	-0.2406	-0.0029	0.2377	1509.6024	0.170214	-403.164263	-403.154705	-403.153761	-403.19998	33.958	
C	 0.0644762854	 1.6184718601	-0.1753108612	-0.38014
C	 0.0422147685	 0.0887274251	-0.1994424896	-0.152966
C	-1.3418066451	-0.4933401546	 0.1468218598	-0.326078
C	-1.3909388805	-1.9908630485	 0.1054212103	 0.070924
C	-1.4131339629	-2.8891184349	 1.1338959867	 0.347646
C	-1.4212189512	-2.752837718	 2.6154988479	-0.494293
O	-1.4362822508	-4.1471167189	 0.6488074716	-0.213109
N	-1.4297507293	-4.1074218722	-0.7430468497	-0.146071
C	-1.4019361843	-2.8349548005	-1.0441422587	-0.031022
H	 1.0566040453	 2.005493441	-0.4264397483	 0.115893
H	-0.6485183421	 2.0370199874	-0.8944606521	 0.115947
H	-0.2022778102	 2.0041023368	 0.8151398455	 0.114438
H	 0.3450966588	-0.2720850345	-1.1902337289	 0.102479
H	 0.782034691	-0.3093390192	 0.5056289975	 0.101206
H	-1.6398011671	-0.1422010628	 1.1421546511	 0.10183
H	-2.0840126207	-0.0822790736	-0.5500341421	 0.109263
H	-2.2858462056	-3.2643460724	 3.0507366993	 0.150682
H	-0.5215085058	-3.1946202491	 3.0570482478	 0.150198
H	-1.4616836676	-1.699905394	 2.90123854	 0.138732
H	-1.3956891358	-2.5449895372	-2.0865564068	 0.124442
34.5244	84.1074	99.559	119.1862	236.6915	239.3714	256.7166	311.813	362.2119	422.7329	641.3915	651.5497	684.3707	742.8676	760.6504	870.3972	895.8773	913.8334	915.7956	963.3064	1008.3402	1043.9776	1063.2581	1069.238	1111.9917	1189.2882	1206.712	1254.0136	1271.3047	1313.1422	1326.565	1381.8807	1402.8149	1413.0282	1421.7839	1474.0629	1480.0973	1487.4227	1493.1647	1498.9809	1509.8413	1518.9687	1672.3324	3016.7605	3027.8906	3031.2515	3041.1987	3046.296	3067.8984	3096.696	3096.9554	3105.297	3135.1887	3230.5958
CCCC1=C(C)ON=C1	CCCc1c(C)onc1	
InChI=1S/C7H11NO/c1-3-4-7-5-8-9-6(7)2/h5H,3-4H2,1-2H3	InChI=1S/C7H11NO/c1-3-4-7-5-8-9-6(7)2/h5H,3-4H2,1-2H3
