21
gdb 106143	2.51269	1.47932	1.18641	1.845	82.44	-0.2203	0.0858	0.3061	1165.3553	0.181706	-387.038901	-387.030096	-387.029152	-387.072289	33.868	
C	-0.3217196285	 1.4704287635	 0.0127039533	-0.371986
C	 0.1093542127	-0.0024254785	 0.0604852627	-0.338703
C	 0.7926592861	-0.4652168568	-1.1871927955	 0.263101
C	 0.3050595571	-0.7669475726	-2.6124994957	-0.208121
C	 1.3497829688	 0.1624059774	-3.2267044009	-0.236788
C	 2.144953846	-0.0932718772	-1.922136586	 0.020423
O	 2.5078876155	-1.4985196145	-2.0128746017	-0.331612
C	 1.1226746006	-1.7912606365	-1.7906908194	 0.407756
C	 0.7188008964	-3.1924395948	-1.4817960874	-0.510089
H	 0.5419288701	 2.1294731282	-0.1256995213	 0.117799
H	-1.0142659895	 1.6496406335	-0.8159739873	 0.119992
H	-0.8201451174	 1.7650407651	 0.941221036	 0.112429
H	 0.7710059632	-0.1635064592	 0.9221606194	 0.106434
H	-0.7710605692	-0.6355731229	 0.232394138	 0.102433
H	-0.7072633406	-0.9680360659	-2.9427366289	 0.082998
H	 1.8455443509	-0.1292012527	-4.1582228765	 0.096874
H	 0.9871206568	 1.1920234136	-3.2889670175	 0.099742
H	 2.9573041148	 0.5444292453	-1.5777107336	 0.080993
H	 1.2503207037	-3.5702119205	-0.6025314701	 0.129408
H	-0.3561847122	-3.2442476513	-1.2845858032	 0.123647
H	 0.9398669447	-3.8541293233	-2.3262581544	 0.13327
79.1351	117.8201	181.1129	203.4557	229.8333	278.9174	311.7933	369.1986	472.7225	585.154	599.5724	638.7422	726.1607	777.8013	813.2093	859.8938	889.1496	906.4373	935.2466	942.3201	959.2422	981.5685	1000.8442	1067.2993	1098.4745	1104.7987	1114.7003	1140.1172	1154.4313	1182.4911	1220.0674	1264.6218	1285.5028	1308.1785	1325.1865	1358.3122	1407.8948	1411.0626	1472.001	1476.4281	1483.1082	1488.65	1499.5553	1505.0262	1514.6061	3011.6176	3033.9802	3034.3852	3043.2636	3044.6872	3098.7303	3103.2348	3106.2452	3108.3573	3111.9289	3135.3162	3185.9648
CCC12C3CC1OC23C	CC[C@@]12[C@H]3C[C@@H]1O[C@@]23C	
InChI=1S/C8H12O/c1-3-8-5-4-6(8)9-7(5,8)2/h5-6H,3-4H2,1-2H3	InChI=1S/C8H12O/c1-3-8-5-4-6(8)9-7(5,8)2/h5-6H,3-4H2,1-2H3/t5-,6-,7+,8+/m0/s1
