16
gdb 66556	3.18341	1.97836	1.67332	2.4687	70.61	-0.2105	0.0008	0.2113	836.9194	0.126306	-400.666579	-400.660405	-400.65946	-400.696645	26.411	
O	-0.129538958	 1.3600340387	 0.0575588145	-0.464541
C	 0.0424055847	-0.00381147	 0.0218771518	 0.380342
C	-0.1799539838	-0.8581358206	-1.2519071815	-0.179799
C	-1.0088180329	-1.0523979853	-0.0142604767	-0.097629
N	 0.0426166976	-2.0593392313	 0.4752645395	-0.163392
C	 0.6110573623	-2.1495984495	-0.9436420035	-0.042759
C	 2.094186765	-1.9609913515	-0.7822484092	-0.079254
C	 2.2949922889	-1.2259991093	 0.316799524	-0.089665
C	 0.9499501024	-0.907760093	 0.9028114947	-0.114894
H	 0.5535780512	 1.7700838689	-0.4850096092	 0.289869
H	-0.4472844862	-0.3927533067	-2.1931562689	 0.089831
H	-2.0662096903	-1.0936109645	 0.2016410873	 0.106212
H	 0.2767205805	-3.0415247847	-1.4762598845	 0.077451
H	 2.8406090636	-2.3140345093	-1.4827535969	 0.10381
H	 3.2395571441	-0.8586102228	 0.6979378616	 0.104193
H	 0.8938871808	-0.6980790691	 1.9719607271	 0.080225
226.3439	293.3511	337.3403	408.7607	458.7375	577.6153	602.3833	669.0345	732.8959	745.9524	774.7456	839.4885	853.4588	883.5812	899.4487	930.5537	937.8808	948.0496	968.4515	1007.626	1021.3202	1036.491	1038.349	1116.4469	1127.6787	1172.3167	1188.227	1206.6461	1251.7032	1283.5122	1299.4028	1323.1241	1360.1724	1456.2135	1643.9619	3093.1359	3104.5579	3183.8229	3199.2699	3223.773	3227.2009	3788.8776
OC12C3C1N1C3C=CC21	O[C@]12[C@@H]3[C@H]1N1[C@@H]3C=C[C@@H]21	
InChI=1S/C7H7NO/c9-7-4-2-1-3-5(7)6(7)8(3)4/h1-6,9H	InChI=1S/C7H7NO/c9-7-4-2-1-3-5(7)6(7)8(3)4/h1-6,9H/t3-,4+,5+,6-,7-/m1/s1
