17
gdb 5261	6.9211	1.10641	0.96549	0.8289	71.41	-0.1986	0.0535	0.2521	1192.5662	0.142946	-363.883475	-363.875363	-363.874419	-363.91762	28.824	
C	-0.2080971415	 1.4114390759	-0.3971931059	-0.220415
O	-0.2736581748	 0.0160981131	-0.5473955825	-0.230198
C	-0.9897805744	-0.6134699268	 0.4947863474	-0.171845
C	-1.0125502325	-2.0909507362	 0.2587894302	 0.250973
C	-0.4358498329	-2.7495691593	-0.8020005701	-0.157682
N	-0.6829245186	-4.0915301913	-0.6486038191	-0.240848
C	-1.4090500784	-4.3032384348	 0.4946063065	-0.071133
C	-1.6300775562	-3.0796170131	 1.0812189828	-0.254322
H	 0.3600444376	 1.806723755	-1.2430197473	 0.123656
H	-1.2094807989	 1.8719674235	-0.3961747071	 0.10176
H	 0.2996622543	 1.7005403831	 0.53739606	 0.101762
H	-0.5219288051	-0.3804016048	 1.4688443494	 0.09085
H	-2.0176164139	-0.2095558634	 0.5441403893	 0.090871
H	 0.1219517353	-2.3659108009	-1.63877933	 0.12737
H	-0.3762223747	-4.8091015857	-1.2806942466	 0.258837
H	-1.7047194161	-5.2964047042	 0.7920939155	 0.11498
H	-2.1737842894	-2.90815952	 1.9983103275	 0.085383
17.7197	79.3453	144.0021	221.5314	255.9841	354.6604	405.2081	463.921	634.7713	637.7714	687.6524	739.2047	772.9152	818.6389	906.6512	977.7923	996.0102	1050.1462	1080.5941	1092.626	1161.5013	1163.396	1185.1946	1219.6916	1252.3855	1261.9378	1292.1212	1393.0617	1440.4588	1467.227	1480.5308	1483.3333	1503.0563	1520.4842	1529.7062	1618.8493	2928.9031	2941.3266	2964.8462	3005.2297	3110.7008	3239.1185	3267.7871	3286.9298	3691.0916
COCC1=CNC=C1	COCc1c[nH]cc1	
InChI=1S/C6H9NO/c1-8-5-6-2-3-7-4-6/h2-4,7H,5H2,1H3	InChI=1S/C6H9NO/c1-8-5-6-2-3-7-4-6/h2-4,7H,5H2,1H3
