25
gdb 57525	2.52106	1.17157	1.06171	1.0252	89.23	-0.2411	0.0794	0.3205	1344.0302	0.224967	-389.481042	-389.470096	-389.469152	-389.516738	42.298	
C	 0.4992838158	 2.011640365	-0.2304073917	-0.402233
C	 0.6099680524	 0.4958598105	 0.0162664609	 0.359643
C	 1.5977049012	 0.2148922052	 1.1552194308	-0.426071
C	-0.7728492215	-0.0685015883	 0.3662518582	-0.387296
O	 0.9358786743	-0.1760983997	-1.2231068183	-0.34678
C	 2.2510438084	-0.4080396768	-1.6507336403	 0.442314
C	 2.8598617743	-1.7072241981	-1.1550762772	-0.443149
C	 2.4920306826	-0.0408343096	-3.0905381003	-0.303609
C	 3.1669558511	 0.7485627818	-1.9890157609	-0.320438
H	 1.4791220322	 2.4767900163	-0.3620590067	 0.113963
H	-0.0996393414	 2.2006853414	-1.1255372072	 0.117609
H	 0.0140368442	 2.5032731461	 0.6193449443	 0.108317
H	 1.2904847322	 0.7728283451	 2.0455089235	 0.111619
H	 1.6161827911	-0.8465840933	 1.4160459779	 0.119213
H	 2.6113493149	 0.5326629302	 0.8978189818	 0.123952
H	-1.4758295288	 0.1226672298	-0.4494208818	 0.118563
H	-0.7135182842	-1.1499261326	 0.5167938596	 0.114006
H	-1.1643638966	 0.3921921652	 1.2784438577	 0.105318
H	 2.1643503898	-2.532859289	-1.3376645178	 0.121579
H	 3.7915185185	-1.9220374593	-1.6872735532	 0.109713
H	 3.0861331351	-1.6829782284	-0.0861798093	 0.114211
H	 3.0900403554	-0.7069955634	-3.7028027442	 0.106588
H	 1.6691639835	 0.4399935287	-3.6062460191	 0.117051
H	 2.8155830686	 1.7577945784	-1.8238471017	 0.117204
H	 4.231977997	 0.6138130651	-1.8291359351	 0.108713
26.2704	114.4698	190.4589	206.0354	223.0008	254.4604	290.4472	297.5907	310.1738	324.9662	351.2485	390.6923	400.6278	429.3746	472.1157	545.4129	691.8944	758.517	774.8471	853.43	859.2095	909.3445	917.7393	921.7764	953.6491	956.7175	1020.7407	1036.9772	1045.4936	1056.1913	1062.895	1074.4216	1128.3876	1190.0845	1213.1972	1249.6878	1272.1302	1289.9231	1323.4221	1391.9453	1396.571	1412.6033	1422.3584	1454.4507	1471.8808	1479.9442	1484.933	1490.2746	1492.203	1499.0844	1502.3412	1509.5621	1521.2181	3037.7487	3038.7548	3040.0263	3047.0226	3105.3947	3107.4638	3108.2491	3116.4164	3117.9419	3119.3204	3124.6356	3126.2994	3135.4881	3141.5661	3223.6578	3241.7265
CC(C)(C)OC1(C)CC1	CC(C)(C)OC1(C)CC1	
InChI=1S/C8H16O/c1-7(2,3)9-8(4)5-6-8/h5-6H2,1-4H3	InChI=1S/C8H16O/c1-7(2,3)9-8(4)5-6-8/h5-6H2,1-4H3
