17
gdb 46415	4.16211	0.77678	0.68911	5.0032	75.79	-0.2608	0.0171	0.2779	1571.5955	0.136168	-418.045471	-418.036475	-418.035531	-418.080906	31.096	
O	-0.0489199561	-0.0248344087	-0.2464671766	-0.3603
C	-0.0786330733	 1.164860188	-0.0820559705	 0.40501
C	-1.1545639515	 2.2687654995	 0.0315535031	-0.369436
C	 0.0382055393	 3.2567278292	 0.1788158853	-0.179097
N	 0.9301547499	 2.0941490655	 0.0733625104	-0.074187
C	 2.3590138901	 1.9566685229	 0.0112578104	-0.177975
C	 3.0222260677	 2.0768082644	 1.4061256482	-0.340603
C	 4.4772488542	 1.988525957	 1.3276622399	 0.259535
N	 5.6270762424	 1.9209856243	 1.236007412	-0.296757
H	-1.7607489912	 2.3953425051	-0.8667075185	 0.14075
H	-1.8043976926	 2.1776575322	 0.9032736142	 0.138681
H	 0.1534549764	 3.9757040676	-0.6395310386	 0.119166
H	 0.0949161623	 3.7845154109	 1.1365558878	 0.11558
H	 2.5697725111	 0.9704563113	-0.4115300446	 0.162395
H	 2.7838519336	 2.7098684442	-0.6623098464	 0.133488
H	 2.7533564773	 3.0326760916	 1.8692053018	 0.154502
H	 2.6460967504	 1.282983145	 2.0595674823	 0.169248
47.9828	61.3273	72.7202	167.5693	184.1014	248.0695	325.6754	399.0516	482.3132	534.1635	560.8091	738.9471	772.6177	788.6664	821.9316	946.5315	958.6386	989.0693	1013.1097	1046.1812	1069.3134	1140.9885	1151.9202	1187.7422	1208.8522	1263.2055	1288.9315	1301.8095	1346.6764	1395.4924	1418.8721	1462.2245	1466.0421	1478.6793	1530.3665	1882.0454	2364.0118	3035.2295	3040.177	3052.5508	3079.5943	3090.4385	3092.4147	3113.518	3150.4253
O=C1CCN1CCC#N	O=C1CCN1CCC#N	
InChI=1S/C6H8N2O/c7-3-1-4-8-5-2-6(8)9/h1-2,4-5H2	InChI=1S/C6H8N2O/c7-3-1-4-8-5-2-6(8)9/h1-2,4-5H2
