17
gdb 24450	3.46403	1.62223	1.14475	2.5987	74.89	-0.1704	0.051	0.2214	1030.627	0.140204	-418.029588	-418.022522	-418.021578	-418.060806	28.537	
C	-0.0345959189	 1.4097578663	 0.0950038167	-0.188608
C	 1.4040063075	 1.9581479266	 0.0198366235	-0.081445
O	 2.2142961539	 1.4903500183	 1.0938834013	-0.285546
C	 2.0158375155	 0.1550620459	 1.3250689248	 0.330103
C	 0.9790031699	-0.5696522071	 0.7866101903	 0.217542
N	 1.079809267	-1.8543155231	 1.2703064033	-0.341205
C	 2.1779286616	-1.9428399771	 2.0949659877	-0.074867
C	 2.7811860607	-0.7054564054	 2.1561382716	-0.299042
N	-0.0844528036	-0.0587132812	 0.0143844142	-0.405723
H	-0.4821600135	 1.7174461319	 1.0468137585	 0.126951
H	-0.6344512496	 1.8351839963	-0.7144649532	 0.105724
H	 1.8552031352	 1.6599662327	-0.9396057827	 0.092194
H	 1.4100942935	 3.0499816841	 0.0830336487	 0.109902
H	 0.4182071832	-2.5874676114	 1.087622829	 0.257135
H	 2.451033465	-2.878555442	 2.5538967	 0.115113
H	 3.6667793018	-0.447915938	 2.7145746364	 0.096316
H	-0.0262285892	-0.3563209869	-0.95651649	 0.225456
121.6835	224.317	330.8051	336.4782	370.1814	417.5699	469.648	530.369	617.8295	651.7804	690.9357	703.0485	711.3211	799.1508	823.8111	873.7046	914.8159	945.9183	1031.5886	1059.6683	1089.65	1121.3551	1127.8428	1195.8083	1259.0188	1275.7	1288.3752	1332.0421	1372.1499	1399.7916	1435.5937	1451.3348	1474.3525	1488.8492	1507.7292	1537.8598	1655.8385	2983.2207	3044.889	3090.6428	3100.8227	3256.4192	3276.8805	3461.5936	3689.8989
C1COC2=C(NC=C2)N1	C1COc2c([nH]cc2)N1	
InChI=1S/C6H8N2O/c1-2-7-6-5(1)9-4-3-8-6/h1-2,7-8H,3-4H2	InChI=1S/C6H8N2O/c1-2-7-6-5(1)9-4-3-8-6/h1-2,7-8H,3-4H2
