12
gdb 21424	3.40664	2.44975	1.42501	1.809	63.27	-0.2419	-0.04	0.2019	784.9944	0.085953	-406.966498	-406.959911	-406.958967	-406.99765	24.289	
N	-0.035297787	 1.2313964313	 0.4800431541	-0.480305
C	-0.0290958341	 0.030868266	 0.0667302091	 0.387203
N	 1.0910858396	-0.6839355522	-0.3570913264	-0.319624
N	 1.1718426585	-1.9703935579	-0.8118951924	-0.073432
N	 0.122411917	-2.6475917865	-0.877280286	-0.073432
N	-1.0535974859	-2.0676859369	-0.4911998998	-0.319624
C	-1.2830609719	-0.7782275402	-0.0115997095	 0.387204
N	-2.4076972909	-0.2994238364	 0.3320199632	-0.480306
H	 0.901331559	 1.6408090659	 0.4715810481	 0.215038
H	 1.9918741473	-0.2294625515	-0.3436899337	 0.27112
H	-1.8356233978	-2.6985358514	-0.5839832643	 0.27112
H	-3.161314164	-0.98061742	 0.2179941877	 0.215038
89.4309	100.7997	356.3972	428.9127	469.7851	507.1455	553.7958	565.7312	582.1352	654.3638	734.4801	770.7616	845.7089	874.9927	970.5221	1049.8606	1071.0193	1125.6435	1148.8936	1281.3476	1390.3908	1436.216	1474.6036	1617.1918	1723.6011	1745.7466	3454.2312	3455.8071	3624.3692	3624.9079
N=C1NN=NNC1=N	[NH]c1[nH]nn[nH]c1[NH]	
InChI=1S/C2H4N6/c3-1-2(4)6-8-7-5-1/h(H2,3,5,8)(H2,4,6,7)	InChI=1S/C2H4N6/c3-1-2(4)6-8-7-5-1/h(H2,3,5,8)(H2,4,6,7)
