13
gdb 24836	2.46377	1.89202	1.31093	7.8601	69.04	-0.2488	-0.066	0.1828	936.9798	0.091607	-448.955633	-448.948436	-448.947492	-448.987688	26.315	
N	-0.2329435938	 1.4187427343	 0.1583504432	-0.481325
C	-0.0519949537	 0.1748562571	 0.0000663182	 0.245706
N	 1.1951770568	-0.4448192455	-0.1695371531	-0.25704
C	 1.4227843396	-1.3606430469	-1.023374691	 0.09395
N	 0.5673405215	-1.9106450487	-1.9657021466	-0.297047
C	-0.806158637	-1.7577872883	-2.0546035492	 0.102781
N	-1.6148130596	-1.3042019769	-1.1858813088	-0.24277
C	-1.2267286339	-0.7962440729	 0.062272874	 0.347594
O	-1.7824120578	-1.0918007509	 1.0865679074	-0.295705
H	 0.6646603506	 1.9085318696	 0.1051605349	 0.225424
H	 2.4268326513	-1.7798506324	-1.0840453162	 0.142379
H	 0.9987507557	-2.4841446384	-2.6764656844	 0.271974
H	-1.2002888997	-2.1179478102	-3.0053239483	 0.14408
92.4369	101.6733	254.9258	298.5522	323.8163	450.96	475.4839	534.8334	589.1942	669.4315	717.9787	786.7588	822.3238	909.7714	941.3878	958.8388	972.6207	980.478	996.0379	1107.6771	1233.5051	1312.8092	1422.1951	1458.5048	1505.8618	1689.6616	1723.8628	1744.7103	1822.5636	3131.7251	3139.2238	3436.8634	3604.1439
N=C1N=CNC=NC1=O	[NH][C]1N=CNC=NC1=O	
InChI=1S/C4H4N4O/c5-3-4(9)8-2-6-1-7-3/h1-2H,(H2,5,6,7,8,9)	InChI=1S/C4H4N4O/c5-3-4(9)8-2-6-1-7-3/h1-2H,(H2,5,6,7,8,9)
