17
gdb 92809	3.39473	1.58554	1.30941	3.1166	72.95	-0.2436	-0.0025	0.2411	979.6623	0.137656	-417.940434	-417.933366	-417.932422	-417.971662	28.498	
O	 0.1702854122	 1.420133462	 0.0286368423	-0.433657
C	 0.0438633618	 0.0138387041	-0.0451926635	 0.076298
C	 0.4434721297	-0.6718581536	 1.3036475604	-0.202227
N	-0.7703637777	-0.5327144586	 2.1638864127	-0.306113
C	-1.7256612096	-0.5227851633	 1.3312123143	 0.349688
C	-1.4266930207	-0.4707181987	-0.1476805337	-0.123204
C	-2.6891370943	 0.4066580315	-0.1690046355	-0.060493
C	-3.8269863777	-0.4135593994	 0.2626222404	-0.230533
N	-2.9995638414	 0.1395822191	 1.3647715309	-0.189114
H	-0.1775117651	 1.7033781012	 0.883295523	 0.297896
H	 0.6553409962	-0.2997857952	-0.8950930351	 0.089148
H	 0.7275818809	-1.7235368301	 1.167154135	 0.109713
H	 1.2864712973	-0.1537599356	 1.7694067809	 0.120328
H	-1.5132463468	-1.37894262	-0.7490353287	 0.09992
H	-2.7685176592	 1.4198853397	-0.5402012758	 0.134689
H	-4.816977367	 0.0307064318	 0.2475839642	 0.138971
H	-3.8123035187	-1.486086745	 0.0814582681	 0.12869
137.79	178.3934	281.2866	348.0063	391.5798	404.5226	464.7783	546.0283	588.5269	698.3235	744.3645	800.2139	826.4374	838.3848	870.7456	914.217	964.9877	978.6219	991.8501	1042.8452	1069.3901	1076.322	1115.4709	1133.2516	1154.2473	1178.8842	1197.1788	1244.9841	1257.4692	1264.4775	1306.1963	1311.7726	1354.5944	1430.9124	1483.8152	1505.0271	1731.5947	3025.0086	3073.8139	3090.2896	3095.4273	3111.2163	3202.5283	3216.443	3781.7583
OC1CN=C2C1C1CN21	O[C@H]1C[N][C]2[C@H]1[C@H]1CN21	
InChI=1S/C6H8N2O/c9-4-1-7-6-5(4)3-2-8(3)6/h3-5,9H,1-2H2	InChI=1S/C6H8N2O/c9-4-1-7-6-5(4)3-2-8(3)6/h3-5,9H,1-2H2/t3-,4+,5+,8?/m1/s1
