20
gdb 102241	2.72231	0.90817	0.79472	4.9708	79.91	-0.2598	-0.024	0.2358	1546.2469	0.167893	-403.196591	-403.185868	-403.184924	-403.233704	37.054	
C	-0.0690460513	 1.5957630423	 0.0263648769	-0.397786
C	 0.0420591416	 0.0708339333	-0.0214679232	-0.193375
C	 0.6643351808	-0.4641358109	-1.3310648605	-0.112836
C	 0.8346451924	-1.9949419492	-1.3210028722	-0.328585
C	 1.8036568508	-2.500891607	-2.391216213	 0.394348
C	 1.7291678021	-3.9786828996	-2.7138037933	-0.478801
O	 2.5903830456	-1.7573237489	-2.9287480739	-0.290517
C	-0.1379625971	-0.0607747008	-2.4920364739	 0.283644
N	-0.7989059635	 0.2459507071	-3.3894583534	-0.335729
H	 0.9143195288	 2.0671655974	-0.0755653225	 0.122355
H	-0.7064553355	 1.972130164	-0.7791450846	 0.14684
H	-0.4996992876	 1.921393106	 0.9774692043	 0.120682
H	 0.6690251617	-0.2846213924	 0.804753414	 0.104751
H	-0.9464501856	-0.3828372992	 0.1164087401	 0.114366
H	 1.6602460241	-0.0265171974	-1.4668777109	 0.146394
H	 1.2470027646	-2.3019586244	-0.3496207855	 0.132734
H	-0.1309131947	-2.5038477304	-1.4129226569	 0.131746
H	 1.708759928	-4.5818006775	-1.7996696527	 0.136128
H	 0.7957835558	-4.1840068053	-3.2516179581	 0.154419
H	 2.574618129	-4.2681396473	-3.3385744009	 0.149222
37.0341	57.0592	90.2808	136.8383	141.6244	163.1753	226.1269	265.879	302.3547	310.7514	420.4499	480.2976	552.1282	563.5168	626.3582	758.8723	801.92	819.8714	883.0585	940.7396	963.9549	1029.2135	1036.7117	1090.1846	1119.3842	1139.4649	1182.7398	1214.4169	1264.1284	1295.1012	1358.4849	1369.5208	1379.5344	1386.8559	1418.0428	1450.7433	1463.1625	1476.4945	1487.1066	1499.2825	1507.2052	1815.8794	2354.7525	3022.613	3031.7177	3036.5409	3039.5208	3052.6353	3070.7799	3081.2467	3097.2672	3109.3711	3118.6361	3155.6579
CCC(CC(C)=O)C#N	CC[C@@H](CC(=O)C)C#N	
InChI=1S/C7H11NO/c1-3-7(5-8)4-6(2)9/h7H,3-4H2,1-2H3	InChI=1S/C7H11NO/c1-3-7(5-8)4-6(2)9/h7H,3-4H2,1-2H3/t7-/m0/s1
