17
gdb 54039	2.45332	1.38801	0.95457	1.5283	71.	-0.2581	-0.0196	0.2385	1213.0535	0.135955	-455.19186	-455.183081	-455.182137	-455.22599	32.363	
N	 0.4525155804	 1.0107799475	-0.2035028875	-0.569921
C	 0.1729541354	-0.233434662	 0.2306425343	 0.496785
O	 0.8732555243	-0.8810763037	 0.9815336495	-0.389784
N	-1.0653229297	-0.7890474108	-0.2699605439	-0.176141
C	-1.9256497687	-0.1375220948	-1.1133589538	 0.185149
O	-1.8002716659	 0.9846462555	-1.5733331909	-0.354773
C	-1.3619975101	-2.1385143898	 0.1950179741	 0.06627
C	-2.7519844675	-2.6044086191	 0.5217649394	-0.291101
C	-2.012912441	-3.1777757441	-0.6722481857	-0.291155
H	 1.3034755801	 1.4227815054	 0.137027692	 0.266421
H	-0.1872729998	 1.4925863754	-0.8230793098	 0.291929
H	-2.8063561103	-0.7481669787	-1.3637201697	 0.103985
H	-0.5620281729	-2.4591253789	 0.8446444104	 0.157133
H	-2.8828891484	-3.2192700501	 1.4053087989	 0.128949
H	-3.5843449537	-1.9376128358	 0.3236626927	 0.123651
H	-2.3562974606	-2.8899311571	-1.6601455274	 0.123649
H	-1.6305384018	-4.1910531788	-0.6184555625	 0.128953
56.1702	69.1867	160.4393	216.451	294.145	310.3391	357.0267	387.0933	443.6771	446.2095	579.1118	629.4404	690.4905	747.9656	782.1659	785.9496	821.7615	902.6699	956.7614	1028.6852	1054.5014	1076.5663	1081.7829	1137.1244	1141.5397	1155.5293	1199.2993	1248.324	1326.7051	1345.3645	1433.8221	1468.8849	1470.0374	1508.9622	1587.1752	1769.142	1821.3669	3015.2518	3134.8796	3136.9829	3212.6641	3222.4681	3241.8796	3503.2943	3717.9714
NC(=O)N(C=O)C1CC1	NC(=O)N(C=O)C1CC1	
InChI=1S/C5H8N2O2/c6-5(9)7(3-8)4-1-2-4/h3-4H,1-2H2,(H2,6,9)	InChI=1S/C5H8N2O2/c6-5(9)7(3-8)4-1-2-4/h3-4H,1-2H2,(H2,6,9)
