16
gdb 56446	2.59963	1.23675	0.92387	2.0994	71.92	-0.2674	-0.048	0.2194	1240.8809	0.122191	-437.829719	-437.820635	-437.819691	-437.864281	32.753	
O	 0.3716653901	 1.5424489352	 0.0464714978	-0.4154
C	 0.0974888697	 0.1720433196	-0.0295753761	-0.113139
C	 0.4026689392	-0.3982603148	-1.3467581165	 0.324901
C	 0.6555406542	-0.8728982234	-2.4211425452	-0.473081
C	 0.8891828929	-0.5873473676	 1.0571756245	 0.365616
O	 1.6168197713	 0.0449909612	 1.7967503582	-0.354147
C	 0.712933031	-2.0554516697	 1.1699137549	-0.096936
C	 1.9665133902	-2.8656451956	 1.3358214607	-0.213041
N	 1.0602633565	-2.6840587444	 2.4565562513	-0.301721
H	 1.0555907076	 1.6242832019	 0.732414224	 0.29875
H	-0.9710699543	-0.006977558	 0.1844856465	 0.127346
H	 0.8748231142	-1.2809388385	-3.3771663351	 0.208356
H	-0.1286346915	-2.4893915276	 0.6404926507	 0.114863
H	 1.9904110366	-3.8622975119	 0.9057738134	 0.136071
H	 2.9062079021	-2.3210501215	 1.3264921296	 0.139262
H	 1.4282001104	-1.9496550248	 3.0618799512	 0.252299
55.7529	69.08	127.9415	205.1002	230.6907	271.5386	336.586	376.7267	421.1995	438.1095	578.6999	622.8059	641.1199	682.941	759.4288	835.7808	856.8775	883.2671	970.735	978.4692	1010.3616	1070.1511	1120.8858	1129.3272	1156.3845	1181.9686	1240.2522	1287.5331	1313.0125	1337.2796	1405.6214	1432.4699	1497.8239	1778.7386	2234.0264	2952.9292	3118.2197	3173.1273	3213.6282	3471.6905	3501.0214	3666.3505
OC(C#C)C(=O)C1CN1	O[C@@H](C#C)C(=O)[C@H]1CN1	
InChI=1S/C6H7NO2/c1-2-5(8)6(9)4-3-7-4/h1,4-5,7-8H,3H2	InChI=1S/C6H7NO2/c1-2-5(8)6(9)4-3-7-4/h1,4-5,7-8H,3H2/t4-,5+/m1/s1
