16
gdb 20917	5.17189	1.39558	1.19236	2.6842	67.36	-0.2734	-0.0151	0.2583	1036.8102	0.131115	-376.10792	-376.099821	-376.098877	-376.142111	27.557	
C	-0.037802376	 1.5189451114	-0.1391826605	-0.381594
C	-0.0338274904	 0.0122043	 0.1128900055	-0.135683
N	-1.3736140981	-0.5574900419	 0.061449355	 0.146742
N	-2.0108106132	-0.9935349511	 1.1388015151	-0.128753
N	-3.1843973511	-1.4045552186	 0.7278338729	-0.260016
C	-3.2169938584	-1.1955744669	-0.6127453927	 0.388714
C	-4.3821570099	-1.5264343156	-1.4800947351	-0.478431
N	-2.0822972032	-0.6603755493	-1.0577929278	-0.300079
H	 0.9862667143	 1.900817083	-0.1006341946	 0.128869
H	-0.4557447188	 1.7429252708	-1.1234469721	 0.148672
H	-0.6300204275	 2.0377861607	 0.619449356	 0.139469
H	 0.5734696993	-0.5082609466	-0.6325263079	 0.140256
H	 0.348454754	-0.229519604	 1.1061023159	 0.150857
H	-5.2155009922	-0.8429788701	-1.2888735621	 0.147408
H	-4.1034144754	-1.4492554121	-2.5322069908	 0.144155
H	-4.7352467434	-2.5404662196	-1.2752074467	 0.149414
30.1299	48.2202	119.6426	204.0084	269.8541	296.94	402.6302	437.2953	629.9051	714.5033	736.2098	753.5933	798.7101	980.7331	1004.0401	1055.2271	1070.2443	1081.0099	1105.1692	1112.4017	1234.2876	1262.7627	1352.7588	1386.7332	1394.6977	1404.7231	1413.7693	1431.0408	1478.5835	1479.7759	1487.1302	1488.9925	1506.0659	1545.5991	3050.8501	3052.1859	3074.3915	3112.8076	3123.6433	3127.7371	3146.4169	3147.5653
CCN1N=NC(C)=N1	CCn1nnc(C)n1	
InChI=1S/C4H8N4/c1-3-8-6-4(2)5-7-8/h3H2,1-2H3	InChI=1S/C4H8N4/c1-3-8-6-4(2)5-7-8/h3H2,1-2H3
