23
gdb 118897	3.29251	0.89866	0.87779	1.2962	86.24	-0.2359	0.0296	0.2655	1459.6237	0.205505	-388.300735	-388.291033	-388.290089	-388.335257	37.018	
C	 0.0502600638	 1.5717469956	 0.0214034378	-0.431599
C	 0.0191886369	 0.032914772	-0.0338823541	 0.314255
C	-1.4215815373	-0.4998862938	-0.1263363523	-0.223431
C	-2.224411857	-0.0396884102	-1.3388548753	-0.090272
O	-3.4727813803	-0.7196709879	-1.3005976264	-0.419816
C	 0.9316850425	-0.4581204517	-1.2064301754	-0.28859
C	 2.2485698778	-0.7709987133	-0.5402556322	-0.064766
C	 2.1399806042	-0.8049814918	 0.78615053	-0.060692
C	 0.7317843149	-0.5217744953	 1.2430923013	-0.296275
H	 1.0754694766	 1.9261678683	 0.1712028499	 0.117464
H	-0.3217420053	 2.0226462789	-0.9041189453	 0.109356
H	-0.5606850066	 1.9485454769	 0.8494395738	 0.109148
H	-1.3990942656	-1.5965911072	-0.1436454216	 0.101654
H	-1.9770313088	-0.2166952227	 0.7769132868	 0.098681
H	-2.3721884474	 1.0503684986	-1.3120923474	 0.08624
H	-1.6773143018	-0.272147653	-2.2668074713	 0.085662
H	-4.003374106	-0.4129075673	-2.0414347559	 0.28369
H	 0.5218159628	-1.3583707597	-1.6871982818	 0.101464
H	 1.0245194004	 0.2941745271	-1.9994628227	 0.095121
H	 3.1543356597	-0.9724326859	-1.10211215	 0.087844
H	 2.9438443965	-1.0378458654	 1.4761864586	 0.088205
H	 0.6849910891	 0.1917868204	 2.0752355229	 0.096102
H	 0.2496743306	-1.4417228125	 1.6037230108	 0.100559
76.1719	102.938	115.1449	175.0043	265.1062	287.9339	316.8791	332.4887	343.5393	388.398	430.5272	433.9524	660.0542	698.0808	769.7651	782.9411	801.7864	917.411	926.085	944.1733	970.4549	977.8952	984.6939	989.4754	1009.4994	1043.0257	1070.0635	1126.5931	1128.9826	1147.9753	1185.9919	1204.1241	1242.0835	1255.986	1293.5145	1295.1734	1330.2202	1339.0095	1349.8416	1370.9765	1407.3746	1463.4001	1480.6613	1482.115	1492.8626	1500.2628	1507.4952	1528.2832	1690.7006	2968.9691	2997.2552	3001.0909	3002.4992	3022.0795	3027.9944	3039.7203	3041.4748	3064.6192	3094.557	3099.7821	3176.86	3202.7204	3829.4342
CC1(CCO)CC=CC1	C[C@@]1(CCO)CC=CC1	
InChI=1S/C8H14O/c1-8(6-7-9)4-2-3-5-8/h2-3,9H,4-7H2,1H3	InChI=1S/C8H14O/c1-8(6-7-9)4-2-3-5-8/h2-3,9H,4-7H2,1H3
