19
gdb 86825	5.02983	0.70406	0.68723	3.1786	73.98	-0.2395	0.0591	0.2986	1649.935	0.159377	-456.37066	-456.361131	-456.360187	-456.406028	35.265	
N	 0.6316581876	 1.2764048695	-0.1139806985	-0.568267
C	 0.3756157272	-0.0916069194	-0.167633398	 0.448114
O	 1.2519537559	-0.9135089082	-0.3620241747	-0.390265
N	-0.9466885115	-0.415889683	 0.04502349	-0.348665
C	-1.3777447809	-1.7828305064	 0.1852295631	 0.078842
C	-1.9537061695	-2.270320883	 1.5448840496	-0.265989
C	-2.9781973911	-3.1096811333	 0.7550697599	 0.144692
O	-4.2671649838	-3.1072425741	 1.3233649925	-0.431209
C	-2.7068459748	-2.2159626104	-0.4894292617	-0.29363
H	 1.5402663401	 1.5040627291	-0.4891766543	 0.259413
H	-0.1001118064	 1.8988148651	-0.4241620457	 0.244498
H	-1.5530553779	 0.2979806327	 0.4183486085	 0.234219
H	-0.5373448286	-2.3982821417	-0.1362015554	 0.124804
H	-1.2853456451	-2.7745433169	 2.2452154628	 0.109685
H	-2.4795472848	-1.4616462788	 2.0637574928	 0.103419
H	-2.6145789321	-4.1340765254	 0.5937662941	 0.071849
H	-4.8392258251	-3.6579732109	 0.7794587738	 0.282325
H	-3.4273870556	-1.3913881765	-0.5056984906	 0.096627
H	-2.6585908137	-2.6772801485	-1.4788110284	 0.099538
36.3036	72.3167	86.5111	200.7602	270.6822	316.267	337.9464	368.4672	430.9566	444.0867	462.2577	489.9296	560.8024	598.2942	683.8056	775.5224	803.9523	819.0118	909.0212	962.3527	984.3372	1019.2726	1039.849	1083.9445	1100.1391	1129.1322	1192.839	1208.9121	1223.3705	1251.0433	1268.6107	1282.2217	1309.5155	1327.7043	1391.7584	1430.0585	1466.2567	1497.873	1543.0895	1627.2735	1801.8866	3002.4598	3047.8399	3055.7763	3108.2948	3117.6489	3132.2734	3569.6524	3617.7561	3683.0695	3815.4439
NC(=O)NC1CC(O)C1	NC(=O)N[C@H]1C[C@@H](O)C1	
InChI=1S/C5H10N2O2/c6-5(9)7-3-1-4(8)2-3/h3-4,8H,1-2H2,(H3,6,7,9)	InChI=1S/C5H10N2O2/c6-5(9)7-3-1-4(8)2-3/h3-4,8H,1-2H2,(H3,6,7,9)/t3-,4+
