21
gdb 100870	2.34117	1.0282	0.75057	2.1792	80.77	-0.2583	0.04	0.2984	1532.7417	0.179418	-424.189901	-424.179066	-424.178122	-424.225914	39.604	
C	 0.1027308008	 1.5034898888	 0.0804376422	-0.393374
C	-0.0005627892	-0.0195810352	-0.0077977643	-0.17075
C	-1.4590813463	-0.5372560388	-0.0418806478	-0.196204
C	-2.1533386541	-0.0907512389	-1.2480989947	 0.336464
C	-2.6974415123	 0.2695066764	-2.258285388	-0.466588
C	-1.516169245	-2.0790189236	 0.0929040199	 0.084038
O	-0.852568407	-2.519917961	 1.2814997703	-0.435252
C	-2.9351671962	-2.6522602407	 0.0813550113	-0.071967
O	-2.9099435487	-4.0517711512	 0.2572344327	-0.423023
H	 1.1493737122	 1.8218465307	 0.0905283195	 0.116178
H	-0.3895342456	 1.9832691659	-0.7706196749	 0.131384
H	-0.368094399	 1.8810937379	 0.9953670925	 0.110567
H	 0.5130852933	-0.3792613689	-0.9070578635	 0.107199
H	 0.4957310616	-0.4874041144	 0.8473603626	 0.110976
H	-1.9887649802	-0.117397169	 0.8297904756	 0.091101
H	-3.188938977	 0.5892680155	-3.143802713	 0.199331
H	-0.9470213838	-2.5333077073	-0.7254747166	 0.109132
H	-1.2902867337	-2.10166057	 2.0336923539	 0.282544
H	-3.5262513121	-2.154430147	 0.8743909882	 0.068712
H	-3.4267508084	-2.443199944	-0.8718934008	 0.126069
H	-2.2336133193	-4.2169237154	 0.9268091251	 0.283462
62.6183	88.0618	119.7812	139.6393	167.432	200.2593	263.0282	288.3645	326.8004	347.3197	370.6946	452.1785	472.614	513.6882	547.6652	614.9147	635.5024	645.7255	772.9591	870.1538	881.0269	961.0515	1014.4041	1053.2489	1063.6593	1078.0505	1102.1355	1126.4372	1144.3954	1201.2149	1229.6667	1271.3825	1301.102	1334.6263	1361.4291	1363.0886	1381.0123	1411.8693	1417.1737	1442.5202	1490.1802	1497.7376	1507.083	1508.7534	2230.5492	2918.9902	2965.7384	3033.2659	3042.4938	3065.6369	3087.0819	3103.0705	3104.1297	3116.9595	3502.6969	3766.9439	3775.1357
CCC(C#C)C(O)CO	CC[C@@H](C#C)[C@@H](O)CO	
InChI=1S/C7H12O2/c1-3-6(4-2)7(9)5-8/h1,6-9H,4-5H2,2H3	InChI=1S/C7H12O2/c1-3-6(4-2)7(9)5-8/h1,6-9H,4-5H2,2H3/t6-,7+/m1/s1
