19
gdb 52549	4.10342	0.66761	0.59179	4.6237	84.3	-0.2531	-0.0579	0.1952	1896.5918	0.155467	-423.027185	-423.016353	-423.015408	-423.066016	37.083	
C	 0.0487111468	 1.4338401465	-0.1483371101	-0.505634
C	 0.0128703282	-0.014615421	-0.0517894561	 0.190768
C	-0.037901838	-1.2179916456	 0.0307957182	-0.032052
C	-0.0709615862	-2.6590744398	 0.1297836229	 0.202737
O	-1.1242981824	-3.2643460814	 0.2414384147	-0.320808
C	 1.2784591152	-3.3583603089	 0.0961104378	-0.30964
C	 1.1731171287	-4.8755058789	-0.1338367108	 0.137155
C	 2.5456919437	-5.5354658248	-0.170877422	-0.389955
O	 0.4306313474	-5.4968042603	 0.8995467238	-0.442871
H	 1.0636302286	 1.8007402907	-0.3317237018	 0.15976
H	-0.5938472127	 1.783140304	-0.9637353229	 0.16669
H	-0.3162243556	 1.8905240656	 0.7780918195	 0.167104
H	 1.902992765	-2.8793631325	-0.6676303609	 0.120113
H	 1.7698894271	-3.1645411944	 1.0605315512	 0.139255
H	 0.6766974377	-5.0330616106	-1.10637886	 0.069753
H	 2.4345465835	-6.6115001543	-0.3276533265	 0.126755
H	 3.1605373224	-5.1256407977	-0.9780805923	 0.107151
H	 3.0674551046	-5.3832529079	 0.7795703933	 0.119912
H	-0.4399934839	-5.0761233785	 0.8800442718	 0.293808
9.9413	36.8723	73.2072	113.5018	149.5676	210.1223	228.976	283.8094	334.8691	368.3556	382.9298	455.8616	469.4834	578.1839	594.2904	603.821	788.229	854.4308	914.078	944.2644	992.9334	1043.0939	1054.5458	1061.1952	1094.068	1159.3386	1199.1933	1221.2901	1308.9026	1346.0912	1385.7388	1401.8281	1409.2596	1427.24	1455.9292	1468.9462	1472.5318	1483.2929	1500.6192	1734.2934	2338.3718	2955.9463	3018.7525	3032.7981	3039.2361	3066.1737	3096.8229	3101.2097	3110.9859	3122.143	3744.4878
CC#CC(=O)CC(C)O	CC#CC(=O)C[C@@H](C)O	
InChI=1S/C7H10O2/c1-3-4-7(9)5-6(2)8/h6,8H,5H2,1-2H3	InChI=1S/C7H10O2/c1-3-4-7(9)5-6(2)8/h6,8H,5H2,1-2H3/t6-/m1/s1
