20
gdb 82753	2.28699	2.08713	1.52565	0.9103	77.57	-0.2253	0.0687	0.2939	960.6053	0.172736	-403.095274	-403.087721	-403.086777	-403.126673	31.274	
C	-0.1060470484	 1.5301311954	 0.0434845553	-0.43409
C	 0.0955904184	 0.0169796145	 0.0353607546	 0.015142
C	 1.0983505287	-0.5923966157	-0.9715935331	-0.013355
C	 2.4441384924	 0.0827131698	-0.6317091038	-0.242793
C	 2.2825852195	-0.7601767474	 0.6297218419	-0.069144
N	 1.6114333228	-1.8487353116	-0.20404081	-0.152933
C	 0.6631687432	-2.0946874359	 0.935060352	-0.233375
C	 0.8214789841	-0.5958875095	 1.2555614122	 0.360548
O	 0.5159826959	 0.0098757836	 2.4687436474	-0.488629
H	 0.8083509215	 2.0819522243	 0.2718657823	 0.121487
H	-0.480315424	 1.8780213119	-0.9255404801	 0.110785
H	-0.8418981085	 1.8002687767	 0.8061504733	 0.129361
H	-0.888487733	-0.4520914241	-0.0781665244	 0.070949
H	 0.7717326022	-0.7556646593	-1.998487367	 0.071014
H	 3.2563142441	-0.309252308	-1.2479760508	 0.112999
H	 2.5009392881	 1.169050721	-0.5740763681	 0.100589
H	 3.1002280221	-1.0509613154	 1.2937011817	 0.066183
H	-0.3291466588	-2.4835841143	 0.6851286019	 0.09925
H	 1.1581397936	-2.7666678728	 1.6450334717	 0.094268
H	 0.9858254162	-0.452224443	 3.1703236931	 0.281746
157.0325	203.9814	233.6997	298.8447	358.5635	375.7094	453.2285	483.0228	512.1529	624.9301	667.6598	731.6107	779.0772	797.8064	823.1465	885.1804	920.3981	956.566	966.9596	1009.8837	1016.6281	1030.2801	1045.0208	1078.3285	1086.4534	1122.5906	1149.1575	1153.6322	1173.8956	1207.3324	1226.8113	1248.4163	1263.9529	1276.1762	1307.5106	1326.0057	1377.1347	1407.7407	1417.7008	1482.2238	1491.9461	1507.6248	1514.1071	3030.4525	3035.7028	3041.2815	3077.1952	3089.0908	3091.3199	3106.2779	3115.7418	3123.045	3146.1532	3816.0714
CC1C2CC3N2CC13O	C[C@H]1[C@H]2C[C@@H]3N2C[C@]13O	
InChI=1S/C7H11NO/c1-4-5-2-6-7(4,9)3-8(5)6/h4-6,9H,2-3H2,1H3	InChI=1S/C7H11NO/c1-4-5-2-6-7(4,9)3-8(5)6/h4-6,9H,2-3H2,1H3/t4-,5+,6-,7-/m0/s1
