23
gdb 41960	2.07032	1.94759	1.65	0.0761	88.07	-0.2339	0.0251	0.2591	1015.4597	0.211375	-351.182428	-351.175007	-351.174063	-351.213934	31.403	
C	-0.043810743	 1.535037902	-0.0022973376	-0.199271
C	 1.3713070068	 2.1658478641	-0.0147211382	-0.199261
C	 2.506922696	 1.1091532543	-0.0285925623	-0.038133
C	 2.7139056263	 0.4656085697	 1.3767535356	-0.198204
C	 1.8411667172	-0.765051602	 1.6673545165	-0.179322
C	 0.3390633731	-0.5947797458	 1.3926340207	-0.19812
C	-0.01756342	-0.0160527882	-0.0108458392	-0.038175
C	 0.960505375	-0.4717625137	-1.0734869781	-0.069887
C	 2.1796141152	 0.0712837911	-1.0818894772	-0.069975
H	-0.6164396712	 1.8769912075	 0.8670216647	 0.088987
H	-0.5978333745	 1.8693033308	-0.8851538901	 0.094307
H	 1.4814248796	 2.7925763192	-0.9053334928	 0.0943
H	 1.5111683904	 2.8286943411	 0.8464642652	 0.088936
H	 3.4359979277	 1.6263173409	-0.2899977433	 0.060809
H	 3.7634602478	 0.1663216432	 1.4821969187	 0.090759
H	 2.5416563594	 1.2390136994	 2.1367780653	 0.087779
H	 2.2094805373	-1.5988597418	 1.0608921917	 0.100551
H	 1.9818371775	-1.0645119865	 2.7127916584	 0.083742
H	-0.137226964	-1.5757803357	 1.506866899	 0.090719
H	-0.1134647709	 0.0524258713	 2.1553852421	 0.087771
H	-1.0264248	-0.3620391498	-0.2587635015	 0.060814
H	 0.6616896985	-1.2233675822	-1.7984180033	 0.080448
H	 2.9297688356	-0.2129481688	-1.8141448242	 0.080423
86.422	256.5889	297.6247	328.5799	333.1853	388.9068	469.4417	544.5647	612.2087	631.5278	726.6794	740.2834	772.8939	802.919	849.1518	857.9571	915.6843	941.8799	945.221	947.8342	980.531	1020.0602	1022.0103	1050.2142	1053.0397	1124.6479	1131.1634	1164.0081	1195.5148	1215.1573	1216.1422	1241.8186	1277.0115	1293.0341	1329.821	1332.2978	1341.7637	1353.1223	1357.8944	1382.5232	1396.3854	1402.8874	1412.7732	1481.0697	1486.124	1494.4086	1496.2767	1510.0471	1691.8972	3012.7637	3013.9937	3026.1487	3034.0063	3036.1287	3042.555	3047.8128	3053.6501	3055.8844	3061.3656	3078.7907	3085.1798	3153.6232	3177.9995
C1CC2CCCC1C=C2	C1C[C@H]2CCC[C@@H]1C=C2	
InChI=1S/C9H14/c1-2-8-4-6-9(3-1)7-5-8/h4,6,8-9H,1-3,5,7H2	InChI=1S/C9H14/c1-2-8-4-6-9(3-1)7-5-8/h4,6,8-9H,1-3,5,7H2/t8-,9+
