16
gdb 99833	2.13134	1.33889	1.20216	3.6749	65.47	-0.2619	-0.0112	0.2507	1120.812	0.123462	-471.233591	-471.223741	-471.222797	-471.268409	35.381	
N	-0.0417943526	 1.3511104058	 0.0929372087	-0.519185
C	 0.0855596972	 0.0057850393	 0.0770287612	 0.396765
O	 1.1335046793	-0.6020958231	 0.1340049961	-0.357542
C	-1.278952305	-0.7444360454	-0.030310642	-0.045703
N	-2.2750392012	 0.093240147	-0.7138125538	-0.541858
C	-1.0554011907	-2.1253772483	-0.7090441813	-0.093788
O	-2.2765945607	-2.8243985244	-0.8339656858	-0.423999
C	-1.7654182211	-0.9961798775	 1.3383980983	 0.302684
N	-2.1572309536	-1.2546547582	 2.3946192977	-0.333584
H	 0.7819105147	 1.9174800807	 0.210967646	 0.271029
H	-0.9587250995	 1.7673777086	 0.0549552478	 0.282408
H	-1.9690889454	 0.2285885654	-1.6754634932	 0.243503
H	-3.1432860347	-0.4346219884	-0.7686894735	 0.256256
H	-0.6849969633	-1.9454558993	-1.7231861331	 0.121413
H	-0.2911804184	-2.6870333197	-0.1641867518	 0.139617
H	-2.4953860451	-3.2025153424	 0.0252525086	 0.301986
51.5562	110.1207	142.2911	162.1134	215.3682	262.7036	305.4572	330.9903	369.0799	387.8066	423.7038	453.3662	474.0486	599.1083	630.7614	648.1074	713.6064	773.6647	901.4766	918.6036	1000.0031	1065.4997	1093.6681	1117.0461	1143.399	1236.8462	1307.2012	1364.9843	1375.4807	1407.2228	1490.5437	1590.3085	1660.8857	1812.9287	2351.9622	3053.4789	3108.175	3473.7144	3552.0932	3583.0747	3725.8815	3805.16
NC(=O)C(N)(CO)C#N	NC(=O)[C@@](N)(CO)C#N	
InChI=1S/C4H7N3O2/c5-1-4(7,2-8)3(6)9/h8H,2,7H2,(H2,6,9)	InChI=1S/C4H7N3O2/c5-1-4(7,2-8)3(6)9/h8H,2,7H2,(H2,6,9)/t4-/m0/s1
