19
gdb 62524	2.60945	1.28321	1.08339	2.0821	82.17	-0.2399	-0.0222	0.2177	1190.8229	0.155556	-385.874594	-385.864794	-385.86385	-385.909015	36.431	
C	-0.3450041917	 1.4268834196	-0.2150803006	-0.445903
C	 0.0296646621	-0.027554883	 0.0554557812	 0.18284
C	-1.183993561	-0.8562290827	 0.4906994763	-0.436033
C	 0.9320904363	-0.7272883855	-1.0528445982	-0.234139
C	 1.9692505601	-1.1408738496	 0.0478822481	-0.367284
C	 1.2159579527	-0.2275010999	 1.0223342398	 0.384082
O	 1.4700524193	 0.2248081786	 2.1010292271	-0.303665
C	 0.352237985	-1.7779309291	-1.8608470945	 0.325949
C	-0.1357538314	-2.6535316476	-2.5259382623	-0.455148
H	 0.5241324792	 2.0171200066	-0.5226203665	 0.118237
H	-1.0988116641	 1.491080856	-1.0071688885	 0.124182
H	-0.7574704616	 1.8868014769	 0.6881637148	 0.135868
H	-1.9424988869	-0.8624912083	-0.2979873274	 0.129946
H	-0.9183445648	-1.8961549968	 0.7010025468	 0.124758
H	-1.6221626576	-0.425544263	 1.3959296766	 0.129525
H	 1.3632772189	 0.0405930376	-1.7030172895	 0.108837
H	 1.894320534	-2.1953279901	 0.3293141403	 0.143752
H	 3.0186029523	-0.8996082636	-0.1343385447	 0.136216
H	-0.5603976507	-3.4259722762	-3.1180145689	 0.197979
56.5866	131.5818	160.3763	195.4919	204.654	217.1143	272.1428	322.6859	338.2471	444.7247	478.1167	508.3114	590.8895	622.6758	629.0284	645.1661	709.2791	748.9363	863.2145	940.8981	962.8446	972.5024	999.4103	1057.2795	1072.5724	1112.7266	1159.8401	1184.9832	1220.2914	1242.4828	1275.5807	1346.5674	1396.4362	1416.7016	1439.4389	1478.5682	1480.823	1498.9598	1501.771	1889.3798	2232.8303	3031.0063	3038.616	3053.7689	3067.7021	3100.8901	3108.9178	3111.6945	3116.151	3126.7439	3503.4501
CC1(C)C(CC1=O)C#C	CC1(C)[C@@H](CC1=O)C#C	
InChI=1S/C8H10O/c1-4-6-5-7(9)8(6,2)3/h1,6H,5H2,2-3H3	InChI=1S/C8H10O/c1-4-6-5-7(9)8(6,2)3/h1,6H,5H2,2-3H3/t6-/m1/s1
