19
gdb 40791	3.77758	1.13113	0.96954	0.7611	74.39	-0.2341	0.0841	0.3182	1227.4597	0.160264	-422.983448	-422.975684	-422.97474	-423.016234	29.926	
C	 0.2103756672	 1.517125587	 0.0258512411	-0.182811
O	 1.1443580501	 0.47151093	-0.2478048602	-0.238725
C	-0.2149456195	 0.1110641579	 0.0042655162	 0.083962
C	-0.4862005986	-0.6696458919	 1.2665162692	-0.039182
C	-1.9777604384	-0.621576218	 1.6917460521	-0.116678
O	-2.2681872192	-1.8502076674	 2.3504216807	-0.255299
C	-1.3660001639	-2.8213607083	 1.8843989874	 0.11228
C	-1.2182718139	-3.0139129791	 0.3983491531	-0.332764
C	-0.2180158963	-2.1677707651	 1.1752782893	-0.084178
H	 0.3441261521	 2.0225360469	 0.981948494	 0.112351
H	-0.023783679	 2.1696340576	-0.8140634135	 0.115528
H	-0.7474639373	-0.2444012191	-0.88021599	 0.092915
H	 0.1454933293	-0.2576264396	 2.0616249812	 0.085194
H	-2.2013108795	 0.1948041486	 2.383563828	 0.114983
H	-2.6232739391	-0.4972996186	 0.80911009	 0.095058
H	-1.2701972619	-3.6507145267	 2.5746769473	 0.10324
H	-0.8731663969	-3.9827148272	 0.0539422602	 0.116932
H	-1.9282965892	-2.5354903428	-0.268190177	 0.116455
H	 0.8027480641	-2.5150162943	 1.2755175608	 0.100739
72.2643	114.7992	166.8467	262.7691	308.4224	398.2402	414.1488	505.4749	651.9998	699.8411	765.5429	808.3153	846.3639	867.3658	899.8936	947.503	960.8586	975.1915	979.6627	1030.0418	1039.2662	1071.8693	1089.3064	1096.457	1113.8235	1154.9139	1160.2018	1168.4719	1185.7164	1199.71	1239.3067	1283.4352	1294.6107	1308.9443	1319.6474	1378.7764	1401.1839	1452.1179	1478.941	1523.2744	1529.3938	2986.281	3043.9971	3079.7472	3087.7451	3092.5551	3133.4348	3166.4693	3183.0092	3191.0525	3218.4097
C1OC1C1COC2CC12	C1O[C@H]1[C@H]1CO[C@H]2C[C@@H]12	
InChI=1S/C7H10O2/c1-4-5(7-3-9-7)2-8-6(1)4/h4-7H,1-3H2	InChI=1S/C7H10O2/c1-4-5(7-3-9-7)2-8-6(1)4/h4-7H,1-3H2/t4-,5-,6-,7+/m0/s1
