18
gdb 92972	2.54617	1.44019	1.11215	5.1361	73.45	-0.2337	-0.0043	0.2294	1130.1701	0.14815	-439.12068	-439.112308	-439.111364	-439.154043	31.075	
C	 0.0188169626	 1.4929433109	 0.1615117528	-0.337401
N	 0.1482924028	 0.0481531325	 0.0253078532	-0.102465
H	-1.3415227656	-0.5950504937	-0.9793681225	 0.297924
C	 0.693821467	-0.6432301617	 1.2105430028	-0.207994
C	 1.4920349488	-1.772092964	 0.620564469	-0.083637
C	 1.6083511847	-1.6357138078	-0.6957568661	-0.070582
C	 0.8752013039	-0.4069319444	-1.1744096543	-0.163066
C	-0.0943573776	-0.7470357153	-2.3284954188	 0.423502
O	-1.3721714672	-0.8149759808	-1.9391116317	-0.364606
O	 0.2778101758	-0.9543051045	-3.4514363712	-0.347113
H	 0.9903240327	 1.9962327012	 0.3008013841	 0.113706
H	-0.4597266086	 1.9082634153	-0.7302777846	 0.137964
H	-0.6146513403	 1.7273088193	 1.0219781691	 0.130645
H	 1.3375509521	 0.0244148333	 1.8104334498	 0.105103
H	-0.1135782859	-0.9809365716	 1.8736428664	 0.11898
H	 1.9221705226	-2.5613076699	 1.223930891	 0.113679
H	 2.1355431876	-2.2832066301	-1.3832223719	 0.130962
H	 1.5774790746	 0.3450277213	-1.5679717171	 0.104401
73.2517	103.3941	186.7412	193.6827	233.2726	314.2272	389.584	413.1069	475.9987	601.2405	650.3188	702.7981	747.2242	805.558	861.6237	896.8926	925.6094	953.8523	971.4872	1027.4165	1032.0409	1064.4145	1123.6417	1152.4856	1174.7738	1214.382	1219.7741	1242.4738	1282.1721	1311.3013	1348.4251	1381.176	1421.203	1464.8762	1493.6602	1504.0327	1517.9149	1691.7425	1872.6369	2945.4597	2968.1634	2979.842	3023.7276	3074.4885	3113.9683	3212.8237	3240.2857	3431.2112
C[NH+]1CC=CC1C([O-])=O	CN1CC=C[C@H]1C(=O)O	
InChI=1S/C6H9NO2/c1-7-4-2-3-5(7)6(8)9/h2-3,5H,4H2,1H3,(H,8,9)	InChI=1S/C6H9NO2/c1-7-4-2-3-5(7)6(8)9/h2-3,5H,4H2,1H3,(H,8,9)/t5-/m0/s1
