20
gdb 89392	2.6454	1.43303	1.17579	3.5743	79.25	-0.2263	-0.0159	0.2104	1143.5202	0.171132	-403.165514	-403.156779	-403.155834	-403.198568	33.669	
C	 0.7809133682	 1.4766565601	-0.0194645875	-0.402621
C	-0.0126687025	 0.1607809198	 0.0406728287	-0.100676
C	 0.1729986799	-0.7706577602	-1.1860685009	-0.27597
C	 1.0852971759	-1.9123478096	-0.7305645801	 0.330797
C	 1.0994662371	-3.2040803152	-1.5048536407	-0.490056
N	 2.3262505554	-1.3842101234	-0.1486738893	-0.362323
C	 1.2218135234	-1.8496826015	 0.7541724857	-0.218471
C	 0.4152139349	-0.6880798384	 1.2543087734	 0.452408
O	 0.1021776512	-0.4815239297	 2.4002251926	-0.338525
H	 1.8438909156	 1.278001321	-0.1739385919	 0.145783
H	 0.4198933801	 2.1028562605	-0.8416838229	 0.11084
H	 0.6601171325	 2.0345257175	 0.9136651617	 0.12988
H	-1.0699542135	 0.4034873105	 0.1866621235	 0.098757
H	-0.7901937892	-1.1865195393	-1.5014252829	 0.101525
H	 0.6025188407	-0.2468671206	-2.0463437769	 0.106525
H	 1.4688649821	-3.0423788556	-2.5241802431	 0.130299
H	 1.7456595271	-3.9472177868	-1.0257507431	 0.117676
H	 0.0933262578	-3.6294930134	-1.579523453	 0.130167
H	 3.0372026804	-2.1141822811	-0.1530368404	 0.23425
H	 1.3793895227	-2.7152296547	 1.3873201372	 0.099734
90.315	139.5673	218.2427	223.699	236.6258	293.6255	328.4739	384.882	413.446	479.408	528.8451	621.2125	678.396	728.1156	801.2495	845.235	876.4383	907.7929	930.2841	966.5234	999.8099	1026.2245	1043.0837	1090.5249	1096.9034	1123.0175	1146.3475	1194.5584	1237.9548	1257.8981	1294.8945	1317.9872	1334.6547	1356.6673	1398.0015	1413.65	1431.6895	1484.103	1484.8565	1494.9931	1502.0811	1509.5065	1837.7887	3026.4127	3038.3962	3040.3756	3059.0041	3083.3415	3091.6144	3101.6554	3108.8427	3134.0263	3186.9311	3478.1876
CC1CC2(C)NC2C1=O	C[C@H]1C[C@@]2(C)N[C@H]2C1=O	
InChI=1S/C7H11NO/c1-4-3-7(2)6(8-7)5(4)9/h4,6,8H,3H2,1-2H3	InChI=1S/C7H11NO/c1-4-3-7(2)6(8-7)5(4)9/h4,6,8H,3H2,1-2H3/t4-,6-,7+/m0/s1
