16
gdb 36119	4.24908	1.14098	1.03467	1.2539	73.59	-0.2472	0.0127	0.2598	1150.5595	0.123853	-400.707733	-400.699917	-400.698973	-400.740483	29.803	
C	-0.0493565149	-1.1942368757	 0.415076411	-0.449682
C	-0.0221766512	-0.0352981945	 0.1007700996	 0.320372
C	 0.0205610686	 1.3756737974	-0.2743792038	-0.451035
C	 1.3966227629	 1.9882488442	-0.165016254	 0.416068
C	 2.0484383809	 2.388256641	 1.1237212366	-0.338883
C	 1.7722655141	 3.4454831545	 0.0682929275	-0.083567
N	 2.855406928	 3.7276908722	-0.8459291672	-0.256644
C	 3.0766248263	 2.6349125711	-1.4581217685	 0.093138
O	 2.2962365318	 1.5561410873	-1.1857971358	-0.241509
H	-0.073588109	-2.2200092328	 0.6883013995	 0.199997
H	-0.3426497463	 1.5011673723	-1.3018135264	 0.145004
H	-0.6589509085	 1.9489120565	 0.3682377477	 0.139339
H	 1.4067057466	 2.3963659193	 1.998029958	 0.126466
H	 3.0783728942	 2.1007699615	 1.3058669597	 0.128881
H	 1.0723744452	 4.2489343094	 0.2655186064	 0.105824
H	 3.8411866414	 2.4641564061	-2.2058458901	 0.146229
54.5847	107.1193	231.2478	292.9551	336.8194	390.4714	418.3917	432.0643	608.8774	623.7621	648.4306	713.9372	750.6456	818.3539	876.6437	900.4874	920.1573	940.1107	950.0588	986.2403	1027.3143	1039.3364	1069.7843	1112.0995	1135.097	1171.6303	1253.3964	1278.2796	1338.4998	1341.7203	1393.7627	1450.5072	1471.8281	1666.6459	2243.6684	3028.1846	3064.4934	3132.853	3180.0653	3226.3881	3232.3028	3505.879
C#CCC12CC1N=CO2	C#CC[C@]12C[C@H]1N=CO2	
InChI=1S/C7H7NO/c1-2-3-7-4-6(7)8-5-9-7/h1,5-6H,3-4H2	InChI=1S/C7H7NO/c1-2-3-7-4-6(7)8-5-9-7/h1,5-6H,3-4H2/t6-,7+/m1/s1
