17
gdb 47448	3.10497	1.25908	0.9407	2.7252	67.96	-0.2685	0.0054	0.2739	1203.9516	0.136685	-458.98387	-458.975916	-458.974972	-459.017363	28.961	
O	-0.4174326815	 0.1603644906	 0.6613174809	-0.338708
C	-0.2343653375	 1.2780779073	 0.2758023209	 0.433993
O	-1.241300491	 2.0785169083	-0.1611729537	-0.218981
C	-0.7349262149	 3.3564648541	-0.5888763371	-0.089628
C	 0.6407759982	 3.4990012218	 0.0761610756	-0.256457
C	 1.0959331871	 2.0378739177	 0.1832034953	-0.168233
C	 2.0221632845	 1.7086374747	 1.3257690709	 0.093785
C	 2.9585145496	 0.5852267495	 1.2613357733	-0.171268
O	 3.4142133203	 1.9334314842	 1.1006184272	-0.247007
H	-0.6651831804	 3.3547446892	-1.6830267135	 0.120718
H	-1.4563689776	 4.1172103444	-0.2850720007	 0.130197
H	 1.3232003853	 4.130149854	-0.4949930889	 0.128197
H	 0.5340677933	 3.9322212208	 1.0766042741	 0.121302
H	 1.5779423593	 1.7205464574	-0.7507190971	 0.116898
H	 1.6698692642	 2.0264258413	 2.3086937519	 0.10072
H	 3.2694786446	 0.0911368465	 2.1795771427	 0.123191
H	 2.9936707466	-0.0319263515	 0.3655150782	 0.121283
55.3971	95.0977	156.1194	197.9919	282.6273	329.0287	415.1084	551.6677	569.9219	666.6554	704.6537	822.2501	857.0237	866.6856	917.1472	941.0776	972.2412	1001.7262	1055.0722	1085.6747	1124.6104	1141.1755	1158.4669	1165.0636	1188.6326	1203.253	1235.016	1269.0875	1291.1984	1303.6124	1349.6491	1400.9996	1450.2356	1495.0551	1525.1359	1533.1542	1877.7712	3033.16	3039.9433	3055.0657	3093.28	3098.5501	3113.4541	3126.4955	3182.6185
O=C1OCCC1C1CO1	O=C1OCC[C@H]1[C@H]1CO1	
InChI=1S/C6H8O3/c7-6-4(1-2-8-6)5-3-9-5/h4-5H,1-3H2	InChI=1S/C6H8O3/c7-6-4(1-2-8-6)5-3-9-5/h4-5H,1-3H2/t4-,5+/m0/s1
