20
gdb 71728	2.51734	2.09699	1.48067	1.6334	81.26	-0.2156	0.0823	0.2979	969.3641	0.171532	-365.972795	-365.965052	-365.964108	-366.004354	31.576	
C	 0.0318793301	 1.4810891456	 0.0048784565	-0.489587
C	 0.1335665662	-0.0193594538	-0.0474960623	 0.275235
C	 0.201983878	-0.7463191074	-1.3782430167	-0.290543
C	 0.1145349314	-2.1674511087	-0.8710915644	-0.081003
C	-0.7149461107	-2.1835808378	 0.3862014125	-0.017971
C	 0.781822923	-2.2861243326	 0.4908609831	-0.167346
C	 0.7656159507	-0.84039254	 1.0287476152	 0.308856
C	 1.528801034	-0.3716390125	 2.2276733566	-0.513483
N	-0.7363672533	-0.7743348216	 0.9260069537	-0.239902
H	 0.9217324408	 1.9501561144	-0.4293752163	 0.115492
H	-0.8417632173	 1.8258490301	-0.5585781119	 0.123176
H	-0.0777150178	 1.8353925859	 1.0322184364	 0.12993
H	-0.6359701435	-0.4807136972	-2.0330690961	 0.103104
H	 1.1375094731	-0.5334301003	-1.9079388795	 0.101928
H	 0.1039394543	-3.0269452788	-1.5296673601	 0.088554
H	-1.5157867104	-2.8715785184	 0.6217672324	 0.09339
H	 1.421807296	-3.0983876929	 0.8067294426	 0.088614
H	 2.6045121988	-0.3427819424	 2.016456712	 0.118173
H	 1.2144017811	 0.6296360024	 2.533103962	 0.127566
H	 1.3709042956	-1.0458303541	 3.0767716142	 0.125817
172.4266	174.5891	218.8925	241.7741	311.2203	335.851	413.5976	545.3483	589.7433	621.9317	691.8729	731.597	764.836	784.1918	835.9891	857.746	883.5984	929.8358	958.8837	968.758	994.2386	1020.6896	1024.1066	1038.7501	1061.247	1091.2781	1103.5648	1143.2359	1181.2516	1200.4106	1225.2851	1269.3224	1283.5484	1341.8929	1374.3423	1407.885	1416.7696	1433.0303	1477.697	1487.2102	1487.5255	1494.4918	1503.1123	3026.9093	3032.943	3037.6555	3077.5996	3085.5193	3094.1535	3115.5426	3124.7002	3194.5027	3198.0045	3212.8627
CC12CC3C4C3C1(C)N24	C[C@@]12C[C@@H]3[C@H]4[C@@H]3[C@]1(C)N24	
InChI=1S/C8H11N/c1-7-3-4-5-6(4)9(7)8(5,7)2/h4-6H,3H2,1-2H3	InChI=1S/C8H11N/c1-7-3-4-5-6(4)9(7)8(5,7)2/h4-6H,3H2,1-2H3/t4-,5+,6-,7+,8-,9?/m0/s1
