22
gdb 80883	2.4163	1.72823	1.43933	1.3805	85.14	-0.221	0.0891	0.3101	1050.8372	0.195906	-367.165703	-367.157686	-367.156742	-367.197431	33.415	
C	-0.1428490993	 1.5592118748	-0.0262671963	-0.447207
C	-0.0175121988	 0.0404408389	-0.0002899778	 0.014306
C	 1.0888073722	-0.5982175749	-0.8950606418	-0.062229
C	 2.0920873385	-0.2674327329	 0.2625155283	-0.26854
C	 0.8346069329	-0.5960136075	 1.1533894542	 0.338013
C	 0.7112309529	-0.1672892218	 2.5977369364	-0.514391
C	 0.7300098022	-2.1102336675	 0.8320992586	-0.082083
N	-0.3926213101	-2.5158487446	-0.0513233067	-0.346221
C	 0.9113427669	-2.1099356163	-0.6346808563	-0.039657
H	 0.8064838408	 2.0907919015	 0.0844192259	 0.111822
H	-0.5890886971	 1.881832403	-0.9736372835	 0.114305
H	-0.8060994224	 1.9014428263	 0.7760919452	 0.115123
H	-1.0066045401	-0.4006920763	-0.1217729259	 0.098076
H	 1.2557757608	-0.2717893823	-1.9223305862	 0.05436
H	 2.9649875181	-0.91971211	 0.3708852219	 0.080578
H	 2.4068200797	 0.7762662765	 0.3039489647	 0.094241
H	 0.8495772468	 0.9130238559	 2.7094402957	 0.114929
H	-0.2754332451	-0.4219688667	 3.0014165351	 0.120784
H	 1.4626303923	-0.6628161649	 3.2243135308	 0.110449
H	 1.180019751	-2.8380619195	 1.499344199	 0.081633
H	-0.4365409643	-3.5333990715	-0.0580327127	 0.225304
H	 1.5119847222	-2.8385401399	-1.1674580887	 0.086406
192.0768	206.9822	220.9043	233.1742	284.6121	341.6329	406.096	434.0956	525.0195	585.4643	611.7238	667.8085	766.6474	800.8043	829.7151	844.4013	871.658	891.4968	909.7665	924.6595	932.2439	1009.5788	1041.2837	1057.2487	1067.1817	1078.0268	1089.5351	1107.6402	1138.5242	1149.166	1188.5684	1209.4698	1227.8453	1238.8849	1249.7983	1281.162	1295.5093	1342.1001	1377.6517	1404.0133	1412.156	1416.7473	1490.4215	1492.4473	1498.5613	1501.3793	1518.7597	3021.9162	3030.8081	3049.7683	3082.3515	3087.2089	3093.7141	3095.4893	3103.442	3116.9262	3127.4714	3160.0398	3174.9449	3484.2379
CC1C2CC1(C)C1NC21	C[C@H]1[C@H]2C[C@]1(C)[C@H]1N[C@@H]21	
InChI=1S/C8H13N/c1-4-5-3-8(4,2)7-6(5)9-7/h4-7,9H,3H2,1-2H3	InChI=1S/C8H13N/c1-4-5-3-8(4,2)7-6(5)9-7/h4-7,9H,3H2,1-2H3/t4-,5+,6-,7-,8-/m0/s1
