22
gdb 114955	2.76379	1.05697	0.83864	1.4752	83.71	-0.2377	0.0315	0.2693	1481.411	0.1942	-404.388889	-404.379037	-404.378093	-404.424618	35.513	
C	-0.6596813282	 1.6561637457	 0.0307179692	-0.384895
C	-0.2734168304	 0.1771808354	 0.1033640436	-0.184106
C	-1.4537499617	-0.7716797548	-0.0708459803	 0.103414
C	-1.1086692298	-2.2778645856	 0.0874470467	-0.208262
N	-1.8771152515	-2.7326207793	 1.2531695776	-0.312228
C	-2.5449335587	-1.7304899866	 1.6592112469	 0.406443
C	-3.4888962689	-1.7032987419	 2.8185760869	-0.270616
C	-4.9296946188	-1.3670615235	 2.4012346805	-0.378835
O	-2.4235412953	-0.5485074391	 0.9885905298	-0.269008
H	 0.2131740596	 2.2995413922	 0.1757493996	 0.113526
H	-1.0985447959	 1.9027354304	-0.9425811595	 0.11395
H	-1.3963680738	 1.9003650763	 0.8007042841	 0.133113
H	 0.4629500493	-0.0614210736	-0.675177689	 0.101162
H	 0.2071172111	-0.0442760045	 1.0649383398	 0.105455
H	-1.9676834214	-0.5612942304	-1.0159212385	 0.083881
H	-1.3827298067	-2.8668191418	-0.7945188101	 0.11128
H	-0.0365615692	-2.4335749929	 0.2589714788	 0.108504
H	-3.4386529948	-2.6799527428	 3.304157912	 0.130045
H	-3.1332443997	-0.9532799301	 3.5354764593	 0.118892
H	-5.5841501497	-1.3404904245	 3.2768503419	 0.117319
H	-4.9750640762	-0.3931208358	 1.9075312381	 0.134359
H	-5.3204242095	-2.118348533	 1.7082536725	 0.126609
50.7113	57.955	108.8652	162.8249	183.5299	215.3633	241.368	303.8309	371.0004	411.5153	465.7384	611.1783	707.8623	730.7448	791.6501	805.8241	839.2767	932.768	947.2652	973.3059	987.7198	1005.3555	1009.8168	1076.6135	1082.9727	1110.5816	1122.1217	1151.3062	1223.5478	1242.2865	1289.0691	1299.5507	1318.8508	1325.1853	1355.9684	1380.4615	1404.0889	1408.6981	1415.2336	1474.8129	1476.7131	1496.3624	1497.9109	1503.4545	1509.0555	1509.5318	1738.8003	3019.6341	3029.2288	3033.1432	3037.0601	3040.6599	3046.1741	3059.1213	3066.8299	3102.8827	3109.2416	3117.1872	3121.4949	3132.5359
CCC1CN=C(CC)O1	CC[C@H]1CN=C(CC)O1	
InChI=1S/C7H13NO/c1-3-6-5-8-7(4-2)9-6/h6H,3-5H2,1-2H3	InChI=1S/C7H13NO/c1-3-6-5-8-7(4-2)9-6/h6H,3-5H2,1-2H3/t6-/m0/s1
