20
gdb 7556	3.36737	1.27631	1.0609	2.4481	72.67	-0.2533	0.0836	0.337	1201.9705	0.173726	-386.117617	-386.10785	-386.106906	-386.152257	34.45	
C	 0.1830561427	 1.3854004829	-0.1567236386	-0.222961
O	 0.2356767613	-0.0197350538	-0.1259791018	-0.233207
C	 0.4661407382	-0.5314849438	 1.1693704833	-0.117647
C	 0.5040210455	-2.0435077741	 1.0960127915	 0.376032
C	-0.6420405092	-2.6760486653	 0.3357731864	-0.459264
O	 1.796025756	-2.6197532606	 0.8314425604	-0.294889
C	 1.2152441032	-2.8296254393	 2.1227279749	 0.025934
C	 1.9480421746	-2.2841334922	 3.3243099404	-0.428089
H	 1.1295418661	 1.8379490987	 0.1792054308	 0.105913
H	-0.0022488217	 1.6831804895	-1.1915090528	 0.129011
H	-0.6277610777	 1.7785721662	 0.4778587336	 0.101824
H	 1.4143530974	-0.1459858599	 1.5682734026	 0.093149
H	-0.3417609412	-0.2141658517	 1.8538383285	 0.083932
H	-0.6579067163	-2.3099393945	-0.6930916017	 0.145787
H	-0.5363173365	-3.7633730348	 0.3244884821	 0.120368
H	-1.6022763707	-2.4212346665	 0.7980314338	 0.113891
H	 0.8441982374	-3.8479222227	 2.2673669459	 0.080666
H	 2.3175729812	-1.270355042	 3.1618226196	 0.127286
H	 1.2925565839	-2.2821709332	 4.2022212807	 0.121423
H	 2.8084087056	-2.9215186229	 3.5544727305	 0.13084
71.0648	87.7666	138.6303	174.5928	184.9065	230.5334	238.5717	257.2032	346.1915	372.2083	460.5975	489.1524	516.6983	736.7618	784.8518	897.8212	951.5379	967.2206	988.8804	1011.396	1092.0905	1118.0443	1130.4074	1161.3287	1172.1585	1188.4074	1226.7575	1261.1561	1294.5372	1345.7005	1406.8033	1408.552	1426.151	1463.3954	1476.5722	1478.9794	1484.733	1488.32	1496.9598	1497.5868	1516.8479	1523.491	2940.3895	2967.9023	3010.902	3023.7292	3038.9119	3041.8322	3068.157	3097.3482	3112.3415	3115.2054	3136.6215	3137.9785
COCC1(C)OC1C	COC[C@@]1(C)O[C@H]1C	
InChI=1S/C6H12O2/c1-5-6(2,8-5)4-7-3/h5H,4H2,1-3H3	InChI=1S/C6H12O2/c1-5-6(2,8-5)4-7-3/h5H,4H2,1-3H3/t5-,6+/m0/s1
