14
gdb 15755	2.73926	1.81313	1.28312	0.3451	59.43	-0.2609	-0.06	0.2009	931.0676	0.104671	-419.671348	-419.663391	-419.662447	-419.704695	27.125	
O	-0.6849235022	 2.9176117295	-0.6362179602	-0.224486
C	-0.015318987	 1.9330309109	-0.4564231959	 0.147938
C	 1.4595452292	 1.9697444751	-0.0823305007	-0.38641
C	 2.2945911645	 1.7962659972	-1.3588072191	 0.361341
O	 2.4466494436	 0.7213143833	-1.887716506	-0.300391
C	 2.8935675867	 3.0381144815	-1.9577189347	-0.023326
C	 2.1160899188	 4.2962836766	-2.033357373	-0.18987
O	 3.1636587548	 4.1364213003	-1.0864006053	-0.213564
H	-0.4371958741	 0.915467427	-0.5883984911	 0.110496
H	 1.694619042	 2.9170873887	 0.4038628326	 0.156979
H	 1.689633182	 1.1237047842	 0.570331329	 0.143638
H	 3.6478438804	 2.8341860807	-2.7149802792	 0.121934
H	 2.3265266155	 4.9741368084	-2.8583127045	 0.13612
H	 1.1100936658	 4.3355087666	-1.620363272	 0.159601
68.0528	84.2608	107.4367	192.338	245.6255	283.8285	470.4668	500.5521	505.7737	691.0769	738.1043	873.0311	889.8491	910.9131	925.5677	1042.4959	1047.4582	1097.5124	1146.3565	1173.8252	1177.8172	1231.5459	1256.1472	1278.0282	1383.7227	1415.1076	1469.295	1527.0093	1790.3872	1830.9278	2925.3951	3075.1443	3096.3293	3145.5779	3152.979	3195.4413
O=CCC(=O)C1CO1	O=CCC(=O)[C@H]1CO1	
InChI=1S/C5H6O3/c6-2-1-4(7)5-3-8-5/h2,5H,1,3H2	InChI=1S/C5H6O3/c6-2-1-4(7)5-3-8-5/h2,5H,1,3H2/t5-/m1/s1
